AV-unprocessed.smi:875|AV-procd|sdf|4018|dock5
  -GOLD-   22720 1503D 1   1.00000     0.00000
 Structure written by MMmdl.
 37 38  0  0  0  0  0  0  0  0  1 V2000
  146.9540  139.4092  153.0853 C   0  0  0  0  0  0  0  0  0  0  0  0
  148.1857  138.7613  153.5084 N   0  0  0  0  0  0  0  0  0  0  0  0
  148.9497  139.1824  154.5276 C   0  0  0  0  0  0  0  0  0  0  0  0
  148.6860  140.1779  155.2019 O   0  0  0  0  0  0  0  0  0  0  0  0
  150.2107  138.3677  154.8285 C   0  0  0  0  0  0  0  0  0  0  0  0
  151.0358  139.0245  155.8898 C   0  0  0  0  0  0  0  0  0  0  0  0
  152.2728  139.4425  155.6456 N   0  0  0  0  0  0  0  0  0  0  0  0
  152.6776  139.9904  156.8714 O   0  0  0  0  0  0  0  0  0  0  0  0
  151.6286  139.8320  157.7136 C   0  0  0  0  0  0  0  0  0  0  0  0
  151.7577  140.3169  159.1200 C   0  0  0  0  0  0  0  0  0  0  0  0
  152.5843  141.4726  159.0955 O   0  0  0  0  0  0  0  0  0  0  0  0
  151.9740  142.6459  159.6166 C   0  0  0  0  0  0  0  0  0  0  0  0
  152.3599  143.8913  158.7897 C   0  0  0  0  0  0  0  0  0  0  0  0
  151.8139  145.1791  159.4283 C   0  0  0  0  0  0  0  0  0  0  0  0
  152.2783  145.3222  160.8862 C   0  0  0  0  0  0  0  0  0  0  0  0
  151.8985  144.0837  161.7131 C   0  0  0  0  0  0  0  0  0  0  0  0
  152.4480  142.7986  161.0727 C   0  0  0  0  0  0  0  0  0  0  0  0
  150.5806  139.2268  157.1577 N   0  0  0  0  0  0  0  0  0  0  0  0
  146.5073  138.8551  152.2599 H   0  0  0  0  0  0  0  0  0  0  0  0
  147.1480  140.4281  152.7479 H   0  0  0  0  0  0  0  0  0  0  0  0
  146.2320  139.4436  153.9024 H   0  0  0  0  0  0  0  0  0  0  0  0
  148.4711  137.9343  153.0031 H   0  0  0  0  0  0  0  0  0  0  0  0
  149.9274  137.3642  155.1485 H   0  0  0  0  0  0  0  0  0  0  0  0
  150.8053  138.2544  153.9209 H   0  0  0  0  0  0  0  0  0  0  0  0
  150.7638  140.5372  159.5086 H   0  0  0  0  0  0  0  0  0  0  0  0
  152.2043  139.5337  159.7344 H   0  0  0  0  0  0  0  0  0  0  0  0
  150.8888  142.5262  159.6198 H   0  0  0  0  0  0  0  0  0  0  0  0
  153.4459  143.9562  158.7111 H   0  0  0  0  0  0  0  0  0  0  0  0
  151.9808  143.8122  157.7713 H   0  0  0  0  0  0  0  0  0  0  0  0
  152.1352  146.0457  158.8499 H   0  0  0  0  0  0  0  0  0  0  0  0
  150.7238  145.1703  159.3922 H   0  0  0  0  0  0  0  0  0  0  0  0
  153.3598  145.4625  160.9130 H   0  0  0  0  0  0  0  0  0  0  0  0
  151.8396  146.2157  161.3311 H   0  0  0  0  0  0  0  0  0  0  0  0
  152.2797  144.1850  162.7295 H   0  0  0  0  0  0  0  0  0  0  0  0
  150.8129  144.0165  161.7945 H   0  0  0  0  0  0  0  0  0  0  0  0
  152.1365  141.9328  161.6580 H   0  0  0  0  0  0  0  0  0  0  0  0
  153.5383  142.8157  161.1040 H   0  0  0  0  0  0  0  0  0  0  0  0
  1  2  1  0  0  0  0
  1 19  1  0  0  0  0
  1 20  1  0  0  0  0
  1 21  1  0  0  0  0
  2  3  1  0  0  0  0
  2 22  1  0  0  0  0
  3  4  2  0  0  0  0
  3  5  1  0  0  0  0
  5  6  1  0  0  0  0
  5 23  1  0  0  0  0
  5 24  1  0  0  0  0
  6 18  1  0  0  0  0
  6  7  2  0  0  0  0
  7  8  1  0  0  0  0
  8  9  1  0  0  0  0
  9 10  1  0  0  0  0
  9 18  2  0  0  0  0
 10 11  1  0  0  0  0
 10 25  1  0  0  0  0
 10 26  1  0  0  0  0
 11 12  1  0  0  0  0
 12 17  1  0  0  0  0
 12 13  1  0  0  0  0
 12 27  1  0  0  0  0
 13 14  1  0  0  0  0
 13 28  1  0  0  0  0
 13 29  1  0  0  0  0
 14 15  1  0  0  0  0
 14 30  1  0  0  0  0
 14 31  1  0  0  0  0
 15 16  1  0  0  0  0
 15 32  1  0  0  0  0
 15 33  1  0  0  0  0
 16 17  1  0  0  0  0
 16 34  1  0  0  0  0
 16 35  1  0  0  0  0
 17 36  1  0  0  0  0
 17 37  1  0  0  0  0
M  END
> <s_m_source_file>
AV-unprocessed.smi

> <i_m_source_file_index>
875

> <i_lp_mmshare_version>
43012

> <i_f3d_flags>
0

> <s_epik_input>
W0NIM11bTkhdQyg9TylbQ0gyXWMxbm9jKG4xKVtDSDJdT1tDSF0yW0NIMl1bQ0gyXVtDSDJdW0NIMl1bQ0gyXTI=

> <s_epik_cmdline>
J2VwaWtfcHl0aG9uJywgJy1waCcsICc3LjAnLCAnLXRuJywgJzgnLCAnLW1hJywgJzIwMCcsICctbWV0YWxfYmluZGluZycsICctaW1hZScsICc8aW5maWxlLm1hZT4nLCAnLW9tYWUnLCAnPG91dGZpbGUubWFlPic=

> <r_lp_tautomer_probability>
1

> <r_epik_Ionization_Penalty>
1.02915e-07

> <r_epik_Ionization_Penalty_Charging>
0

> <r_epik_Ionization_Penalty_Neutral>
1.02915e-07

> <r_epik_State_Penalty>
-0

> <r_epik_Charging_Adjusted_Penalty>
0

> <i_epik_Tot_Q>
0

> <i_epik_Tot_abs_Q>
0

> <r_epik_Metal_State_Penalty>
-0

> <b_epik_Metal_Only>
0

> <s_lp_Force_Field>
OPLS_2005

> <r_lp_Energy>
10.4582

> <b_lp_Chiralities_Consistent>
1

> <s_lp_Variant>
AV-unprocessed.smi:875-1

> <Gold.Version>
5.8.1

> <Gold.Id.Protein>
6NUR|6NUR_protein|mol2

> <Gold.PLP.Fitness>
44.9941

> <Gold.PLP.PLP>
-39.0975

> <Gold.PLP.part.hbond>
-4.0000

> <Gold.PLP.part.metal>
0.0000

> <Gold.PLP.part.buried>
-1.9778

> <Gold.PLP.part.nonpolar>
-33.1745

> <Gold.PLP.part.repulsive>
0.1710

> <Gold.PLP.ligand.clash>
0.0000

> <Gold.PLP.ligand.torsion>
1.3084

> <Gold.PLP.Chemscore.Hbond>
2.8320

> <Gold.PLP.Chemscore.CHOScore>
0.0000

> <Gold.PLP.Chemscore.Metal>
0.0000

> <Gold.Chemscore.Hbonds>
donor molecule, donor type, donor heavy atom, donor atom, acceptor molecule, acceptor atom, score
      L1  H     2    22       P1  7948  0.86
      P1  H  7997  8009       L1     8  0.70

> <Gold.PLP.Chemscore.Internal.Correction>
0.0175

> <Gold.Rescore>
     Score         DG    S(hbond)    S(metal)    S(lipo)     H(rot)  DE(clash)    DE(int)     intcor
     14.65     -17.31       2.04        0.00      90.46       2.18       0.20       2.46       ----

> <Gold.Chemscore.Fitness>
14.6516

> <Gold.Chemscore.DG>
-17.3060

> <Gold.Chemscore.ZeroCoef>
-5.4800

> <Gold.Chemscore.Hbond>
2.0401

> <Gold.Chemscore.Metal>
0.0000

> <Gold.Chemscore.Lipo>
90.4560

> <Gold.Chemscore.Internal_Hbond>
0.0000

> <Gold.Chemscore.DEClash>
0.1962

> <Gold.Chemscore.DEInternal>
2.4582

> <Gold.Chemscore.Rot>
2.1763

> <Gold.Chemscore.Internal.Correction>
   9.000000E+99

> <Gold.Chemscore.Hbonds>
donor molecule, donor type, donor heavy atom, donor atom, acceptor molecule, acceptor atom, score
      L1  H     2    22       P1  7948  0.84
      P1  H  7997  8009       L1     8  0.07

> <Gold.Chemscore.Hbond.Weighted>
-6.8139

> <Gold.Chemscore.Metal.Weighted>
-0.0000

> <Gold.Chemscore.Lipo.Weighted>
-10.5834

> <Gold.Chemscore.Internal_Hbond.Weighted>
0.0000

> <Gold.Chemscore.DEClash.Weighted>
0.1962

> <Gold.Chemscore.DEInternal.Weighted>
2.4582

> <Gold.Chemscore.Rot.Weighted>
5.5712

> <Gold.Chemscore.Internal.Correction.Weighted>
   9.000000E+99

> <Gold.Protein.RotatedTorsions>
[ 6907 6896 6895 6894 ] final  176.35 input  -60.11 | X-H torsion
[ 7974 7965 7964 7962 ] final  -99.27 input  175.53 | X-H torsion
[ 8008 7997 7996 7995 ] final -165.40 input   59.86 | X-H torsion
[ 10167 10162 10161 10158 ] final -119.16 input  -65.29 | X-H torsion
[ 10718 10713 10712 10709 ] final    2.13 input   66.30 | X-H torsion
[ 10763 10752 10751 10750 ] final -129.71 input  -60.55 | X-H torsion
[ 11005 11000 10999 10996 ] final   71.22 input  -57.11 | X-H torsion

> <Gold.Protein.ActiveResidues>
 VAL166  LYS551  ARG553  GLY616  TRP617  ASP618  TYR619  PRO620  LYS621  CYS622 
 ASP623  PHE694  ASN695  SER759  ASP760  ASP761  ALA762  ILE779  LEU786  VAL792 
 PHE793  MET794  SER795  GLU796  ALA797  LYS798  CYS799  TRP800  GLU811  SER814 

> <Gold.Protein.RotatedAtoms>
  151.7215  133.3314  159.3316 H   0  0  0  0  0  0  0  0  0  0  0  0  # atno 6907 bound_to 6896
  150.7651  134.6444  159.6263 H   0  0  0  0  0  0  0  0  0  0  0  0  # atno 6908 bound_to 6896
  152.3649  134.6821  160.0247 H   0  0  0  0  0  0  0  0  0  0  0  0  # atno 6909 bound_to 6896
  145.3098  140.9397  143.2776 H   0  0  0  0  0  0  0  0  0  0  0  0  # atno 7974 bound_to 7965
  155.8492  140.0960  157.1685 H   0  0  0  0  0  0  0  0  0  0  0  0  # atno 8008 bound_to 7997
  154.3985  140.1386  156.3885 H   0  0  0  0  0  0  0  0  0  0  0  0  # atno 8009 bound_to 7997
  155.7979  140.3454  155.5388 H   0  0  0  0  0  0  0  0  0  0  0  0  # atno 8010 bound_to 7997
  140.0497  143.5072  152.2088 H   0  0  0  0  0  0  0  0  0  0  0  0  # atno 10167 bound_to 10162
  156.8585  130.5578  149.5664 H   0  0  0  0  0  0  0  0  0  0  0  0  # atno 10718 bound_to 10713
  154.8757  135.3886  154.3964 H   0  0  0  0  0  0  0  0  0  0  0  0  # atno 10763 bound_to 10752
  153.4694  135.7030  153.6008 H   0  0  0  0  0  0  0  0  0  0  0  0  # atno 10764 bound_to 10752
  153.4471  135.3842  155.2230 H   0  0  0  0  0  0  0  0  0  0  0  0  # atno 10765 bound_to 10752
  139.9555  134.7152  156.0763 H   0  0  0  0  0  0  0  0  0  0  0  0  # atno 11005 bound_to 11000
  144.9025  139.4631  143.6625 LP  0  0  0  0  0  0  0  0  0  0  0  0  # atno 17320 bound_to 7965
  146.3122  139.7787  142.9011 LP  0  0  0  0  0  0  0  0  0  0  0  0  # atno 17321 bound_to 7965
  139.5961  144.7567  151.3283 LP  0  0  0  0  0  0  0  0  0  0  0  0  # atno 17342 bound_to 10162
  140.7222  143.7103  150.7775 LP  0  0  0  0  0  0  0  0  0  0  0  0  # atno 17343 bound_to 10162
  156.0789  130.5805  150.9527 LP  0  0  0  0  0  0  0  0  0  0  0  0  # atno 17370 bound_to 10713
  157.6263  131.0925  150.8526 LP  0  0  0  0  0  0  0  0  0  0  0  0  # atno 17371 bound_to 10713
  141.1225  133.6608  156.3252 LP  0  0  0  0  0  0  0  0  0  0  0  0  # atno 17394 bound_to 11000
  140.5620  134.5925  157.5436 LP  0  0  0  0  0  0  0  0  0  0  0  0  # atno 17395 bound_to 11000

$$$$
