AV-unprocessed.smi:798|AV-procd|sdf|3783|dock7
  -GOLD-   22720 1213D 1   1.00000     0.00000
 Structure written by MMmdl.
 33 35  0  0  0  0  0  0  0  0  2 V2000
  150.6673  141.2982  156.4884 O   0  0  0  0  0  0  0  0  0  0  0  0
  151.7124  140.8427  156.9584 C   0  0  0  0  0  0  0  0  0  0  0  0
  152.5091  139.9112  156.3870 N   0  5  0  0  0  0  0  0  0  0  0  0
  151.9670  138.9130  155.6702 C   0  0  0  0  0  0  0  0  0  0  0  0
  152.6623  137.8175  155.3247 N   0  0  0  0  0  0  0  0  0  0  0  0
  151.9184  136.9100  154.5826 N   0  0  0  0  0  0  0  0  0  0  0  0
  150.6776  137.3516  154.3779 C   0  0  0  0  0  0  0  0  0  0  0  0
  150.3058  138.9159  155.0714 S   0  0  0  0  0  0  0  0  0  0  0  0
  152.1500  141.2649  158.1534 N   0  0  0  0  0  0  0  0  0  0  0  0
  151.5032  142.2614  159.0096 C   0  0  2  0  0  0  0  0  0  0  0  0
  151.4688  143.6316  158.2984 C   0  0  1  0  0  0  0  0  0  0  0  0
  150.4624  144.5476  159.0183 C   0  0  0  0  0  0  0  0  0  0  0  0
  151.1902  144.8706  160.3373 C   0  0  0  0  0  0  0  0  0  0  0  0
  152.5184  144.1004  160.1951 C   0  0  2  0  0  0  0  0  0  0  0  0
  152.7990  144.2538  158.7057 C   0  0  0  0  0  0  0  0  0  0  0  0
  152.2515  142.5817  160.3400 C   0  0  2  0  0  0  0  0  0  0  0  0
  153.5312  141.7598  160.6184 C   0  0  0  0  0  0  0  0  0  0  0  0
  153.9952  141.9941  161.9317 O   0  0  0  0  0  0  0  0  0  0  0  0
  149.9782  136.7540  153.8126 H   0  0  0  0  0  0  0  0  0  0  0  0
  153.0091  140.8618  158.4971 H   0  0  0  0  0  0  0  0  0  0  0  0
  150.4818  141.9363  159.2172 H   0  0  0  0  0  0  0  0  0  0  0  0
  151.2987  143.5694  157.2227 H   0  0  0  0  0  0  0  0  0  0  0  0
  150.2877  145.4585  158.4445 H   0  0  0  0  0  0  0  0  0  0  0  0
  149.4981  144.0642  159.1792 H   0  0  0  0  0  0  0  0  0  0  0  0
  151.3715  145.9429  160.4199 H   0  0  0  0  0  0  0  0  0  0  0  0
  150.6212  144.5610  161.2147 H   0  0  0  0  0  0  0  0  0  0  0  0
  153.3032  144.4809  160.8493 H   0  0  0  0  0  0  0  0  0  0  0  0
  153.6666  143.6886  158.3625 H   0  0  0  0  0  0  0  0  0  0  0  0
  152.9050  145.2931  158.3898 H   0  0  0  0  0  0  0  0  0  0  0  0
  151.5706  142.4095  161.1752 H   0  0  0  0  0  0  0  0  0  0  0  0
  153.3273  140.6929  160.5291 H   0  0  0  0  0  0  0  0  0  0  0  0
  154.3250  141.9998  159.9108 H   0  0  0  0  0  0  0  0  0  0  0  0
  153.6471  141.3196  162.4947 H   0  0  0  0  0  0  0  0  0  0  0  0
  1  2  2  0  0  0  0
  2  3  1  0  0  0  0
  2  9  1  0  0  0  0
  3  4  1  0  0  0  0
  4  8  1  0  0  0  0
  4  5  2  0  0  0  0
  5  6  1  0  0  0  0
  6  7  2  0  0  0  0
  7  8  1  0  0  0  0
  7 19  1  0  0  0  0
  9 10  1  0  0  0  0
  9 20  1  0  0  0  0
 10 16  1  0  0  0  0
 10 11  1  0  0  0  0
 10 21  1  0  0  0  0
 11 15  1  0  0  0  0
 11 12  1  0  0  0  0
 11 22  1  0  0  0  0
 12 13  1  0  0  0  0
 12 23  1  0  0  0  0
 12 24  1  0  0  0  0
 13 14  1  0  0  0  0
 13 25  1  0  0  0  0
 13 26  1  0  0  0  0
 14 15  1  0  0  0  0
 14 16  1  0  0  0  0
 14 27  1  0  0  0  0
 15 28  1  0  0  0  0
 15 29  1  0  0  0  0
 16 17  1  0  0  0  0
 16 30  1  0  0  0  0
 17 18  1  0  0  0  0
 17 31  1  0  0  0  0
 17 32  1  0  0  0  0
 18 33  1  0  0  0  0
M  CHG  1   3  -1
M  END
> <s_m_source_file>
AV-unprocessed.smi

> <i_m_source_file_index>
798

> <i_lp_mmshare_version>
43012

> <i_f3d_flags>
0

> <s_epik_input>
W0NIMl0xW0NIMl1bQ0BASF0oW0NIMl0yKVtDQEBIXShbQ0gyXVtPSF0pW0NAQEhdKFtDQEhdMTIpW05IXUMoPU8pW05IXWMzbm5bY0hdczM=

> <s_epik_cmdline>
J2VwaWtfcHl0aG9uJywgJy1waCcsICc3LjAnLCAnLXRuJywgJzgnLCAnLW1hJywgJzIwMCcsICctbWV0YWxfYmluZGluZycsICctaW1hZScsICc8aW5maWxlLm1hZT4nLCAnLW9tYWUnLCAnPG91dGZpbGUubWFlPic=

> <r_lp_tautomer_probability>
1

> <r_epik_Ionization_Penalty>
4.53732

> <r_epik_Ionization_Penalty_Charging>
4.48632

> <r_epik_Ionization_Penalty_Neutral>
0.0510007

> <r_epik_State_Penalty>
4.48602

> <r_epik_Charging_Adjusted_Penalty>
8.97234

> <i_epik_Tot_Q>
-1

> <i_epik_Tot_abs_Q>
1

> <r_epik_Metal_State_Penalty>
0.812492

> <b_epik_Metal_Only>
1

> <s_lp_Force_Field>
OPLS_2005

> <r_lp_Energy>
47.4456

> <b_lp_Chiralities_Consistent>
1

> <s_lp_Variant>
AV-unprocessed.smi:798-15

> <Gold.Version>
5.8.1

> <Gold.Id.Protein>
6NUR|6NUR_protein|mol2

> <Gold.PLP.Fitness>
50.8592

> <Gold.PLP.PLP>
-39.5747

> <Gold.PLP.part.hbond>
-4.0000

> <Gold.PLP.part.metal>
0.0000

> <Gold.PLP.part.buried>
-4.7832

> <Gold.PLP.part.nonpolar>
-31.2689

> <Gold.PLP.part.repulsive>
0.3035

> <Gold.PLP.ligand.clash>
0.0000

> <Gold.PLP.ligand.torsion>
0.3682

> <Gold.PLP.Chemscore.Hbond>
3.0000

> <Gold.PLP.Chemscore.CHOScore>
1.0000

> <Gold.PLP.Chemscore.Metal>
0.0000

> <Gold.Chemscore.Hbonds>
donor molecule, donor type, donor heavy atom, donor atom, acceptor molecule, acceptor atom, score
      P1  H  7997  8010       L1     3  2.00
      P1  H 10752 10763       L1     6  1.00
      L1  C     7    19       P1  7948  1.00

> <Gold.PLP.Chemscore.Internal.Correction>
0.0210

> <Gold.Rescore>
     Score         DG    S(hbond)    S(metal)    S(lipo)     H(rot)  DE(clash)    DE(int)     intcor
     16.06     -17.99       1.70        0.00     100.38       1.92       0.11       1.82       ----

> <Gold.Chemscore.Fitness>
16.0633

> <Gold.Chemscore.DG>
-17.9935

> <Gold.Chemscore.ZeroCoef>
-5.4800

> <Gold.Chemscore.Hbond>
1.7022

> <Gold.Chemscore.Metal>
0.0000

> <Gold.Chemscore.Lipo>
100.3842

> <Gold.Chemscore.Internal_Hbond>
0.0000

> <Gold.Chemscore.DEClash>
0.1135

> <Gold.Chemscore.DEInternal>
1.8167

> <Gold.Chemscore.Rot>
1.9207

> <Gold.Chemscore.Internal.Correction>
   9.000000E+99

> <Gold.Chemscore.Hbonds>
donor molecule, donor type, donor heavy atom, donor atom, acceptor molecule, acceptor atom, score
      P1  H  7997  8010       L1     3  0.93
      P1  H 10752 10763       L1     6  0.43

> <Gold.Chemscore.Hbond.Weighted>
-5.6854

> <Gold.Chemscore.Metal.Weighted>
-0.0000

> <Gold.Chemscore.Lipo.Weighted>
-11.7450

> <Gold.Chemscore.Internal_Hbond.Weighted>
0.0000

> <Gold.Chemscore.DEClash.Weighted>
0.1135

> <Gold.Chemscore.DEInternal.Weighted>
1.8167

> <Gold.Chemscore.Rot.Weighted>
4.9169

> <Gold.Chemscore.Internal.Correction.Weighted>
   9.000000E+99

> <Gold.Protein.RotatedTorsions>
[ 6907 6896 6895 6894 ] final  111.63 input  -60.11 | X-H torsion
[ 7974 7965 7964 7962 ] final  -72.76 input  175.53 | X-H torsion
[ 8008 7997 7996 7995 ] final   62.24 input   59.86 | X-H torsion
[ 10167 10162 10161 10158 ] final  -84.43 input  -65.29 | X-H torsion
[ 10718 10713 10712 10709 ] final  157.32 input   66.30 | X-H torsion
[ 10763 10752 10751 10750 ] final   45.82 input  -60.55 | X-H torsion
[ 11005 11000 10999 10996 ] final -132.42 input  -57.11 | X-H torsion

> <Gold.Protein.ActiveResidues>
 VAL166  LYS551  ARG553  GLY616  TRP617  ASP618  TYR619  PRO620  LYS621  CYS622 
 ASP623  PHE694  ASN695  SER759  ASP760  ASP761  ALA762  ILE779  LEU786  VAL792 
 PHE793  MET794  SER795  GLU796  ALA797  LYS798  CYS799  TRP800  GLU811  SER814 

> <Gold.Protein.RotatedAtoms>
  152.4959  133.8630  159.7259 H   0  0  0  0  0  0  0  0  0  0  0  0  # atno 6907 bound_to 6896
  150.9137  133.6957  159.2855 H   0  0  0  0  0  0  0  0  0  0  0  0  # atno 6908 bound_to 6896
  151.4357  135.1019  159.9708 H   0  0  0  0  0  0  0  0  0  0  0  0  # atno 6909 bound_to 6896
  145.6610  140.9252  143.0934 H   0  0  0  0  0  0  0  0  0  0  0  0  # atno 7974 bound_to 7965
  155.6112  140.3495  155.4623 H   0  0  0  0  0  0  0  0  0  0  0  0  # atno 8008 bound_to 7997
  156.0153  140.1242  157.0437 H   0  0  0  0  0  0  0  0  0  0  0  0  # atno 8009 bound_to 7997
  154.4295  140.1073  156.5873 H   0  0  0  0  0  0  0  0  0  0  0  0  # atno 8010 bound_to 7997
  140.4133  143.2614  151.8988 H   0  0  0  0  0  0  0  0  0  0  0  0  # atno 10167 bound_to 10162
  157.1931  131.0659  151.2068 H   0  0  0  0  0  0  0  0  0  0  0  0  # atno 10718 bound_to 10713
  152.9819  135.6027  154.3499 H   0  0  0  0  0  0  0  0  0  0  0  0  # atno 10763 bound_to 10752
  154.3189  135.2770  155.2531 H   0  0  0  0  0  0  0  0  0  0  0  0  # atno 10764 bound_to 10752
  154.4707  135.5942  153.6375 H   0  0  0  0  0  0  0  0  0  0  0  0  # atno 10765 bound_to 10752
  140.9172  134.1492  157.4343 H   0  0  0  0  0  0  0  0  0  0  0  0  # atno 11005 bound_to 11000
  144.7089  139.8448  143.7421 LP  0  0  0  0  0  0  0  0  0  0  0  0  # atno 17320 bound_to 7965
  146.1125  139.4132  143.0278 LP  0  0  0  0  0  0  0  0  0  0  0  0  # atno 17321 bound_to 7965
  139.4782  144.5514  151.8380 LP  0  0  0  0  0  0  0  0  0  0  0  0  # atno 17342 bound_to 10162
  140.4614  144.1717  150.5907 LP  0  0  0  0  0  0  0  0  0  0  0  0  # atno 17343 bound_to 10162
  157.3841  130.7247  149.6650 LP  0  0  0  0  0  0  0  0  0  0  0  0  # atno 17370 bound_to 10713
  155.9709  130.4164  150.4231 LP  0  0  0  0  0  0  0  0  0  0  0  0  # atno 17371 bound_to 10713
  139.8768  134.9958  156.5761 LP  0  0  0  0  0  0  0  0  0  0  0  0  # atno 17394 bound_to 11000
  140.8035  133.8486  155.8747 LP  0  0  0  0  0  0  0  0  0  0  0  0  # atno 17395 bound_to 11000

$$$$
