AV-unprocessed.smi:940|AV-procd|sdf|4219|dock10
  -GOLD-   22720 2133D 1   1.00000     0.00000
 Structure written by MMmdl.
 36 36  0  0  0  0  0  0  0  0  1 V2000
  149.1663  133.8892  154.4254 C   0  0  0  0  0  0  0  0  0  0  0  0
  149.7895  134.9919  155.2910 C   0  0  0  0  0  0  0  0  0  0  0  0
  150.0655  136.1928  154.5117 N   0  0  0  0  0  0  0  0  0  0  0  0
  150.7245  137.2718  154.9636 C   0  0  0  0  0  0  0  0  0  0  0  0
  151.1810  137.3600  156.1031 O   0  0  0  0  0  0  0  0  0  0  0  0
  150.9010  138.4283  153.9779 C   0  0  0  0  0  0  0  0  0  0  0  0
  150.2508  139.6340  154.4592 N   0  0  0  0  0  0  0  0  0  0  0  0
  149.1789  140.3074  153.9082 C   0  0  0  0  0  0  0  0  0  0  0  0
  148.9096  141.3792  154.7105 C   0  0  0  0  0  0  0  0  0  0  0  0
  149.8877  141.2676  155.7441 C   0  0  0  0  0  0  0  0  0  0  0  0
  150.0489  142.1517  156.8419 N   0  0  0  0  0  0  0  0  0  0  0  0
  150.5271  141.8838  158.0705 C   0  0  0  0  0  0  0  0  0  0  0  0
  150.9345  140.7832  158.4408 O   0  0  0  0  0  0  0  0  0  0  0  0
  150.5573  143.0605  159.0447 C   0  0  0  0  0  0  0  0  0  0  0  0
  151.0642  142.6064  160.2892 O   0  0  0  0  0  0  0  0  0  0  0  0
  152.4796  142.6399  160.3506 C   0  0  0  0  0  0  0  0  0  0  0  0
  152.9268  142.1400  161.7261 C   0  0  0  0  0  0  0  0  0  0  0  0
  150.6915  140.2297  155.5893 N   0  0  0  0  0  0  0  0  0  0  0  0
  148.9415  133.0073  155.0255 H   0  0  0  0  0  0  0  0  0  0  0  0
  149.8417  133.5817  153.6266 H   0  0  0  0  0  0  0  0  0  0  0  0
  148.2356  134.2257  153.9679 H   0  0  0  0  0  0  0  0  0  0  0  0
  149.1042  135.2586  156.0958 H   0  0  0  0  0  0  0  0  0  0  0  0
  150.7022  134.6308  155.7681 H   0  0  0  0  0  0  0  0  0  0  0  0
  149.7277  136.2065  153.5604 H   0  0  0  0  0  0  0  0  0  0  0  0
  151.9621  138.6289  153.8204 H   0  0  0  0  0  0  0  0  0  0  0  0
  150.4784  138.1604  153.0087 H   0  0  0  0  0  0  0  0  0  0  0  0
  148.7015  139.9707  152.9999 H   0  0  0  0  0  0  0  0  0  0  0  0
  148.1338  142.1155  154.5645 H   0  0  0  0  0  0  0  0  0  0  0  0
  149.7768  143.1085  156.6686 H   0  0  0  0  0  0  0  0  0  0  0  0
  151.1964  143.8439  158.6344 H   0  0  0  0  0  0  0  0  0  0  0  0
  149.5570  143.4778  159.1746 H   0  0  0  0  0  0  0  0  0  0  0  0
  152.9047  142.0086  159.5689 H   0  0  0  0  0  0  0  0  0  0  0  0
  152.8404  143.6566  160.1882 H   0  0  0  0  0  0  0  0  0  0  0  0
  154.0135  142.1507  161.8103 H   0  0  0  0  0  0  0  0  0  0  0  0
  152.5873  141.1185  161.9002 H   0  0  0  0  0  0  0  0  0  0  0  0
  152.5229  142.7675  162.5209 H   0  0  0  0  0  0  0  0  0  0  0  0
  1  2  1  0  0  0  0
  1 19  1  0  0  0  0
  1 20  1  0  0  0  0
  1 21  1  0  0  0  0
  2  3  1  0  0  0  0
  2 22  1  0  0  0  0
  2 23  1  0  0  0  0
  3  4  1  0  0  0  0
  3 24  1  0  0  0  0
  4  5  2  0  0  0  0
  4  6  1  0  0  0  0
  6  7  1  0  0  0  0
  6 25  1  0  0  0  0
  6 26  1  0  0  0  0
  7 18  1  0  0  0  0
  7  8  1  0  0  0  0
  8  9  2  0  0  0  0
  8 27  1  0  0  0  0
  9 10  1  0  0  0  0
  9 28  1  0  0  0  0
 10 11  1  0  0  0  0
 10 18  2  0  0  0  0
 11 12  1  0  0  0  0
 11 29  1  0  0  0  0
 12 13  2  0  0  0  0
 12 14  1  0  0  0  0
 14 15  1  0  0  0  0
 14 30  1  0  0  0  0
 14 31  1  0  0  0  0
 15 16  1  0  0  0  0
 16 17  1  0  0  0  0
 16 32  1  0  0  0  0
 16 33  1  0  0  0  0
 17 34  1  0  0  0  0
 17 35  1  0  0  0  0
 17 36  1  0  0  0  0
M  END
> <s_m_source_file>
AV-unprocessed.smi

> <i_m_source_file_index>
940

> <i_lp_mmshare_version>
43012

> <i_f3d_flags>
0

> <s_epik_input>
W0NIM11bQ0gyXVtOSF1DKD1PKVtDSDJdbjFbY0hdW2NIXWMobjEpW05IXUMoPU8pW0NIMl1PW0NIMl1bQ0gzXQ==

> <s_epik_cmdline>
J2VwaWtfcHl0aG9uJywgJy1waCcsICc3LjAnLCAnLXRuJywgJzgnLCAnLW1hJywgJzIwMCcsICctbWV0YWxfYmluZGluZycsICctaW1hZScsICc8aW5maWxlLm1hZT4nLCAnLW9tYWUnLCAnPG91dGZpbGUubWFlPic=

> <r_lp_tautomer_probability>
1

> <r_epik_Ionization_Penalty>
3.22351e-06

> <r_epik_Ionization_Penalty_Charging>
0

> <r_epik_Ionization_Penalty_Neutral>
3.22351e-06

> <r_epik_State_Penalty>
-0

> <r_epik_Charging_Adjusted_Penalty>
0

> <i_epik_Tot_Q>
0

> <i_epik_Tot_abs_Q>
0

> <r_epik_Metal_State_Penalty>
-0

> <b_epik_Metal_Only>
0

> <s_lp_Force_Field>
OPLS_2005

> <r_lp_Energy>
6.8138

> <b_lp_Chiralities_Consistent>
1

> <s_lp_Variant>
AV-unprocessed.smi:940-1

> <Gold.Version>
5.8.1

> <Gold.Id.Protein>
6NUR|6NUR_protein|mol2

> <Gold.PLP.Fitness>
41.6490

> <Gold.PLP.PLP>
-34.2196

> <Gold.PLP.part.hbond>
-4.2851

> <Gold.PLP.part.metal>
0.0000

> <Gold.PLP.part.buried>
-0.4956

> <Gold.PLP.part.nonpolar>
-29.0913

> <Gold.PLP.part.repulsive>
0.1780

> <Gold.PLP.ligand.clash>
0.0000

> <Gold.PLP.ligand.torsion>
0.3796

> <Gold.PLP.Chemscore.Hbond>
1.9425

> <Gold.PLP.Chemscore.CHOScore>
0.7695

> <Gold.PLP.Chemscore.Metal>
0.0000

> <Gold.Chemscore.Hbonds>
donor molecule, donor type, donor heavy atom, donor atom, acceptor molecule, acceptor atom, score
      L1  H     3    24       P1  7948  1.00
      L1  H    11    29       P1  8028  0.83
      L1  C     8    27       P1  7957  0.87

> <Gold.PLP.Chemscore.Internal.Correction>
0.0526

> <Gold.Rescore>
     Score         DG    S(hbond)    S(metal)    S(lipo)     H(rot)  DE(clash)    DE(int)     intcor
     11.51     -13.31       1.91        0.00      63.58       2.34       0.01       1.79       ----

> <Gold.Chemscore.Fitness>
11.5119

> <Gold.Chemscore.DG>
-13.3072

> <Gold.Chemscore.ZeroCoef>
-5.4800

> <Gold.Chemscore.Hbond>
1.9076

> <Gold.Chemscore.Metal>
0.0000

> <Gold.Chemscore.Lipo>
63.5815

> <Gold.Chemscore.Internal_Hbond>
0.0000

> <Gold.Chemscore.DEClash>
0.0096

> <Gold.Chemscore.DEInternal>
1.7856

> <Gold.Chemscore.Rot>
2.3372

> <Gold.Chemscore.Internal.Correction>
   9.000000E+99

> <Gold.Chemscore.Hbonds>
donor molecule, donor type, donor heavy atom, donor atom, acceptor molecule, acceptor atom, score
      L1  H     3    24       P1  7948  0.26
      L1  H    11    29       P1  8028  0.82

> <Gold.Chemscore.Hbond.Weighted>
-6.3715

> <Gold.Chemscore.Metal.Weighted>
-0.0000

> <Gold.Chemscore.Lipo.Weighted>
-7.4390

> <Gold.Chemscore.Internal_Hbond.Weighted>
0.0000

> <Gold.Chemscore.DEClash.Weighted>
0.0096

> <Gold.Chemscore.DEInternal.Weighted>
1.7856

> <Gold.Chemscore.Rot.Weighted>
5.9833

> <Gold.Chemscore.Internal.Correction.Weighted>
   9.000000E+99

> <Gold.Protein.RotatedTorsions>
[ 6907 6896 6895 6894 ] final  -85.34 input  -60.11 | X-H torsion
[ 7974 7965 7964 7962 ] final -132.15 input  175.53 | X-H torsion
[ 8008 7997 7996 7995 ] final -169.26 input   59.86 | X-H torsion
[ 10167 10162 10161 10158 ] final  128.38 input  -65.29 | X-H torsion
[ 10718 10713 10712 10709 ] final  -31.19 input   66.30 | X-H torsion
[ 10763 10752 10751 10750 ] final  153.29 input  -60.55 | X-H torsion
[ 11005 11000 10999 10996 ] final  -22.21 input  -57.11 | X-H torsion

> <Gold.Protein.ActiveResidues>
 VAL166  LYS551  ARG553  GLY616  TRP617  ASP618  TYR619  PRO620  LYS621  CYS622 
 ASP623  PHE694  ASN695  SER759  ASP760  ASP761  ALA762  ILE779  LEU786  VAL792 
 PHE793  MET794  SER795  GLU796  ALA797  LYS798  CYS799  TRP800  GLU811  SER814 

> <Gold.Protein.RotatedAtoms>
  150.6871  134.3220  159.4790 H   0  0  0  0  0  0  0  0  0  0  0  0  # atno 6907 bound_to 6896
  152.1094  134.9282  160.0576 H   0  0  0  0  0  0  0  0  0  0  0  0  # atno 6908 bound_to 6896
  152.0531  133.3993  159.4422 H   0  0  0  0  0  0  0  0  0  0  0  0  # atno 6909 bound_to 6896
  144.9313  140.7131  143.4904 H   0  0  0  0  0  0  0  0  0  0  0  0  # atno 7974 bound_to 7965
  155.9025  140.1043  157.1339 H   0  0  0  0  0  0  0  0  0  0  0  0  # atno 8008 bound_to 7997
  154.4028  140.1290  156.4518 H   0  0  0  0  0  0  0  0  0  0  0  0  # atno 8009 bound_to 7997
  155.7406  140.3467  155.5105 H   0  0  0  0  0  0  0  0  0  0  0  0  # atno 8010 bound_to 7997
  139.5530  144.6828  151.4266 H   0  0  0  0  0  0  0  0  0  0  0  0  # atno 10167 bound_to 10162
  156.3904  130.4372  149.7399 H   0  0  0  0  0  0  0  0  0  0  0  0  # atno 10718 bound_to 10713
  154.1337  135.2825  155.3178 H   0  0  0  0  0  0  0  0  0  0  0  0  # atno 10763 bound_to 10752
  154.6337  135.5426  153.7712 H   0  0  0  0  0  0  0  0  0  0  0  0  # atno 10764 bound_to 10752
  153.0273  135.6469  154.1487 H   0  0  0  0  0  0  0  0  0  0  0  0  # atno 10765 bound_to 10752
  140.8635  133.7771  156.0103 H   0  0  0  0  0  0  0  0  0  0  0  0  # atno 11005 bound_to 11000
  145.3138  139.1810  143.4624 LP  0  0  0  0  0  0  0  0  0  0  0  0  # atno 17320 bound_to 7965
  146.3248  140.3146  142.8629 LP  0  0  0  0  0  0  0  0  0  0  0  0  # atno 17321 bound_to 7965
  140.6797  143.8109  150.7105 LP  0  0  0  0  0  0  0  0  0  0  0  0  # atno 17342 bound_to 10162
  140.1559  143.4317  152.2100 LP  0  0  0  0  0  0  0  0  0  0  0  0  # atno 17343 bound_to 10162
  156.4455  130.7881  151.2903 LP  0  0  0  0  0  0  0  0  0  0  0  0  # atno 17370 bound_to 10713
  157.7498  131.0112  150.3335 LP  0  0  0  0  0  0  0  0  0  0  0  0  # atno 17371 bound_to 10713
  140.8655  134.2789  157.5215 LP  0  0  0  0  0  0  0  0  0  0  0  0  # atno 17394 bound_to 11000
  139.8708  134.9540  156.4163 LP  0  0  0  0  0  0  0  0  0  0  0  0  # atno 17395 bound_to 11000

$$$$
