AV-unprocessed.smi:21|AV-procd|sdf|167|dock7
  -GOLD-   2262015413D 1   1.00000     0.00000
 Structure written by MMmdl.
 61 64  0  0  0  0  0  0  0  0  1 V2000
  151.6562  144.6755  158.9172 C   0  0  0  0  0  0  0  0  0  0  0  0
  151.3864  144.0812  157.6578 O   0  0  0  0  0  0  0  0  0  0  0  0
  150.6859  142.8490  157.7528 C   0  0  1  0  0  0  0  0  0  0  0  0
  150.5451  142.2061  156.3643 C   0  0  0  0  0  0  0  0  0  0  0  0
  151.3103  140.8769  156.4703 C   0  0  2  0  0  0  0  0  0  0  0  0
  150.7774  139.7815  155.5220 C   0  0  0  0  0  0  0  0  0  0  0  0
  151.6236  138.5853  155.5177 N   0  0  0  0  0  0  0  0  0  0  0  0
  152.7556  138.5555  154.6001 C   0  0  0  0  0  0  0  0  0  0  0  0
  151.1957  137.4343  156.1118 C   0  0  0  0  0  0  0  0  0  0  0  0
  152.0820  136.4112  156.2415 N   0  0  0  0  0  0  0  0  0  0  0  0
  151.7246  135.2602  156.8157 C   0  0  0  0  0  0  0  0  0  0  0  0
  150.5418  134.9156  157.3225 N   0  0  0  0  0  0  0  0  0  0  0  0
  149.6386  135.9282  157.1973 C   0  0  0  0  0  0  0  0  0  0  0  0
  149.8762  137.2088  156.6154 C   0  0  0  0  0  0  0  0  0  0  0  0
  148.7140  137.9706  156.6960 N   0  0  0  0  0  0  0  0  0  0  0  0
  147.8477  137.1906  157.2802 C   0  0  0  0  0  0  0  0  0  0  0  0
  148.3124  135.9352  157.5947 N   0  0  0  0  0  0  0  0  0  0  0  0
  147.5664  134.8774  158.2547 C   0  0  0  0  0  0  0  0  0  0  0  0
  146.3429  135.3525  159.0888 C   0  0  1  0  0  0  0  0  0  0  0  0
  145.3030  134.2073  159.1576 C   0  0  0  0  0  0  0  0  0  0  0  0
  144.9094  133.7885  157.8667 O   0  0  0  0  0  0  0  0  0  0  0  0
  146.7228  135.8573  160.5139 C   0  0  1  0  0  0  0  0  0  0  0  0
  147.0713  134.7779  161.5319 C   0  0  0  0  0  0  0  0  0  0  0  0
  147.9236  135.5051  162.5708 C   0  0  0  0  0  0  0  0  0  0  0  0
  148.3838  136.6964  161.9472 O   0  0  0  0  0  0  0  0  0  0  0  0
  148.0107  136.6859  160.5782 C   0  0  0  0  0  0  0  0  0  0  0  0
  151.2550  140.5356  157.8829 N   0  0  0  0  0  0  0  0  0  0  0  0
  152.2285  139.5287  158.2848 C   0  0  0  0  0  0  0  0  0  0  0  0
  151.4713  141.8021  158.5541 C   0  0  0  0  0  0  0  0  0  0  0  0
  149.6919  142.9991  158.1782 H   0  0  0  0  0  0  0  0  0  0  0  0
  152.3518  141.0791  156.2129 H   0  0  0  0  0  0  0  0  0  0  0  0
  152.1794  145.6201  158.7693 H   0  0  0  0  0  0  0  0  0  0  0  0
  152.2880  144.0372  159.5358 H   0  0  0  0  0  0  0  0  0  0  0  0
  150.7335  144.8851  159.4593 H   0  0  0  0  0  0  0  0  0  0  0  0
  149.4893  142.0297  156.1553 H   0  0  0  0  0  0  0  0  0  0  0  0
  150.9374  142.8356  155.5645 H   0  0  0  0  0  0  0  0  0  0  0  0
  149.7856  139.4679  155.8469 H   0  0  0  0  0  0  0  0  0  0  0  0
  150.6287  140.1889  154.5222 H   0  0  0  0  0  0  0  0  0  0  0  0
  153.5980  138.0195  155.0383 H   0  0  0  0  0  0  0  0  0  0  0  0
  153.0936  139.5660  154.3697 H   0  0  0  0  0  0  0  0  0  0  0  0
  152.4785  138.0752  153.6614 H   0  0  0  0  0  0  0  0  0  0  0  0
  152.4964  134.5072  156.8750 H   0  0  0  0  0  0  0  0  0  0  0  0
  146.8366  137.5094  157.4877 H   0  0  0  0  0  0  0  0  0  0  0  0
  147.2507  134.1873  157.4720 H   0  0  0  0  0  0  0  0  0  0  0  0
  148.2511  134.3172  158.8929 H   0  0  0  0  0  0  0  0  0  0  0  0
  145.8637  136.1801  158.5648 H   0  0  0  0  0  0  0  0  0  0  0  0
  145.7006  133.3548  159.7088 H   0  0  0  0  0  0  0  0  0  0  0  0
  144.3930  134.5220  159.6665 H   0  0  0  0  0  0  0  0  0  0  0  0
  144.5515  134.5316  157.4052 H   0  0  0  0  0  0  0  0  0  0  0  0
  145.9078  136.4642  160.9114 H   0  0  0  0  0  0  0  0  0  0  0  0
  146.1989  134.3200  161.9946 H   0  0  0  0  0  0  0  0  0  0  0  0
  147.6592  133.9886  161.0614 H   0  0  0  0  0  0  0  0  0  0  0  0
  147.3309  135.7748  163.4451 H   0  0  0  0  0  0  0  0  0  0  0  0
  148.7602  134.8910  162.9053 H   0  0  0  0  0  0  0  0  0  0  0  0
  148.8065  136.2143  159.9993 H   0  0  0  0  0  0  0  0  0  0  0  0
  147.8802  137.7055  160.2150 H   0  0  0  0  0  0  0  0  0  0  0  0
  152.1804  139.3585  159.3608 H   0  0  0  0  0  0  0  0  0  0  0  0
  153.2448  139.8374  158.0362 H   0  0  0  0  0  0  0  0  0  0  0  0
  152.0325  138.5757  157.7941 H   0  0  0  0  0  0  0  0  0  0  0  0
  152.5333  142.0535  158.5327 H   0  0  0  0  0  0  0  0  0  0  0  0
  151.1627  141.7615  159.5991 H   0  0  0  0  0  0  0  0  0  0  0  0
  1  2  1  0  0  0  0
  1 32  1  0  0  0  0
  1 33  1  0  0  0  0
  1 34  1  0  0  0  0
  2  3  1  0  0  0  0
  3 30  1  0  0  0  0
  3 29  1  0  0  0  0
  3  4  1  0  0  0  0
  4  5  1  0  0  0  0
  4 35  1  0  0  0  0
  4 36  1  0  0  0  0
  5 31  1  0  0  0  0
  5  6  1  0  0  0  0
  5 27  1  0  0  0  0
  6  7  1  0  0  0  0
  6 37  1  0  0  0  0
  6 38  1  0  0  0  0
  7  8  1  0  0  0  0
  7  9  1  0  0  0  0
  8 39  1  0  0  0  0
  8 40  1  0  0  0  0
  8 41  1  0  0  0  0
  9 14  1  0  0  0  0
  9 10  2  0  0  0  0
 10 11  1  0  0  0  0
 11 12  2  0  0  0  0
 11 42  1  0  0  0  0
 12 13  1  0  0  0  0
 13 17  1  0  0  0  0
 13 14  2  0  0  0  0
 14 15  1  0  0  0  0
 15 16  2  0  0  0  0
 16 17  1  0  0  0  0
 16 43  1  0  0  0  0
 17 18  1  0  0  0  0
 18 19  1  0  0  0  0
 18 44  1  0  0  0  0
 18 45  1  0  0  0  0
 19 20  1  0  0  0  0
 19 22  1  0  0  0  0
 19 46  1  0  0  0  0
 20 21  1  0  0  0  0
 20 47  1  0  0  0  0
 20 48  1  0  0  0  0
 21 49  1  0  0  0  0
 22 26  1  0  0  0  0
 22 23  1  0  0  0  0
 22 50  1  0  0  0  0
 23 24  1  0  0  0  0
 23 51  1  0  0  0  0
 23 52  1  0  0  0  0
 24 25  1  0  0  0  0
 24 53  1  0  0  0  0
 24 54  1  0  0  0  0
 25 26  1  0  0  0  0
 26 55  1  0  0  0  0
 26 56  1  0  0  0  0
 27 28  1  0  0  0  0
 27 29  1  0  0  0  0
 28 57  1  0  0  0  0
 28 58  1  0  0  0  0
 28 59  1  0  0  0  0
 29 60  1  0  0  0  0
 29 61  1  0  0  0  0
M  END
> <s_m_source_file>
AV-unprocessed.smi

> <i_m_source_file_index>
21

> <i_lp_mmshare_version>
43012

> <i_f3d_flags>
0

> <s_epik_input>
W0NIM11PW0NASF0xW0NIMl1bQ0BIXShOKFtDSDNdKVtDSDJdMSlbQ0gyXU4oW0NIM10pYyhuW2NIXW4yKWMoYzIzKW5bY0hdbjNbQ0gyXVtDQEhdKFtDSDJdW09IXSlbQ0BASF00W0NIMl1bQ0gyXU9bQ0gyXTQ=

> <s_epik_cmdline>
J2VwaWtfcHl0aG9uJywgJy1waCcsICc3LjAnLCAnLXRuJywgJzgnLCAnLW1hJywgJzIwMCcsICctbWV0YWxfYmluZGluZycsICctaW1hZScsICc8aW5maWxlLm1hZT4nLCAnLW9tYWUnLCAnPG91dGZpbGUubWFlPic=

> <r_lp_tautomer_probability>
1

> <r_epik_Ionization_Penalty>
2.17574

> <r_epik_Ionization_Penalty_Charging>
0

> <r_epik_Ionization_Penalty_Neutral>
2.17574

> <r_epik_State_Penalty>
2.31336

> <r_epik_Charging_Adjusted_Penalty>
2.31336

> <i_epik_Tot_Q>
0

> <i_epik_Tot_abs_Q>
0

> <r_epik_Metal_State_Penalty>
2.31025

> <b_epik_Metal_Only>
0

> <s_lp_Force_Field>
OPLS_2005

> <r_lp_Energy>
70.7714

> <b_lp_Chiralities_Consistent>
1

> <s_lp_Variant>
AV-unprocessed.smi:21-47

> <Gold.Version>
5.8.1

> <Gold.Id.Protein>
6NUR|6NUR_protein|mol2

> <Gold.PLP.Fitness>
44.0029

> <Gold.PLP.PLP>
-38.9372

> <Gold.PLP.part.hbond>
-3.1466

> <Gold.PLP.part.metal>
0.0000

> <Gold.PLP.part.buried>
-4.9229

> <Gold.PLP.part.nonpolar>
-31.9900

> <Gold.PLP.part.repulsive>
0.1387

> <Gold.PLP.ligand.clash>
0.0000

> <Gold.PLP.ligand.torsion>
1.2779

> <Gold.PLP.Chemscore.Hbond>
2.3346

> <Gold.PLP.Chemscore.CHOScore>
0.0000

> <Gold.PLP.Chemscore.Metal>
0.0000

> <Gold.Chemscore.Hbonds>
donor molecule, donor type, donor heavy atom, donor atom, acceptor molecule, acceptor atom, score
      P1  H  6896  6909       L1    12  0.33
      P1  H  6931  6943       L1    25  0.80
      P1  H 10752 10763       L1    10  0.66

> <Gold.PLP.Chemscore.Internal.Correction>
0.6177

> <Gold.Rescore>
     Score         DG    S(hbond)    S(metal)    S(lipo)     H(rot)  DE(clash)    DE(int)     intcor
      9.35     -13.50       1.62        0.00      87.95       3.00       0.09       4.06       ----

> <Gold.Chemscore.Fitness>
9.3540

> <Gold.Chemscore.DG>
-13.5043

> <Gold.Chemscore.ZeroCoef>
-5.4800

> <Gold.Chemscore.Hbond>
1.6234

> <Gold.Chemscore.Metal>
0.0000

> <Gold.Chemscore.Lipo>
87.9487

> <Gold.Chemscore.Internal_Hbond>
0.0000

> <Gold.Chemscore.DEClash>
0.0883

> <Gold.Chemscore.DEInternal>
4.0620

> <Gold.Chemscore.Rot>
3.0031

> <Gold.Chemscore.Internal.Correction>
   9.000000E+99

> <Gold.Chemscore.Hbonds>
donor molecule, donor type, donor heavy atom, donor atom, acceptor molecule, acceptor atom, score
      P1  H  6896  6909       L1    12  0.24
      P1  H  6931  6943       L1    25  0.12
      P1  H 10752 10763       L1    10  0.07

> <Gold.Chemscore.Hbond.Weighted>
-5.4223

> <Gold.Chemscore.Metal.Weighted>
-0.0000

> <Gold.Chemscore.Lipo.Weighted>
-10.2900

> <Gold.Chemscore.Internal_Hbond.Weighted>
0.0000

> <Gold.Chemscore.DEClash.Weighted>
0.0883

> <Gold.Chemscore.DEInternal.Weighted>
4.0620

> <Gold.Chemscore.Rot.Weighted>
7.6880

> <Gold.Chemscore.Internal.Correction.Weighted>
   9.000000E+99

> <Gold.Protein.RotatedTorsions>
[ 6907 6896 6895 6894 ] final   21.55 input  -60.11 | X-H torsion
[ 7974 7965 7964 7962 ] final   57.99 input  175.53 | X-H torsion
[ 8008 7997 7996 7995 ] final   31.11 input   59.86 | X-H torsion
[ 10167 10162 10161 10158 ] final   53.63 input  -65.29 | X-H torsion
[ 10718 10713 10712 10709 ] final   51.65 input   66.30 | X-H torsion
[ 10763 10752 10751 10750 ] final   68.45 input  -60.55 | X-H torsion
[ 11005 11000 10999 10996 ] final   50.23 input  -57.11 | X-H torsion

> <Gold.Protein.ActiveResidues>
 VAL166  LYS551  ARG553  GLY616  TRP617  ASP618  TYR619  PRO620  LYS621  CYS622 
 ASP623  PHE694  ASN695  SER759  ASP760  ASP761  ALA762  ILE779  LEU786  VAL792 
 PHE793  MET794  SER795  GLU796  ALA797  LYS798  CYS799  TRP800  GLU811  SER814 

> <Gold.Protein.RotatedAtoms>
  151.9135  135.0329  160.0516 H   0  0  0  0  0  0  0  0  0  0  0  0  # atno 6907 bound_to 6896
  152.2259  133.5015  159.5197 H   0  0  0  0  0  0  0  0  0  0  0  0  # atno 6908 bound_to 6896
  150.7012  134.1197  159.4073 H   0  0  0  0  0  0  0  0  0  0  0  0  # atno 6909 bound_to 6896
  145.9231  139.3745  143.0466 H   0  0  0  0  0  0  0  0  0  0  0  0  # atno 7974 bound_to 7965
  155.1012  140.3230  155.4546 H   0  0  0  0  0  0  0  0  0  0  0  0  # atno 8008 bound_to 7997
  156.2716  140.2060  156.6085 H   0  0  0  0  0  0  0  0  0  0  0  0  # atno 8009 bound_to 7997
  154.6828  140.0524  157.0270 H   0  0  0  0  0  0  0  0  0  0  0  0  # atno 8010 bound_to 7997
  140.2387  144.3607  150.6388 H   0  0  0  0  0  0  0  0  0  0  0  0  # atno 10167 bound_to 10162
  157.5001  130.8432  149.8306 H   0  0  0  0  0  0  0  0  0  0  0  0  # atno 10718 bound_to 10713
  153.0236  135.5247  154.7136 H   0  0  0  0  0  0  0  0  0  0  0  0  # atno 10763 bound_to 10752
  154.6212  135.2889  155.0326 H   0  0  0  0  0  0  0  0  0  0  0  0  # atno 10764 bound_to 10752
  154.1312  135.6592  153.4975 H   0  0  0  0  0  0  0  0  0  0  0  0  # atno 10765 bound_to 10752
  140.1035  134.5049  155.8741 H   0  0  0  0  0  0  0  0  0  0  0  0  # atno 11005 bound_to 11000
  145.8524  140.9521  143.0742 LP  0  0  0  0  0  0  0  0  0  0  0  0  # atno 17320 bound_to 7965
  144.6755  140.0424  143.7480 LP  0  0  0  0  0  0  0  0  0  0  0  0  # atno 17321 bound_to 7965
  140.6130  143.2170  151.6848 LP  0  0  0  0  0  0  0  0  0  0  0  0  # atno 17342 bound_to 10162
  139.5085  144.3610  152.0562 LP  0  0  0  0  0  0  0  0  0  0  0  0  # atno 17343 bound_to 10162
  156.0224  130.3791  150.1923 LP  0  0  0  0  0  0  0  0  0  0  0  0  # atno 17370 bound_to 10713
  157.0112  130.9951  151.3365 LP  0  0  0  0  0  0  0  0  0  0  0  0  # atno 17371 bound_to 10713
  141.2112  133.6704  156.6565 LP  0  0  0  0  0  0  0  0  0  0  0  0  # atno 17394 bound_to 11000
  140.3187  134.8025  157.4235 LP  0  0  0  0  0  0  0  0  0  0  0  0  # atno 17395 bound_to 11000

$$$$
