AV-unprocessed.smi:233|AV-procd|sdf|1784|dock7
  -GOLD-   2262020333D 1   1.00000     0.00000
 Structure written by MMmdl.
 59 62  0  0  0  0  0  0  0  0  1 V2000
  151.7349  137.9436  159.2051 C   0  0  0  0  0  0  0  0  0  0  0  0
  152.2101  138.7352  157.9917 C   0  0  0  0  0  0  0  0  0  0  0  0
  153.3830  139.0994  157.9132 O   0  0  0  0  0  0  0  0  0  0  0  0
  151.2864  138.9930  157.0535 N   0  0  0  0  0  0  0  0  0  0  0  0
  151.5170  139.7337  155.8139 C   0  0  2  0  0  0  0  0  0  0  0  0
  150.7086  141.0448  155.7772 C   0  0  0  0  0  0  0  0  0  0  0  0
  149.1964  140.7946  155.6486 C   0  0  0  0  0  0  0  0  0  0  0  0
  148.8492  139.9367  154.4086 C   0  0  2  0  0  0  0  0  0  0  0  0
  147.3991  139.7086  154.3052 N   0  0  0  0  0  0  0  0  0  0  0  0
  146.5181  140.8417  154.5718 C   0  0  0  0  0  0  0  0  0  0  0  0
  146.9880  139.0502  153.1982 C   0  0  0  0  0  0  0  0  0  0  0  0
  147.0921  139.6997  152.0127 N   0  0  0  0  0  0  0  0  0  0  0  0
  146.7018  139.0964  150.8858 C   0  0  0  0  0  0  0  0  0  0  0  0
  146.1896  137.8736  150.7267 N   0  0  0  0  0  0  0  0  0  0  0  0
  146.0889  137.2181  151.9189 C   0  0  0  0  0  0  0  0  0  0  0  0
  146.4695  137.7248  153.1926 C   0  0  0  0  0  0  0  0  0  0  0  0
  146.2429  136.7664  154.1725 N   0  0  0  0  0  0  0  0  0  0  0  0
  145.7561  135.7498  153.5147 C   0  0  0  0  0  0  0  0  0  0  0  0
  145.6029  135.9456  152.1601 N   0  0  0  0  0  0  0  0  0  0  0  0
  145.1249  134.9969  151.1981 C   0  0  0  0  0  0  0  0  0  0  0  0
  144.3452  133.7575  151.6417 C   0  0  0  0  0  0  0  0  0  0  0  0
  144.9458  132.9648  150.4586 C   0  0  0  0  0  0  0  0  0  0  0  0
  145.3862  131.5269  150.7785 C   0  0  0  0  0  0  0  0  0  0  0  0
  146.4188  131.5116  151.7431 O   0  0  0  0  0  0  0  0  0  0  0  0
  144.0959  132.9606  149.1719 C   0  0  0  0  0  0  0  0  0  0  0  0
  142.8902  132.2453  149.3513 O   0  0  0  0  0  0  0  0  0  0  0  0
  146.0732  134.0202  150.4983 C   0  0  0  0  0  0  0  0  0  0  0  0
  149.6572  138.6131  154.4628 C   0  0  0  0  0  0  0  0  0  0  0  0
  151.1703  138.8588  154.5967 C   0  0  0  0  0  0  0  0  0  0  0  0
  150.7771  138.3230  159.5633 H   0  0  0  0  0  0  0  0  0  0  0  0
  152.4555  138.0164  160.0204 H   0  0  0  0  0  0  0  0  0  0  0  0
  151.6150  136.8912  158.9462 H   0  0  0  0  0  0  0  0  0  0  0  0
  150.3488  138.6521  157.2085 H   0  0  0  0  0  0  0  0  0  0  0  0
  152.5797  139.9768  155.7593 H   0  0  0  0  0  0  0  0  0  0  0  0
  150.9121  141.6451  156.6645 H   0  0  0  0  0  0  0  0  0  0  0  0
  151.0409  141.6438  154.9285 H   0  0  0  0  0  0  0  0  0  0  0  0
  148.8265  140.3066  156.5514 H   0  0  0  0  0  0  0  0  0  0  0  0
  148.6981  141.7625  155.5975 H   0  0  0  0  0  0  0  0  0  0  0  0
  149.1636  140.4926  153.5247 H   0  0  0  0  0  0  0  0  0  0  0  0
  145.5047  140.6696  154.2049 H   0  0  0  0  0  0  0  0  0  0  0  0
  146.9000  141.7479  154.0999 H   0  0  0  0  0  0  0  0  0  0  0  0
  146.4466  141.0178  155.6451 H   0  0  0  0  0  0  0  0  0  0  0  0
  146.8147  139.6768  149.9820 H   0  0  0  0  0  0  0  0  0  0  0  0
  145.4883  134.8261  154.0067 H   0  0  0  0  0  0  0  0  0  0  0  0
  144.5534  135.5712  150.4669 H   0  0  0  0  0  0  0  0  0  0  0  0
  144.6732  133.3880  152.6152 H   0  0  0  0  0  0  0  0  0  0  0  0
  143.2616  133.8773  151.6181 H   0  0  0  0  0  0  0  0  0  0  0  0
  144.5529  130.9464  151.1756 H   0  0  0  0  0  0  0  0  0  0  0  0
  145.7254  131.0009  149.8860 H   0  0  0  0  0  0  0  0  0  0  0  0
  147.2444  131.4012  151.2967 H   0  0  0  0  0  0  0  0  0  0  0  0
  143.8368  133.9748  148.8677 H   0  0  0  0  0  0  0  0  0  0  0  0
  144.6416  132.5250  148.3346 H   0  0  0  0  0  0  0  0  0  0  0  0
  142.1712  132.8578  149.3223 H   0  0  0  0  0  0  0  0  0  0  0  0
  146.4241  134.3525  149.5209 H   0  0  0  0  0  0  0  0  0  0  0  0
  146.9098  133.7199  151.1323 H   0  0  0  0  0  0  0  0  0  0  0  0
  149.3082  138.0036  155.2974 H   0  0  0  0  0  0  0  0  0  0  0  0
  149.4931  138.0195  153.5633 H   0  0  0  0  0  0  0  0  0  0  0  0
  151.5294  139.3489  153.6908 H   0  0  0  0  0  0  0  0  0  0  0  0
  151.6991  137.9066  154.6545 H   0  0  0  0  0  0  0  0  0  0  0  0
  1  2  1  0  0  0  0
  1 30  1  0  0  0  0
  1 31  1  0  0  0  0
  1 32  1  0  0  0  0
  2  3  2  0  0  0  0
  2  4  1  0  0  0  0
  4  5  1  0  0  0  0
  4 33  1  0  0  0  0
  5 29  1  0  0  0  0
  5  6  1  0  0  0  0
  5 34  1  0  0  0  0
  6  7  1  0  0  0  0
  6 35  1  0  0  0  0
  6 36  1  0  0  0  0
  7  8  1  0  0  0  0
  7 37  1  0  0  0  0
  7 38  1  0  0  0  0
  8  9  1  0  0  0  0
  8 28  1  0  0  0  0
  8 39  1  0  0  0  0
  9 10  1  0  0  0  0
  9 11  1  0  0  0  0
 10 40  1  0  0  0  0
 10 41  1  0  0  0  0
 10 42  1  0  0  0  0
 11 16  1  0  0  0  0
 11 12  2  0  0  0  0
 12 13  1  0  0  0  0
 13 14  2  0  0  0  0
 13 43  1  0  0  0  0
 14 15  1  0  0  0  0
 15 19  1  0  0  0  0
 15 16  2  0  0  0  0
 16 17  1  0  0  0  0
 17 18  2  0  0  0  0
 18 19  1  0  0  0  0
 18 44  1  0  0  0  0
 19 20  1  0  0  0  0
 20 27  1  0  0  0  0
 20 21  1  0  0  0  0
 20 45  1  0  0  0  0
 21 22  1  0  0  0  0
 21 46  1  0  0  0  0
 21 47  1  0  0  0  0
 22 23  1  0  0  0  0
 22 25  1  0  0  0  0
 22 27  1  0  0  0  0
 23 24  1  0  0  0  0
 23 48  1  0  0  0  0
 23 49  1  0  0  0  0
 24 50  1  0  0  0  0
 25 26  1  0  0  0  0
 25 51  1  0  0  0  0
 25 52  1  0  0  0  0
 26 53  1  0  0  0  0
 27 54  1  0  0  0  0
 27 55  1  0  0  0  0
 28 29  1  0  0  0  0
 28 56  1  0  0  0  0
 28 57  1  0  0  0  0
 29 58  1  0  0  0  0
 29 59  1  0  0  0  0
M  END
> <s_m_source_file>
AV-unprocessed.smi

> <i_m_source_file_index>
233

> <i_lp_mmshare_version>
43012

> <i_f3d_flags>
0

> <s_epik_input>
W0NIM11DKD1PKVtOSF1bQ0BASF0xW0NIMl1bQ0gyXVtDQEhdKFtDSDJdW0NIMl0xKU4oW0NIM10pYyhuW2NIXW4yKWMoYzIzKW5bY0hdbjNbQ0hdKFtDSDJdNClbQ0gyXUM0KFtDSDJdW09IXSlbQ0gyXVtPSF0=

> <s_epik_cmdline>
J2VwaWtfcHl0aG9uJywgJy1waCcsICc3LjAnLCAnLXRuJywgJzgnLCAnLW1hJywgJzIwMCcsICctbWV0YWxfYmluZGluZycsICctaW1hZScsICc8aW5maWxlLm1hZT4nLCAnLW9tYWUnLCAnPG91dGZpbGUubWFlPic=

> <r_lp_tautomer_probability>
1

> <r_epik_Ionization_Penalty>
0.0029036

> <r_epik_Ionization_Penalty_Charging>
0

> <r_epik_Ionization_Penalty_Neutral>
0.0029036

> <r_epik_State_Penalty>
0.00183591

> <r_epik_Charging_Adjusted_Penalty>
0.00183591

> <i_epik_Tot_Q>
0

> <i_epik_Tot_abs_Q>
0

> <r_epik_Metal_State_Penalty>
-0

> <b_epik_Metal_Only>
0

> <s_lp_Force_Field>
OPLS_2005

> <r_lp_Energy>
38.4195

> <b_lp_Chiralities_Consistent>
1

> <s_lp_Variant>
AV-unprocessed.smi:233-2

> <Gold.Version>
5.8.1

> <Gold.Id.Protein>
6NUR|6NUR_protein|mol2

> <Gold.PLP.Fitness>
53.0584

> <Gold.PLP.PLP>
-43.3105

> <Gold.PLP.part.hbond>
-5.0867

> <Gold.PLP.part.metal>
0.0000

> <Gold.PLP.part.buried>
-3.4529

> <Gold.PLP.part.nonpolar>
-40.4173

> <Gold.PLP.part.repulsive>
6.5932

> <Gold.PLP.ligand.clash>
0.0000

> <Gold.PLP.ligand.torsion>
1.1137

> <Gold.PLP.Chemscore.Hbond>
3.6900

> <Gold.PLP.Chemscore.CHOScore>
0.0004

> <Gold.PLP.Chemscore.Metal>
0.0000

> <Gold.Chemscore.Hbonds>
donor molecule, donor type, donor heavy atom, donor atom, acceptor molecule, acceptor atom, score
      L1  H    24    50       P1 10747  0.86
      L1  H    26    53       P1 10186  1.00
      P1  H  7997  8008       L1     3  1.00
      P1  H 10785 10796       L1    26  0.55

> <Gold.PLP.Chemscore.Internal.Correction>
0.9041

> <Gold.Rescore>
     Score         DG    S(hbond)    S(metal)    S(lipo)     H(rot)  DE(clash)    DE(int)     intcor
     12.73     -18.50       3.39        0.00     100.13       3.91       4.37       1.40       ----

> <Gold.Chemscore.Fitness>
12.7268

> <Gold.Chemscore.DG>
-18.5039

> <Gold.Chemscore.ZeroCoef>
-5.4800

> <Gold.Chemscore.Hbond>
3.3851

> <Gold.Chemscore.Metal>
0.0000

> <Gold.Chemscore.Lipo>
100.1256

> <Gold.Chemscore.Internal_Hbond>
0.0000

> <Gold.Chemscore.DEClash>
4.3745

> <Gold.Chemscore.DEInternal>
1.4026

> <Gold.Chemscore.Rot>
3.9050

> <Gold.Chemscore.Internal.Correction>
   9.000000E+99

> <Gold.Chemscore.Hbonds>
donor molecule, donor type, donor heavy atom, donor atom, acceptor molecule, acceptor atom, score
      L1  H    24    50       P1 10747  0.84
      L1  H    26    53       P1 10186  0.99
      P1  H  7997  8008       L1     3  1.00
      P1  H 10785 10796       L1    26  0.38

> <Gold.Chemscore.Hbond.Weighted>
-11.3061

> <Gold.Chemscore.Metal.Weighted>
-0.0000

> <Gold.Chemscore.Lipo.Weighted>
-11.7147

> <Gold.Chemscore.Internal_Hbond.Weighted>
0.0000

> <Gold.Chemscore.DEClash.Weighted>
4.3745

> <Gold.Chemscore.DEInternal.Weighted>
1.4026

> <Gold.Chemscore.Rot.Weighted>
9.9969

> <Gold.Chemscore.Internal.Correction.Weighted>
   9.000000E+99

> <Gold.Protein.RotatedTorsions>
[ 6907 6896 6895 6894 ] final    2.46 input  -60.11 | X-H torsion
[ 7974 7965 7964 7962 ] final -115.55 input  175.53 | X-H torsion
[ 8008 7997 7996 7995 ] final  -75.07 input   59.86 | X-H torsion
[ 10167 10162 10161 10158 ] final -133.92 input  -65.29 | X-H torsion
[ 10718 10713 10712 10709 ] final -137.96 input   66.30 | X-H torsion
[ 10763 10752 10751 10750 ] final  143.44 input  -60.55 | X-H torsion
[ 11005 11000 10999 10996 ] final  113.62 input  -57.11 | X-H torsion

> <Gold.Protein.ActiveResidues>
 VAL166  LYS551  ARG553  GLY616  TRP617  ASP618  TYR619  PRO620  LYS621  CYS622 
 ASP623  PHE694  ASN695  SER759  ASP760  ASP761  ALA762  ILE779  LEU786  VAL792 
 PHE793  MET794  SER795  GLU796  ALA797  LYS798  CYS799  TRP800  GLU811  SER814 

> <Gold.Protein.RotatedAtoms>
  151.6093  135.1041  160.0077 H   0  0  0  0  0  0  0  0  0  0  0  0  # atno 6907 bound_to 6896
  152.4217  133.7123  159.6496 H   0  0  0  0  0  0  0  0  0  0  0  0  # atno 6908 bound_to 6896
  150.8105  133.8358  159.3206 H   0  0  0  0  0  0  0  0  0  0  0  0  # atno 6909 bound_to 6896
  145.1071  140.8588  143.3892 H   0  0  0  0  0  0  0  0  0  0  0  0  # atno 7974 bound_to 7965
  154.5384  140.0750  156.8468 H   0  0  0  0  0  0  0  0  0  0  0  0  # atno 8008 bound_to 7997
  155.3230  140.3397  155.4222 H   0  0  0  0  0  0  0  0  0  0  0  0  # atno 8009 bound_to 7997
  156.1851  140.1666  156.8187 H   0  0  0  0  0  0  0  0  0  0  0  0  # atno 8010 bound_to 7997
  139.8934  143.6695  152.2608 H   0  0  0  0  0  0  0  0  0  0  0  0  # atno 10167 bound_to 10162
  156.2939  130.7391  151.1424 H   0  0  0  0  0  0  0  0  0  0  0  0  # atno 10718 bound_to 10713
  153.9724  135.2949  155.3426 H   0  0  0  0  0  0  0  0  0  0  0  0  # atno 10763 bound_to 10752
  154.7315  135.5065  153.8975 H   0  0  0  0  0  0  0  0  0  0  0  0  # atno 10764 bound_to 10752
  153.0894  135.6703  153.9997 H   0  0  0  0  0  0  0  0  0  0  0  0  # atno 10765 bound_to 10752
  139.8958  134.9553  156.6767 H   0  0  0  0  0  0  0  0  0  0  0  0  # atno 11005 bound_to 11000
  145.0889  139.2904  143.5745 LP  0  0  0  0  0  0  0  0  0  0  0  0  # atno 17320 bound_to 7965
  146.3528  140.0420  142.8642 LP  0  0  0  0  0  0  0  0  0  0  0  0  # atno 17321 bound_to 7965
  139.7089  144.7623  151.1145 LP  0  0  0  0  0  0  0  0  0  0  0  0  # atno 17342 bound_to 10162
  140.7722  143.5357  150.9371 LP  0  0  0  0  0  0  0  0  0  0  0  0  # atno 17343 bound_to 10162
  157.7350  131.0576  150.5493 LP  0  0  0  0  0  0  0  0  0  0  0  0  # atno 17370 bound_to 10713
  156.5613  130.4256  149.6061 LP  0  0  0  0  0  0  0  0  0  0  0  0  # atno 17371 bound_to 10713
  140.7331  133.9042  155.8225 LP  0  0  0  0  0  0  0  0  0  0  0  0  # atno 17394 bound_to 11000
  141.0138  134.0984  157.4194 LP  0  0  0  0  0  0  0  0  0  0  0  0  # atno 17395 bound_to 11000

$$$$
