AV-unprocessed.smi:456|AV-procd|sdf|2617|dock4
  -GOLD-   2262023 13D 1   1.00000     0.00000
 Structure written by MMmdl.
 33 35  0  0  0  0  0  0  0  0  2 V2000
  152.5868  137.7436  154.7430 O   0  0  0  0  0  0  0  0  0  0  0  0
  151.7820  138.8760  154.9966 C   0  0  2  0  0  0  0  0  0  0  0  0
  152.1198  139.3977  156.4074 C   0  0  0  0  0  0  0  0  0  0  0  0
  151.5370  140.7186  156.6752 N   0  0  0  0  0  0  0  0  0  0  0  0
  150.6946  141.4722  155.9174 C   0  0  0  0  0  0  0  0  0  0  0  0
  150.4492  142.6251  156.6001 N   0  3  0  0  0  0  0  0  0  0  0  0
  151.1432  142.6062  157.8123 C   0  0  0  0  0  0  0  0  0  0  0  0
  151.2109  143.5410  158.8403 C   0  0  0  0  0  0  0  0  0  0  0  0
  152.0195  143.2102  159.9478 C   0  0  0  0  0  0  0  0  0  0  0  0
  152.1202  144.0847  160.9767 F   0  0  0  0  0  0  0  0  0  0  0  0
  152.7243  141.9888  160.0035 C   0  0  0  0  0  0  0  0  0  0  0  0
  153.4909  141.7114  161.0846 F   0  0  0  0  0  0  0  0  0  0  0  0
  152.6475  141.0484  158.9549 C   0  0  0  0  0  0  0  0  0  0  0  0
  151.8448  141.3839  157.8660 C   0  0  0  0  0  0  0  0  0  0  0  0
  150.2983  138.5772  154.8328 C   0  0  0  0  0  0  0  0  0  0  0  0
  149.4886  139.3861  154.0052 C   0  0  0  0  0  0  0  0  0  0  0  0
  148.1198  139.0939  153.8476 C   0  0  0  0  0  0  0  0  0  0  0  0
  147.5535  137.9903  154.5137 C   0  0  0  0  0  0  0  0  0  0  0  0
  148.3567  137.1783  155.3371 C   0  0  0  0  0  0  0  0  0  0  0  0
  149.7251  137.4707  155.4960 C   0  0  0  0  0  0  0  0  0  0  0  0
  153.3846  138.0301  154.3248 H   0  0  0  0  0  0  0  0  0  0  0  0
  152.0689  139.6266  154.2591 H   0  0  0  0  0  0  0  0  0  0  0  0
  151.7509  138.7109  157.1706 H   0  0  0  0  0  0  0  0  0  0  0  0
  153.1990  139.4676  156.5511 H   0  0  0  0  0  0  0  0  0  0  0  0
  150.2990  141.2064  154.9473 H   0  0  0  0  0  0  0  0  0  0  0  0
  150.6742  144.4775  158.8016 H   0  0  0  0  0  0  0  0  0  0  0  0
  153.1909  140.1166  159.0067 H   0  0  0  0  0  0  0  0  0  0  0  0
  149.9151  140.2320  153.4861 H   0  0  0  0  0  0  0  0  0  0  0  0
  147.5048  139.7165  153.2145 H   0  0  0  0  0  0  0  0  0  0  0  0
  146.5037  137.7666  154.3926 H   0  0  0  0  0  0  0  0  0  0  0  0
  147.9229  136.3307  155.8470 H   0  0  0  0  0  0  0  0  0  0  0  0
  150.3343  136.8390  156.1257 H   0  0  0  0  0  0  0  0  0  0  0  0
  149.8514  143.3678  156.2603 H   0  0  0  0  0  0  0  0  0  0  0  0
  1  2  1  0  0  0  0
  1 21  1  0  0  0  0
  2  3  1  0  0  0  0
  2 15  1  0  0  0  0
  2 22  1  0  0  0  0
  3  4  1  0  0  0  0
  3 23  1  0  0  0  0
  3 24  1  0  0  0  0
  4 14  1  0  0  0  0
  4  5  1  0  0  0  0
  5  6  2  0  0  0  0
  5 25  1  0  0  0  0
  6  7  1  0  0  0  0
  6 33  1  0  0  0  0
  7 14  2  0  0  0  0
  7  8  1  0  0  0  0
  8  9  2  0  0  0  0
  8 26  1  0  0  0  0
  9 10  1  0  0  0  0
  9 11  1  0  0  0  0
 11 12  1  0  0  0  0
 11 13  2  0  0  0  0
 13 14  1  0  0  0  0
 13 27  1  0  0  0  0
 15 20  1  0  0  0  0
 15 16  2  0  0  0  0
 16 17  1  0  0  0  0
 16 28  1  0  0  0  0
 17 18  2  0  0  0  0
 17 29  1  0  0  0  0
 18 19  1  0  0  0  0
 18 30  1  0  0  0  0
 19 20  2  0  0  0  0
 19 31  1  0  0  0  0
 20 32  1  0  0  0  0
M  CHG  1   6   1
M  END
> <s_m_source_file>
AV-unprocessed.smi

> <i_m_source_file_index>
456

> <i_lp_mmshare_version>
43012

> <i_f3d_flags>
0

> <s_epik_input>
W2NIXTFbY0hdW2NIXVtjSF1bY0hdYzFbQ0BIXShbT0hdKVtDSDJdbihbY0hdbjIpYyhjMjMpW2NIXWMoRiljKEYpW2NIXTM=

> <s_epik_cmdline>
J2VwaWtfcHl0aG9uJywgJy1waCcsICc3LjAnLCAnLXRuJywgJzgnLCAnLW1hJywgJzIwMCcsICctbWV0YWxfYmluZGluZycsICctaW1hZScsICc8aW5maWxlLm1hZT4nLCAnLW9tYWUnLCAnPG91dGZpbGUubWFlPic=

> <r_epik_Ionization_Penalty>
2.16139

> <r_epik_Ionization_Penalty_Charging>
2.16138

> <r_epik_Ionization_Penalty_Neutral>
1.34362e-06

> <r_epik_State_Penalty>
2.30198

> <r_epik_Charging_Adjusted_Penalty>
4.46337

> <i_epik_Tot_Q>
1

> <i_epik_Tot_abs_Q>
1

> <r_epik_Metal_State_Penalty>
6.38245

> <b_epik_Metal_Only>
0

> <s_lp_Force_Field>
OPLS_2005

> <r_lp_Energy>
16.094

> <b_lp_Chiralities_Consistent>
1

> <s_lp_Variant>
AV-unprocessed.smi:456-3

> <Gold.Version>
5.8.1

> <Gold.Id.Protein>
6NUR|6NUR_protein|mol2

> <Gold.PLP.Fitness>
50.1721

> <Gold.PLP.PLP>
-43.7477

> <Gold.PLP.part.hbond>
-2.0000

> <Gold.PLP.part.metal>
0.0000

> <Gold.PLP.part.buried>
-4.2923

> <Gold.PLP.part.nonpolar>
-37.0902

> <Gold.PLP.part.repulsive>
0.0622

> <Gold.PLP.ligand.clash>
0.0000

> <Gold.PLP.ligand.torsion>
0.2356

> <Gold.PLP.Chemscore.Hbond>
2.2941

> <Gold.PLP.Chemscore.CHOScore>
0.0000

> <Gold.PLP.Chemscore.Metal>
0.0000

> <Gold.Chemscore.Hbonds>
donor molecule, donor type, donor heavy atom, donor atom, acceptor molecule, acceptor atom, score
      L1  H     6    33       P1  8028  2.00
      P1  H 10752 10763       L1     1  0.27

> <Gold.PLP.Chemscore.Internal.Correction>
0.0133

> <Gold.Rescore>
     Score         DG    S(hbond)    S(metal)    S(lipo)     H(rot)  DE(clash)    DE(int)     intcor
     14.94     -15.26       1.10        0.00      96.47       2.03       0.04       0.27       ----

> <Gold.Chemscore.Fitness>
14.9448

> <Gold.Chemscore.DG>
-15.2574

> <Gold.Chemscore.ZeroCoef>
-5.4800

> <Gold.Chemscore.Hbond>
1.1005

> <Gold.Chemscore.Metal>
0.0000

> <Gold.Chemscore.Lipo>
96.4730

> <Gold.Chemscore.Internal_Hbond>
0.0000

> <Gold.Chemscore.DEClash>
0.0402

> <Gold.Chemscore.DEInternal>
0.2724

> <Gold.Chemscore.Rot>
2.0256

> <Gold.Chemscore.Internal.Correction>
   9.000000E+99

> <Gold.Chemscore.Hbonds>
donor molecule, donor type, donor heavy atom, donor atom, acceptor molecule, acceptor atom, score
      L1  H     6    33       P1  8028  1.00
      P1  H 10752 10763       L1     1  0.03

> <Gold.Chemscore.Hbond.Weighted>
-3.6756

> <Gold.Chemscore.Metal.Weighted>
-0.0000

> <Gold.Chemscore.Lipo.Weighted>
-11.2873

> <Gold.Chemscore.Internal_Hbond.Weighted>
0.0000

> <Gold.Chemscore.DEClash.Weighted>
0.0402

> <Gold.Chemscore.DEInternal.Weighted>
0.2724

> <Gold.Chemscore.Rot.Weighted>
5.1855

> <Gold.Chemscore.Internal.Correction.Weighted>
   9.000000E+99

> <Gold.Protein.RotatedTorsions>
[ 6907 6896 6895 6894 ] final  -12.96 input  -60.11 | X-H torsion
[ 7974 7965 7964 7962 ] final   72.82 input  175.53 | X-H torsion
[ 8008 7997 7996 7995 ] final -165.15 input   59.86 | X-H torsion
[ 10167 10162 10161 10158 ] final  171.92 input  -65.29 | X-H torsion
[ 10718 10713 10712 10709 ] final  -57.82 input   66.30 | X-H torsion
[ 10763 10752 10751 10750 ] final   52.53 input  -60.55 | X-H torsion
[ 11005 11000 10999 10996 ] final  -37.16 input  -57.11 | X-H torsion

> <Gold.Protein.ActiveResidues>
 VAL166  LYS551  ARG553  GLY616  TRP617  ASP618  TYR619  PRO620  LYS621  CYS622 
 ASP623  PHE694  ASN695  SER759  ASP760  ASP761  ALA762  ILE779  LEU786  VAL792 
 PHE793  MET794  SER795  GLU796  ALA797  LYS798  CYS799  TRP800  GLU811  SER814 

> <Gold.Protein.RotatedAtoms>
  151.3624  135.0906  159.9438 H   0  0  0  0  0  0  0  0  0  0  0  0  # atno 6907 bound_to 6896
  152.5158  133.9245  159.7561 H   0  0  0  0  0  0  0  0  0  0  0  0  # atno 6908 bound_to 6896
  150.9642  133.6358  159.2778 H   0  0  0  0  0  0  0  0  0  0  0  0  # atno 6909 bound_to 6896
  145.7486  139.2750  143.1444 H   0  0  0  0  0  0  0  0  0  0  0  0  # atno 7974 bound_to 7965
  155.8457  140.0955  157.1707 H   0  0  0  0  0  0  0  0  0  0  0  0  # atno 8008 bound_to 7997
  154.3983  140.1392  156.3844 H   0  0  0  0  0  0  0  0  0  0  0  0  # atno 8009 bound_to 7997
  155.8016  140.3452  155.5408 H   0  0  0  0  0  0  0  0  0  0  0  0  # atno 8010 bound_to 7997
  139.5061  144.3432  151.9997 H   0  0  0  0  0  0  0  0  0  0  0  0  # atno 10167 bound_to 10162
  156.1182  130.4168  150.0492 H   0  0  0  0  0  0  0  0  0  0  0  0  # atno 10718 bound_to 10713
  152.9789  135.5809  154.4593 H   0  0  0  0  0  0  0  0  0  0  0  0  # atno 10763 bound_to 10752
  154.4171  135.2771  155.2001 H   0  0  0  0  0  0  0  0  0  0  0  0  # atno 10764 bound_to 10752
  154.3766  135.6156  153.5822 H   0  0  0  0  0  0  0  0  0  0  0  0  # atno 10765 bound_to 10752
  140.9931  133.6994  156.1885 H   0  0  0  0  0  0  0  0  0  0  0  0  # atno 11005 bound_to 11000
  146.0378  140.8194  142.9843 LP  0  0  0  0  0  0  0  0  0  0  0  0  # atno 17320 bound_to 7965
  144.6854  140.2865  143.7284 LP  0  0  0  0  0  0  0  0  0  0  0  0  # atno 17321 bound_to 7965
  140.2870  144.3796  150.6100 LP  0  0  0  0  0  0  0  0  0  0  0  0  # atno 17342 bound_to 10162
  140.5975  143.2167  151.7135 LP  0  0  0  0  0  0  0  0  0  0  0  0  # atno 17343 bound_to 10162
  156.8437  130.9435  151.3630 LP  0  0  0  0  0  0  0  0  0  0  0  0  # atno 17370 bound_to 10713
  157.6365  130.8771  149.9369 LP  0  0  0  0  0  0  0  0  0  0  0  0  # atno 17371 bound_to 10713
  140.7009  134.4565  157.5586 LP  0  0  0  0  0  0  0  0  0  0  0  0  # atno 17394 bound_to 11000
  139.9001  134.8575  156.1931 LP  0  0  0  0  0  0  0  0  0  0  0  0  # atno 17395 bound_to 11000

$$$$
