AV-unprocessed.smi:1799|AV-procd|sdf|7262|dock4
  -GOLD-   22720 8513D 1   1.00000     0.00000
 Structure written by MMmdl.
 40 41  0  0  0  0  0  0  0  0  3 V2000
  147.6629  136.7335  155.1048 C   0  0  0  0  0  0  0  0  0  0  0  0
  148.5261  137.9963  154.8879 C   0  0  0  0  0  0  0  0  0  0  0  0
  147.8211  138.8267  153.7979 C   0  0  0  0  0  0  0  0  0  0  0  0
  148.6251  138.8728  156.1644 C   0  0  0  0  0  0  0  0  0  0  0  0
  149.6419  138.3911  157.2112 C   0  0  0  0  0  0  0  0  0  0  0  0
  149.1419  137.2444  157.9657 N   0  0  0  0  0  0  0  0  0  0  0  0
  149.6851  136.7161  159.0712 C   0  0  0  0  0  0  0  0  0  0  0  0
  150.6884  137.2285  159.5719 O   0  0  0  0  0  0  0  0  0  0  0  0
  149.0370  135.6167  159.5168 N   0  5  0  0  0  0  0  0  0  0  0  0
  148.2334  135.7016  160.5898 C   0  0  0  0  0  0  0  0  0  0  0  0
  148.0401  136.8511  161.2562 N   0  0  0  0  0  0  0  0  0  0  0  0
  147.1708  136.7193  162.3306 N   0  0  0  0  0  0  0  0  0  0  0  0
  146.7222  135.4692  162.4423 C   0  0  0  0  0  0  0  0  0  0  0  0
  147.3186  134.3403  161.2441 S   0  0  0  0  0  0  0  0  0  0  0  0
  151.0058  138.1401  156.5394 C   0  0  0  0  0  0  0  0  0  0  0  0
  150.9615  137.2320  155.2856 C   0  0  0  0  0  0  0  0  0  0  0  0
  152.2905  137.4105  154.5260 C   0  0  0  0  0  0  0  0  0  0  0  0
  150.8594  135.7324  155.6432 C   0  0  0  0  0  0  0  0  0  0  0  0
  149.8750  137.6505  154.3555 N   0  3  0  0  0  0  0  0  0  0  0  0
  146.6329  137.0042  155.3398 H   0  0  0  0  0  0  0  0  0  0  0  0
  148.0013  136.1045  155.9215 H   0  0  0  0  0  0  0  0  0  0  0  0
  147.6360  136.1138  154.2078 H   0  0  0  0  0  0  0  0  0  0  0  0
  146.8267  139.1421  154.1166 H   0  0  0  0  0  0  0  0  0  0  0  0
  147.7033  138.2569  152.8752 H   0  0  0  0  0  0  0  0  0  0  0  0
  148.3852  139.7275  153.5523 H   0  0  0  0  0  0  0  0  0  0  0  0
  148.9279  139.8793  155.8714 H   0  0  0  0  0  0  0  0  0  0  0  0
  147.6413  138.9914  156.6217 H   0  0  0  0  0  0  0  0  0  0  0  0
  149.7669  139.1998  157.9334 H   0  0  0  0  0  0  0  0  0  0  0  0
  148.3139  136.7919  157.6067 H   0  0  0  0  0  0  0  0  0  0  0  0
  146.0337  135.2108  163.2327 H   0  0  0  0  0  0  0  0  0  0  0  0
  151.3955  139.1162  156.2464 H   0  0  0  0  0  0  0  0  0  0  0  0
  151.7280  137.7531  157.2592 H   0  0  0  0  0  0  0  0  0  0  0  0
  153.1446  137.1484  155.1520 H   0  0  0  0  0  0  0  0  0  0  0  0
  152.4310  138.4413  154.1982 H   0  0  0  0  0  0  0  0  0  0  0  0
  152.3313  136.7793  153.6372 H   0  0  0  0  0  0  0  0  0  0  0  0
  151.7320  135.4102  156.2129 H   0  0  0  0  0  0  0  0  0  0  0  0
  150.8129  135.1138  154.7465 H   0  0  0  0  0  0  0  0  0  0  0  0
  149.9965  135.4822  156.2509 H   0  0  0  0  0  0  0  0  0  0  0  0
  149.7740  136.9512  153.6339 H   0  0  0  0  0  0  0  0  0  0  0  0
  150.2126  138.4955  153.9178 H   0  0  0  0  0  0  0  0  0  0  0  0
  1  2  1  0  0  0  0
  1 20  1  0  0  0  0
  1 21  1  0  0  0  0
  1 22  1  0  0  0  0
  2 19  1  0  0  0  0
  2  3  1  0  0  0  0
  2  4  1  0  0  0  0
  3 23  1  0  0  0  0
  3 24  1  0  0  0  0
  3 25  1  0  0  0  0
  4  5  1  0  0  0  0
  4 26  1  0  0  0  0
  4 27  1  0  0  0  0
  5  6  1  0  0  0  0
  5 15  1  0  0  0  0
  5 28  1  0  0  0  0
  6  7  1  0  0  0  0
  6 29  1  0  0  0  0
  7  8  2  0  0  0  0
  7  9  1  0  0  0  0
  9 10  1  0  0  0  0
 10 14  1  0  0  0  0
 10 11  2  0  0  0  0
 11 12  1  0  0  0  0
 12 13  2  0  0  0  0
 13 14  1  0  0  0  0
 13 30  1  0  0  0  0
 15 16  1  0  0  0  0
 15 31  1  0  0  0  0
 15 32  1  0  0  0  0
 16 17  1  0  0  0  0
 16 18  1  0  0  0  0
 16 19  1  0  0  0  0
 17 33  1  0  0  0  0
 17 34  1  0  0  0  0
 17 35  1  0  0  0  0
 18 36  1  0  0  0  0
 18 37  1  0  0  0  0
 18 38  1  0  0  0  0
 19 39  1  0  0  0  0
 19 40  1  0  0  0  0
M  CHG  1   9  -1
M  CHG  1  19   1
M  END
> <s_m_source_file>
AV-unprocessed.smi

> <i_m_source_file_index>
1799

> <i_lp_mmshare_version>
43012

> <i_f3d_flags>
0

> <s_epik_input>
W0NIM11DMShbQ0gzXSlbQ0gyXVtDSF0oW0NIMl1DKFtDSDNdKShbQ0gzXSlbTkhdMSlbTkhdQyg9TylbTkhdYzJubltjSF1zMg==

> <s_epik_cmdline>
J2VwaWtfcHl0aG9uJywgJy1waCcsICc3LjAnLCAnLXRuJywgJzgnLCAnLW1hJywgJzIwMCcsICctbWV0YWxfYmluZGluZycsICctaW1hZScsICc8aW5maWxlLm1hZT4nLCAnLW9tYWUnLCAnPG91dGZpbGUubWFlPic=

> <r_lp_tautomer_probability>
1

> <r_epik_Ionization_Penalty>
4.14205

> <r_epik_Ionization_Penalty_Charging>
4.10837

> <r_epik_Ionization_Penalty_Neutral>
0.0336815

> <r_epik_State_Penalty>
4.10769

> <r_epik_Charging_Adjusted_Penalty>
8.21606

> <i_epik_Tot_Q>
0

> <i_epik_Tot_abs_Q>
2

> <r_epik_Metal_State_Penalty>
0.655549

> <b_epik_Metal_Only>
1

> <s_lp_Force_Field>
OPLS_2005

> <r_lp_Energy>
17.9013

> <b_lp_Chiralities_Consistent>
1

> <s_lp_Variant>
AV-unprocessed.smi:1799-2

> <Gold.Version>
5.8.1

> <Gold.Id.Protein>
6NUR|6NUR_protein|mol2

> <Gold.PLP.Fitness>
40.6915

> <Gold.PLP.PLP>
-25.8659

> <Gold.PLP.part.hbond>
-5.0000

> <Gold.PLP.part.metal>
0.0000

> <Gold.PLP.part.buried>
-6.2149

> <Gold.PLP.part.nonpolar>
-15.9981

> <Gold.PLP.part.repulsive>
0.0863

> <Gold.PLP.ligand.clash>
0.0000

> <Gold.PLP.ligand.torsion>
0.7773

> <Gold.PLP.Chemscore.Hbond>
5.4505

> <Gold.PLP.Chemscore.CHOScore>
0.0000

> <Gold.PLP.Chemscore.Metal>
0.0000

> <Gold.Chemscore.Hbonds>
donor molecule, donor type, donor heavy atom, donor atom, acceptor molecule, acceptor atom, score
      L1  H    19    39       P1  7948  1.92
      P1  H  6896  6909       L1     9  1.00
      P1  H  6931  6943       L1    11  0.90
      P1  H  6934  6947       L1    11  0.06

> <Gold.PLP.Chemscore.Internal.Correction>
0.0286

> <Gold.Rescore>
     Score         DG    S(hbond)    S(metal)    S(lipo)     H(rot)  DE(clash)    DE(int)     intcor
     16.40     -17.37       2.81        0.00      43.24       1.00       0.00       0.98       ----

> <Gold.Chemscore.Fitness>
16.3973

> <Gold.Chemscore.DG>
-17.3749

> <Gold.Chemscore.ZeroCoef>
-5.4800

> <Gold.Chemscore.Hbond>
2.8132

> <Gold.Chemscore.Metal>
0.0000

> <Gold.Chemscore.Lipo>
43.2365

> <Gold.Chemscore.Internal_Hbond>
0.0000

> <Gold.Chemscore.DEClash>
0.0000

> <Gold.Chemscore.DEInternal>
0.9775

> <Gold.Chemscore.Rot>
1.0000

> <Gold.Chemscore.Internal.Correction>
   9.000000E+99

> <Gold.Chemscore.Hbonds>
donor molecule, donor type, donor heavy atom, donor atom, acceptor molecule, acceptor atom, score
      L1  H    19    39       P1  7948  0.53
      P1  H  6896  6909       L1     9  0.02
      P1  H  6931  6943       L1    11  0.18

> <Gold.Chemscore.Hbond.Weighted>
-9.3962

> <Gold.Chemscore.Metal.Weighted>
-0.0000

> <Gold.Chemscore.Lipo.Weighted>
-5.0587

> <Gold.Chemscore.Internal_Hbond.Weighted>
0.0000

> <Gold.Chemscore.DEClash.Weighted>
0.0000

> <Gold.Chemscore.DEInternal.Weighted>
0.9775

> <Gold.Chemscore.Rot.Weighted>
2.5600

> <Gold.Chemscore.Internal.Correction.Weighted>
   9.000000E+99

> <Gold.Protein.RotatedTorsions>
[ 6907 6896 6895 6894 ] final   55.78 input  -60.11 | X-H torsion
[ 7974 7965 7964 7962 ] final  -46.12 input  175.53 | X-H torsion
[ 8008 7997 7996 7995 ] final -150.71 input   59.86 | X-H torsion
[ 10167 10162 10161 10158 ] final   -3.15 input  -65.29 | X-H torsion
[ 10718 10713 10712 10709 ] final  -98.47 input   66.30 | X-H torsion
[ 10763 10752 10751 10750 ] final  -92.73 input  -60.55 | X-H torsion
[ 11005 11000 10999 10996 ] final  -92.86 input  -57.11 | X-H torsion

> <Gold.Protein.ActiveResidues>
 VAL166  LYS551  ARG553  GLY616  TRP617  ASP618  TYR619  PRO620  LYS621  CYS622 
 ASP623  PHE694  ASN695  SER759  ASP760  ASP761  ALA762  ILE779  LEU786  VAL792 
 PHE793  MET794  SER795  GLU796  ALA797  LYS798  CYS799  TRP800  GLU811  SER814 

> <Gold.Protein.RotatedAtoms>
  152.3573  134.6922  160.0217 H   0  0  0  0  0  0  0  0  0  0  0  0  # atno 6907 bound_to 6896
  151.7257  133.3310  159.3335 H   0  0  0  0  0  0  0  0  0  0  0  0  # atno 6908 bound_to 6896
  150.7580  134.6342  159.6247 H   0  0  0  0  0  0  0  0  0  0  0  0  # atno 6909 bound_to 6896
  145.9751  140.7342  142.9391 H   0  0  0  0  0  0  0  0  0  0  0  0  # atno 7974 bound_to 7965
  155.6279  140.0688  157.2658 H   0  0  0  0  0  0  0  0  0  0  0  0  # atno 8008 bound_to 7997
  154.4213  140.1773  156.1490 H   0  0  0  0  0  0  0  0  0  0  0  0  # atno 8009 bound_to 7997
  155.9957  140.3341  155.6799 H   0  0  0  0  0  0  0  0  0  0  0  0  # atno 8010 bound_to 7997
  140.6879  143.6573  150.8297 H   0  0  0  0  0  0  0  0  0  0  0  0  # atno 10167 bound_to 10162
  156.0108  130.5239  150.6527 H   0  0  0  0  0  0  0  0  0  0  0  0  # atno 10718 bound_to 10713
  154.6889  135.5220  153.8365 H   0  0  0  0  0  0  0  0  0  0  0  0  # atno 10763 bound_to 10752
  153.0618  135.6571  154.0455 H   0  0  0  0  0  0  0  0  0  0  0  0  # atno 10764 bound_to 10752
  154.0332  135.2983  155.3345 H   0  0  0  0  0  0  0  0  0  0  0  0  # atno 10765 bound_to 10752
  141.1511  133.7849  157.0079 H   0  0  0  0  0  0  0  0  0  0  0  0  # atno 11005 bound_to 11000
  144.6847  140.2814  143.7291 LP  0  0  0  0  0  0  0  0  0  0  0  0  # atno 17320 bound_to 7965
  145.7850  139.1905  143.2136 LP  0  0  0  0  0  0  0  0  0  0  0  0  # atno 17321 bound_to 7965
  140.0282  143.5471  152.2771 LP  0  0  0  0  0  0  0  0  0  0  0  0  # atno 17342 bound_to 10162
  139.6254  144.7636  151.2650 LP  0  0  0  0  0  0  0  0  0  0  0  0  # atno 17343 bound_to 10162
  157.4285  131.0846  151.1061 LP  0  0  0  0  0  0  0  0  0  0  0  0  # atno 17370 bound_to 10713
  157.1641  130.6238  149.5620 LP  0  0  0  0  0  0  0  0  0  0  0  0  # atno 17371 bound_to 10713
  140.0897  134.9600  157.1756 LP  0  0  0  0  0  0  0  0  0  0  0  0  # atno 17394 bound_to 11000
  140.3463  134.2648  155.7204 LP  0  0  0  0  0  0  0  0  0  0  0  0  # atno 17395 bound_to 11000

$$$$
