AV-unprocessed.smi:1109|AV-procd|sdf|4789|dock5
  -GOLD-   22720 3333D 1   1.00000     0.00000
 Structure written by MMmdl.
 45 46  0  0  0  0  0  0  0  0  1 V2000
  147.5219  136.2478  162.0620 C   0  0  0  0  0  0  0  0  0  0  0  0
  147.7242  137.2550  161.0873 O   0  0  0  0  0  0  0  0  0  0  0  0
  147.9873  136.7217  159.7990 C   0  0  0  0  0  0  0  0  0  0  0  0
  148.3571  137.8627  158.8383 C   0  0  0  0  0  0  0  0  0  0  0  0
  149.7640  137.7922  158.4301 N   0  0  0  0  0  0  0  0  0  0  0  0
  150.4477  138.9830  158.5836 N   0  0  0  0  0  0  0  0  0  0  0  0
  151.6935  139.0754  158.2562 C   0  0  0  0  0  0  0  0  0  0  0  0
  152.4893  140.3316  158.4425 C   0  0  0  0  0  0  0  0  0  0  0  0
  153.6947  140.2186  158.6732 O   0  0  0  0  0  0  0  0  0  0  0  0
  151.8736  141.5568  158.4285 N   0  0  0  0  0  0  0  0  0  0  0  0
  150.5913  141.8415  157.7433 C   0  0  0  0  0  0  0  0  0  0  0  0
  150.6238  141.7275  156.2075 C   0  0  0  0  0  0  0  0  0  0  0  0
  150.0185  142.6689  155.4758 N   0  0  0  0  0  0  0  0  0  0  0  0
  151.1941  140.7738  155.6839 O   0  0  0  0  0  0  0  0  0  0  0  0
  152.5540  142.7808  158.9230 C   0  0  0  0  0  0  0  0  0  0  0  0
  152.4230  142.9963  160.4481 C   0  0  0  0  0  0  0  0  0  0  0  0
  151.7442  144.3570  160.6320 C   0  0  0  0  0  0  0  0  0  0  0  0
  152.0897  145.1403  159.3678 C   0  0  0  0  0  0  0  0  0  0  0  0
  152.0892  144.0942  158.2523 C   0  0  0  0  0  0  0  0  0  0  0  0
  152.4037  137.9179  157.7362 C   0  0  0  0  0  0  0  0  0  0  0  0
  151.7315  136.7522  157.6105 C   0  0  0  0  0  0  0  0  0  0  0  0
  150.3200  136.6288  157.9782 C   0  0  0  0  0  0  0  0  0  0  0  0
  149.6905  135.5750  157.8921 O   0  0  0  0  0  0  0  0  0  0  0  0
  147.3261  136.7087  163.0301 H   0  0  0  0  0  0  0  0  0  0  0  0
  148.4039  135.6143  162.1627 H   0  0  0  0  0  0  0  0  0  0  0  0
  146.6665  135.6203  161.8086 H   0  0  0  0  0  0  0  0  0  0  0  0
  148.7899  135.9839  159.8452 H   0  0  0  0  0  0  0  0  0  0  0  0
  147.0971  136.2102  159.4303 H   0  0  0  0  0  0  0  0  0  0  0  0
  147.7074  137.8302  157.9621 H   0  0  0  0  0  0  0  0  0  0  0  0
  148.1501  138.8239  159.3126 H   0  0  0  0  0  0  0  0  0  0  0  0
  149.8344  141.1447  158.1067 H   0  0  0  0  0  0  0  0  0  0  0  0
  150.1918  142.8177  158.0204 H   0  0  0  0  0  0  0  0  0  0  0  0
  150.0349  142.6126  154.4679 H   0  0  0  0  0  0  0  0  0  0  0  0
  149.5511  143.4371  155.9349 H   0  0  0  0  0  0  0  0  0  0  0  0
  153.6226  142.7038  158.7137 H   0  0  0  0  0  0  0  0  0  0  0  0
  151.8749  142.2015  160.9552 H   0  0  0  0  0  0  0  0  0  0  0  0
  153.4177  143.0236  160.8947 H   0  0  0  0  0  0  0  0  0  0  0  0
  150.6636  144.2261  160.6967 H   0  0  0  0  0  0  0  0  0  0  0  0
  152.0682  144.8657  161.5403 H   0  0  0  0  0  0  0  0  0  0  0  0
  151.3935  145.9573  159.1767 H   0  0  0  0  0  0  0  0  0  0  0  0
  153.0876  145.5694  159.4661 H   0  0  0  0  0  0  0  0  0  0  0  0
  152.7410  144.3823  157.4271 H   0  0  0  0  0  0  0  0  0  0  0  0
  151.0833  144.0167  157.8411 H   0  0  0  0  0  0  0  0  0  0  0  0
  153.4440  137.9829  157.4513 H   0  0  0  0  0  0  0  0  0  0  0  0
  152.2484  135.8857  157.2249 H   0  0  0  0  0  0  0  0  0  0  0  0
  1  2  1  0  0  0  0
  1 24  1  0  0  0  0
  1 25  1  0  0  0  0
  1 26  1  0  0  0  0
  2  3  1  0  0  0  0
  3  4  1  0  0  0  0
  3 27  1  0  0  0  0
  3 28  1  0  0  0  0
  4  5  1  0  0  0  0
  4 29  1  0  0  0  0
  4 30  1  0  0  0  0
  5 22  1  0  0  0  0
  5  6  1  0  0  0  0
  6  7  2  0  0  0  0
  7  8  1  0  0  0  0
  7 20  1  0  0  0  0
  8  9  2  0  0  0  0
  8 10  1  0  0  0  0
 10 11  1  0  0  0  0
 10 15  1  0  0  0  0
 11 12  1  0  0  0  0
 11 31  1  0  0  0  0
 11 32  1  0  0  0  0
 12 13  1  0  0  0  0
 12 14  2  0  0  0  0
 13 33  1  0  0  0  0
 13 34  1  0  0  0  0
 15 19  1  0  0  0  0
 15 16  1  0  0  0  0
 15 35  1  0  0  0  0
 16 17  1  0  0  0  0
 16 36  1  0  0  0  0
 16 37  1  0  0  0  0
 17 18  1  0  0  0  0
 17 38  1  0  0  0  0
 17 39  1  0  0  0  0
 18 19  1  0  0  0  0
 18 40  1  0  0  0  0
 18 41  1  0  0  0  0
 19 42  1  0  0  0  0
 19 43  1  0  0  0  0
 20 21  2  0  0  0  0
 20 44  1  0  0  0  0
 21 22  1  0  0  0  0
 21 45  1  0  0  0  0
 22 23  2  0  0  0  0
M  END
> <s_m_source_file>
AV-unprocessed.smi

> <i_m_source_file_index>
1109

> <i_lp_mmshare_version>
43012

> <i_f3d_flags>
0

> <s_epik_input>
W0NIM11PW0NIMl1bQ0gyXW4xbmMoW2NIXVtjSF1jMT1PKUMoPU8pTihbQ0gyXUMoPU8pW05IMl0pW0NIXTJbQ0gyXVtDSDJdW0NIMl1bQ0gyXTI=

> <s_epik_cmdline>
J2VwaWtfcHl0aG9uJywgJy1waCcsICc3LjAnLCAnLXRuJywgJzgnLCAnLW1hJywgJzIwMCcsICctbWV0YWxfYmluZGluZycsICctaW1hZScsICc8aW5maWxlLm1hZT4nLCAnLW9tYWUnLCAnPG91dGZpbGUubWFlPic=

> <r_lp_tautomer_probability>
1

> <r_epik_Ionization_Penalty>
6.63696e-08

> <r_epik_Ionization_Penalty_Charging>
1.13312e-09

> <r_epik_Ionization_Penalty_Neutral>
6.52365e-08

> <r_epik_State_Penalty>
-0

> <r_epik_Charging_Adjusted_Penalty>
1.13312e-09

> <i_epik_Tot_Q>
0

> <i_epik_Tot_abs_Q>
0

> <r_epik_Metal_State_Penalty>
-0

> <b_epik_Metal_Only>
0

> <s_lp_Force_Field>
OPLS_2005

> <r_lp_Energy>
53.0262

> <b_lp_Chiralities_Consistent>
1

> <s_lp_Variant>
AV-unprocessed.smi:1109-1

> <Gold.Version>
5.8.1

> <Gold.Id.Protein>
6NUR|6NUR_protein|mol2

> <Gold.PLP.Fitness>
55.1784

> <Gold.PLP.PLP>
-43.9807

> <Gold.PLP.part.hbond>
-5.5932

> <Gold.PLP.part.metal>
0.0000

> <Gold.PLP.part.buried>
-1.9735

> <Gold.PLP.part.nonpolar>
-36.4386

> <Gold.PLP.part.repulsive>
0.2233

> <Gold.PLP.ligand.clash>
0.0000

> <Gold.PLP.ligand.torsion>
1.8825

> <Gold.PLP.Chemscore.Hbond>
4.8146

> <Gold.PLP.Chemscore.CHOScore>
0.0000

> <Gold.PLP.Chemscore.Metal>
0.0000

> <Gold.Chemscore.Hbonds>
donor molecule, donor type, donor heavy atom, donor atom, acceptor molecule, acceptor atom, score
      L1  H    13    34       P1  8028  0.70
      P1  H  6896  6907       L1    23  0.63
      P1  H  6931  6943       L1     2  0.90
      P1  H  6934  6947       L1     2  0.85
      P1  H  7989  7998       L1    14  0.39
      P1  H  7997  8010       L1     9  0.90

> <Gold.PLP.Chemscore.Internal.Correction>
0.5189

> <Gold.Rescore>
     Score         DG    S(hbond)    S(metal)    S(lipo)     H(rot)  DE(clash)    DE(int)     intcor
     17.83     -22.46       3.79        0.00      93.80       2.61       0.36       4.26       ----

> <Gold.Chemscore.Fitness>
17.8294

> <Gold.Chemscore.DG>
-22.4559

> <Gold.Chemscore.ZeroCoef>
-5.4800

> <Gold.Chemscore.Hbond>
3.7939

> <Gold.Chemscore.Metal>
0.0000

> <Gold.Chemscore.Lipo>
93.8018

> <Gold.Chemscore.Internal_Hbond>
0.0000

> <Gold.Chemscore.DEClash>
0.3623

> <Gold.Chemscore.DEInternal>
4.2642

> <Gold.Chemscore.Rot>
2.6057

> <Gold.Chemscore.Internal.Correction>
   9.000000E+99

> <Gold.Chemscore.Hbonds>
donor molecule, donor type, donor heavy atom, donor atom, acceptor molecule, acceptor atom, score
      L1  H    13    34       P1  8028  0.70
      P1  H  6896  6907       L1    23  0.14
      P1  H  6931  6943       L1     2  0.25
      P1  H  6934  6947       L1     2  0.62
      P1  H  7989  7998       L1    14  0.38
      P1  H  7997  8010       L1     9  0.84

> <Gold.Chemscore.Hbond.Weighted>
-12.6718

> <Gold.Chemscore.Metal.Weighted>
-0.0000

> <Gold.Chemscore.Lipo.Weighted>
-10.9748

> <Gold.Chemscore.Internal_Hbond.Weighted>
0.0000

> <Gold.Chemscore.DEClash.Weighted>
0.3623

> <Gold.Chemscore.DEInternal.Weighted>
4.2642

> <Gold.Chemscore.Rot.Weighted>
6.6707

> <Gold.Chemscore.Internal.Correction.Weighted>
   9.000000E+99

> <Gold.Protein.RotatedTorsions>
[ 6907 6896 6895 6894 ] final  -77.06 input  -60.11 | X-H torsion
[ 7974 7965 7964 7962 ] final   63.59 input  175.53 | X-H torsion
[ 8008 7997 7996 7995 ] final   15.14 input   59.86 | X-H torsion
[ 10167 10162 10161 10158 ] final   19.14 input  -65.29 | X-H torsion
[ 10718 10713 10712 10709 ] final  166.18 input   66.30 | X-H torsion
[ 10763 10752 10751 10750 ] final  -84.20 input  -60.55 | X-H torsion
[ 11005 11000 10999 10996 ] final  154.66 input  -57.11 | X-H torsion

> <Gold.Protein.ActiveResidues>
 VAL166  LYS551  ARG553  GLY616  TRP617  ASP618  TYR619  PRO620  LYS621  CYS622 
 ASP623  PHE694  ASN695  SER759  ASP760  ASP761  ALA762  ILE779  LEU786  VAL792 
 PHE793  MET794  SER795  GLU796  ALA797  LYS798  CYS799  TRP800  GLU811  SER814 

> <Gold.Protein.RotatedAtoms>
  150.7009  134.4479  159.5322 H   0  0  0  0  0  0  0  0  0  0  0  0  # atno 6907 bound_to 6896
  152.2177  134.8439  160.0499 H   0  0  0  0  0  0  0  0  0  0  0  0  # atno 6908 bound_to 6896
  151.9301  133.3574  159.3964 H   0  0  0  0  0  0  0  0  0  0  0  0  # atno 6909 bound_to 6896
  145.8601  139.3309  143.0824 H   0  0  0  0  0  0  0  0  0  0  0  0  # atno 7974 bound_to 7965
  154.8584  140.2940  155.5554 H   0  0  0  0  0  0  0  0  0  0  0  0  # atno 8008 bound_to 7997
  156.3019  140.2483  156.3487 H   0  0  0  0  0  0  0  0  0  0  0  0  # atno 8009 bound_to 7997
  154.8945  140.0393  157.1847 H   0  0  0  0  0  0  0  0  0  0  0  0  # atno 8010 bound_to 7997
  140.5601  143.9352  150.6637 H   0  0  0  0  0  0  0  0  0  0  0  0  # atno 10167 bound_to 10162
  157.0695  131.0362  151.2617 H   0  0  0  0  0  0  0  0  0  0  0  0  # atno 10718 bound_to 10713
  154.5967  135.5529  153.7333 H   0  0  0  0  0  0  0  0  0  0  0  0  # atno 10763 bound_to 10752
  153.0138  135.6356  154.1773 H   0  0  0  0  0  0  0  0  0  0  0  0  # atno 10764 bound_to 10752
  154.1713  135.2892  155.3060 H   0  0  0  0  0  0  0  0  0  0  0  0  # atno 10765 bound_to 10752
  140.1510  134.8675  157.2454 H   0  0  0  0  0  0  0  0  0  0  0  0  # atno 11005 bound_to 11000
  145.9258  140.9083  143.0382 LP  0  0  0  0  0  0  0  0  0  0  0  0  # atno 17320 bound_to 7965
  144.6727  140.1350  143.7441 LP  0  0  0  0  0  0  0  0  0  0  0  0  # atno 17321 bound_to 7965
  140.2801  143.3396  152.1159 LP  0  0  0  0  0  0  0  0  0  0  0  0  # atno 17342 bound_to 10162
  139.5066  144.6817  151.5991 LP  0  0  0  0  0  0  0  0  0  0  0  0  # atno 17343 bound_to 10162
  157.4890  130.7810  149.7488 LP  0  0  0  0  0  0  0  0  0  0  0  0  # atno 17370 bound_to 10713
  155.9954  130.3912  150.2818 LP  0  0  0  0  0  0  0  0  0  0  0  0  # atno 17371 bound_to 10713
  140.2605  134.3577  155.7408 LP  0  0  0  0  0  0  0  0  0  0  0  0  # atno 17394 bound_to 11000
  141.2199  133.7366  156.9072 LP  0  0  0  0  0  0  0  0  0  0  0  0  # atno 17395 bound_to 11000

$$$$
