AV-unprocessed.smi:910|AV-procd|sdf|4131|dock5
  -GOLD-   22720 2 33D 1   1.00000     0.00000
 Structure written by MMmdl.
 47 48  0  0  0  0  0  0  0  0  2 V2000
  149.3656  132.1776  159.5763 C   0  0  0  0  0  0  0  0  0  0  0  0
  149.6636  133.6433  159.5254 C   0  0  0  0  0  0  0  0  0  0  0  0
  150.1160  134.3924  158.4645 N   0  3  0  0  0  0  0  0  0  0  0  0
  150.2553  135.6608  158.8426 C   0  0  0  0  0  0  0  0  0  0  0  0
  150.7011  136.6982  157.9918 N   0  0  0  0  0  0  0  0  0  0  0  0
  150.0345  137.8316  157.7258 C   0  0  0  0  0  0  0  0  0  0  0  0
  148.9474  138.1346  158.2186 O   0  0  0  0  0  0  0  0  0  0  0  0
  150.6982  138.6020  156.8509 N   0  0  0  0  0  0  0  0  0  0  0  0
  150.2239  139.8796  156.3288 C   0  0  0  0  0  0  0  0  0  0  0  0
  151.2592  140.9936  156.5396 C   0  0  0  0  0  0  0  0  0  0  0  0
  151.8409  140.8512  157.8265 O   0  0  0  0  0  0  0  0  0  0  0  0
  152.3318  142.0595  158.3904 C   0  0  1  0  0  0  0  0  0  0  0  0
  151.2099  143.1189  158.3656 C   0  0  0  0  0  0  0  0  0  0  0  0
  151.6309  144.4051  159.0912 C   0  0  0  0  0  0  0  0  0  0  0  0
  152.0687  144.1064  160.5319 C   0  0  0  0  0  0  0  0  0  0  0  0
  153.1914  143.0581  160.5608 C   0  0  0  0  0  0  0  0  0  0  0  0
  152.7809  141.7591  159.8381 C   0  0  2  0  0  0  0  0  0  0  0  0
  153.9236  140.7313  159.8779 C   0  0  0  0  0  0  0  0  0  0  0  0
  149.9058  135.8115  160.1484 O   0  0  0  0  0  0  0  0  0  0  0  0
  149.5371  134.5466  160.5586 C   0  0  0  0  0  0  0  0  0  0  0  0
  149.0947  134.3948  161.9748 C   0  0  0  0  0  0  0  0  0  0  0  0
  149.8476  131.7065  160.4332 H   0  0  0  0  0  0  0  0  0  0  0  0
  149.7186  131.6689  158.6792 H   0  0  0  0  0  0  0  0  0  0  0  0
  148.2937  131.9972  159.6589 H   0  0  0  0  0  0  0  0  0  0  0  0
  150.3029  133.9987  157.5509 H   0  0  0  0  0  0  0  0  0  0  0  0
  151.5875  138.2754  156.5018 H   0  0  0  0  0  0  0  0  0  0  0  0
  149.9512  139.7983  155.2751 H   0  0  0  0  0  0  0  0  0  0  0  0
  149.3090  140.1325  156.8650 H   0  0  0  0  0  0  0  0  0  0  0  0
  152.0422  140.9144  155.7844 H   0  0  0  0  0  0  0  0  0  0  0  0
  150.7898  141.9703  156.4186 H   0  0  0  0  0  0  0  0  0  0  0  0
  153.1946  142.4202  157.8265 H   0  0  0  0  0  0  0  0  0  0  0  0
  150.9312  143.3597  157.3401 H   0  0  0  0  0  0  0  0  0  0  0  0
  150.3155  142.7124  158.8396 H   0  0  0  0  0  0  0  0  0  0  0  0
  152.4501  144.8794  158.5494 H   0  0  0  0  0  0  0  0  0  0  0  0
  150.8064  145.1186  159.0931 H   0  0  0  0  0  0  0  0  0  0  0  0
  152.4041  145.0239  161.0164 H   0  0  0  0  0  0  0  0  0  0  0  0
  151.2152  143.7463  161.1077 H   0  0  0  0  0  0  0  0  0  0  0  0
  154.0851  143.4732  160.0926 H   0  0  0  0  0  0  0  0  0  0  0  0
  153.4591  142.8407  161.5953 H   0  0  0  0  0  0  0  0  0  0  0  0
  151.9323  141.3315  160.3748 H   0  0  0  0  0  0  0  0  0  0  0  0
  154.8026  141.0944  159.3444 H   0  0  0  0  0  0  0  0  0  0  0  0
  153.6249  139.7872  159.4217 H   0  0  0  0  0  0  0  0  0  0  0  0
  154.2225  140.5164  160.9041 H   0  0  0  0  0  0  0  0  0  0  0  0
  148.3782  133.5790  162.0742 H   0  0  0  0  0  0  0  0  0  0  0  0
  148.6169  135.3064  162.3341 H   0  0  0  0  0  0  0  0  0  0  0  0
  149.9442  134.1794  162.6228 H   0  0  0  0  0  0  0  0  0  0  0  0
  151.5932  136.5616  157.5403 H   0  0  0  0  0  0  0  0  0  0  0  0
  1 22  1  0  0  0  0
  1 23  1  0  0  0  0
  1 24  1  0  0  0  0
  1  2  1  0  0  0  0
  2  3  1  0  0  0  0
  2 20  2  0  0  0  0
  3 25  1  0  0  0  0
  3  4  2  0  0  0  0
  4 19  1  0  0  0  0
  4  5  1  0  0  0  0
  5  6  1  0  0  0  0
  5 47  1  0  0  0  0
  6  8  1  0  0  0  0
  6  7  2  0  0  0  0
  8  9  1  0  0  0  0
  8 26  1  0  0  0  0
  9 10  1  0  0  0  0
  9 27  1  0  0  0  0
  9 28  1  0  0  0  0
 10 11  1  0  0  0  0
 10 29  1  0  0  0  0
 10 30  1  0  0  0  0
 11 12  1  0  0  0  0
 12 17  1  0  0  0  0
 12 13  1  0  0  0  0
 12 31  1  0  0  0  0
 13 14  1  0  0  0  0
 13 32  1  0  0  0  0
 13 33  1  0  0  0  0
 14 15  1  0  0  0  0
 14 34  1  0  0  0  0
 14 35  1  0  0  0  0
 15 16  1  0  0  0  0
 15 36  1  0  0  0  0
 15 37  1  0  0  0  0
 16 17  1  0  0  0  0
 16 38  1  0  0  0  0
 16 39  1  0  0  0  0
 17 18  1  0  0  0  0
 17 40  1  0  0  0  0
 18 41  1  0  0  0  0
 18 42  1  0  0  0  0
 18 43  1  0  0  0  0
 19 20  1  0  0  0  0
 20 21  1  0  0  0  0
 21 44  1  0  0  0  0
 21 45  1  0  0  0  0
 21 46  1  0  0  0  0
M  CHG  1   3   1
M  END
> <s_m_source_file>
AV-unprocessed.smi

> <i_m_source_file_index>
910

> <i_lp_mmshare_version>
43012

> <i_f3d_flags>
0

> <s_epik_input>
W0NIM11jMW5jKG9jMVtDSDNdKVtOSF1DKD1PKVtOSF1bQ0gyXVtDSDJdT1tDQEBIXTJbQ0gyXVtDSDJdW0NIMl1bQ0gyXVtDQEhdMltDSDNd

> <s_epik_cmdline>
J2VwaWtfcHl0aG9uJywgJy1waCcsICc3LjAnLCAnLXRuJywgJzgnLCAnLW1hJywgJzIwMCcsICctbWV0YWxfYmluZGluZycsICctaW1hZScsICc8aW5maWxlLm1hZT4nLCAnLW9tYWUnLCAnPG91dGZpbGUubWFlPic=

> <r_epik_Ionization_Penalty>
7.32931

> <r_epik_Ionization_Penalty_Charging>
7.12214

> <r_epik_Ionization_Penalty_Neutral>
0.207166

> <r_epik_State_Penalty>
2.61278

> <r_epik_Charging_Adjusted_Penalty>
9.73492

> <i_epik_Tot_Q>
1

> <i_epik_Tot_abs_Q>
1

> <r_epik_Metal_State_Penalty>
2.64585

> <b_epik_Metal_Only>
0

> <s_lp_Force_Field>
OPLS_2005

> <r_lp_Energy>
16.7683

> <b_lp_Chiralities_Consistent>
1

> <s_lp_Variant>
AV-unprocessed.smi:910-16

> <Gold.Version>
5.8.1

> <Gold.Id.Protein>
6NUR|6NUR_protein|mol2

> <Gold.PLP.Fitness>
45.3825

> <Gold.PLP.PLP>
-42.7277

> <Gold.PLP.part.hbond>
-2.9703

> <Gold.PLP.part.metal>
0.0000

> <Gold.PLP.part.buried>
-5.5359

> <Gold.PLP.part.nonpolar>
-34.1028

> <Gold.PLP.part.repulsive>
0.3267

> <Gold.PLP.ligand.clash>
0.0000

> <Gold.PLP.ligand.torsion>
0.8041

> <Gold.PLP.Chemscore.Hbond>
1.3985

> <Gold.PLP.Chemscore.CHOScore>
0.0000

> <Gold.PLP.Chemscore.Metal>
0.0000

> <Gold.PLP.Chemscore.Internal.Correction>
0.0676

> <Gold.Rescore>
     Score         DG    S(hbond)    S(metal)    S(lipo)     H(rot)  DE(clash)    DE(int)     intcor
     18.36     -19.43       1.45        0.00     115.07       1.69       0.06       1.01       ----

> <Gold.Chemscore.Fitness>
18.3627

> <Gold.Chemscore.DG>
-19.4313

> <Gold.Chemscore.ZeroCoef>
-5.4800

> <Gold.Chemscore.Hbond>
1.4454

> <Gold.Chemscore.Metal>
0.0000

> <Gold.Chemscore.Lipo>
115.0650

> <Gold.Chemscore.Internal_Hbond>
0.0000

> <Gold.Chemscore.DEClash>
0.0553

> <Gold.Chemscore.DEInternal>
1.0133

> <Gold.Chemscore.Rot>
1.6949

> <Gold.Chemscore.Internal.Correction>
   9.000000E+99

> <Gold.Chemscore.Hbond.Weighted>
-4.8277

> <Gold.Chemscore.Metal.Weighted>
-0.0000

> <Gold.Chemscore.Lipo.Weighted>
-13.4626

> <Gold.Chemscore.Internal_Hbond.Weighted>
0.0000

> <Gold.Chemscore.DEClash.Weighted>
0.0553

> <Gold.Chemscore.DEInternal.Weighted>
1.0133

> <Gold.Chemscore.Rot.Weighted>
4.3390

> <Gold.Chemscore.Internal.Correction.Weighted>
   9.000000E+99

> <Gold.Protein.RotatedTorsions>
[ 6907 6896 6895 6894 ] final  117.06 input  -60.11 | X-H torsion
[ 7974 7965 7964 7962 ] final -159.10 input  175.53 | X-H torsion
[ 8008 7997 7996 7995 ] final  -43.15 input   59.86 | X-H torsion
[ 10167 10162 10161 10158 ] final -178.01 input  -65.29 | X-H torsion
[ 10718 10713 10712 10709 ] final   92.78 input   66.30 | X-H torsion
[ 10763 10752 10751 10750 ] final  -40.29 input  -60.55 | X-H torsion
[ 11005 11000 10999 10996 ] final -150.59 input  -57.11 | X-H torsion

> <Gold.Protein.ActiveResidues>
 VAL166  LYS551  ARG553  GLY616  TRP617  ASP618  TYR619  PRO620  LYS621  CYS622 
 ASP623  PHE694  ASN695  SER759  ASP760  ASP761  ALA762  ILE779  LEU786  VAL792 
 PHE793  MET794  SER795  GLU796  ALA797  LYS798  CYS799  TRP800  GLU811  SER814 

> <Gold.Protein.RotatedAtoms>
  152.4637  133.7876  159.6884 H   0  0  0  0  0  0  0  0  0  0  0  0  # atno 6907 bound_to 6896
  150.8592  133.7660  159.3004 H   0  0  0  0  0  0  0  0  0  0  0  0  # atno 6908 bound_to 6896
  151.5231  135.1070  159.9935 H   0  0  0  0  0  0  0  0  0  0  0  0  # atno 6909 bound_to 6896
  144.7478  140.3733  143.6071 H   0  0  0  0  0  0  0  0  0  0  0  0  # atno 7974 bound_to 7965
  154.3997  140.1455  156.3472 H   0  0  0  0  0  0  0  0  0  0  0  0  # atno 8008 bound_to 7997
  155.8302  140.3466  155.5546 H   0  0  0  0  0  0  0  0  0  0  0  0  # atno 8009 bound_to 7997
  155.8196  140.0896  157.1847 H   0  0  0  0  0  0  0  0  0  0  0  0  # atno 8010 bound_to 7997
  139.5453  144.2253  152.0975 H   0  0  0  0  0  0  0  0  0  0  0  0  # atno 10167 bound_to 10162
  157.6957  131.0455  150.3934 H   0  0  0  0  0  0  0  0  0  0  0  0  # atno 10718 bound_to 10713
  153.9435  135.6758  153.4744 H   0  0  0  0  0  0  0  0  0  0  0  0  # atno 10763 bound_to 10752
  153.0919  135.4870  154.8704 H   0  0  0  0  0  0  0  0  0  0  0  0  # atno 10764 bound_to 10752
  154.7364  135.3150  154.8763 H   0  0  0  0  0  0  0  0  0  0  0  0  # atno 10765 bound_to 10752
  140.7386  134.3540  157.5152 H   0  0  0  0  0  0  0  0  0  0  0  0  # atno 11005 bound_to 11000
  145.7055  139.1671  143.2568 LP  0  0  0  0  0  0  0  0  0  0  0  0  # atno 17320 bound_to 7965
  146.1385  140.7090  142.9378 LP  0  0  0  0  0  0  0  0  0  0  0  0  # atno 17321 bound_to 7965
  140.1739  144.4910  150.6565 LP  0  0  0  0  0  0  0  0  0  0  0  0  # atno 17342 bound_to 10162
  140.6698  143.2281  151.5653 LP  0  0  0  0  0  0  0  0  0  0  0  0  # atno 17343 bound_to 10162
  156.4335  130.3977  149.6744 LP  0  0  0  0  0  0  0  0  0  0  0  0  # atno 17370 bound_to 10713
  156.3953  130.7648  151.2652 LP  0  0  0  0  0  0  0  0  0  0  0  0  # atno 17371 bound_to 10713
  139.8811  134.9066  156.2925 LP  0  0  0  0  0  0  0  0  0  0  0  0  # atno 17394 bound_to 11000
  140.9857  133.7240  156.0738 LP  0  0  0  0  0  0  0  0  0  0  0  0  # atno 17395 bound_to 11000

$$$$
