AV-unprocessed.smi:2303|AV-procd|sdf|9243|dock7
  -GOLD-   2272012463D 1   1.00000     0.00000
 Structure written by MMmdl.
 32 33  0  0  0  0  0  0  0  0  2 V2000
  147.4031  141.7427  154.0092 C   0  0  0  0  0  0  0  0  0  0  0  0
  148.5471  140.7202  153.9211 C   0  0  0  0  0  0  0  0  0  0  0  0
  148.0104  139.2867  153.7603 C   0  0  0  0  0  0  0  0  0  0  0  0
  149.5008  140.8542  155.1111 C   0  0  0  0  0  0  0  0  0  0  0  0
  149.1424  141.6685  156.1763 C   0  0  0  0  0  0  0  0  0  0  0  0
  150.0978  141.7641  157.2773 C   0  0  0  0  0  0  0  0  0  0  0  0
  149.8338  142.6207  158.4340 C   0  0  0  0  0  0  0  0  0  0  0  0
  148.7442  142.6666  159.0070 O   0  0  0  0  0  0  0  0  0  0  0  0
  150.8696  143.3786  158.8597 N   0  0  0  0  0  0  0  0  0  0  0  0
  150.8665  144.3574  159.9387 C   0  0  0  0  0  0  0  0  0  0  0  0
  152.1009  145.1996  159.6714 C   0  0  0  0  0  0  0  0  0  0  0  0
  152.2854  145.0395  158.1709 C   0  0  0  0  0  0  0  0  0  0  0  0
  151.8983  143.6950  157.9482 O   0  0  0  0  0  0  0  0  0  0  0  0
  151.2853  141.1197  157.2030 C   0  0  0  0  0  0  0  0  0  0  0  0
  151.6007  140.2782  156.0491 C   0  0  0  0  0  0  0  0  0  0  0  0
  152.6809  139.6923  156.0183 O   0  0  0  0  0  0  0  0  0  0  0  0
  150.6786  140.1739  155.0511 N   0  5  0  0  0  0  0  0  0  0  0  0
  147.7924  142.7589  154.0773 H   0  0  0  0  0  0  0  0  0  0  0  0
  146.7770  141.5670  154.8847 H   0  0  0  0  0  0  0  0  0  0  0  0
  146.7630  141.6928  153.1281 H   0  0  0  0  0  0  0  0  0  0  0  0
  149.1004  140.9459  153.0084 H   0  0  0  0  0  0  0  0  0  0  0  0
  148.8281  138.5690  153.6880 H   0  0  0  0  0  0  0  0  0  0  0  0
  147.4099  139.1945  152.8552 H   0  0  0  0  0  0  0  0  0  0  0  0
  147.3824  138.9937  154.6023 H   0  0  0  0  0  0  0  0  0  0  0  0
  148.2078  142.2101  156.1854 H   0  0  0  0  0  0  0  0  0  0  0  0
  149.9636  144.9678  159.8839 H   0  0  0  0  0  0  0  0  0  0  0  0
  150.9006  143.8769  160.9168 H   0  0  0  0  0  0  0  0  0  0  0  0
  151.9882  146.2389  159.9806 H   0  0  0  0  0  0  0  0  0  0  0  0
  152.9592  144.7774  160.1957 H   0  0  0  0  0  0  0  0  0  0  0  0
  151.6148  145.7041  157.6240 H   0  0  0  0  0  0  0  0  0  0  0  0
  153.3076  145.2277  157.8422 H   0  0  0  0  0  0  0  0  0  0  0  0
  152.0126  141.2073  157.9982 H   0  0  0  0  0  0  0  0  0  0  0  0
  1  2  1  0  0  0  0
  1 18  1  0  0  0  0
  1 19  1  0  0  0  0
  1 20  1  0  0  0  0
  2  3  1  0  0  0  0
  2 21  1  0  0  0  0
  2  4  1  0  0  0  0
  3 22  1  0  0  0  0
  3 23  1  0  0  0  0
  3 24  1  0  0  0  0
  4 17  1  0  0  0  0
  4  5  2  0  0  0  0
  5 25  1  0  0  0  0
  5  6  1  0  0  0  0
  6  7  1  0  0  0  0
  6 14  2  0  0  0  0
  7  8  2  0  0  0  0
  7  9  1  0  0  0  0
  9 13  1  0  0  0  0
  9 10  1  0  0  0  0
 10 11  1  0  0  0  0
 10 26  1  0  0  0  0
 10 27  1  0  0  0  0
 11 12  1  0  0  0  0
 11 28  1  0  0  0  0
 11 29  1  0  0  0  0
 12 13  1  0  0  0  0
 12 30  1  0  0  0  0
 12 31  1  0  0  0  0
 14 15  1  0  0  0  0
 14 32  1  0  0  0  0
 15 16  2  0  0  0  0
 15 17  1  0  0  0  0
M  CHG  1  17  -1
M  END
> <s_m_source_file>
AV-unprocessed.smi

> <i_m_source_file_index>
2303

> <i_lp_mmshare_version>
43012

> <i_f3d_flags>
0

> <s_epik_input>
W0NIM11bQ0hdKFtDSDNdKWMxW2NIXWMoW2NIXWMobjEpW09IXSlDKD1PKU4yW0NIMl1bQ0gyXVtDSDJdTzI=

> <s_epik_cmdline>
J2VwaWtfcHl0aG9uJywgJy1waCcsICc3LjAnLCAnLXRuJywgJzgnLCAnLW1hJywgJzIwMCcsICctbWV0YWxfYmluZGluZycsICctaW1hZScsICc8aW5maWxlLm1hZT4nLCAnLW9tYWUnLCAnPG91dGZpbGUubWFlPic=

> <r_lp_tautomer_probability>
1

> <r_epik_Ionization_Penalty>
5.39588

> <r_epik_Ionization_Penalty_Charging>
0.166011

> <r_epik_Ionization_Penalty_Neutral>
5.22987

> <r_epik_State_Penalty>
5.22978

> <r_epik_Charging_Adjusted_Penalty>
5.39579

> <i_epik_Tot_Q>
-1

> <i_epik_Tot_abs_Q>
1

> <r_epik_Metal_State_Penalty>
1.21816

> <b_epik_Metal_Only>
1

> <s_epik_Chemistry_Notes>
This compound has a N-S or N-O group and may undergo hydrolysis at high or low pH.

> <s_lp_Force_Field>
OPLS_2005

> <r_lp_Energy>
27.9757

> <b_lp_Chiralities_Consistent>
1

> <s_lp_Variant>
AV-unprocessed.smi:2303-2

> <Gold.Version>
5.8.1

> <Gold.Id.Protein>
6NUR|6NUR_protein|mol2

> <Gold.PLP.Fitness>
40.9337

> <Gold.PLP.PLP>
-35.4671

> <Gold.PLP.part.hbond>
-3.0000

> <Gold.PLP.part.metal>
0.0000

> <Gold.PLP.part.buried>
-2.6093

> <Gold.PLP.part.nonpolar>
-29.7646

> <Gold.PLP.part.repulsive>
0.2270

> <Gold.PLP.ligand.clash>
0.0000

> <Gold.PLP.ligand.torsion>
0.9324

> <Gold.PLP.Chemscore.Hbond>
2.0343

> <Gold.PLP.Chemscore.CHOScore>
0.0000

> <Gold.PLP.Chemscore.Metal>
0.0000

> <Gold.Chemscore.Hbonds>
donor molecule, donor type, donor heavy atom, donor atom, acceptor molecule, acceptor atom, score
      P1  H  7989  7998       L1    17  1.00
      P1  H  7997  8010       L1    16  1.00

> <Gold.PLP.Chemscore.Internal.Correction>
1.2283

> <Gold.Rescore>
     Score         DG    S(hbond)    S(metal)    S(lipo)     H(rot)  DE(clash)    DE(int)     intcor
     13.80     -16.32       1.21        0.00      80.08       1.00       0.16       2.36       ----

> <Gold.Chemscore.Fitness>
13.8023

> <Gold.Chemscore.DG>
-16.3215

> <Gold.Chemscore.ZeroCoef>
-5.4800

> <Gold.Chemscore.Hbond>
1.2073

> <Gold.Chemscore.Metal>
0.0000

> <Gold.Chemscore.Lipo>
80.0777

> <Gold.Chemscore.Internal_Hbond>
0.0000

> <Gold.Chemscore.DEClash>
0.1602

> <Gold.Chemscore.DEInternal>
2.3591

> <Gold.Chemscore.Rot>
1.0000

> <Gold.Chemscore.Internal.Correction>
   9.000000E+99

> <Gold.Chemscore.Hbonds>
donor molecule, donor type, donor heavy atom, donor atom, acceptor molecule, acceptor atom, score
      P1  H  6933  6944       L1     8  0.02
      P1  H  7989  7998       L1    17  0.22
      P1  H  7997  8010       L1    16  1.00

> <Gold.Chemscore.Hbond.Weighted>
-4.0324

> <Gold.Chemscore.Metal.Weighted>
-0.0000

> <Gold.Chemscore.Lipo.Weighted>
-9.3691

> <Gold.Chemscore.Internal_Hbond.Weighted>
0.0000

> <Gold.Chemscore.DEClash.Weighted>
0.1602

> <Gold.Chemscore.DEInternal.Weighted>
2.3591

> <Gold.Chemscore.Rot.Weighted>
2.5600

> <Gold.Chemscore.Internal.Correction.Weighted>
   9.000000E+99

> <Gold.Protein.RotatedTorsions>
[ 6907 6896 6895 6894 ] final   54.85 input  -60.11 | X-H torsion
[ 7974 7965 7964 7962 ] final  -99.69 input  175.53 | X-H torsion
[ 8008 7997 7996 7995 ] final   79.85 input   59.86 | X-H torsion
[ 10167 10162 10161 10158 ] final   79.17 input  -65.29 | X-H torsion
[ 10718 10713 10712 10709 ] final -155.78 input   66.30 | X-H torsion
[ 10763 10752 10751 10750 ] final   74.92 input  -60.55 | X-H torsion
[ 11005 11000 10999 10996 ] final   66.09 input  -57.11 | X-H torsion

> <Gold.Protein.ActiveResidues>
 VAL166  LYS551  ARG553  GLY616  TRP617  ASP618  TYR619  PRO620  LYS621  CYS622 
 ASP623  PHE694  ASN695  SER759  ASP760  ASP761  ALA762  ILE779  LEU786  VAL792 
 PHE793  MET794  SER795  GLU796  ALA797  LYS798  CYS799  TRP800  GLU811  SER814 

> <Gold.Protein.RotatedAtoms>
  152.3480  134.7045  160.0244 H   0  0  0  0  0  0  0  0  0  0  0  0  # atno 6907 bound_to 6896
  151.7408  133.3316  159.3373 H   0  0  0  0  0  0  0  0  0  0  0  0  # atno 6908 bound_to 6896
  150.7521  134.6213  159.6182 H   0  0  0  0  0  0  0  0  0  0  0  0  # atno 6909 bound_to 6896
  145.3042  140.9385  143.2806 H   0  0  0  0  0  0  0  0  0  0  0  0  # atno 7974 bound_to 7965
  155.8754  140.3447  155.5850 H   0  0  0  0  0  0  0  0  0  0  0  0  # atno 8008 bound_to 7997
  155.7780  140.0854  157.2093 H   0  0  0  0  0  0  0  0  0  0  0  0  # atno 8009 bound_to 7997
  154.4020  140.1506  156.3006 H   0  0  0  0  0  0  0  0  0  0  0  0  # atno 8010 bound_to 7997
  139.9632  144.5946  150.8053 H   0  0  0  0  0  0  0  0  0  0  0  0  # atno 10167 bound_to 10162
  156.5175  130.8463  151.2670 H   0  0  0  0  0  0  0  0  0  0  0  0  # atno 10718 bound_to 10713
  153.0619  135.5008  154.8114 H   0  0  0  0  0  0  0  0  0  0  0  0  # atno 10763 bound_to 10752
  154.6896  135.2982  154.9500 H   0  0  0  0  0  0  0  0  0  0  0  0  # atno 10764 bound_to 10752
  154.0260  135.6736  153.4829 H   0  0  0  0  0  0  0  0  0  0  0  0  # atno 10765 bound_to 10752
  139.9853  134.6677  156.0187 H   0  0  0  0  0  0  0  0  0  0  0  0  # atno 11005 bound_to 11000
  144.9068  139.4579  143.6606 LP  0  0  0  0  0  0  0  0  0  0  0  0  # atno 17320 bound_to 7965
  146.3141  139.7854  142.8997 LP  0  0  0  0  0  0  0  0  0  0  0  0  # atno 17321 bound_to 7965
  140.7546  143.3031  151.3031 LP  0  0  0  0  0  0  0  0  0  0  0  0  # atno 17342 bound_to 10162
  139.6538  144.0314  152.2645 LP  0  0  0  0  0  0  0  0  0  0  0  0  # atno 17343 bound_to 10162
  157.7441  130.9928  150.2651 LP  0  0  0  0  0  0  0  0  0  0  0  0  # atno 17370 bound_to 10713
  156.3181  130.3781  149.7600 LP  0  0  0  0  0  0  0  0  0  0  0  0  # atno 17371 bound_to 10713
  141.1519  133.6547  156.4041 LP  0  0  0  0  0  0  0  0  0  0  0  0  # atno 17394 bound_to 11000
  140.5014  134.6482  157.5250 LP  0  0  0  0  0  0  0  0  0  0  0  0  # atno 17395 bound_to 11000

$$$$
