AV-unprocessed.smi:2198|AV-procd|sdf|8919|dock8
  -GOLD-   2272012133D 1   1.00000     0.00000
 Structure written by MMmdl.
 42 43  0  0  0  0  0  0  0  0  2 V2000
  146.8889  142.6352  153.3320 C   0  0  0  0  0  0  0  0  0  0  0  0
  147.7450  141.9546  154.3784 C   0  0  0  0  0  0  0  0  0  0  0  0
  147.3797  141.9916  155.6029 N   0  0  0  0  0  0  0  0  0  0  0  0
  148.1697  141.3617  156.5793 C   0  0  0  0  0  0  0  0  0  0  0  0
  147.6620  141.4591  158.0074 C   0  0  0  0  0  0  0  0  0  0  0  0
  149.3193  140.7090  156.2439 C   0  0  0  0  0  0  0  0  0  0  0  0
  150.2121  140.0110  157.2696 C   0  0  0  0  0  0  0  0  0  0  0  0
  151.5831  140.6478  157.5080 C   0  0  0  0  0  0  0  0  0  0  0  0
  152.6147  140.0422  157.2170 O   0  0  0  0  0  0  0  0  0  0  0  0
  151.5767  141.8785  158.0420 N   0  0  0  0  0  0  0  0  0  0  0  0
  152.7619  142.6723  158.3607 C   0  0  2  0  0  0  0  0  0  0  0  0
  153.5524  142.0131  159.5074 C   0  0  0  0  0  0  0  0  0  0  0  0
  152.8223  142.1271  160.8569 C   0  0  0  0  0  0  0  0  0  0  0  0
  152.4798  143.5885  161.1859 C   0  0  0  0  0  0  0  0  0  0  0  0
  151.6515  144.2422  160.0634 C   0  0  1  0  0  0  0  0  0  0  0  0
  151.3096  145.7015  160.3951 C   0  0  0  0  0  0  0  0  0  0  0  0
  152.3897  144.1295  158.7131 C   0  0  0  0  0  0  0  0  0  0  0  0
  149.7029  140.6854  154.8209 C   0  0  0  0  0  0  0  0  0  0  0  0
  150.7236  140.0992  154.4621 O   0  0  0  0  0  0  0  0  0  0  0  0
  148.8884  141.3281  153.9357 N   0  5  0  0  0  0  0  0  0  0  0  0
  145.9123  142.9024  153.7379 H   0  0  0  0  0  0  0  0  0  0  0  0
  146.7321  141.9748  152.4785 H   0  0  0  0  0  0  0  0  0  0  0  0
  147.3763  143.5451  152.9815 H   0  0  0  0  0  0  0  0  0  0  0  0
  148.3584  142.0302  158.6215 H   0  0  0  0  0  0  0  0  0  0  0  0
  147.5451  140.4672  158.4437 H   0  0  0  0  0  0  0  0  0  0  0  0
  146.6925  141.9571  158.0481 H   0  0  0  0  0  0  0  0  0  0  0  0
  149.7054  139.9244  158.2312 H   0  0  0  0  0  0  0  0  0  0  0  0
  150.3602  138.9812  156.9432 H   0  0  0  0  0  0  0  0  0  0  0  0
  150.6812  142.2976  158.2462 H   0  0  0  0  0  0  0  0  0  0  0  0
  153.4047  142.6824  157.4785 H   0  0  0  0  0  0  0  0  0  0  0  0
  153.7517  140.9658  159.2768 H   0  0  0  0  0  0  0  0  0  0  0  0
  154.5269  142.4956  159.5909 H   0  0  0  0  0  0  0  0  0  0  0  0
  151.9077  141.5330  160.8348 H   0  0  0  0  0  0  0  0  0  0  0  0
  153.4422  141.7054  161.6485 H   0  0  0  0  0  0  0  0  0  0  0  0
  151.9321  143.6306  162.1279 H   0  0  0  0  0  0  0  0  0  0  0  0
  153.4018  144.1509  161.3403 H   0  0  0  0  0  0  0  0  0  0  0  0
  150.7084  143.6998  159.9813 H   0  0  0  0  0  0  0  0  0  0  0  0
  152.2103  146.3083  160.4929 H   0  0  0  0  0  0  0  0  0  0  0  0
  150.7570  145.7719  161.3326 H   0  0  0  0  0  0  0  0  0  0  0  0
  150.6909  146.1460  159.6151 H   0  0  0  0  0  0  0  0  0  0  0  0
  153.3030  144.7246  158.7537 H   0  0  0  0  0  0  0  0  0  0  0  0
  151.7852  144.5665  157.9172 H   0  0  0  0  0  0  0  0  0  0  0  0
  1  2  1  0  0  0  0
  1 21  1  0  0  0  0
  1 22  1  0  0  0  0
  1 23  1  0  0  0  0
  2 20  1  0  0  0  0
  2  3  2  0  0  0  0
  3  4  1  0  0  0  0
  4  5  1  0  0  0  0
  4  6  2  0  0  0  0
  5 24  1  0  0  0  0
  5 25  1  0  0  0  0
  5 26  1  0  0  0  0
  6  7  1  0  0  0  0
  6 18  1  0  0  0  0
  7  8  1  0  0  0  0
  7 27  1  0  0  0  0
  7 28  1  0  0  0  0
  8  9  2  0  0  0  0
  8 10  1  0  0  0  0
 10 11  1  0  0  0  0
 10 29  1  0  0  0  0
 11 17  1  0  0  0  0
 11 12  1  0  0  0  0
 11 30  1  0  0  0  0
 12 13  1  0  0  0  0
 12 31  1  0  0  0  0
 12 32  1  0  0  0  0
 13 14  1  0  0  0  0
 13 33  1  0  0  0  0
 13 34  1  0  0  0  0
 14 15  1  0  0  0  0
 14 35  1  0  0  0  0
 14 36  1  0  0  0  0
 15 16  1  0  0  0  0
 15 17  1  0  0  0  0
 15 37  1  0  0  0  0
 16 38  1  0  0  0  0
 16 39  1  0  0  0  0
 16 40  1  0  0  0  0
 17 41  1  0  0  0  0
 17 42  1  0  0  0  0
 18 19  2  0  0  0  0
 18 20  1  0  0  0  0
M  CHG  1  20  -1
M  END
> <s_m_source_file>
AV-unprocessed.smi

> <i_m_source_file_index>
2198

> <i_lp_mmshare_version>
43012

> <i_f3d_flags>
0

> <s_epik_input>
W0NIM11jMW5jKFtDSDNdKWMoYyg9TylbbkhdMSlbQ0gyXUMoPU8pW05IXVtDQEBIXTJbQ0gyXVtDSDJdW0NIMl1bQ0BASF0oW0NIM10pW0NIMl0y

> <s_epik_cmdline>
J2VwaWtfcHl0aG9uJywgJy1waCcsICc3LjAnLCAnLXRuJywgJzgnLCAnLW1hJywgJzIwMCcsICctbWV0YWxfYmluZGluZycsICctaW1hZScsICc8aW5maWxlLm1hZT4nLCAnLW9tYWUnLCAnPG91dGZpbGUubWFlPic=

> <r_lp_tautomer_probability>
0.839158

> <r_epik_Ionization_Penalty>
6.67193

> <r_epik_Ionization_Penalty_Charging>
7.66837e-08

> <r_epik_Ionization_Penalty_Neutral>
6.67193

> <r_epik_State_Penalty>
4.51643

> <r_epik_Charging_Adjusted_Penalty>
4.51643

> <i_epik_Tot_Q>
-1

> <i_epik_Tot_abs_Q>
1

> <r_epik_Metal_State_Penalty>
0.851582

> <b_epik_Metal_Only>
1

> <s_lp_Force_Field>
OPLS_2005

> <r_lp_Energy>
13.1445

> <b_lp_Chiralities_Consistent>
1

> <s_lp_Variant>
AV-unprocessed.smi:2198-9

> <Gold.Version>
5.8.1

> <Gold.Id.Protein>
6NUR|6NUR_protein|mol2

> <Gold.PLP.Fitness>
43.7743

> <Gold.PLP.PLP>
-36.2251

> <Gold.PLP.part.hbond>
-3.1629

> <Gold.PLP.part.metal>
0.0000

> <Gold.PLP.part.buried>
-4.2554

> <Gold.PLP.part.nonpolar>
-28.7497

> <Gold.PLP.part.repulsive>
1.0543

> <Gold.PLP.ligand.clash>
0.0000

> <Gold.PLP.ligand.torsion>
0.1653

> <Gold.PLP.Chemscore.Hbond>
2.6240

> <Gold.PLP.Chemscore.CHOScore>
0.0000

> <Gold.PLP.Chemscore.Metal>
0.0000

> <Gold.Chemscore.Hbonds>
donor molecule, donor type, donor heavy atom, donor atom, acceptor molecule, acceptor atom, score
      P1  H  7989  7998       L1    19  1.00
      P1  H  7997  8010       L1     9  1.00
      P1  H  8011  8017       L1    20  0.56

> <Gold.PLP.Chemscore.Internal.Correction>
0.0076

> <Gold.Rescore>
     Score         DG    S(hbond)    S(metal)    S(lipo)     H(rot)  DE(clash)    DE(int)     intcor
     18.22     -21.16       2.22        0.00     102.09       1.45       2.85       0.09       ----

> <Gold.Chemscore.Fitness>
18.2174

> <Gold.Chemscore.DG>
-21.1563

> <Gold.Chemscore.ZeroCoef>
-5.4800

> <Gold.Chemscore.Hbond>
2.2248

> <Gold.Chemscore.Metal>
0.0000

> <Gold.Chemscore.Lipo>
102.0922

> <Gold.Chemscore.Internal_Hbond>
0.0000

> <Gold.Chemscore.DEClash>
2.8536

> <Gold.Chemscore.DEInternal>
0.0852

> <Gold.Chemscore.Rot>
1.4450

> <Gold.Chemscore.Internal.Correction>
   9.000000E+99

> <Gold.Chemscore.Hbonds>
donor molecule, donor type, donor heavy atom, donor atom, acceptor molecule, acceptor atom, score
      P1  H  7989  7998       L1    19  0.87
      P1  H  7997  8010       L1     9  0.98
      P1  H  8011  8017       L1    20  0.42

> <Gold.Chemscore.Hbond.Weighted>
-7.4307

> <Gold.Chemscore.Metal.Weighted>
-0.0000

> <Gold.Chemscore.Lipo.Weighted>
-11.9448

> <Gold.Chemscore.Internal_Hbond.Weighted>
0.0000

> <Gold.Chemscore.DEClash.Weighted>
2.8536

> <Gold.Chemscore.DEInternal.Weighted>
0.0852

> <Gold.Chemscore.Rot.Weighted>
3.6992

> <Gold.Chemscore.Internal.Correction.Weighted>
   9.000000E+99

> <Gold.Protein.RotatedTorsions>
[ 6907 6896 6895 6894 ] final   81.86 input  -60.11 | X-H torsion
[ 7974 7965 7964 7962 ] final  -12.61 input  175.53 | X-H torsion
[ 8008 7997 7996 7995 ] final   64.91 input   59.86 | X-H torsion
[ 10167 10162 10161 10158 ] final -145.35 input  -65.29 | X-H torsion
[ 10718 10713 10712 10709 ] final -172.41 input   66.30 | X-H torsion
[ 10763 10752 10751 10750 ] final   52.01 input  -60.55 | X-H torsion
[ 11005 11000 10999 10996 ] final -104.38 input  -57.11 | X-H torsion

> <Gold.Protein.ActiveResidues>
 VAL166  LYS551  ARG553  GLY616  TRP617  ASP618  TYR619  PRO620  LYS621  CYS622 
 ASP623  PHE694  ASN695  SER759  ASP760  ASP761  ALA762  ILE779  LEU786  VAL792 
 PHE793  MET794  SER795  GLU796  ALA797  LYS798  CYS799  TRP800  GLU811  SER814 

> <Gold.Protein.RotatedAtoms>
  152.5281  134.3139  159.9123 H   0  0  0  0  0  0  0  0  0  0  0  0  # atno 6907 bound_to 6896
  151.3089  133.4083  159.2653 H   0  0  0  0  0  0  0  0  0  0  0  0  # atno 6908 bound_to 6896
  151.0056  134.9373  159.8035 H   0  0  0  0  0  0  0  0  0  0  0  0  # atno 6909 bound_to 6896
  146.2145  140.3083  142.8380 H   0  0  0  0  0  0  0  0  0  0  0  0  # atno 7974 bound_to 7965
  155.6534  140.3497  155.4756 H   0  0  0  0  0  0  0  0  0  0  0  0  # atno 8008 bound_to 7997
  155.9829  140.1178  157.0733 H   0  0  0  0  0  0  0  0  0  0  0  0  # atno 8009 bound_to 7997
  154.4196  140.1135  156.5446 H   0  0  0  0  0  0  0  0  0  0  0  0  # atno 8010 bound_to 7997
  139.7813  143.8096  152.2639 H   0  0  0  0  0  0  0  0  0  0  0  0  # atno 10167 bound_to 10162
  156.7552  130.9393  151.3116 H   0  0  0  0  0  0  0  0  0  0  0  0  # atno 10718 bound_to 10713
  152.9787  135.5827  154.4509 H   0  0  0  0  0  0  0  0  0  0  0  0  # atno 10763 bound_to 10752
  154.4098  135.2770  155.2046 H   0  0  0  0  0  0  0  0  0  0  0  0  # atno 10764 bound_to 10752
  154.3841  135.6140  153.5861 H   0  0  0  0  0  0  0  0  0  0  0  0  # atno 10765 bound_to 10752
  141.1103  133.8719  157.1604 H   0  0  0  0  0  0  0  0  0  0  0  0  # atno 11005 bound_to 11000
  144.9007  140.7638  143.5869 LP  0  0  0  0  0  0  0  0  0  0  0  0  # atno 17320 bound_to 7965
  145.3009  139.1851  143.4690 LP  0  0  0  0  0  0  0  0  0  0  0  0  # atno 17321 bound_to 7965
  139.8160  144.7316  150.9635 LP  0  0  0  0  0  0  0  0  0  0  0  0  # atno 17342 bound_to 10162
  140.7818  143.4205  151.0849 LP  0  0  0  0  0  0  0  0  0  0  0  0  # atno 17343 bound_to 10162
  157.6759  130.9094  150.0150 LP  0  0  0  0  0  0  0  0  0  0  0  0  # atno 17370 bound_to 10713
  156.1375  130.3642  149.9634 LP  0  0  0  0  0  0  0  0  0  0  0  0  # atno 17371 bound_to 10713
  139.9993  135.0034  157.0154 LP  0  0  0  0  0  0  0  0  0  0  0  0  # atno 17394 bound_to 11000
  140.4793  134.1306  155.7214 LP  0  0  0  0  0  0  0  0  0  0  0  0  # atno 17395 bound_to 11000

$$$$
