AV-unprocessed.smi:2083|AV-procd|sdf|8510|dock3
  -GOLD-   2272011223D 1   1.00000     0.00000
 Structure written by MMmdl.
 44 45  0  0  0  0  0  0  0  0  3 V2000
  146.7866  134.9633  162.5809 C   0  0  0  0  0  0  0  0  0  0  0  0
  147.3407  135.4396  161.2823 C   0  0  0  0  0  0  0  0  0  0  0  0
  147.7495  134.7914  160.1511 C   0  0  0  0  0  0  0  0  0  0  0  0
  148.1603  135.8538  159.3025 C   0  0  0  0  0  0  0  0  0  0  0  0
  148.6598  135.5880  158.0000 N   0  0  0  0  0  0  0  0  0  0  0  0
  149.0871  134.4213  157.4830 C   0  0  0  0  0  0  0  0  0  0  0  0
  149.0614  133.3894  158.1644 O   0  0  0  0  0  0  0  0  0  0  0  0
  149.5153  134.5545  156.1978 N   0  5  0  0  0  0  0  0  0  0  0  0
  148.7167  135.1269  155.1153 C   0  0  0  0  0  0  0  0  0  0  0  0
  148.2047  134.0107  154.1674 C   0  0  2  0  0  0  0  0  0  0  0  0
  149.3258  133.2164  153.4500 C   0  0  0  0  0  0  0  0  0  0  0  0
  147.1834  134.5581  153.2200 N   0  3  1  0  0  0  0  0  0  0  0  0
  146.7861  133.6664  152.0906 C   0  0  0  0  0  0  0  0  0  0  0  0
  145.9483  134.4352  151.0581 C   0  0  0  0  0  0  0  0  0  0  0  0
  144.7130  135.0667  151.7163 C   0  0  0  0  0  0  0  0  0  0  0  0
  145.1038  135.9298  152.9307 C   0  0  2  0  0  0  0  0  0  0  0  0
  145.7484  137.2677  152.5261 C   0  0  0  0  0  0  0  0  0  0  0  0
  145.9922  135.1293  153.9059 C   0  0  0  0  0  0  0  0  0  0  0  0
  148.0157  137.0435  159.8673 N   0  0  0  0  0  0  0  0  0  0  0  0
  147.4897  136.7842  161.1383 O   0  0  0  0  0  0  0  0  0  0  0  0
  146.7999  133.8746  162.6347 H   0  0  0  0  0  0  0  0  0  0  0  0
  145.7560  135.2955  162.7047 H   0  0  0  0  0  0  0  0  0  0  0  0
  147.3706  135.3504  163.4160 H   0  0  0  0  0  0  0  0  0  0  0  0
  147.7524  133.7283  159.9616 H   0  0  0  0  0  0  0  0  0  0  0  0
  148.7070  136.3837  157.3814 H   0  0  0  0  0  0  0  0  0  0  0  0
  147.8529  135.6645  155.5097 H   0  0  0  0  0  0  0  0  0  0  0  0
  149.2790  135.8600  154.5356 H   0  0  0  0  0  0  0  0  0  0  0  0
  147.6859  133.2993  154.8121 H   0  0  0  0  0  0  0  0  0  0  0  0
  149.9689  132.6922  154.1590 H   0  0  0  0  0  0  0  0  0  0  0  0
  149.9699  133.8505  152.8382 H   0  0  0  0  0  0  0  0  0  0  0  0
  148.9023  132.4534  152.7964 H   0  0  0  0  0  0  0  0  0  0  0  0
  147.6667  133.2554  151.5961 H   0  0  0  0  0  0  0  0  0  0  0  0
  146.2104  132.8200  152.4673 H   0  0  0  0  0  0  0  0  0  0  0  0
  146.5594  135.2065  150.5881 H   0  0  0  0  0  0  0  0  0  0  0  0
  145.6374  133.7628  150.2582 H   0  0  0  0  0  0  0  0  0  0  0  0
  144.1556  135.6575  150.9887 H   0  0  0  0  0  0  0  0  0  0  0  0
  144.0407  134.2723  152.0431 H   0  0  0  0  0  0  0  0  0  0  0  0
  144.1836  136.1813  153.4594 H   0  0  0  0  0  0  0  0  0  0  0  0
  146.6990  137.1239  152.0123 H   0  0  0  0  0  0  0  0  0  0  0  0
  145.9400  137.8892  153.4012 H   0  0  0  0  0  0  0  0  0  0  0  0
  145.0945  137.8330  151.8616 H   0  0  0  0  0  0  0  0  0  0  0  0
  145.4171  134.3189  154.3562 H   0  0  0  0  0  0  0  0  0  0  0  0
  146.3008  135.7833  154.7226 H   0  0  0  0  0  0  0  0  0  0  0  0
  147.6429  135.3516  152.7960 H   0  0  0  0  0  0  0  0  0  0  0  0
  1  2  1  0  0  0  0
  1 21  1  0  0  0  0
  1 22  1  0  0  0  0
  1 23  1  0  0  0  0
  2 20  1  0  0  0  0
  2  3  2  0  0  0  0
  3  4  1  0  0  0  0
  3 24  1  0  0  0  0
  4  5  1  0  0  0  0
  4 19  2  0  0  0  0
  5  6  1  0  0  0  0
  5 25  1  0  0  0  0
  6  7  2  0  0  0  0
  6  8  1  0  0  0  0
  8  9  1  0  0  0  0
  9 10  1  0  0  0  0
  9 26  1  0  0  0  0
  9 27  1  0  0  0  0
 10 11  1  0  0  0  0
 10 12  1  0  0  0  0
 10 28  1  0  0  0  0
 11 29  1  0  0  0  0
 11 30  1  0  0  0  0
 11 31  1  0  0  0  0
 12 18  1  0  0  0  0
 12 13  1  0  0  0  0
 12 44  1  0  0  0  0
 13 14  1  0  0  0  0
 13 32  1  0  0  0  0
 13 33  1  0  0  0  0
 14 15  1  0  0  0  0
 14 34  1  0  0  0  0
 14 35  1  0  0  0  0
 15 16  1  0  0  0  0
 15 36  1  0  0  0  0
 15 37  1  0  0  0  0
 16 17  1  0  0  0  0
 16 18  1  0  0  0  0
 16 38  1  0  0  0  0
 17 39  1  0  0  0  0
 17 40  1  0  0  0  0
 17 41  1  0  0  0  0
 18 42  1  0  0  0  0
 18 43  1  0  0  0  0
 19 20  1  0  0  0  0
M  CHG  1   8  -1
M  CHG  1  12   1
M  END
> <s_m_source_file>
AV-unprocessed.smi

> <i_m_source_file_index>
2083

> <i_lp_mmshare_version>
43012

> <i_f3d_flags>
0

> <s_epik_input>
W0NIM11jMVtjSF1jKG5vMSlbTkhdQyg9TylbTkhdW0NIMl1bQ0BIXShbQ0gzXSlOMltDSDJdW0NIMl1bQ0gyXVtDQEBIXShbQ0gzXSlbQ0gyXTI=

> <s_epik_cmdline>
J2VwaWtfcHl0aG9uJywgJy1waCcsICc3LjAnLCAnLXRuJywgJzgnLCAnLW1hJywgJzIwMCcsICctbWV0YWxfYmluZGluZycsICctaW1hZScsICc8aW5maWxlLm1hZT4nLCAnLW9tYWUnLCAnPG91dGZpbGUubWFlPic=

> <r_epik_Ionization_Penalty>
6.76934

> <r_epik_Ionization_Penalty_Charging>
6.76934

> <r_epik_Ionization_Penalty_Neutral>
5.77849e-06

> <r_epik_State_Penalty>
6.79457

> <r_epik_Charging_Adjusted_Penalty>
13.5639

> <i_epik_Tot_Q>
0

> <i_epik_Tot_abs_Q>
2

> <r_epik_Metal_State_Penalty>
2.72837

> <b_epik_Metal_Only>
1

> <s_lp_Force_Field>
OPLS_2005

> <r_lp_Energy>
20.9735

> <b_lp_Chiralities_Consistent>
1

> <s_lp_Variant>
AV-unprocessed.smi:2083-21

> <Gold.Version>
5.8.1

> <Gold.Id.Protein>
6NUR|6NUR_protein|mol2

> <Gold.PLP.Fitness>
42.4401

> <Gold.PLP.PLP>
-30.7427

> <Gold.PLP.part.hbond>
-5.3505

> <Gold.PLP.part.metal>
0.0000

> <Gold.PLP.part.buried>
-3.8584

> <Gold.PLP.part.nonpolar>
-22.0466

> <Gold.PLP.part.repulsive>
0.0885

> <Gold.PLP.ligand.clash>
0.0000

> <Gold.PLP.ligand.torsion>
0.8202

> <Gold.PLP.Chemscore.Hbond>
4.3824

> <Gold.PLP.Chemscore.CHOScore>
0.0000

> <Gold.PLP.Chemscore.Metal>
0.0000

> <Gold.Chemscore.Hbonds>
donor molecule, donor type, donor heavy atom, donor atom, acceptor molecule, acceptor atom, score
      L1  H    12    44       P1  7948  2.00
      P1  H  6896  6908       L1     7  0.73
      P1  H  6931  6943       L1    20  0.13

> <Gold.PLP.Chemscore.Internal.Correction>
0.1906

> <Gold.Rescore>
     Score         DG    S(hbond)    S(metal)    S(lipo)     H(rot)  DE(clash)    DE(int)     intcor
     15.83     -18.55       2.87        0.00      62.94       1.52       0.38       2.33       ----

> <Gold.Chemscore.Fitness>
15.8320

> <Gold.Chemscore.DG>
-18.5503

> <Gold.Chemscore.ZeroCoef>
-5.4800

> <Gold.Chemscore.Hbond>
2.8726

> <Gold.Chemscore.Metal>
0.0000

> <Gold.Chemscore.Lipo>
62.9430

> <Gold.Chemscore.Internal_Hbond>
0.0000

> <Gold.Chemscore.DEClash>
0.3847

> <Gold.Chemscore.DEInternal>
2.3336

> <Gold.Chemscore.Rot>
1.5190

> <Gold.Chemscore.Internal.Correction>
   9.000000E+99

> <Gold.Chemscore.Hbonds>
donor molecule, donor type, donor heavy atom, donor atom, acceptor molecule, acceptor atom, score
      L1  H    12    44       P1  7948  0.98
      P1  H  6896  6908       L1     7  0.12

> <Gold.Chemscore.Hbond.Weighted>
-9.5946

> <Gold.Chemscore.Metal.Weighted>
-0.0000

> <Gold.Chemscore.Lipo.Weighted>
-7.3643

> <Gold.Chemscore.Internal_Hbond.Weighted>
0.0000

> <Gold.Chemscore.DEClash.Weighted>
0.3847

> <Gold.Chemscore.DEInternal.Weighted>
2.3336

> <Gold.Chemscore.Rot.Weighted>
3.8886

> <Gold.Chemscore.Internal.Correction.Weighted>
   9.000000E+99

> <Gold.Protein.RotatedTorsions>
[ 6907 6896 6895 6894 ] final  118.53 input  -60.11 | X-H torsion
[ 7974 7965 7964 7962 ] final  134.28 input  175.53 | X-H torsion
[ 8008 7997 7996 7995 ] final  -84.16 input   59.86 | X-H torsion
[ 10167 10162 10161 10158 ] final   75.99 input  -65.29 | X-H torsion
[ 10718 10713 10712 10709 ] final -111.98 input   66.30 | X-H torsion
[ 10763 10752 10751 10750 ] final -174.58 input  -60.55 | X-H torsion
[ 11005 11000 10999 10996 ] final   64.50 input  -57.11 | X-H torsion

> <Gold.Protein.ActiveResidues>
 VAL166  LYS551  ARG553  GLY616  TRP617  ASP618  TYR619  PRO620  LYS621  CYS622 
 ASP623  PHE694  ASN695  SER759  ASP760  ASP761  ALA762  ILE779  LEU786  VAL792 
 PHE793  MET794  SER795  GLU796  ALA797  LYS798  CYS799  TRP800  GLU811  SER814 

> <Gold.Protein.RotatedAtoms>
  152.4536  133.7679  159.6782 H   0  0  0  0  0  0  0  0  0  0  0  0  # atno 6907 bound_to 6896
  150.8455  133.7857  159.3051 H   0  0  0  0  0  0  0  0  0  0  0  0  # atno 6908 bound_to 6896
  151.5469  135.1070  159.9992 H   0  0  0  0  0  0  0  0  0  0  0  0  # atno 6909 bound_to 6896
  144.9779  139.4535  143.5400 H   0  0  0  0  0  0  0  0  0  0  0  0  # atno 7974 bound_to 7965
  154.6268  140.0609  156.9684 H   0  0  0  0  0  0  0  0  0  0  0  0  # atno 8008 bound_to 7997
  155.1728  140.3292  155.4371 H   0  0  0  0  0  0  0  0  0  0  0  0  # atno 8009 bound_to 7997
  156.2462  140.1911  156.6829 H   0  0  0  0  0  0  0  0  0  0  0  0  # atno 8010 bound_to 7997
  139.9971  144.5714  150.7769 H   0  0  0  0  0  0  0  0  0  0  0  0  # atno 10167 bound_to 10162
  156.0678  130.5896  150.8446 H   0  0  0  0  0  0  0  0  0  0  0  0  # atno 10718 bound_to 10713
  154.5946  135.2848  155.0600 H   0  0  0  0  0  0  0  0  0  0  0  0  # atno 10763 bound_to 10752
  154.1888  135.6444  153.5058 H   0  0  0  0  0  0  0  0  0  0  0  0  # atno 10764 bound_to 10752
  153.0134  135.5441  154.6643 H   0  0  0  0  0  0  0  0  0  0  0  0  # atno 10765 bound_to 10752
  139.9954  134.6525  156.0018 H   0  0  0  0  0  0  0  0  0  0  0  0  # atno 11005 bound_to 11000
  146.3400  139.9034  142.8791 LP  0  0  0  0  0  0  0  0  0  0  0  0  # atno 17320 bound_to 7965
  145.2463  141.0028  143.3907 LP  0  0  0  0  0  0  0  0  0  0  0  0  # atno 17321 bound_to 7965
  140.7433  143.2844  151.3505 LP  0  0  0  0  0  0  0  0  0  0  0  0  # atno 17342 bound_to 10162
  139.6298  144.0742  152.2466 LP  0  0  0  0  0  0  0  0  0  0  0  0  # atno 17343 bound_to 10162
  157.5731  131.0946  150.9387 LP  0  0  0  0  0  0  0  0  0  0  0  0  # atno 17370 bound_to 10713
  156.9599  130.5451  149.5285 LP  0  0  0  0  0  0  0  0  0  0  0  0  # atno 17371 bound_to 10713
  141.1600  133.6539  156.4288 LP  0  0  0  0  0  0  0  0  0  0  0  0  # atno 17394 bound_to 11000
  140.4827  134.6649  157.5178 LP  0  0  0  0  0  0  0  0  0  0  0  0  # atno 17395 bound_to 11000

$$$$
