AV-unprocessed.smi:219|AV-procd|sdf|1680|dock10
  -GOLD-   2262020113D 1   1.00000     0.00000
 Structure written by MMmdl.
 50 53  0  0  0  0  0  0  0  0  1 V2000
  146.7521  135.8177  162.1126 N   0  0  0  0  0  0  0  0  0  0  0  0
  146.9964  136.6745  161.1181 C   0  0  0  0  0  0  0  0  0  0  0  0
  146.1807  137.5274  160.7747 O   0  0  0  0  0  0  0  0  0  0  0  0
  148.3518  136.5502  160.4094 C   0  0  0  0  0  0  0  0  0  0  0  0
  148.2878  136.1403  158.9084 C   0  0  2  0  0  0  0  0  0  0  0  0
  147.5792  134.7707  158.7946 C   0  0  0  0  0  0  0  0  0  0  0  0
  147.4938  134.2809  157.3428 C   0  0  0  0  0  0  0  0  0  0  0  0
  148.8935  134.2470  156.7209 C   0  0  0  0  0  0  0  0  0  0  0  0
  149.5590  135.6241  156.8391 C   0  0  0  0  0  0  0  0  0  0  0  0
  149.5983  136.0778  158.2310 N   0  0  0  0  0  0  0  0  0  0  0  0
  150.4082  137.1506  158.3794 C   0  0  0  0  0  0  0  0  0  0  0  0
  151.4845  137.0828  159.2072 N   0  0  0  0  0  0  0  0  0  0  0  0
  152.2964  138.1373  159.3306 C   0  0  0  0  0  0  0  0  0  0  0  0
  152.2144  139.3292  158.7343 N   0  0  0  0  0  0  0  0  0  0  0  0
  151.1305  139.3983  157.9087 C   0  0  0  0  0  0  0  0  0  0  0  0
  150.1849  138.3621  157.6750 C   0  0  0  0  0  0  0  0  0  0  0  0
  149.2262  138.7841  156.7637 N   0  0  0  0  0  0  0  0  0  0  0  0
  149.5828  140.0063  156.4767 C   0  0  0  0  0  0  0  0  0  0  0  0
  150.7092  140.4602  157.1267 N   0  0  0  0  0  0  0  0  0  0  0  0
  151.3210  141.7740  156.9943 C   0  0  0  0  0  0  0  0  0  0  0  0
  151.2204  142.6373  158.2753 C   0  0  2  0  0  0  0  0  0  0  0  0
  149.9090  142.5272  158.7994 O   0  0  0  0  0  0  0  0  0  0  0  0
  151.5271  144.1131  158.0113 C   0  0  0  0  0  0  0  0  0  0  0  0
  152.8797  144.3244  158.6810 C   0  0  0  0  0  0  0  0  0  0  0  0
  152.8031  143.4721  159.8093 O   0  0  0  0  0  0  0  0  0  0  0  0
  152.2374  142.2470  159.3670 C   0  0  0  0  0  0  0  0  0  0  0  0
  145.8732  135.8641  162.6079 H   0  0  0  0  0  0  0  0  0  0  0  0
  147.4446  135.1286  162.3671 H   0  0  0  0  0  0  0  0  0  0  0  0
  148.9309  137.4680  160.5235 H   0  0  0  0  0  0  0  0  0  0  0  0
  148.8966  135.7881  160.9678 H   0  0  0  0  0  0  0  0  0  0  0  0
  147.6792  136.8669  158.3675 H   0  0  0  0  0  0  0  0  0  0  0  0
  148.1154  134.0315  159.3919 H   0  0  0  0  0  0  0  0  0  0  0  0
  146.5733  134.8321  159.2117 H   0  0  0  0  0  0  0  0  0  0  0  0
  147.0404  133.2901  157.3049 H   0  0  0  0  0  0  0  0  0  0  0  0
  146.8484  134.9447  156.7663 H   0  0  0  0  0  0  0  0  0  0  0  0
  149.5053  133.4981  157.2259 H   0  0  0  0  0  0  0  0  0  0  0  0
  148.8332  133.9483  155.6742 H   0  0  0  0  0  0  0  0  0  0  0  0
  150.5716  135.5750  156.4355 H   0  0  0  0  0  0  0  0  0  0  0  0
  149.0092  136.3471  156.2343 H   0  0  0  0  0  0  0  0  0  0  0  0
  153.1324  138.0060  160.0017 H   0  0  0  0  0  0  0  0  0  0  0  0
  149.0266  140.6176  155.7808 H   0  0  0  0  0  0  0  0  0  0  0  0
  152.3675  141.6382  156.7179 H   0  0  0  0  0  0  0  0  0  0  0  0
  150.8490  142.2860  156.1545 H   0  0  0  0  0  0  0  0  0  0  0  0
  149.3127  142.9519  158.2016 H   0  0  0  0  0  0  0  0  0  0  0  0
  151.5448  144.3715  156.9518 H   0  0  0  0  0  0  0  0  0  0  0  0
  150.7903  144.7593  158.4916 H   0  0  0  0  0  0  0  0  0  0  0  0
  153.6950  144.0039  158.0304 H   0  0  0  0  0  0  0  0  0  0  0  0
  153.0515  145.3619  158.9682 H   0  0  0  0  0  0  0  0  0  0  0  0
  151.7999  141.6861  160.1940 H   0  0  0  0  0  0  0  0  0  0  0  0
  153.0472  141.6453  158.9539 H   0  0  0  0  0  0  0  0  0  0  0  0
  1  2  1  0  0  0  0
  1 27  1  0  0  0  0
  1 28  1  0  0  0  0
  2  3  2  0  0  0  0
  2  4  1  0  0  0  0
  4  5  1  0  0  0  0
  4 29  1  0  0  0  0
  4 30  1  0  0  0  0
  5 10  1  0  0  0  0
  5  6  1  0  0  0  0
  5 31  1  0  0  0  0
  6  7  1  0  0  0  0
  6 32  1  0  0  0  0
  6 33  1  0  0  0  0
  7  8  1  0  0  0  0
  7 34  1  0  0  0  0
  7 35  1  0  0  0  0
  8  9  1  0  0  0  0
  8 36  1  0  0  0  0
  8 37  1  0  0  0  0
  9 10  1  0  0  0  0
  9 38  1  0  0  0  0
  9 39  1  0  0  0  0
 10 11  1  0  0  0  0
 11 16  1  0  0  0  0
 11 12  2  0  0  0  0
 12 13  1  0  0  0  0
 13 14  2  0  0  0  0
 13 40  1  0  0  0  0
 14 15  1  0  0  0  0
 15 19  1  0  0  0  0
 15 16  2  0  0  0  0
 16 17  1  0  0  0  0
 17 18  2  0  0  0  0
 18 19  1  0  0  0  0
 18 41  1  0  0  0  0
 19 20  1  0  0  0  0
 20 21  1  0  0  0  0
 20 42  1  0  0  0  0
 20 43  1  0  0  0  0
 21 26  1  0  0  0  0
 21 22  1  0  0  0  0
 21 23  1  0  0  0  0
 22 44  1  0  0  0  0
 23 24  1  0  0  0  0
 23 45  1  0  0  0  0
 23 46  1  0  0  0  0
 24 25  1  0  0  0  0
 24 47  1  0  0  0  0
 24 48  1  0  0  0  0
 25 26  1  0  0  0  0
 26 49  1  0  0  0  0
 26 50  1  0  0  0  0
M  END
> <s_m_source_file>
AV-unprocessed.smi

> <i_m_source_file_index>
219

> <i_lp_mmshare_version>
43012

> <i_f3d_flags>
0

> <s_epik_input>
W05IMl1DKD1PKVtDSDJdW0NAQEhdMVtDSDJdW0NIMl1bQ0gyXVtDSDJdTjFjKG5bY0hdbjIpYyhjMjMpbltjSF1uM1tDSDJdW0NAQF00KFtPSF0pW0NIMl1bQ0gyXU9bQ0gyXTQ=

> <s_epik_cmdline>
J2VwaWtfcHl0aG9uJywgJy1waCcsICc3LjAnLCAnLXRuJywgJzgnLCAnLW1hJywgJzIwMCcsICctbWV0YWxfYmluZGluZycsICctaW1hZScsICc8aW5maWxlLm1hZT4nLCAnLW9tYWUnLCAnPG91dGZpbGUubWFlPic=

> <r_lp_tautomer_probability>
1

> <r_epik_Ionization_Penalty>
0.00228532

> <r_epik_Ionization_Penalty_Charging>
0

> <r_epik_Ionization_Penalty_Neutral>
0.00228532

> <r_epik_State_Penalty>
0.00140978

> <r_epik_Charging_Adjusted_Penalty>
0.00140978

> <i_epik_Tot_Q>
0

> <i_epik_Tot_abs_Q>
0

> <r_epik_Metal_State_Penalty>
-0

> <b_epik_Metal_Only>
0

> <s_lp_Force_Field>
OPLS_2005

> <r_lp_Energy>
33.6932

> <b_lp_Chiralities_Consistent>
1

> <s_lp_Variant>
AV-unprocessed.smi:219-3

> <Gold.Version>
5.8.1

> <Gold.Id.Protein>
6NUR|6NUR_protein|mol2

> <Gold.PLP.Fitness>
42.4803

> <Gold.PLP.PLP>
-37.0443

> <Gold.PLP.part.hbond>
-3.8973

> <Gold.PLP.part.metal>
0.0000

> <Gold.PLP.part.buried>
-6.1624

> <Gold.PLP.part.nonpolar>
-27.6561

> <Gold.PLP.part.repulsive>
0.1442

> <Gold.PLP.ligand.clash>
0.0000

> <Gold.PLP.ligand.torsion>
0.4675

> <Gold.PLP.Chemscore.Hbond>
2.0315

> <Gold.PLP.Chemscore.CHOScore>
0.0000

> <Gold.PLP.Chemscore.Metal>
0.0000

> <Gold.Chemscore.Hbonds>
donor molecule, donor type, donor heavy atom, donor atom, acceptor molecule, acceptor atom, score
      P1  H  6896  6907       L1    12  0.79
      P1  H  6934  6947       L1     3  1.00

> <Gold.PLP.Chemscore.Internal.Correction>
0.2765

> <Gold.Rescore>
     Score         DG    S(hbond)    S(metal)    S(lipo)     H(rot)  DE(clash)    DE(int)     intcor
     10.67     -11.31       1.77        0.00      73.14       3.37       0.01       0.64       ----

> <Gold.Chemscore.Fitness>
10.6655

> <Gold.Chemscore.DG>
-11.3127

> <Gold.Chemscore.ZeroCoef>
-5.4800

> <Gold.Chemscore.Hbond>
1.7671

> <Gold.Chemscore.Metal>
0.0000

> <Gold.Chemscore.Lipo>
73.1380

> <Gold.Chemscore.Internal_Hbond>
0.0000

> <Gold.Chemscore.DEClash>
0.0110

> <Gold.Chemscore.DEInternal>
0.6363

> <Gold.Chemscore.Rot>
3.3697

> <Gold.Chemscore.Internal.Correction>
   9.000000E+99

> <Gold.Chemscore.Hbonds>
donor molecule, donor type, donor heavy atom, donor atom, acceptor molecule, acceptor atom, score
      P1  H  6896  6907       L1    12  0.61
      P1  H  6934  6947       L1     3  0.35

> <Gold.Chemscore.Hbond.Weighted>
-5.9020

> <Gold.Chemscore.Metal.Weighted>
-0.0000

> <Gold.Chemscore.Lipo.Weighted>
-8.5572

> <Gold.Chemscore.Internal_Hbond.Weighted>
0.0000

> <Gold.Chemscore.DEClash.Weighted>
0.0110

> <Gold.Chemscore.DEInternal.Weighted>
0.6363

> <Gold.Chemscore.Rot.Weighted>
8.6264

> <Gold.Chemscore.Internal.Correction.Weighted>
   9.000000E+99

> <Gold.Protein.RotatedTorsions>
[ 6907 6896 6895 6894 ] final   10.39 input  -60.11 | X-H torsion
[ 7974 7965 7964 7962 ] final   17.86 input  175.53 | X-H torsion
[ 8008 7997 7996 7995 ] final   36.89 input   59.86 | X-H torsion
[ 10167 10162 10161 10158 ] final   99.20 input  -65.29 | X-H torsion
[ 10718 10713 10712 10709 ] final  169.49 input   66.30 | X-H torsion
[ 10763 10752 10751 10750 ] final  162.75 input  -60.55 | X-H torsion
[ 11005 11000 10999 10996 ] final  -53.28 input  -57.11 | X-H torsion

> <Gold.Protein.ActiveResidues>
 VAL166  LYS551  ARG553  GLY616  TRP617  ASP618  TYR619  PRO620  LYS621  CYS622 
 ASP623  PHE694  ASN695  SER759  ASP760  ASP761  ALA762  ILE779  LEU786  VAL792 
 PHE793  MET794  SER795  GLU796  ALA797  LYS798  CYS799  TRP800  GLU811  SER814 

> <Gold.Protein.RotatedAtoms>
  151.7375  135.0861  160.0309 H   0  0  0  0  0  0  0  0  0  0  0  0  # atno 6907 bound_to 6896
  152.3501  133.6165  159.5947 H   0  0  0  0  0  0  0  0  0  0  0  0  # atno 6908 bound_to 6896
  150.7534  133.9504  159.3525 H   0  0  0  0  0  0  0  0  0  0  0  0  # atno 6909 bound_to 6896
  146.2204  139.8540  142.8617 H   0  0  0  0  0  0  0  0  0  0  0  0  # atno 7974 bound_to 7965
  155.1949  140.3311  155.4352 H   0  0  0  0  0  0  0  0  0  0  0  0  # atno 8008 bound_to 7997
  156.2429  140.1904  156.6989 H   0  0  0  0  0  0  0  0  0  0  0  0  # atno 8009 bound_to 7997
  154.6181  140.0599  156.9566 H   0  0  0  0  0  0  0  0  0  0  0  0  # atno 8010 bound_to 7997
  139.7639  144.6945  151.0253 H   0  0  0  0  0  0  0  0  0  0  0  0  # atno 10167 bound_to 10162
  157.0218  131.0234  151.2772 H   0  0  0  0  0  0  0  0  0  0  0  0  # atno 10718 bound_to 10713
  154.2831  135.2763  155.2688 H   0  0  0  0  0  0  0  0  0  0  0  0  # atno 10763 bound_to 10752
  154.5200  135.5759  153.6676 H   0  0  0  0  0  0  0  0  0  0  0  0  # atno 10764 bound_to 10752
  152.9926  135.6202  154.2992 H   0  0  0  0  0  0  0  0  0  0  0  0  # atno 10765 bound_to 10752
  141.0968  133.6623  156.4148 H   0  0  0  0  0  0  0  0  0  0  0  0  # atno 11005 bound_to 11000
  145.2772  141.0127  143.3738 LP  0  0  0  0  0  0  0  0  0  0  0  0  # atno 17320 bound_to 7965
  144.9178  139.4449  143.6556 LP  0  0  0  0  0  0  0  0  0  0  0  0  # atno 17321 bound_to 7965
  140.7809  143.4665  151.0204 LP  0  0  0  0  0  0  0  0  0  0  0  0  # atno 17342 bound_to 10162
  139.8351  143.7639  152.3180 LP  0  0  0  0  0  0  0  0  0  0  0  0  # atno 17343 bound_to 10162
  157.5243  130.8018  149.7845 LP  0  0  0  0  0  0  0  0  0  0  0  0  # atno 17370 bound_to 10713
  156.0099  130.3838  150.2299 LP  0  0  0  0  0  0  0  0  0  0  0  0  # atno 17371 bound_to 10713
  140.5121  134.6385  157.5288 LP  0  0  0  0  0  0  0  0  0  0  0  0  # atno 17394 bound_to 11000
  139.9807  134.7142  155.9866 LP  0  0  0  0  0  0  0  0  0  0  0  0  # atno 17395 bound_to 11000

$$$$
