AV-unprocessed.smi:100|AV-procd|sdf|912|dock3
  -GOLD-   2262017413D 1   1.00000     0.00000
 Structure written by MMmdl.
 31 33  0  0  0  0  0  0  0  0  1 V2000
  151.1536  137.6404  153.4489 N   0  0  0  0  0  0  0  0  0  0  0  0
  151.1358  137.7353  154.7859 C   0  0  0  0  0  0  0  0  0  0  0  0
  151.1313  136.5929  155.5108 N   0  0  0  0  0  0  0  0  0  0  0  0
  151.1056  136.6614  156.8452 C   0  0  0  0  0  0  0  0  0  0  0  0
  151.0860  137.7451  157.6254 N   0  0  0  0  0  0  0  0  0  0  0  0
  151.0990  138.9005  156.8955 C   0  0  0  0  0  0  0  0  0  0  0  0
  151.1165  138.9752  155.4739 C   0  0  0  0  0  0  0  0  0  0  0  0
  151.1018  140.3014  155.0679 N   0  0  0  0  0  0  0  0  0  0  0  0
  151.0707  140.9699  156.1886 C   0  0  0  0  0  0  0  0  0  0  0  0
  151.0988  140.2114  157.3412 N   0  0  0  0  0  0  0  0  0  0  0  0
  151.0378  140.7116  158.7603 C   0  0  1  0  0  0  0  0  0  0  0  0
  152.0331  140.0879  159.5140 O   0  0  0  0  0  0  0  0  0  0  0  0
  153.2052  140.8883  159.4845 C   0  0  2  0  0  0  0  0  0  0  0  0
  154.1690  140.4498  160.5968 C   0  0  0  0  0  0  0  0  0  0  0  0
  155.4789  140.8993  160.3235 O   0  0  0  0  0  0  0  0  0  0  0  0
  152.6126  142.2850  159.6559 C   0  0  1  0  0  0  0  0  0  0  0  0
  153.4394  143.2384  159.2250 F   0  0  0  0  0  0  0  0  0  0  0  0
  151.3462  142.2251  158.8111 C   0  0  2  0  0  0  0  0  0  0  0  0
  150.3096  142.9710  159.4155 O   0  0  0  0  0  0  0  0  0  0  0  0
  151.1537  138.4787  152.8857 H   0  0  0  0  0  0  0  0  0  0  0  0
  151.1649  136.7322  153.0081 H   0  0  0  0  0  0  0  0  0  0  0  0
  151.1002  135.7133  157.3623 H   0  0  0  0  0  0  0  0  0  0  0  0
  151.0289  142.0495  156.2040 H   0  0  0  0  0  0  0  0  0  0  0  0
  150.0404  140.4314  159.1014 H   0  0  0  0  0  0  0  0  0  0  0  0
  153.6769  140.7858  158.5050 H   0  0  0  0  0  0  0  0  0  0  0  0
  153.8469  140.8293  161.5668 H   0  0  0  0  0  0  0  0  0  0  0  0
  154.1871  139.3618  160.6659 H   0  0  0  0  0  0  0  0  0  0  0  0
  156.0579  140.1525  160.3183 H   0  0  0  0  0  0  0  0  0  0  0  0
  152.3851  142.4782  160.7056 H   0  0  0  0  0  0  0  0  0  0  0  0
  151.5443  142.6127  157.8112 H   0  0  0  0  0  0  0  0  0  0  0  0
  149.4912  142.5245  159.2601 H   0  0  0  0  0  0  0  0  0  0  0  0
  1  2  1  0  0  0  0
  1 20  1  0  0  0  0
  1 21  1  0  0  0  0
  2  7  1  0  0  0  0
  2  3  2  0  0  0  0
  3  4  1  0  0  0  0
  4  5  2  0  0  0  0
  4 22  1  0  0  0  0
  5  6  1  0  0  0  0
  6 10  1  0  0  0  0
  6  7  2  0  0  0  0
  7  8  1  0  0  0  0
  8  9  2  0  0  0  0
  9 10  1  0  0  0  0
  9 23  1  0  0  0  0
 10 11  1  0  0  0  0
 11 18  1  0  0  0  0
 11 12  1  0  0  0  0
 11 24  1  0  0  0  0
 12 13  1  0  0  0  0
 13 14  1  0  0  0  0
 13 16  1  0  0  0  0
 13 25  1  0  0  0  0
 14 15  1  0  0  0  0
 14 26  1  0  0  0  0
 14 27  1  0  0  0  0
 15 28  1  0  0  0  0
 16 17  1  0  0  0  0
 16 18  1  0  0  0  0
 16 29  1  0  0  0  0
 18 19  1  0  0  0  0
 18 30  1  0  0  0  0
 19 31  1  0  0  0  0
M  END
> <s_m_source_file>
AV-unprocessed.smi

> <i_m_source_file_index>
100

> <i_lp_mmshare_version>
43012

> <i_f3d_flags>
0

> <s_epik_input>
bjFbY0hdbmMoW05IMl0pYyhjMTIpbltjSF1uMltDQEBIXTNPW0NAQEhdKFtDSDJdW09IXSlbQ0BIXShGKVtDQEhdM1tPSF0=

> <s_epik_cmdline>
J2VwaWtfcHl0aG9uJywgJy1waCcsICc3LjAnLCAnLXRuJywgJzgnLCAnLW1hJywgJzIwMCcsICctbWV0YWxfYmluZGluZycsICctaW1hZScsICc8aW5maWxlLm1hZT4nLCAnLW9tYWUnLCAnPG91dGZpbGUubWFlPic=

> <r_lp_tautomer_probability>
1

> <r_epik_Ionization_Penalty>
0.000750324

> <r_epik_Ionization_Penalty_Charging>
0

> <r_epik_Ionization_Penalty_Neutral>
0.000750324

> <r_epik_State_Penalty>
-0

> <r_epik_Charging_Adjusted_Penalty>
0

> <i_epik_Tot_Q>
0

> <i_epik_Tot_abs_Q>
0

> <r_epik_Metal_State_Penalty>
-0

> <b_epik_Metal_Only>
0

> <s_epik_Chemistry_Notes>
This compound contains an acetal/aminal-like group ( X-CH(R)-Y where X, Y are N, S, or O) that may be acid/base labile, releasing an aldehyde.

> <s_lp_Force_Field>
OPLS_2005

> <r_lp_Energy>
30.8526

> <b_lp_Chiralities_Consistent>
1

> <s_lp_Variant>
AV-unprocessed.smi:100-16

> <Gold.Version>
5.8.1

> <Gold.Id.Protein>
6NUR|6NUR_protein|mol2

> <Gold.PLP.Fitness>
38.4535

> <Gold.PLP.PLP>
-31.2547

> <Gold.PLP.part.hbond>
-5.3694

> <Gold.PLP.part.metal>
0.0000

> <Gold.PLP.part.buried>
-2.3346

> <Gold.PLP.part.nonpolar>
-23.1146

> <Gold.PLP.part.repulsive>
0.2406

> <Gold.PLP.ligand.clash>
0.0000

> <Gold.PLP.ligand.torsion>
0.5056

> <Gold.PLP.Chemscore.Hbond>
2.7200

> <Gold.PLP.Chemscore.CHOScore>
0.0000

> <Gold.PLP.Chemscore.Metal>
0.0000

> <Gold.Chemscore.Hbonds>
donor molecule, donor type, donor heavy atom, donor atom, acceptor molecule, acceptor atom, score
      L1  H     1    21       P1  7949  0.85
      P1  H  7989  7998       L1     8  1.00
      P1  H 10752 10765       L1     3  0.26

> <Gold.PLP.Chemscore.Internal.Correction>
0.0500

> <Gold.Rescore>
     Score         DG    S(hbond)    S(metal)    S(lipo)     H(rot)  DE(clash)    DE(int)     intcor
      8.25      -8.81       2.04        0.00      39.93       3.19       0.04       0.53       ----

> <Gold.Chemscore.Fitness>
8.2524

> <Gold.Chemscore.DG>
-8.8133

> <Gold.Chemscore.ZeroCoef>
-5.4800

> <Gold.Chemscore.Hbond>
2.0442

> <Gold.Chemscore.Metal>
0.0000

> <Gold.Chemscore.Lipo>
39.9337

> <Gold.Chemscore.Internal_Hbond>
0.0000

> <Gold.Chemscore.DEClash>
0.0356

> <Gold.Chemscore.DEInternal>
0.5253

> <Gold.Chemscore.Rot>
3.1901

> <Gold.Chemscore.Internal.Correction>
   9.000000E+99

> <Gold.Chemscore.Hbonds>
donor molecule, donor type, donor heavy atom, donor atom, acceptor molecule, acceptor atom, score
      L1  H     1    21       P1  7949  0.42
      P1  H  7989  7998       L1     8  0.98
      P1  H 10752 10765       L1     3  0.07

> <Gold.Chemscore.Hbond.Weighted>
-6.8277

> <Gold.Chemscore.Metal.Weighted>
-0.0000

> <Gold.Chemscore.Lipo.Weighted>
-4.6722

> <Gold.Chemscore.Internal_Hbond.Weighted>
0.0000

> <Gold.Chemscore.DEClash.Weighted>
0.0356

> <Gold.Chemscore.DEInternal.Weighted>
0.5253

> <Gold.Chemscore.Rot.Weighted>
8.1667

> <Gold.Chemscore.Internal.Correction.Weighted>
   9.000000E+99

> <Gold.Protein.RotatedTorsions>
[ 6907 6896 6895 6894 ] final    4.01 input  -60.11 | X-H torsion
[ 7974 7965 7964 7962 ] final   30.69 input  175.53 | X-H torsion
[ 8008 7997 7996 7995 ] final  -43.01 input   59.86 | X-H torsion
[ 10167 10162 10161 10158 ] final -145.12 input  -65.29 | X-H torsion
[ 10718 10713 10712 10709 ] final  -56.81 input   66.30 | X-H torsion
[ 10763 10752 10751 10750 ] final -151.59 input  -60.55 | X-H torsion
[ 11005 11000 10999 10996 ] final  -44.07 input  -57.11 | X-H torsion

> <Gold.Protein.ActiveResidues>
 VAL166  LYS551  ARG553  GLY616  TRP617  ASP618  TYR619  PRO620  LYS621  CYS622 
 ASP623  PHE694  ASN695  SER759  ASP760  ASP761  ALA762  ILE779  LEU786  VAL792 
 PHE793  MET794  SER795  GLU796  ALA797  LYS798  CYS799  TRP800  GLU811  SER814 

> <Gold.Protein.RotatedAtoms>
  151.6344  135.1019  160.0128 H   0  0  0  0  0  0  0  0  0  0  0  0  # atno 6907 bound_to 6896
  152.4089  133.6928  159.6389 H   0  0  0  0  0  0  0  0  0  0  0  0  # atno 6908 bound_to 6896
  150.7981  133.8577  159.3264 H   0  0  0  0  0  0  0  0  0  0  0  0  # atno 6909 bound_to 6896
  146.1596  139.6755  142.9042 H   0  0  0  0  0  0  0  0  0  0  0  0  # atno 7974 bound_to 7965
  154.3997  140.1458  156.3449 H   0  0  0  0  0  0  0  0  0  0  0  0  # atno 8008 bound_to 7997
  155.8322  140.3465  155.5558 H   0  0  0  0  0  0  0  0  0  0  0  0  # atno 8009 bound_to 7997
  155.8176  140.0893  157.1858 H   0  0  0  0  0  0  0  0  0  0  0  0  # atno 8010 bound_to 7997
  139.7835  143.8067  152.2642 H   0  0  0  0  0  0  0  0  0  0  0  0  # atno 10167 bound_to 10162
  156.1259  130.4162  150.0356 H   0  0  0  0  0  0  0  0  0  0  0  0  # atno 10718 bound_to 10713
  154.8048  135.3256  154.7458 H   0  0  0  0  0  0  0  0  0  0  0  0  # atno 10763 bound_to 10752
  153.8119  135.6895  153.4844 H   0  0  0  0  0  0  0  0  0  0  0  0  # atno 10764 bound_to 10752
  153.1787  135.4595  154.9943 H   0  0  0  0  0  0  0  0  0  0  0  0  # atno 10765 bound_to 10752
  141.0426  133.6774  156.2821 H   0  0  0  0  0  0  0  0  0  0  0  0  # atno 11005 bound_to 11000
  145.4621  141.0433  143.2746 LP  0  0  0  0  0  0  0  0  0  0  0  0  # atno 17320 bound_to 7965
  144.8009  139.6142  143.7072 LP  0  0  0  0  0  0  0  0  0  0  0  0  # atno 17321 bound_to 7965
  139.8136  144.7325  150.9664 LP  0  0  0  0  0  0  0  0  0  0  0  0  # atno 17342 bound_to 10162
  140.7819  143.4226  151.0817 LP  0  0  0  0  0  0  0  0  0  0  0  0  # atno 17343 bound_to 10162
  156.8281  130.9383  151.3638 LP  0  0  0  0  0  0  0  0  0  0  0  0  # atno 17370 bound_to 10713
  157.6441  130.8829  149.9504 LP  0  0  0  0  0  0  0  0  0  0  0  0  # atno 17371 bound_to 10713
  140.6206  134.5365  157.5547 LP  0  0  0  0  0  0  0  0  0  0  0  0  # atno 17394 bound_to 11000
  139.9287  134.8005  156.0993 LP  0  0  0  0  0  0  0  0  0  0  0  0  # atno 17395 bound_to 11000

$$$$
