AV-unprocessed.smi:2060|AV-procd|sdf|8355|dock7
  -GOLD-   2272011 23D 1   1.00000     0.00000
 Structure written by MMmdl.
 45 46  0  0  0  0  0  0  0  0  1 V2000
  149.7824  133.4172  156.3852 C   0  0  0  0  0  0  0  0  0  0  0  0
  150.2211  134.6641  155.5956 C   0  0  0  0  0  0  0  0  0  0  0  0
  149.4485  135.9808  155.9259 C   0  0  2  0  0  0  0  0  0  0  0  0
  149.5999  136.2059  157.4548 C   0  0  0  0  0  0  0  0  0  0  0  0
  147.9322  135.7648  155.6139 C   0  0  0  0  0  0  0  0  0  0  0  0
  147.6594  135.3851  154.2273 N   0  0  0  0  0  0  0  0  0  0  0  0
  146.7631  134.4706  153.8282 C   0  0  0  0  0  0  0  0  0  0  0  0
  146.0448  133.8364  154.6017 O   0  0  0  0  0  0  0  0  0  0  0  0
  146.7531  134.3507  152.4897 N   0  0  0  0  0  0  0  0  0  0  0  0
  145.9445  133.4892  151.7054 C   0  0  0  0  0  0  0  0  0  0  0  0
  145.3433  133.9483  150.5034 C   0  0  0  0  0  0  0  0  0  0  0  0
  144.6676  132.8476  150.0569 C   0  0  0  0  0  0  0  0  0  0  0  0
  143.8179  132.5971  148.8584 C   0  0  0  0  0  0  0  0  0  0  0  0
  144.8425  131.8047  150.9134 O   0  0  0  0  0  0  0  0  0  0  0  0
  145.6614  132.2226  151.9691 N   0  0  0  0  0  0  0  0  0  0  0  0
  150.0148  137.1332  155.1684 N   0  0  0  0  0  0  0  0  0  0  0  0
  151.4098  137.4663  155.4809 C   0  0  0  0  0  0  0  0  0  0  0  0
  151.9601  138.5665  154.5569 C   0  0  0  0  0  0  0  0  0  0  0  0
  151.1368  139.7234  154.6427 O   0  0  0  0  0  0  0  0  0  0  0  0
  149.7842  139.4549  154.2934 C   0  0  0  0  0  0  0  0  0  0  0  0
  149.2179  138.3654  155.2192 C   0  0  0  0  0  0  0  0  0  0  0  0
  150.3759  132.5520  156.0893 H   0  0  0  0  0  0  0  0  0  0  0  0
  148.7372  133.1694  156.2035 H   0  0  0  0  0  0  0  0  0  0  0  0
  149.9149  133.5481  157.4591 H   0  0  0  0  0  0  0  0  0  0  0  0
  151.2923  134.8098  155.7347 H   0  0  0  0  0  0  0  0  0  0  0  0
  150.1160  134.4265  154.5369 H   0  0  0  0  0  0  0  0  0  0  0  0
  149.4173  135.2939  158.0240 H   0  0  0  0  0  0  0  0  0  0  0  0
  148.8947  136.9479  157.8294 H   0  0  0  0  0  0  0  0  0  0  0  0
  150.6015  136.5496  157.7141 H   0  0  0  0  0  0  0  0  0  0  0  0
  147.5284  134.9601  156.2269 H   0  0  0  0  0  0  0  0  0  0  0  0
  147.3515  136.6503  155.8731 H   0  0  0  0  0  0  0  0  0  0  0  0
  148.2001  135.8579  153.5180 H   0  0  0  0  0  0  0  0  0  0  0  0
  147.3934  134.9379  151.9759 H   0  0  0  0  0  0  0  0  0  0  0  0
  145.3970  134.9232  150.0420 H   0  0  0  0  0  0  0  0  0  0  0  0
  143.3992  133.5289  148.4777 H   0  0  0  0  0  0  0  0  0  0  0  0
  142.9899  131.9303  149.1001 H   0  0  0  0  0  0  0  0  0  0  0  0
  144.4020  132.1375  148.0610 H   0  0  0  0  0  0  0  0  0  0  0  0
  151.4973  137.8024  156.5138 H   0  0  0  0  0  0  0  0  0  0  0  0
  152.0523  136.5938  155.3757 H   0  0  0  0  0  0  0  0  0  0  0  0
  152.9768  138.8315  154.8473 H   0  0  0  0  0  0  0  0  0  0  0  0
  152.0026  138.2173  153.5240 H   0  0  0  0  0  0  0  0  0  0  0  0
  149.2031  140.3722  154.3886 H   0  0  0  0  0  0  0  0  0  0  0  0
  149.7237  139.1437  153.2492 H   0  0  0  0  0  0  0  0  0  0  0  0
  148.1875  138.1786  154.9232 H   0  0  0  0  0  0  0  0  0  0  0  0
  149.1890  138.7561  156.2362 H   0  0  0  0  0  0  0  0  0  0  0  0
  1  2  1  0  0  0  0
  1 22  1  0  0  0  0
  1 23  1  0  0  0  0
  1 24  1  0  0  0  0
  2  3  1  0  0  0  0
  2 25  1  0  0  0  0
  2 26  1  0  0  0  0
  3  4  1  0  0  0  0
  3  5  1  0  0  0  0
  3 16  1  0  0  0  0
  4 27  1  0  0  0  0
  4 28  1  0  0  0  0
  4 29  1  0  0  0  0
  5  6  1  0  0  0  0
  5 30  1  0  0  0  0
  5 31  1  0  0  0  0
  6  7  1  0  0  0  0
  6 32  1  0  0  0  0
  7  8  2  0  0  0  0
  7  9  1  0  0  0  0
  9 10  1  0  0  0  0
  9 33  1  0  0  0  0
 10 15  2  0  0  0  0
 10 11  1  0  0  0  0
 11 12  2  0  0  0  0
 11 34  1  0  0  0  0
 12 13  1  0  0  0  0
 12 14  1  0  0  0  0
 13 35  1  0  0  0  0
 13 36  1  0  0  0  0
 13 37  1  0  0  0  0
 14 15  1  0  0  0  0
 16 21  1  0  0  0  0
 16 17  1  0  0  0  0
 17 18  1  0  0  0  0
 17 38  1  0  0  0  0
 17 39  1  0  0  0  0
 18 19  1  0  0  0  0
 18 40  1  0  0  0  0
 18 41  1  0  0  0  0
 19 20  1  0  0  0  0
 20 21  1  0  0  0  0
 20 42  1  0  0  0  0
 20 43  1  0  0  0  0
 21 44  1  0  0  0  0
 21 45  1  0  0  0  0
M  END
> <s_m_source_file>
AV-unprocessed.smi

> <i_m_source_file_index>
2060

> <i_lp_mmshare_version>
43012

> <i_f3d_flags>
0

> <s_epik_input>
W0NIMl0xW0NIMl1PW0NIMl1bQ0gyXU4xW0NAQF0oW0NIM10pKFtDSDJdW0NIM10pW0NIMl1bTkhdQyg9TylbTkhdYzJbY0hdYyhbQ0gzXSlvbjI=

> <s_epik_cmdline>
J2VwaWtfcHl0aG9uJywgJy1waCcsICc3LjAnLCAnLXRuJywgJzgnLCAnLW1hJywgJzIwMCcsICctbWV0YWxfYmluZGluZycsICctaW1hZScsICc8aW5maWxlLm1hZT4nLCAnLW9tYWUnLCAnPG91dGZpbGUubWFlPic=

> <r_epik_Ionization_Penalty>
0.289127

> <r_epik_Ionization_Penalty_Charging>
0

> <r_epik_Ionization_Penalty_Neutral>
0.289127

> <r_epik_State_Penalty>
0.282056

> <r_epik_Charging_Adjusted_Penalty>
0.282056

> <i_epik_Tot_Q>
0

> <i_epik_Tot_abs_Q>
0

> <r_epik_Metal_State_Penalty>
0.284526

> <b_epik_Metal_Only>
0

> <s_lp_Force_Field>
OPLS_2005

> <r_lp_Energy>
40.1787

> <b_lp_Chiralities_Consistent>
1

> <s_lp_Variant>
AV-unprocessed.smi:2060-2

> <Gold.Version>
5.8.1

> <Gold.Id.Protein>
6NUR|6NUR_protein|mol2

> <Gold.PLP.Fitness>
38.5226

> <Gold.PLP.PLP>
-30.6516

> <Gold.PLP.part.hbond>
-3.0000

> <Gold.PLP.part.metal>
0.0000

> <Gold.PLP.part.buried>
-5.6307

> <Gold.PLP.part.nonpolar>
-22.3176

> <Gold.PLP.part.repulsive>
0.5110

> <Gold.PLP.ligand.clash>
0.0000

> <Gold.PLP.ligand.torsion>
0.6175

> <Gold.PLP.Chemscore.Hbond>
3.0000

> <Gold.PLP.Chemscore.CHOScore>
0.0000

> <Gold.PLP.Chemscore.Metal>
0.0000

> <Gold.Chemscore.Hbonds>
donor molecule, donor type, donor heavy atom, donor atom, acceptor molecule, acceptor atom, score
      L1  H     6    32       P1  7948  1.00
      L1  H     9    33       P1  7948  1.00
      P1  H  7989  7998       L1    19  1.00

> <Gold.PLP.Chemscore.Internal.Correction>
0.1060

> <Gold.Rescore>
     Score         DG    S(hbond)    S(metal)    S(lipo)     H(rot)  DE(clash)    DE(int)     intcor
     16.52     -17.27       2.27        0.00      73.53       1.71       0.16       0.59       ----

> <Gold.Chemscore.Fitness>
16.5248

> <Gold.Chemscore.DG>
-17.2722

> <Gold.Chemscore.ZeroCoef>
-5.4800

> <Gold.Chemscore.Hbond>
2.2687

> <Gold.Chemscore.Metal>
0.0000

> <Gold.Chemscore.Lipo>
73.5337

> <Gold.Chemscore.Internal_Hbond>
0.0000

> <Gold.Chemscore.DEClash>
0.1582

> <Gold.Chemscore.DEInternal>
0.5893

> <Gold.Chemscore.Rot>
1.7143

> <Gold.Chemscore.Internal.Correction>
   9.000000E+99

> <Gold.Chemscore.Hbonds>
donor molecule, donor type, donor heavy atom, donor atom, acceptor molecule, acceptor atom, score
      L1  H     6    32       P1  7948  0.99
      L1  H     9    33       P1  7948  0.86
      P1  H  7989  7998       L1    19  0.31

> <Gold.Chemscore.Hbond.Weighted>
-7.5773

> <Gold.Chemscore.Metal.Weighted>
-0.0000

> <Gold.Chemscore.Lipo.Weighted>
-8.6034

> <Gold.Chemscore.Internal_Hbond.Weighted>
0.0000

> <Gold.Chemscore.DEClash.Weighted>
0.1582

> <Gold.Chemscore.DEInternal.Weighted>
0.5893

> <Gold.Chemscore.Rot.Weighted>
4.3885

> <Gold.Chemscore.Internal.Correction.Weighted>
   9.000000E+99

> <Gold.Protein.RotatedTorsions>
[ 6907 6896 6895 6894 ] final -154.06 input  -60.11 | X-H torsion
[ 7974 7965 7964 7962 ] final  114.72 input  175.53 | X-H torsion
[ 8008 7997 7996 7995 ] final  -12.19 input   59.86 | X-H torsion
[ 10167 10162 10161 10158 ] final  -34.33 input  -65.29 | X-H torsion
[ 10718 10713 10712 10709 ] final  125.34 input   66.30 | X-H torsion
[ 10763 10752 10751 10750 ] final   55.89 input  -60.55 | X-H torsion
[ 11005 11000 10999 10996 ] final   87.22 input  -57.11 | X-H torsion

> <Gold.Protein.ActiveResidues>
 VAL166  LYS551  ARG553  GLY616  TRP617  ASP618  TYR619  PRO620  LYS621  CYS622 
 ASP623  PHE694  ASN695  SER759  ASP760  ASP761  ALA762  ILE779  LEU786  VAL792 
 PHE793  MET794  SER795  GLU796  ALA797  LYS798  CYS799  TRP800  GLU811  SER814 

> <Gold.Protein.RotatedAtoms>
  151.2518  133.4346  159.2611 H   0  0  0  0  0  0  0  0  0  0  0  0  # atno 6907 bound_to 6896
  151.0610  134.9737  159.8271 H   0  0  0  0  0  0  0  0  0  0  0  0  # atno 6908 bound_to 6896
  152.5398  134.2468  159.8936 H   0  0  0  0  0  0  0  0  0  0  0  0  # atno 6909 bound_to 6896
  145.2009  139.2953  143.4319 H   0  0  0  0  0  0  0  0  0  0  0  0  # atno 7974 bound_to 7965
  154.5399  140.2282  155.8659 H   0  0  0  0  0  0  0  0  0  0  0  0  # atno 8008 bound_to 7997
  156.1848  140.3091  155.9179 H   0  0  0  0  0  0  0  0  0  0  0  0  # atno 8009 bound_to 7997
  155.3279  140.0444  157.3032 H   0  0  0  0  0  0  0  0  0  0  0  0  # atno 8010 bound_to 7997
  140.7187  143.3555  151.2067 H   0  0  0  0  0  0  0  0  0  0  0  0  # atno 10167 bound_to 10162
  157.5511  131.1094  150.8700 H   0  0  0  0  0  0  0  0  0  0  0  0  # atno 10718 bound_to 10713
  152.9823  135.5695  154.5140 H   0  0  0  0  0  0  0  0  0  0  0  0  # atno 10763 bound_to 10752
  154.4640  135.2782  155.1694 H   0  0  0  0  0  0  0  0  0  0  0  0  # atno 10764 bound_to 10752
  154.3270  135.6257  153.5587 H   0  0  0  0  0  0  0  0  0  0  0  0  # atno 10765 bound_to 10752
  139.8925  134.8408  156.2830 H   0  0  0  0  0  0  0  0  0  0  0  0  # atno 11005 bound_to 11000
  146.3418  140.2253  142.8592 LP  0  0  0  0  0  0  0  0  0  0  0  0  # atno 17320 bound_to 7965
  144.9949  140.8580  143.5317 LP  0  0  0  0  0  0  0  0  0  0  0  0  # atno 17321 bound_to 7965
  139.7096  143.9399  152.2941 LP  0  0  0  0  0  0  0  0  0  0  0  0  # atno 17342 bound_to 10162
  139.9119  144.6851  150.8553 LP  0  0  0  0  0  0  0  0  0  0  0  0  # atno 17343 bound_to 10162
  156.9225  130.5320  149.5279 LP  0  0  0  0  0  0  0  0  0  0  0  0  # atno 17370 bound_to 10713
  156.0577  130.5636  150.9128 LP  0  0  0  0  0  0  0  0  0  0  0  0  # atno 17371 bound_to 10713
  141.0026  133.7142  156.0984 LP  0  0  0  0  0  0  0  0  0  0  0  0  # atno 17394 bound_to 11000
  140.7477  134.4080  157.5546 LP  0  0  0  0  0  0  0  0  0  0  0  0  # atno 17395 bound_to 11000

$$$$
