AV-unprocessed.smi:743|AV-procd|sdf|3563|dock5
  -GOLD-   22720 0563D 1   1.00000     0.00000
 Structure written by MMmdl.
 29 30  0  0  0  0  0  0  0  0  2 V2000
  143.4894  132.5779  148.4062 C   0  0  0  0  0  0  0  0  0  0  0  0
  144.2866  132.6855  149.6093 N   0  0  0  0  0  0  0  0  0  0  0  0
  144.0009  133.3648  150.7732 C   0  0  0  0  0  0  0  0  0  0  0  0
  145.0478  133.1727  151.6342 C   0  0  0  0  0  0  0  0  0  0  0  0
  145.2450  133.6845  153.0472 C   0  0  1  0  0  0  0  0  0  0  0  0
  145.3220  132.5720  153.9978 N   0  0  0  0  0  0  0  0  0  0  0  0
  146.4435  132.0208  154.4990 C   0  0  0  0  0  0  0  0  0  0  0  0
  146.4024  131.0130  155.1999 O   0  0  0  0  0  0  0  0  0  0  0  0
  147.7988  132.6969  154.2307 C   0  0  0  0  0  0  0  0  0  0  0  0
  147.7711  133.7592  153.1166 C   0  0  0  0  0  0  0  0  0  0  0  0
  146.4876  134.5979  153.1829 C   0  0  1  0  0  0  0  0  0  0  0  0
  146.4974  135.6928  152.1949 N   0  3  0  0  0  0  0  0  0  0  0  0
  145.9410  132.3595  150.8772 C   0  0  0  0  0  0  0  0  0  0  0  0
  145.4810  132.0643  149.6735 N   0  0  0  0  0  0  0  0  0  0  0  0
  146.4539  135.0760  154.1632 H   0  0  0  0  0  0  0  0  0  0  0  0
  142.5493  133.1157  148.5307 H   0  0  0  0  0  0  0  0  0  0  0  0
  143.2726  131.5295  148.1987 H   0  0  0  0  0  0  0  0  0  0  0  0
  144.0333  133.0057  147.5634 H   0  0  0  0  0  0  0  0  0  0  0  0
  143.0813  133.9189  150.8946 H   0  0  0  0  0  0  0  0  0  0  0  0
  144.3713  134.2686  153.3390 H   0  0  0  0  0  0  0  0  0  0  0  0
  144.4471  132.1262  154.2352 H   0  0  0  0  0  0  0  0  0  0  0  0
  148.1106  133.1666  155.1639 H   0  0  0  0  0  0  0  0  0  0  0  0
  148.5473  131.9371  154.0038 H   0  0  0  0  0  0  0  0  0  0  0  0
  148.6451  134.4040  153.2131 H   0  0  0  0  0  0  0  0  0  0  0  0
  147.8579  133.2745  152.1431 H   0  0  0  0  0  0  0  0  0  0  0  0
  145.8998  136.4406  152.5177 H   0  0  0  0  0  0  0  0  0  0  0  0
  146.1577  135.3501  151.3075 H   0  0  0  0  0  0  0  0  0  0  0  0
  146.9050  131.9708  151.1707 H   0  0  0  0  0  0  0  0  0  0  0  0
  147.4394  136.0396  152.0831 H   0  0  0  0  0  0  0  0  0  0  0  0
  1  2  1  0  0  0  0
  1 16  1  0  0  0  0
  1 17  1  0  0  0  0
  1 18  1  0  0  0  0
  2 14  1  0  0  0  0
  2  3  1  0  0  0  0
  3  4  2  0  0  0  0
  3 19  1  0  0  0  0
  4  5  1  0  0  0  0
  4 13  1  0  0  0  0
  5 11  1  0  0  0  0
  5  6  1  0  0  0  0
  5 20  1  0  0  0  0
  6  7  1  0  0  0  0
  6 21  1  0  0  0  0
  7  8  2  0  0  0  0
  7  9  1  0  0  0  0
  9 10  1  0  0  0  0
  9 22  1  0  0  0  0
  9 23  1  0  0  0  0
 10 11  1  0  0  0  0
 10 24  1  0  0  0  0
 10 25  1  0  0  0  0
 11 15  1  0  0  0  0
 11 12  1  0  0  0  0
 12 26  1  0  0  0  0
 12 27  1  0  0  0  0
 12 29  1  0  0  0  0
 13 14  2  0  0  0  0
 13 28  1  0  0  0  0
M  CHG  1  12   1
M  END
> <s_m_source_file>
AV-unprocessed.smi

> <i_m_source_file_index>
743

> <i_lp_mmshare_version>
43012

> <i_f3d_flags>
0

> <s_epik_input>
W0NIM11uMVtjSF1jKFtjSF1uMSlbQ0BASF0yW05IXUMoPU8pW0NIMl1bQ0gyXVtDQEBIXTJbTkgyXQ==

> <s_epik_cmdline>
J2VwaWtfcHl0aG9uJywgJy1waCcsICc3LjAnLCAnLXRuJywgJzgnLCAnLW1hJywgJzIwMCcsICctbWV0YWxfYmluZGluZycsICctaW1hZScsICc8aW5maWxlLm1hZT4nLCAnLW9tYWUnLCAnPG91dGZpbGUubWFlPic=

> <r_lp_tautomer_probability>
1

> <r_epik_Ionization_Penalty>
0.00878543

> <r_epik_Ionization_Penalty_Charging>
0.00874185

> <r_epik_Ionization_Penalty_Neutral>
4.35793e-05

> <r_epik_State_Penalty>
0.00660351

> <r_epik_Charging_Adjusted_Penalty>
0.0153454

> <i_epik_Tot_Q>
1

> <i_epik_Tot_abs_Q>
1

> <r_epik_Metal_State_Penalty>
0.00660727

> <b_epik_Metal_Only>
0

> <s_lp_Force_Field>
OPLS_2005

> <r_lp_Energy>
11.1602

> <b_lp_Chiralities_Consistent>
1

> <s_lp_Variant>
AV-unprocessed.smi:743-4

> <Gold.Version>
5.8.1

> <Gold.Id.Protein>
6NUR|6NUR_protein|mol2

> <Gold.PLP.Fitness>
36.1105

> <Gold.PLP.PLP>
-21.1131

> <Gold.PLP.part.hbond>
-1.9610

> <Gold.PLP.part.metal>
0.0000

> <Gold.PLP.part.buried>
-1.7097

> <Gold.PLP.part.nonpolar>
-18.3558

> <Gold.PLP.part.repulsive>
0.3281

> <Gold.PLP.ligand.clash>
0.0000

> <Gold.PLP.ligand.torsion>
0.0106

> <Gold.PLP.Chemscore.Hbond>
3.0000

> <Gold.PLP.Chemscore.CHOScore>
2.0000

> <Gold.PLP.Chemscore.Metal>
0.0000

> <Gold.Chemscore.Hbonds>
donor molecule, donor type, donor heavy atom, donor atom, acceptor molecule, acceptor atom, score
      L1  H     6    21       P1 10957  0.95
      L1  H    12    29       P1  7948  1.95
      L1  C     3    19       P1 10186  1.00
      L1  C    13    28       P1 10747  1.00

> <Gold.PLP.Chemscore.Internal.Correction>
0.0187

> <Gold.Rescore>
     Score         DG    S(hbond)    S(metal)    S(lipo)     H(rot)  DE(clash)    DE(int)     intcor
     14.50     -14.53       1.95        0.00      43.63       1.00       0.00       0.02       ----

> <Gold.Chemscore.Fitness>
14.5022

> <Gold.Chemscore.DG>
-14.5254

> <Gold.Chemscore.ZeroCoef>
-5.4800

> <Gold.Chemscore.Hbond>
1.9464

> <Gold.Chemscore.Metal>
0.0000

> <Gold.Chemscore.Lipo>
43.6270

> <Gold.Chemscore.Internal_Hbond>
0.0000

> <Gold.Chemscore.DEClash>
0.0015

> <Gold.Chemscore.DEInternal>
0.0218

> <Gold.Chemscore.Rot>
1.0000

> <Gold.Chemscore.Internal.Correction>
   9.000000E+99

> <Gold.Chemscore.Hbonds>
donor molecule, donor type, donor heavy atom, donor atom, acceptor molecule, acceptor atom, score
      L1  H     6    21       P1 10957  0.22
      L1  H    12    29       P1  7948  0.91

> <Gold.Chemscore.Hbond.Weighted>
-6.5011

> <Gold.Chemscore.Metal.Weighted>
-0.0000

> <Gold.Chemscore.Lipo.Weighted>
-5.1044

> <Gold.Chemscore.Internal_Hbond.Weighted>
0.0000

> <Gold.Chemscore.DEClash.Weighted>
0.0015

> <Gold.Chemscore.DEInternal.Weighted>
0.0218

> <Gold.Chemscore.Rot.Weighted>
2.5600

> <Gold.Chemscore.Internal.Correction.Weighted>
   9.000000E+99

> <Gold.Protein.RotatedTorsions>
[ 6907 6896 6895 6894 ] final -159.80 input  -60.11 | X-H torsion
[ 7974 7965 7964 7962 ] final  -62.91 input  175.53 | X-H torsion
[ 8008 7997 7996 7995 ] final    7.19 input   59.86 | X-H torsion
[ 10167 10162 10161 10158 ] final -130.90 input  -65.29 | X-H torsion
[ 10718 10713 10712 10709 ] final   28.69 input   66.30 | X-H torsion
[ 10763 10752 10751 10750 ] final  112.87 input  -60.55 | X-H torsion
[ 11005 11000 10999 10996 ] final  117.00 input  -57.11 | X-H torsion

> <Gold.Protein.ActiveResidues>
 VAL166  LYS551  ARG553  GLY616  TRP617  ASP618  TYR619  PRO620  LYS621  CYS622 
 ASP623  PHE694  ASN695  SER759  ASP760  ASP761  ALA762  ILE779  LEU786  VAL792 
 PHE793  MET794  SER795  GLU796  ALA797  LYS798  CYS799  TRP800  GLU811  SER814 

> <Gold.Protein.RotatedAtoms>
  151.3391  133.3969  159.2669 H   0  0  0  0  0  0  0  0  0  0  0  0  # atno 6907 bound_to 6896
  150.9892  134.9232  159.7900 H   0  0  0  0  0  0  0  0  0  0  0  0  # atno 6908 bound_to 6896
  152.5242  134.3356  159.9251 H   0  0  0  0  0  0  0  0  0  0  0  0  # atno 6909 bound_to 6896
  145.7856  140.8738  143.0308 H   0  0  0  0  0  0  0  0  0  0  0  0  # atno 7974 bound_to 7965
  154.7506  140.2766  155.6296 H   0  0  0  0  0  0  0  0  0  0  0  0  # atno 8008 bound_to 7997
  156.2895  140.2679  156.2185 H   0  0  0  0  0  0  0  0  0  0  0  0  # atno 8009 bound_to 7997
  155.0142  140.0372  157.2401 H   0  0  0  0  0  0  0  0  0  0  0  0  # atno 8010 bound_to 7997
  139.9245  143.6343  152.2545 H   0  0  0  0  0  0  0  0  0  0  0  0  # atno 10167 bound_to 10162
  157.2368  130.7050  149.6339 H   0  0  0  0  0  0  0  0  0  0  0  0  # atno 10718 bound_to 10713
  153.4842  135.3673  155.2458 H   0  0  0  0  0  0  0  0  0  0  0  0  # atno 10763 bound_to 10752
  154.8754  135.3961  154.3664 H   0  0  0  0  0  0  0  0  0  0  0  0  # atno 10764 bound_to 10752
  153.4273  135.7081  153.6319 H   0  0  0  0  0  0  0  0  0  0  0  0  # atno 10765 bound_to 10752
  139.9060  134.9605  156.7284 H   0  0  0  0  0  0  0  0  0  0  0  0  # atno 11005 bound_to 11000
  144.6789  140.0050  143.7484 LP  0  0  0  0  0  0  0  0  0  0  0  0  # atno 17320 bound_to 7965
  146.0030  139.3106  143.0916 LP  0  0  0  0  0  0  0  0  0  0  0  0  # atno 17321 bound_to 7965
  139.6833  144.7653  151.1568 LP  0  0  0  0  0  0  0  0  0  0  0  0  # atno 17342 bound_to 10162
  140.7653  143.5693  150.9013 LP  0  0  0  0  0  0  0  0  0  0  0  0  # atno 17343 bound_to 10162
  155.9672  130.4471  150.5566 LP  0  0  0  0  0  0  0  0  0  0  0  0  # atno 17370 bound_to 10713
  157.3420  131.0718  151.1780 LP  0  0  0  0  0  0  0  0  0  0  0  0  # atno 17371 bound_to 10713
  140.6945  133.9361  155.7986 LP  0  0  0  0  0  0  0  0  0  0  0  0  # atno 17394 bound_to 11000
  141.0417  134.0611  157.3893 LP  0  0  0  0  0  0  0  0  0  0  0  0  # atno 17395 bound_to 11000

$$$$
