AV-unprocessed.smi:1|AV-procd|sdf|4|dock5
  -GOLD-   2262015 83D 1   1.00000     0.00000
 Structure written by MMmdl.
 57 62  0  0  0  0  0  0  0  0  1 V2000
  152.9256  140.0510  158.2465 O   0  0  0  0  0  0  0  0  0  0  0  0
  152.1965  140.9045  157.7400 C   0  0  0  0  0  0  0  0  0  0  0  0
  151.2518  140.5866  156.6837 N   0  0  0  0  0  0  0  0  0  0  0  0
  151.0530  139.3977  156.0678 C   0  0  0  0  0  0  0  0  0  0  0  0
  151.3135  139.2065  154.7478 N   0  0  0  0  0  0  0  0  0  0  0  0
  151.1083  138.0107  154.1885 C   0  0  0  0  0  0  0  0  0  0  0  0
  150.6588  136.8906  154.7576 N   0  0  0  0  0  0  0  0  0  0  0  0
  150.3907  137.0731  156.0825 C   0  0  0  0  0  0  0  0  0  0  0  0
  150.5589  138.2889  156.8032 C   0  0  0  0  0  0  0  0  0  0  0  0
  150.1849  138.1062  158.1276 N   0  0  0  0  0  0  0  0  0  0  0  0
  149.8192  136.8539  158.1823 C   0  0  0  0  0  0  0  0  0  0  0  0
  149.9210  136.1542  157.0001 N   0  0  0  0  0  0  0  0  0  0  0  0
  149.5748  134.7188  156.7666 C   0  0  1  0  0  0  0  0  0  0  0  0
  149.2258  134.1248  157.9819 O   0  0  0  0  0  0  0  0  0  0  0  0
  147.8735  133.6751  157.9537 C   0  0  2  0  0  0  0  0  0  0  0  0
  147.6912  132.4256  158.8229 C   0  0  0  0  0  0  0  0  0  0  0  0
  146.3179  132.0742  158.8451 O   0  0  0  0  0  0  0  0  0  0  0  0
  145.8243  131.3465  159.8649 C   0  0  0  0  0  0  0  0  0  0  0  0
  146.4892  131.0085  160.8465 O   0  0  0  0  0  0  0  0  0  0  0  0
  144.3877  130.9901  159.6808 C   0  0  0  0  0  0  0  0  0  0  0  0
  143.7471  130.1758  160.6439 C   0  0  0  0  0  0  0  0  0  0  0  0
  142.3919  129.8215  160.4966 C   0  0  0  0  0  0  0  0  0  0  0  0
  141.6607  130.2774  159.3843 C   0  0  0  0  0  0  0  0  0  0  0  0
  142.2862  131.0882  158.4193 C   0  0  0  0  0  0  0  0  0  0  0  0
  143.6414  131.4438  158.5647 C   0  0  0  0  0  0  0  0  0  0  0  0
  147.5787  133.4609  156.4701 C   0  0  2  0  0  0  0  0  0  0  0  0
  148.0763  132.2117  156.0186 O   0  0  0  0  0  0  0  0  0  0  0  0
  148.8192  132.4437  154.5405 S   0  0  0  0  0  0  0  0  0  0  0  0
  150.2099  131.9769  154.6471 O   0  0  0  0  0  0  0  0  0  0  0  0
  147.9053  131.9806  153.4856 O   0  0  0  0  0  0  0  0  0  0  0  0
  148.8250  134.1150  154.5305 O   0  0  0  0  0  0  0  0  0  0  0  0
  148.3907  134.5713  155.7994 C   0  0  2  0  0  0  0  0  0  0  0  0
  152.1755  142.3208  158.2370 C   0  0  0  0  0  0  0  0  0  0  0  0
  151.4513  143.3071  157.5303 C   0  0  0  0  0  0  0  0  0  0  0  0
  151.4156  144.6361  157.9957 C   0  0  0  0  0  0  0  0  0  0  0  0
  152.0972  144.9885  159.1758 C   0  0  0  0  0  0  0  0  0  0  0  0
  152.8108  144.0098  159.8931 C   0  0  0  0  0  0  0  0  0  0  0  0
  152.8473  142.6804  159.4286 C   0  0  0  0  0  0  0  0  0  0  0  0
  150.6756  141.3509  156.3629 H   0  0  0  0  0  0  0  0  0  0  0  0
  151.3399  137.9410  153.1359 H   0  0  0  0  0  0  0  0  0  0  0  0
  149.4665  136.4010  159.0978 H   0  0  0  0  0  0  0  0  0  0  0  0
  150.4956  134.2654  156.3974 H   0  0  0  0  0  0  0  0  0  0  0  0
  147.2277  134.4725  158.3209 H   0  0  0  0  0  0  0  0  0  0  0  0
  148.2602  131.5954  158.4020 H   0  0  0  0  0  0  0  0  0  0  0  0
  148.0616  132.6027  159.8337 H   0  0  0  0  0  0  0  0  0  0  0  0
  144.2885  129.8138  161.5063 H   0  0  0  0  0  0  0  0  0  0  0  0
  141.9136  129.1988  161.2382 H   0  0  0  0  0  0  0  0  0  0  0  0
  140.6215  130.0056  159.2716 H   0  0  0  0  0  0  0  0  0  0  0  0
  141.7260  131.4392  157.5651 H   0  0  0  0  0  0  0  0  0  0  0  0
  144.0904  132.0680  157.8059 H   0  0  0  0  0  0  0  0  0  0  0  0
  146.5145  133.5252  156.2415 H   0  0  0  0  0  0  0  0  0  0  0  0
  147.8187  135.4967  155.7274 H   0  0  0  0  0  0  0  0  0  0  0  0
  150.9223  143.0528  156.6230 H   0  0  0  0  0  0  0  0  0  0  0  0
  150.8642  145.3851  157.4466 H   0  0  0  0  0  0  0  0  0  0  0  0
  152.0698  146.0074  159.5325 H   0  0  0  0  0  0  0  0  0  0  0  0
  153.3289  144.2780  160.8020 H   0  0  0  0  0  0  0  0  0  0  0  0
  153.3935  141.9436  159.9996 H   0  0  0  0  0  0  0  0  0  0  0  0
  1  2  2  0  0  0  0
  2  3  1  0  0  0  0
  2 33  1  0  0  0  0
  3  4  1  0  0  0  0
  3 39  1  0  0  0  0
  4  9  1  0  0  0  0
  4  5  2  0  0  0  0
  5  6  1  0  0  0  0
  6  7  2  0  0  0  0
  6 40  1  0  0  0  0
  7  8  1  0  0  0  0
  8 12  1  0  0  0  0
  8  9  2  0  0  0  0
  9 10  1  0  0  0  0
 10 11  2  0  0  0  0
 11 12  1  0  0  0  0
 11 41  1  0  0  0  0
 12 13  1  0  0  0  0
 13 32  1  0  0  0  0
 13 14  1  0  0  0  0
 13 42  1  0  0  0  0
 14 15  1  0  0  0  0
 15 16  1  0  0  0  0
 15 26  1  0  0  0  0
 15 43  1  0  0  0  0
 16 17  1  0  0  0  0
 16 44  1  0  0  0  0
 16 45  1  0  0  0  0
 17 18  1  0  0  0  0
 18 19  2  0  0  0  0
 18 20  1  0  0  0  0
 20 25  1  0  0  0  0
 20 21  2  0  0  0  0
 21 22  1  0  0  0  0
 21 46  1  0  0  0  0
 22 23  2  0  0  0  0
 22 47  1  0  0  0  0
 23 24  1  0  0  0  0
 23 48  1  0  0  0  0
 24 25  2  0  0  0  0
 24 49  1  0  0  0  0
 25 50  1  0  0  0  0
 26 32  1  0  0  0  0
 26 27  1  0  0  0  0
 26 51  1  0  0  0  0
 27 28  1  0  0  0  0
 28 29  2  0  0  0  0
 28 30  2  0  0  0  0
 28 31  1  0  0  0  0
 31 32  1  0  0  0  0
 32 52  1  0  0  0  0
 33 38  1  0  0  0  0
 33 34  2  0  0  0  0
 34 35  1  0  0  0  0
 34 53  1  0  0  0  0
 35 36  2  0  0  0  0
 35 54  1  0  0  0  0
 36 37  1  0  0  0  0
 36 55  1  0  0  0  0
 37 38  2  0  0  0  0
 37 56  1  0  0  0  0
 38 57  1  0  0  0  0
M  END
> <s_m_source_file>
AV-unprocessed.smi

> <i_m_source_file_index>
1

> <i_lp_mmshare_version>
43012

> <i_f3d_flags>
0

> <s_epik_input>
W2NIXTFbY0hdW2NIXVtjSF1bY0hdYzFDKD1PKVtOSF1jKG5bY0hdbjIpYyhjMjMpbltjSF1uM1tDQEBIXShbQ0BIXShbQ0BIXTQ1KU9TKE81KSg9Tyk9TylPW0NASF00W0NIMl1PQyg9TyljNltjSF1bY0hdW2NIXVtjSF1bY0hdNg==

> <s_epik_cmdline>
J2VwaWtfcHl0aG9uJywgJy1waCcsICc3LjAnLCAnLXRuJywgJzgnLCAnLW1hJywgJzIwMCcsICctbWV0YWxfYmluZGluZycsICctaW1hZScsICc8aW5maWxlLm1hZT4nLCAnLW9tYWUnLCAnPG91dGZpbGUubWFlPic=

> <r_lp_tautomer_probability>
1

> <r_epik_Ionization_Penalty>
0.00195722

> <r_epik_Ionization_Penalty_Charging>
0

> <r_epik_Ionization_Penalty_Neutral>
0.00195722

> <r_epik_State_Penalty>
0.00633741

> <r_epik_Charging_Adjusted_Penalty>
0.00633741

> <i_epik_Tot_Q>
0

> <i_epik_Tot_abs_Q>
0

> <r_epik_Metal_State_Penalty>
0.341185

> <b_epik_Metal_Only>
0

> <s_epik_Chemistry_Notes>
This compound has an ester and may undergo hydrolysis at high or low pH. This compound contains an acetal/aminal-like group ( X-CH(R)-Y where X, Y are N, S, or O) that may be acid/base labile, releasing an aldehyde.

> <s_lp_Force_Field>
OPLS_2005

> <r_lp_Energy>
46.3459

> <b_lp_Chiralities_Consistent>
1

> <s_lp_Variant>
AV-unprocessed.smi:1-4

> <Gold.Version>
5.8.1

> <Gold.Id.Protein>
6NUR|6NUR_protein|mol2

> <Gold.PLP.Fitness>
57.3166

> <Gold.PLP.PLP>
-47.1467

> <Gold.PLP.part.hbond>
-2.9117

> <Gold.PLP.part.metal>
0.0000

> <Gold.PLP.part.buried>
-9.0652

> <Gold.PLP.part.nonpolar>
-33.8962

> <Gold.PLP.part.repulsive>
0.6234

> <Gold.PLP.ligand.clash>
0.0000

> <Gold.PLP.ligand.torsion>
0.8684

> <Gold.PLP.Chemscore.Hbond>
2.9013

> <Gold.PLP.Chemscore.CHOScore>
0.9963

> <Gold.PLP.Chemscore.Metal>
0.0000

> <Gold.Chemscore.Hbonds>
donor molecule, donor type, donor heavy atom, donor atom, acceptor molecule, acceptor atom, score
      P1  H  6896  6907       L1    14  1.00
      P1  H  7989  7998       L1     5  0.83
      P1  H  7997  8010       L1     1  0.93
      L1  C     6    40       P1  7949  0.94

> <Gold.PLP.Chemscore.Internal.Correction>
0.2140

> <Gold.Rescore>
     Score         DG    S(hbond)    S(metal)    S(lipo)     H(rot)  DE(clash)    DE(int)     intcor
     20.74     -21.57       2.65        0.00     108.66       2.13       0.02       0.81       ----

> <Gold.Chemscore.Fitness>
20.7400

> <Gold.Chemscore.DG>
-21.5712

> <Gold.Chemscore.ZeroCoef>
-5.4800

> <Gold.Chemscore.Hbond>
2.6465

> <Gold.Chemscore.Metal>
0.0000

> <Gold.Chemscore.Lipo>
108.6609

> <Gold.Chemscore.Internal_Hbond>
0.0000

> <Gold.Chemscore.DEClash>
0.0222

> <Gold.Chemscore.DEInternal>
0.8090

> <Gold.Chemscore.Rot>
2.1333

> <Gold.Chemscore.Internal.Correction>
   9.000000E+99

> <Gold.Chemscore.Hbonds>
donor molecule, donor type, donor heavy atom, donor atom, acceptor molecule, acceptor atom, score
      P1  H  6896  6907       L1    14  0.88
      P1  H  7989  7998       L1     5  0.77
      P1  H  7997  8010       L1     1  0.30

> <Gold.Chemscore.Hbond.Weighted>
-8.8393

> <Gold.Chemscore.Metal.Weighted>
-0.0000

> <Gold.Chemscore.Lipo.Weighted>
-12.7133

> <Gold.Chemscore.Internal_Hbond.Weighted>
0.0000

> <Gold.Chemscore.DEClash.Weighted>
0.0222

> <Gold.Chemscore.DEInternal.Weighted>
0.8090

> <Gold.Chemscore.Rot.Weighted>
5.4614

> <Gold.Chemscore.Internal.Correction.Weighted>
   9.000000E+99

> <Gold.Protein.RotatedTorsions>
[ 6907 6896 6895 6894 ] final -104.94 input  -60.11 | X-H torsion
[ 7974 7965 7964 7962 ] final  -22.72 input  175.53 | X-H torsion
[ 8008 7997 7996 7995 ] final   40.20 input   59.86 | X-H torsion
[ 10167 10162 10161 10158 ] final   63.98 input  -65.29 | X-H torsion
[ 10718 10713 10712 10709 ] final   39.67 input   66.30 | X-H torsion
[ 10763 10752 10751 10750 ] final  -84.36 input  -60.55 | X-H torsion
[ 11005 11000 10999 10996 ] final  165.13 input  -57.11 | X-H torsion

> <Gold.Protein.ActiveResidues>
 VAL166  LYS551  ARG553  GLY616  TRP617  ASP618  TYR619  PRO620  LYS621  CYS622 
 ASP623  PHE694  ASN695  SER759  ASP760  ASP761  ALA762  ILE779  LEU786  VAL792 
 PHE793  MET794  SER795  GLU796  ALA797  LYS798  CYS799  TRP800  GLU811  SER814 

> <Gold.Protein.RotatedAtoms>
  150.7312  134.0201  159.3698 H   0  0  0  0  0  0  0  0  0  0  0  0  # atno 6907 bound_to 6896
  151.8166  135.0662  160.0429 H   0  0  0  0  0  0  0  0  0  0  0  0  # atno 6908 bound_to 6896
  152.3034  133.5642  159.5670 H   0  0  0  0  0  0  0  0  0  0  0  0  # atno 6909 bound_to 6896
  146.1659  140.4518  142.8552 H   0  0  0  0  0  0  0  0  0  0  0  0  # atno 7974 bound_to 7965
  155.2491  140.3351  155.4284 H   0  0  0  0  0  0  0  0  0  0  0  0  # atno 8008 bound_to 7997
  156.2223  140.1814  156.7491 H   0  0  0  0  0  0  0  0  0  0  0  0  # atno 8009 bound_to 7997
  154.5844  140.0648  156.9136 H   0  0  0  0  0  0  0  0  0  0  0  0  # atno 8010 bound_to 7997
  140.1272  144.4677  150.6886 H   0  0  0  0  0  0  0  0  0  0  0  0  # atno 10167 bound_to 10162
  157.3733  130.7713  149.7136 H   0  0  0  0  0  0  0  0  0  0  0  0  # atno 10718 bound_to 10713
  154.5986  135.5523  153.7351 H   0  0  0  0  0  0  0  0  0  0  0  0  # atno 10763 bound_to 10752
  153.0145  135.6361  154.1746 H   0  0  0  0  0  0  0  0  0  0  0  0  # atno 10764 bound_to 10752
  154.1686  135.2893  155.3067 H   0  0  0  0  0  0  0  0  0  0  0  0  # atno 10765 bound_to 10752
  140.2530  134.7962  157.3520 H   0  0  0  0  0  0  0  0  0  0  0  0  # atno 11005 bound_to 11000
  144.8092  140.6354  143.6427 LP  0  0  0  0  0  0  0  0  0  0  0  0  # atno 17320 bound_to 7965
  145.4469  139.1528  143.3940 LP  0  0  0  0  0  0  0  0  0  0  0  0  # atno 17321 bound_to 7965
  140.6838  143.2340  151.5314 LP  0  0  0  0  0  0  0  0  0  0  0  0  # atno 17342 bound_to 10162
  139.5538  144.2327  152.1577 LP  0  0  0  0  0  0  0  0  0  0  0  0  # atno 17343 bound_to 10162
  155.9760  130.4081  150.3810 LP  0  0  0  0  0  0  0  0  0  0  0  0  # atno 17370 bound_to 10713
  157.1904  131.0414  151.2703 LP  0  0  0  0  0  0  0  0  0  0  0  0  # atno 17371 bound_to 10713
  140.1539  134.4814  155.7942 LP  0  0  0  0  0  0  0  0  0  0  0  0  # atno 17394 bound_to 11000
  141.2199  133.6873  156.7427 LP  0  0  0  0  0  0  0  0  0  0  0  0  # atno 17395 bound_to 11000

$$$$
