AV-unprocessed.smi:3254|AV-procd|sdf|12454|dock6
  -GOLD-   2272018353D 1   1.00000     0.00000
 Structure written by MMmdl.
 37 38  0  0  0  0  0  0  0  0  2 V2000
  151.9292  145.3636  159.1287 C   0  0  0  0  0  0  0  0  0  0  0  0
  151.8666  144.7604  160.5388 C   0  0  0  0  0  0  0  0  0  0  0  0
  152.5480  143.4700  160.6053 N   0  0  0  0  0  0  0  0  0  0  0  0
  153.4008  143.0245  159.5157 C   0  0  0  0  0  0  0  0  0  0  0  0
  153.7842  141.5671  159.8535 C   0  0  2  0  0  0  0  0  0  0  0  0
  153.1403  140.5560  158.8917 C   0  0  0  0  0  0  0  0  0  0  0  0
  153.6778  139.4676  158.6831 O   0  0  0  0  0  0  0  0  0  0  0  0
  151.9859  140.9261  158.3161 N   0  0  0  0  0  0  0  0  0  0  0  0
  151.2236  140.1101  157.3789 C   0  0  0  0  0  0  0  0  0  0  0  0
  151.0969  140.7934  156.0070 C   0  0  0  0  0  0  0  0  0  0  0  0
  149.9090  140.3378  155.2841 N   0  0  0  0  0  0  0  0  0  0  0  0
  148.8347  141.0957  154.8946 C   0  0  0  0  0  0  0  0  0  0  0  0
  147.9691  140.2461  154.2550 C   0  0  0  0  0  0  0  0  0  0  0  0
  148.5511  139.0068  154.2823 N   0  3  0  0  0  0  0  0  0  0  0  0
  149.7309  139.0646  154.9090 C   0  0  0  0  0  0  0  0  0  0  0  0
  153.3079  141.3506  161.3039 C   0  0  0  0  0  0  0  0  0  0  0  0
  152.4853  142.5906  161.6109 C   0  0  0  0  0  0  0  0  0  0  0  0
  151.8508  142.7267  162.6558 O   0  0  0  0  0  0  0  0  0  0  0  0
  151.3978  146.3145  159.0912 H   0  0  0  0  0  0  0  0  0  0  0  0
  151.4714  144.6984  158.3959 H   0  0  0  0  0  0  0  0  0  0  0  0
  152.9580  145.5482  158.8183 H   0  0  0  0  0  0  0  0  0  0  0  0
  152.3161  145.4462  161.2585 H   0  0  0  0  0  0  0  0  0  0  0  0
  150.8253  144.6393  160.8396 H   0  0  0  0  0  0  0  0  0  0  0  0
  152.8819  143.1189  158.5600 H   0  0  0  0  0  0  0  0  0  0  0  0
  154.2878  143.6577  159.4711 H   0  0  0  0  0  0  0  0  0  0  0  0
  154.8694  141.4601  159.8065 H   0  0  0  0  0  0  0  0  0  0  0  0
  151.6139  141.8380  158.5395 H   0  0  0  0  0  0  0  0  0  0  0  0
  151.7313  139.1509  157.2723 H   0  0  0  0  0  0  0  0  0  0  0  0
  150.2368  139.8945  157.7930 H   0  0  0  0  0  0  0  0  0  0  0  0
  151.0196  141.8761  156.1145 H   0  0  0  0  0  0  0  0  0  0  0  0
  151.9749  140.5938  155.3906 H   0  0  0  0  0  0  0  0  0  0  0  0
  148.7679  142.1553  155.0968 H   0  0  0  0  0  0  0  0  0  0  0  0
  147.0079  140.4257  153.7955 H   0  0  0  0  0  0  0  0  0  0  0  0
  150.4050  138.2439  155.0785 H   0  0  0  0  0  0  0  0  0  0  0  0
  152.7058  140.4506  161.4401 H   0  0  0  0  0  0  0  0  0  0  0  0
  154.1525  141.2967  161.9915 H   0  0  0  0  0  0  0  0  0  0  0  0
  148.1488  138.1665  153.8860 H   0  0  0  0  0  0  0  0  0  0  0  0
  1  2  1  0  0  0  0
  1 19  1  0  0  0  0
  1 20  1  0  0  0  0
  1 21  1  0  0  0  0
  2  3  1  0  0  0  0
  2 22  1  0  0  0  0
  2 23  1  0  0  0  0
  3 17  1  0  0  0  0
  3  4  1  0  0  0  0
  4  5  1  0  0  0  0
  4 24  1  0  0  0  0
  4 25  1  0  0  0  0
  5  6  1  0  0  0  0
  5 16  1  0  0  0  0
  5 26  1  0  0  0  0
  6  7  2  0  0  0  0
  6  8  1  0  0  0  0
  8  9  1  0  0  0  0
  8 27  1  0  0  0  0
  9 10  1  0  0  0  0
  9 28  1  0  0  0  0
  9 29  1  0  0  0  0
 10 11  1  0  0  0  0
 10 30  1  0  0  0  0
 10 31  1  0  0  0  0
 11 15  1  0  0  0  0
 11 12  1  0  0  0  0
 12 13  2  0  0  0  0
 12 32  1  0  0  0  0
 13 14  1  0  0  0  0
 13 33  1  0  0  0  0
 14 15  2  0  0  0  0
 14 37  1  0  0  0  0
 15 34  1  0  0  0  0
 16 17  1  0  0  0  0
 16 35  1  0  0  0  0
 16 36  1  0  0  0  0
 17 18  2  0  0  0  0
M  CHG  1  14   1
M  END
> <s_m_source_file>
AV-unprocessed.smi

> <i_m_source_file_index>
3254

> <i_lp_mmshare_version>
43012

> <i_f3d_flags>
0

> <s_epik_input>
W0NIM11bQ0gyXU4xW0NIMl1bQ0BIXShbQ0gyXUMxPU8pQyg9TylbTkhdW0NIMl1bQ0gyXW4yW2NIXVtjSF1uW2NIXTI=

> <s_epik_cmdline>
J2VwaWtfcHl0aG9uJywgJy1waCcsICc3LjAnLCAnLXRuJywgJzgnLCAnLW1hJywgJzIwMCcsICctbWV0YWxfYmluZGluZycsICctaW1hZScsICc8aW5maWxlLm1hZT4nLCAnLW9tYWUnLCAnPG91dGZpbGUubWFlPic=

> <r_lp_tautomer_probability>
1

> <r_epik_Ionization_Penalty>
0.274742

> <r_epik_Ionization_Penalty_Charging>
0

> <r_epik_Ionization_Penalty_Neutral>
0.274742

> <r_epik_State_Penalty>
0.267046

> <r_epik_Charging_Adjusted_Penalty>
0.267046

> <i_epik_Tot_Q>
1

> <i_epik_Tot_abs_Q>
1

> <r_epik_Metal_State_Penalty>
0.550456

> <b_epik_Metal_Only>
0

> <s_lp_Force_Field>
OPLS_2005

> <r_lp_Energy>
15.3275

> <b_lp_Chiralities_Consistent>
1

> <s_lp_Variant>
AV-unprocessed.smi:3254-2

> <Gold.Version>
5.8.1

> <Gold.Id.Protein>
6NUR|6NUR_protein|mol2

> <Gold.PLP.Fitness>
47.2193

> <Gold.PLP.PLP>
-40.2569

> <Gold.PLP.part.hbond>
-2.7531

> <Gold.PLP.part.metal>
0.0000

> <Gold.PLP.part.buried>
-2.9991

> <Gold.PLP.part.nonpolar>
-38.1058

> <Gold.PLP.part.repulsive>
3.8085

> <Gold.PLP.ligand.clash>
0.0000

> <Gold.PLP.ligand.torsion>
1.0204

> <Gold.PLP.Chemscore.Hbond>
1.9913

> <Gold.PLP.Chemscore.CHOScore>
1.0000

> <Gold.PLP.Chemscore.Metal>
0.0000

> <Gold.Chemscore.Hbonds>
donor molecule, donor type, donor heavy atom, donor atom, acceptor molecule, acceptor atom, score
      P1  H  6933  6945       L1    18  0.88
      P1  H  7997  8008       L1     7  0.95
      L1  C    12    32       P1  8028  0.78

> <Gold.PLP.Chemscore.Internal.Correction>
0.0295

> <Gold.Rescore>
     Score         DG    S(hbond)    S(metal)    S(lipo)     H(rot)  DE(clash)    DE(int)     intcor
     14.82     -17.59       2.48        0.00      82.51       2.28       1.89       0.88       ----

> <Gold.Chemscore.Fitness>
14.8152

> <Gold.Chemscore.DG>
-17.5873

> <Gold.Chemscore.ZeroCoef>
-5.4800

> <Gold.Chemscore.Hbond>
2.4803

> <Gold.Chemscore.Metal>
0.0000

> <Gold.Chemscore.Lipo>
82.5099

> <Gold.Chemscore.Internal_Hbond>
0.0000

> <Gold.Chemscore.DEClash>
1.8895

> <Gold.Chemscore.DEInternal>
0.8826

> <Gold.Chemscore.Rot>
2.2776

> <Gold.Chemscore.Internal.Correction>
   9.000000E+99

> <Gold.Chemscore.Hbonds>
donor molecule, donor type, donor heavy atom, donor atom, acceptor molecule, acceptor atom, score
      P1  H  6933  6945       L1    18  0.38
      P1  H  7997  8008       L1     7  0.21

> <Gold.Chemscore.Hbond.Weighted>
-8.2844

> <Gold.Chemscore.Metal.Weighted>
-0.0000

> <Gold.Chemscore.Lipo.Weighted>
-9.6537

> <Gold.Chemscore.Internal_Hbond.Weighted>
0.0000

> <Gold.Chemscore.DEClash.Weighted>
1.8895

> <Gold.Chemscore.DEInternal.Weighted>
0.8826

> <Gold.Chemscore.Rot.Weighted>
5.8307

> <Gold.Chemscore.Internal.Correction.Weighted>
   9.000000E+99

> <Gold.Protein.RotatedTorsions>
[ 6907 6896 6895 6894 ] final  -38.76 input  -60.11 | X-H torsion
[ 7974 7965 7964 7962 ] final  -67.02 input  175.53 | X-H torsion
[ 8008 7997 7996 7995 ] final -113.59 input   59.86 | X-H torsion
[ 10167 10162 10161 10158 ] final -145.17 input  -65.29 | X-H torsion
[ 10718 10713 10712 10709 ] final  127.01 input   66.30 | X-H torsion
[ 10763 10752 10751 10750 ] final  -55.54 input  -60.55 | X-H torsion
[ 11005 11000 10999 10996 ] final   29.25 input  -57.11 | X-H torsion

> <Gold.Protein.ActiveResidues>
 VAL166  LYS551  ARG553  GLY616  TRP617  ASP618  TYR619  PRO620  LYS621  CYS622 
 ASP623  PHE694  ASN695  SER759  ASP760  ASP761  ALA762  ILE779  LEU786  VAL792 
 PHE793  MET794  SER795  GLU796  ALA797  LYS798  CYS799  TRP800  GLU811  SER814 

> <Gold.Protein.RotatedAtoms>
  150.9985  134.9303  159.7940 H   0  0  0  0  0  0  0  0  0  0  0  0  # atno 6907 bound_to 6896
  152.5271  134.3186  159.9150 H   0  0  0  0  0  0  0  0  0  0  0  0  # atno 6908 bound_to 6896
  151.3191  133.4006  159.2687 H   0  0  0  0  0  0  0  0  0  0  0  0  # atno 6909 bound_to 6896
  145.7344  140.8982  143.0563 H   0  0  0  0  0  0  0  0  0  0  0  0  # atno 7974 bound_to 7965
  155.0231  140.0393  157.2445 H   0  0  0  0  0  0  0  0  0  0  0  0  # atno 8008 bound_to 7997
  154.7361  140.2740  155.6390 H   0  0  0  0  0  0  0  0  0  0  0  0  # atno 8009 bound_to 7997
  156.2853  140.2674  156.2075 H   0  0  0  0  0  0  0  0  0  0  0  0  # atno 8010 bound_to 7997
  139.7830  143.8073  152.2641 H   0  0  0  0  0  0  0  0  0  0  0  0  # atno 10167 bound_to 10162
  157.5370  131.1097  150.8920 H   0  0  0  0  0  0  0  0  0  0  0  0  # atno 10718 bound_to 10713
  154.1924  135.6425  153.5064 H   0  0  0  0  0  0  0  0  0  0  0  0  # atno 10763 bound_to 10752
  153.0032  135.5432  154.6401 H   0  0  0  0  0  0  0  0  0  0  0  0  # atno 10764 bound_to 10752
  154.5793  135.2924  155.0722 H   0  0  0  0  0  0  0  0  0  0  0  0  # atno 10765 bound_to 10752
  140.3069  134.2693  155.7742 H   0  0  0  0  0  0  0  0  0  0  0  0  # atno 11005 bound_to 11000
  144.6885  139.9375  143.7474 LP  0  0  0  0  0  0  0  0  0  0  0  0  # atno 17320 bound_to 7965
  146.0507  139.3508  143.0641 LP  0  0  0  0  0  0  0  0  0  0  0  0  # atno 17321 bound_to 7965
  139.8142  144.7323  150.9657 LP  0  0  0  0  0  0  0  0  0  0  0  0  # atno 17342 bound_to 10162
  140.7819  143.4221  151.0825 LP  0  0  0  0  0  0  0  0  0  0  0  0  # atno 17343 bound_to 10162
  156.9484  130.5410  149.5282 LP  0  0  0  0  0  0  0  0  0  0  0  0  # atno 17370 bound_to 10713
  156.0466  130.5542  150.8895 LP  0  0  0  0  0  0  0  0  0  0  0  0  # atno 17371 bound_to 10713
  141.2116  133.7683  156.9850 LP  0  0  0  0  0  0  0  0  0  0  0  0  # atno 17394 bound_to 11000
  140.1059  134.9507  157.1993 LP  0  0  0  0  0  0  0  0  0  0  0  0  # atno 17395 bound_to 11000

$$$$
