AV-unprocessed.smi:1402|AV-procd|sdf|5696|dock3
  -GOLD-   22720 5323D 1   1.00000     0.00000
 Structure written by MMmdl.
 44 45  0  0  0  0  0  0  0  0  1 V2000
  145.8796  129.5575  151.9419 C   0  0  0  0  0  0  0  0  0  0  0  0
  145.7903  131.0316  151.6797 C   0  0  0  0  0  0  0  0  0  0  0  0
  146.5982  132.0709  152.2253 C   0  0  0  0  0  0  0  0  0  0  0  0
  146.0692  133.1958  151.6537 C   0  0  0  0  0  0  0  0  0  0  0  0
  146.4544  134.4899  151.8130 N   0  0  0  0  0  0  0  0  0  0  0  0
  145.6906  135.5613  152.0880 C   0  0  0  0  0  0  0  0  0  0  0  0
  144.4757  135.5378  152.2876 O   0  0  0  0  0  0  0  0  0  0  0  0
  146.4215  136.6853  152.1028 N   0  0  0  0  0  0  0  0  0  0  0  0
  145.8813  138.0299  152.2685 C   0  0  0  0  0  0  0  0  0  0  0  0
  146.1555  138.5751  153.6856 C   0  0  0  0  0  0  0  0  0  0  0  0
  147.2687  139.5314  153.6975 N   0  0  0  0  0  0  0  0  0  0  0  0
  147.0639  140.7717  152.9334 C   0  0  0  0  0  0  0  0  0  0  0  0
  146.8934  142.0282  153.8185 C   0  0  0  0  0  0  0  0  0  0  0  0
  147.6428  142.0191  155.1659 C   0  0  0  0  0  0  0  0  0  0  0  0
  149.1456  141.6791  155.0760 C   0  0  0  0  0  0  0  0  0  0  0  0
  149.5142  140.3534  154.3671 C   0  0  0  0  0  0  0  0  0  0  0  0
  148.4058  139.2888  154.3947 C   0  0  0  0  0  0  0  0  0  0  0  0
  148.5868  138.2625  155.0501 O   0  0  0  0  0  0  0  0  0  0  0  0
  145.0337  132.8273  150.8214 N   0  0  0  0  0  0  0  0  0  0  0  0
  144.1616  133.6388  149.9942 C   0  0  0  0  0  0  0  0  0  0  0  0
  144.8635  131.4880  150.8447 N   0  0  0  0  0  0  0  0  0  0  0  0
  146.7087  129.3252  152.6106 H   0  0  0  0  0  0  0  0  0  0  0  0
  146.0338  129.0017  151.0169 H   0  0  0  0  0  0  0  0  0  0  0  0
  144.9658  129.1868  152.4064 H   0  0  0  0  0  0  0  0  0  0  0  0
  147.4218  131.9845  152.9180 H   0  0  0  0  0  0  0  0  0  0  0  0
  147.4322  134.6725  151.6418 H   0  0  0  0  0  0  0  0  0  0  0  0
  147.4145  136.6112  151.9365 H   0  0  0  0  0  0  0  0  0  0  0  0
  146.2411  138.7115  151.4952 H   0  0  0  0  0  0  0  0  0  0  0  0
  144.8039  137.9595  152.1169 H   0  0  0  0  0  0  0  0  0  0  0  0
  145.2566  139.0664  154.0607 H   0  0  0  0  0  0  0  0  0  0  0  0
  146.3346  137.7655  154.3962 H   0  0  0  0  0  0  0  0  0  0  0  0
  147.9026  140.9134  152.2516 H   0  0  0  0  0  0  0  0  0  0  0  0
  146.2019  140.6806  152.2715 H   0  0  0  0  0  0  0  0  0  0  0  0
  147.1889  142.9061  153.2428 H   0  0  0  0  0  0  0  0  0  0  0  0
  145.8321  142.1604  154.0309 H   0  0  0  0  0  0  0  0  0  0  0  0
  147.5301  142.9965  155.6359 H   0  0  0  0  0  0  0  0  0  0  0  0
  147.1528  141.3217  155.8468 H   0  0  0  0  0  0  0  0  0  0  0  0
  149.6635  142.4965  154.5732 H   0  0  0  0  0  0  0  0  0  0  0  0
  149.5499  141.6571  156.0886 H   0  0  0  0  0  0  0  0  0  0  0  0
  149.7918  140.5463  153.3311 H   0  0  0  0  0  0  0  0  0  0  0  0
  150.4154  139.9421  154.8239 H   0  0  0  0  0  0  0  0  0  0  0  0
  144.4431  134.6902  150.0515 H   0  0  0  0  0  0  0  0  0  0  0  0
  143.1311  133.5319  150.3341 H   0  0  0  0  0  0  0  0  0  0  0  0
  144.2305  133.3125  148.9562 H   0  0  0  0  0  0  0  0  0  0  0  0
  1  2  1  0  0  0  0
  1 22  1  0  0  0  0
  1 23  1  0  0  0  0
  1 24  1  0  0  0  0
  2 21  2  0  0  0  0
  2  3  1  0  0  0  0
  3  4  2  0  0  0  0
  3 25  1  0  0  0  0
  4  5  1  0  0  0  0
  4 19  1  0  0  0  0
  5  6  1  0  0  0  0
  5 26  1  0  0  0  0
  6  7  2  0  0  0  0
  6  8  1  0  0  0  0
  8  9  1  0  0  0  0
  8 27  1  0  0  0  0
  9 10  1  0  0  0  0
  9 28  1  0  0  0  0
  9 29  1  0  0  0  0
 10 11  1  0  0  0  0
 10 30  1  0  0  0  0
 10 31  1  0  0  0  0
 11 17  1  0  0  0  0
 11 12  1  0  0  0  0
 12 13  1  0  0  0  0
 12 32  1  0  0  0  0
 12 33  1  0  0  0  0
 13 14  1  0  0  0  0
 13 34  1  0  0  0  0
 13 35  1  0  0  0  0
 14 15  1  0  0  0  0
 14 36  1  0  0  0  0
 14 37  1  0  0  0  0
 15 16  1  0  0  0  0
 15 38  1  0  0  0  0
 15 39  1  0  0  0  0
 16 17  1  0  0  0  0
 16 40  1  0  0  0  0
 16 41  1  0  0  0  0
 17 18  2  0  0  0  0
 19 20  1  0  0  0  0
 19 21  1  0  0  0  0
 20 42  1  0  0  0  0
 20 43  1  0  0  0  0
 20 44  1  0  0  0  0
M  END
> <s_m_source_file>
AV-unprocessed.smi

> <i_m_source_file_index>
1402

> <i_lp_mmshare_version>
43012

> <i_f3d_flags>
0

> <s_epik_input>
W0NIM11jMVtjSF1jKG4objEpW0NIM10pW05IXUMoPU8pW05IXVtDSDJdW0NIMl1OMltDSDJdW0NIMl1bQ0gyXVtDSDJdW0NIMl1DMj1P

> <s_epik_cmdline>
J2VwaWtfcHl0aG9uJywgJy1waCcsICc3LjAnLCAnLXRuJywgJzgnLCAnLW1hJywgJzIwMCcsICctbWV0YWxfYmluZGluZycsICctaW1hZScsICc8aW5maWxlLm1hZT4nLCAnLW9tYWUnLCAnPG91dGZpbGUubWFlPic=

> <r_lp_tautomer_probability>
1

> <r_epik_Ionization_Penalty>
9.00432e-05

> <r_epik_Ionization_Penalty_Charging>
0

> <r_epik_Ionization_Penalty_Neutral>
9.00432e-05

> <r_epik_State_Penalty>
-0

> <r_epik_Charging_Adjusted_Penalty>
0

> <i_epik_Tot_Q>
0

> <i_epik_Tot_abs_Q>
0

> <r_epik_Metal_State_Penalty>
-0

> <b_epik_Metal_Only>
0

> <s_lp_Force_Field>
OPLS_2005

> <r_lp_Energy>
25.7606

> <b_lp_Chiralities_Consistent>
1

> <s_lp_Variant>
AV-unprocessed.smi:1402-1

> <Gold.Version>
5.8.1

> <Gold.Id.Protein>
6NUR|6NUR_protein|mol2

> <Gold.PLP.Fitness>
38.7274

> <Gold.PLP.PLP>
-35.4027

> <Gold.PLP.part.hbond>
-1.9485

> <Gold.PLP.part.metal>
0.0000

> <Gold.PLP.part.buried>
-0.5580

> <Gold.PLP.part.nonpolar>
-32.2925

> <Gold.PLP.part.repulsive>
0.4081

> <Gold.PLP.ligand.clash>
0.0000

> <Gold.PLP.ligand.torsion>
0.8404

> <Gold.PLP.Chemscore.Hbond>
1.6640

> <Gold.PLP.Chemscore.CHOScore>
0.0000

> <Gold.PLP.Chemscore.Metal>
0.0000

> <Gold.Chemscore.Hbonds>
donor molecule, donor type, donor heavy atom, donor atom, acceptor molecule, acceptor atom, score
      L1  H     5    26       P1  7948  0.65
      L1  H     8    27       P1  7948  1.00

> <Gold.PLP.Chemscore.Internal.Correction>
0.0134

> <Gold.Rescore>
     Score         DG    S(hbond)    S(metal)    S(lipo)     H(rot)  DE(clash)    DE(int)     intcor
     14.03     -15.08       1.22        0.00      80.84       1.54       0.11       0.95       ----

> <Gold.Chemscore.Fitness>
14.0260

> <Gold.Chemscore.DG>
-15.0832

> <Gold.Chemscore.ZeroCoef>
-5.4800

> <Gold.Chemscore.Hbond>
1.2241

> <Gold.Chemscore.Metal>
0.0000

> <Gold.Chemscore.Lipo>
80.8442

> <Gold.Chemscore.Internal_Hbond>
0.0000

> <Gold.Chemscore.DEClash>
0.1120

> <Gold.Chemscore.DEInternal>
0.9452

> <Gold.Chemscore.Rot>
1.5407

> <Gold.Chemscore.Internal.Correction>
   9.000000E+99

> <Gold.Chemscore.Hbonds>
donor molecule, donor type, donor heavy atom, donor atom, acceptor molecule, acceptor atom, score
      L1  H     5    26       P1  7948  0.31
      L1  H     8    27       P1  7948  0.97

> <Gold.Chemscore.Hbond.Weighted>
-4.0885

> <Gold.Chemscore.Metal.Weighted>
-0.0000

> <Gold.Chemscore.Lipo.Weighted>
-9.4588

> <Gold.Chemscore.Internal_Hbond.Weighted>
0.0000

> <Gold.Chemscore.DEClash.Weighted>
0.1120

> <Gold.Chemscore.DEInternal.Weighted>
0.9452

> <Gold.Chemscore.Rot.Weighted>
3.9441

> <Gold.Chemscore.Internal.Correction.Weighted>
   9.000000E+99

> <Gold.Protein.RotatedTorsions>
[ 6907 6896 6895 6894 ] final  179.12 input  -60.11 | X-H torsion
[ 7974 7965 7964 7962 ] final -174.94 input  175.53 | X-H torsion
[ 8008 7997 7996 7995 ] final    6.48 input   59.86 | X-H torsion
[ 10167 10162 10161 10158 ] final  -95.27 input  -65.29 | X-H torsion
[ 10718 10713 10712 10709 ] final  148.03 input   66.30 | X-H torsion
[ 10763 10752 10751 10750 ] final  151.96 input  -60.55 | X-H torsion
[ 11005 11000 10999 10996 ] final -131.20 input  -57.11 | X-H torsion

> <Gold.Protein.ActiveResidues>
 VAL166  LYS551  ARG553  GLY616  TRP617  ASP618  TYR619  PRO620  LYS621  CYS622 
 ASP623  PHE694  ASN695  SER759  ASP760  ASP761  ALA762  ILE779  LEU786  VAL792 
 PHE793  MET794  SER795  GLU796  ALA797  LYS798  CYS799  TRP800  GLU811  SER814 

> <Gold.Protein.RotatedAtoms>
  151.6767  133.3312  159.3209 H   0  0  0  0  0  0  0  0  0  0  0  0  # atno 6907 bound_to 6896
  150.7842  134.6816  159.6456 H   0  0  0  0  0  0  0  0  0  0  0  0  # atno 6908 bound_to 6896
  152.3907  134.6449  160.0160 H   0  0  0  0  0  0  0  0  0  0  0  0  # atno 6909 bound_to 6896
  144.7130  140.1395  143.6393 H   0  0  0  0  0  0  0  0  0  0  0  0  # atno 7974 bound_to 7965
  154.7416  140.2750  155.6368 H   0  0  0  0  0  0  0  0  0  0  0  0  # atno 8008 bound_to 7997
  156.2875  140.2696  156.2071 H   0  0  0  0  0  0  0  0  0  0  0  0  # atno 8009 bound_to 7997
  155.0251  140.0371  157.2442 H   0  0  0  0  0  0  0  0  0  0  0  0  # atno 8010 bound_to 7997
  140.3059  143.3134  152.0200 H   0  0  0  0  0  0  0  0  0  0  0  0  # atno 10167 bound_to 10162
  157.3137  131.0892  151.1296 H   0  0  0  0  0  0  0  0  0  0  0  0  # atno 10718 bound_to 10713
  154.1122  135.2838  155.3228 H   0  0  0  0  0  0  0  0  0  0  0  0  # atno 10763 bound_to 10752
  154.6481  135.5378  153.7872 H   0  0  0  0  0  0  0  0  0  0  0  0  # atno 10764 bound_to 10752
  153.0341  135.6503  154.1280 H   0  0  0  0  0  0  0  0  0  0  0  0  # atno 10765 bound_to 10752
  140.9279  134.1358  157.4259 H   0  0  0  0  0  0  0  0  0  0  0  0  # atno 11005 bound_to 11000
  145.9214  139.2548  143.1379 LP  0  0  0  0  0  0  0  0  0  0  0  0  # atno 17320 bound_to 7965
  145.9616  140.8831  143.0208 LP  0  0  0  0  0  0  0  0  0  0  0  0  # atno 17321 bound_to 7965
  139.4904  144.6421  151.6855 LP  0  0  0  0  0  0  0  0  0  0  0  0  # atno 17342 bound_to 10162
  140.5611  144.0267  150.6170 LP  0  0  0  0  0  0  0  0  0  0  0  0  # atno 17343 bound_to 10162
  157.2608  130.6658  149.5974 LP  0  0  0  0  0  0  0  0  0  0  0  0  # atno 17370 bound_to 10713
  155.9680  130.4509  150.5715 LP  0  0  0  0  0  0  0  0  0  0  0  0  # atno 17371 bound_to 10713
  139.8789  134.9995  156.5956 LP  0  0  0  0  0  0  0  0  0  0  0  0  # atno 17394 bound_to 11000
  140.7901  133.8589  155.8639 LP  0  0  0  0  0  0  0  0  0  0  0  0  # atno 17395 bound_to 11000

$$$$
