AV-unprocessed.smi:1153|AV-procd|sdf|4899|dock10
  -GOLD-   22720 3473D 1   1.00000     0.00000
 Structure written by MMmdl.
 26 27  0  0  0  0  0  0  0  0  1 V2000
  147.2170  143.5545  160.8091 O   0  0  0  0  0  0  0  0  0  0  0  0
  146.9539  143.7046  159.6150 C   0  0  0  0  0  0  0  0  0  0  0  0
  147.3982  142.6675  158.5767 C   0  0  0  0  0  0  0  0  0  0  0  0
  148.8289  142.7146  158.3218 N   0  0  0  0  0  0  0  0  0  0  0  0
  149.5578  142.0115  157.3863 C   0  0  0  0  0  0  0  0  0  0  0  0
  150.8635  142.3855  157.5241 C   0  0  0  0  0  0  0  0  0  0  0  0
  150.8421  143.3346  158.5873 C   0  0  0  0  0  0  0  0  0  0  0  0
  151.9971  144.0929  159.1867 C   0  0  0  0  0  0  0  0  0  0  0  0
  151.5449  144.9996  160.0529 F   0  0  0  0  0  0  0  0  0  0  0  0
  152.8155  143.2588  159.8280 F   0  0  0  0  0  0  0  0  0  0  0  0
  152.6829  144.7129  158.2264 F   0  0  0  0  0  0  0  0  0  0  0  0
  149.6179  143.5230  159.0618 N   0  0  0  0  0  0  0  0  0  0  0  0
  146.2709  144.7554  159.1371 N   0  0  0  0  0  0  0  0  0  0  0  0
  145.7606  145.8371  159.9157 C   0  0  0  0  0  0  0  0  0  0  0  0
  145.1177  146.9917  159.1782 C   0  0  0  0  0  0  0  0  0  0  0  0
  146.4686  147.1708  159.8135 C   0  0  0  0  0  0  0  0  0  0  0  0
  147.1219  141.6711  158.9245 H   0  0  0  0  0  0  0  0  0  0  0  0
  146.8780  142.8347  157.6326 H   0  0  0  0  0  0  0  0  0  0  0  0
  149.0910  141.3141  156.7064 H   0  0  0  0  0  0  0  0  0  0  0  0
  151.7087  142.0343  156.9511 H   0  0  0  0  0  0  0  0  0  0  0  0
  146.0976  144.7918  158.1431 H   0  0  0  0  0  0  0  0  0  0  0  0
  145.3354  145.5963  160.8890 H   0  0  0  0  0  0  0  0  0  0  0  0
  145.0763  146.9429  158.0916 H   0  0  0  0  0  0  0  0  0  0  0  0
  144.2698  147.4803  159.6542 H   0  0  0  0  0  0  0  0  0  0  0  0
  146.5233  147.7794  160.7140 H   0  0  0  0  0  0  0  0  0  0  0  0
  147.3293  147.2419  159.1510 H   0  0  0  0  0  0  0  0  0  0  0  0
  1  2  2  0  0  0  0
  2  3  1  0  0  0  0
  2 13  1  0  0  0  0
  3  4  1  0  0  0  0
  3 17  1  0  0  0  0
  3 18  1  0  0  0  0
  4 12  1  0  0  0  0
  4  5  1  0  0  0  0
  5  6  2  0  0  0  0
  5 19  1  0  0  0  0
  6  7  1  0  0  0  0
  6 20  1  0  0  0  0
  7  8  1  0  0  0  0
  7 12  2  0  0  0  0
  8  9  1  0  0  0  0
  8 10  1  0  0  0  0
  8 11  1  0  0  0  0
 13 14  1  0  0  0  0
 13 21  1  0  0  0  0
 14 16  1  0  0  0  0
 14 15  1  0  0  0  0
 14 22  1  0  0  0  0
 15 16  1  0  0  0  0
 15 23  1  0  0  0  0
 15 24  1  0  0  0  0
 16 25  1  0  0  0  0
 16 26  1  0  0  0  0
M  END
> <s_m_source_file>
AV-unprocessed.smi

> <i_m_source_file_index>
1153

> <i_lp_mmshare_version>
43012

> <i_f3d_flags>
0

> <s_epik_input>
W0NIMl0xW0NIMl1bQ0hdMVtOSF1DKD1PKVtDSDJdbjJbY0hdW2NIXWMobjIpQyhGKShGKUY=

> <s_epik_cmdline>
J2VwaWtfcHl0aG9uJywgJy1waCcsICc3LjAnLCAnLXRuJywgJzgnLCAnLW1hJywgJzIwMCcsICctbWV0YWxfYmluZGluZycsICctaW1hZScsICc8aW5maWxlLm1hZT4nLCAnLW9tYWUnLCAnPG91dGZpbGUubWFlPic=

> <r_lp_tautomer_probability>
1

> <r_epik_Ionization_Penalty>
7.21317e-08

> <r_epik_Ionization_Penalty_Charging>
0

> <r_epik_Ionization_Penalty_Neutral>
7.21317e-08

> <r_epik_State_Penalty>
-0

> <r_epik_Charging_Adjusted_Penalty>
0

> <i_epik_Tot_Q>
0

> <i_epik_Tot_abs_Q>
0

> <r_epik_Metal_State_Penalty>
-0

> <b_epik_Metal_Only>
0

> <s_lp_Force_Field>
OPLS_2005

> <r_lp_Energy>
18.4383

> <b_lp_Chiralities_Consistent>
1

> <s_lp_Variant>
AV-unprocessed.smi:1153-1

> <Gold.Version>
5.8.1

> <Gold.Id.Protein>
6NUR|6NUR_protein|mol2

> <Gold.PLP.Fitness>
37.9110

> <Gold.PLP.PLP>
-35.6226

> <Gold.PLP.part.hbond>
-2.0000

> <Gold.PLP.part.metal>
0.0000

> <Gold.PLP.part.buried>
-4.3916

> <Gold.PLP.part.nonpolar>
-29.2204

> <Gold.PLP.part.repulsive>
0.2081

> <Gold.PLP.ligand.clash>
0.0000

> <Gold.PLP.ligand.torsion>
0.4329

> <Gold.PLP.Chemscore.Hbond>
1.0382

> <Gold.PLP.Chemscore.CHOScore>
0.0000

> <Gold.PLP.Chemscore.Metal>
0.0000

> <Gold.Chemscore.Hbonds>
donor molecule, donor type, donor heavy atom, donor atom, acceptor molecule, acceptor atom, score
      L1  H    13    21       P1  8029  0.05
      P1  H  6933  6944       L1     1  1.00

> <Gold.PLP.Chemscore.Internal.Correction>
0.0394

> <Gold.Rescore>
     Score         DG    S(hbond)    S(metal)    S(lipo)     H(rot)  DE(clash)    DE(int)     intcor
     12.92     -14.09       2.04        0.00      51.12       1.64       0.05       1.11       ----

> <Gold.Chemscore.Fitness>
12.9225

> <Gold.Chemscore.DG>
-14.0900

> <Gold.Chemscore.ZeroCoef>
-5.4800

> <Gold.Chemscore.Hbond>
2.0419

> <Gold.Chemscore.Metal>
0.0000

> <Gold.Chemscore.Lipo>
51.1233

> <Gold.Chemscore.Internal_Hbond>
0.0000

> <Gold.Chemscore.DEClash>
0.0531

> <Gold.Chemscore.DEInternal>
1.1145

> <Gold.Chemscore.Rot>
1.6372

> <Gold.Chemscore.Internal.Correction>
   9.000000E+99

> <Gold.Chemscore.Hbonds>
donor molecule, donor type, donor heavy atom, donor atom, acceptor molecule, acceptor atom, score
      L1  H    13    21       P1  8029  0.04
      P1  H  6933  6944       L1     1  1.00

> <Gold.Chemscore.Hbond.Weighted>
-6.8199

> <Gold.Chemscore.Metal.Weighted>
-0.0000

> <Gold.Chemscore.Lipo.Weighted>
-5.9814

> <Gold.Chemscore.Internal_Hbond.Weighted>
0.0000

> <Gold.Chemscore.DEClash.Weighted>
0.0531

> <Gold.Chemscore.DEInternal.Weighted>
1.1145

> <Gold.Chemscore.Rot.Weighted>
4.1913

> <Gold.Chemscore.Internal.Correction.Weighted>
   9.000000E+99

> <Gold.Protein.RotatedTorsions>
[ 6907 6896 6895 6894 ] final   -5.70 input  -60.11 | X-H torsion
[ 7974 7965 7964 7962 ] final -155.09 input  175.53 | X-H torsion
[ 8008 7997 7996 7995 ] final  -71.48 input   59.86 | X-H torsion
[ 10167 10162 10161 10158 ] final  -60.76 input  -65.29 | X-H torsion
[ 10718 10713 10712 10709 ] final  126.20 input   66.30 | X-H torsion
[ 10763 10752 10751 10750 ] final  112.92 input  -60.55 | X-H torsion
[ 11005 11000 10999 10996 ] final  161.83 input  -57.11 | X-H torsion

> <Gold.Protein.ActiveResidues>
 VAL166  LYS551  ARG553  GLY616  TRP617  ASP618  TYR619  PRO620  LYS621  CYS622 
 ASP623  PHE694  ASN695  SER759  ASP760  ASP761  ALA762  ILE779  LEU786  VAL792 
 PHE793  MET794  SER795  GLU796  ALA797  LYS798  CYS799  TRP800  GLU811  SER814 

> <Gold.Protein.RotatedAtoms>
  151.4774  135.1050  159.9767 H   0  0  0  0  0  0  0  0  0  0  0  0  # atno 6907 bound_to 6896
  152.4793  133.8210  159.7064 H   0  0  0  0  0  0  0  0  0  0  0  0  # atno 6908 bound_to 6896
  150.8853  133.7255  159.2947 H   0  0  0  0  0  0  0  0  0  0  0  0  # atno 6909 bound_to 6896
  144.7657  140.4297  143.5944 H   0  0  0  0  0  0  0  0  0  0  0  0  # atno 7974 bound_to 7965
  154.5091  140.0815  156.7954 H   0  0  0  0  0  0  0  0  0  0  0  0  # atno 8008 bound_to 7997
  155.3826  140.3428  155.4229 H   0  0  0  0  0  0  0  0  0  0  0  0  # atno 8009 bound_to 7997
  156.1552  140.1571  156.8692 H   0  0  0  0  0  0  0  0  0  0  0  0  # atno 8010 bound_to 7997
  140.6050  143.2371  151.5842 H   0  0  0  0  0  0  0  0  0  0  0  0  # atno 10167 bound_to 10162
  157.5439  131.1096  150.8813 H   0  0  0  0  0  0  0  0  0  0  0  0  # atno 10718 bound_to 10713
  153.4849  135.3671  155.2461 H   0  0  0  0  0  0  0  0  0  0  0  0  # atno 10763 bound_to 10752
  154.8754  135.3963  154.3656 H   0  0  0  0  0  0  0  0  0  0  0  0  # atno 10764 bound_to 10752
  153.4266  135.7081  153.6323 H   0  0  0  0  0  0  0  0  0  0  0  0  # atno 10765 bound_to 10752
  140.2197  134.8206  157.3207 H   0  0  0  0  0  0  0  0  0  0  0  0  # atno 11005 bound_to 11000
  145.6478  139.1560  143.2879 LP  0  0  0  0  0  0  0  0  0  0  0  0  # atno 17320 bound_to 7965
  146.1762  140.6570  142.9210 LP  0  0  0  0  0  0  0  0  0  0  0  0  # atno 17321 bound_to 7965
  139.5318  144.2893  152.1165 LP  0  0  0  0  0  0  0  0  0  0  0  0  # atno 17342 bound_to 10162
  140.2081  144.4590  150.6399 LP  0  0  0  0  0  0  0  0  0  0  0  0  # atno 17343 bound_to 10162
  156.9358  130.5366  149.5279 LP  0  0  0  0  0  0  0  0  0  0  0  0  # atno 17370 bound_to 10713
  156.0519  130.5587  150.9009 LP  0  0  0  0  0  0  0  0  0  0  0  0  # atno 17371 bound_to 10713
  140.1863  134.4427  155.7742 LP  0  0  0  0  0  0  0  0  0  0  0  0  # atno 17394 bound_to 11000
  141.2223  133.7006  156.7953 LP  0  0  0  0  0  0  0  0  0  0  0  0  # atno 17395 bound_to 11000

$$$$
