AV-unprocessed.smi:1518|AV-procd|sdf|6124|dock10
  -GOLD-   22720 6263D 1   1.00000     0.00000
 Structure written by MMmdl.
 45 47  0  0  0  0  0  0  0  0  1 V2000
  151.1502  130.3813  156.1930 C   0  0  0  0  0  0  0  0  0  0  0  0
  151.4110  131.7573  156.8041 C   0  0  0  0  0  0  0  0  0  0  0  0
  152.0490  131.8240  157.8544 O   0  0  0  0  0  0  0  0  0  0  0  0
  150.8718  132.9518  156.0924 C   0  0  0  0  0  0  0  0  0  0  0  0
  150.1475  132.7706  154.8926 C   0  0  0  0  0  0  0  0  0  0  0  0
  149.6287  133.8782  154.1983 C   0  0  0  0  0  0  0  0  0  0  0  0
  149.8274  135.1778  154.6972 C   0  0  0  0  0  0  0  0  0  0  0  0
  150.5423  135.3870  155.8925 C   0  0  0  0  0  0  0  0  0  0  0  0
  150.6879  136.6935  156.3068 O   0  0  0  0  0  0  0  0  0  0  0  0
  151.7306  137.0042  157.2229 C   0  0  0  0  0  0  0  0  0  0  0  0
  152.0528  138.5054  157.1549 C   0  0  2  0  0  0  0  0  0  0  0  0
  153.4019  138.7072  157.5252 O   0  0  0  0  0  0  0  0  0  0  0  0
  151.0921  139.3785  157.9890 C   0  0  0  0  0  0  0  0  0  0  0  0
  151.2140  140.7980  157.6866 N   0  0  0  0  0  0  0  0  0  0  0  0
  150.8180  141.4512  156.5651 C   0  0  0  0  0  0  0  0  0  0  0  0
  150.1535  140.7248  155.4297 C   0  0  0  0  0  0  0  0  0  0  0  0
  151.0239  139.8878  154.6954 O   0  0  0  0  0  0  0  0  0  0  0  0
  151.0463  142.7668  156.5538 N   0  0  0  0  0  0  0  0  0  0  0  0
  151.6458  142.9849  157.7786 C   0  0  0  0  0  0  0  0  0  0  0  0
  152.1254  144.1768  158.3674 C   0  0  0  0  0  0  0  0  0  0  0  0
  152.7069  144.1547  159.6521 C   0  0  0  0  0  0  0  0  0  0  0  0
  152.8165  142.9433  160.3649 C   0  0  0  0  0  0  0  0  0  0  0  0
  152.3441  141.7447  159.7968 C   0  0  0  0  0  0  0  0  0  0  0  0
  151.7648  141.7721  158.5138 C   0  0  0  0  0  0  0  0  0  0  0  0
  151.0623  134.2651  156.5872 C   0  0  0  0  0  0  0  0  0  0  0  0
  151.6288  130.3008  155.2171 H   0  0  0  0  0  0  0  0  0  0  0  0
  150.0798  130.2104  156.0764 H   0  0  0  0  0  0  0  0  0  0  0  0
  151.5510  129.5964  156.8348 H   0  0  0  0  0  0  0  0  0  0  0  0
  149.9832  131.7810  154.4908 H   0  0  0  0  0  0  0  0  0  0  0  0
  149.0774  133.7306  153.2816 H   0  0  0  0  0  0  0  0  0  0  0  0
  149.4260  136.0228  154.1573 H   0  0  0  0  0  0  0  0  0  0  0  0
  151.4576  136.7186  158.2404 H   0  0  0  0  0  0  0  0  0  0  0  0
  152.6261  136.4442  156.9488 H   0  0  0  0  0  0  0  0  0  0  0  0
  151.9841  138.8085  156.1100 H   0  0  0  0  0  0  0  0  0  0  0  0
  153.6802  137.9741  158.0529 H   0  0  0  0  0  0  0  0  0  0  0  0
  150.0601  139.0688  157.8228 H   0  0  0  0  0  0  0  0  0  0  0  0
  151.2781  139.2405  159.0547 H   0  0  0  0  0  0  0  0  0  0  0  0
  149.3402  140.1112  155.8157 H   0  0  0  0  0  0  0  0  0  0  0  0
  149.7167  141.4564  154.7497 H   0  0  0  0  0  0  0  0  0  0  0  0
  151.3972  139.2506  155.2847 H   0  0  0  0  0  0  0  0  0  0  0  0
  152.0451  145.1098  157.8293 H   0  0  0  0  0  0  0  0  0  0  0  0
  153.0705  145.0716  160.0923 H   0  0  0  0  0  0  0  0  0  0  0  0
  153.2635  142.9348  161.3483 H   0  0  0  0  0  0  0  0  0  0  0  0
  152.4280  140.8152  160.3399 H   0  0  0  0  0  0  0  0  0  0  0  0
  151.6106  134.4099  157.5043 H   0  0  0  0  0  0  0  0  0  0  0  0
  1  2  1  0  0  0  0
  1 26  1  0  0  0  0
  1 27  1  0  0  0  0
  1 28  1  0  0  0  0
  2  3  2  0  0  0  0
  2  4  1  0  0  0  0
  4 25  1  0  0  0  0
  4  5  2  0  0  0  0
  5  6  1  0  0  0  0
  5 29  1  0  0  0  0
  6  7  2  0  0  0  0
  6 30  1  0  0  0  0
  7  8  1  0  0  0  0
  7 31  1  0  0  0  0
  8  9  1  0  0  0  0
  8 25  2  0  0  0  0
  9 10  1  0  0  0  0
 10 11  1  0  0  0  0
 10 32  1  0  0  0  0
 10 33  1  0  0  0  0
 11 12  1  0  0  0  0
 11 13  1  0  0  0  0
 11 34  1  0  0  0  0
 12 35  1  0  0  0  0
 13 14  1  0  0  0  0
 13 36  1  0  0  0  0
 13 37  1  0  0  0  0
 14 24  1  0  0  0  0
 14 15  1  0  0  0  0
 15 16  1  0  0  0  0
 15 18  2  0  0  0  0
 16 17  1  0  0  0  0
 16 38  1  0  0  0  0
 16 39  1  0  0  0  0
 17 40  1  0  0  0  0
 18 19  1  0  0  0  0
 19 24  2  0  0  0  0
 19 20  1  0  0  0  0
 20 21  2  0  0  0  0
 20 41  1  0  0  0  0
 21 22  1  0  0  0  0
 21 42  1  0  0  0  0
 22 23  2  0  0  0  0
 22 43  1  0  0  0  0
 23 24  1  0  0  0  0
 23 44  1  0  0  0  0
 25 45  1  0  0  0  0
M  END
> <s_m_source_file>
AV-unprocessed.smi

> <i_m_source_file_index>
1518

> <i_lp_mmshare_version>
43012

> <i_f3d_flags>
0

> <s_epik_input>
W0NIM11DKD1PKWMxW2NIXVtjSF1bY0hdYyhbY0hdMSlPW0NIMl1bQ0BIXShbT0hdKVtDSDJdbihjKG4yKVtDSDJdW09IXSljKGMyMylbY0hdW2NIXVtjSF1bY0hdMw==

> <s_epik_cmdline>
J2VwaWtfcHl0aG9uJywgJy1waCcsICc3LjAnLCAnLXRuJywgJzgnLCAnLW1hJywgJzIwMCcsICctbWV0YWxfYmluZGluZycsICctaW1hZScsICc8aW5maWxlLm1hZT4nLCAnLW9tYWUnLCAnPG91dGZpbGUubWFlPic=

> <r_lp_tautomer_probability>
0.99995

> <r_epik_Ionization_Penalty>
0.0583159

> <r_epik_Ionization_Penalty_Charging>
0

> <r_epik_Ionization_Penalty_Neutral>
0.0583159

> <r_epik_State_Penalty>
0.0503525

> <r_epik_Charging_Adjusted_Penalty>
0.0503525

> <i_epik_Tot_Q>
0

> <i_epik_Tot_abs_Q>
0

> <r_epik_Metal_State_Penalty>
5.25517e-05

> <b_epik_Metal_Only>
0

> <s_lp_Force_Field>
OPLS_2005

> <r_lp_Energy>
22.7276

> <b_lp_Chiralities_Consistent>
1

> <s_lp_Variant>
AV-unprocessed.smi:1518-1

> <Gold.Version>
5.8.1

> <Gold.Id.Protein>
6NUR|6NUR_protein|mol2

> <Gold.PLP.Fitness>
52.8262

> <Gold.PLP.PLP>
-45.6320

> <Gold.PLP.part.hbond>
-3.0000

> <Gold.PLP.part.metal>
0.0000

> <Gold.PLP.part.buried>
-5.5782

> <Gold.PLP.part.nonpolar>
-38.0922

> <Gold.PLP.part.repulsive>
0.9118

> <Gold.PLP.ligand.clash>
0.0000

> <Gold.PLP.ligand.torsion>
0.9491

> <Gold.PLP.Chemscore.Hbond>
3.0000

> <Gold.PLP.Chemscore.CHOScore>
0.0000

> <Gold.PLP.Chemscore.Metal>
0.0000

> <Gold.Chemscore.Hbonds>
donor molecule, donor type, donor heavy atom, donor atom, acceptor molecule, acceptor atom, score
      P1  H  6896  6909       L1     3  0.91
      P1  H  7989  7998       L1    17  1.00
      P1  H  7997  8009       L1    12  1.00

> <Gold.PLP.Chemscore.Internal.Correction>
0.0924

> <Gold.Rescore>
     Score         DG    S(hbond)    S(metal)    S(lipo)     H(rot)  DE(clash)    DE(int)     intcor
     19.76     -21.18       2.93        0.00     121.62       3.25       0.33       1.09       ----

> <Gold.Chemscore.Fitness>
19.7618

> <Gold.Chemscore.DG>
-21.1754

> <Gold.Chemscore.ZeroCoef>
-5.4800

> <Gold.Chemscore.Hbond>
2.9284

> <Gold.Chemscore.Metal>
0.0000

> <Gold.Chemscore.Lipo>
121.6244

> <Gold.Chemscore.Internal_Hbond>
0.0000

> <Gold.Chemscore.DEClash>
0.3259

> <Gold.Chemscore.DEInternal>
1.0877

> <Gold.Chemscore.Rot>
3.2482

> <Gold.Chemscore.Internal.Correction>
   9.000000E+99

> <Gold.Chemscore.Hbonds>
donor molecule, donor type, donor heavy atom, donor atom, acceptor molecule, acceptor atom, score
      P1  H  6896  6909       L1     3  0.86
      P1  H  7989  7998       L1    17  0.50
      P1  H  7997  8009       L1    12  0.99

> <Gold.Chemscore.Hbond.Weighted>
-9.7808

> <Gold.Chemscore.Metal.Weighted>
-0.0000

> <Gold.Chemscore.Lipo.Weighted>
-14.2301

> <Gold.Chemscore.Internal_Hbond.Weighted>
0.0000

> <Gold.Chemscore.DEClash.Weighted>
0.3259

> <Gold.Chemscore.DEInternal.Weighted>
1.0877

> <Gold.Chemscore.Rot.Weighted>
8.3155

> <Gold.Chemscore.Internal.Correction.Weighted>
   9.000000E+99

> <Gold.Protein.RotatedTorsions>
[ 6907 6896 6895 6894 ] final  -58.46 input  -60.11 | X-H torsion
[ 7974 7965 7964 7962 ] final   -6.49 input  175.53 | X-H torsion
[ 8008 7997 7996 7995 ] final  160.91 input   59.86 | X-H torsion
[ 10167 10162 10161 10158 ] final  -52.02 input  -65.29 | X-H torsion
[ 10718 10713 10712 10709 ] final  131.98 input   66.30 | X-H torsion
[ 10763 10752 10751 10750 ] final -156.77 input  -60.55 | X-H torsion
[ 11005 11000 10999 10996 ] final  162.96 input  -57.11 | X-H torsion

> <Gold.Protein.ActiveResidues>
 VAL166  LYS551  ARG553  GLY616  TRP617  ASP618  TYR619  PRO620  LYS621  CYS622 
 ASP623  PHE694  ASN695  SER759  ASP760  ASP761  ALA762  ILE779  LEU786  VAL792 
 PHE793  MET794  SER795  GLU796  ALA797  LYS798  CYS799  TRP800  GLU811  SER814 

> <Gold.Protein.RotatedAtoms>
  150.8005  134.7096  159.6595 H   0  0  0  0  0  0  0  0  0  0  0  0  # atno 6907 bound_to 6896
  152.4122  134.6102  160.0033 H   0  0  0  0  0  0  0  0  0  0  0  0  # atno 6908 bound_to 6896
  151.6341  133.3293  159.3151 H   0  0  0  0  0  0  0  0  0  0  0  0  # atno 6909 bound_to 6896
  146.2329  140.2178  142.8337 H   0  0  0  0  0  0  0  0  0  0  0  0  # atno 7974 bound_to 7965
  156.2140  140.1791  156.7631 H   0  0  0  0  0  0  0  0  0  0  0  0  # atno 8008 bound_to 7997
  154.5764  140.0673  156.9069 H   0  0  0  0  0  0  0  0  0  0  0  0  # atno 8009 bound_to 7997
  155.2581  140.3334  155.4278 H   0  0  0  0  0  0  0  0  0  0  0  0  # atno 8010 bound_to 7997
  140.6559  143.2599  151.4587 H   0  0  0  0  0  0  0  0  0  0  0  0  # atno 10167 bound_to 10162
  157.4916  131.1090  150.9549 H   0  0  0  0  0  0  0  0  0  0  0  0  # atno 10718 bound_to 10713
  154.7688  135.3139  154.8232 H   0  0  0  0  0  0  0  0  0  0  0  0  # atno 10763 bound_to 10752
  153.8973  135.6819  153.4761 H   0  0  0  0  0  0  0  0  0  0  0  0  # atno 10764 bound_to 10752
  153.1298  135.4785  154.9264 H   0  0  0  0  0  0  0  0  0  0  0  0  # atno 10765 bound_to 10752
  140.2310  134.8124  157.3317 H   0  0  0  0  0  0  0  0  0  0  0  0  # atno 11005 bound_to 11000
  144.9655  140.8318  143.5487 LP  0  0  0  0  0  0  0  0  0  0  0  0  # atno 17320 bound_to 7965
  145.2154  139.2184  143.5121 LP  0  0  0  0  0  0  0  0  0  0  0  0  # atno 17321 bound_to 7965
  139.5781  144.1771  152.1931 LP  0  0  0  0  0  0  0  0  0  0  0  0  # atno 17342 bound_to 10162
  140.1088  144.5475  150.6939 LP  0  0  0  0  0  0  0  0  0  0  0  0  # atno 17343 bound_to 10162
  157.0249  130.5688  149.5336 LP  0  0  0  0  0  0  0  0  0  0  0  0  # atno 17370 bound_to 10713
  156.0176  130.5271  150.8182 LP  0  0  0  0  0  0  0  0  0  0  0  0  # atno 17371 bound_to 10713
  140.1750  134.4560  155.7807 LP  0  0  0  0  0  0  0  0  0  0  0  0  # atno 17394 bound_to 11000
  141.2218  133.6958  156.7773 LP  0  0  0  0  0  0  0  0  0  0  0  0  # atno 17395 bound_to 11000

$$$$
