AV-unprocessed.smi:3132|AV-procd|sdf|11933|dock5
  -GOLD-   2272017323D 1   1.00000     0.00000
 Structure written by MMmdl.
 33 34  0  0  0  0  0  0  0  0  1 V2000
  150.1205  143.6663  159.2356 C   0  0  0  0  0  0  0  0  0  0  0  0
  150.8352  142.4685  158.5957 C   0  0  2  0  0  0  0  0  0  0  0  0
  152.3655  142.5673  158.7687 C   0  0  0  0  0  0  0  0  0  0  0  0
  152.7965  142.2569  160.1199 N   0  0  0  0  0  0  0  0  0  0  0  0
  152.3433  142.8344  161.2993 C   0  0  0  0  0  0  0  0  0  0  0  0
  153.0435  142.2376  162.3230 C   0  0  0  0  0  0  0  0  0  0  0  0
  153.9221  141.2912  161.8009 N   0  0  0  0  0  0  0  0  0  0  0  0
  153.7191  141.3592  160.4916 C   0  0  0  0  0  0  0  0  0  0  0  0
  150.4813  142.4047  157.1785 N   0  0  0  0  0  0  0  0  0  0  0  0
  149.8916  141.3678  156.5627 C   0  0  0  0  0  0  0  0  0  0  0  0
  149.5333  140.3456  157.1487 O   0  0  0  0  0  0  0  0  0  0  0  0
  149.7195  141.4974  155.0454 C   0  0  2  0  0  0  0  0  0  0  0  0
  148.2547  141.5749  154.5766 C   0  0  0  0  0  0  0  0  0  0  0  0
  148.0096  140.2160  153.9525 C   0  0  0  0  0  0  0  0  0  0  0  0
  149.3921  139.8690  153.4194 C   0  0  0  0  0  0  0  0  0  0  0  0
  150.2634  140.3229  154.4438 O   0  0  0  0  0  0  0  0  0  0  0  0
  150.3453  143.7333  160.3005 H   0  0  0  0  0  0  0  0  0  0  0  0
  149.0382  143.5777  159.1340 H   0  0  0  0  0  0  0  0  0  0  0  0
  150.4238  144.6055  158.7721 H   0  0  0  0  0  0  0  0  0  0  0  0
  150.4826  141.5721  159.1095 H   0  0  0  0  0  0  0  0  0  0  0  0
  152.8751  141.8972  158.0750 H   0  0  0  0  0  0  0  0  0  0  0  0
  152.7054  143.5766  158.5335 H   0  0  0  0  0  0  0  0  0  0  0  0
  151.5887  143.6070  161.3115 H   0  0  0  0  0  0  0  0  0  0  0  0
  152.9833  142.4157  163.3865 H   0  0  0  0  0  0  0  0  0  0  0  0
  154.2587  140.7456  159.7850 H   0  0  0  0  0  0  0  0  0  0  0  0
  150.7457  143.1965  156.6105 H   0  0  0  0  0  0  0  0  0  0  0  0
  150.2659  142.3703  154.6839 H   0  0  0  0  0  0  0  0  0  0  0  0
  147.5402  141.7999  155.3696 H   0  0  0  0  0  0  0  0  0  0  0  0
  148.1542  142.3538  153.8197 H   0  0  0  0  0  0  0  0  0  0  0  0
  147.7114  139.4978  154.7175 H   0  0  0  0  0  0  0  0  0  0  0  0
  147.2436  140.2320  153.1768 H   0  0  0  0  0  0  0  0  0  0  0  0
  149.5170  138.8032  153.2290 H   0  0  0  0  0  0  0  0  0  0  0  0
  149.6010  140.4131  152.4972 H   0  0  0  0  0  0  0  0  0  0  0  0
  1  2  1  0  0  0  0
  1 17  1  0  0  0  0
  1 18  1  0  0  0  0
  1 19  1  0  0  0  0
  2  3  1  0  0  0  0
  2  9  1  0  0  0  0
  2 20  1  0  0  0  0
  3  4  1  0  0  0  0
  3 21  1  0  0  0  0
  3 22  1  0  0  0  0
  4  8  1  0  0  0  0
  4  5  1  0  0  0  0
  5  6  2  0  0  0  0
  5 23  1  0  0  0  0
  6  7  1  0  0  0  0
  6 24  1  0  0  0  0
  7  8  2  0  0  0  0
  8 25  1  0  0  0  0
  9 10  1  0  0  0  0
  9 26  1  0  0  0  0
 10 11  2  0  0  0  0
 10 12  1  0  0  0  0
 12 16  1  0  0  0  0
 12 13  1  0  0  0  0
 12 27  1  0  0  0  0
 13 14  1  0  0  0  0
 13 28  1  0  0  0  0
 13 29  1  0  0  0  0
 14 15  1  0  0  0  0
 14 30  1  0  0  0  0
 14 31  1  0  0  0  0
 15 16  1  0  0  0  0
 15 32  1  0  0  0  0
 15 33  1  0  0  0  0
M  END
> <s_m_source_file>
AV-unprocessed.smi

> <i_m_source_file_index>
3132

> <i_lp_mmshare_version>
43012

> <i_f3d_flags>
0

> <s_epik_input>
W2NIXTFuW2NIXVtjSF1uMVtDSDJdW0NAQEhdKFtDSDNdKVtOSF1DKD1PKVtDQEBIXTJbQ0gyXVtDSDJdW0NIMl1PMg==

> <s_epik_cmdline>
J2VwaWtfcHl0aG9uJywgJy1waCcsICc3LjAnLCAnLXRuJywgJzgnLCAnLW1hJywgJzIwMCcsICctbWV0YWxfYmluZGluZycsICctaW1hZScsICc8aW5maWxlLm1hZT4nLCAnLW9tYWUnLCAnPG91dGZpbGUubWFlPic=

> <r_lp_tautomer_probability>
1

> <r_epik_Ionization_Penalty>
0.630322

> <r_epik_Ionization_Penalty_Charging>
0.630322

> <r_epik_Ionization_Penalty_Neutral>
3.82652e-08

> <r_epik_State_Penalty>
0.647117

> <r_epik_Charging_Adjusted_Penalty>
1.27744

> <i_epik_Tot_Q>
0

> <i_epik_Tot_abs_Q>
0

> <r_epik_Metal_State_Penalty>
0.309095

> <b_epik_Metal_Only>
0

> <s_lp_Force_Field>
OPLS_2005

> <r_lp_Energy>
19.5701

> <b_lp_Chiralities_Consistent>
1

> <s_lp_Variant>
AV-unprocessed.smi:3132-5

> <Gold.Version>
5.8.1

> <Gold.Id.Protein>
6NUR|6NUR_protein|mol2

> <Gold.PLP.Fitness>
38.5753

> <Gold.PLP.PLP>
-35.9678

> <Gold.PLP.part.hbond>
-2.6225

> <Gold.PLP.part.metal>
0.0000

> <Gold.PLP.part.buried>
-0.5255

> <Gold.PLP.part.nonpolar>
-33.0492

> <Gold.PLP.part.repulsive>
0.1488

> <Gold.PLP.ligand.clash>
0.0000

> <Gold.PLP.ligand.torsion>
0.2862

> <Gold.PLP.Chemscore.Hbond>
1.0470

> <Gold.PLP.Chemscore.CHOScore>
0.0000

> <Gold.PLP.Chemscore.Metal>
0.0000

> <Gold.Chemscore.Hbonds>
donor molecule, donor type, donor heavy atom, donor atom, acceptor molecule, acceptor atom, score
      P1  H  7989  7998       L1    16  1.00

> <Gold.PLP.Chemscore.Internal.Correction>
0.0389

> <Gold.Rescore>
     Score         DG    S(hbond)    S(metal)    S(lipo)     H(rot)  DE(clash)    DE(int)     intcor
     12.19     -14.27       1.55        0.00      71.54       1.86       1.62       0.46       ----

> <Gold.Chemscore.Fitness>
12.1880

> <Gold.Chemscore.DG>
-14.2685

> <Gold.Chemscore.ZeroCoef>
-5.4800

> <Gold.Chemscore.Hbond>
1.5537

> <Gold.Chemscore.Metal>
0.0000

> <Gold.Chemscore.Lipo>
71.5383

> <Gold.Chemscore.Internal_Hbond>
0.0000

> <Gold.Chemscore.DEClash>
1.6170

> <Gold.Chemscore.DEInternal>
0.4634

> <Gold.Chemscore.Rot>
1.8636

> <Gold.Chemscore.Internal.Correction>
   9.000000E+99

> <Gold.Chemscore.Hbonds>
donor molecule, donor type, donor heavy atom, donor atom, acceptor molecule, acceptor atom, score
      P1  H  7989  7998       L1    16  0.12

> <Gold.Chemscore.Hbond.Weighted>
-5.1893

> <Gold.Chemscore.Metal.Weighted>
-0.0000

> <Gold.Chemscore.Lipo.Weighted>
-8.3700

> <Gold.Chemscore.Internal_Hbond.Weighted>
0.0000

> <Gold.Chemscore.DEClash.Weighted>
1.6170

> <Gold.Chemscore.DEInternal.Weighted>
0.4634

> <Gold.Chemscore.Rot.Weighted>
4.7709

> <Gold.Chemscore.Internal.Correction.Weighted>
   9.000000E+99

> <Gold.Protein.RotatedTorsions>
[ 6907 6896 6895 6894 ] final -149.35 input  -60.11 | X-H torsion
[ 7974 7965 7964 7962 ] final  -60.91 input  175.53 | X-H torsion
[ 8008 7997 7996 7995 ] final  147.95 input   59.86 | X-H torsion
[ 10167 10162 10161 10158 ] final -158.55 input  -65.29 | X-H torsion
[ 10718 10713 10712 10709 ] final  -81.49 input   66.30 | X-H torsion
[ 10763 10752 10751 10750 ] final   48.78 input  -60.55 | X-H torsion
[ 11005 11000 10999 10996 ] final  142.57 input  -57.11 | X-H torsion

> <Gold.Protein.ActiveResidues>
 VAL166  LYS551  ARG553  GLY616  TRP617  ASP618  TYR619  PRO620  LYS621  CYS622 
 ASP623  PHE694  ASN695  SER759  ASP760  ASP761  ALA762  ILE779  LEU786  VAL792 
 PHE793  MET794  SER795  GLU796  ALA797  LYS798  CYS799  TRP800  GLU811  SER814 

> <Gold.Protein.RotatedAtoms>
  151.1829  133.4714  159.2593 H   0  0  0  0  0  0  0  0  0  0  0  0  # atno 6907 bound_to 6896
  151.1241  135.0095  159.8562 H   0  0  0  0  0  0  0  0  0  0  0  0  # atno 6908 bound_to 6896
  152.5457  134.1738  159.8660 H   0  0  0  0  0  0  0  0  0  0  0  0  # atno 6909 bound_to 6896
  145.8098  140.8606  143.0188 H   0  0  0  0  0  0  0  0  0  0  0  0  # atno 7974 bound_to 7965
  156.2808  140.2142  156.5619 H   0  0  0  0  0  0  0  0  0  0  0  0  # atno 8008 bound_to 7997
  154.7206  140.0504  157.0658 H   0  0  0  0  0  0  0  0  0  0  0  0  # atno 8009 bound_to 7997
  155.0484  140.3153  155.4703 H   0  0  0  0  0  0  0  0  0  0  0  0  # atno 8010 bound_to 7997
  139.6684  143.9789  152.2268 H   0  0  0  0  0  0  0  0  0  0  0  0  # atno 10167 bound_to 10162
  156.0049  130.4605  150.3960 H   0  0  0  0  0  0  0  0  0  0  0  0  # atno 10718 bound_to 10713
  152.9790  135.5933  154.3982 H   0  0  0  0  0  0  0  0  0  0  0  0  # atno 10763 bound_to 10752
  154.3631  135.2767  155.2311 H   0  0  0  0  0  0  0  0  0  0  0  0  # atno 10764 bound_to 10752
  154.4299  135.6039  153.6117 H   0  0  0  0  0  0  0  0  0  0  0  0  # atno 10765 bound_to 10752
  140.0487  134.9267  157.0978 H   0  0  0  0  0  0  0  0  0  0  0  0  # atno 11005 bound_to 11000
  144.6759  140.0379  143.7481 LP  0  0  0  0  0  0  0  0  0  0  0  0  # atno 17320 bound_to 7965
  145.9790  139.2926  143.1053 LP  0  0  0  0  0  0  0  0  0  0  0  0  # atno 17321 bound_to 7965
  139.9547  144.6597  150.8138 LP  0  0  0  0  0  0  0  0  0  0  0  0  # atno 17342 bound_to 10162
  140.7608  143.3160  151.2732 LP  0  0  0  0  0  0  0  0  0  0  0  0  # atno 17343 bound_to 10162
  157.2032  131.0443  151.2639 LP  0  0  0  0  0  0  0  0  0  0  0  0  # atno 17370 bound_to 10713
  157.3956  130.7306  149.6729 LP  0  0  0  0  0  0  0  0  0  0  0  0  # atno 17371 bound_to 10713
  140.3951  134.2142  155.7165 LP  0  0  0  0  0  0  0  0  0  0  0  0  # atno 17394 bound_to 11000
  141.1920  133.8183  157.0858 LP  0  0  0  0  0  0  0  0  0  0  0  0  # atno 17395 bound_to 11000

$$$$
