AV-unprocessed.smi:803|AV-procd|sdf|3793|dock9
  -GOLD-   22720 1233D 1   1.00000     0.00000
 Structure written by MMmdl.
 37 38  0  0  0  0  0  0  0  0  1 V2000
  145.8050  142.9366  154.0847 C   0  0  0  0  0  0  0  0  0  0  0  0
  147.0656  142.0674  154.1712 C   0  0  0  0  0  0  0  0  0  0  0  0
  146.7636  140.6594  154.0016 N   0  0  0  0  0  0  0  0  0  0  0  0
  147.1897  139.8096  153.0000 C   0  0  0  0  0  0  0  0  0  0  0  0
  146.6337  138.5946  153.2853 C   0  0  0  0  0  0  0  0  0  0  0  0
  146.7483  137.3664  152.5868 N   0  0  0  0  0  0  0  0  0  0  0  0
  145.7506  136.5950  152.1251 C   0  0  0  0  0  0  0  0  0  0  0  0
  144.5503  136.8371  152.2553 O   0  0  0  0  0  0  0  0  0  0  0  0
  146.2266  135.5081  151.5008 N   0  0  0  0  0  0  0  0  0  0  0  0
  145.4130  134.4584  150.8951 C   0  0  0  0  0  0  0  0  0  0  0  0
  144.3420  133.9652  151.8897 C   0  0  0  0  0  0  0  0  0  0  0  0
  143.5251  132.8016  151.3050 C   0  0  0  0  0  0  0  0  0  0  0  0
  144.4367  131.6483  150.8574 C   0  0  0  0  0  0  0  0  0  0  0  0
  145.4994  132.1362  149.8605 C   0  0  0  0  0  0  0  0  0  0  0  0
  146.3199  133.2975  150.4446 C   0  0  0  0  0  0  0  0  0  0  0  0
  145.8829  138.7818  154.4747 C   0  0  0  0  0  0  0  0  0  0  0  0
  145.9628  140.0336  154.8997 N   0  0  0  0  0  0  0  0  0  0  0  0
  146.0494  143.9887  154.2315 H   0  0  0  0  0  0  0  0  0  0  0  0
  145.0791  142.6534  154.8475 H   0  0  0  0  0  0  0  0  0  0  0  0
  145.3235  142.8409  153.1111 H   0  0  0  0  0  0  0  0  0  0  0  0
  147.7865  142.3645  153.4085 H   0  0  0  0  0  0  0  0  0  0  0  0
  147.5510  142.2064  155.1379 H   0  0  0  0  0  0  0  0  0  0  0  0
  147.8348  140.1426  152.2003 H   0  0  0  0  0  0  0  0  0  0  0  0
  147.6894  137.0388  152.4255 H   0  0  0  0  0  0  0  0  0  0  0  0
  147.2281  135.3944  151.4436 H   0  0  0  0  0  0  0  0  0  0  0  0
  144.9128  134.8563  150.0099 H   0  0  0  0  0  0  0  0  0  0  0  0
  144.8191  133.6409  152.8158 H   0  0  0  0  0  0  0  0  0  0  0  0
  143.6721  134.7832  152.1579 H   0  0  0  0  0  0  0  0  0  0  0  0
  142.8080  132.4428  152.0439 H   0  0  0  0  0  0  0  0  0  0  0  0
  142.9414  133.1573  150.4550 H   0  0  0  0  0  0  0  0  0  0  0  0
  144.9263  131.2106  151.7281 H   0  0  0  0  0  0  0  0  0  0  0  0
  143.8396  130.8552  150.4064 H   0  0  0  0  0  0  0  0  0  0  0  0
  146.1608  131.3129  149.5901 H   0  0  0  0  0  0  0  0  0  0  0  0
  145.0148  132.4586  148.9378 H   0  0  0  0  0  0  0  0  0  0  0  0
  147.0361  133.6496  149.7012 H   0  0  0  0  0  0  0  0  0  0  0  0
  146.9057  132.9345  151.2905 H   0  0  0  0  0  0  0  0  0  0  0  0
  145.2940  138.0680  155.0313 H   0  0  0  0  0  0  0  0  0  0  0  0
  1  2  1  0  0  0  0
  1 18  1  0  0  0  0
  1 19  1  0  0  0  0
  1 20  1  0  0  0  0
  2  3  1  0  0  0  0
  2 21  1  0  0  0  0
  2 22  1  0  0  0  0
  3 17  1  0  0  0  0
  3  4  1  0  0  0  0
  4  5  2  0  0  0  0
  4 23  1  0  0  0  0
  5  6  1  0  0  0  0
  5 16  1  0  0  0  0
  6  7  1  0  0  0  0
  6 24  1  0  0  0  0
  7  8  2  0  0  0  0
  7  9  1  0  0  0  0
  9 10  1  0  0  0  0
  9 25  1  0  0  0  0
 10 15  1  0  0  0  0
 10 11  1  0  0  0  0
 10 26  1  0  0  0  0
 11 12  1  0  0  0  0
 11 27  1  0  0  0  0
 11 28  1  0  0  0  0
 12 13  1  0  0  0  0
 12 29  1  0  0  0  0
 12 30  1  0  0  0  0
 13 14  1  0  0  0  0
 13 31  1  0  0  0  0
 13 32  1  0  0  0  0
 14 15  1  0  0  0  0
 14 33  1  0  0  0  0
 14 34  1  0  0  0  0
 15 35  1  0  0  0  0
 15 36  1  0  0  0  0
 16 17  2  0  0  0  0
 16 37  1  0  0  0  0
M  END
> <s_m_source_file>
AV-unprocessed.smi

> <i_m_source_file_index>
803

> <i_lp_mmshare_version>
43012

> <i_f3d_flags>
0

> <s_epik_input>
W0NIM11bQ0gyXW4xW2NIXWMoW2NIXW4xKVtOSF1DKD1PKVtOSF1bQ0hdMltDSDJdW0NIMl1bQ0gyXVtDSDJdW0NIMl0y

> <s_epik_cmdline>
J2VwaWtfcHl0aG9uJywgJy1waCcsICc3LjAnLCAnLXRuJywgJzgnLCAnLW1hJywgJzIwMCcsICctbWV0YWxfYmluZGluZycsICctaW1hZScsICc8aW5maWxlLm1hZT4nLCAnLW9tYWUnLCAnPG91dGZpbGUubWFlPic=

> <r_lp_tautomer_probability>
1

> <r_epik_Ionization_Penalty>
0.000191435

> <r_epik_Ionization_Penalty_Charging>
0

> <r_epik_Ionization_Penalty_Neutral>
0.000191435

> <r_epik_State_Penalty>
-0

> <r_epik_Charging_Adjusted_Penalty>
0

> <i_epik_Tot_Q>
0

> <i_epik_Tot_abs_Q>
0

> <r_epik_Metal_State_Penalty>
-0

> <b_epik_Metal_Only>
0

> <s_lp_Force_Field>
OPLS_2005

> <r_lp_Energy>
12.5011

> <b_lp_Chiralities_Consistent>
1

> <s_lp_Variant>
AV-unprocessed.smi:803-1

> <Gold.Version>
5.8.1

> <Gold.Id.Protein>
6NUR|6NUR_protein|mol2

> <Gold.PLP.Fitness>
41.4236

> <Gold.PLP.PLP>
-33.7972

> <Gold.PLP.part.hbond>
-2.0000

> <Gold.PLP.part.metal>
0.0000

> <Gold.PLP.part.buried>
-4.7313

> <Gold.PLP.part.nonpolar>
-28.0297

> <Gold.PLP.part.repulsive>
0.5959

> <Gold.PLP.ligand.clash>
0.0000

> <Gold.PLP.ligand.torsion>
0.5804

> <Gold.PLP.Chemscore.Hbond>
1.9280

> <Gold.PLP.Chemscore.CHOScore>
1.0000

> <Gold.PLP.Chemscore.Metal>
0.0000

> <Gold.Chemscore.Hbonds>
donor molecule, donor type, donor heavy atom, donor atom, acceptor molecule, acceptor atom, score
      L1  H     6    24       P1  7948  1.00
      L1  H     9    25       P1  7948  0.91
      L1  C     4    23       P1  7957  1.00

> <Gold.PLP.Chemscore.Internal.Correction>
0.0032

> <Gold.Rescore>
     Score         DG    S(hbond)    S(metal)    S(lipo)     H(rot)  DE(clash)    DE(int)     intcor
     15.60     -17.38       1.85        0.00      74.30       1.17       0.05       1.72       ----

> <Gold.Chemscore.Fitness>
15.6048

> <Gold.Chemscore.DG>
-17.3772

> <Gold.Chemscore.ZeroCoef>
-5.4800

> <Gold.Chemscore.Hbond>
1.8534

> <Gold.Chemscore.Metal>
0.0000

> <Gold.Chemscore.Lipo>
74.3023

> <Gold.Chemscore.Internal_Hbond>
0.0000

> <Gold.Chemscore.DEClash>
0.0540

> <Gold.Chemscore.DEInternal>
1.7184

> <Gold.Chemscore.Rot>
1.1667

> <Gold.Chemscore.Internal.Correction>
   9.000000E+99

> <Gold.Chemscore.Hbonds>
donor molecule, donor type, donor heavy atom, donor atom, acceptor molecule, acceptor atom, score
      L1  H     6    24       P1  7948  0.98
      L1  H     9    25       P1  7948  0.83

> <Gold.Chemscore.Hbond.Weighted>
-6.1905

> <Gold.Chemscore.Metal.Weighted>
-0.0000

> <Gold.Chemscore.Lipo.Weighted>
-8.6934

> <Gold.Chemscore.Internal_Hbond.Weighted>
0.0000

> <Gold.Chemscore.DEClash.Weighted>
0.0540

> <Gold.Chemscore.DEInternal.Weighted>
1.7184

> <Gold.Chemscore.Rot.Weighted>
2.9867

> <Gold.Chemscore.Internal.Correction.Weighted>
   9.000000E+99

> <Gold.Protein.RotatedTorsions>
[ 6907 6896 6895 6894 ] final   33.84 input  -60.11 | X-H torsion
[ 7974 7965 7964 7962 ] final -123.70 input  175.53 | X-H torsion
[ 8008 7997 7996 7995 ] final  174.28 input   59.86 | X-H torsion
[ 10167 10162 10161 10158 ] final   86.51 input  -65.29 | X-H torsion
[ 10718 10713 10712 10709 ] final  -92.60 input   66.30 | X-H torsion
[ 10763 10752 10751 10750 ] final -167.94 input  -60.55 | X-H torsion
[ 11005 11000 10999 10996 ] final  146.01 input  -57.11 | X-H torsion

> <Gold.Protein.ActiveResidues>
 VAL166  LYS551  ARG553  GLY616  TRP617  ASP618  TYR619  PRO620  LYS621  CYS622 
 ASP623  PHE694  ASN695  SER759  ASP760  ASP761  ALA762  ILE779  LEU786  VAL792 
 PHE793  MET794  SER795  GLU796  ALA797  LYS798  CYS799  TRP800  GLU811  SER814 

> <Gold.Protein.RotatedAtoms>
  152.0940  134.9387  160.0570 H   0  0  0  0  0  0  0  0  0  0  0  0  # atno 6907 bound_to 6896
  152.0627  133.4065  159.4433 H   0  0  0  0  0  0  0  0  0  0  0  0  # atno 6908 bound_to 6896
  150.6837  134.3101  159.4786 H   0  0  0  0  0  0  0  0  0  0  0  0  # atno 6909 bound_to 6896
  145.0159  140.7946  143.4410 H   0  0  0  0  0  0  0  0  0  0  0  0  # atno 7974 bound_to 7965
  156.0990  140.1438  156.9493 H   0  0  0  0  0  0  0  0  0  0  0  0  # atno 8008 bound_to 7997
  154.4690  140.0916  156.7141 H   0  0  0  0  0  0  0  0  0  0  0  0  # atno 8009 bound_to 7997
  155.4792  140.3444  155.4339 H   0  0  0  0  0  0  0  0  0  0  0  0  # atno 8010 bound_to 7997
  139.8868  144.6408  150.8782 H   0  0  0  0  0  0  0  0  0  0  0  0  # atno 10167 bound_to 10162
  156.0004  130.4993  150.5650 H   0  0  0  0  0  0  0  0  0  0  0  0  # atno 10718 bound_to 10713
  154.6680  135.2935  154.9780 H   0  0  0  0  0  0  0  0  0  0  0  0  # atno 10763 bound_to 10752
  154.0816  135.6603  153.4843 H   0  0  0  0  0  0  0  0  0  0  0  0  # atno 10764 bound_to 10752
  153.0469  135.5199  154.7662 H   0  0  0  0  0  0  0  0  0  0  0  0  # atno 10765 bound_to 10752
  140.0758  134.9125  157.1420 H   0  0  0  0  0  0  0  0  0  0  0  0  # atno 11005 bound_to 11000
  145.1961  139.2276  143.5217 LP  0  0  0  0  0  0  0  0  0  0  0  0  # atno 17320 bound_to 7965
  146.3478  140.1768  142.8589 LP  0  0  0  0  0  0  0  0  0  0  0  0  # atno 17321 bound_to 7965
  140.7734  143.3542  151.1955 LP  0  0  0  0  0  0  0  0  0  0  0  0  # atno 17342 bound_to 10162
  139.7146  143.9322  152.2961 LP  0  0  0  0  0  0  0  0  0  0  0  0  # atno 17343 bound_to 10162
  157.3554  131.0740  151.1680 LP  0  0  0  0  0  0  0  0  0  0  0  0  # atno 17370 bound_to 10713
  157.2482  130.6601  149.5920 LP  0  0  0  0  0  0  0  0  0  0  0  0  # atno 17371 bound_to 10713
  140.3560  134.2547  155.7192 LP  0  0  0  0  0  0  0  0  0  0  0  0  # atno 17394 bound_to 11000
  141.2029  133.7926  157.0368 LP  0  0  0  0  0  0  0  0  0  0  0  0  # atno 17395 bound_to 11000

$$$$
