AV-unprocessed.smi:1278|AV-procd|sdf|5347|dock6
  -GOLD-   22720 4483D 1   1.00000     0.00000
 Structure written by MMmdl.
 39 40  0  0  0  0  0  0  0  0  2 V2000
  145.4674  132.6746  149.9055 C   0  0  0  0  0  0  0  0  0  0  0  0
  146.3379  133.3974  150.9434 C   0  0  2  0  0  0  0  0  0  0  0  0
  146.7344  132.4582  152.0950 C   0  0  0  0  0  0  0  0  0  0  0  0
  147.5774  133.2128  153.1303 C   0  0  0  0  0  0  0  0  0  0  0  0
  146.8425  134.4675  153.6274 C   0  0  0  0  0  0  0  0  0  0  0  0
  146.4775  135.3590  152.4962 N   0  3  2  0  0  0  0  0  0  0  0  0
  145.8835  136.6367  152.9630 C   0  0  0  0  0  0  0  0  0  0  0  0
  146.1533  137.8021  151.9914 C   0  0  0  0  0  0  0  0  0  0  0  0
  147.3759  138.5172  152.3401 N   0  0  0  0  0  0  0  0  0  0  0  0
  147.6676  138.9765  153.5659 C   0  0  0  0  0  0  0  0  0  0  0  0
  146.9203  138.8339  154.5344 O   0  0  0  0  0  0  0  0  0  0  0  0
  148.8609  139.5958  153.5872 N   0  0  0  0  0  0  0  0  0  0  0  0
  149.5201  140.1889  154.6962 C   0  0  0  0  0  0  0  0  0  0  0  0
  150.8459  140.1802  154.8777 N   0  0  0  0  0  0  0  0  0  0  0  0
  151.2191  140.8431  156.0494 C   0  0  0  0  0  0  0  0  0  0  0  0
  150.1571  141.3549  156.7529 C   0  0  0  0  0  0  0  0  0  0  0  0
  148.6368  141.0208  155.9676 S   0  0  0  0  0  0  0  0  0  0  0  0
  145.6318  134.6524  151.4960 C   0  0  0  0  0  0  0  0  0  0  0  0
  144.5291  132.3323  150.3433 H   0  0  0  0  0  0  0  0  0  0  0  0
  145.9822  131.8034  149.4995 H   0  0  0  0  0  0  0  0  0  0  0  0
  145.2243  133.3316  149.0698 H   0  0  0  0  0  0  0  0  0  0  0  0
  147.2508  133.7183  150.4391 H   0  0  0  0  0  0  0  0  0  0  0  0
  145.8400  132.0566  152.5736 H   0  0  0  0  0  0  0  0  0  0  0  0
  147.2941  131.6036  151.7130 H   0  0  0  0  0  0  0  0  0  0  0  0
  147.8070  132.5581  153.9717 H   0  0  0  0  0  0  0  0  0  0  0  0
  148.5341  133.4974  152.6898 H   0  0  0  0  0  0  0  0  0  0  0  0
  145.9419  134.1864  154.1756 H   0  0  0  0  0  0  0  0  0  0  0  0
  147.4862  135.0022  154.3268 H   0  0  0  0  0  0  0  0  0  0  0  0
  144.8140  136.4994  153.1308 H   0  0  0  0  0  0  0  0  0  0  0  0
  146.3123  136.9028  153.9304 H   0  0  0  0  0  0  0  0  0  0  0  0
  146.2615  137.4210  150.9755 H   0  0  0  0  0  0  0  0  0  0  0  0
  145.3232  138.5087  151.9695 H   0  0  0  0  0  0  0  0  0  0  0  0
  148.0418  138.6772  151.5978 H   0  0  0  0  0  0  0  0  0  0  0  0
  149.3601  139.6440  152.7112 H   0  0  0  0  0  0  0  0  0  0  0  0
  152.2661  140.9043  156.3069 H   0  0  0  0  0  0  0  0  0  0  0  0
  150.1776  141.9059  157.6814 H   0  0  0  0  0  0  0  0  0  0  0  0
  145.3979  135.3194  150.6667 H   0  0  0  0  0  0  0  0  0  0  0  0
  144.6802  134.3784  151.9549 H   0  0  0  0  0  0  0  0  0  0  0  0
  147.3441  135.5969  152.0353 H   0  0  0  0  0  0  0  0  0  0  0  0
  1  2  1  0  0  0  0
  1 19  1  0  0  0  0
  1 20  1  0  0  0  0
  1 21  1  0  0  0  0
  2 18  1  0  0  0  0
  2  3  1  0  0  0  0
  2 22  1  0  0  0  0
  3  4  1  0  0  0  0
  3 23  1  0  0  0  0
  3 24  1  0  0  0  0
  4  5  1  0  0  0  0
  4 25  1  0  0  0  0
  4 26  1  0  0  0  0
  5  6  1  0  0  0  0
  5 27  1  0  0  0  0
  5 28  1  0  0  0  0
  6  7  1  0  0  0  0
  6 18  1  0  0  0  0
  6 39  1  0  0  0  0
  7  8  1  0  0  0  0
  7 29  1  0  0  0  0
  7 30  1  0  0  0  0
  8  9  1  0  0  0  0
  8 31  1  0  0  0  0
  8 32  1  0  0  0  0
  9 10  1  0  0  0  0
  9 33  1  0  0  0  0
 10 11  2  0  0  0  0
 10 12  1  0  0  0  0
 12 13  1  0  0  0  0
 12 34  1  0  0  0  0
 13 17  1  0  0  0  0
 13 14  2  0  0  0  0
 14 15  1  0  0  0  0
 15 16  2  0  0  0  0
 15 35  1  0  0  0  0
 16 17  1  0  0  0  0
 16 36  1  0  0  0  0
 18 37  1  0  0  0  0
 18 38  1  0  0  0  0
M  CHG  1   6   1
M  END
> <s_m_source_file>
AV-unprocessed.smi

> <i_m_source_file_index>
1278

> <i_lp_mmshare_version>
43012

> <i_f3d_flags>
0

> <s_epik_input>
W0NIM11bQ0BASF0xW0NIMl1bQ0gyXVtDSDJdTihbQ0gyXTEpW0NIMl1bQ0gyXVtOSF1DKD1PKVtOSF1jMm5bY0hdW2NIXXMy

> <s_epik_cmdline>
J2VwaWtfcHl0aG9uJywgJy1waCcsICc3LjAnLCAnLXRuJywgJzgnLCAnLW1hJywgJzIwMCcsICctbWV0YWxfYmluZGluZycsICctaW1hZScsICc8aW5maWxlLm1hZT4nLCAnLW9tYWUnLCAnPG91dGZpbGUubWFlPic=

> <r_lp_tautomer_probability>
0.999

> <r_epik_Ionization_Penalty>
0.00222194

> <r_epik_Ionization_Penalty_Charging>
0.00208169

> <r_epik_Ionization_Penalty_Neutral>
0.000140251

> <r_epik_State_Penalty>
0.00142585

> <r_epik_Charging_Adjusted_Penalty>
0.00350754

> <i_epik_Tot_Q>
1

> <i_epik_Tot_abs_Q>
1

> <r_epik_Metal_State_Penalty>
0.0570424

> <b_epik_Metal_Only>
0

> <s_lp_Force_Field>
OPLS_2005

> <r_lp_Energy>
14.0127

> <b_lp_Chiralities_Consistent>
1

> <s_lp_Variant>
AV-unprocessed.smi:1278-1

> <Gold.Version>
5.8.1

> <Gold.Id.Protein>
6NUR|6NUR_protein|mol2

> <Gold.PLP.Fitness>
45.6147

> <Gold.PLP.PLP>
-32.9123

> <Gold.PLP.part.hbond>
-4.8891

> <Gold.PLP.part.metal>
0.0000

> <Gold.PLP.part.buried>
-2.2885

> <Gold.PLP.part.nonpolar>
-25.1903

> <Gold.PLP.part.repulsive>
0.3890

> <Gold.PLP.ligand.clash>
0.0000

> <Gold.PLP.ligand.torsion>
0.7896

> <Gold.PLP.Chemscore.Hbond>
4.7520

> <Gold.PLP.Chemscore.CHOScore>
0.0000

> <Gold.PLP.Chemscore.Metal>
0.0000

> <Gold.Chemscore.Hbonds>
donor molecule, donor type, donor heavy atom, donor atom, acceptor molecule, acceptor atom, score
      L1  H     6    39       P1  7948  2.00
      L1  H     9    33       P1  7957  0.69
      L1  H    12    34       P1  7957  1.00
      P1  H  7989  7998       L1    14  1.00

> <Gold.PLP.Chemscore.Internal.Correction>
0.0255

> <Gold.Rescore>
     Score         DG    S(hbond)    S(metal)    S(lipo)     H(rot)  DE(clash)    DE(int)     intcor
     18.17     -21.04       3.69        0.00      62.74       1.60       0.02       2.85       ----

> <Gold.Chemscore.Fitness>
18.1713

> <Gold.Chemscore.DG>
-21.0389

> <Gold.Chemscore.ZeroCoef>
-5.4800

> <Gold.Chemscore.Hbond>
3.6871

> <Gold.Chemscore.Metal>
0.0000

> <Gold.Chemscore.Lipo>
62.7362

> <Gold.Chemscore.Internal_Hbond>
0.0000

> <Gold.Chemscore.DEClash>
0.0186

> <Gold.Chemscore.DEInternal>
2.8490

> <Gold.Chemscore.Rot>
1.6001

> <Gold.Chemscore.Internal.Correction>
   9.000000E+99

> <Gold.Chemscore.Hbonds>
donor molecule, donor type, donor heavy atom, donor atom, acceptor molecule, acceptor atom, score
      L1  H     6    39       P1  7948  1.00
      L1  H     9    33       P1  7957  0.40
      L1  H    12    34       P1  7957  0.98
      P1  H  7989  7998       L1    14  0.58

> <Gold.Chemscore.Hbond.Weighted>
-12.3151

> <Gold.Chemscore.Metal.Weighted>
-0.0000

> <Gold.Chemscore.Lipo.Weighted>
-7.3401

> <Gold.Chemscore.Internal_Hbond.Weighted>
0.0000

> <Gold.Chemscore.DEClash.Weighted>
0.0186

> <Gold.Chemscore.DEInternal.Weighted>
2.8490

> <Gold.Chemscore.Rot.Weighted>
4.0963

> <Gold.Chemscore.Internal.Correction.Weighted>
   9.000000E+99

> <Gold.Protein.RotatedTorsions>
[ 6907 6896 6895 6894 ] final   81.36 input  -60.11 | X-H torsion
[ 7974 7965 7964 7962 ] final   49.44 input  175.53 | X-H torsion
[ 8008 7997 7996 7995 ] final   53.91 input   59.86 | X-H torsion
[ 10167 10162 10161 10158 ] final   52.91 input  -65.29 | X-H torsion
[ 10718 10713 10712 10709 ] final   42.64 input   66.30 | X-H torsion
[ 10763 10752 10751 10750 ] final  -78.62 input  -60.55 | X-H torsion
[ 11005 11000 10999 10996 ] final  -78.79 input  -57.11 | X-H torsion

> <Gold.Protein.ActiveResidues>
 VAL166  LYS551  ARG553  GLY616  TRP617  ASP618  TYR619  PRO620  LYS621  CYS622 
 ASP623  PHE694  ASN695  SER759  ASP760  ASP761  ALA762  ILE779  LEU786  VAL792 
 PHE793  MET794  SER795  GLU796  ALA797  LYS798  CYS799  TRP800  GLU811  SER814 

> <Gold.Protein.RotatedAtoms>
  152.5266  134.3216  159.9150 H   0  0  0  0  0  0  0  0  0  0  0  0  # atno 6907 bound_to 6896
  151.3165  133.4052  159.2658 H   0  0  0  0  0  0  0  0  0  0  0  0  # atno 6908 bound_to 6896
  150.9995  134.9327  159.8003 H   0  0  0  0  0  0  0  0  0  0  0  0  # atno 6909 bound_to 6896
  146.0109  139.4542  142.9957 H   0  0  0  0  0  0  0  0  0  0  0  0  # atno 7974 bound_to 7965
  155.4761  140.3467  155.4333 H   0  0  0  0  0  0  0  0  0  0  0  0  # atno 8008 bound_to 7997
  156.1069  140.1450  156.9420 H   0  0  0  0  0  0  0  0  0  0  0  0  # atno 8009 bound_to 7997
  154.4730  140.0894  156.7172 H   0  0  0  0  0  0  0  0  0  0  0  0  # atno 8010 bound_to 7997
  140.2463  144.3528  150.6363 H   0  0  0  0  0  0  0  0  0  0  0  0  # atno 10167 bound_to 10162
  157.4070  130.7893  149.7398 H   0  0  0  0  0  0  0  0  0  0  0  0  # atno 10718 bound_to 10713
  154.5282  135.5723  153.6737 H   0  0  0  0  0  0  0  0  0  0  0  0  # atno 10763 bound_to 10752
  152.9933  135.6198  154.2664 H   0  0  0  0  0  0  0  0  0  0  0  0  # atno 10764 bound_to 10752
  154.2588  135.2857  155.2766 H   0  0  0  0  0  0  0  0  0  0  0  0  # atno 10765 bound_to 10752
  141.1666  133.7078  156.8026 H   0  0  0  0  0  0  0  0  0  0  0  0  # atno 11005 bound_to 11000
  145.7344  141.0031  143.1334 LP  0  0  0  0  0  0  0  0  0  0  0  0  # atno 17320 bound_to 7965
  144.6952  139.9023  143.7459 LP  0  0  0  0  0  0  0  0  0  0  0  0  # atno 17321 bound_to 7965
  140.6075  143.2168  151.6952 LP  0  0  0  0  0  0  0  0  0  0  0  0  # atno 17342 bound_to 10162
  139.5061  144.3695  152.0484 LP  0  0  0  0  0  0  0  0  0  0  0  0  # atno 17343 bound_to 10162
  155.9839  130.3996  150.3337 LP  0  0  0  0  0  0  0  0  0  0  0  0  # atno 17370 bound_to 10713
  157.1471  131.0311  151.2902 LP  0  0  0  0  0  0  0  0  0  0  0  0  # atno 17371 bound_to 10713
  140.2246  134.8732  157.3413 LP  0  0  0  0  0  0  0  0  0  0  0  0  # atno 17394 bound_to 11000
  140.1953  134.4321  155.7692 LP  0  0  0  0  0  0  0  0  0  0  0  0  # atno 17395 bound_to 11000

$$$$
