AV-unprocessed.smi:1696|AV-procd|sdf|6801|dock2
  -GOLD-   22720 7573D 1   1.00000     0.00000
 Structure written by MMmdl.
 38 39  0  0  0  0  0  0  0  0  3 V2000
  151.5129  137.3851  154.9191 C   0  0  0  0  0  0  0  0  0  0  0  0
  150.3122  138.3432  154.9704 C   0  0  0  0  0  0  0  0  0  0  0  0
  148.9443  137.6605  155.2441 C   0  0  2  0  0  0  0  0  0  0  0  0
  149.1054  136.2357  155.8413 C   0  0  0  0  0  0  0  0  0  0  0  0
  149.4321  136.2532  157.2634 N   0  0  0  0  0  0  0  0  0  0  0  0
  148.6569  135.7763  158.2473 C   0  0  0  0  0  0  0  0  0  0  0  0
  147.5721  135.2558  157.9767 O   0  0  0  0  0  0  0  0  0  0  0  0
  149.1836  135.9390  159.4812 N   0  5  0  0  0  0  0  0  0  0  0  0
  148.3859  135.9063  160.5610 C   0  0  0  0  0  0  0  0  0  0  0  0
  147.9694  137.0086  161.1946 N   0  0  0  0  0  0  0  0  0  0  0  0
  147.1439  136.7417  162.2884 C   0  0  0  0  0  0  0  0  0  0  0  0
  146.9194  135.4051  162.4866 C   0  0  0  0  0  0  0  0  0  0  0  0
  147.7438  134.4361  161.2989 S   0  0  0  0  0  0  0  0  0  0  0  0
  148.0736  137.6407  154.0326 N   0  3  0  0  0  0  0  0  0  0  0  0
  146.7520  136.9873  154.2134 C   0  0  0  0  0  0  0  0  0  0  0  0
  145.7370  137.7641  153.3624 C   0  0  0  0  0  0  0  0  0  0  0  0
  146.5754  138.7356  152.5392 C   0  0  0  0  0  0  0  0  0  0  0  0
  147.8064  138.9557  153.4102 C   0  0  0  0  0  0  0  0  0  0  0  0
  152.4274  137.9305  154.6848 H   0  0  0  0  0  0  0  0  0  0  0  0
  151.3836  136.6177  154.1560 H   0  0  0  0  0  0  0  0  0  0  0  0
  151.6701  136.8869  155.8757 H   0  0  0  0  0  0  0  0  0  0  0  0
  150.5036  139.0958  155.7356 H   0  0  0  0  0  0  0  0  0  0  0  0
  150.2700  138.9106  154.0409 H   0  0  0  0  0  0  0  0  0  0  0  0
  148.4283  138.2759  155.9828 H   0  0  0  0  0  0  0  0  0  0  0  0
  148.2008  135.6413  155.7095 H   0  0  0  0  0  0  0  0  0  0  0  0
  149.8937  135.6928  155.3202 H   0  0  0  0  0  0  0  0  0  0  0  0
  150.3146  136.6663  157.5275 H   0  0  0  0  0  0  0  0  0  0  0  0
  146.7587  137.5657  162.8702 H   0  0  0  0  0  0  0  0  0  0  0  0
  146.3229  134.9338  163.2530 H   0  0  0  0  0  0  0  0  0  0  0  0
  146.8175  135.9439  153.9034 H   0  0  0  0  0  0  0  0  0  0  0  0
  146.4369  137.0052  155.2580 H   0  0  0  0  0  0  0  0  0  0  0  0
  145.1286  137.1105  152.7364 H   0  0  0  0  0  0  0  0  0  0  0  0
  145.0615  138.3206  154.0138 H   0  0  0  0  0  0  0  0  0  0  0  0
  146.8676  138.2679  151.5978 H   0  0  0  0  0  0  0  0  0  0  0  0
  146.0484  139.6616  152.3068 H   0  0  0  0  0  0  0  0  0  0  0  0
  147.5835  139.6918  154.1846 H   0  0  0  0  0  0  0  0  0  0  0  0
  148.6549  139.3163  152.8284 H   0  0  0  0  0  0  0  0  0  0  0  0
  148.5586  137.0988  153.3320 H   0  0  0  0  0  0  0  0  0  0  0  0
  1  2  1  0  0  0  0
  1 19  1  0  0  0  0
  1 20  1  0  0  0  0
  1 21  1  0  0  0  0
  2  3  1  0  0  0  0
  2 22  1  0  0  0  0
  2 23  1  0  0  0  0
  3  4  1  0  0  0  0
  3 14  1  0  0  0  0
  3 24  1  0  0  0  0
  4  5  1  0  0  0  0
  4 25  1  0  0  0  0
  4 26  1  0  0  0  0
  5  6  1  0  0  0  0
  5 27  1  0  0  0  0
  6  7  2  0  0  0  0
  6  8  1  0  0  0  0
  8  9  1  0  0  0  0
  9 13  1  0  0  0  0
  9 10  2  0  0  0  0
 10 11  1  0  0  0  0
 11 12  2  0  0  0  0
 11 28  1  0  0  0  0
 12 13  1  0  0  0  0
 12 29  1  0  0  0  0
 14 18  1  0  0  0  0
 14 15  1  0  0  0  0
 14 38  1  0  0  0  0
 15 16  1  0  0  0  0
 15 30  1  0  0  0  0
 15 31  1  0  0  0  0
 16 17  1  0  0  0  0
 16 32  1  0  0  0  0
 16 33  1  0  0  0  0
 17 18  1  0  0  0  0
 17 34  1  0  0  0  0
 17 35  1  0  0  0  0
 18 36  1  0  0  0  0
 18 37  1  0  0  0  0
M  CHG  1   8  -1
M  CHG  1  14   1
M  END
> <s_m_source_file>
AV-unprocessed.smi

> <i_m_source_file_index>
1696

> <i_lp_mmshare_version>
43012

> <i_f3d_flags>
0

> <s_epik_input>
W0NIMl0xW0NIMl1bQ0gyXVtDSDJdTjFbQ0BIXShbQ0gyXVtDSDNdKVtDSDJdW05IXUMoPU8pW05IXWMybltjSF1bY0hdczI=

> <s_epik_cmdline>
J2VwaWtfcHl0aG9uJywgJy1waCcsICc3LjAnLCAnLXRuJywgJzgnLCAnLW1hJywgJzIwMCcsICctbWV0YWxfYmluZGluZycsICctaW1hZScsICc8aW5maWxlLm1hZT4nLCAnLW9tYWUnLCAnPG91dGZpbGUubWFlPic=

> <r_lp_tautomer_probability>
1

> <r_epik_Ionization_Penalty>
7.71903

> <r_epik_Ionization_Penalty_Charging>
6.3282

> <r_epik_Ionization_Penalty_Neutral>
1.39083

> <r_epik_State_Penalty>
6.32705

> <r_epik_Charging_Adjusted_Penalty>
12.6552

> <i_epik_Tot_Q>
0

> <i_epik_Tot_abs_Q>
2

> <r_epik_Metal_State_Penalty>
2.26116

> <b_epik_Metal_Only>
1

> <s_lp_Force_Field>
OPLS_2005

> <r_lp_Energy>
21.91

> <b_lp_Chiralities_Consistent>
1

> <s_lp_Variant>
AV-unprocessed.smi:1696-3

> <Gold.Version>
5.8.1

> <Gold.Id.Protein>
6NUR|6NUR_protein|mol2

> <Gold.PLP.Fitness>
40.6550

> <Gold.PLP.PLP>
-27.2844

> <Gold.PLP.part.hbond>
-4.0000

> <Gold.PLP.part.metal>
0.0000

> <Gold.PLP.part.buried>
-3.0534

> <Gold.PLP.part.nonpolar>
-21.1912

> <Gold.PLP.part.repulsive>
0.0511

> <Gold.PLP.ligand.clash>
0.0000

> <Gold.PLP.ligand.torsion>
1.6931

> <Gold.PLP.Chemscore.Hbond>
5.5292

> <Gold.PLP.Chemscore.CHOScore>
0.0000

> <Gold.PLP.Chemscore.Metal>
0.0000

> <Gold.Chemscore.Hbonds>
donor molecule, donor type, donor heavy atom, donor atom, acceptor molecule, acceptor atom, score
      L1  H    14    38       P1  7948  2.00
      P1  H  6896  6908       L1     8  2.00
      P1  H  6931  6943       L1    10  1.00
      P1  H  6934  6947       L1    10  0.34

> <Gold.PLP.Chemscore.Internal.Correction>
0.1693

> <Gold.Rescore>
     Score         DG    S(hbond)    S(metal)    S(lipo)     H(rot)  DE(clash)    DE(int)     intcor
     14.58     -16.27       2.44        0.00      60.36       1.73       0.01       1.69       ----

> <Gold.Chemscore.Fitness>
14.5777

> <Gold.Chemscore.DG>
-16.2733

> <Gold.Chemscore.ZeroCoef>
-5.4800

> <Gold.Chemscore.Hbond>
2.4408

> <Gold.Chemscore.Metal>
0.0000

> <Gold.Chemscore.Lipo>
60.3597

> <Gold.Chemscore.Internal_Hbond>
0.0000

> <Gold.Chemscore.DEClash>
0.0060

> <Gold.Chemscore.DEInternal>
1.6897

> <Gold.Chemscore.Rot>
1.7270

> <Gold.Chemscore.Internal.Correction>
   9.000000E+99

> <Gold.Chemscore.Hbonds>
donor molecule, donor type, donor heavy atom, donor atom, acceptor molecule, acceptor atom, score
      L1  H    14    38       P1  7948  1.00
      P1  H  6896  6908       L1     8  0.65
      P1  H  6931  6943       L1    10  0.25
      P1  H  6934  6947       L1    10  0.04

> <Gold.Chemscore.Hbond.Weighted>
-8.1524

> <Gold.Chemscore.Metal.Weighted>
-0.0000

> <Gold.Chemscore.Lipo.Weighted>
-7.0621

> <Gold.Chemscore.Internal_Hbond.Weighted>
0.0000

> <Gold.Chemscore.DEClash.Weighted>
0.0060

> <Gold.Chemscore.DEInternal.Weighted>
1.6897

> <Gold.Chemscore.Rot.Weighted>
4.4212

> <Gold.Chemscore.Internal.Correction.Weighted>
   9.000000E+99

> <Gold.Protein.RotatedTorsions>
[ 6907 6896 6895 6894 ] final -172.20 input  -60.11 | X-H torsion
[ 7974 7965 7964 7962 ] final -154.69 input  175.53 | X-H torsion
[ 8008 7997 7996 7995 ] final   55.87 input   59.86 | X-H torsion
[ 10167 10162 10161 10158 ] final  131.54 input  -65.29 | X-H torsion
[ 10718 10713 10712 10709 ] final  -60.71 input   66.30 | X-H torsion
[ 10763 10752 10751 10750 ] final   32.99 input  -60.55 | X-H torsion
[ 11005 11000 10999 10996 ] final   44.53 input  -57.11 | X-H torsion

> <Gold.Protein.ActiveResidues>
 VAL166  LYS551  ARG553  GLY616  TRP617  ASP618  TYR619  PRO620  LYS621  CYS622 
 ASP623  PHE694  ASN695  SER759  ASP760  ASP761  ALA762  ILE779  LEU786  VAL792 
 PHE793  MET794  SER795  GLU796  ALA797  LYS798  CYS799  TRP800  GLU811  SER814 

> <Gold.Protein.RotatedAtoms>
  151.5362  133.3440  159.2926 H   0  0  0  0  0  0  0  0  0  0  0  0  # atno 6907 bound_to 6896
  150.8563  134.7905  159.7059 H   0  0  0  0  0  0  0  0  0  0  0  0  # atno 6908 bound_to 6896
  152.4596  134.5223  159.9838 H   0  0  0  0  0  0  0  0  0  0  0  0  # atno 6909 bound_to 6896
  144.7677  140.4353  143.5930 H   0  0  0  0  0  0  0  0  0  0  0  0  # atno 7974 bound_to 7965
  155.5083  140.3476  155.4383 H   0  0  0  0  0  0  0  0  0  0  0  0  # atno 8008 bound_to 7997
  156.0867  140.1400  156.9672 H   0  0  0  0  0  0  0  0  0  0  0  0  # atno 8009 bound_to 7997
  154.4611  140.0934  156.6871 H   0  0  0  0  0  0  0  0  0  0  0  0  # atno 8010 bound_to 7997
  139.5379  144.6701  151.4723 H   0  0  0  0  0  0  0  0  0  0  0  0  # atno 10167 bound_to 10162
  156.0972  130.4191  150.0891 H   0  0  0  0  0  0  0  0  0  0  0  0  # atno 10718 bound_to 10713
  153.0234  135.6399  154.1441 H   0  0  0  0  0  0  0  0  0  0  0  0  # atno 10763 bound_to 10752
  154.1173  135.2849  155.3218 H   0  0  0  0  0  0  0  0  0  0  0  0  # atno 10764 bound_to 10752
  154.6289  135.5499  153.7720 H   0  0  0  0  0  0  0  0  0  0  0  0  # atno 10765 bound_to 10752
  140.1543  134.4422  155.8360 H   0  0  0  0  0  0  0  0  0  0  0  0  # atno 11005 bound_to 11000
  145.6420  139.1551  143.2910 LP  0  0  0  0  0  0  0  0  0  0  0  0  # atno 17320 bound_to 7965
  146.1797  140.6516  142.9195 LP  0  0  0  0  0  0  0  0  0  0  0  0  # atno 17321 bound_to 7965
  140.6595  143.8529  150.6872 LP  0  0  0  0  0  0  0  0  0  0  0  0  # atno 17342 bound_to 10162
  140.1919  143.4030  152.1857 LP  0  0  0  0  0  0  0  0  0  0  0  0  # atno 17343 bound_to 10162
  156.8887  130.9581  151.3591 LP  0  0  0  0  0  0  0  0  0  0  0  0  # atno 17370 bound_to 10713
  157.6135  130.8601  149.8990 LP  0  0  0  0  0  0  0  0  0  0  0  0  # atno 17371 bound_to 10713
  141.2202  133.6886  156.7479 LP  0  0  0  0  0  0  0  0  0  0  0  0  # atno 17394 bound_to 11000
  140.2566  134.8499  157.3719 LP  0  0  0  0  0  0  0  0  0  0  0  0  # atno 17395 bound_to 11000

$$$$
