AV-unprocessed.smi:749|AV-procd|sdf|3586|dock8
  -GOLD-   22720 0583D 1   1.00000     0.00000
 Structure written by MMmdl.
 42 43  0  0  0  0  0  0  0  0  2 V2000
  152.2997  144.4777  161.8061 C   0  0  0  0  0  0  0  0  0  0  0  0
  152.2328  143.8443  160.4881 N   0  0  0  0  0  0  0  0  0  0  0  0
  152.4516  142.3895  160.4901 C   0  0  0  0  0  0  0  0  0  0  0  0
  152.7457  141.7954  159.1022 C   0  0  1  0  0  0  0  0  0  0  0  0
  152.6430  140.3403  159.1584 N   0  0  0  0  0  0  0  0  0  0  0  0
  153.6674  139.4656  159.1985 C   0  0  0  0  0  0  0  0  0  0  0  0
  154.8197  139.8972  159.1847 O   0  0  0  0  0  0  0  0  0  0  0  0
  153.3690  138.1401  159.2518 N   0  5  0  0  0  0  0  0  0  0  0  0
  153.7591  137.3469  160.2649 C   0  0  0  0  0  0  0  0  0  0  0  0
  154.0748  137.7734  161.5832 C   0  0  0  0  0  0  0  0  0  0  0  0
  154.4040  136.6104  162.2241 C   0  0  0  0  0  0  0  0  0  0  0  0
  154.8271  136.2877  163.6295 C   0  0  0  0  0  0  0  0  0  0  0  0
  156.1648  136.9747  163.9701 C   0  0  0  0  0  0  0  0  0  0  0  0
  155.0063  134.7664  163.7899 C   0  0  0  0  0  0  0  0  0  0  0  0
  153.7608  136.7805  164.6258 C   0  0  0  0  0  0  0  0  0  0  0  0
  154.3066  135.5629  161.3585 O   0  0  0  0  0  0  0  0  0  0  0  0
  153.9008  136.0422  160.1082 N   0  0  0  0  0  0  0  0  0  0  0  0
  151.7628  142.3717  158.0782 C   0  0  0  0  0  0  0  0  0  0  0  0
  151.8916  143.8983  158.0135 C   0  0  0  0  0  0  0  0  0  0  0  0
  151.9176  144.5765  159.3921 C   0  0  0  0  0  0  0  0  0  0  0  0
  151.6791  145.7833  159.4490 O   0  0  0  0  0  0  0  0  0  0  0  0
  153.1167  145.1993  161.8411 H   0  0  0  0  0  0  0  0  0  0  0  0
  152.4636  143.7524  162.6041 H   0  0  0  0  0  0  0  0  0  0  0  0
  151.3703  145.0024  162.0324 H   0  0  0  0  0  0  0  0  0  0  0  0
  153.2712  142.1383  161.1650 H   0  0  0  0  0  0  0  0  0  0  0  0
  151.5544  141.9279  160.9060 H   0  0  0  0  0  0  0  0  0  0  0  0
  153.7620  142.0757  158.8177 H   0  0  0  0  0  0  0  0  0  0  0  0
  151.7100  139.9548  159.1655 H   0  0  0  0  0  0  0  0  0  0  0  0
  154.0543  138.7729  161.9915 H   0  0  0  0  0  0  0  0  0  0  0  0
  156.4815  136.7477  164.9888 H   0  0  0  0  0  0  0  0  0  0  0  0
  156.0881  138.0596  163.8866 H   0  0  0  0  0  0  0  0  0  0  0  0
  156.9616  136.6485  163.3003 H   0  0  0  0  0  0  0  0  0  0  0  0
  155.7595  134.3825  163.1010 H   0  0  0  0  0  0  0  0  0  0  0  0
  154.0770  134.2314  163.5910 H   0  0  0  0  0  0  0  0  0  0  0  0
  155.3222  134.5061  164.8007 H   0  0  0  0  0  0  0  0  0  0  0  0
  154.0490  136.5685  165.6560 H   0  0  0  0  0  0  0  0  0  0  0  0
  152.7979  136.2988  164.4515 H   0  0  0  0  0  0  0  0  0  0  0  0
  153.6084  137.8573  164.5412 H   0  0  0  0  0  0  0  0  0  0  0  0
  151.9510  141.9493  157.0905 H   0  0  0  0  0  0  0  0  0  0  0  0
  150.7407  142.0966  158.3429 H   0  0  0  0  0  0  0  0  0  0  0  0
  152.8170  144.1618  157.5000 H   0  0  0  0  0  0  0  0  0  0  0  0
  151.0771  144.3140  157.4193 H   0  0  0  0  0  0  0  0  0  0  0  0
  1  2  1  0  0  0  0
  1 22  1  0  0  0  0
  1 23  1  0  0  0  0
  1 24  1  0  0  0  0
  2 20  1  0  0  0  0
  2  3  1  0  0  0  0
  3  4  1  0  0  0  0
  3 25  1  0  0  0  0
  3 26  1  0  0  0  0
  4  5  1  0  0  0  0
  4 18  1  0  0  0  0
  4 27  1  0  0  0  0
  5  6  1  0  0  0  0
  5 28  1  0  0  0  0
  6  7  2  0  0  0  0
  6  8  1  0  0  0  0
  8  9  1  0  0  0  0
  9 17  2  0  0  0  0
  9 10  1  0  0  0  0
 10 11  2  0  0  0  0
 10 29  1  0  0  0  0
 11 12  1  0  0  0  0
 11 16  1  0  0  0  0
 12 13  1  0  0  0  0
 12 14  1  0  0  0  0
 12 15  1  0  0  0  0
 13 30  1  0  0  0  0
 13 31  1  0  0  0  0
 13 32  1  0  0  0  0
 14 33  1  0  0  0  0
 14 34  1  0  0  0  0
 14 35  1  0  0  0  0
 15 36  1  0  0  0  0
 15 37  1  0  0  0  0
 15 38  1  0  0  0  0
 16 17  1  0  0  0  0
 18 19  1  0  0  0  0
 18 39  1  0  0  0  0
 18 40  1  0  0  0  0
 19 20  1  0  0  0  0
 19 41  1  0  0  0  0
 19 42  1  0  0  0  0
 20 21  2  0  0  0  0
M  CHG  1   8  -1
M  END
> <s_m_source_file>
AV-unprocessed.smi

> <i_m_source_file_index>
749

> <i_lp_mmshare_version>
43012

> <i_f3d_flags>
0

> <s_epik_input>
Tz1DMVtDSDJdW0NIMl1bQ0BASF0oW0NIMl1OMVtDSDNdKVtOSF1DKD1PKVtOSF1jMltjSF1jKG9uMilDKFtDSDNdKShbQ0gzXSlbQ0gzXQ==

> <s_epik_cmdline>
J2VwaWtfcHl0aG9uJywgJy1waCcsICc3LjAnLCAnLXRuJywgJzgnLCAnLW1hJywgJzIwMCcsICctbWV0YWxfYmluZGluZycsICctaW1hZScsICc8aW5maWxlLm1hZT4nLCAnLW9tYWUnLCAnPG91dGZpbGUubWFlPic=

> <r_lp_tautomer_probability>
1

> <r_epik_Ionization_Penalty>
6.47858

> <r_epik_Ionization_Penalty_Charging>
6.47844

> <r_epik_Ionization_Penalty_Neutral>
0.000138814

> <r_epik_State_Penalty>
6.47843

> <r_epik_Charging_Adjusted_Penalty>
12.9569

> <i_epik_Tot_Q>
-1

> <i_epik_Tot_abs_Q>
1

> <r_epik_Metal_State_Penalty>
2.40644

> <b_epik_Metal_Only>
1

> <s_lp_Force_Field>
OPLS_2005

> <r_lp_Energy>
10.0232

> <b_lp_Chiralities_Consistent>
1

> <s_lp_Variant>
AV-unprocessed.smi:749-3

> <Gold.Version>
5.8.1

> <Gold.Id.Protein>
6NUR|6NUR_protein|mol2

> <Gold.PLP.Fitness>
45.9637

> <Gold.PLP.PLP>
-43.1428

> <Gold.PLP.part.hbond>
-3.0000

> <Gold.PLP.part.metal>
0.0000

> <Gold.PLP.part.buried>
-4.0350

> <Gold.PLP.part.nonpolar>
-36.5503

> <Gold.PLP.part.repulsive>
0.2732

> <Gold.PLP.ligand.clash>
0.0000

> <Gold.PLP.ligand.torsion>
0.9288

> <Gold.PLP.Chemscore.Hbond>
1.5500

> <Gold.PLP.Chemscore.CHOScore>
0.0000

> <Gold.PLP.Chemscore.Metal>
0.0000

> <Gold.Chemscore.Hbonds>
donor molecule, donor type, donor heavy atom, donor atom, acceptor molecule, acceptor atom, score
      P1  H  6896  6908       L1    17  0.55
      P1  H  7997  8010       L1     7  1.00

> <Gold.PLP.Chemscore.Internal.Correction>
0.0285

> <Gold.Rescore>
     Score         DG    S(hbond)    S(metal)    S(lipo)     H(rot)  DE(clash)    DE(int)     intcor
     17.92     -18.88       1.94        0.00      85.68       1.22       0.03       0.92       ----

> <Gold.Chemscore.Fitness>
17.9228

> <Gold.Chemscore.DG>
-18.8772

> <Gold.Chemscore.ZeroCoef>
-5.4800

> <Gold.Chemscore.Hbond>
1.9449

> <Gold.Chemscore.Metal>
0.0000

> <Gold.Chemscore.Lipo>
85.6753

> <Gold.Chemscore.Internal_Hbond>
0.0000

> <Gold.Chemscore.DEClash>
0.0311

> <Gold.Chemscore.DEInternal>
0.9232

> <Gold.Chemscore.Rot>
1.2198

> <Gold.Chemscore.Internal.Correction>
   9.000000E+99

> <Gold.Chemscore.Hbonds>
donor molecule, donor type, donor heavy atom, donor atom, acceptor molecule, acceptor atom, score
      P1  H  6896  6908       L1    17  0.03
      P1  H  7997  8010       L1     7  0.39

> <Gold.Chemscore.Hbond.Weighted>
-6.4959

> <Gold.Chemscore.Metal.Weighted>
-0.0000

> <Gold.Chemscore.Lipo.Weighted>
-10.0240

> <Gold.Chemscore.Internal_Hbond.Weighted>
0.0000

> <Gold.Chemscore.DEClash.Weighted>
0.0311

> <Gold.Chemscore.DEInternal.Weighted>
0.9232

> <Gold.Chemscore.Rot.Weighted>
3.1228

> <Gold.Chemscore.Internal.Correction.Weighted>
   9.000000E+99

> <Gold.Protein.RotatedTorsions>
[ 6907 6896 6895 6894 ] final  -61.29 input  -60.11 | X-H torsion
[ 7974 7965 7964 7962 ] final  -33.75 input  175.53 | X-H torsion
[ 8008 7997 7996 7995 ] final   -4.13 input   59.86 | X-H torsion
[ 10167 10162 10161 10158 ] final -153.06 input  -65.29 | X-H torsion
[ 10718 10713 10712 10709 ] final   43.48 input   66.30 | X-H torsion
[ 10763 10752 10751 10750 ] final   79.61 input  -60.55 | X-H torsion
[ 11005 11000 10999 10996 ] final  163.78 input  -57.11 | X-H torsion

> <Gold.Protein.ActiveResidues>
 VAL166  LYS551  ARG553  GLY616  TRP617  ASP618  TYR619  PRO620  LYS621  CYS622 
 ASP623  PHE694  ASN695  SER759  ASP760  ASP761  ALA762  ILE779  LEU786  VAL792 
 PHE793  MET794  SER795  GLU796  ALA797  LYS798  CYS799  TRP800  GLU811  SER814 

> <Gold.Protein.RotatedAtoms>
  150.7795  134.6724  159.6398 H   0  0  0  0  0  0  0  0  0  0  0  0  # atno 6907 bound_to 6896
  152.3875  134.6491  160.0129 H   0  0  0  0  0  0  0  0  0  0  0  0  # atno 6908 bound_to 6896
  151.6801  133.3275  159.3254 H   0  0  0  0  0  0  0  0  0  0  0  0  # atno 6909 bound_to 6896
  146.0885  140.5955  142.8875 H   0  0  0  0  0  0  0  0  0  0  0  0  # atno 7974 bound_to 7965
  154.6176  140.2492  155.7590 H   0  0  0  0  0  0  0  0  0  0  0  0  # atno 8008 bound_to 7997
  156.2408  140.2933  156.0387 H   0  0  0  0  0  0  0  0  0  0  0  0  # atno 8009 bound_to 7997
  155.1950  140.0392  157.2897 H   0  0  0  0  0  0  0  0  0  0  0  0  # atno 8010 bound_to 7997
  139.7128  143.9081  152.2475 H   0  0  0  0  0  0  0  0  0  0  0  0  # atno 10167 bound_to 10162
  157.4164  130.7944  149.7476 H   0  0  0  0  0  0  0  0  0  0  0  0  # atno 10718 bound_to 10713
  153.0966  135.4833  154.8790 H   0  0  0  0  0  0  0  0  0  0  0  0  # atno 10763 bound_to 10752
  154.7332  135.3065  154.8859 H   0  0  0  0  0  0  0  0  0  0  0  0  # atno 10764 bound_to 10752
  153.9488  135.6825  153.4797 H   0  0  0  0  0  0  0  0  0  0  0  0  # atno 10765 bound_to 10752
  140.2392  134.8064  157.3394 H   0  0  0  0  0  0  0  0  0  0  0  0  # atno 11005 bound_to 11000
  144.7343  140.4763  143.6915 LP  0  0  0  0  0  0  0  0  0  0  0  0  # atno 17320 bound_to 7965
  145.6084  139.1510  143.3089 LP  0  0  0  0  0  0  0  0  0  0  0  0  # atno 17321 bound_to 7965
  139.8955  144.6941  150.8723 LP  0  0  0  0  0  0  0  0  0  0  0  0  # atno 17342 bound_to 10162
  140.7737  143.3554  151.1932 LP  0  0  0  0  0  0  0  0  0  0  0  0  # atno 17343 bound_to 10162
  155.9866  130.3973  150.3203 LP  0  0  0  0  0  0  0  0  0  0  0  0  # atno 17370 bound_to 10713
  157.1346  131.0281  151.2954 LP  0  0  0  0  0  0  0  0  0  0  0  0  # atno 17371 bound_to 10713
  140.1670  134.4656  155.7856 LP  0  0  0  0  0  0  0  0  0  0  0  0  # atno 17394 bound_to 11000
  141.2212  133.6925  156.7643 LP  0  0  0  0  0  0  0  0  0  0  0  0  # atno 17395 bound_to 11000

$$$$
