AV-unprocessed.smi:320|AV-procd|sdf|2332|dock1
  -GOLD-   2262022233D 1   1.00000     0.00000
 Structure written by MMmdl.
 49 52  0  0  0  0  0  0  0  0  1 V2000
  149.0412  136.6570  155.3430 C   0  0  0  0  0  0  0  0  0  0  0  0
  149.2511  137.3732  156.6928 C   0  0  2  0  0  0  0  0  0  0  0  0
  148.1540  137.0062  157.5896 N   0  0  0  0  0  0  0  0  0  0  0  0
  148.1495  135.9749  158.4477 C   0  0  0  0  0  0  0  0  0  0  0  0
  149.1040  135.2092  158.5904 O   0  0  0  0  0  0  0  0  0  0  0  0
  146.8670  135.8016  159.2743 C   0  0  0  0  0  0  0  0  0  0  0  0
  147.1078  135.7505  160.7260 N   0  0  0  0  0  0  0  0  0  0  0  0
  146.7644  134.5561  161.3901 C   0  0  0  0  0  0  0  0  0  0  0  0
  146.9361  134.4043  162.7127 C   0  0  0  0  0  0  0  0  0  0  0  0
  147.4904  135.5081  163.4601 C   0  0  0  0  0  0  0  0  0  0  0  0
  147.8187  136.6567  162.8356 C   0  0  0  0  0  0  0  0  0  0  0  0
  147.6302  136.8278  161.3901 C   0  0  0  0  0  0  0  0  0  0  0  0
  147.9233  137.8750  160.8122 O   0  0  0  0  0  0  0  0  0  0  0  0
  149.4083  138.9252  156.6092 C   0  0  0  0  0  0  0  0  0  0  0  0
  150.5774  139.2785  155.6421 C   0  0  0  0  0  0  0  0  0  0  0  0
  150.7493  140.8064  155.5158 C   0  0  2  0  0  0  0  0  0  0  0  0
  151.0585  141.4043  156.9035 C   0  0  0  0  0  0  0  0  0  0  0  0
  149.8896  141.0937  157.8607 C   0  0  1  0  0  0  0  0  0  0  0  0
  148.5906  141.7157  157.3083 C   0  0  0  0  0  0  0  0  0  0  0  0
  148.2914  141.1151  155.9191 C   0  0  1  0  0  0  0  0  0  0  0  0
  149.4540  141.4270  154.9567 C   0  0  0  0  0  0  0  0  0  0  0  0
  148.1175  139.5864  156.0456 C   0  0  0  0  0  0  0  0  0  0  0  0
  149.7182  139.5645  157.9943 C   0  0  0  0  0  0  0  0  0  0  0  0
  149.8870  136.7949  154.6708 H   0  0  0  0  0  0  0  0  0  0  0  0
  148.1427  137.0022  154.8326 H   0  0  0  0  0  0  0  0  0  0  0  0
  148.9346  135.5815  155.4893 H   0  0  0  0  0  0  0  0  0  0  0  0
  150.1828  136.9864  157.1103 H   0  0  0  0  0  0  0  0  0  0  0  0
  147.3270  137.5839  157.5469 H   0  0  0  0  0  0  0  0  0  0  0  0
  146.1904  136.6211  159.0281 H   0  0  0  0  0  0  0  0  0  0  0  0
  146.3492  134.8971  158.9485 H   0  0  0  0  0  0  0  0  0  0  0  0
  146.3493  133.7824  160.7605 H   0  0  0  0  0  0  0  0  0  0  0  0
  146.6625  133.4826  163.2049 H   0  0  0  0  0  0  0  0  0  0  0  0
  147.6417  135.4130  164.5253 H   0  0  0  0  0  0  0  0  0  0  0  0
  148.2305  137.4726  163.4114 H   0  0  0  0  0  0  0  0  0  0  0  0
  151.5160  138.8465  155.9906 H   0  0  0  0  0  0  0  0  0  0  0  0
  150.3943  138.8467  154.6573 H   0  0  0  0  0  0  0  0  0  0  0  0
  151.5749  141.0226  154.8369 H   0  0  0  0  0  0  0  0  0  0  0  0
  151.9885  140.9905  157.2953 H   0  0  0  0  0  0  0  0  0  0  0  0
  151.2084  142.4819  156.8259 H   0  0  0  0  0  0  0  0  0  0  0  0
  150.1044  141.5192  158.8414 H   0  0  0  0  0  0  0  0  0  0  0  0
  147.7605  141.5263  157.9900 H   0  0  0  0  0  0  0  0  0  0  0  0
  148.6908  142.7995  157.2377 H   0  0  0  0  0  0  0  0  0  0  0  0
  147.3722  141.5521  155.5276 H   0  0  0  0  0  0  0  0  0  0  0  0
  149.5704  142.5052  154.8395 H   0  0  0  0  0  0  0  0  0  0  0  0
  149.2403  141.0291  153.9637 H   0  0  0  0  0  0  0  0  0  0  0  0
  147.8669  139.1593  155.0736 H   0  0  0  0  0  0  0  0  0  0  0  0
  147.2648  139.3903  156.6951 H   0  0  0  0  0  0  0  0  0  0  0  0
  148.9160  139.3553  158.7022 H   0  0  0  0  0  0  0  0  0  0  0  0
  150.6240  139.1369  158.4254 H   0  0  0  0  0  0  0  0  0  0  0  0
  1  2  1  0  0  0  0
  1 24  1  0  0  0  0
  1 25  1  0  0  0  0
  1 26  1  0  0  0  0
  2  3  1  0  0  0  0
  2 14  1  0  0  0  0
  2 27  1  0  0  0  0
  3  4  1  0  0  0  0
  3 28  1  0  0  0  0
  4  5  2  0  0  0  0
  4  6  1  0  0  0  0
  6  7  1  0  0  0  0
  6 29  1  0  0  0  0
  6 30  1  0  0  0  0
  7 12  1  0  0  0  0
  7  8  1  0  0  0  0
  8  9  2  0  0  0  0
  8 31  1  0  0  0  0
  9 10  1  0  0  0  0
  9 32  1  0  0  0  0
 10 11  2  0  0  0  0
 10 33  1  0  0  0  0
 11 12  1  0  0  0  0
 11 34  1  0  0  0  0
 12 13  2  0  0  0  0
 14 22  1  0  0  0  0
 14 23  1  0  0  0  0
 14 15  1  0  0  0  0
 15 16  1  0  0  0  0
 15 35  1  0  0  0  0
 15 36  1  0  0  0  0
 16 21  1  0  0  0  0
 16 17  1  0  0  0  0
 16 37  1  0  0  0  0
 17 18  1  0  0  0  0
 17 38  1  0  0  0  0
 17 39  1  0  0  0  0
 18 19  1  0  0  0  0
 18 23  1  0  0  0  0
 18 40  1  0  0  0  0
 19 20  1  0  0  0  0
 19 41  1  0  0  0  0
 19 42  1  0  0  0  0
 20 21  1  0  0  0  0
 20 22  1  0  0  0  0
 20 43  1  0  0  0  0
 21 44  1  0  0  0  0
 21 45  1  0  0  0  0
 22 46  1  0  0  0  0
 22 47  1  0  0  0  0
 23 48  1  0  0  0  0
 23 49  1  0  0  0  0
M  END
> <s_m_source_file>
AV-unprocessed.smi

> <i_m_source_file_index>
320

> <i_lp_mmshare_version>
43012

> <i_f3d_flags>
0

> <s_epik_input>
W0NIMl0xW0NAQEhdKFtDSDJdMilbQ0gyXVtDQEBIXShbQ0gyXTMpW0NIMl1bQ0BIXTFbQ0gyXUMyM1tDQEhdKFtDSDNdKVtOSF1DKD1PKVtDSDJdbjRbY0hdW2NIXVtjSF1bY0hdYzQ9Tw==

> <s_epik_cmdline>
J2VwaWtfcHl0aG9uJywgJy1waCcsICc3LjAnLCAnLXRuJywgJzgnLCAnLW1hJywgJzIwMCcsICctbWV0YWxfYmluZGluZycsICctaW1hZScsICc8aW5maWxlLm1hZT4nLCAnLW9tYWUnLCAnPG91dGZpbGUubWFlPic=

> <r_lp_tautomer_probability>
1

> <r_epik_Ionization_Penalty>
4.15949e-07

> <r_epik_Ionization_Penalty_Charging>
3.97363e-07

> <r_epik_Ionization_Penalty_Neutral>
1.85865e-08

> <r_epik_State_Penalty>
-0

> <r_epik_Charging_Adjusted_Penalty>
3.97363e-07

> <i_epik_Tot_Q>
0

> <i_epik_Tot_abs_Q>
0

> <r_epik_Metal_State_Penalty>
-0

> <b_epik_Metal_Only>
0

> <s_lp_Force_Field>
OPLS_2005

> <r_lp_Energy>
45.4177

> <b_lp_Chiralities_Consistent>
1

> <s_lp_Variant>
AV-unprocessed.smi:320-1

> <Gold.Version>
5.8.1

> <Gold.Id.Protein>
6NUR|6NUR_protein|mol2

> <Gold.PLP.Fitness>
41.4647

> <Gold.PLP.PLP>
-34.5953

> <Gold.PLP.part.hbond>
-3.0000

> <Gold.PLP.part.metal>
0.0000

> <Gold.PLP.part.buried>
-2.8438

> <Gold.PLP.part.nonpolar>
-29.4162

> <Gold.PLP.part.repulsive>
0.0105

> <Gold.PLP.ligand.clash>
0.0000

> <Gold.PLP.ligand.torsion>
0.3959

> <Gold.PLP.Chemscore.Hbond>
2.5213

> <Gold.PLP.Chemscore.CHOScore>
0.0000

> <Gold.PLP.Chemscore.Metal>
0.0000

> <Gold.Chemscore.Hbonds>
donor molecule, donor type, donor heavy atom, donor atom, acceptor molecule, acceptor atom, score
      P1  H  6896  6908       L1     5  0.44
      P1  H  6931  6943       L1    13  0.34
      P1  H  6934  6947       L1    13  0.34

> <Gold.PLP.Chemscore.Internal.Correction>
0.0974

> <Gold.Rescore>
     Score         DG    S(hbond)    S(metal)    S(lipo)     H(rot)  DE(clash)    DE(int)     intcor
     15.60     -16.12       1.47        0.00      82.16       1.52       0.05       0.47       ----

> <Gold.Chemscore.Fitness>
15.5950

> <Gold.Chemscore.DG>
-16.1161

> <Gold.Chemscore.ZeroCoef>
-5.4800

> <Gold.Chemscore.Hbond>
1.4715

> <Gold.Chemscore.Metal>
0.0000

> <Gold.Chemscore.Lipo>
82.1629

> <Gold.Chemscore.Internal_Hbond>
0.0000

> <Gold.Chemscore.DEClash>
0.0529

> <Gold.Chemscore.DEInternal>
0.4683

> <Gold.Chemscore.Rot>
1.5202

> <Gold.Chemscore.Internal.Correction>
   9.000000E+99

> <Gold.Chemscore.Hbonds>
donor molecule, donor type, donor heavy atom, donor atom, acceptor molecule, acceptor atom, score
      P1  H  6896  6908       L1     5  0.44
      P1  H  6931  6943       L1    13  0.03
      P1  H  6934  6947       L1    13  0.35

> <Gold.Chemscore.Hbond.Weighted>
-4.9147

> <Gold.Chemscore.Metal.Weighted>
-0.0000

> <Gold.Chemscore.Lipo.Weighted>
-9.6131

> <Gold.Chemscore.Internal_Hbond.Weighted>
0.0000

> <Gold.Chemscore.DEClash.Weighted>
0.0529

> <Gold.Chemscore.DEInternal.Weighted>
0.4683

> <Gold.Chemscore.Rot.Weighted>
3.8916

> <Gold.Chemscore.Internal.Correction.Weighted>
   9.000000E+99

> <Gold.Protein.RotatedTorsions>
[ 6907 6896 6895 6894 ] final  128.24 input  -60.11 | X-H torsion
[ 7974 7965 7964 7962 ] final  144.73 input  175.53 | X-H torsion
[ 8008 7997 7996 7995 ] final -116.06 input   59.86 | X-H torsion
[ 10167 10162 10161 10158 ] final  109.75 input  -65.29 | X-H torsion
[ 10718 10713 10712 10709 ] final   84.31 input   66.30 | X-H torsion
[ 10763 10752 10751 10750 ] final   26.60 input  -60.55 | X-H torsion
[ 11005 11000 10999 10996 ] final  -40.28 input  -57.11 | X-H torsion

> <Gold.Protein.ActiveResidues>
 VAL166  LYS551  ARG553  GLY616  TRP617  ASP618  TYR619  PRO620  LYS621  CYS622 
 ASP623  PHE694  ASN695  SER759  ASP760  ASP761  ALA762  ILE779  LEU786  VAL792 
 PHE793  MET794  SER795  GLU796  ALA797  LYS798  CYS799  TRP800  GLU811  SER814 

> <Gold.Protein.RotatedAtoms>
  152.3738  133.6454  159.6107 H   0  0  0  0  0  0  0  0  0  0  0  0  # atno 6907 bound_to 6896
  150.7688  133.9226  159.3411 H   0  0  0  0  0  0  0  0  0  0  0  0  # atno 6908 bound_to 6896
  151.7044  135.0925  160.0308 H   0  0  0  0  0  0  0  0  0  0  0  0  # atno 6909 bound_to 6896
  144.8811  139.5697  143.5842 H   0  0  0  0  0  0  0  0  0  0  0  0  # atno 7974 bound_to 7965
  155.0619  140.0393  157.2579 H   0  0  0  0  0  0  0  0  0  0  0  0  # atno 8008 bound_to 7997
  154.7052  140.2681  155.6657 H   0  0  0  0  0  0  0  0  0  0  0  0  # atno 8009 bound_to 7997
  156.2773  140.2732  156.1676 H   0  0  0  0  0  0  0  0  0  0  0  0  # atno 8010 bound_to 7997
  139.6742  144.7123  151.1633 H   0  0  0  0  0  0  0  0  0  0  0  0  # atno 10167 bound_to 10162
  157.6896  131.0128  150.2654 H   0  0  0  0  0  0  0  0  0  0  0  0  # atno 10718 bound_to 10713
  153.0612  135.6556  154.0459 H   0  0  0  0  0  0  0  0  0  0  0  0  # atno 10763 bound_to 10752
  154.0127  135.2927  155.3392 H   0  0  0  0  0  0  0  0  0  0  0  0  # atno 10764 bound_to 10752
  154.6950  135.5267  153.8514 H   0  0  0  0  0  0  0  0  0  0  0  0  # atno 10765 bound_to 10752
  141.0163  133.6884  156.2300 H   0  0  0  0  0  0  0  0  0  0  0  0  # atno 11005 bound_to 11000
  146.2995  139.7382  142.9102 LP  0  0  0  0  0  0  0  0  0  0  0  0  # atno 17320 bound_to 7965
  145.3952  141.0378  143.3101 LP  0  0  0  0  0  0  0  0  0  0  0  0  # atno 17321 bound_to 7965
  140.7629  143.5798  150.8907 LP  0  0  0  0  0  0  0  0  0  0  0  0  # atno 17342 bound_to 10162
  139.9465  143.6321  152.3040 LP  0  0  0  0  0  0  0  0  0  0  0  0  # atno 17343 bound_to 10162
  156.3226  130.3788  149.7562 LP  0  0  0  0  0  0  0  0  0  0  0  0  # atno 17370 bound_to 10713
  156.5127  130.8179  151.3175 LP  0  0  0  0  0  0  0  0  0  0  0  0  # atno 17371 bound_to 10713
  140.6649  134.4929  157.5585 LP  0  0  0  0  0  0  0  0  0  0  0  0  # atno 17394 bound_to 11000
  139.9119  134.8327  156.1499 LP  0  0  0  0  0  0  0  0  0  0  0  0  # atno 17395 bound_to 11000

$$$$
