AV-unprocessed.smi:1401|AV-procd|sdf|5695|dock5
  -GOLD-   22720 5323D 1   1.00000     0.00000
 Structure written by MMmdl.
 48 50  0  0  0  0  0  0  0  0  1 V2000
  147.4422  136.1702  161.9298 C   0  0  0  0  0  0  0  0  0  0  0  0
  147.3590  136.6413  160.5030 C   0  0  0  0  0  0  0  0  0  0  0  0
  148.4609  136.6430  159.8275 N   0  0  0  0  0  0  0  0  0  0  0  0
  148.4977  137.0661  158.5130 N   0  0  0  0  0  0  0  0  0  0  0  0
  149.8382  137.0439  157.9099 C   0  0  0  0  0  0  0  0  0  0  0  0
  150.8870  137.7150  158.8062 C   0  0  0  0  0  0  0  0  0  0  0  0
  151.4521  137.0686  159.6890 O   0  0  0  0  0  0  0  0  0  0  0  0
  151.1304  139.0125  158.5637 N   0  0  0  0  0  0  0  0  0  0  0  0
  152.0184  139.8804  159.3354 C   0  0  1  0  0  0  0  0  0  0  0  0
  153.3665  139.1675  159.5197 C   0  0  0  0  0  0  0  0  0  0  0  0
  152.1642  141.2447  158.6156 C   0  0  1  0  0  0  0  0  0  0  0  0
  150.8928  142.1269  158.6058 C   0  0  0  0  0  0  0  0  0  0  0  0
  151.4171  143.4984  159.0685 C   0  0  1  0  0  0  0  0  0  0  0  0
  151.7019  143.4404  160.5801 C   0  0  0  0  0  0  0  0  0  0  0  0
  152.9744  142.5769  160.6500 C   0  0  0  0  0  0  0  0  0  0  0  0
  153.2306  142.2218  159.1706 C   0  0  2  0  0  0  0  0  0  0  0  0
  152.8240  143.5214  158.4827 C   0  0  0  0  0  0  0  0  0  0  0  0
  147.4128  137.4940  157.8040 C   0  0  0  0  0  0  0  0  0  0  0  0
  147.4891  137.8522  156.6273 O   0  0  0  0  0  0  0  0  0  0  0  0
  146.1685  137.4897  158.5757 C   0  0  0  0  0  0  0  0  0  0  0  0
  145.0116  137.9460  157.8758 C   0  0  0  0  0  0  0  0  0  0  0  0
  144.0641  138.3210  157.3263 N   0  0  0  0  0  0  0  0  0  0  0  0
  146.1209  137.0840  159.8691 C   0  0  0  0  0  0  0  0  0  0  0  0
  144.8544  137.0648  160.7138 C   0  0  0  0  0  0  0  0  0  0  0  0
  146.8771  135.2480  162.0654 H   0  0  0  0  0  0  0  0  0  0  0  0
  147.0376  136.9193  162.6106 H   0  0  0  0  0  0  0  0  0  0  0  0
  148.4716  135.9749  162.2338 H   0  0  0  0  0  0  0  0  0  0  0  0
  150.1590  136.0170  157.7255 H   0  0  0  0  0  0  0  0  0  0  0  0
  149.8124  137.5248  156.9301 H   0  0  0  0  0  0  0  0  0  0  0  0
  150.6205  139.4495  157.8097 H   0  0  0  0  0  0  0  0  0  0  0  0
  151.5927  140.0384  160.3264 H   0  0  0  0  0  0  0  0  0  0  0  0
  154.0408  139.7497  160.1479 H   0  0  0  0  0  0  0  0  0  0  0  0
  153.8630  139.0002  158.5633 H   0  0  0  0  0  0  0  0  0  0  0  0
  153.2340  138.1979  160.0010 H   0  0  0  0  0  0  0  0  0  0  0  0
  152.4296  141.0374  157.5770 H   0  0  0  0  0  0  0  0  0  0  0  0
  150.4740  142.1833  157.6003 H   0  0  0  0  0  0  0  0  0  0  0  0
  150.1079  141.7608  159.2680 H   0  0  0  0  0  0  0  0  0  0  0  0
  150.7791  144.3326  158.7755 H   0  0  0  0  0  0  0  0  0  0  0  0
  151.8922  144.4371  160.9801 H   0  0  0  0  0  0  0  0  0  0  0  0
  150.8737  143.0072  161.1419 H   0  0  0  0  0  0  0  0  0  0  0  0
  153.8042  143.1628  161.0471 H   0  0  0  0  0  0  0  0  0  0  0  0
  152.8604  141.7056  161.2934 H   0  0  0  0  0  0  0  0  0  0  0  0
  154.2558  141.9108  158.9687 H   0  0  0  0  0  0  0  0  0  0  0  0
  152.8398  143.4613  157.3929 H   0  0  0  0  0  0  0  0  0  0  0  0
  153.4115  144.3843  158.8015 H   0  0  0  0  0  0  0  0  0  0  0  0
  143.9651  137.2959  160.1282 H   0  0  0  0  0  0  0  0  0  0  0  0
  144.9234  137.8010  161.5153 H   0  0  0  0  0  0  0  0  0  0  0  0
  144.7007  136.0818  161.1603 H   0  0  0  0  0  0  0  0  0  0  0  0
  1  2  1  0  0  0  0
  1 25  1  0  0  0  0
  1 26  1  0  0  0  0
  1 27  1  0  0  0  0
  2 23  1  0  0  0  0
  2  3  2  0  0  0  0
  3  4  1  0  0  0  0
  4  5  1  0  0  0  0
  4 18  1  0  0  0  0
  5  6  1  0  0  0  0
  5 28  1  0  0  0  0
  5 29  1  0  0  0  0
  6  7  2  0  0  0  0
  6  8  1  0  0  0  0
  8  9  1  0  0  0  0
  8 30  1  0  0  0  0
  9 10  1  0  0  0  0
  9 11  1  0  0  0  0
  9 31  1  0  0  0  0
 10 32  1  0  0  0  0
 10 33  1  0  0  0  0
 10 34  1  0  0  0  0
 11 16  1  0  0  0  0
 11 12  1  0  0  0  0
 11 35  1  0  0  0  0
 12 13  1  0  0  0  0
 12 36  1  0  0  0  0
 12 37  1  0  0  0  0
 13 17  1  0  0  0  0
 13 14  1  0  0  0  0
 13 38  1  0  0  0  0
 14 15  1  0  0  0  0
 14 39  1  0  0  0  0
 14 40  1  0  0  0  0
 15 16  1  0  0  0  0
 15 41  1  0  0  0  0
 15 42  1  0  0  0  0
 16 17  1  0  0  0  0
 16 43  1  0  0  0  0
 17 44  1  0  0  0  0
 17 45  1  0  0  0  0
 18 19  2  0  0  0  0
 18 20  1  0  0  0  0
 20 21  1  0  0  0  0
 20 23  2  0  0  0  0
 21 22  3  0  0  0  0
 23 24  1  0  0  0  0
 24 46  1  0  0  0  0
 24 47  1  0  0  0  0
 24 48  1  0  0  0  0
M  END
> <s_m_source_file>
AV-unprocessed.smi

> <i_m_source_file_index>
1401

> <i_lp_mmshare_version>
43012

> <i_f3d_flags>
0

> <s_epik_input>
TiNDYyhjMVtDSDNdKWMoPU8pbihuYzFbQ0gzXSlbQ0gyXUMoPU8pW05IXVtDQEhdKFtDSDNdKVtDQEhdKFtDSDJdW0NASF0yMylbQ0BIXShbQ0gyXTMpW0NIMl1bQ0gyXTI=

> <s_epik_cmdline>
J2VwaWtfcHl0aG9uJywgJy1waCcsICc3LjAnLCAnLXRuJywgJzgnLCAnLW1hJywgJzIwMCcsICctbWV0YWxfYmluZGluZycsICctaW1hZScsICc8aW5maWxlLm1hZT4nLCAnLW9tYWUnLCAnPG91dGZpbGUubWFlPic=

> <r_lp_tautomer_probability>
1

> <r_epik_Ionization_Penalty>
2.16501e-08

> <r_epik_Ionization_Penalty_Charging>
2.29436e-11

> <r_epik_Ionization_Penalty_Neutral>
2.16271e-08

> <r_epik_State_Penalty>
-0

> <r_epik_Charging_Adjusted_Penalty>
2.29436e-11

> <i_epik_Tot_Q>
0

> <i_epik_Tot_abs_Q>
0

> <r_epik_Metal_State_Penalty>
-0

> <b_epik_Metal_Only>
0

> <s_lp_Force_Field>
OPLS_2005

> <r_lp_Energy>
66.0828

> <b_lp_Chiralities_Consistent>
1

> <s_lp_Variant>
AV-unprocessed.smi:1401-8

> <Gold.Version>
5.8.1

> <Gold.Id.Protein>
6NUR|6NUR_protein|mol2

> <Gold.PLP.Fitness>
40.5797

> <Gold.PLP.PLP>
-38.8516

> <Gold.PLP.part.hbond>
-1.5741

> <Gold.PLP.part.metal>
0.0000

> <Gold.PLP.part.buried>
-4.8066

> <Gold.PLP.part.nonpolar>
-31.8739

> <Gold.PLP.part.repulsive>
0.1334

> <Gold.PLP.ligand.clash>
0.0000

> <Gold.PLP.ligand.torsion>
0.6398

> <Gold.PLP.Chemscore.Hbond>
1.0000

> <Gold.PLP.Chemscore.CHOScore>
0.0000

> <Gold.PLP.Chemscore.Metal>
0.0000

> <Gold.Chemscore.Hbonds>
donor molecule, donor type, donor heavy atom, donor atom, acceptor molecule, acceptor atom, score
      P1  H  6896  6908       L1     7  1.00

> <Gold.PLP.Chemscore.Internal.Correction>
0.0077

> <Gold.Rescore>
     Score         DG    S(hbond)    S(metal)    S(lipo)     H(rot)  DE(clash)    DE(int)     intcor
     15.71     -17.61       0.95        0.00     112.30       1.63       0.00       1.90       ----

> <Gold.Chemscore.Fitness>
15.7104

> <Gold.Chemscore.DG>
-17.6115

> <Gold.Chemscore.ZeroCoef>
-5.4800

> <Gold.Chemscore.Hbond>
0.9461

> <Gold.Chemscore.Metal>
0.0000

> <Gold.Chemscore.Lipo>
112.3019

> <Gold.Chemscore.Internal_Hbond>
0.0000

> <Gold.Chemscore.DEClash>
0.0015

> <Gold.Chemscore.DEInternal>
1.8996

> <Gold.Chemscore.Rot>
1.6281

> <Gold.Chemscore.Internal.Correction>
   9.000000E+99

> <Gold.Chemscore.Hbonds>
donor molecule, donor type, donor heavy atom, donor atom, acceptor molecule, acceptor atom, score
      P1  H  6896  6908       L1     7  0.99

> <Gold.Chemscore.Hbond.Weighted>
-3.1600

> <Gold.Chemscore.Metal.Weighted>
-0.0000

> <Gold.Chemscore.Lipo.Weighted>
-13.1393

> <Gold.Chemscore.Internal_Hbond.Weighted>
0.0000

> <Gold.Chemscore.DEClash.Weighted>
0.0015

> <Gold.Chemscore.DEInternal.Weighted>
1.8996

> <Gold.Chemscore.Rot.Weighted>
4.1678

> <Gold.Chemscore.Internal.Correction.Weighted>
   9.000000E+99

> <Gold.Protein.RotatedTorsions>
[ 6907 6896 6895 6894 ] final -115.48 input  -60.11 | X-H torsion
[ 7974 7965 7964 7962 ] final  127.28 input  175.53 | X-H torsion
[ 8008 7997 7996 7995 ] final -157.12 input   59.86 | X-H torsion
[ 10167 10162 10161 10158 ] final -169.42 input  -65.29 | X-H torsion
[ 10718 10713 10712 10709 ] final   13.29 input   66.30 | X-H torsion
[ 10763 10752 10751 10750 ] final  -52.35 input  -60.55 | X-H torsion
[ 11005 11000 10999 10996 ] final   90.57 input  -57.11 | X-H torsion

> <Gold.Protein.ActiveResidues>
 VAL166  LYS551  ARG553  GLY616  TRP617  ASP618  TYR619  PRO620  LYS621  CYS622 
 ASP623  PHE694  ASN695  SER759  ASP760  ASP761  ALA762  ILE779  LEU786  VAL792 
 PHE793  MET794  SER795  GLU796  ALA797  LYS798  CYS799  TRP800  GLU811  SER814 

> <Gold.Protein.RotatedAtoms>
  150.7981  133.8652  159.3242 H   0  0  0  0  0  0  0  0  0  0  0  0  # atno 6907 bound_to 6896
  151.6471  135.1004  160.0162 H   0  0  0  0  0  0  0  0  0  0  0  0  # atno 6908 bound_to 6896
  152.4066  133.6858  159.6396 H   0  0  0  0  0  0  0  0  0  0  0  0  # atno 6909 bound_to 6896
  145.0523  139.3873  143.5048 H   0  0  0  0  0  0  0  0  0  0  0  0  # atno 7974 bound_to 7965
  155.7276  140.0798  157.2303 H   0  0  0  0  0  0  0  0  0  0  0  0  # atno 8008 bound_to 7997
  154.4037  140.1601  156.2527 H   0  0  0  0  0  0  0  0  0  0  0  0  # atno 8009 bound_to 7997
  155.9139  140.3402  155.6122 H   0  0  0  0  0  0  0  0  0  0  0  0  # atno 8010 bound_to 7997
  139.5924  144.1185  152.1649 H   0  0  0  0  0  0  0  0  0  0  0  0  # atno 10167 bound_to 10162
  157.0225  130.6160  149.5723 H   0  0  0  0  0  0  0  0  0  0  0  0  # atno 10718 bound_to 10713
  154.1414  135.6504  153.4943 H   0  0  0  0  0  0  0  0  0  0  0  0  # atno 10763 bound_to 10752
  153.0165  135.5316  154.6901 H   0  0  0  0  0  0  0  0  0  0  0  0  # atno 10764 bound_to 10752
  154.6164  135.2959  155.0346 H   0  0  0  0  0  0  0  0  0  0  0  0  # atno 10765 bound_to 10752
  139.8854  134.8622  156.3304 H   0  0  0  0  0  0  0  0  0  0  0  0  # atno 11005 bound_to 11000
  146.3519  140.0179  142.8661 LP  0  0  0  0  0  0  0  0  0  0  0  0  # atno 17320 bound_to 7965
  145.1512  140.9624  143.4432 LP  0  0  0  0  0  0  0  0  0  0  0  0  # atno 17321 bound_to 7965
  140.0763  144.5738  150.7155 LP  0  0  0  0  0  0  0  0  0  0  0  0  # atno 17342 bound_to 10162
  140.7184  143.2565  151.4360 LP  0  0  0  0  0  0  0  0  0  0  0  0  # atno 17343 bound_to 10162
  156.0097  130.5187  150.7948 LP  0  0  0  0  0  0  0  0  0  0  0  0  # atno 17370 bound_to 10713
  157.5239  131.0933  151.0043 LP  0  0  0  0  0  0  0  0  0  0  0  0  # atno 17371 bound_to 10713
  140.9727  133.7317  156.0557 LP  0  0  0  0  0  0  0  0  0  0  0  0  # atno 17394 bound_to 11000
  140.7851  134.3682  157.5478 LP  0  0  0  0  0  0  0  0  0  0  0  0  # atno 17395 bound_to 11000

$$$$
