AV-unprocessed.smi:3187|AV-procd|sdf|12180|dock4
  -GOLD-   2272018 23D 1   1.00000     0.00000
 Structure written by MMmdl.
 42 43  0  0  0  0  0  0  0  0  3 V2000
  152.0491  145.2229  159.2434 C   0  0  0  0  0  0  0  0  0  0  0  0
  152.2835  143.7822  159.6667 C   0  0  0  0  0  0  0  0  0  0  0  0
  152.7974  143.5188  160.8834 C   0  0  0  0  0  0  0  0  0  0  0  0
  153.1414  142.1342  161.3814 C   0  0  0  0  0  0  0  0  0  0  0  0
  153.3250  141.1624  160.2137 C   0  0  0  0  0  0  0  0  0  0  0  0
  152.1444  141.2353  159.2315 C   0  0  2  0  0  0  0  0  0  0  0  0
  152.3329  140.1774  158.1267 C   0  0  0  0  0  0  0  0  0  0  0  0
  151.9374  142.6704  158.6547 C   0  0  1  0  0  0  0  0  0  0  0  0
  150.5030  142.8098  158.0784 C   0  0  0  0  0  0  0  0  0  0  0  0
  150.4433  142.5734  156.6193 N   0  3  0  0  0  0  0  0  0  0  0  0
  149.8100  141.3001  156.2138 C   0  0  0  0  0  0  0  0  0  0  0  0
  149.5330  141.2301  154.7018 C   0  0  0  0  0  0  0  0  0  0  0  0
  148.1201  141.4704  154.3974 N   0  0  0  0  0  0  0  0  0  0  0  0
  147.2923  142.3972  154.9786 C   0  0  0  0  0  0  0  0  0  0  0  0
  146.0673  142.2584  154.3779 C   0  0  0  0  0  0  0  0  0  0  0  0
  146.1987  141.2536  153.4568 N   0  3  0  0  0  0  0  0  0  0  0  0
  147.4477  140.7763  153.4694 C   0  0  0  0  0  0  0  0  0  0  0  0
  152.5027  145.4146  158.2707 H   0  0  0  0  0  0  0  0  0  0  0  0
  152.4910  145.9211  159.9554 H   0  0  0  0  0  0  0  0  0  0  0  0
  150.9839  145.4459  159.1906 H   0  0  0  0  0  0  0  0  0  0  0  0
  153.0038  144.3280  161.5690 H   0  0  0  0  0  0  0  0  0  0  0  0
  154.0590  142.1825  161.9682 H   0  0  0  0  0  0  0  0  0  0  0  0
  152.3496  141.7955  162.0502 H   0  0  0  0  0  0  0  0  0  0  0  0
  154.2521  141.3964  159.6883 H   0  0  0  0  0  0  0  0  0  0  0  0
  153.4381  140.1492  160.6015 H   0  0  0  0  0  0  0  0  0  0  0  0
  151.2502  140.9669  159.7967 H   0  0  0  0  0  0  0  0  0  0  0  0
  153.2122  140.3937  157.5191 H   0  0  0  0  0  0  0  0  0  0  0  0
  151.4764  140.1143  157.4573 H   0  0  0  0  0  0  0  0  0  0  0  0
  152.4698  139.1850  158.5576 H   0  0  0  0  0  0  0  0  0  0  0  0
  152.6487  142.7926  157.8361 H   0  0  0  0  0  0  0  0  0  0  0  0
  149.8269  142.1003  158.5505 H   0  0  0  0  0  0  0  0  0  0  0  0
  150.1131  143.8026  158.3079 H   0  0  0  0  0  0  0  0  0  0  0  0
  149.9004  143.3253  156.2182 H   0  0  0  0  0  0  0  0  0  0  0  0
  150.4302  140.4623  156.5357 H   0  0  0  0  0  0  0  0  0  0  0  0
  148.8679  141.2157  156.7563 H   0  0  0  0  0  0  0  0  0  0  0  0
  150.1305  141.9675  154.1629 H   0  0  0  0  0  0  0  0  0  0  0  0
  149.7897  140.2508  154.2972 H   0  0  0  0  0  0  0  0  0  0  0  0
  147.6254  143.0696  155.7563 H   0  0  0  0  0  0  0  0  0  0  0  0
  145.1365  142.7846  154.5330 H   0  0  0  0  0  0  0  0  0  0  0  0
  147.8337  139.9854  152.8510 H   0  0  0  0  0  0  0  0  0  0  0  0
  151.3777  142.6182  156.2380 H   0  0  0  0  0  0  0  0  0  0  0  0
  145.4580  140.9179  152.8534 H   0  0  0  0  0  0  0  0  0  0  0  0
  1  2  1  0  0  0  0
  1 18  1  0  0  0  0
  1 19  1  0  0  0  0
  1 20  1  0  0  0  0
  2  8  1  0  0  0  0
  2  3  2  0  0  0  0
  3  4  1  0  0  0  0
  3 21  1  0  0  0  0
  4  5  1  0  0  0  0
  4 22  1  0  0  0  0
  4 23  1  0  0  0  0
  5  6  1  0  0  0  0
  5 24  1  0  0  0  0
  5 25  1  0  0  0  0
  6  7  1  0  0  0  0
  6  8  1  0  0  0  0
  6 26  1  0  0  0  0
  7 27  1  0  0  0  0
  7 28  1  0  0  0  0
  7 29  1  0  0  0  0
  8  9  1  0  0  0  0
  8 30  1  0  0  0  0
  9 10  1  0  0  0  0
  9 31  1  0  0  0  0
  9 32  1  0  0  0  0
 10 11  1  0  0  0  0
 10 33  1  0  0  0  0
 10 41  1  0  0  0  0
 11 12  1  0  0  0  0
 11 34  1  0  0  0  0
 11 35  1  0  0  0  0
 12 13  1  0  0  0  0
 12 36  1  0  0  0  0
 12 37  1  0  0  0  0
 13 17  1  0  0  0  0
 13 14  1  0  0  0  0
 14 15  2  0  0  0  0
 14 38  1  0  0  0  0
 15 16  1  0  0  0  0
 15 39  1  0  0  0  0
 16 17  2  0  0  0  0
 16 42  1  0  0  0  0
 17 40  1  0  0  0  0
M  CHG  1  10   1
M  CHG  1  16   1
M  END
> <s_m_source_file>
AV-unprocessed.smi

> <i_m_source_file_index>
3187

> <i_lp_mmshare_version>
43012

> <i_f3d_flags>
0

> <s_epik_input>
W0NIM11DMT1bQ0hdW0NIMl1bQ0gyXVtDQEBIXShbQ0gzXSlbQ0BIXTFbQ0gyXVtOSF1bQ0gyXVtDSDJdbjJbY0hdW2NIXW5bY0hdMg==

> <s_epik_cmdline>
J2VwaWtfcHl0aG9uJywgJy1waCcsICc3LjAnLCAnLXRuJywgJzgnLCAnLW1hJywgJzIwMCcsICctbWV0YWxfYmluZGluZycsICctaW1hZScsICc8aW5maWxlLm1hZT4nLCAnLW9tYWUnLCAnPG91dGZpbGUubWFlPic=

> <r_lp_tautomer_probability>
1

> <r_epik_Ionization_Penalty>
1.51066

> <r_epik_Ionization_Penalty_Charging>
0.0026721

> <r_epik_Ionization_Penalty_Neutral>
1.50798

> <r_epik_State_Penalty>
1.12593

> <r_epik_Charging_Adjusted_Penalty>
1.12861

> <i_epik_Tot_Q>
2

> <i_epik_Tot_abs_Q>
2

> <r_epik_Metal_State_Penalty>
5.12155

> <b_epik_Metal_Only>
0

> <s_lp_Force_Field>
OPLS_2005

> <r_lp_Energy>
26.137

> <b_lp_Chiralities_Consistent>
1

> <s_lp_Variant>
AV-unprocessed.smi:3187-6

> <Gold.Version>
5.8.1

> <Gold.Id.Protein>
6NUR|6NUR_protein|mol2

> <Gold.PLP.Fitness>
58.3780

> <Gold.PLP.PLP>
-43.2555

> <Gold.PLP.part.hbond>
-2.0000

> <Gold.PLP.part.metal>
0.0000

> <Gold.PLP.part.buried>
-2.1977

> <Gold.PLP.part.nonpolar>
-39.0531

> <Gold.PLP.part.repulsive>
0.0852

> <Gold.PLP.ligand.clash>
0.0000

> <Gold.PLP.ligand.torsion>
1.4963

> <Gold.PLP.Chemscore.Hbond>
4.0000

> <Gold.PLP.Chemscore.CHOScore>
1.9995

> <Gold.PLP.Chemscore.Metal>
0.0000

> <Gold.Chemscore.Hbonds>
donor molecule, donor type, donor heavy atom, donor atom, acceptor molecule, acceptor atom, score
      L1  H    10    33       P1  8028  2.00
      L1  H    16    42       P1 10175  2.00
      L1  C    14    38       P1  8028  1.00
      L1  C    17    40       P1  7957  1.00

> <Gold.PLP.Chemscore.Internal.Correction>
0.1165

> <Gold.Rescore>
     Score         DG    S(hbond)    S(metal)    S(lipo)     H(rot)  DE(clash)    DE(int)     intcor
     18.82     -20.27       1.95        0.00     114.02       1.97       0.02       1.44       ----

> <Gold.Chemscore.Fitness>
18.8157

> <Gold.Chemscore.DG>
-20.2696

> <Gold.Chemscore.ZeroCoef>
-5.4800

> <Gold.Chemscore.Hbond>
1.9462

> <Gold.Chemscore.Metal>
0.0000

> <Gold.Chemscore.Lipo>
114.0217

> <Gold.Chemscore.Internal_Hbond>
0.0000

> <Gold.Chemscore.DEClash>
0.0174

> <Gold.Chemscore.DEInternal>
1.4364

> <Gold.Chemscore.Rot>
1.9732

> <Gold.Chemscore.Internal.Correction>
   9.000000E+99

> <Gold.Chemscore.Hbonds>
donor molecule, donor type, donor heavy atom, donor atom, acceptor molecule, acceptor atom, score
      L1  H    10    33       P1  8028  1.00
      L1  H    16    42       P1 10175  0.29

> <Gold.Chemscore.Hbond.Weighted>
-6.5004

> <Gold.Chemscore.Metal.Weighted>
-0.0000

> <Gold.Chemscore.Lipo.Weighted>
-13.3405

> <Gold.Chemscore.Internal_Hbond.Weighted>
0.0000

> <Gold.Chemscore.DEClash.Weighted>
0.0174

> <Gold.Chemscore.DEInternal.Weighted>
1.4364

> <Gold.Chemscore.Rot.Weighted>
5.0514

> <Gold.Chemscore.Internal.Correction.Weighted>
   9.000000E+99

> <Gold.Protein.RotatedTorsions>
[ 6907 6896 6895 6894 ] final   52.21 input  -60.11 | X-H torsion
[ 7974 7965 7964 7962 ] final   27.44 input  175.53 | X-H torsion
[ 8008 7997 7996 7995 ] final  -37.89 input   59.86 | X-H torsion
[ 10167 10162 10161 10158 ] final  -52.24 input  -65.29 | X-H torsion
[ 10718 10713 10712 10709 ] final   83.92 input   66.30 | X-H torsion
[ 10763 10752 10751 10750 ] final  107.36 input  -60.55 | X-H torsion
[ 11005 11000 10999 10996 ] final   22.98 input  -57.11 | X-H torsion

> <Gold.Protein.ActiveResidues>
 VAL166  LYS551  ARG553  GLY616  TRP617  ASP618  TYR619  PRO620  LYS621  CYS622 
 ASP623  PHE694  ASN695  SER759  ASP760  ASP761  ALA762  ILE779  LEU786  VAL792 
 PHE793  MET794  SER795  GLU796  ALA797  LYS798  CYS799  TRP800  GLU811  SER814 

> <Gold.Protein.RotatedAtoms>
  152.3209  134.7382  160.0313 H   0  0  0  0  0  0  0  0  0  0  0  0  # atno 6907 bound_to 6896
  151.7830  133.3346  159.3485 H   0  0  0  0  0  0  0  0  0  0  0  0  # atno 6908 bound_to 6896
  150.7369  134.5844  159.5999 H   0  0  0  0  0  0  0  0  0  0  0  0  # atno 6909 bound_to 6896
  146.1784  139.7191  142.8918 H   0  0  0  0  0  0  0  0  0  0  0  0  # atno 7974 bound_to 7965
  154.4046  140.1592  156.2611 H   0  0  0  0  0  0  0  0  0  0  0  0  # atno 8008 bound_to 7997
  155.9036  140.3431  155.6022 H   0  0  0  0  0  0  0  0  0  0  0  0  # atno 8009 bound_to 7997
  155.7419  140.0793  157.2232 H   0  0  0  0  0  0  0  0  0  0  0  0  # atno 8010 bound_to 7997
  140.6547  143.2591  151.4619 H   0  0  0  0  0  0  0  0  0  0  0  0  # atno 10167 bound_to 10162
  157.6888  131.0111  150.2596 H   0  0  0  0  0  0  0  0  0  0  0  0  # atno 10718 bound_to 10713
  153.4056  135.3847  155.2017 H   0  0  0  0  0  0  0  0  0  0  0  0  # atno 10763 bound_to 10752
  154.8733  135.3782  154.4564 H   0  0  0  0  0  0  0  0  0  0  0  0  # atno 10764 bound_to 10752
  153.5066  135.7088  153.5865 H   0  0  0  0  0  0  0  0  0  0  0  0  # atno 10765 bound_to 10752
  140.3746  134.1986  155.7665 H   0  0  0  0  0  0  0  0  0  0  0  0  # atno 11005 bound_to 11000
  145.4147  141.0400  143.2997 LP  0  0  0  0  0  0  0  0  0  0  0  0  # atno 17320 bound_to 7965
  144.8273  139.5687  143.6959 LP  0  0  0  0  0  0  0  0  0  0  0  0  # atno 17321 bound_to 7965
  139.5768  144.1801  152.1914 LP  0  0  0  0  0  0  0  0  0  0  0  0  # atno 17342 bound_to 10162
  140.1114  144.5454  150.6923 LP  0  0  0  0  0  0  0  0  0  0  0  0  # atno 17343 bound_to 10162
  156.3178  130.3781  149.7603 LP  0  0  0  0  0  0  0  0  0  0  0  0  # atno 17370 bound_to 10713
  156.5183  130.8203  151.3194 LP  0  0  0  0  0  0  0  0  0  0  0  0  # atno 17371 bound_to 10713
  141.1943  133.8130  157.0761 LP  0  0  0  0  0  0  0  0  0  0  0  0  # atno 17394 bound_to 11000
  140.0525  134.9798  157.1162 LP  0  0  0  0  0  0  0  0  0  0  0  0  # atno 17395 bound_to 11000

$$$$
