AV-unprocessed.smi:2998|AV-procd|sdf|11416|dock8
  -GOLD-   2272016343D 1   1.00000     0.00000
 Structure written by MMmdl.
 41 43  0  0  0  0  0  0  0  0  1 V2000
  151.5930  136.4836  156.0365 O   0  0  0  0  0  0  0  0  0  0  0  0
  150.9887  136.8838  155.0405 C   0  0  0  0  0  0  0  0  0  0  0  0
  151.3734  138.2084  154.3648 C   0  0  0  0  0  0  0  0  0  0  0  0
  151.2839  139.3732  155.2647 N   0  0  0  0  0  0  0  0  0  0  0  0
  152.1019  139.3508  156.4115 C   0  0  0  0  0  0  0  0  0  0  0  0
  152.1082  140.3256  157.2638 N   0  0  0  0  0  0  0  0  0  0  0  0
  151.2816  141.4362  157.0576 C   0  0  0  0  0  0  0  0  0  0  0  0
  151.3102  142.5438  158.1020 C   0  0  0  0  0  0  0  0  0  0  0  0
  151.7458  143.9352  157.6117 C   0  0  0  0  0  0  0  0  0  0  0  0
  152.4977  144.0953  158.9378 C   0  0  0  0  0  0  0  0  0  0  0  0
  152.5429  142.5654  159.0204 C   0  0  0  0  0  0  0  0  0  0  0  0
  150.4676  141.4977  155.9772 C   0  0  0  0  0  0  0  0  0  0  0  0
  150.4436  140.4152  154.9936 C   0  0  0  0  0  0  0  0  0  0  0  0
  149.7224  140.4410  153.9960 O   0  0  0  0  0  0  0  0  0  0  0  0
  149.9818  136.2055  154.4705 N   0  0  0  0  0  0  0  0  0  0  0  0
  149.4494  134.9326  154.9490 C   0  0  0  0  0  0  0  0  0  0  0  0
  149.5924  133.8490  153.8654 C   0  0  0  0  0  0  0  0  0  0  0  0
  148.1847  133.6215  153.3150 C   0  0  0  0  0  0  0  0  0  0  0  0
  147.2742  133.8719  154.5128 C   0  0  0  0  0  0  0  0  0  0  0  0
  147.9408  135.0273  155.2630 C   0  0  0  0  0  0  0  0  0  0  0  0
  152.3771  138.0970  153.9504 H   0  0  0  0  0  0  0  0  0  0  0  0
  150.7284  138.3684  153.4985 H   0  0  0  0  0  0  0  0  0  0  0  0
  152.7209  138.4599  156.5303 H   0  0  0  0  0  0  0  0  0  0  0  0
  150.3795  142.5865  158.6707 H   0  0  0  0  0  0  0  0  0  0  0  0
  152.4214  143.9078  156.7546 H   0  0  0  0  0  0  0  0  0  0  0  0
  150.9298  144.6426  157.4605 H   0  0  0  0  0  0  0  0  0  0  0  0
  153.4718  144.5783  158.8561 H   0  0  0  0  0  0  0  0  0  0  0  0
  151.8854  144.5443  159.7216 H   0  0  0  0  0  0  0  0  0  0  0  0
  152.3778  142.1556  160.0172 H   0  0  0  0  0  0  0  0  0  0  0  0
  153.4390  142.1498  158.5557 H   0  0  0  0  0  0  0  0  0  0  0  0
  149.8264  142.3547  155.8304 H   0  0  0  0  0  0  0  0  0  0  0  0
  149.5438  136.6038  153.6525 H   0  0  0  0  0  0  0  0  0  0  0  0
  150.0031  134.6202  155.8364 H   0  0  0  0  0  0  0  0  0  0  0  0
  150.3049  134.1088  153.0811 H   0  0  0  0  0  0  0  0  0  0  0  0
  149.9477  132.9264  154.3261 H   0  0  0  0  0  0  0  0  0  0  0  0
  147.9720  134.3513  152.5328 H   0  0  0  0  0  0  0  0  0  0  0  0
  148.0554  132.6264  152.8882 H   0  0  0  0  0  0  0  0  0  0  0  0
  146.2478  134.0969  154.2211 H   0  0  0  0  0  0  0  0  0  0  0  0
  147.2530  132.9850  155.1474 H   0  0  0  0  0  0  0  0  0  0  0  0
  147.7424  134.9820  156.3342 H   0  0  0  0  0  0  0  0  0  0  0  0
  147.5288  135.9710  154.9015 H   0  0  0  0  0  0  0  0  0  0  0  0
  1  2  2  0  0  0  0
  2  3  1  0  0  0  0
  2 15  1  0  0  0  0
  3  4  1  0  0  0  0
  3 21  1  0  0  0  0
  3 22  1  0  0  0  0
  4 13  1  0  0  0  0
  4  5  1  0  0  0  0
  5  6  2  0  0  0  0
  5 23  1  0  0  0  0
  6  7  1  0  0  0  0
  7  8  1  0  0  0  0
  7 12  2  0  0  0  0
  8 11  1  0  0  0  0
  8  9  1  0  0  0  0
  8 24  1  0  0  0  0
  9 10  1  0  0  0  0
  9 25  1  0  0  0  0
  9 26  1  0  0  0  0
 10 11  1  0  0  0  0
 10 27  1  0  0  0  0
 10 28  1  0  0  0  0
 11 29  1  0  0  0  0
 11 30  1  0  0  0  0
 12 13  1  0  0  0  0
 12 31  1  0  0  0  0
 13 14  2  0  0  0  0
 15 16  1  0  0  0  0
 15 32  1  0  0  0  0
 16 20  1  0  0  0  0
 16 17  1  0  0  0  0
 16 33  1  0  0  0  0
 17 18  1  0  0  0  0
 17 34  1  0  0  0  0
 17 35  1  0  0  0  0
 18 19  1  0  0  0  0
 18 36  1  0  0  0  0
 18 37  1  0  0  0  0
 19 20  1  0  0  0  0
 19 38  1  0  0  0  0
 19 39  1  0  0  0  0
 20 40  1  0  0  0  0
 20 41  1  0  0  0  0
M  END
> <s_m_source_file>
AV-unprocessed.smi

> <i_m_source_file_index>
2998

> <i_lp_mmshare_version>
43012

> <i_f3d_flags>
0

> <s_epik_input>
W0NIMl0xW0NIMl1bQ0gyXVtDSDJdW0NIXTFbTkhdQyg9TylbQ0gyXW4yW2NIXW5jKFtjSF1jMj1PKVtDSF0zW0NIMl1bQ0gyXVtDSDJdMw==

> <s_epik_cmdline>
J2VwaWtfcHl0aG9uJywgJy1waCcsICc3LjAnLCAnLXRuJywgJzgnLCAnLW1hJywgJzIwMCcsICctbWV0YWxfYmluZGluZycsICctaW1hZScsICc8aW5maWxlLm1hZT4nLCAnLW9tYWUnLCAnPG91dGZpbGUubWFlPic=

> <r_lp_tautomer_probability>
1

> <r_epik_Ionization_Penalty>
7.51496e-06

> <r_epik_Ionization_Penalty_Charging>
8.69507e-09

> <r_epik_Ionization_Penalty_Neutral>
7.50627e-06

> <r_epik_State_Penalty>
-0

> <r_epik_Charging_Adjusted_Penalty>
8.69507e-09

> <i_epik_Tot_Q>
0

> <i_epik_Tot_abs_Q>
0

> <r_epik_Metal_State_Penalty>
-0

> <b_epik_Metal_Only>
0

> <s_lp_Force_Field>
OPLS_2005

> <r_lp_Energy>
32.6408

> <b_lp_Chiralities_Consistent>
1

> <s_lp_Variant>
AV-unprocessed.smi:2998-1

> <Gold.Version>
5.8.1

> <Gold.Id.Protein>
6NUR|6NUR_protein|mol2

> <Gold.PLP.Fitness>
46.6212

> <Gold.PLP.PLP>
-40.9606

> <Gold.PLP.part.hbond>
-3.7313

> <Gold.PLP.part.metal>
0.0000

> <Gold.PLP.part.buried>
-2.8228

> <Gold.PLP.part.nonpolar>
-36.0869

> <Gold.PLP.part.repulsive>
1.2737

> <Gold.PLP.ligand.clash>
0.0000

> <Gold.PLP.ligand.torsion>
0.2621

> <Gold.PLP.Chemscore.Hbond>
1.9357

> <Gold.PLP.Chemscore.CHOScore>
0.0000

> <Gold.PLP.Chemscore.Metal>
0.0000

> <Gold.Chemscore.Hbonds>
donor molecule, donor type, donor heavy atom, donor atom, acceptor molecule, acceptor atom, score
      L1  H    15    32       P1  7948  0.86
      P1  H 10752 10763       L1     1  0.66

> <Gold.PLP.Chemscore.Internal.Correction>
0.3775

> <Gold.Rescore>
     Score         DG    S(hbond)    S(metal)    S(lipo)     H(rot)  DE(clash)    DE(int)     intcor
     16.12     -17.06       1.58        0.00      89.47       1.63       0.01       0.92       ----

> <Gold.Chemscore.Fitness>
16.1185

> <Gold.Chemscore.DG>
-17.0556

> <Gold.Chemscore.ZeroCoef>
-5.4800

> <Gold.Chemscore.Hbond>
1.5802

> <Gold.Chemscore.Metal>
0.0000

> <Gold.Chemscore.Lipo>
89.4687

> <Gold.Chemscore.Internal_Hbond>
0.0000

> <Gold.Chemscore.DEClash>
0.0135

> <Gold.Chemscore.DEInternal>
0.9236

> <Gold.Chemscore.Rot>
1.6290

> <Gold.Chemscore.Internal.Correction>
   9.000000E+99

> <Gold.Chemscore.Hbonds>
donor molecule, donor type, donor heavy atom, donor atom, acceptor molecule, acceptor atom, score
      L1  H    15    32       P1  7948  0.64
      P1  H 10752 10763       L1     1  0.25

> <Gold.Chemscore.Hbond.Weighted>
-5.2779

> <Gold.Chemscore.Metal.Weighted>
-0.0000

> <Gold.Chemscore.Lipo.Weighted>
-10.4678

> <Gold.Chemscore.Internal_Hbond.Weighted>
0.0000

> <Gold.Chemscore.DEClash.Weighted>
0.0135

> <Gold.Chemscore.DEInternal.Weighted>
0.9236

> <Gold.Chemscore.Rot.Weighted>
4.1702

> <Gold.Chemscore.Internal.Correction.Weighted>
   9.000000E+99

> <Gold.Protein.RotatedTorsions>
[ 6907 6896 6895 6894 ] final -170.56 input  -60.11 | X-H torsion
[ 7974 7965 7964 7962 ] final   -3.28 input  175.53 | X-H torsion
[ 8008 7997 7996 7995 ] final  -91.65 input   59.86 | X-H torsion
[ 10167 10162 10161 10158 ] final -123.44 input  -65.29 | X-H torsion
[ 10718 10713 10712 10709 ] final -164.38 input   66.30 | X-H torsion
[ 10763 10752 10751 10750 ] final  102.28 input  -60.55 | X-H torsion
[ 11005 11000 10999 10996 ] final  169.24 input  -57.11 | X-H torsion

> <Gold.Protein.ActiveResidues>
 VAL166  LYS551  ARG553  GLY616  TRP617  ASP618  TYR619  PRO620  LYS621  CYS622 
 ASP623  PHE694  ASN695  SER759  ASP760  ASP761  ALA762  ILE779  LEU786  VAL792 
 PHE793  MET794  SER795  GLU796  ALA797  LYS798  CYS799  TRP800  GLU811  SER814 

> <Gold.Protein.RotatedAtoms>
  151.5097  133.3487  159.2882 H   0  0  0  0  0  0  0  0  0  0  0  0  # atno 6907 bound_to 6896
  150.8720  134.8098  159.7173 H   0  0  0  0  0  0  0  0  0  0  0  0  # atno 6908 bound_to 6896
  152.4705  134.4982  159.9768 H   0  0  0  0  0  0  0  0  0  0  0  0  # atno 6909 bound_to 6896
  146.2392  140.1697  142.8332 H   0  0  0  0  0  0  0  0  0  0  0  0  # atno 7974 bound_to 7965
  154.7133  140.0517  157.0571 H   0  0  0  0  0  0  0  0  0  0  0  0  # atno 8008 bound_to 7997
  155.0525  140.3180  155.4668 H   0  0  0  0  0  0  0  0  0  0  0  0  # atno 8009 bound_to 7997
  156.2796  140.2113  156.5651 H   0  0  0  0  0  0  0  0  0  0  0  0  # atno 8010 bound_to 7997
  140.0035  143.5516  152.2293 H   0  0  0  0  0  0  0  0  0  0  0  0  # atno 10167 bound_to 10162
  156.6382  130.8957  151.2991 H   0  0  0  0  0  0  0  0  0  0  0  0  # atno 10718 bound_to 10713
  153.3375  135.4016  155.1545 H   0  0  0  0  0  0  0  0  0  0  0  0  # atno 10763 bound_to 10752
  154.8636  135.3625  154.5389 H   0  0  0  0  0  0  0  0  0  0  0  0  # atno 10764 bound_to 10752
  153.5832  135.7076  153.5514 H   0  0  0  0  0  0  0  0  0  0  0  0  # atno 10765 bound_to 10752
  140.2957  134.7637  157.3875 H   0  0  0  0  0  0  0  0  0  0  0  0  # atno 11005 bound_to 11000
  145.0022  140.8641  143.5275 LP  0  0  0  0  0  0  0  0  0  0  0  0  # atno 17320 bound_to 7965
  145.1718  139.2400  143.5338 LP  0  0  0  0  0  0  0  0  0  0  0  0  # atno 17321 bound_to 7965
  139.6255  144.7636  151.2648 LP  0  0  0  0  0  0  0  0  0  0  0  0  # atno 17342 bound_to 10162
  140.7409  143.6572  150.8196 LP  0  0  0  0  0  0  0  0  0  0  0  0  # atno 17343 bound_to 10162
  157.7179  130.9521  150.1325 LP  0  0  0  0  0  0  0  0  0  0  0  0  # atno 17370 bound_to 10713
  156.2180  130.3672  149.8590 LP  0  0  0  0  0  0  0  0  0  0  0  0  # atno 17371 bound_to 10713
  140.1155  134.5289  155.8229 LP  0  0  0  0  0  0  0  0  0  0  0  0  # atno 17394 bound_to 11000
  141.2138  133.6738  156.6769 LP  0  0  0  0  0  0  0  0  0  0  0  0  # atno 17395 bound_to 11000

$$$$
