AV-unprocessed.smi:2390|AV-procd|sdf|9474|dock2
  -GOLD-   2272013103D 1   1.00000     0.00000
 Structure written by MMmdl.
 45 46  0  0  0  0  0  0  0  0  1 V2000
  141.8110  135.6024  153.4750 C   0  0  0  0  0  0  0  0  0  0  0  0
  143.0781  135.2901  152.7071 C   0  0  0  0  0  0  0  0  0  0  0  0
  143.1478  134.1802  151.8425 C   0  0  0  0  0  0  0  0  0  0  0  0
  144.3540  133.9486  151.1576 C   0  0  0  0  0  0  0  0  0  0  0  0
  145.4330  134.8300  151.3633 C   0  0  0  0  0  0  0  0  0  0  0  0
  145.2801  135.9208  152.2485 C   0  0  0  0  0  0  0  0  0  0  0  0
  146.4250  136.7492  152.3893 N   0  0  0  0  0  0  0  0  0  0  0  0
  146.5181  137.9358  153.0152 C   0  0  0  0  0  0  0  0  0  0  0  0
  145.5910  138.5185  153.5790 O   0  0  0  0  0  0  0  0  0  0  0  0
  147.7656  138.4245  152.9491 N   0  0  0  0  0  0  0  0  0  0  0  0
  148.2041  139.6971  153.5222 C   0  0  1  0  0  0  0  0  0  0  0  0
  147.2054  140.7980  153.1234 C   0  0  0  0  0  0  0  0  0  0  0  0
  148.4298  139.5902  155.0662 C   0  0  2  0  0  0  0  0  0  0  0  0
  148.4595  141.0081  155.6944 C   0  0  0  0  0  0  0  0  0  0  0  0
  149.5955  138.7602  155.4528 N   0  0  0  0  0  0  0  0  0  0  0  0
  150.8099  139.1024  154.7027 C   0  0  0  0  0  0  0  0  0  0  0  0
  152.0117  138.2153  155.0710 C   0  0  0  0  0  0  0  0  0  0  0  0
  151.6803  136.8484  154.8707 O   0  0  0  0  0  0  0  0  0  0  0  0
  150.5559  136.4543  155.6444 C   0  0  0  0  0  0  0  0  0  0  0  0
  149.3434  137.3256  155.2753 C   0  0  0  0  0  0  0  0  0  0  0  0
  144.1122  136.1354  152.9042 N   0  0  0  0  0  0  0  0  0  0  0  0
  141.0764  134.8040  153.3675 H   0  0  0  0  0  0  0  0  0  0  0  0
  141.3661  136.5278  153.1081 H   0  0  0  0  0  0  0  0  0  0  0  0
  142.0281  135.7227  154.5368 H   0  0  0  0  0  0  0  0  0  0  0  0
  142.3017  133.5232  151.7059 H   0  0  0  0  0  0  0  0  0  0  0  0
  144.4511  133.1093  150.4851 H   0  0  0  0  0  0  0  0  0  0  0  0
  146.3662  134.6667  150.8440 H   0  0  0  0  0  0  0  0  0  0  0  0
  147.2706  136.3969  151.9659 H   0  0  0  0  0  0  0  0  0  0  0  0
  148.4648  137.8805  152.4651 H   0  0  0  0  0  0  0  0  0  0  0  0
  149.1446  139.9245  153.0226 H   0  0  0  0  0  0  0  0  0  0  0  0
  147.5184  141.7718  153.5004 H   0  0  0  0  0  0  0  0  0  0  0  0
  146.2049  140.5982  153.5068 H   0  0  0  0  0  0  0  0  0  0  0  0
  147.1294  140.8800  152.0387 H   0  0  0  0  0  0  0  0  0  0  0  0
  147.5432  139.1010  155.4728 H   0  0  0  0  0  0  0  0  0  0  0  0
  147.6543  141.6439  155.3282 H   0  0  0  0  0  0  0  0  0  0  0  0
  149.4006  141.5176  155.4862 H   0  0  0  0  0  0  0  0  0  0  0  0
  148.3314  140.9758  156.7757 H   0  0  0  0  0  0  0  0  0  0  0  0
  150.6174  139.0257  153.6315 H   0  0  0  0  0  0  0  0  0  0  0  0
  151.1085  140.1299  154.8992 H   0  0  0  0  0  0  0  0  0  0  0  0
  152.8715  138.4672  154.4500 H   0  0  0  0  0  0  0  0  0  0  0  0
  152.3081  138.3780  156.1085 H   0  0  0  0  0  0  0  0  0  0  0  0
  150.3401  135.4040  155.4484 H   0  0  0  0  0  0  0  0  0  0  0  0
  150.7859  136.5408  156.7077 H   0  0  0  0  0  0  0  0  0  0  0  0
  148.5139  137.0020  155.9018 H   0  0  0  0  0  0  0  0  0  0  0  0
  149.0566  137.1259  154.2416 H   0  0  0  0  0  0  0  0  0  0  0  0
  1  2  1  0  0  0  0
  1 22  1  0  0  0  0
  1 23  1  0  0  0  0
  1 24  1  0  0  0  0
  2 21  1  0  0  0  0
  2  3  2  0  0  0  0
  3  4  1  0  0  0  0
  3 25  1  0  0  0  0
  4  5  2  0  0  0  0
  4 26  1  0  0  0  0
  5  6  1  0  0  0  0
  5 27  1  0  0  0  0
  6  7  1  0  0  0  0
  6 21  2  0  0  0  0
  7  8  1  0  0  0  0
  7 28  1  0  0  0  0
  8  9  2  0  0  0  0
  8 10  1  0  0  0  0
 10 11  1  0  0  0  0
 10 29  1  0  0  0  0
 11 12  1  0  0  0  0
 11 13  1  0  0  0  0
 11 30  1  0  0  0  0
 12 31  1  0  0  0  0
 12 32  1  0  0  0  0
 12 33  1  0  0  0  0
 13 14  1  0  0  0  0
 13 15  1  0  0  0  0
 13 34  1  0  0  0  0
 14 35  1  0  0  0  0
 14 36  1  0  0  0  0
 14 37  1  0  0  0  0
 15 20  1  0  0  0  0
 15 16  1  0  0  0  0
 16 17  1  0  0  0  0
 16 38  1  0  0  0  0
 16 39  1  0  0  0  0
 17 18  1  0  0  0  0
 17 40  1  0  0  0  0
 17 41  1  0  0  0  0
 18 19  1  0  0  0  0
 19 20  1  0  0  0  0
 19 42  1  0  0  0  0
 19 43  1  0  0  0  0
 20 44  1  0  0  0  0
 20 45  1  0  0  0  0
M  END
> <s_m_source_file>
AV-unprocessed.smi

> <i_m_source_file_index>
2390

> <i_lp_mmshare_version>
43012

> <i_f3d_flags>
0

> <s_epik_input>
W0NIM11jMVtjSF1bY0hdW2NIXWMobjEpW05IXUMoPU8pW05IXVtDQEhdKFtDSDNdKVtDQEhdKFtDSDNdKU4yW0NIMl1bQ0gyXU9bQ0gyXVtDSDJdMg==

> <s_epik_cmdline>
J2VwaWtfcHl0aG9uJywgJy1waCcsICc3LjAnLCAnLXRuJywgJzgnLCAnLW1hJywgJzIwMCcsICctbWV0YWxfYmluZGluZycsICctaW1hZScsICc8aW5maWxlLm1hZT4nLCAnLW9tYWUnLCAnPG91dGZpbGUubWFlPic=

> <r_epik_Ionization_Penalty>
0.266074

> <r_epik_Ionization_Penalty_Charging>
0

> <r_epik_Ionization_Penalty_Neutral>
0.266074

> <r_epik_State_Penalty>
0.257924

> <r_epik_Charging_Adjusted_Penalty>
0.257924

> <i_epik_Tot_Q>
0

> <i_epik_Tot_abs_Q>
0

> <r_epik_Metal_State_Penalty>
0.257919

> <b_epik_Metal_Only>
0

> <s_lp_Force_Field>
OPLS_2005

> <r_lp_Energy>
32.9653

> <b_lp_Chiralities_Consistent>
1

> <s_lp_Variant>
AV-unprocessed.smi:2390-2

> <Gold.Version>
5.8.1

> <Gold.Id.Protein>
6NUR|6NUR_protein|mol2

> <Gold.PLP.Fitness>
38.8596

> <Gold.PLP.PLP>
-31.4857

> <Gold.PLP.part.hbond>
-4.0000

> <Gold.PLP.part.metal>
0.0000

> <Gold.PLP.part.buried>
-2.6039

> <Gold.PLP.part.nonpolar>
-26.0948

> <Gold.PLP.part.repulsive>
1.0119

> <Gold.PLP.ligand.clash>
0.0000

> <Gold.PLP.ligand.torsion>
0.7129

> <Gold.PLP.Chemscore.Hbond>
2.8800

> <Gold.PLP.Chemscore.CHOScore>
0.0000

> <Gold.PLP.Chemscore.Metal>
0.0000

> <Gold.Chemscore.Hbonds>
donor molecule, donor type, donor heavy atom, donor atom, acceptor molecule, acceptor atom, score
      L1  H     7    28       P1  7948  1.00
      L1  H    10    29       P1  7948  0.96
      P1  H 10752 10763       L1    18  1.00

> <Gold.PLP.Chemscore.Internal.Correction>
0.1597

> <Gold.Rescore>
     Score         DG    S(hbond)    S(metal)    S(lipo)     H(rot)  DE(clash)    DE(int)     intcor
     14.80     -19.38       2.91        0.00      67.10       1.44       0.20       4.38       ----

> <Gold.Chemscore.Fitness>
14.7961

> <Gold.Chemscore.DG>
-19.3768

> <Gold.Chemscore.ZeroCoef>
-5.4800

> <Gold.Chemscore.Hbond>
2.9136

> <Gold.Chemscore.Metal>
0.0000

> <Gold.Chemscore.Lipo>
67.1006

> <Gold.Chemscore.Internal_Hbond>
0.0000

> <Gold.Chemscore.DEClash>
0.1996

> <Gold.Chemscore.DEInternal>
4.3811

> <Gold.Chemscore.Rot>
1.4396

> <Gold.Chemscore.Internal.Correction>
   9.000000E+99

> <Gold.Chemscore.Hbonds>
donor molecule, donor type, donor heavy atom, donor atom, acceptor molecule, acceptor atom, score
      L1  H     7    28       P1  7948  0.98
      L1  H    10    29       P1  7948  0.92
      P1  H 10752 10763       L1    18  0.94

> <Gold.Chemscore.Hbond.Weighted>
-9.7315

> <Gold.Chemscore.Metal.Weighted>
-0.0000

> <Gold.Chemscore.Lipo.Weighted>
-7.8508

> <Gold.Chemscore.Internal_Hbond.Weighted>
0.0000

> <Gold.Chemscore.DEClash.Weighted>
0.1996

> <Gold.Chemscore.DEInternal.Weighted>
4.3811

> <Gold.Chemscore.Rot.Weighted>
3.6855

> <Gold.Chemscore.Internal.Correction.Weighted>
   9.000000E+99

> <Gold.Protein.RotatedTorsions>
[ 6907 6896 6895 6894 ] final  170.90 input  -60.11 | X-H torsion
[ 7974 7965 7964 7962 ] final -106.41 input  175.53 | X-H torsion
[ 8008 7997 7996 7995 ] final  172.72 input   59.86 | X-H torsion
[ 10167 10162 10161 10158 ] final  142.65 input  -65.29 | X-H torsion
[ 10718 10713 10712 10709 ] final  -70.45 input   66.30 | X-H torsion
[ 10763 10752 10751 10750 ] final   41.49 input  -60.55 | X-H torsion
[ 11005 11000 10999 10996 ] final  -75.85 input  -57.11 | X-H torsion

> <Gold.Protein.ActiveResidues>
 VAL166  LYS551  ARG553  GLY616  TRP617  ASP618  TYR619  PRO620  LYS621  CYS622 
 ASP623  PHE694  ASN695  SER759  ASP760  ASP761  ALA762  ILE779  LEU786  VAL792 
 PHE793  MET794  SER795  GLU796  ALA797  LYS798  CYS799  TRP800  GLU811  SER814 

> <Gold.Protein.RotatedAtoms>
  151.8088  133.3379  159.3548 H   0  0  0  0  0  0  0  0  0  0  0  0  # atno 6907 bound_to 6896
  150.7333  134.5684  159.5887 H   0  0  0  0  0  0  0  0  0  0  0  0  # atno 6908 bound_to 6896
  152.3090  134.7521  160.0392 H   0  0  0  0  0  0  0  0  0  0  0  0  # atno 6909 bound_to 6896
  145.2182  140.9124  143.3275 H   0  0  0  0  0  0  0  0  0  0  0  0  # atno 7974 bound_to 7965
  156.1146  140.1478  156.9290 H   0  0  0  0  0  0  0  0  0  0  0  0  # atno 8008 bound_to 7997
  154.4791  140.0885  156.7378 H   0  0  0  0  0  0  0  0  0  0  0  0  # atno 8009 bound_to 7997
  155.4536  140.3435  155.4306 H   0  0  0  0  0  0  0  0  0  0  0  0  # atno 8010 bound_to 7997
  139.4989  144.6093  151.6308 H   0  0  0  0  0  0  0  0  0  0  0  0  # atno 10167 bound_to 10162
  156.0407  130.4332  150.2298 H   0  0  0  0  0  0  0  0  0  0  0  0  # atno 10718 bound_to 10713
  152.9907  135.6160  154.2796 H   0  0  0  0  0  0  0  0  0  0  0  0  # atno 10763 bound_to 10752
  154.2526  135.2785  155.2812 H   0  0  0  0  0  0  0  0  0  0  0  0  # atno 10764 bound_to 10752
  154.5275  135.5797  153.6789 H   0  0  0  0  0  0  0  0  0  0  0  0  # atno 10765 bound_to 10752
  141.1649  133.6962  156.7579 H   0  0  0  0  0  0  0  0  0  0  0  0  # atno 11005 bound_to 11000
  144.9790  139.3802  143.6271 LP  0  0  0  0  0  0  0  0  0  0  0  0  # atno 17320 bound_to 7965
  146.3382  139.8923  142.8807 LP  0  0  0  0  0  0  0  0  0  0  0  0  # atno 17321 bound_to 7965
  140.5763  144.0022  150.6244 LP  0  0  0  0  0  0  0  0  0  0  0  0  # atno 17342 bound_to 10162
  140.3157  143.3169  152.0835 LP  0  0  0  0  0  0  0  0  0  0  0  0  # atno 17343 bound_to 10162
  157.0393  131.0030  151.3288 LP  0  0  0  0  0  0  0  0  0  0  0  0  # atno 17370 bound_to 10713
  157.5221  130.8004  149.7821 LP  0  0  0  0  0  0  0  0  0  0  0  0  # atno 17371 bound_to 10713
  140.2555  134.8507  157.3709 LP  0  0  0  0  0  0  0  0  0  0  0  0  # atno 17394 bound_to 11000
  140.1661  134.4667  155.7862 LP  0  0  0  0  0  0  0  0  0  0  0  0  # atno 17395 bound_to 11000

$$$$
