AV-unprocessed.smi:123|AV-procd|sdf|1144|dock1
  -GOLD-   2262018273D 1   1.00000     0.00000
 Structure written by MMmdl.
 43 45  0  0  0  0  0  0  0  0  1 V2000
  153.3766  141.6345  161.6590 C   0  0  0  0  0  0  0  0  0  0  0  0
  153.6670  141.9344  160.1818 C   0  0  1  0  0  0  0  0  0  0  0  0
  153.3957  140.7494  159.3789 N   0  0  0  0  0  0  0  0  0  0  0  0
  153.6844  139.4758  159.6950 C   0  0  0  0  0  0  0  0  0  0  0  0
  154.1814  139.1484  160.7717 O   0  0  0  0  0  0  0  0  0  0  0  0
  153.3832  138.3919  158.6424 C   0  0  0  0  0  0  0  0  0  0  0  0
  152.0201  138.4627  158.0646 N   0  0  0  0  0  0  0  0  0  0  0  0
  150.9534  137.8305  158.7505 C   0  0  0  0  0  0  0  0  0  0  0  0
  151.1456  137.2065  159.7947 O   0  0  0  0  0  0  0  0  0  0  0  0
  149.6355  137.9859  158.1449 C   0  0  0  0  0  0  0  0  0  0  0  0
  148.5687  137.3999  158.7146 F   0  0  0  0  0  0  0  0  0  0  0  0
  149.4670  138.7166  157.0235 C   0  0  0  0  0  0  0  0  0  0  0  0
  150.5134  139.3555  156.3812 N   0  0  0  0  0  0  0  0  0  0  0  0
  150.3050  140.1990  155.1393 C   0  0  2  0  0  0  0  0  0  0  0  0
  149.3736  141.3916  155.4426 C   0  0  0  0  0  0  0  0  0  0  0  0
  148.2805  141.2459  154.4020 C   0  0  0  0  0  0  0  0  0  0  0  0
  148.2874  139.7479  154.1390 C   0  0  0  0  0  0  0  0  0  0  0  0
  149.6745  139.4391  154.1480 O   0  0  0  0  0  0  0  0  0  0  0  0
  151.8259  139.2150  156.8813 C   0  0  0  0  0  0  0  0  0  0  0  0
  152.7763  139.7545  156.3102 O   0  0  0  0  0  0  0  0  0  0  0  0
  152.8644  143.0859  159.6666 C   0  0  0  0  0  0  0  0  0  0  0  0
  152.7736  143.6966  158.4463 C   0  0  0  0  0  0  0  0  0  0  0  0
  151.8273  144.7485  158.5920 C   0  0  0  0  0  0  0  0  0  0  0  0
  151.4156  144.7079  159.8935 C   0  0  0  0  0  0  0  0  0  0  0  0
  152.0404  143.7023  160.5640 O   0  0  0  0  0  0  0  0  0  0  0  0
  153.5941  142.5014  162.2834 H   0  0  0  0  0  0  0  0  0  0  0  0
  153.9881  140.8072  162.0208 H   0  0  0  0  0  0  0  0  0  0  0  0
  152.3303  141.3675  161.8127 H   0  0  0  0  0  0  0  0  0  0  0  0
  154.7226  142.1962  160.0898 H   0  0  0  0  0  0  0  0  0  0  0  0
  152.9837  140.9163  158.4725 H   0  0  0  0  0  0  0  0  0  0  0  0
  154.1340  138.4655  157.8540 H   0  0  0  0  0  0  0  0  0  0  0  0
  153.5743  137.4178  159.0948 H   0  0  0  0  0  0  0  0  0  0  0  0
  148.4653  138.7917  156.6289 H   0  0  0  0  0  0  0  0  0  0  0  0
  151.3059  140.4830  154.8094 H   0  0  0  0  0  0  0  0  0  0  0  0
  148.9566  141.3031  156.4465 H   0  0  0  0  0  0  0  0  0  0  0  0
  149.9117  142.3368  155.3663 H   0  0  0  0  0  0  0  0  0  0  0  0
  147.3133  141.6155  154.7439 H   0  0  0  0  0  0  0  0  0  0  0  0
  148.5528  141.7855  153.4939 H   0  0  0  0  0  0  0  0  0  0  0  0
  147.7736  139.2104  154.9374 H   0  0  0  0  0  0  0  0  0  0  0  0
  147.8230  139.4829  153.1891 H   0  0  0  0  0  0  0  0  0  0  0  0
  153.3187  143.4171  157.5567 H   0  0  0  0  0  0  0  0  0  0  0  0
  151.4916  145.4475  157.8403 H   0  0  0  0  0  0  0  0  0  0  0  0
  150.7183  145.2894  160.4786 H   0  0  0  0  0  0  0  0  0  0  0  0
  1  2  1  0  0  0  0
  1 26  1  0  0  0  0
  1 27  1  0  0  0  0
  1 28  1  0  0  0  0
  2  3  1  0  0  0  0
  2 21  1  0  0  0  0
  2 29  1  0  0  0  0
  3  4  1  0  0  0  0
  3 30  1  0  0  0  0
  4  5  2  0  0  0  0
  4  6  1  0  0  0  0
  6  7  1  0  0  0  0
  6 31  1  0  0  0  0
  6 32  1  0  0  0  0
  7 19  1  0  0  0  0
  7  8  1  0  0  0  0
  8  9  2  0  0  0  0
  8 10  1  0  0  0  0
 10 11  1  0  0  0  0
 10 12  2  0  0  0  0
 12 13  1  0  0  0  0
 12 33  1  0  0  0  0
 13 14  1  0  0  0  0
 13 19  1  0  0  0  0
 14 18  1  0  0  0  0
 14 15  1  0  0  0  0
 14 34  1  0  0  0  0
 15 16  1  0  0  0  0
 15 35  1  0  0  0  0
 15 36  1  0  0  0  0
 16 17  1  0  0  0  0
 16 37  1  0  0  0  0
 16 38  1  0  0  0  0
 17 18  1  0  0  0  0
 17 39  1  0  0  0  0
 17 40  1  0  0  0  0
 19 20  2  0  0  0  0
 21 25  1  0  0  0  0
 21 22  2  0  0  0  0
 22 23  1  0  0  0  0
 22 41  1  0  0  0  0
 23 24  2  0  0  0  0
 23 42  1  0  0  0  0
 24 25  1  0  0  0  0
 24 43  1  0  0  0  0
M  END
> <s_m_source_file>
AV-unprocessed.smi

> <i_m_source_file_index>
123

> <i_lp_mmshare_version>
43012

> <i_f3d_flags>
0

> <s_epik_input>
bzFbY0hdW2NIXVtjSF1jMVtDQEhdKFtDSDNdKVtOSF1DKD1PKVtDSDJdbjJjKD1PKWMoRilbY0hdbihjMj1PKVtDQEBIXTNbQ0gyXVtDSDJdW0NIMl1PMw==

> <s_epik_cmdline>
J2VwaWtfcHl0aG9uJywgJy1waCcsICc3LjAnLCAnLXRuJywgJzgnLCAnLW1hJywgJzIwMCcsICctbWV0YWxfYmluZGluZycsICctaW1hZScsICc8aW5maWxlLm1hZT4nLCAnLW9tYWUnLCAnPG91dGZpbGUubWFlPic=

> <r_lp_tautomer_probability>
1

> <r_epik_Ionization_Penalty>
2.31906e-08

> <r_epik_Ionization_Penalty_Charging>
3.85846e-09

> <r_epik_Ionization_Penalty_Neutral>
1.93321e-08

> <r_epik_State_Penalty>
-0

> <r_epik_Charging_Adjusted_Penalty>
3.85846e-09

> <i_epik_Tot_Q>
0

> <i_epik_Tot_abs_Q>
0

> <r_epik_Metal_State_Penalty>
-0

> <b_epik_Metal_Only>
0

> <s_epik_Chemistry_Notes>
This compound contains an acetal/aminal-like group ( X-CH(R)-Y where X, Y are N, S, or O) that may be acid/base labile, releasing an aldehyde.

> <s_lp_Force_Field>
OPLS_2005

> <r_lp_Energy>
20.7844

> <b_lp_Chiralities_Consistent>
1

> <s_lp_Variant>
AV-unprocessed.smi:123-2

> <Gold.Version>
5.8.1

> <Gold.Id.Protein>
6NUR|6NUR_protein|mol2

> <Gold.PLP.Fitness>
50.3636

> <Gold.PLP.PLP>
-45.9262

> <Gold.PLP.part.hbond>
-1.9080

> <Gold.PLP.part.metal>
0.0000

> <Gold.PLP.part.buried>
-6.3370

> <Gold.PLP.part.nonpolar>
-38.2710

> <Gold.PLP.part.repulsive>
0.7588

> <Gold.PLP.ligand.clash>
0.0000

> <Gold.PLP.ligand.torsion>
0.7365

> <Gold.PLP.Chemscore.Hbond>
1.9588

> <Gold.PLP.Chemscore.CHOScore>
0.0000

> <Gold.PLP.Chemscore.Metal>
0.0000

> <Gold.Chemscore.Hbonds>
donor molecule, donor type, donor heavy atom, donor atom, acceptor molecule, acceptor atom, score
      P1  H  6896  6909       L1     9  0.93
      P1  H  7997  8010       L1    20  1.00

> <Gold.PLP.Chemscore.Internal.Correction>
0.0342

> <Gold.Rescore>
     Score         DG    S(hbond)    S(metal)    S(lipo)     H(rot)  DE(clash)    DE(int)     intcor
     15.79     -17.87       1.97        0.00      98.58       2.23       0.03       2.05       ----

> <Gold.Chemscore.Fitness>
15.7926

> <Gold.Chemscore.DG>
-17.8706

> <Gold.Chemscore.ZeroCoef>
-5.4800

> <Gold.Chemscore.Hbond>
1.9694

> <Gold.Chemscore.Metal>
0.0000

> <Gold.Chemscore.Lipo>
98.5764

> <Gold.Chemscore.Internal_Hbond>
0.0000

> <Gold.Chemscore.DEClash>
0.0301

> <Gold.Chemscore.DEInternal>
2.0478

> <Gold.Chemscore.Rot>
2.2347

> <Gold.Chemscore.Internal.Correction>
   9.000000E+99

> <Gold.Chemscore.Hbonds>
donor molecule, donor type, donor heavy atom, donor atom, acceptor molecule, acceptor atom, score
      P1  H  6896  6909       L1     9  0.88
      P1  H  7997  8010       L1    20  0.99

> <Gold.Chemscore.Hbond.Weighted>
-6.5779

> <Gold.Chemscore.Metal.Weighted>
-0.0000

> <Gold.Chemscore.Lipo.Weighted>
-11.5334

> <Gold.Chemscore.Internal_Hbond.Weighted>
0.0000

> <Gold.Chemscore.DEClash.Weighted>
0.0301

> <Gold.Chemscore.DEInternal.Weighted>
2.0478

> <Gold.Chemscore.Rot.Weighted>
5.7208

> <Gold.Chemscore.Internal.Correction.Weighted>
   9.000000E+99

> <Gold.Protein.RotatedTorsions>
[ 6907 6896 6895 6894 ] final  111.27 input  -60.11 | X-H torsion
[ 7974 7965 7964 7962 ] final   96.17 input  175.53 | X-H torsion
[ 8008 7997 7996 7995 ] final   79.73 input   59.86 | X-H torsion
[ 10167 10162 10161 10158 ] final  -47.76 input  -65.29 | X-H torsion
[ 10718 10713 10712 10709 ] final  177.10 input   66.30 | X-H torsion
[ 10763 10752 10751 10750 ] final   70.98 input  -60.55 | X-H torsion
[ 11005 11000 10999 10996 ] final -113.63 input  -57.11 | X-H torsion

> <Gold.Protein.ActiveResidues>
 VAL166  LYS551  ARG553  GLY616  TRP617  ASP618  TYR619  PRO620  LYS621  CYS622 
 ASP623  PHE694  ASN695  SER759  ASP760  ASP761  ALA762  ILE779  LEU786  VAL792 
 PHE793  MET794  SER795  GLU796  ALA797  LYS798  CYS799  TRP800  GLU811  SER814 

> <Gold.Protein.RotatedAtoms>
  152.4978  133.8682  159.7284 H   0  0  0  0  0  0  0  0  0  0  0  0  # atno 6907 bound_to 6896
  150.9176  133.6911  159.2846 H   0  0  0  0  0  0  0  0  0  0  0  0  # atno 6908 bound_to 6896
  151.4300  135.1013  159.9692 H   0  0  0  0  0  0  0  0  0  0  0  0  # atno 6909 bound_to 6896
  145.4424  139.2300  143.3084 H   0  0  0  0  0  0  0  0  0  0  0  0  # atno 7974 bound_to 7965
  155.8737  140.3447  155.5839 H   0  0  0  0  0  0  0  0  0  0  0  0  # atno 8008 bound_to 7997
  155.7799  140.0857  157.2084 H   0  0  0  0  0  0  0  0  0  0  0  0  # atno 8009 bound_to 7997
  154.4019  140.1503  156.3027 H   0  0  0  0  0  0  0  0  0  0  0  0  # atno 8010 bound_to 7997
  140.6761  143.2770  151.3973 H   0  0  0  0  0  0  0  0  0  0  0  0  # atno 10167 bound_to 10162
  156.9103  130.9907  151.3022 H   0  0  0  0  0  0  0  0  0  0  0  0  # atno 10718 bound_to 10713
  153.0372  135.5154  154.7523 H   0  0  0  0  0  0  0  0  0  0  0  0  # atno 10763 bound_to 10752
  154.6490  135.2922  155.0013 H   0  0  0  0  0  0  0  0  0  0  0  0  # atno 10764 bound_to 10752
  154.0904  135.6651  153.4904 H   0  0  0  0  0  0  0  0  0  0  0  0  # atno 10765 bound_to 10752
  141.0602  133.9547  157.2680 H   0  0  0  0  0  0  0  0  0  0  0  0  # atno 11005 bound_to 11000
  146.2549  140.5174  142.8878 LP  0  0  0  0  0  0  0  0  0  0  0  0  # atno 17320 bound_to 7965
  144.8113  140.6390  143.6413 LP  0  0  0  0  0  0  0  0  0  0  0  0  # atno 17321 bound_to 7965
  139.6054  144.1208  152.2243 LP  0  0  0  0  0  0  0  0  0  0  0  0  # atno 17342 bound_to 10162
  140.0605  144.5860  150.7267 LP  0  0  0  0  0  0  0  0  0  0  0  0  # atno 17343 bound_to 10162
  157.5971  130.8486  149.8746 LP  0  0  0  0  0  0  0  0  0  0  0  0  # atno 17370 bound_to 10713
  156.0539  130.3712  150.1137 LP  0  0  0  0  0  0  0  0  0  0  0  0  # atno 17371 bound_to 10713
  139.9426  135.0189  156.8755 LP  0  0  0  0  0  0  0  0  0  0  0  0  # atno 17394 bound_to 11000
  140.5883  134.0286  155.7490 LP  0  0  0  0  0  0  0  0  0  0  0  0  # atno 17395 bound_to 11000

$$$$
