AV-unprocessed.smi:1014|AV-procd|sdf|4433|dock4
  -GOLD-   22720 2393D 1   1.00000     0.00000
 Structure written by MMmdl.
 33 33  0  0  0  0  0  0  0  0  1 V2000
  147.3621  142.7544  154.0668 C   0  0  0  0  0  0  0  0  0  0  0  0
  147.9854  141.4203  153.6332 C   0  0  0  0  0  0  0  0  0  0  0  0
  149.1385  140.9601  154.5499 C   0  0  1  0  0  0  0  0  0  0  0  0
  148.7007  140.9717  155.9585 N   0  0  0  0  0  0  0  0  0  0  0  0
  149.7888  141.0307  156.9280 C   0  0  0  0  0  0  0  0  0  0  0  0
  150.7799  142.1259  156.5100 C   0  0  0  0  0  0  0  0  0  0  0  0
  151.4037  142.7488  157.6611 N   0  0  0  0  0  0  0  0  0  0  0  0
  151.3146  144.0591  158.0807 C   0  0  0  0  0  0  0  0  0  0  0  0
  152.0739  144.1814  159.2100 C   0  0  0  0  0  0  0  0  0  0  0  0
  152.3115  145.4000  160.0545 C   0  0  0  0  0  0  0  0  0  0  0  0
  152.5958  142.8704  159.4009 C   0  0  0  0  0  0  0  0  0  0  0  0
  152.1941  142.0163  158.4738 N   0  0  0  0  0  0  0  0  0  0  0  0
  149.6651  139.5860  154.0999 C   0  0  0  0  0  0  0  0  0  0  0  0
  148.8350  138.8150  153.3932 N   0  0  0  0  0  0  0  0  0  0  0  0
  150.8122  139.2358  154.3713 O   0  0  0  0  0  0  0  0  0  0  0  0
  146.5696  143.0524  153.3802 H   0  0  0  0  0  0  0  0  0  0  0  0
  148.1057  143.5513  154.0811 H   0  0  0  0  0  0  0  0  0  0  0  0
  146.9262  142.6841  155.0635 H   0  0  0  0  0  0  0  0  0  0  0  0
  147.2110  140.6530  153.5881 H   0  0  0  0  0  0  0  0  0  0  0  0
  148.3506  141.5385  152.6117 H   0  0  0  0  0  0  0  0  0  0  0  0
  149.9544  141.6780  154.4443 H   0  0  0  0  0  0  0  0  0  0  0  0
  148.0981  140.1880  156.1664 H   0  0  0  0  0  0  0  0  0  0  0  0
  149.4042  141.2472  157.9252 H   0  0  0  0  0  0  0  0  0  0  0  0
  150.2967  140.0661  156.9718 H   0  0  0  0  0  0  0  0  0  0  0  0
  151.5644  141.7095  155.8764 H   0  0  0  0  0  0  0  0  0  0  0  0
  150.2767  142.8980  155.9256 H   0  0  0  0  0  0  0  0  0  0  0  0
  150.7247  144.7890  157.5458 H   0  0  0  0  0  0  0  0  0  0  0  0
  153.1508  145.9877  159.6826 H   0  0  0  0  0  0  0  0  0  0  0  0
  152.5350  145.1375  161.0886 H   0  0  0  0  0  0  0  0  0  0  0  0
  151.4411  146.0562  160.0718 H   0  0  0  0  0  0  0  0  0  0  0  0
  153.2515  142.5161  160.1824 H   0  0  0  0  0  0  0  0  0  0  0  0
  149.1382  137.9050  153.0783 H   0  0  0  0  0  0  0  0  0  0  0  0
  147.9058  139.1454  153.1774 H   0  0  0  0  0  0  0  0  0  0  0  0
  1  2  1  0  0  0  0
  1 16  1  0  0  0  0
  1 17  1  0  0  0  0
  1 18  1  0  0  0  0
  2  3  1  0  0  0  0
  2 19  1  0  0  0  0
  2 20  1  0  0  0  0
  3  4  1  0  0  0  0
  3 13  1  0  0  0  0
  3 21  1  0  0  0  0
  4  5  1  0  0  0  0
  4 22  1  0  0  0  0
  5  6  1  0  0  0  0
  5 23  1  0  0  0  0
  5 24  1  0  0  0  0
  6  7  1  0  0  0  0
  6 25  1  0  0  0  0
  6 26  1  0  0  0  0
  7 12  1  0  0  0  0
  7  8  1  0  0  0  0
  8  9  2  0  0  0  0
  8 27  1  0  0  0  0
  9 10  1  0  0  0  0
  9 11  1  0  0  0  0
 10 28  1  0  0  0  0
 10 29  1  0  0  0  0
 10 30  1  0  0  0  0
 11 12  2  0  0  0  0
 11 31  1  0  0  0  0
 13 14  1  0  0  0  0
 13 15  2  0  0  0  0
 14 32  1  0  0  0  0
 14 33  1  0  0  0  0
M  END
> <s_m_source_file>
AV-unprocessed.smi

> <i_m_source_file_index>
1014

> <i_lp_mmshare_version>
43012

> <i_f3d_flags>
0

> <s_epik_input>
W0NIM11bQ0gyXVtDQEBIXShDKD1PKVtOSDJdKVtOSF1bQ0gyXVtDSDJdbjFbY0hdYyhbQ0gzXSlbY0hdbjE=

> <s_epik_cmdline>
J2VwaWtfcHl0aG9uJywgJy1waCcsICc3LjAnLCAnLXRuJywgJzgnLCAnLW1hJywgJzIwMCcsICctbWV0YWxfYmluZGluZycsICctaW1hZScsICc8aW5maWxlLm1hZT4nLCAnLW9tYWUnLCAnPG91dGZpbGUubWFlPic=

> <r_lp_tautomer_probability>
1

> <r_epik_Ionization_Penalty>
0.767127

> <r_epik_Ionization_Penalty_Charging>
0

> <r_epik_Ionization_Penalty_Neutral>
0.767127

> <r_epik_State_Penalty>
0.793761

> <r_epik_Charging_Adjusted_Penalty>
0.793761

> <i_epik_Tot_Q>
0

> <i_epik_Tot_abs_Q>
0

> <r_epik_Metal_State_Penalty>
0.79201

> <b_epik_Metal_Only>
0

> <s_lp_Force_Field>
OPLS_2005

> <r_lp_Energy>
4.41015

> <b_lp_Chiralities_Consistent>
1

> <s_lp_Variant>
AV-unprocessed.smi:1014-4

> <Gold.Version>
5.8.1

> <Gold.Id.Protein>
6NUR|6NUR_protein|mol2

> <Gold.PLP.Fitness>
43.1064

> <Gold.PLP.PLP>
-36.8985

> <Gold.PLP.part.hbond>
-3.0000

> <Gold.PLP.part.metal>
0.0000

> <Gold.PLP.part.buried>
-2.6094

> <Gold.PLP.part.nonpolar>
-31.8815

> <Gold.PLP.part.repulsive>
0.2133

> <Gold.PLP.ligand.clash>
0.0000

> <Gold.PLP.ligand.torsion>
1.0730

> <Gold.PLP.Chemscore.Hbond>
1.7430

> <Gold.PLP.Chemscore.CHOScore>
1.0071

> <Gold.PLP.Chemscore.Metal>
0.0000

> <Gold.Chemscore.Hbonds>
donor molecule, donor type, donor heavy atom, donor atom, acceptor molecule, acceptor atom, score
      L1  H    14    32       P1  7948  0.96
      P1  H  7989  7998       L1    15  0.65
      L1  C     8    27       P1  8028  0.84

> <Gold.PLP.Chemscore.Internal.Correction>
0.1037

> <Gold.Rescore>
     Score         DG    S(hbond)    S(metal)    S(lipo)     H(rot)  DE(clash)    DE(int)     intcor
     10.68     -11.91       1.05        0.00      79.94       2.51       0.07       1.16       ----

> <Gold.Chemscore.Fitness>
10.6848

> <Gold.Chemscore.DG>
-11.9149

> <Gold.Chemscore.ZeroCoef>
-5.4800

> <Gold.Chemscore.Hbond>
1.0498

> <Gold.Chemscore.Metal>
0.0000

> <Gold.Chemscore.Lipo>
79.9428

> <Gold.Chemscore.Internal_Hbond>
0.0000

> <Gold.Chemscore.DEClash>
0.0721

> <Gold.Chemscore.DEInternal>
1.1580

> <Gold.Chemscore.Rot>
2.5096

> <Gold.Chemscore.Internal.Correction>
   9.000000E+99

> <Gold.Chemscore.Hbonds>
donor molecule, donor type, donor heavy atom, donor atom, acceptor molecule, acceptor atom, score
      L1  H    14    32       P1  7948  0.87
      P1  H  7989  7998       L1    15  0.05

> <Gold.Chemscore.Hbond.Weighted>
-3.5062

> <Gold.Chemscore.Metal.Weighted>
-0.0000

> <Gold.Chemscore.Lipo.Weighted>
-9.3533

> <Gold.Chemscore.Internal_Hbond.Weighted>
0.0000

> <Gold.Chemscore.DEClash.Weighted>
0.0721

> <Gold.Chemscore.DEInternal.Weighted>
1.1580

> <Gold.Chemscore.Rot.Weighted>
6.4246

> <Gold.Chemscore.Internal.Correction.Weighted>
   9.000000E+99

> <Gold.Protein.RotatedTorsions>
[ 6907 6896 6895 6894 ] final  -21.44 input  -60.11 | X-H torsion
[ 7974 7965 7964 7962 ] final  -20.32 input  175.53 | X-H torsion
[ 8008 7997 7996 7995 ] final  -94.85 input   59.86 | X-H torsion
[ 10167 10162 10161 10158 ] final  -57.37 input  -65.29 | X-H torsion
[ 10718 10713 10712 10709 ] final  159.52 input   66.30 | X-H torsion
[ 10763 10752 10751 10750 ] final   69.57 input  -60.55 | X-H torsion
[ 11005 11000 10999 10996 ] final   40.81 input  -57.11 | X-H torsion

> <Gold.Protein.ActiveResidues>
 VAL166  LYS551  ARG553  GLY616  TRP617  ASP618  TYR619  PRO620  LYS621  CYS622 
 ASP623  PHE694  ASN695  SER759  ASP760  ASP761  ALA762  ILE779  LEU786  VAL792 
 PHE793  MET794  SER795  GLU796  ALA797  LYS798  CYS799  TRP800  GLU811  SER814 

> <Gold.Protein.RotatedAtoms>
  151.2332  135.0562  159.8995 H   0  0  0  0  0  0  0  0  0  0  0  0  # atno 6907 bound_to 6896
  152.5402  134.0514  159.8122 H   0  0  0  0  0  0  0  0  0  0  0  0  # atno 6908 bound_to 6896
  151.0697  133.5428  159.2659 H   0  0  0  0  0  0  0  0  0  0  0  0  # atno 6909 bound_to 6896
  146.1795  140.4185  142.8500 H   0  0  0  0  0  0  0  0  0  0  0  0  # atno 7974 bound_to 7965
  154.7538  140.0485  157.0916 H   0  0  0  0  0  0  0  0  0  0  0  0  # atno 8008 bound_to 7997
  155.0024  140.3126  155.4843 H   0  0  0  0  0  0  0  0  0  0  0  0  # atno 8009 bound_to 7997
  156.2890  140.2199  156.5134 H   0  0  0  0  0  0  0  0  0  0  0  0  # atno 8010 bound_to 7997
  140.6262  143.2439  151.5357 H   0  0  0  0  0  0  0  0  0  0  0  0  # atno 10167 bound_to 10162
  157.1630  131.0592  151.2222 H   0  0  0  0  0  0  0  0  0  0  0  0  # atno 10718 bound_to 10713
  153.0294  135.5206  154.7309 H   0  0  0  0  0  0  0  0  0  0  0  0  # atno 10763 bound_to 10752
  154.6337  135.2903  155.0189 H   0  0  0  0  0  0  0  0  0  0  0  0  # atno 10764 bound_to 10752
  154.1132  135.6619  153.4941 H   0  0  0  0  0  0  0  0  0  0  0  0  # atno 10765 bound_to 10752
  140.1895  134.4004  155.8154 H   0  0  0  0  0  0  0  0  0  0  0  0  # atno 11005 bound_to 11000
  144.8290  140.6677  143.6303 LP  0  0  0  0  0  0  0  0  0  0  0  0  # atno 17320 bound_to 7965
  145.4118  139.1579  143.4122 LP  0  0  0  0  0  0  0  0  0  0  0  0  # atno 17321 bound_to 7965
  139.5482  144.2465  152.1482 LP  0  0  0  0  0  0  0  0  0  0  0  0  # atno 17342 bound_to 10162
  140.1697  144.4948  150.6586 LP  0  0  0  0  0  0  0  0  0  0  0  0  # atno 17343 bound_to 10162
  157.4115  130.7387  149.6842 LP  0  0  0  0  0  0  0  0  0  0  0  0  # atno 17370 bound_to 10713
  155.9750  130.4094  150.3877 LP  0  0  0  0  0  0  0  0  0  0  0  0  # atno 17371 bound_to 10713
  141.2226  133.7039  156.8070 LP  0  0  0  0  0  0  0  0  0  0  0  0  # atno 17394 bound_to 11000
  140.2176  134.8781  157.3342 LP  0  0  0  0  0  0  0  0  0  0  0  0  # atno 17395 bound_to 11000

$$$$
