AV-unprocessed.smi:1703|AV-procd|sdf|6857|dock6
  -GOLD-   22720 8 43D 1   1.00000     0.00000
 Structure written by MMmdl.
 48 50  0  0  0  0  0  0  0  0  1 V2000
  144.8512  142.1240  157.6545 C   0  0  0  0  0  0  0  0  0  0  0  0
  145.9104  142.4187  156.5872 C   0  0  1  0  0  0  0  0  0  0  0  0
  147.2566  141.7432  156.9042 C   0  0  0  0  0  0  0  0  0  0  0  0
  148.2360  141.9608  155.8475 N   0  0  0  0  0  0  0  0  0  0  0  0
  149.5232  141.3547  156.1865 C   0  0  0  0  0  0  0  0  0  0  0  0
  150.2059  141.9338  157.4441 C   0  0  2  0  0  0  0  0  0  0  0  0
  149.9074  143.3137  157.5381 O   0  0  0  0  0  0  0  0  0  0  0  0
  151.7375  141.7549  157.4016 C   0  0  0  0  0  0  0  0  0  0  0  0
  152.3131  141.4846  158.7131 N   0  0  0  0  0  0  0  0  0  0  0  0
  152.8714  140.3301  159.1572 C   0  0  0  0  0  0  0  0  0  0  0  0
  152.9686  139.1178  158.2741 C   0  0  0  0  0  0  0  0  0  0  0  0
  154.2904  138.6630  158.0642 O   0  0  0  0  0  0  0  0  0  0  0  0
  153.3291  140.3567  160.4112 N   0  0  0  0  0  0  0  0  0  0  0  0
  153.0421  141.6453  160.8157 C   0  0  0  0  0  0  0  0  0  0  0  0
  153.2811  142.2956  162.0474 C   0  0  0  0  0  0  0  0  0  0  0  0
  152.8948  143.6395  162.2318 C   0  0  0  0  0  0  0  0  0  0  0  0
  152.2666  144.3508  161.1892 C   0  0  0  0  0  0  0  0  0  0  0  0
  152.0199  143.7216  159.9537 C   0  0  0  0  0  0  0  0  0  0  0  0
  152.4065  142.3796  159.7749 C   0  0  0  0  0  0  0  0  0  0  0  0
  147.6951  141.4596  154.5861 C   0  0  0  0  0  0  0  0  0  0  0  0
  146.3272  142.0791  154.2368 C   0  0  2  0  0  0  0  0  0  0  0  0
  146.4249  143.5383  153.7598 C   0  0  0  0  0  0  0  0  0  0  0  0
  145.4240  141.9394  155.3350 O   0  0  0  0  0  0  0  0  0  0  0  0
  145.1673  142.4893  158.6319 H   0  0  0  0  0  0  0  0  0  0  0  0
  144.6640  141.0532  157.7413 H   0  0  0  0  0  0  0  0  0  0  0  0
  143.9062  142.6089  157.4089 H   0  0  0  0  0  0  0  0  0  0  0  0
  146.0493  143.4989  156.5324 H   0  0  0  0  0  0  0  0  0  0  0  0
  147.6391  142.1352  157.8473 H   0  0  0  0  0  0  0  0  0  0  0  0
  147.1033  140.6726  157.0510 H   0  0  0  0  0  0  0  0  0  0  0  0
  149.3450  140.2943  156.3704 H   0  0  0  0  0  0  0  0  0  0  0  0
  150.2000  141.3867  155.3308 H   0  0  0  0  0  0  0  0  0  0  0  0
  149.8172  141.4375  158.3337 H   0  0  0  0  0  0  0  0  0  0  0  0
  149.7279  143.6428  156.6709 H   0  0  0  0  0  0  0  0  0  0  0  0
  152.0040  140.9379  156.7308 H   0  0  0  0  0  0  0  0  0  0  0  0
  152.2118  142.6467  156.9898 H   0  0  0  0  0  0  0  0  0  0  0  0
  152.3949  138.3019  158.7123 H   0  0  0  0  0  0  0  0  0  0  0  0
  152.5234  139.3477  157.3056 H   0  0  0  0  0  0  0  0  0  0  0  0
  154.3828  137.8125  158.4650 H   0  0  0  0  0  0  0  0  0  0  0  0
  153.7620  141.7591  162.8520 H   0  0  0  0  0  0  0  0  0  0  0  0
  153.0816  144.1265  163.1777 H   0  0  0  0  0  0  0  0  0  0  0  0
  151.9736  145.3798  161.3384 H   0  0  0  0  0  0  0  0  0  0  0  0
  151.5374  144.2641  159.1547 H   0  0  0  0  0  0  0  0  0  0  0  0
  148.3897  141.6545  153.7693 H   0  0  0  0  0  0  0  0  0  0  0  0
  147.5869  140.3755  154.6452 H   0  0  0  0  0  0  0  0  0  0  0  0
  145.9003  141.5044  153.4144 H   0  0  0  0  0  0  0  0  0  0  0  0
  147.0267  143.6096  152.8536 H   0  0  0  0  0  0  0  0  0  0  0  0
  146.8854  144.1846  154.5067 H   0  0  0  0  0  0  0  0  0  0  0  0
  145.4375  143.9405  153.5326 H   0  0  0  0  0  0  0  0  0  0  0  0
  1  2  1  0  0  0  0
  1 24  1  0  0  0  0
  1 25  1  0  0  0  0
  1 26  1  0  0  0  0
  2 23  1  0  0  0  0
  2  3  1  0  0  0  0
  2 27  1  0  0  0  0
  3  4  1  0  0  0  0
  3 28  1  0  0  0  0
  3 29  1  0  0  0  0
  4  5  1  0  0  0  0
  4 20  1  0  0  0  0
  5  6  1  0  0  0  0
  5 30  1  0  0  0  0
  5 31  1  0  0  0  0
  6  7  1  0  0  0  0
  6  8  1  0  0  0  0
  6 32  1  0  0  0  0
  7 33  1  0  0  0  0
  8  9  1  0  0  0  0
  8 34  1  0  0  0  0
  8 35  1  0  0  0  0
  9 19  1  0  0  0  0
  9 10  1  0  0  0  0
 10 11  1  0  0  0  0
 10 13  2  0  0  0  0
 11 12  1  0  0  0  0
 11 36  1  0  0  0  0
 11 37  1  0  0  0  0
 12 38  1  0  0  0  0
 13 14  1  0  0  0  0
 14 19  2  0  0  0  0
 14 15  1  0  0  0  0
 15 16  2  0  0  0  0
 15 39  1  0  0  0  0
 16 17  1  0  0  0  0
 16 40  1  0  0  0  0
 17 18  2  0  0  0  0
 17 41  1  0  0  0  0
 18 19  1  0  0  0  0
 18 42  1  0  0  0  0
 20 21  1  0  0  0  0
 20 43  1  0  0  0  0
 20 44  1  0  0  0  0
 21 22  1  0  0  0  0
 21 23  1  0  0  0  0
 21 45  1  0  0  0  0
 22 46  1  0  0  0  0
 22 47  1  0  0  0  0
 22 48  1  0  0  0  0
M  END
> <s_m_source_file>
AV-unprocessed.smi

> <i_m_source_file_index>
1703

> <i_lp_mmshare_version>
43012

> <i_f3d_flags>
0

> <s_epik_input>
W0NIM11bQ0BASF0xW0NIMl1OKFtDSDJdW0NASF0oTzEpW0NIM10pW0NIMl1bQ0BIXShbT0hdKVtDSDJdbihjKG4yKVtDSDJdW09IXSljKGMyMylbY0hdW2NIXVtjSF1bY0hdMw==

> <s_epik_cmdline>
J2VwaWtfcHl0aG9uJywgJy1waCcsICc3LjAnLCAnLXRuJywgJzgnLCAnLW1hJywgJzIwMCcsICctbWV0YWxfYmluZGluZycsICctaW1hZScsICc8aW5maWxlLm1hZT4nLCAnLW9tYWUnLCAnPG91dGZpbGUubWFlPic=

> <r_epik_Ionization_Penalty>
0.307685

> <r_epik_Ionization_Penalty_Charging>
0

> <r_epik_Ionization_Penalty_Neutral>
0.307685

> <r_epik_State_Penalty>
0.277856

> <r_epik_Charging_Adjusted_Penalty>
0.277856

> <i_epik_Tot_Q>
0

> <i_epik_Tot_abs_Q>
0

> <r_epik_Metal_State_Penalty>
0.238959

> <b_epik_Metal_Only>
0

> <s_lp_Force_Field>
OPLS_2005

> <r_lp_Energy>
32.6891

> <b_lp_Chiralities_Consistent>
1

> <s_lp_Variant>
AV-unprocessed.smi:1703-5

> <Gold.Version>
5.8.1

> <Gold.Id.Protein>
6NUR|6NUR_protein|mol2

> <Gold.PLP.Fitness>
48.0308

> <Gold.PLP.PLP>
-43.6852

> <Gold.PLP.part.hbond>
-1.8979

> <Gold.PLP.part.metal>
0.0000

> <Gold.PLP.part.buried>
-6.8940

> <Gold.PLP.part.nonpolar>
-34.3415

> <Gold.PLP.part.repulsive>
0.4806

> <Gold.PLP.ligand.clash>
0.0000

> <Gold.PLP.ligand.torsion>
0.8685

> <Gold.PLP.Chemscore.Hbond>
2.0000

> <Gold.PLP.Chemscore.CHOScore>
0.0000

> <Gold.PLP.Chemscore.Metal>
0.0000

> <Gold.Chemscore.Hbonds>
donor molecule, donor type, donor heavy atom, donor atom, acceptor molecule, acceptor atom, score
      L1  H     7    33       P1  8028  0.98
      P1  H  7997  8009       L1    12  0.90

> <Gold.PLP.Chemscore.Internal.Correction>
0.0825

> <Gold.Rescore>
     Score         DG    S(hbond)    S(metal)    S(lipo)     H(rot)  DE(clash)    DE(int)     intcor
     16.26     -17.59       1.90        0.00     112.33       2.88       0.10       1.23       ----

> <Gold.Chemscore.Fitness>
16.2593

> <Gold.Chemscore.DG>
-17.5904

> <Gold.Chemscore.ZeroCoef>
-5.4800

> <Gold.Chemscore.Hbond>
1.8965

> <Gold.Chemscore.Metal>
0.0000

> <Gold.Chemscore.Lipo>
112.3335

> <Gold.Chemscore.Internal_Hbond>
0.0000

> <Gold.Chemscore.DEClash>
0.1016

> <Gold.Chemscore.DEInternal>
1.2295

> <Gold.Chemscore.Rot>
2.8778

> <Gold.Chemscore.Internal.Correction>
   9.000000E+99

> <Gold.Chemscore.Hbonds>
donor molecule, donor type, donor heavy atom, donor atom, acceptor molecule, acceptor atom, score
      L1  H     7    33       P1  8028  0.93
      P1  H  7997  8009       L1    12  0.18

> <Gold.Chemscore.Hbond.Weighted>
-6.3344

> <Gold.Chemscore.Metal.Weighted>
-0.0000

> <Gold.Chemscore.Lipo.Weighted>
-13.1430

> <Gold.Chemscore.Internal_Hbond.Weighted>
0.0000

> <Gold.Chemscore.DEClash.Weighted>
0.1016

> <Gold.Chemscore.DEInternal.Weighted>
1.2295

> <Gold.Chemscore.Rot.Weighted>
7.3671

> <Gold.Chemscore.Internal.Correction.Weighted>
   9.000000E+99

> <Gold.Protein.RotatedTorsions>
[ 6907 6896 6895 6894 ] final -148.74 input  -60.11 | X-H torsion
[ 7974 7965 7964 7962 ] final -127.86 input  175.53 | X-H torsion
[ 8008 7997 7996 7995 ] final  134.78 input   59.86 | X-H torsion
[ 10167 10162 10161 10158 ] final  -85.66 input  -65.29 | X-H torsion
[ 10718 10713 10712 10709 ] final  -60.86 input   66.30 | X-H torsion
[ 10763 10752 10751 10750 ] final   26.77 input  -60.55 | X-H torsion
[ 11005 11000 10999 10996 ] final  -65.58 input  -57.11 | X-H torsion

> <Gold.Protein.ActiveResidues>
 VAL166  LYS551  ARG553  GLY616  TRP617  ASP618  TYR619  PRO620  LYS621  CYS622 
 ASP623  PHE694  ASN695  SER759  ASP760  ASP761  ALA762  ILE779  LEU786  VAL792 
 PHE793  MET794  SER795  GLU796  ALA797  LYS798  CYS799  TRP800  GLU811  SER814 

> <Gold.Protein.RotatedAtoms>
  151.1741  133.4766  159.2593 H   0  0  0  0  0  0  0  0  0  0  0  0  # atno 6907 bound_to 6896
  151.1326  135.0138  159.8599 H   0  0  0  0  0  0  0  0  0  0  0  0  # atno 6908 bound_to 6896
  152.5460  134.1642  159.8623 H   0  0  0  0  0  0  0  0  0  0  0  0  # atno 6909 bound_to 6896
  144.9728  140.7562  143.4660 H   0  0  0  0  0  0  0  0  0  0  0  0  # atno 7974 bound_to 7965
  156.3000  140.2487  156.3473 H   0  0  0  0  0  0  0  0  0  0  0  0  # atno 8008 bound_to 7997
  154.8999  140.0406  157.1906 H   0  0  0  0  0  0  0  0  0  0  0  0  # atno 8009 bound_to 7997
  154.8511  140.2906  155.5602 H   0  0  0  0  0  0  0  0  0  0  0  0  # atno 8010 bound_to 7997
  140.4016  143.2660  151.9135 H   0  0  0  0  0  0  0  0  0  0  0  0  # atno 10167 bound_to 10162
  156.0961  130.4193  150.0913 H   0  0  0  0  0  0  0  0  0  0  0  0  # atno 10718 bound_to 10713
  153.0600  135.6552  154.0485 H   0  0  0  0  0  0  0  0  0  0  0  0  # atno 10763 bound_to 10752
  154.0155  135.2924  155.3389 H   0  0  0  0  0  0  0  0  0  0  0  0  # atno 10764 bound_to 10752
  154.6934  135.5273  153.8492 H   0  0  0  0  0  0  0  0  0  0  0  0  # atno 10765 bound_to 10752
  141.1458  133.6684  156.6009 H   0  0  0  0  0  0  0  0  0  0  0  0  # atno 11005 bound_to 11000
  145.2534  139.2022  143.4930 LP  0  0  0  0  0  0  0  0  0  0  0  0  # atno 17320 bound_to 7965
  146.3387  140.2451  142.8597 LP  0  0  0  0  0  0  0  0  0  0  0  0  # atno 17321 bound_to 7965
  139.4784  144.5628  151.8213 LP  0  0  0  0  0  0  0  0  0  0  0  0  # atno 17342 bound_to 10162
  140.4734  144.1555  150.5921 LP  0  0  0  0  0  0  0  0  0  0  0  0  # atno 17343 bound_to 10162
  156.8912  130.9589  151.3588 LP  0  0  0  0  0  0  0  0  0  0  0  0  # atno 17370 bound_to 10713
  157.6122  130.8591  149.8970 LP  0  0  0  0  0  0  0  0  0  0  0  0  # atno 17371 bound_to 10713
  140.3690  134.7622  157.4585 LP  0  0  0  0  0  0  0  0  0  0  0  0  # atno 17394 bound_to 11000
  140.0726  134.5842  155.8626 LP  0  0  0  0  0  0  0  0  0  0  0  0  # atno 17395 bound_to 11000

$$$$
