AV-unprocessed.smi:37|AV-procd|sdf|307|dock9
  -GOLD-   2262016123D 1   1.00000     0.00000
 Structure written by MMmdl.
 44 45  0  0  0  0  0  0  0  0  1 V2000
  152.3047  144.1168  158.5110 C   0  0  0  0  0  0  0  0  0  0  0  0
  151.8495  143.4047  159.7937 C   0  0  0  0  0  0  0  0  0  0  0  0
  152.4412  142.0030  159.9586 C   0  0  0  0  0  0  0  0  0  0  0  0
  153.1865  141.7061  160.8941 O   0  0  0  0  0  0  0  0  0  0  0  0
  152.0498  141.1740  158.9783 O   0  0  0  0  0  0  0  0  0  0  0  0
  152.0177  139.7763  159.2149 C   0  0  0  0  0  0  0  0  0  0  0  0
  150.6916  139.2002  158.7049 C   0  0  2  0  0  0  0  0  0  0  0  0
  150.5466  137.8487  159.1447 O   0  0  0  0  0  0  0  0  0  0  0  0
  150.0322  137.0537  158.1181 C   0  0  1  0  0  0  0  0  0  0  0  0
  148.8701  136.2484  158.6572 N   0  0  0  0  0  0  0  0  0  0  0  0
  148.4460  136.4364  159.9655 C   0  0  0  0  0  0  0  0  0  0  0  0
  147.3972  135.7716  160.5058 C   0  0  0  0  0  0  0  0  0  0  0  0
  147.0518  136.0030  161.7837 F   0  0  0  0  0  0  0  0  0  0  0  0
  146.6375  134.8097  159.7130 C   0  0  0  0  0  0  0  0  0  0  0  0
  145.6785  134.1540  160.1149 O   0  0  0  0  0  0  0  0  0  0  0  0
  147.0827  134.6701  158.3953 N   0  0  0  0  0  0  0  0  0  0  0  0
  148.1588  135.3526  157.8247 C   0  0  0  0  0  0  0  0  0  0  0  0
  148.4448  135.1615  156.6439 O   0  0  0  0  0  0  0  0  0  0  0  0
  149.6426  137.9842  156.9671 C   0  0  2  0  0  0  0  0  0  0  0  0
  149.9105  137.1158  155.1962 Br  0  0  0  0  0  0  0  0  0  0  0  0
  150.6053  139.1319  157.1757 C   0  0  1  0  0  0  0  0  0  0  0  0
  150.0582  140.3141  156.6066 O   0  0  0  0  0  0  0  0  0  0  0  0
  150.0408  140.4856  155.2727 C   0  0  0  0  0  0  0  0  0  0  0  0
  150.6564  139.8103  154.4477 O   0  0  0  0  0  0  0  0  0  0  0  0
  149.1559  141.6532  154.8426 C   0  0  0  0  0  0  0  0  0  0  0  0
  147.9868  141.1983  153.9586 C   0  0  0  0  0  0  0  0  0  0  0  0
  146.5788  134.0245  157.8046 H   0  0  0  0  0  0  0  0  0  0  0  0
  151.8481  145.1039  158.4375 H   0  0  0  0  0  0  0  0  0  0  0  0
  152.0187  143.5549  157.6209 H   0  0  0  0  0  0  0  0  0  0  0  0
  153.3867  144.2521  158.4933 H   0  0  0  0  0  0  0  0  0  0  0  0
  152.1266  144.0017  160.6628 H   0  0  0  0  0  0  0  0  0  0  0  0
  150.7623  143.3235  159.8011 H   0  0  0  0  0  0  0  0  0  0  0  0
  152.8499  139.3145  158.6825 H   0  0  0  0  0  0  0  0  0  0  0  0
  152.1476  139.5614  160.2766 H   0  0  0  0  0  0  0  0  0  0  0  0
  149.8492  139.7776  159.0894 H   0  0  0  0  0  0  0  0  0  0  0  0
  150.8084  136.3428  157.8316 H   0  0  0  0  0  0  0  0  0  0  0  0
  148.9727  137.1382  160.5964 H   0  0  0  0  0  0  0  0  0  0  0  0
  148.6063  138.3119  157.0431 H   0  0  0  0  0  0  0  0  0  0  0  0
  151.5761  138.8655  156.7542 H   0  0  0  0  0  0  0  0  0  0  0  0
  148.7781  142.1563  155.7329 H   0  0  0  0  0  0  0  0  0  0  0  0
  149.7664  142.3783  154.3040 H   0  0  0  0  0  0  0  0  0  0  0  0
  147.3962  142.0547  153.6334 H   0  0  0  0  0  0  0  0  0  0  0  0
  147.3190  140.5224  154.4938 H   0  0  0  0  0  0  0  0  0  0  0  0
  148.3420  140.6833  153.0651 H   0  0  0  0  0  0  0  0  0  0  0  0
  1  2  1  0  0  0  0
  1 28  1  0  0  0  0
  1 29  1  0  0  0  0
  1 30  1  0  0  0  0
  2  3  1  0  0  0  0
  2 31  1  0  0  0  0
  2 32  1  0  0  0  0
  3  4  2  0  0  0  0
  3  5  1  0  0  0  0
  5  6  1  0  0  0  0
  6  7  1  0  0  0  0
  6 33  1  0  0  0  0
  6 34  1  0  0  0  0
  7 21  1  0  0  0  0
  7  8  1  0  0  0  0
  7 35  1  0  0  0  0
  8  9  1  0  0  0  0
  9 10  1  0  0  0  0
  9 19  1  0  0  0  0
  9 36  1  0  0  0  0
 10 17  1  0  0  0  0
 10 11  1  0  0  0  0
 11 12  2  0  0  0  0
 11 37  1  0  0  0  0
 12 13  1  0  0  0  0
 12 14  1  0  0  0  0
 14 15  2  0  0  0  0
 14 16  1  0  0  0  0
 16 27  1  0  0  0  0
 16 17  1  0  0  0  0
 17 18  2  0  0  0  0
 19 20  1  0  0  0  0
 19 21  1  0  0  0  0
 19 38  1  0  0  0  0
 21 22  1  0  0  0  0
 21 39  1  0  0  0  0
 22 23  1  0  0  0  0
 23 24  2  0  0  0  0
 23 25  1  0  0  0  0
 25 26  1  0  0  0  0
 25 40  1  0  0  0  0
 25 41  1  0  0  0  0
 26 42  1  0  0  0  0
 26 43  1  0  0  0  0
 26 44  1  0  0  0  0
M  END
> <s_m_source_file>
AV-unprocessed.smi

> <i_m_source_file_index>
37

> <i_lp_mmshare_version>
43012

> <i_f3d_flags>
0

> <s_epik_input>
W0NIM11bQ0gyXUMoPU8pT1tDSDJdW0NAQEhdMU9bQ0BASF0objJbY0hdYyhGKWMoPU8pW25IXWMyPU8pW0NAQEhdKEJyKVtDQEhdMU9DKD1PKVtDSDJdW0NIM10=

> <s_epik_cmdline>
J2VwaWtfcHl0aG9uJywgJy1waCcsICc3LjAnLCAnLXRuJywgJzgnLCAnLW1hJywgJzIwMCcsICctbWV0YWxfYmluZGluZycsICctaW1hZScsICc8aW5maWxlLm1hZT4nLCAnLW9tYWUnLCAnPG91dGZpbGUubWFlPic=

> <r_lp_tautomer_probability>
0.999537

> <r_epik_Ionization_Penalty>
0.104106

> <r_epik_Ionization_Penalty_Charging>
0.104106

> <r_epik_Ionization_Penalty_Neutral>
3.94675e-16

> <r_epik_State_Penalty>
0.0940182

> <r_epik_Charging_Adjusted_Penalty>
0.198124

> <i_epik_Tot_Q>
0

> <i_epik_Tot_abs_Q>
0

> <r_epik_Metal_State_Penalty>
3.05314

> <b_epik_Metal_Only>
0

> <s_epik_Chemistry_Notes>
This compound has an ester and may undergo hydrolysis at high or low pH. This compound contains an acetal/aminal-like group ( X-CH(R)-Y where X, Y are N, S, or O) that may be acid/base labile, releasing an aldehyde.

> <s_lp_Force_Field>
OPLS_2005

> <r_lp_Energy>
20.0289

> <b_lp_Chiralities_Consistent>
1

> <s_lp_Variant>
AV-unprocessed.smi:37-5

> <Gold.Version>
5.8.1

> <Gold.Id.Protein>
6NUR|6NUR_protein|mol2

> <Gold.PLP.Fitness>
43.6284

> <Gold.PLP.PLP>
-42.4268

> <Gold.PLP.part.hbond>
-1.1200

> <Gold.PLP.part.metal>
0.0000

> <Gold.PLP.part.buried>
-4.2666

> <Gold.PLP.part.nonpolar>
-37.3909

> <Gold.PLP.part.repulsive>
0.1624

> <Gold.PLP.ligand.clash>
0.0000

> <Gold.PLP.ligand.torsion>
0.9895

> <Gold.PLP.Chemscore.Hbond>
1.0000

> <Gold.PLP.Chemscore.CHOScore>
0.0000

> <Gold.PLP.Chemscore.Metal>
0.0000

> <Gold.Chemscore.Hbonds>
donor molecule, donor type, donor heavy atom, donor atom, acceptor molecule, acceptor atom, score
      P1  H  7989  7998       L1    24  1.00

> <Gold.PLP.Chemscore.Internal.Correction>
0.1807

> <Gold.Rescore>
     Score         DG    S(hbond)    S(metal)    S(lipo)     H(rot)  DE(clash)    DE(int)     intcor
      5.84      -9.03       0.98        0.00      75.20       3.33       0.07       3.12       ----

> <Gold.Chemscore.Fitness>
5.8404

> <Gold.Chemscore.DG>
-9.0264

> <Gold.Chemscore.ZeroCoef>
-5.4800

> <Gold.Chemscore.Hbond>
0.9801

> <Gold.Chemscore.Metal>
0.0000

> <Gold.Chemscore.Lipo>
75.2020

> <Gold.Chemscore.Internal_Hbond>
0.0000

> <Gold.Chemscore.DEClash>
0.0689

> <Gold.Chemscore.DEInternal>
3.1171

> <Gold.Chemscore.Rot>
3.3303

> <Gold.Chemscore.Internal.Correction>
   9.000000E+99

> <Gold.Chemscore.Hbonds>
donor molecule, donor type, donor heavy atom, donor atom, acceptor molecule, acceptor atom, score
      P1  H  7989  7998       L1    24  0.70

> <Gold.Chemscore.Hbond.Weighted>
-3.2734

> <Gold.Chemscore.Metal.Weighted>
-0.0000

> <Gold.Chemscore.Lipo.Weighted>
-8.7986

> <Gold.Chemscore.Internal_Hbond.Weighted>
0.0000

> <Gold.Chemscore.DEClash.Weighted>
0.0689

> <Gold.Chemscore.DEInternal.Weighted>
3.1171

> <Gold.Chemscore.Rot.Weighted>
8.5256

> <Gold.Chemscore.Internal.Correction.Weighted>
   9.000000E+99

> <Gold.Protein.RotatedTorsions>
[ 6907 6896 6895 6894 ] final -159.86 input  -60.11 | X-H torsion
[ 7974 7965 7964 7962 ] final -133.57 input  175.53 | X-H torsion
[ 8008 7997 7996 7995 ] final  -37.63 input   59.86 | X-H torsion
[ 10167 10162 10161 10158 ] final  -21.41 input  -65.29 | X-H torsion
[ 10718 10713 10712 10709 ] final   30.17 input   66.30 | X-H torsion
[ 10763 10752 10751 10750 ] final   24.93 input  -60.55 | X-H torsion
[ 11005 11000 10999 10996 ] final   97.35 input  -57.11 | X-H torsion

> <Gold.Protein.ActiveResidues>
 VAL166  LYS551  ARG553  GLY616  TRP617  ASP618  TYR619  PRO620  LYS621  CYS622 
 ASP623  PHE694  ASN695  SER759  ASP760  ASP761  ALA762  ILE779  LEU786  VAL792 
 PHE793  MET794  SER795  GLU796  ALA797  LYS798  CYS799  TRP800  GLU811  SER814 

> <Gold.Protein.RotatedAtoms>
  151.3401  133.3966  159.2670 H   0  0  0  0  0  0  0  0  0  0  0  0  # atno 6907 bound_to 6896
  150.9885  134.9225  159.7896 H   0  0  0  0  0  0  0  0  0  0  0  0  # atno 6908 bound_to 6896
  152.5239  134.3366  159.9254 H   0  0  0  0  0  0  0  0  0  0  0  0  # atno 6909 bound_to 6896
  144.9181  140.6980  143.4982 H   0  0  0  0  0  0  0  0  0  0  0  0  # atno 7974 bound_to 7965
  154.4050  140.1599  156.2568 H   0  0  0  0  0  0  0  0  0  0  0  0  # atno 8008 bound_to 7997
  155.9071  140.3429  155.6048 H   0  0  0  0  0  0  0  0  0  0  0  0  # atno 8009 bound_to 7997
  155.7379  140.0789  157.2250 H   0  0  0  0  0  0  0  0  0  0  0  0  # atno 8010 bound_to 7997
  140.7282  143.4631  151.0352 H   0  0  0  0  0  0  0  0  0  0  0  0  # atno 10167 bound_to 10162
  157.2562  130.7139  149.6430 H   0  0  0  0  0  0  0  0  0  0  0  0  # atno 10718 bound_to 10713
  153.0728  135.6594  154.0210 H   0  0  0  0  0  0  0  0  0  0  0  0  # atno 10763 bound_to 10752
  153.9851  135.2951  155.3418 H   0  0  0  0  0  0  0  0  0  0  0  0  # atno 10764 bound_to 10752
  154.7108  135.5206  153.8733 H   0  0  0  0  0  0  0  0  0  0  0  0  # atno 10765 bound_to 10752
  139.8776  134.8996  156.4293 H   0  0  0  0  0  0  0  0  0  0  0  0  # atno 11005 bound_to 11000
  145.3341  139.1751  143.4521 LP  0  0  0  0  0  0  0  0  0  0  0  0  # atno 17320 bound_to 7965
  146.3191  140.3375  142.8645 LP  0  0  0  0  0  0  0  0  0  0  0  0  # atno 17321 bound_to 7965
  139.8317  143.7682  152.3180 LP  0  0  0  0  0  0  0  0  0  0  0  0  # atno 17342 bound_to 10162
  139.7800  144.7448  151.0102 LP  0  0  0  0  0  0  0  0  0  0  0  0  # atno 17343 bound_to 10162
  155.9665  130.4412  150.5330 LP  0  0  0  0  0  0  0  0  0  0  0  0  # atno 17370 bound_to 10713
  157.3225  131.0684  151.1921 LP  0  0  0  0  0  0  0  0  0  0  0  0  # atno 17371 bound_to 10713
  140.9078  133.7733  155.9755 LP  0  0  0  0  0  0  0  0  0  0  0  0  # atno 17394 bound_to 11000
  140.8580  134.2874  157.5247 LP  0  0  0  0  0  0  0  0  0  0  0  0  # atno 17395 bound_to 11000

$$$$
