AV-unprocessed.smi:910|AV-procd|sdf|4122|dock3
  -GOLD-   22720 2 23D 1   1.00000     0.00000
 Structure written by MMmdl.
 46 47  0  0  0  0  0  0  0  0  1 V2000
  145.6664  131.9495  150.2833 C   0  0  0  0  0  0  0  0  0  0  0  0
  146.3260  132.6072  151.4754 C   0  0  0  0  0  0  0  0  0  0  0  0
  147.6005  132.2939  151.8635 N   0  0  0  0  0  0  0  0  0  0  0  0
  147.9106  133.0514  152.9820 C   0  0  0  0  0  0  0  0  0  0  0  0
  149.0199  133.0617  153.6536 N   0  0  0  0  0  0  0  0  0  0  0  0
  149.1082  133.8944  154.7565 C   0  0  0  0  0  0  0  0  0  0  0  0
  149.1294  133.5662  155.9470 O   0  0  0  0  0  0  0  0  0  0  0  0
  149.1093  135.1804  154.3739 N   0  0  0  0  0  0  0  0  0  0  0  0
  149.0958  136.3323  155.2699 C   0  0  0  0  0  0  0  0  0  0  0  0
  149.7897  137.5419  154.6285 C   0  0  0  0  0  0  0  0  0  0  0  0
  150.0635  138.5085  155.6309 O   0  0  0  0  0  0  0  0  0  0  0  0
  150.5791  139.7408  155.1430 C   0  0  2  0  0  0  0  0  0  0  0  0
  151.8490  140.0677  155.9508 C   0  0  0  0  0  0  0  0  0  0  0  0
  151.5339  140.3502  157.4297 C   0  0  0  0  0  0  0  0  0  0  0  0
  150.4854  141.4630  157.5733 C   0  0  0  0  0  0  0  0  0  0  0  0
  149.2115  141.1279  156.7835 C   0  0  0  0  0  0  0  0  0  0  0  0
  149.5175  140.8564  155.2979 C   0  0  2  0  0  0  0  0  0  0  0  0
  148.2341  140.5728  154.5023 C   0  0  0  0  0  0  0  0  0  0  0  0
  146.8015  133.8208  153.2500 O   0  0  0  0  0  0  0  0  0  0  0  0
  145.8563  133.5263  152.3156 C   0  0  0  0  0  0  0  0  0  0  0  0
  144.5202  134.2308  152.3870 C   0  0  0  0  0  0  0  0  0  0  0  0
  144.7524  131.4417  150.5913 H   0  0  0  0  0  0  0  0  0  0  0  0
  146.3297  131.2161  149.8244 H   0  0  0  0  0  0  0  0  0  0  0  0
  145.4098  132.6981  149.5338 H   0  0  0  0  0  0  0  0  0  0  0  0
  148.1782  131.6165  151.3879 H   0  0  0  0  0  0  0  0  0  0  0  0
  149.0796  135.3753  153.3836 H   0  0  0  0  0  0  0  0  0  0  0  0
  148.0791  136.5855  155.5748 H   0  0  0  0  0  0  0  0  0  0  0  0
  149.6284  136.0487  156.1777 H   0  0  0  0  0  0  0  0  0  0  0  0
  150.7274  137.2331  154.1650 H   0  0  0  0  0  0  0  0  0  0  0  0
  149.1598  137.9587  153.8416 H   0  0  0  0  0  0  0  0  0  0  0  0
  150.8623  139.6540  154.0919 H   0  0  0  0  0  0  0  0  0  0  0  0
  152.5614  139.2460  155.8731 H   0  0  0  0  0  0  0  0  0  0  0  0
  152.3385  140.9397  155.5154 H   0  0  0  0  0  0  0  0  0  0  0  0
  151.1673  139.4408  157.9079 H   0  0  0  0  0  0  0  0  0  0  0  0
  152.4463  140.6291  157.9573 H   0  0  0  0  0  0  0  0  0  0  0  0
  150.2410  141.6100  158.6258 H   0  0  0  0  0  0  0  0  0  0  0  0
  150.9005  142.4063  157.2167 H   0  0  0  0  0  0  0  0  0  0  0  0
  148.7343  140.2538  157.2257 H   0  0  0  0  0  0  0  0  0  0  0  0
  148.4989  141.9482  156.8739 H   0  0  0  0  0  0  0  0  0  0  0  0
  149.9477  141.7692  154.8830 H   0  0  0  0  0  0  0  0  0  0  0  0
  147.7102  139.6981  154.8878 H   0  0  0  0  0  0  0  0  0  0  0  0
  148.4547  140.3960  153.4495 H   0  0  0  0  0  0  0  0  0  0  0  0
  147.5462  141.4167  154.5571 H   0  0  0  0  0  0  0  0  0  0  0  0
  144.0293  134.2264  151.4137 H   0  0  0  0  0  0  0  0  0  0  0  0
  144.6512  135.2655  152.7020 H   0  0  0  0  0  0  0  0  0  0  0  0
  143.8706  133.7313  153.1056 H   0  0  0  0  0  0  0  0  0  0  0  0
  1 22  1  0  0  0  0
  1 23  1  0  0  0  0
  1 24  1  0  0  0  0
  1  2  1  0  0  0  0
  2  3  1  0  0  0  0
  2 20  2  0  0  0  0
  3 25  1  0  0  0  0
  3  4  1  0  0  0  0
  4 19  1  0  0  0  0
  4  5  2  0  0  0  0
  5  6  1  0  0  0  0
  6  8  1  0  0  0  0
  6  7  2  0  0  0  0
  8  9  1  0  0  0  0
  8 26  1  0  0  0  0
  9 10  1  0  0  0  0
  9 27  1  0  0  0  0
  9 28  1  0  0  0  0
 10 11  1  0  0  0  0
 10 29  1  0  0  0  0
 10 30  1  0  0  0  0
 11 12  1  0  0  0  0
 12 17  1  0  0  0  0
 12 13  1  0  0  0  0
 12 31  1  0  0  0  0
 13 14  1  0  0  0  0
 13 32  1  0  0  0  0
 13 33  1  0  0  0  0
 14 15  1  0  0  0  0
 14 34  1  0  0  0  0
 14 35  1  0  0  0  0
 15 16  1  0  0  0  0
 15 36  1  0  0  0  0
 15 37  1  0  0  0  0
 16 17  1  0  0  0  0
 16 38  1  0  0  0  0
 16 39  1  0  0  0  0
 17 18  1  0  0  0  0
 17 40  1  0  0  0  0
 18 41  1  0  0  0  0
 18 42  1  0  0  0  0
 18 43  1  0  0  0  0
 19 20  1  0  0  0  0
 20 21  1  0  0  0  0
 21 44  1  0  0  0  0
 21 45  1  0  0  0  0
 21 46  1  0  0  0  0
M  END
> <s_m_source_file>
AV-unprocessed.smi

> <i_m_source_file_index>
910

> <i_lp_mmshare_version>
43012

> <i_f3d_flags>
0

> <s_epik_input>
W0NIM11jMW5jKG9jMVtDSDNdKVtOSF1DKD1PKVtOSF1bQ0gyXVtDSDJdT1tDQEBIXTJbQ0gyXVtDSDJdW0NIMl1bQ0gyXVtDQEhdMltDSDNd

> <s_epik_cmdline>
J2VwaWtfcHl0aG9uJywgJy1waCcsICc3LjAnLCAnLXRuJywgJzgnLCAnLW1hJywgJzIwMCcsICctbWV0YWxfYmluZGluZycsICctaW1hZScsICc8aW5maWxlLm1hZT4nLCAnLW9tYWUnLCAnPG91dGZpbGUubWFlPic=

> <r_lp_tautomer_probability>
0.107061

> <r_epik_Ionization_Penalty>
0.727192

> <r_epik_Ionization_Penalty_Charging>
0.726719

> <r_epik_Ionization_Penalty_Neutral>
0.000473387

> <r_epik_State_Penalty>
2.53712

> <r_epik_Charging_Adjusted_Penalty>
3.26383

> <i_epik_Tot_Q>
0

> <i_epik_Tot_abs_Q>
0

> <r_epik_Metal_State_Penalty>
3.71015

> <b_epik_Metal_Only>
0

> <s_lp_Force_Field>
OPLS_2005

> <r_lp_Energy>
29.3715

> <b_lp_Chiralities_Consistent>
1

> <s_lp_Variant>
AV-unprocessed.smi:910-7

> <Gold.Version>
5.8.1

> <Gold.Id.Protein>
6NUR|6NUR_protein|mol2

> <Gold.PLP.Fitness>
37.7888

> <Gold.PLP.PLP>
-34.9436

> <Gold.PLP.part.hbond>
-2.0000

> <Gold.PLP.part.metal>
0.0000

> <Gold.PLP.part.buried>
-3.6115

> <Gold.PLP.part.nonpolar>
-29.5689

> <Gold.PLP.part.repulsive>
0.5752

> <Gold.PLP.ligand.clash>
0.0000

> <Gold.PLP.ligand.torsion>
1.6123

> <Gold.PLP.Chemscore.Hbond>
2.0000

> <Gold.PLP.Chemscore.CHOScore>
0.0000

> <Gold.PLP.Chemscore.Metal>
0.0000

> <Gold.Chemscore.Hbonds>
donor molecule, donor type, donor heavy atom, donor atom, acceptor molecule, acceptor atom, score
      L1  H     3    25       P1 10747  1.00
      L1  H     8    26       P1  7948  1.00

> <Gold.PLP.Chemscore.Internal.Correction>
0.0697

> <Gold.Rescore>
     Score         DG    S(hbond)    S(metal)    S(lipo)     H(rot)  DE(clash)    DE(int)     intcor
     14.28     -15.89       1.84        0.00      72.64       1.66       0.00       1.61       ----

> <Gold.Chemscore.Fitness>
14.2759

> <Gold.Chemscore.DG>
-15.8904

> <Gold.Chemscore.ZeroCoef>
-5.4800

> <Gold.Chemscore.Hbond>
1.8427

> <Gold.Chemscore.Metal>
0.0000

> <Gold.Chemscore.Lipo>
72.6436

> <Gold.Chemscore.Internal_Hbond>
0.0000

> <Gold.Chemscore.DEClash>
0.0000

> <Gold.Chemscore.DEInternal>
1.6144

> <Gold.Chemscore.Rot>
1.6576

> <Gold.Chemscore.Internal.Correction>
   9.000000E+99

> <Gold.Chemscore.Hbonds>
donor molecule, donor type, donor heavy atom, donor atom, acceptor molecule, acceptor atom, score
      L1  H     3    25       P1 10747  0.96
      L1  H     8    26       P1  7948  0.45

> <Gold.Chemscore.Hbond.Weighted>
-6.1546

> <Gold.Chemscore.Metal.Weighted>
-0.0000

> <Gold.Chemscore.Lipo.Weighted>
-8.4993

> <Gold.Chemscore.Internal_Hbond.Weighted>
0.0000

> <Gold.Chemscore.DEClash.Weighted>
0.0000

> <Gold.Chemscore.DEInternal.Weighted>
1.6144

> <Gold.Chemscore.Rot.Weighted>
4.2436

> <Gold.Chemscore.Internal.Correction.Weighted>
   9.000000E+99

> <Gold.Protein.RotatedTorsions>
[ 6907 6896 6895 6894 ] final  -71.44 input  -60.11 | X-H torsion
[ 7974 7965 7964 7962 ] final -160.39 input  175.53 | X-H torsion
[ 8008 7997 7996 7995 ] final   73.01 input   59.86 | X-H torsion
[ 10167 10162 10161 10158 ] final -107.96 input  -65.29 | X-H torsion
[ 10718 10713 10712 10709 ] final  116.57 input   66.30 | X-H torsion
[ 10763 10752 10751 10750 ] final   38.49 input  -60.55 | X-H torsion
[ 11005 11000 10999 10996 ] final    1.64 input  -57.11 | X-H torsion

> <Gold.Protein.ActiveResidues>
 VAL166  LYS551  ARG553  GLY616  TRP617  ASP618  TYR619  PRO620  LYS621  CYS622 
 ASP623  PHE694  ASN695  SER759  ASP760  ASP761  ALA762  ILE779  LEU786  VAL792 
 PHE793  MET794  SER795  GLU796  ALA797  LYS798  CYS799  TRP800  GLU811  SER814 

> <Gold.Protein.RotatedAtoms>
  150.7212  134.5308  159.5698 H   0  0  0  0  0  0  0  0  0  0  0  0  # atno 6907 bound_to 6896
  152.2841  134.7792  160.0400 H   0  0  0  0  0  0  0  0  0  0  0  0  # atno 6908 bound_to 6896
  151.8429  133.3391  159.3685 H   0  0  0  0  0  0  0  0  0  0  0  0  # atno 6909 bound_to 6896
  144.7429  140.3549  143.6108 H   0  0  0  0  0  0  0  0  0  0  0  0  # atno 7974 bound_to 7965
  155.7773  140.3483  155.5278 H   0  0  0  0  0  0  0  0  0  0  0  0  # atno 8008 bound_to 7997
  155.8763  140.0995  157.1536 H   0  0  0  0  0  0  0  0  0  0  0  0  # atno 8009 bound_to 7997
  154.4021  140.1331  156.4128 H   0  0  0  0  0  0  0  0  0  0  0  0  # atno 8010 bound_to 7997
  140.1713  143.4040  152.1352 H   0  0  0  0  0  0  0  0  0  0  0  0  # atno 10167 bound_to 10162
  157.6152  131.1027  150.7491 H   0  0  0  0  0  0  0  0  0  0  0  0  # atno 10718 bound_to 10713
  152.9999  135.6248  154.2313 H   0  0  0  0  0  0  0  0  0  0  0  0  # atno 10763 bound_to 10752
  154.2055  135.2802  155.2978 H   0  0  0  0  0  0  0  0  0  0  0  0  # atno 10764 bound_to 10752
  154.5649  135.5694  153.7100 H   0  0  0  0  0  0  0  0  0  0  0  0  # atno 10765 bound_to 10752
  140.6132  133.9729  155.8187 H   0  0  0  0  0  0  0  0  0  0  0  0  # atno 11005 bound_to 11000
  145.7238  139.1717  143.2469 LP  0  0  0  0  0  0  0  0  0  0  0  0  # atno 17320 bound_to 7965
  146.1257  140.7251  142.9436 LP  0  0  0  0  0  0  0  0  0  0  0  0  # atno 17321 bound_to 7965
  139.5337  144.7186  151.4968 LP  0  0  0  0  0  0  0  0  0  0  0  0  # atno 17342 bound_to 10162
  140.6580  143.8558  150.6856 LP  0  0  0  0  0  0  0  0  0  0  0  0  # atno 17343 bound_to 10162
  156.7860  130.4874  149.5393 LP  0  0  0  0  0  0  0  0  0  0  0  0  # atno 17370 bound_to 10713
  156.1271  130.6152  151.0280 LP  0  0  0  0  0  0  0  0  0  0  0  0  # atno 17371 bound_to 10713
  141.0794  134.0086  157.3409 LP  0  0  0  0  0  0  0  0  0  0  0  0  # atno 17394 bound_to 11000
  139.9183  135.0199  156.7969 LP  0  0  0  0  0  0  0  0  0  0  0  0  # atno 17395 bound_to 11000

$$$$
