AV-unprocessed.smi:1020|AV-procd|sdf|4453|dock3
  -GOLD-   22720 2423D 1   1.00000     0.00000
 Structure written by MMmdl.
 46 47  0  0  0  0  0  0  0  0  1 V2000
  143.6546  135.1182  152.5441 C   0  0  0  0  0  0  0  0  0  0  0  0
  144.8528  135.3048  151.6067 C   0  0  0  0  0  0  0  0  0  0  0  0
  144.8986  134.2133  150.5260 C   0  0  0  0  0  0  0  0  0  0  0  0
  146.0234  135.2540  152.4113 O   0  0  0  0  0  0  0  0  0  0  0  0
  146.1504  136.3228  153.3390 C   0  0  0  0  0  0  0  0  0  0  0  0
  146.1228  137.6583  152.5848 C   0  0  0  0  0  0  0  0  0  0  0  0
  146.6200  138.7999  153.4086 C   0  0  0  0  0  0  0  0  0  0  0  0
  147.4502  139.7661  153.0240 N   0  0  0  0  0  0  0  0  0  0  0  0
  147.6051  140.4575  154.1871 C   0  0  0  0  0  0  0  0  0  0  0  0
  148.4728  141.6708  154.3015 C   0  0  0  0  0  0  0  0  0  0  0  0
  149.7103  141.3737  155.1507 C   0  0  0  0  0  0  0  0  0  0  0  0
  150.3802  140.3647  154.9301 O   0  0  0  0  0  0  0  0  0  0  0  0
  150.0028  142.2593  156.1170 N   0  0  0  0  0  0  0  0  0  0  0  0
  151.1134  142.1483  157.0569 C   0  0  0  0  0  0  0  0  0  0  0  0
  150.8143  141.0726  158.1217 C   0  0  0  0  0  0  0  0  0  0  0  0
  151.9308  140.9936  159.1749 C   0  0  0  0  0  0  0  0  0  0  0  0
  152.1785  142.3618  159.8288 C   0  0  0  0  0  0  0  0  0  0  0  0
  152.4851  143.4340  158.7714 C   0  0  0  0  0  0  0  0  0  0  0  0
  151.3670  143.5157  157.7193 C   0  0  0  0  0  0  0  0  0  0  0  0
  146.9363  139.9863  155.2337 N   0  0  0  0  0  0  0  0  0  0  0  0
  146.2802  138.8591  154.7187 O   0  0  0  0  0  0  0  0  0  0  0  0
  142.7135  135.1545  151.9950 H   0  0  0  0  0  0  0  0  0  0  0  0
  143.6286  135.9057  153.2964 H   0  0  0  0  0  0  0  0  0  0  0  0
  143.7030  134.1616  153.0653 H   0  0  0  0  0  0  0  0  0  0  0  0
  144.7616  136.2850  151.1354 H   0  0  0  0  0  0  0  0  0  0  0  0
  143.9812  134.2106  149.9367 H   0  0  0  0  0  0  0  0  0  0  0  0
  145.0105  133.2242  150.9710 H   0  0  0  0  0  0  0  0  0  0  0  0
  145.7272  134.3630  149.8344 H   0  0  0  0  0  0  0  0  0  0  0  0
  145.3411  136.2989  154.0687 H   0  0  0  0  0  0  0  0  0  0  0  0
  147.0888  136.2292  153.8879 H   0  0  0  0  0  0  0  0  0  0  0  0
  146.7323  137.5872  151.6832 H   0  0  0  0  0  0  0  0  0  0  0  0
  145.1066  137.8801  152.2578 H   0  0  0  0  0  0  0  0  0  0  0  0
  148.7756  141.9954  153.3051 H   0  0  0  0  0  0  0  0  0  0  0  0
  147.9107  142.4933  154.7464 H   0  0  0  0  0  0  0  0  0  0  0  0
  149.3966  143.0602  156.2234 H   0  0  0  0  0  0  0  0  0  0  0  0
  152.0143  141.8633  156.5098 H   0  0  0  0  0  0  0  0  0  0  0  0
  149.8679  141.2979  158.6157 H   0  0  0  0  0  0  0  0  0  0  0  0
  150.6920  140.0972  157.6492 H   0  0  0  0  0  0  0  0  0  0  0  0
  151.6702  140.2584  159.9367 H   0  0  0  0  0  0  0  0  0  0  0  0
  152.8501  140.6405  158.7057 H   0  0  0  0  0  0  0  0  0  0  0  0
  151.3001  142.6564  160.4042 H   0  0  0  0  0  0  0  0  0  0  0  0
  153.0040  142.2916  160.5378 H   0  0  0  0  0  0  0  0  0  0  0  0
  152.6142  144.4041  159.2524 H   0  0  0  0  0  0  0  0  0  0  0  0
  153.4319  143.2036  158.2808 H   0  0  0  0  0  0  0  0  0  0  0  0
  151.6298  144.2554  156.9621 H   0  0  0  0  0  0  0  0  0  0  0  0
  150.4516  143.8722  158.1944 H   0  0  0  0  0  0  0  0  0  0  0  0
  1  2  1  0  0  0  0
  1 22  1  0  0  0  0
  1 23  1  0  0  0  0
  1 24  1  0  0  0  0
  2  3  1  0  0  0  0
  2  4  1  0  0  0  0
  2 25  1  0  0  0  0
  3 26  1  0  0  0  0
  3 27  1  0  0  0  0
  3 28  1  0  0  0  0
  4  5  1  0  0  0  0
  5  6  1  0  0  0  0
  5 29  1  0  0  0  0
  5 30  1  0  0  0  0
  6  7  1  0  0  0  0
  6 31  1  0  0  0  0
  6 32  1  0  0  0  0
  7 21  1  0  0  0  0
  7  8  2  0  0  0  0
  8  9  1  0  0  0  0
  9 10  1  0  0  0  0
  9 20  2  0  0  0  0
 10 11  1  0  0  0  0
 10 33  1  0  0  0  0
 10 34  1  0  0  0  0
 11 12  2  0  0  0  0
 11 13  1  0  0  0  0
 13 14  1  0  0  0  0
 13 35  1  0  0  0  0
 14 19  1  0  0  0  0
 14 15  1  0  0  0  0
 14 36  1  0  0  0  0
 15 16  1  0  0  0  0
 15 37  1  0  0  0  0
 15 38  1  0  0  0  0
 16 17  1  0  0  0  0
 16 39  1  0  0  0  0
 16 40  1  0  0  0  0
 17 18  1  0  0  0  0
 17 41  1  0  0  0  0
 17 42  1  0  0  0  0
 18 19  1  0  0  0  0
 18 43  1  0  0  0  0
 18 44  1  0  0  0  0
 19 45  1  0  0  0  0
 19 46  1  0  0  0  0
 20 21  1  0  0  0  0
M  END
> <s_m_source_file>
AV-unprocessed.smi

> <i_m_source_file_index>
1020

> <i_lp_mmshare_version>
43012

> <i_f3d_flags>
0

> <s_epik_input>
W0NIM11bQ0hdKFtDSDNdKU9bQ0gyXVtDSDJdYzFuYyhubzEpW0NIMl1DKD1PKVtOSF1bQ0hdMltDSDJdW0NIMl1bQ0gyXVtDSDJdW0NIMl0y

> <s_epik_cmdline>
J2VwaWtfcHl0aG9uJywgJy1waCcsICc3LjAnLCAnLXRuJywgJzgnLCAnLW1hJywgJzIwMCcsICctbWV0YWxfYmluZGluZycsICctaW1hZScsICc8aW5maWxlLm1hZT4nLCAnLW9tYWUnLCAnPG91dGZpbGUubWFlPic=

> <r_lp_tautomer_probability>
1

> <r_epik_Ionization_Penalty>
6.23671e-08

> <r_epik_Ionization_Penalty_Charging>
0

> <r_epik_Ionization_Penalty_Neutral>
6.23671e-08

> <r_epik_State_Penalty>
-0

> <r_epik_Charging_Adjusted_Penalty>
0

> <i_epik_Tot_Q>
0

> <i_epik_Tot_abs_Q>
0

> <r_epik_Metal_State_Penalty>
-0

> <b_epik_Metal_Only>
0

> <s_lp_Force_Field>
OPLS_2005

> <r_lp_Energy>
5.58856

> <b_lp_Chiralities_Consistent>
1

> <s_lp_Variant>
AV-unprocessed.smi:1020-1

> <Gold.Version>
5.8.1

> <Gold.Id.Protein>
6NUR|6NUR_protein|mol2

> <Gold.PLP.Fitness>
41.2239

> <Gold.PLP.PLP>
-36.5398

> <Gold.PLP.part.hbond>
-2.0000

> <Gold.PLP.part.metal>
0.0000

> <Gold.PLP.part.buried>
-6.0605

> <Gold.PLP.part.nonpolar>
-31.5615

> <Gold.PLP.part.repulsive>
2.0081

> <Gold.PLP.ligand.clash>
0.0000

> <Gold.PLP.ligand.torsion>
0.7345

> <Gold.PLP.Chemscore.Hbond>
1.9920

> <Gold.PLP.Chemscore.CHOScore>
0.0000

> <Gold.PLP.Chemscore.Metal>
0.0000

> <Gold.Chemscore.Hbonds>
donor molecule, donor type, donor heavy atom, donor atom, acceptor molecule, acceptor atom, score
      L1  H    13    35       P1  8028  0.98
      P1  H  7989  7998       L1    12  1.00

> <Gold.PLP.Chemscore.Internal.Correction>
0.1771

> <Gold.Rescore>
     Score         DG    S(hbond)    S(metal)    S(lipo)     H(rot)  DE(clash)    DE(int)     intcor
     15.19     -15.88       1.69        0.00      86.66       2.10       0.07       0.62       ----

> <Gold.Chemscore.Fitness>
15.1927

> <Gold.Chemscore.DG>
-15.8788

> <Gold.Chemscore.ZeroCoef>
-5.4800

> <Gold.Chemscore.Hbond>
1.6860

> <Gold.Chemscore.Metal>
0.0000

> <Gold.Chemscore.Lipo>
86.6570

> <Gold.Chemscore.Internal_Hbond>
0.0000

> <Gold.Chemscore.DEClash>
0.0711

> <Gold.Chemscore.DEInternal>
0.6151

> <Gold.Chemscore.Rot>
2.0982

> <Gold.Chemscore.Internal.Correction>
   9.000000E+99

> <Gold.Chemscore.Hbonds>
donor molecule, donor type, donor heavy atom, donor atom, acceptor molecule, acceptor atom, score
      L1  H    13    35       P1  8028  0.93
      P1  H  7989  7998       L1    12  0.48

> <Gold.Chemscore.Hbond.Weighted>
-5.6313

> <Gold.Chemscore.Metal.Weighted>
-0.0000

> <Gold.Chemscore.Lipo.Weighted>
-10.1389

> <Gold.Chemscore.Internal_Hbond.Weighted>
0.0000

> <Gold.Chemscore.DEClash.Weighted>
0.0711

> <Gold.Chemscore.DEInternal.Weighted>
0.6151

> <Gold.Chemscore.Rot.Weighted>
5.3713

> <Gold.Chemscore.Internal.Correction.Weighted>
   9.000000E+99

> <Gold.Protein.RotatedTorsions>
[ 6907 6896 6895 6894 ] final   31.90 input  -60.11 | X-H torsion
[ 7974 7965 7964 7962 ] final -134.89 input  175.53 | X-H torsion
[ 8008 7997 7996 7995 ] final -105.00 input   59.86 | X-H torsion
[ 10167 10162 10161 10158 ] final  133.15 input  -65.29 | X-H torsion
[ 10718 10713 10712 10709 ] final    2.05 input   66.30 | X-H torsion
[ 10763 10752 10751 10750 ] final   41.33 input  -60.55 | X-H torsion
[ 11005 11000 10999 10996 ] final -157.93 input  -57.11 | X-H torsion

> <Gold.Protein.ActiveResidues>
 VAL166  LYS551  ARG553  GLY616  TRP617  ASP618  TYR619  PRO620  LYS621  CYS622 
 ASP623  PHE694  ASN695  SER759  ASP760  ASP761  ALA762  ILE779  LEU786  VAL792 
 PHE793  MET794  SER795  GLU796  ALA797  LYS798  CYS799  TRP800  GLU811  SER814 

> <Gold.Protein.RotatedAtoms>
  152.0668  134.9559  160.0574 H   0  0  0  0  0  0  0  0  0  0  0  0  # atno 6907 bound_to 6896
  152.0901  133.4191  159.4548 H   0  0  0  0  0  0  0  0  0  0  0  0  # atno 6908 bound_to 6896
  150.6837  134.2801  159.4667 H   0  0  0  0  0  0  0  0  0  0  0  0  # atno 6909 bound_to 6896
  144.9062  140.6836  143.5054 H   0  0  0  0  0  0  0  0  0  0  0  0  # atno 7974 bound_to 7965
  154.8934  140.0415  157.1852 H   0  0  0  0  0  0  0  0  0  0  0  0  # atno 8008 bound_to 7997
  154.8517  140.2930  155.5573 H   0  0  0  0  0  0  0  0  0  0  0  0  # atno 8009 bound_to 7997
  156.2996  140.2463  156.3477 H   0  0  0  0  0  0  0  0  0  0  0  0  # atno 8010 bound_to 7997
  139.5309  144.6629  151.4954 H   0  0  0  0  0  0  0  0  0  0  0  0  # atno 10167 bound_to 10162
  156.8572  130.5574  149.5665 H   0  0  0  0  0  0  0  0  0  0  0  0  # atno 10718 bound_to 10713
  152.9911  135.6165  154.2770 H   0  0  0  0  0  0  0  0  0  0  0  0  # atno 10763 bound_to 10752
  154.2501  135.2785  155.2822 H   0  0  0  0  0  0  0  0  0  0  0  0  # atno 10764 bound_to 10752
  154.5295  135.5792  153.6805 H   0  0  0  0  0  0  0  0  0  0  0  0  # atno 10765 bound_to 10752
  140.6592  134.4367  157.5234 H   0  0  0  0  0  0  0  0  0  0  0  0  # atno 11005 bound_to 11000
  145.3532  139.1701  143.4423 LP  0  0  0  0  0  0  0  0  0  0  0  0  # atno 17320 bound_to 7965
  146.3135  140.3586  142.8663 LP  0  0  0  0  0  0  0  0  0  0  0  0  # atno 17321 bound_to 7965
  140.6486  143.8742  150.6763 LP  0  0  0  0  0  0  0  0  0  0  0  0  # atno 17342 bound_to 10162
  140.2100  143.3891  152.1725 LP  0  0  0  0  0  0  0  0  0  0  0  0  # atno 17343 bound_to 10162
  156.0796  130.5810  150.9538 LP  0  0  0  0  0  0  0  0  0  0  0  0  # atno 17370 bound_to 10713
  157.6270  131.0924  150.8514 LP  0  0  0  0  0  0  0  0  0  0  0  0  # atno 17371 bound_to 10713
  139.9019  134.8537  156.1862 LP  0  0  0  0  0  0  0  0  0  0  0  0  # atno 17394 bound_to 11000
  141.0478  133.6904  156.1715 LP  0  0  0  0  0  0  0  0  0  0  0  0  # atno 17395 bound_to 11000

$$$$
