AV-unprocessed.smi:1288|AV-procd|sdf|5382|dock9
  -GOLD-   22720 4533D 1   1.00000     0.00000
 Structure written by MMmdl.
 42 44  0  0  0  0  0  0  0  0  1 V2000
  146.4917  140.1448  156.4627 C   0  0  0  0  0  0  0  0  0  0  0  0
  145.8743  141.2904  155.7250 C   0  0  0  0  0  0  0  0  0  0  0  0
  144.8016  141.9358  156.1834 N   0  0  0  0  0  0  0  0  0  0  0  0
  144.5885  142.8963  155.2134 C   0  0  0  0  0  0  0  0  0  0  0  0
  143.5981  143.9001  155.1167 C   0  0  0  0  0  0  0  0  0  0  0  0
  143.5789  144.7801  154.0148 C   0  0  0  0  0  0  0  0  0  0  0  0
  144.5474  144.6697  152.9961 C   0  0  0  0  0  0  0  0  0  0  0  0
  145.5434  143.6772  153.0731 C   0  0  0  0  0  0  0  0  0  0  0  0
  145.5583  142.8010  154.1750 C   0  0  0  0  0  0  0  0  0  0  0  0
  146.3762  141.7381  154.5477 N   0  0  0  0  0  0  0  0  0  0  0  0
  147.5285  141.2301  153.8148 C   0  0  0  0  0  0  0  0  0  0  0  0
  148.7647  141.0241  154.7135 C   0  0  1  0  0  0  0  0  0  0  0  0
  149.8503  140.5967  153.9142 O   0  0  0  0  0  0  0  0  0  0  0  0
  149.1701  142.3191  155.4355 C   0  0  0  0  0  0  0  0  0  0  0  0
  150.1653  142.0195  156.4005 O   0  0  0  0  0  0  0  0  0  0  0  0
  150.8855  143.1647  156.8236 C   0  0  0  0  0  0  0  0  0  0  0  0
  151.4825  142.9586  158.2018 C   0  0  0  0  0  0  0  0  0  0  0  0
  152.0555  141.7145  158.5404 C   0  0  0  0  0  0  0  0  0  0  0  0
  152.6190  141.5175  159.8162 C   0  0  0  0  0  0  0  0  0  0  0  0
  152.6115  142.5636  160.7585 C   0  0  0  0  0  0  0  0  0  0  0  0
  152.0419  143.8073  160.4240 C   0  0  0  0  0  0  0  0  0  0  0  0
  151.4797  144.0072  159.1478 C   0  0  0  0  0  0  0  0  0  0  0  0
  150.9406  145.2101  158.8357 F   0  0  0  0  0  0  0  0  0  0  0  0
  145.9324  139.9313  157.3741 H   0  0  0  0  0  0  0  0  0  0  0  0
  147.5186  140.3831  156.7402 H   0  0  0  0  0  0  0  0  0  0  0  0
  146.4908  139.2481  155.8434 H   0  0  0  0  0  0  0  0  0  0  0  0
  142.8515  143.9925  155.8914 H   0  0  0  0  0  0  0  0  0  0  0  0
  142.8170  145.5432  153.9507 H   0  0  0  0  0  0  0  0  0  0  0  0
  144.5249  145.3469  152.1548 H   0  0  0  0  0  0  0  0  0  0  0  0
  146.2848  143.5888  152.2929 H   0  0  0  0  0  0  0  0  0  0  0  0
  147.2493  140.2912  153.3346 H   0  0  0  0  0  0  0  0  0  0  0  0
  147.7597  141.9226  153.0053 H   0  0  0  0  0  0  0  0  0  0  0  0
  148.5463  140.2513  155.4509 H   0  0  0  0  0  0  0  0  0  0  0  0
  149.5380  140.4606  153.0326 H   0  0  0  0  0  0  0  0  0  0  0  0
  149.5138  143.0754  154.7273 H   0  0  0  0  0  0  0  0  0  0  0  0
  148.3061  142.7343  155.9568 H   0  0  0  0  0  0  0  0  0  0  0  0
  151.6824  143.3913  156.1135 H   0  0  0  0  0  0  0  0  0  0  0  0
  150.2247  144.0330  156.8453 H   0  0  0  0  0  0  0  0  0  0  0  0
  152.0667  140.9083  157.8216 H   0  0  0  0  0  0  0  0  0  0  0  0
  153.0577  140.5639  160.0709 H   0  0  0  0  0  0  0  0  0  0  0  0
  153.0435  142.4132  161.7368 H   0  0  0  0  0  0  0  0  0  0  0  0
  152.0375  144.6102  161.1465 H   0  0  0  0  0  0  0  0  0  0  0  0
  1  2  1  0  0  0  0
  1 24  1  0  0  0  0
  1 25  1  0  0  0  0
  1 26  1  0  0  0  0
  2 10  1  0  0  0  0
  2  3  2  0  0  0  0
  3  4  1  0  0  0  0
  4  9  2  0  0  0  0
  4  5  1  0  0  0  0
  5  6  2  0  0  0  0
  5 27  1  0  0  0  0
  6  7  1  0  0  0  0
  6 28  1  0  0  0  0
  7  8  2  0  0  0  0
  7 29  1  0  0  0  0
  8  9  1  0  0  0  0
  8 30  1  0  0  0  0
  9 10  1  0  0  0  0
 10 11  1  0  0  0  0
 11 12  1  0  0  0  0
 11 31  1  0  0  0  0
 11 32  1  0  0  0  0
 12 13  1  0  0  0  0
 12 14  1  0  0  0  0
 12 33  1  0  0  0  0
 13 34  1  0  0  0  0
 14 15  1  0  0  0  0
 14 35  1  0  0  0  0
 14 36  1  0  0  0  0
 15 16  1  0  0  0  0
 16 17  1  0  0  0  0
 16 37  1  0  0  0  0
 16 38  1  0  0  0  0
 17 22  1  0  0  0  0
 17 18  2  0  0  0  0
 18 19  1  0  0  0  0
 18 39  1  0  0  0  0
 19 20  2  0  0  0  0
 19 40  1  0  0  0  0
 20 21  1  0  0  0  0
 20 41  1  0  0  0  0
 21 22  2  0  0  0  0
 21 42  1  0  0  0  0
 22 23  1  0  0  0  0
M  END
> <s_m_source_file>
AV-unprocessed.smi

> <i_m_source_file_index>
1288

> <i_lp_mmshare_version>
43012

> <i_f3d_flags>
0

> <s_epik_input>
W2NIXTFbY0hdW2NIXVtjSF1jKGMxMiluKGMobjIpW0NIM10pW0NIMl1bQ0BIXShbT0hdKVtDSDJdT1tDSDJdYzNbY0hdW2NIXVtjSF1bY0hdYzNG

> <s_epik_cmdline>
J2VwaWtfcHl0aG9uJywgJy1waCcsICc3LjAnLCAnLXRuJywgJzgnLCAnLW1hJywgJzIwMCcsICctbWV0YWxfYmluZGluZycsICctaW1hZScsICc8aW5maWxlLm1hZT4nLCAnLW9tYWUnLCAnPG91dGZpbGUubWFlPic=

> <r_epik_Ionization_Penalty>
0.132603

> <r_epik_Ionization_Penalty_Charging>
0

> <r_epik_Ionization_Penalty_Neutral>
0.132603

> <r_epik_State_Penalty>
0.121982

> <r_epik_Charging_Adjusted_Penalty>
0.121982

> <i_epik_Tot_Q>
0

> <i_epik_Tot_abs_Q>
0

> <r_epik_Metal_State_Penalty>
0.000135431

> <b_epik_Metal_Only>
0

> <s_lp_Force_Field>
OPLS_2005

> <r_lp_Energy>
16.0492

> <b_lp_Chiralities_Consistent>
1

> <s_lp_Variant>
AV-unprocessed.smi:1288-2

> <Gold.Version>
5.8.1

> <Gold.Id.Protein>
6NUR|6NUR_protein|mol2

> <Gold.PLP.Fitness>
55.3087

> <Gold.PLP.PLP>
-51.3475

> <Gold.PLP.part.hbond>
-2.0000

> <Gold.PLP.part.metal>
0.0000

> <Gold.PLP.part.buried>
-3.8647

> <Gold.PLP.part.nonpolar>
-45.7324

> <Gold.PLP.part.repulsive>
0.1704

> <Gold.PLP.ligand.clash>
0.0037

> <Gold.PLP.ligand.torsion>
0.6751

> <Gold.PLP.Chemscore.Hbond>
1.7360

> <Gold.PLP.Chemscore.CHOScore>
0.0000

> <Gold.PLP.Chemscore.Metal>
0.0000

> <Gold.Chemscore.Hbonds>
donor molecule, donor type, donor heavy atom, donor atom, acceptor molecule, acceptor atom, score
      L1  H    13    34       P1  7957  1.00
      P1  H  7989  7998       L1    13  0.49

> <Gold.PLP.Chemscore.Internal.Correction>
0.1072

> <Gold.Rescore>
     Score         DG    S(hbond)    S(metal)    S(lipo)     H(rot)  DE(clash)    DE(int)     intcor
     15.53     -18.57       1.04        0.00     132.32       2.29       1.78       1.26       ----

> <Gold.Chemscore.Fitness>
15.5306

> <Gold.Chemscore.DG>
-18.5704

> <Gold.Chemscore.ZeroCoef>
-5.4800

> <Gold.Chemscore.Hbond>
1.0367

> <Gold.Chemscore.Metal>
0.0000

> <Gold.Chemscore.Lipo>
132.3155

> <Gold.Chemscore.Internal_Hbond>
0.0000

> <Gold.Chemscore.DEClash>
1.7831

> <Gold.Chemscore.DEInternal>
1.2567

> <Gold.Chemscore.Rot>
2.2863

> <Gold.Chemscore.Internal.Correction>
   9.000000E+99

> <Gold.Chemscore.Hbonds>
donor molecule, donor type, donor heavy atom, donor atom, acceptor molecule, acceptor atom, score
      L1  H    13    34       P1  7957  0.99
      P1  H  7989  7998       L1    13  0.07

> <Gold.Chemscore.Hbond.Weighted>
-3.4625

> <Gold.Chemscore.Metal.Weighted>
-0.0000

> <Gold.Chemscore.Lipo.Weighted>
-15.4809

> <Gold.Chemscore.Internal_Hbond.Weighted>
0.0000

> <Gold.Chemscore.DEClash.Weighted>
1.7831

> <Gold.Chemscore.DEInternal.Weighted>
1.2567

> <Gold.Chemscore.Rot.Weighted>
5.8530

> <Gold.Chemscore.Internal.Correction.Weighted>
   9.000000E+99

> <Gold.Protein.RotatedTorsions>
[ 6907 6896 6895 6894 ] final   72.01 input  -60.11 | X-H torsion
[ 7974 7965 7964 7962 ] final  -13.60 input  175.53 | X-H torsion
[ 8008 7997 7996 7995 ] final  170.49 input   59.86 | X-H torsion
[ 10167 10162 10161 10158 ] final    3.40 input  -65.29 | X-H torsion
[ 10718 10713 10712 10709 ] final   20.06 input   66.30 | X-H torsion
[ 10763 10752 10751 10750 ] final  161.77 input  -60.55 | X-H torsion
[ 11005 11000 10999 10996 ] final  165.87 input  -57.11 | X-H torsion

> <Gold.Protein.ActiveResidues>
 VAL166  LYS551  ARG553  GLY616  TRP617  ASP618  TYR619  PRO620  LYS621  CYS622 
 ASP623  PHE694  ASN695  SER759  ASP760  ASP761  ALA762  ILE779  LEU786  VAL792 
 PHE793  MET794  SER795  GLU796  ALA797  LYS798  CYS799  TRP800  GLU811  SER814 

> <Gold.Protein.RotatedAtoms>
  152.4843  134.4635  159.9612 H   0  0  0  0  0  0  0  0  0  0  0  0  # atno 6907 bound_to 6896
  151.4634  133.3581  159.2820 H   0  0  0  0  0  0  0  0  0  0  0  0  # atno 6908 bound_to 6896
  150.8941  134.8373  159.7375 H   0  0  0  0  0  0  0  0  0  0  0  0  # atno 6909 bound_to 6896
  146.2108  140.3226  142.8392 H   0  0  0  0  0  0  0  0  0  0  0  0  # atno 7974 bound_to 7965
  156.1360  140.1536  156.8993 H   0  0  0  0  0  0  0  0  0  0  0  0  # atno 8008 bound_to 7997
  154.4948  140.0841  156.7712 H   0  0  0  0  0  0  0  0  0  0  0  0  # atno 8009 bound_to 7997
  155.4167  140.3421  155.4270 H   0  0  0  0  0  0  0  0  0  0  0  0  # atno 8010 bound_to 7997
  140.6587  143.7359  150.7700 H   0  0  0  0  0  0  0  0  0  0  0  0  # atno 10167 bound_to 10162
  157.1191  130.6542  149.5919 H   0  0  0  0  0  0  0  0  0  0  0  0  # atno 10718 bound_to 10713
  154.2680  135.2766  155.2750 H   0  0  0  0  0  0  0  0  0  0  0  0  # atno 10763 bound_to 10752
  154.5326  135.5725  153.6775 H   0  0  0  0  0  0  0  0  0  0  0  0  # atno 10764 bound_to 10752
  152.9950  135.6231  154.2834 H   0  0  0  0  0  0  0  0  0  0  0  0  # atno 10765 bound_to 10752
  140.2605  134.7905  157.3586 H   0  0  0  0  0  0  0  0  0  0  0  0  # atno 11005 bound_to 11000
  144.8909  140.7522  143.5927 LP  0  0  0  0  0  0  0  0  0  0  0  0  # atno 17320 bound_to 7965
  145.3149  139.1807  143.4619 LP  0  0  0  0  0  0  0  0  0  0  0  0  # atno 17321 bound_to 7965
  140.1024  143.4775  152.2417 LP  0  0  0  0  0  0  0  0  0  0  0  0  # atno 17342 bound_to 10162
  139.5816  144.7513  151.3626 LP  0  0  0  0  0  0  0  0  0  0  0  0  # atno 17343 bound_to 10162
  155.9832  130.4851  150.6923 LP  0  0  0  0  0  0  0  0  0  0  0  0  # atno 17370 bound_to 10713
  157.4492  131.0870  151.0864 LP  0  0  0  0  0  0  0  0  0  0  0  0  # atno 17371 bound_to 10713
  140.1469  134.4900  155.7990 LP  0  0  0  0  0  0  0  0  0  0  0  0  # atno 17394 bound_to 11000
  141.2191  133.6847  156.7309 LP  0  0  0  0  0  0  0  0  0  0  0  0  # atno 17395 bound_to 11000

$$$$
