AV-unprocessed.smi:1701|AV-procd|sdf|6826|dock3
  -GOLD-   22720 8 03D 1   1.00000     0.00000
 Structure written by MMmdl.
 55 57  0  0  0  0  0  0  0  0  3 V2000
  151.5013  145.5724  159.7657 C   0  0  0  0  0  0  0  0  0  0  0  0
  152.2157  144.7647  158.6710 C   0  0  0  0  0  0  0  0  0  0  0  0
  152.3237  143.3385  158.9799 N   0  0  0  0  0  0  0  0  0  0  0  0
  152.9569  142.9217  160.2336 C   0  0  0  0  0  0  0  0  0  0  0  0
  154.0492  141.8605  160.0364 C   0  0  0  0  0  0  0  0  0  0  0  0
  151.6550  142.3837  158.1747 C   0  0  0  0  0  0  0  0  0  0  0  0
  151.6138  140.9982  158.4732 C   0  0  0  0  0  0  0  0  0  0  0  0
  150.9259  140.1092  157.6218 C   0  0  0  0  0  0  0  0  0  0  0  0
  150.2826  140.6078  156.4632 C   0  0  0  0  0  0  0  0  0  0  0  0
  149.5467  139.8044  155.5511 N   0  0  0  0  0  0  0  0  0  0  0  0
  148.4134  140.1090  154.8885 C   0  0  0  0  0  0  0  0  0  0  0  0
  147.7870  141.1575  155.0210 O   0  0  0  0  0  0  0  0  0  0  0  0
  147.9779  139.1401  154.0638 N   0  0  0  0  0  0  0  0  0  0  0  0
  146.7914  139.1493  153.2076 C   0  0  1  0  0  0  0  0  0  0  0  0
  147.0974  138.9583  151.7087 C   0  0  0  0  0  0  0  0  0  0  0  0
  145.9729  138.0490  151.1732 C   0  0  0  0  0  0  0  0  0  0  0  0
  145.0469  137.8657  152.3069 N   0  3  1  0  0  0  0  0  0  0  0  0
  144.1936  136.6573  152.2948 C   0  0  0  0  0  0  0  0  0  0  0  0
  143.2501  136.6895  153.5145 C   0  0  0  0  0  0  0  0  0  0  0  0
  144.0244  136.8859  154.8343 C   0  0  0  0  0  0  0  0  0  0  0  0
  144.9646  138.1042  154.7521 C   0  0  0  0  0  0  0  0  0  0  0  0
  145.8727  137.9683  153.5190 C   0  0  2  0  0  0  0  0  0  0  0  0
  150.3380  141.9937  156.2175 C   0  0  0  0  0  0  0  0  0  0  0  0
  151.0091  142.8077  157.0600 N   0  3  0  0  0  0  0  0  0  0  0  0
  151.4238  146.6204  159.4760 H   0  0  0  0  0  0  0  0  0  0  0  0
  152.0411  145.5365  160.7108 H   0  0  0  0  0  0  0  0  0  0  0  0
  150.4905  145.2063  159.9448 H   0  0  0  0  0  0  0  0  0  0  0  0
  151.7219  144.9029  157.7094 H   0  0  0  0  0  0  0  0  0  0  0  0
  153.2187  145.1706  158.5354 H   0  0  0  0  0  0  0  0  0  0  0  0
  153.3647  143.7875  160.7560 H   0  0  0  0  0  0  0  0  0  0  0  0
  152.1909  142.5219  160.8987 H   0  0  0  0  0  0  0  0  0  0  0  0
  154.5217  141.6178  160.9883 H   0  0  0  0  0  0  0  0  0  0  0  0
  154.8305  142.2084  159.3604 H   0  0  0  0  0  0  0  0  0  0  0  0
  153.6418  140.9347  159.6325 H   0  0  0  0  0  0  0  0  0  0  0  0
  152.0978  140.5915  159.3477 H   0  0  0  0  0  0  0  0  0  0  0  0
  150.8959  139.0632  157.8854 H   0  0  0  0  0  0  0  0  0  0  0  0
  149.8991  138.8681  155.4170 H   0  0  0  0  0  0  0  0  0  0  0  0
  148.5213  138.2885  154.0512 H   0  0  0  0  0  0  0  0  0  0  0  0
  146.2275  140.0739  153.3480 H   0  0  0  0  0  0  0  0  0  0  0  0
  147.1251  139.9168  151.1890 H   0  0  0  0  0  0  0  0  0  0  0  0
  148.0647  138.4763  151.5575 H   0  0  0  0  0  0  0  0  0  0  0  0
  145.4559  138.4843  150.3175 H   0  0  0  0  0  0  0  0  0  0  0  0
  146.3852  137.0864  150.8664 H   0  0  0  0  0  0  0  0  0  0  0  0
  143.6153  136.6265  151.3710 H   0  0  0  0  0  0  0  0  0  0  0  0
  144.8164  135.7615  152.3167 H   0  0  0  0  0  0  0  0  0  0  0  0
  142.5345  137.5040  153.3945 H   0  0  0  0  0  0  0  0  0  0  0  0
  142.6643  135.7710  153.5581 H   0  0  0  0  0  0  0  0  0  0  0  0
  143.3278  137.0043  155.6649 H   0  0  0  0  0  0  0  0  0  0  0  0
  144.6092  135.9900  155.0474 H   0  0  0  0  0  0  0  0  0  0  0  0
  144.3775  139.0216  154.6893 H   0  0  0  0  0  0  0  0  0  0  0  0
  145.5652  138.1771  155.6593 H   0  0  0  0  0  0  0  0  0  0  0  0
  146.4726  137.0592  153.6075 H   0  0  0  0  0  0  0  0  0  0  0  0
  149.8725  142.4779  155.3713 H   0  0  0  0  0  0  0  0  0  0  0  0
  144.4327  138.6676  152.3099 H   0  0  0  0  0  0  0  0  0  0  0  0
  151.0319  143.8043  156.8443 H   0  0  0  0  0  0  0  0  0  0  0  0
  1  2  1  0  0  0  0
  1 25  1  0  0  0  0
  1 26  1  0  0  0  0
  1 27  1  0  0  0  0
  2  3  1  0  0  0  0
  2 28  1  0  0  0  0
  2 29  1  0  0  0  0
  3  4  1  0  0  0  0
  3  6  1  0  0  0  0
  4  5  1  0  0  0  0
  4 30  1  0  0  0  0
  4 31  1  0  0  0  0
  5 32  1  0  0  0  0
  5 33  1  0  0  0  0
  5 34  1  0  0  0  0
  6 24  1  0  0  0  0
  6  7  2  0  0  0  0
  7  8  1  0  0  0  0
  7 35  1  0  0  0  0
  8  9  2  0  0  0  0
  8 36  1  0  0  0  0
  9 10  1  0  0  0  0
  9 23  1  0  0  0  0
 10 11  1  0  0  0  0
 10 37  1  0  0  0  0
 11 12  2  0  0  0  0
 11 13  1  0  0  0  0
 13 14  1  0  0  0  0
 13 38  1  0  0  0  0
 14 22  1  0  0  0  0
 14 15  1  0  0  0  0
 14 39  1  0  0  0  0
 15 16  1  0  0  0  0
 15 40  1  0  0  0  0
 15 41  1  0  0  0  0
 16 17  1  0  0  0  0
 16 42  1  0  0  0  0
 16 43  1  0  0  0  0
 17 22  1  0  0  0  0
 17 18  1  0  0  0  0
 17 54  1  0  0  0  0
 18 19  1  0  0  0  0
 18 44  1  0  0  0  0
 18 45  1  0  0  0  0
 19 20  1  0  0  0  0
 19 46  1  0  0  0  0
 19 47  1  0  0  0  0
 20 21  1  0  0  0  0
 20 48  1  0  0  0  0
 20 49  1  0  0  0  0
 21 22  1  0  0  0  0
 21 50  1  0  0  0  0
 21 51  1  0  0  0  0
 22 52  1  0  0  0  0
 23 24  2  0  0  0  0
 23 53  1  0  0  0  0
 24 55  1  0  0  0  0
M  CHG  1  17   1
M  CHG  1  24   1
M  END
> <s_m_source_file>
AV-unprocessed.smi

> <i_m_source_file_index>
1701

> <i_lp_mmshare_version>
43012

> <i_f3d_flags>
0

> <s_epik_input>
W0NIM11bQ0gyXU4oW0NIMl1bQ0gzXSljMVtjSF1bY0hdYyhbY0hdbjEpW05IXUMoPU8pW05IXVtDQEhdKFtDSDJdW0NIMl0yKVtDQEBIXShOMjMpW0NIMl1bQ0gyXVtDSDJdW0NIMl0z

> <s_epik_cmdline>
J2VwaWtfcHl0aG9uJywgJy1waCcsICc3LjAnLCAnLXRuJywgJzgnLCAnLW1hJywgJzIwMCcsICctbWV0YWxfYmluZGluZycsICctaW1hZScsICc8aW5maWxlLm1hZT4nLCAnLW9tYWUnLCAnPG91dGZpbGUubWFlPic=

> <r_lp_tautomer_probability>
0.999994

> <r_epik_Ionization_Penalty>
0.302862

> <r_epik_Ionization_Penalty_Charging>
0.302842

> <r_epik_Ionization_Penalty_Neutral>
1.95166e-05

> <r_epik_State_Penalty>
0.019791

> <r_epik_Charging_Adjusted_Penalty>
0.322633

> <i_epik_Tot_Q>
2

> <i_epik_Tot_abs_Q>
2

> <r_epik_Metal_State_Penalty>
0.0536763

> <b_epik_Metal_Only>
0

> <s_lp_Force_Field>
OPLS_2005

> <r_lp_Energy>
62.0902

> <b_lp_Chiralities_Consistent>
1

> <s_lp_Variant>
AV-unprocessed.smi:1701-6

> <Gold.Version>
5.8.1

> <Gold.Id.Protein>
6NUR|6NUR_protein|mol2

> <Gold.PLP.Fitness>
49.2932

> <Gold.PLP.PLP>
-43.7981

> <Gold.PLP.part.hbond>
-2.5049

> <Gold.PLP.part.metal>
0.0000

> <Gold.PLP.part.buried>
3.4029

> <Gold.PLP.part.nonpolar>
-45.1140

> <Gold.PLP.part.repulsive>
0.1865

> <Gold.PLP.ligand.clash>
0.0000

> <Gold.PLP.ligand.torsion>
0.3403

> <Gold.PLP.Chemscore.Hbond>
2.0000

> <Gold.PLP.Chemscore.CHOScore>
0.0000

> <Gold.PLP.Chemscore.Metal>
0.0000

> <Gold.Chemscore.Hbonds>
donor molecule, donor type, donor heavy atom, donor atom, acceptor molecule, acceptor atom, score
      L1  H    17    54       P1 10175  2.00

> <Gold.PLP.Chemscore.Internal.Correction>
0.1757

> <Gold.Rescore>
     Score         DG    S(hbond)    S(metal)    S(lipo)     H(rot)  DE(clash)    DE(int)     intcor
     15.16     -18.30       1.00        0.00     109.56       1.30       1.59       1.55       ----

> <Gold.Chemscore.Fitness>
15.1595

> <Gold.Chemscore.DG>
-18.3049

> <Gold.Chemscore.ZeroCoef>
-5.4800

> <Gold.Chemscore.Hbond>
0.9997

> <Gold.Chemscore.Metal>
0.0000

> <Gold.Chemscore.Lipo>
109.5643

> <Gold.Chemscore.Internal_Hbond>
0.0000

> <Gold.Chemscore.DEClash>
1.5948

> <Gold.Chemscore.DEInternal>
1.5507

> <Gold.Chemscore.Rot>
1.3020

> <Gold.Chemscore.Internal.Correction>
   9.000000E+99

> <Gold.Chemscore.Hbonds>
donor molecule, donor type, donor heavy atom, donor atom, acceptor molecule, acceptor atom, score
      L1  H    17    54       P1 10175  0.99

> <Gold.Chemscore.Hbond.Weighted>
-3.3390

> <Gold.Chemscore.Metal.Weighted>
-0.0000

> <Gold.Chemscore.Lipo.Weighted>
-12.8190

> <Gold.Chemscore.Internal_Hbond.Weighted>
0.0000

> <Gold.Chemscore.DEClash.Weighted>
1.5948

> <Gold.Chemscore.DEInternal.Weighted>
1.5507

> <Gold.Chemscore.Rot.Weighted>
3.3330

> <Gold.Chemscore.Internal.Correction.Weighted>
   9.000000E+99

> <Gold.Protein.RotatedTorsions>
[ 6907 6896 6895 6894 ] final -136.06 input  -60.11 | X-H torsion
[ 7974 7965 7964 7962 ] final  163.51 input  175.53 | X-H torsion
[ 8008 7997 7996 7995 ] final  140.95 input   59.86 | X-H torsion
[ 10167 10162 10161 10158 ] final  138.43 input  -65.29 | X-H torsion
[ 10718 10713 10712 10709 ] final -137.42 input   66.30 | X-H torsion
[ 10763 10752 10751 10750 ] final   24.88 input  -60.55 | X-H torsion
[ 11005 11000 10999 10996 ] final  161.75 input  -57.11 | X-H torsion

> <Gold.Protein.ActiveResidues>
 VAL166  LYS551  ARG553  GLY616  TRP617  ASP618  TYR619  PRO620  LYS621  CYS622 
 ASP623  PHE694  ASN695  SER759  ASP760  ASP761  ALA762  ILE779  LEU786  VAL792 
 PHE793  MET794  SER795  GLU796  ALA797  LYS798  CYS799  TRP800  GLU811  SER814 

> <Gold.Protein.RotatedAtoms>
  151.0055  133.6015  159.2689 H   0  0  0  0  0  0  0  0  0  0  0  0  # atno 6907 bound_to 6896
  151.3186  135.0812  159.9307 H   0  0  0  0  0  0  0  0  0  0  0  0  # atno 6908 bound_to 6896
  152.5285  133.9706  159.7814 H   0  0  0  0  0  0  0  0  0  0  0  0  # atno 6909 bound_to 6896
  144.7586  139.8193  143.6341 H   0  0  0  0  0  0  0  0  0  0  0  0  # atno 7974 bound_to 7965
  156.2972  140.2328  156.4484 H   0  0  0  0  0  0  0  0  0  0  0  0  # atno 8008 bound_to 7997
  154.8123  140.0442  157.1372 H   0  0  0  0  0  0  0  0  0  0  0  0  # atno 8009 bound_to 7997
  154.9409  140.3029  155.5125 H   0  0  0  0  0  0  0  0  0  0  0  0  # atno 8010 bound_to 7997
  139.5111  144.6353  151.5712 H   0  0  0  0  0  0  0  0  0  0  0  0  # atno 10167 bound_to 10162
  156.2879  130.7358  151.1375 H   0  0  0  0  0  0  0  0  0  0  0  0  # atno 10718 bound_to 10713
  153.0732  135.6595  154.0202 H   0  0  0  0  0  0  0  0  0  0  0  0  # atno 10763 bound_to 10752
  153.9842  135.2952  155.3419 H   0  0  0  0  0  0  0  0  0  0  0  0  # atno 10764 bound_to 10752
  154.7113  135.5204  153.8740 H   0  0  0  0  0  0  0  0  0  0  0  0  # atno 10765 bound_to 10752
  140.2189  134.8211  157.3200 H   0  0  0  0  0  0  0  0  0  0  0  0  # atno 11005 bound_to 11000
  146.1625  139.4744  142.9979 LP  0  0  0  0  0  0  0  0  0  0  0  0  # atno 17320 bound_to 7965
  145.6694  141.0220  143.1666 LP  0  0  0  0  0  0  0  0  0  0  0  0  # atno 17321 bound_to 7965
  140.6100  143.9453  150.6446 LP  0  0  0  0  0  0  0  0  0  0  0  0  # atno 17342 bound_to 10162
  140.2693  143.3468  152.1253 LP  0  0  0  0  0  0  0  0  0  0  0  0  # atno 17343 bound_to 10162
  157.7334  131.0591  150.5579 LP  0  0  0  0  0  0  0  0  0  0  0  0  # atno 17370 bound_to 10713
  156.5692  130.4275  149.6027 LP  0  0  0  0  0  0  0  0  0  0  0  0  # atno 17371 bound_to 10713
  140.1871  134.4418  155.7737 LP  0  0  0  0  0  0  0  0  0  0  0  0  # atno 17394 bound_to 11000
  141.2224  133.7010  156.7965 LP  0  0  0  0  0  0  0  0  0  0  0  0  # atno 17395 bound_to 11000

$$$$
