AV-unprocessed.smi:1816|AV-procd|sdf|7365|dock1
  -GOLD-   22720 9 23D 1   1.00000     0.00000
 Structure written by MMmdl.
 36 37  0  0  0  0  0  0  0  0  2 V2000
  145.8170  136.5755  154.4835 C   0  0  0  0  0  0  0  0  0  0  0  0
  145.4560  136.5530  152.9808 C   0  0  1  0  0  0  0  0  0  0  0  0
  145.9209  137.8540  152.2834 C   0  0  0  0  0  0  0  0  0  0  0  0
  147.2691  138.2401  152.6881 N   0  0  0  0  0  0  0  0  0  0  0  0
  147.5584  139.0216  153.7379 C   0  0  0  0  0  0  0  0  0  0  0  0
  146.7034  139.4871  154.4915 O   0  0  0  0  0  0  0  0  0  0  0  0
  148.8838  139.2194  153.8482 N   0  0  0  0  0  0  0  0  0  0  0  0
  149.5756  140.0148  154.7993 C   0  0  0  0  0  0  0  0  0  0  0  0
  150.9080  140.1098  154.8769 N   0  0  0  0  0  0  0  0  0  0  0  0
  151.3138  140.9562  155.9119 C   0  0  0  0  0  0  0  0  0  0  0  0
  150.2694  141.5006  156.6170 C   0  0  0  0  0  0  0  0  0  0  0  0
  148.7257  140.9687  156.0060 S   0  0  0  0  0  0  0  0  0  0  0  0
  146.0345  135.3505  152.3116 N   0  3  0  0  0  0  0  0  0  0  0  0
  146.1033  134.1329  153.1487 C   0  0  0  0  0  0  0  0  0  0  0  0
  146.2616  132.9589  152.1802 C   0  0  0  0  0  0  0  0  0  0  0  0
  145.7615  133.4734  150.8281 C   0  0  0  0  0  0  0  0  0  0  0  0
  145.3532  134.9293  151.0677 C   0  0  0  0  0  0  0  0  0  0  0  0
  145.4021  137.4484  154.9875 H   0  0  0  0  0  0  0  0  0  0  0  0
  146.8977  136.5953  154.6290 H   0  0  0  0  0  0  0  0  0  0  0  0
  145.4243  135.7077  155.0128 H   0  0  0  0  0  0  0  0  0  0  0  0
  144.3695  136.4911  152.8969 H   0  0  0  0  0  0  0  0  0  0  0  0
  145.8696  137.7214  151.2011 H   0  0  0  0  0  0  0  0  0  0  0  0
  145.2662  138.6896  152.5306 H   0  0  0  0  0  0  0  0  0  0  0  0
  148.0332  137.8961  152.1249 H   0  0  0  0  0  0  0  0  0  0  0  0
  149.4668  138.7590  153.1649 H   0  0  0  0  0  0  0  0  0  0  0  0
  152.3692  141.1141  156.0777 H   0  0  0  0  0  0  0  0  0  0  0  0
  150.3146  142.1787  157.4562 H   0  0  0  0  0  0  0  0  0  0  0  0
  146.9246  134.1756  153.8649 H   0  0  0  0  0  0  0  0  0  0  0  0
  145.1721  134.0218  153.7069 H   0  0  0  0  0  0  0  0  0  0  0  0
  147.3111  132.6721  152.1016 H   0  0  0  0  0  0  0  0  0  0  0  0
  145.7065  132.0833  152.5187 H   0  0  0  0  0  0  0  0  0  0  0  0
  146.5642  133.4202  150.0914 H   0  0  0  0  0  0  0  0  0  0  0  0
  144.9272  132.8830  150.4476 H   0  0  0  0  0  0  0  0  0  0  0  0
  144.2722  134.9858  151.2070 H   0  0  0  0  0  0  0  0  0  0  0  0
  145.6187  135.5642  150.2220 H   0  0  0  0  0  0  0  0  0  0  0  0
  146.9854  135.5744  152.0545 H   0  0  0  0  0  0  0  0  0  0  0  0
  1  2  1  0  0  0  0
  1 18  1  0  0  0  0
  1 19  1  0  0  0  0
  1 20  1  0  0  0  0
  2  3  1  0  0  0  0
  2 13  1  0  0  0  0
  2 21  1  0  0  0  0
  3  4  1  0  0  0  0
  3 22  1  0  0  0  0
  3 23  1  0  0  0  0
  4  5  1  0  0  0  0
  4 24  1  0  0  0  0
  5  6  2  0  0  0  0
  5  7  1  0  0  0  0
  7  8  1  0  0  0  0
  7 25  1  0  0  0  0
  8 12  1  0  0  0  0
  8  9  2  0  0  0  0
  9 10  1  0  0  0  0
 10 11  2  0  0  0  0
 10 26  1  0  0  0  0
 11 12  1  0  0  0  0
 11 27  1  0  0  0  0
 13 17  1  0  0  0  0
 13 14  1  0  0  0  0
 13 36  1  0  0  0  0
 14 15  1  0  0  0  0
 14 28  1  0  0  0  0
 14 29  1  0  0  0  0
 15 16  1  0  0  0  0
 15 30  1  0  0  0  0
 15 31  1  0  0  0  0
 16 17  1  0  0  0  0
 16 32  1  0  0  0  0
 16 33  1  0  0  0  0
 17 34  1  0  0  0  0
 17 35  1  0  0  0  0
M  CHG  1  13   1
M  END
> <s_m_source_file>
AV-unprocessed.smi

> <i_m_source_file_index>
1816

> <i_lp_mmshare_version>
43012

> <i_f3d_flags>
0

> <s_epik_input>
W0NIMl0xW0NIMl1bQ0gyXVtDSDJdTjFbQ0BIXShbQ0gzXSlbQ0gyXVtOSF1DKD1PKVtOSF1jMm5bY0hdW2NIXXMy

> <s_epik_cmdline>
J2VwaWtfcHl0aG9uJywgJy1waCcsICc3LjAnLCAnLXRuJywgJzgnLCAnLW1hJywgJzIwMCcsICctbWV0YWxfYmluZGluZycsICctaW1hZScsICc8aW5maWxlLm1hZT4nLCAnLW9tYWUnLCAnPG91dGZpbGUubWFlPic=

> <r_lp_tautomer_probability>
0.999

> <r_epik_Ionization_Penalty>
0.000988651

> <r_epik_Ionization_Penalty_Charging>
0.000848324

> <r_epik_Ionization_Penalty_Neutral>
0.000140327

> <r_epik_State_Penalty>
0.000546901

> <r_epik_Charging_Adjusted_Penalty>
0.00139523

> <i_epik_Tot_Q>
1

> <i_epik_Tot_abs_Q>
1

> <r_epik_Metal_State_Penalty>
0.0571994

> <b_epik_Metal_Only>
0

> <s_lp_Force_Field>
OPLS_2005

> <r_lp_Energy>
29.703

> <b_lp_Chiralities_Consistent>
1

> <s_lp_Variant>
AV-unprocessed.smi:1816-2

> <Gold.Version>
5.8.1

> <Gold.Id.Protein>
6NUR|6NUR_protein|mol2

> <Gold.PLP.Fitness>
38.7760

> <Gold.PLP.PLP>
-28.6336

> <Gold.PLP.part.hbond>
-5.0000

> <Gold.PLP.part.metal>
0.0000

> <Gold.PLP.part.buried>
-0.9335

> <Gold.PLP.part.nonpolar>
-22.6806

> <Gold.PLP.part.repulsive>
0.4074

> <Gold.PLP.ligand.clash>
0.0000

> <Gold.PLP.ligand.torsion>
0.8224

> <Gold.PLP.Chemscore.Hbond>
3.8160

> <Gold.PLP.Chemscore.CHOScore>
0.0887

> <Gold.PLP.Chemscore.Metal>
0.0000

> <Gold.Chemscore.Hbonds>
donor molecule, donor type, donor heavy atom, donor atom, acceptor molecule, acceptor atom, score
      L1  H     4    24       P1  7948  0.78
      L1  H     7    25       P1  7957  0.04
      L1  H    13    36       P1  7948  1.89
      P1  H  7989  7998       L1     9  1.00

> <Gold.PLP.Chemscore.Internal.Correction>
0.0731

> <Gold.Rescore>
     Score         DG    S(hbond)    S(metal)    S(lipo)     H(rot)  DE(clash)    DE(int)     intcor
     13.79     -16.38       2.58        0.00      54.64       1.60       0.54       2.05       ----

> <Gold.Chemscore.Fitness>
13.7949

> <Gold.Chemscore.DG>
-16.3845

> <Gold.Chemscore.ZeroCoef>
-5.4800

> <Gold.Chemscore.Hbond>
2.5792

> <Gold.Chemscore.Metal>
0.0000

> <Gold.Chemscore.Lipo>
54.6446

> <Gold.Chemscore.Internal_Hbond>
0.0000

> <Gold.Chemscore.DEClash>
0.5396

> <Gold.Chemscore.DEInternal>
2.0500

> <Gold.Chemscore.Rot>
1.6029

> <Gold.Chemscore.Internal.Correction>
   9.000000E+99

> <Gold.Chemscore.Hbonds>
donor molecule, donor type, donor heavy atom, donor atom, acceptor molecule, acceptor atom, score
      L1  H     4    24       P1  7948  0.78
      L1  H     7    25       P1  7957  0.04
      L1  H    13    36       P1  7948  0.90
      P1  H  7989  7998       L1     9  0.26

> <Gold.Chemscore.Hbond.Weighted>
-8.6146

> <Gold.Chemscore.Metal.Weighted>
-0.0000

> <Gold.Chemscore.Lipo.Weighted>
-6.3934

> <Gold.Chemscore.Internal_Hbond.Weighted>
0.0000

> <Gold.Chemscore.DEClash.Weighted>
0.5396

> <Gold.Chemscore.DEInternal.Weighted>
2.0500

> <Gold.Chemscore.Rot.Weighted>
4.1035

> <Gold.Chemscore.Internal.Correction.Weighted>
   9.000000E+99

> <Gold.Protein.RotatedTorsions>
[ 6907 6896 6895 6894 ] final -179.28 input  -60.11 | X-H torsion
[ 7974 7965 7964 7962 ] final  148.29 input  175.53 | X-H torsion
[ 8008 7997 7996 7995 ] final -159.70 input   59.86 | X-H torsion
[ 10167 10162 10161 10158 ] final   27.79 input  -65.29 | X-H torsion
[ 10718 10713 10712 10709 ] final  130.65 input   66.30 | X-H torsion
[ 10763 10752 10751 10750 ] final  -26.93 input  -60.55 | X-H torsion
[ 11005 11000 10999 10996 ] final   85.02 input  -57.11 | X-H torsion

> <Gold.Protein.ActiveResidues>
 VAL166  LYS551  ARG553  GLY616  TRP617  ASP618  TYR619  PRO620  LYS621  CYS622 
 ASP623  PHE694  ASN695  SER759  ASP760  ASP761  ALA762  ILE779  LEU786  VAL792 
 PHE793  MET794  SER795  GLU796  ALA797  LYS798  CYS799  TRP800  GLU811  SER814 

> <Gold.Protein.RotatedAtoms>
  151.6510  133.3321  159.3151 H   0  0  0  0  0  0  0  0  0  0  0  0  # atno 6907 bound_to 6896
  150.7960  134.7024  159.6567 H   0  0  0  0  0  0  0  0  0  0  0  0  # atno 6908 bound_to 6896
  152.4047  134.6230  160.0107 H   0  0  0  0  0  0  0  0  0  0  0  0  # atno 6909 bound_to 6896
  144.8525  139.6135  143.5967 H   0  0  0  0  0  0  0  0  0  0  0  0  # atno 7974 bound_to 7965
  155.7664  140.0846  157.2130 H   0  0  0  0  0  0  0  0  0  0  0  0  # atno 8008 bound_to 7997
  154.3999  140.1533  156.2948 H   0  0  0  0  0  0  0  0  0  0  0  0  # atno 8009 bound_to 7997
  155.8790  140.3421  155.5877 H   0  0  0  0  0  0  0  0  0  0  0  0  # atno 8010 bound_to 7997
  140.4908  144.0470  150.6296 H   0  0  0  0  0  0  0  0  0  0  0  0  # atno 10167 bound_to 10162
  157.5042  131.1095  150.9384 H   0  0  0  0  0  0  0  0  0  0  0  0  # atno 10718 bound_to 10713
  153.7239  135.6943  153.5006 H   0  0  0  0  0  0  0  0  0  0  0  0  # atno 10763 bound_to 10752
  153.2184  135.4378  155.0460 H   0  0  0  0  0  0  0  0  0  0  0  0  # atno 10764 bound_to 10752
  154.8275  135.3454  154.6772 H   0  0  0  0  0  0  0  0  0  0  0  0  # atno 10765 bound_to 10752
  139.8983  134.8257  156.2524 H   0  0  0  0  0  0  0  0  0  0  0  0  # atno 11005 bound_to 11000
  146.2797  139.6844  142.9238 LP  0  0  0  0  0  0  0  0  0  0  0  0  # atno 17320 bound_to 7965
  145.4470  141.0426  143.2825 LP  0  0  0  0  0  0  0  0  0  0  0  0  # atno 17321 bound_to 7965
  140.3738  143.2840  152.0248 LP  0  0  0  0  0  0  0  0  0  0  0  0  # atno 17342 bound_to 10162
  139.4851  144.6209  151.7257 LP  0  0  0  0  0  0  0  0  0  0  0  0  # atno 17343 bound_to 10162
  157.0045  130.5613  149.5314 LP  0  0  0  0  0  0  0  0  0  0  0  0  # atno 17370 bound_to 10713
  156.0248  130.5342  150.8376 LP  0  0  0  0  0  0  0  0  0  0  0  0  # atno 17371 bound_to 10713
  141.0215  133.7039  156.1276 LP  0  0  0  0  0  0  0  0  0  0  0  0  # atno 17394 bound_to 11000
  140.7227  134.4341  157.5573 LP  0  0  0  0  0  0  0  0  0  0  0  0  # atno 17395 bound_to 11000

$$$$
