AV-unprocessed.smi:2521|AV-procd|sdf|9916|dock4
  -GOLD-   2272013553D 1   1.00000     0.00000
 Structure written by MMmdl.
 36 37  0  0  0  0  0  0  0  0  1 V2000
  153.7480  140.3896  160.5917 C   0  0  0  0  0  0  0  0  0  0  0  0
  153.6874  141.9212  160.4986 C   0  0  0  0  0  0  0  0  0  0  0  0
  153.2897  142.5902  161.8225 C   0  0  0  0  0  0  0  0  0  0  0  0
  152.8393  142.3838  159.3550 C   0  0  0  0  0  0  0  0  0  0  0  0
  152.8688  143.6384  158.8853 N   0  0  0  0  0  0  0  0  0  0  0  0
  151.9954  143.8261  157.8237 N   0  0  0  0  0  0  0  0  0  0  0  0
  151.3281  142.7042  157.5216 C   0  0  0  0  0  0  0  0  0  0  0  0
  150.3688  142.6129  156.4787 N   0  0  0  0  0  0  0  0  0  0  0  0
  150.2161  141.6335  155.5702 C   0  0  0  0  0  0  0  0  0  0  0  0
  150.9067  140.6169  155.4946 O   0  0  0  0  0  0  0  0  0  0  0  0
  149.1965  141.8968  154.7404 N   0  0  0  0  0  0  0  0  0  0  0  0
  148.7546  141.0272  153.6552 C   0  0  0  0  0  0  0  0  0  0  0  0
  147.4595  140.2728  154.0111 C   0  0  1  0  0  0  0  0  0  0  0  0
  147.0064  139.2622  152.9756 C   0  0  0  0  0  0  0  0  0  0  0  0
  146.0576  138.3879  153.7886 C   0  0  0  0  0  0  0  0  0  0  0  0
  146.5753  138.3856  155.1158 O   0  0  0  0  0  0  0  0  0  0  0  0
  147.5759  139.3909  155.2539 C   0  0  0  0  0  0  0  0  0  0  0  0
  151.7167  141.3145  158.5204 S   0  0  0  0  0  0  0  0  0  0  0  0
  154.1166  139.9547  159.6621 H   0  0  0  0  0  0  0  0  0  0  0  0
  152.7639  139.9644  160.7914 H   0  0  0  0  0  0  0  0  0  0  0  0
  154.4156  140.0710  161.3927 H   0  0  0  0  0  0  0  0  0  0  0  0
  154.7029  142.2546  160.2816 H   0  0  0  0  0  0  0  0  0  0  0  0
  153.3391  143.6765  161.7431 H   0  0  0  0  0  0  0  0  0  0  0  0
  153.9557  142.2875  162.6310 H   0  0  0  0  0  0  0  0  0  0  0  0
  152.2733  142.3225  162.1128 H   0  0  0  0  0  0  0  0  0  0  0  0
  149.7198  143.3835  156.4197 H   0  0  0  0  0  0  0  0  0  0  0  0
  148.6829  142.7557  154.8726 H   0  0  0  0  0  0  0  0  0  0  0  0
  148.5981  141.6456  152.7710 H   0  0  0  0  0  0  0  0  0  0  0  0
  149.5451  140.3199  153.3991 H   0  0  0  0  0  0  0  0  0  0  0  0
  146.6514  140.9882  154.1742 H   0  0  0  0  0  0  0  0  0  0  0  0
  146.5242  139.7186  152.1107 H   0  0  0  0  0  0  0  0  0  0  0  0
  147.8526  138.6700  152.6242 H   0  0  0  0  0  0  0  0  0  0  0  0
  145.0591  138.8267  153.8067 H   0  0  0  0  0  0  0  0  0  0  0  0
  145.9764  137.3768  153.3891 H   0  0  0  0  0  0  0  0  0  0  0  0
  148.5493  138.8999  155.2916 H   0  0  0  0  0  0  0  0  0  0  0  0
  147.4477  139.9553  156.1779 H   0  0  0  0  0  0  0  0  0  0  0  0
  1  2  1  0  0  0  0
  1 19  1  0  0  0  0
  1 20  1  0  0  0  0
  1 21  1  0  0  0  0
  2  3  1  0  0  0  0
  2  4  1  0  0  0  0
  2 22  1  0  0  0  0
  3 23  1  0  0  0  0
  3 24  1  0  0  0  0
  3 25  1  0  0  0  0
  4 18  1  0  0  0  0
  4  5  2  0  0  0  0
  5  6  1  0  0  0  0
  6  7  2  0  0  0  0
  7  8  1  0  0  0  0
  7 18  1  0  0  0  0
  8  9  1  0  0  0  0
  8 26  1  0  0  0  0
  9 10  2  0  0  0  0
  9 11  1  0  0  0  0
 11 12  1  0  0  0  0
 11 27  1  0  0  0  0
 12 13  1  0  0  0  0
 12 28  1  0  0  0  0
 12 29  1  0  0  0  0
 13 17  1  0  0  0  0
 13 14  1  0  0  0  0
 13 30  1  0  0  0  0
 14 15  1  0  0  0  0
 14 31  1  0  0  0  0
 14 32  1  0  0  0  0
 15 16  1  0  0  0  0
 15 33  1  0  0  0  0
 15 34  1  0  0  0  0
 16 17  1  0  0  0  0
 17 35  1  0  0  0  0
 17 36  1  0  0  0  0
M  END
> <s_m_source_file>
AV-unprocessed.smi

> <i_m_source_file_index>
2521

> <i_lp_mmshare_version>
43012

> <i_f3d_flags>
0

> <s_epik_input>
W0NIM11bQ0hdKFtDSDNdKWMxbm5jKHMxKVtOSF1DKD1PKVtOSF1bQ0gyXVtDQEBIXTJbQ0gyXVtDSDJdT1tDSDJdMg==

> <s_epik_cmdline>
J2VwaWtfcHl0aG9uJywgJy1waCcsICc3LjAnLCAnLXRuJywgJzgnLCAnLW1hJywgJzIwMCcsICctbWV0YWxfYmluZGluZycsICctaW1hZScsICc8aW5maWxlLm1hZT4nLCAnLW9tYWUnLCAnPG91dGZpbGUubWFlPic=

> <r_lp_tautomer_probability>
1

> <r_epik_Ionization_Penalty>
0.000452582

> <r_epik_Ionization_Penalty_Charging>
0

> <r_epik_Ionization_Penalty_Neutral>
0.000452582

> <r_epik_State_Penalty>
-0

> <r_epik_Charging_Adjusted_Penalty>
0

> <i_epik_Tot_Q>
0

> <i_epik_Tot_abs_Q>
0

> <r_epik_Metal_State_Penalty>
0.207746

> <b_epik_Metal_Only>
0

> <s_lp_Force_Field>
OPLS_2005

> <r_lp_Energy>
10.682

> <b_lp_Chiralities_Consistent>
1

> <s_lp_Variant>
AV-unprocessed.smi:2521-2

> <Gold.Version>
5.8.1

> <Gold.Id.Protein>
6NUR|6NUR_protein|mol2

> <Gold.PLP.Fitness>
39.2274

> <Gold.PLP.PLP>
-33.5144

> <Gold.PLP.part.hbond>
-3.0000

> <Gold.PLP.part.metal>
0.0000

> <Gold.PLP.part.buried>
-3.3701

> <Gold.PLP.part.nonpolar>
-26.3647

> <Gold.PLP.part.repulsive>
0.4713

> <Gold.PLP.ligand.clash>
0.0000

> <Gold.PLP.ligand.torsion>
0.7096

> <Gold.PLP.Chemscore.Hbond>
2.3502

> <Gold.PLP.Chemscore.CHOScore>
0.0000

> <Gold.PLP.Chemscore.Metal>
0.0000

> <Gold.Chemscore.Hbonds>
donor molecule, donor type, donor heavy atom, donor atom, acceptor molecule, acceptor atom, score
      L1  H     8    26       P1  8028  1.00
      L1  H    11    27       P1  8028  0.70
      P1  H  7989  7998       L1    10  0.60

> <Gold.PLP.Chemscore.Internal.Correction>
0.0816

> <Gold.Rescore>
     Score         DG    S(hbond)    S(metal)    S(lipo)     H(rot)  DE(clash)    DE(int)     intcor
     16.26     -17.00       2.05        0.00      71.70       1.45       0.15       0.59       ----

> <Gold.Chemscore.Fitness>
16.2610

> <Gold.Chemscore.DG>
-17.0034

> <Gold.Chemscore.ZeroCoef>
-5.4800

> <Gold.Chemscore.Hbond>
2.0469

> <Gold.Chemscore.Metal>
0.0000

> <Gold.Chemscore.Lipo>
71.6988

> <Gold.Chemscore.Internal_Hbond>
0.0000

> <Gold.Chemscore.DEClash>
0.1487

> <Gold.Chemscore.DEInternal>
0.5937

> <Gold.Chemscore.Rot>
1.4461

> <Gold.Chemscore.Internal.Correction>
   9.000000E+99

> <Gold.Chemscore.Hbonds>
donor molecule, donor type, donor heavy atom, donor atom, acceptor molecule, acceptor atom, score
      L1  H     8    26       P1  8028  0.99
      L1  H    11    27       P1  8028  0.68
      P1  H  7989  7998       L1    10  0.12

> <Gold.Chemscore.Hbond.Weighted>
-6.8365

> <Gold.Chemscore.Metal.Weighted>
-0.0000

> <Gold.Chemscore.Lipo.Weighted>
-8.3888

> <Gold.Chemscore.Internal_Hbond.Weighted>
0.0000

> <Gold.Chemscore.DEClash.Weighted>
0.1487

> <Gold.Chemscore.DEInternal.Weighted>
0.5937

> <Gold.Chemscore.Rot.Weighted>
3.7019

> <Gold.Chemscore.Internal.Correction.Weighted>
   9.000000E+99

> <Gold.Protein.RotatedTorsions>
[ 6907 6896 6895 6894 ] final   49.20 input  -60.11 | X-H torsion
[ 7974 7965 7964 7962 ] final  -32.51 input  175.53 | X-H torsion
[ 8008 7997 7996 7995 ] final   18.36 input   59.86 | X-H torsion
[ 10167 10162 10161 10158 ] final  176.01 input  -65.29 | X-H torsion
[ 10718 10713 10712 10709 ] final  163.61 input   66.30 | X-H torsion
[ 10763 10752 10751 10750 ] final   78.26 input  -60.55 | X-H torsion
[ 11005 11000 10999 10996 ] final   22.74 input  -57.11 | X-H torsion

> <Gold.Protein.ActiveResidues>
 VAL166  LYS551  ARG553  GLY616  TRP617  ASP618  TYR619  PRO620  LYS621  CYS622 
 ASP623  PHE694  ASN695  SER759  ASP760  ASP761  ALA762  ILE779  LEU786  VAL792 
 PHE793  MET794  SER795  GLU796  ALA797  LYS798  CYS799  TRP800  GLU811  SER814 

> <Gold.Protein.RotatedAtoms>
  152.2881  134.7753  160.0383 H   0  0  0  0  0  0  0  0  0  0  0  0  # atno 6907 bound_to 6896
  151.8309  133.3403  159.3621 H   0  0  0  0  0  0  0  0  0  0  0  0  # atno 6908 bound_to 6896
  150.7218  134.5413  159.5793 H   0  0  0  0  0  0  0  0  0  0  0  0  # atno 6909 bound_to 6896
  146.0984  140.5801  142.8832 H   0  0  0  0  0  0  0  0  0  0  0  0  # atno 7974 bound_to 7965
  154.9048  140.3006  155.5298 H   0  0  0  0  0  0  0  0  0  0  0  0  # atno 8008 bound_to 7997
  156.3017  140.2400  156.4016 H   0  0  0  0  0  0  0  0  0  0  0  0  # atno 8009 bound_to 7997
  154.8484  140.0410  157.1577 H   0  0  0  0  0  0  0  0  0  0  0  0  # atno 8010 bound_to 7997
  139.5198  144.2965  152.0417 H   0  0  0  0  0  0  0  0  0  0  0  0  # atno 10167 bound_to 10162
  157.1060  131.0455  151.2477 H   0  0  0  0  0  0  0  0  0  0  0  0  # atno 10718 bound_to 10713
  153.0861  135.4883  154.8598 H   0  0  0  0  0  0  0  0  0  0  0  0  # atno 10763 bound_to 10752
  154.7212  135.3040  154.9047 H   0  0  0  0  0  0  0  0  0  0  0  0  # atno 10764 bound_to 10752
  153.9711  135.6801  153.4800 H   0  0  0  0  0  0  0  0  0  0  0  0  # atno 10765 bound_to 10752
  140.3773  134.1959  155.7664 H   0  0  0  0  0  0  0  0  0  0  0  0  # atno 11005 bound_to 11000
  144.7413  140.4950  143.6867 LP  0  0  0  0  0  0  0  0  0  0  0  0  # atno 17320 bound_to 7965
  145.5902  139.1495  143.3186 LP  0  0  0  0  0  0  0  0  0  0  0  0  # atno 17321 bound_to 7965
  140.2414  144.4265  150.6258 LP  0  0  0  0  0  0  0  0  0  0  0  0  # atno 17342 bound_to 10162
  140.6288  143.2184  151.6540 LP  0  0  0  0  0  0  0  0  0  0  0  0  # atno 17343 bound_to 10162
  157.4600  130.7647  149.7227 LP  0  0  0  0  0  0  0  0  0  0  0  0  # atno 17370 bound_to 10713
  155.9862  130.3977  150.3225 LP  0  0  0  0  0  0  0  0  0  0  0  0  # atno 17371 bound_to 10713
  141.1935  133.8149  157.0795 LP  0  0  0  0  0  0  0  0  0  0  0  0  # atno 17394 bound_to 11000
  140.0506  134.9807  157.1129 LP  0  0  0  0  0  0  0  0  0  0  0  0  # atno 17395 bound_to 11000

$$$$
