AV-unprocessed.smi:2906|AV-procd|sdf|11165|dock5
  -GOLD-   2272016 53D 1   1.00000     0.00000
 Structure written by MMmdl.
 39 40  0  0  0  0  0  0  0  0  2 V2000
  146.0711  143.0721  153.7992 C   0  0  0  0  0  0  0  0  0  0  0  0
  147.1780  142.3735  154.6051 C   0  0  0  0  0  0  0  0  0  0  0  0
  147.6542  141.0492  153.9845 C   0  0  0  0  0  0  0  0  0  0  0  0
  147.0150  140.5395  153.0627 O   0  0  0  0  0  0  0  0  0  0  0  0
  148.7727  140.4797  154.4796 N   0  0  0  0  0  0  0  0  0  0  0  0
  149.3590  139.2195  154.0285 C   0  0  0  0  0  0  0  0  0  0  0  0
  150.4598  138.8852  155.0347 C   0  0  0  0  0  0  0  0  0  0  0  0
  150.8469  140.2303  155.6488 C   0  0  2  0  0  0  0  0  0  0  0  0
  151.3006  140.1055  157.0310 N   0  0  0  0  0  0  0  0  0  0  0  0
  152.4054  139.4644  157.4373 C   0  0  0  0  0  0  0  0  0  0  0  0
  153.1372  138.9153  156.6103 O   0  0  0  0  0  0  0  0  0  0  0  0
  152.5914  139.4967  158.7767 N   0  5  0  0  0  0  0  0  0  0  0  0
  152.9321  140.6470  159.3802 C   0  0  0  0  0  0  0  0  0  0  0  0
  152.4843  141.8421  158.9790 N   0  0  0  0  0  0  0  0  0  0  0  0
  152.9564  142.9056  159.7531 C   0  0  0  0  0  0  0  0  0  0  0  0
  152.5527  144.3100  159.4215 C   0  0  0  0  0  0  0  0  0  0  0  0
  152.8467  144.6709  157.9612 C   0  0  0  0  0  0  0  0  0  0  0  0
  153.7783  142.5039  160.7736 C   0  0  0  0  0  0  0  0  0  0  0  0
  153.9834  140.7757  160.7920 S   0  0  0  0  0  0  0  0  0  0  0  0
  149.5650  141.0655  155.5584 C   0  0  0  0  0  0  0  0  0  0  0  0
  145.7627  143.9954  154.2899 H   0  0  0  0  0  0  0  0  0  0  0  0
  145.1876  142.4398  153.7043 H   0  0  0  0  0  0  0  0  0  0  0  0
  146.4110  143.3315  152.7960 H   0  0  0  0  0  0  0  0  0  0  0  0
  148.0315  143.0458  154.6968 H   0  0  0  0  0  0  0  0  0  0  0  0
  146.8131  142.1816  155.6146 H   0  0  0  0  0  0  0  0  0  0  0  0
  148.6246  138.4151  153.9731 H   0  0  0  0  0  0  0  0  0  0  0  0
  149.7859  139.3613  153.0348 H   0  0  0  0  0  0  0  0  0  0  0  0
  150.0518  138.2262  155.8030 H   0  0  0  0  0  0  0  0  0  0  0  0
  151.3067  138.3726  154.5774 H   0  0  0  0  0  0  0  0  0  0  0  0
  151.6168  140.7014  155.0348 H   0  0  0  0  0  0  0  0  0  0  0  0
  150.7303  140.5414  157.7408 H   0  0  0  0  0  0  0  0  0  0  0  0
  151.4890  144.4482  159.6186 H   0  0  0  0  0  0  0  0  0  0  0  0
  153.0711  145.0121  160.0753 H   0  0  0  0  0  0  0  0  0  0  0  0
  152.5468  145.6965  157.7466 H   0  0  0  0  0  0  0  0  0  0  0  0
  152.3063  144.0157  157.2771 H   0  0  0  0  0  0  0  0  0  0  0  0
  153.9107  144.5807  157.7412 H   0  0  0  0  0  0  0  0  0  0  0  0
  154.2742  143.1154  161.5121 H   0  0  0  0  0  0  0  0  0  0  0  0
  149.7933  142.1158  155.3713 H   0  0  0  0  0  0  0  0  0  0  0  0
  148.9867  141.0068  156.4823 H   0  0  0  0  0  0  0  0  0  0  0  0
  1  2  1  0  0  0  0
  1 21  1  0  0  0  0
  1 22  1  0  0  0  0
  1 23  1  0  0  0  0
  2  3  1  0  0  0  0
  2 24  1  0  0  0  0
  2 25  1  0  0  0  0
  3  4  2  0  0  0  0
  3  5  1  0  0  0  0
  5 20  1  0  0  0  0
  5  6  1  0  0  0  0
  6  7  1  0  0  0  0
  6 26  1  0  0  0  0
  6 27  1  0  0  0  0
  7  8  1  0  0  0  0
  7 28  1  0  0  0  0
  7 29  1  0  0  0  0
  8  9  1  0  0  0  0
  8 20  1  0  0  0  0
  8 30  1  0  0  0  0
  9 10  1  0  0  0  0
  9 31  1  0  0  0  0
 10 11  2  0  0  0  0
 10 12  1  0  0  0  0
 12 13  1  0  0  0  0
 13 19  1  0  0  0  0
 13 14  2  0  0  0  0
 14 15  1  0  0  0  0
 15 16  1  0  0  0  0
 15 18  2  0  0  0  0
 16 17  1  0  0  0  0
 16 32  1  0  0  0  0
 16 33  1  0  0  0  0
 17 34  1  0  0  0  0
 17 35  1  0  0  0  0
 17 36  1  0  0  0  0
 18 19  1  0  0  0  0
 18 37  1  0  0  0  0
 20 38  1  0  0  0  0
 20 39  1  0  0  0  0
M  CHG  1  12  -1
M  END
> <s_m_source_file>
AV-unprocessed.smi

> <i_m_source_file_index>
2906

> <i_lp_mmshare_version>
43012

> <i_f3d_flags>
0

> <s_epik_input>
W0NIM11bQ0gyXUMoPU8pTjFbQ0gyXVtDSDJdW0NASF0oW0NIMl0xKVtOSF1DKD1PKVtOSF1jMm5jKFtjSF1zMilbQ0gyXVtDSDNd

> <s_epik_cmdline>
J2VwaWtfcHl0aG9uJywgJy1waCcsICc3LjAnLCAnLXRuJywgJzgnLCAnLW1hJywgJzIwMCcsICctbWV0YWxfYmluZGluZycsICctaW1hZScsICc8aW5maWxlLm1hZT4nLCAnLW9tYWUnLCAnPG91dGZpbGUubWFlPic=

> <r_lp_tautomer_probability>
1

> <r_epik_Ionization_Penalty>
7.20119

> <r_epik_Ionization_Penalty_Charging>
5.87168

> <r_epik_Ionization_Penalty_Neutral>
1.32951

> <r_epik_State_Penalty>
5.87165

> <r_epik_Charging_Adjusted_Penalty>
11.7433

> <i_epik_Tot_Q>
-1

> <i_epik_Tot_abs_Q>
1

> <r_epik_Metal_State_Penalty>
1.83511

> <b_epik_Metal_Only>
1

> <s_lp_Force_Field>
OPLS_2005

> <r_lp_Energy>
18.7216

> <b_lp_Chiralities_Consistent>
1

> <s_lp_Variant>
AV-unprocessed.smi:2906-4

> <Gold.Version>
5.8.1

> <Gold.Id.Protein>
6NUR|6NUR_protein|mol2

> <Gold.PLP.Fitness>
46.9605

> <Gold.PLP.PLP>
-46.0366

> <Gold.PLP.part.hbond>
-1.0000

> <Gold.PLP.part.metal>
0.0000

> <Gold.PLP.part.buried>
-3.6584

> <Gold.PLP.part.nonpolar>
-42.0265

> <Gold.PLP.part.repulsive>
0.6443

> <Gold.PLP.ligand.clash>
0.0000

> <Gold.PLP.ligand.torsion>
1.0751

> <Gold.PLP.Chemscore.Hbond>
1.0000

> <Gold.PLP.Chemscore.CHOScore>
0.0000

> <Gold.PLP.Chemscore.Metal>
0.0000

> <Gold.Chemscore.Hbonds>
donor molecule, donor type, donor heavy atom, donor atom, acceptor molecule, acceptor atom, score
      P1  H  7997  8010       L1    11  0.90

> <Gold.PLP.Chemscore.Internal.Correction>
0.0741

> <Gold.Rescore>
     Score         DG    S(hbond)    S(metal)    S(lipo)     H(rot)  DE(clash)    DE(int)     intcor
     13.13     -15.51       0.99        0.00      87.76       1.39       0.00       2.38       ----

> <Gold.Chemscore.Fitness>
13.1297

> <Gold.Chemscore.DG>
-15.5079

> <Gold.Chemscore.ZeroCoef>
-5.4800

> <Gold.Chemscore.Hbond>
0.9902

> <Gold.Chemscore.Metal>
0.0000

> <Gold.Chemscore.Lipo>
87.7568

> <Gold.Chemscore.Internal_Hbond>
0.0000

> <Gold.Chemscore.DEClash>
0.0004

> <Gold.Chemscore.DEInternal>
2.3778

> <Gold.Chemscore.Rot>
1.3856

> <Gold.Chemscore.Internal.Correction>
   9.000000E+99

> <Gold.Chemscore.Hbonds>
donor molecule, donor type, donor heavy atom, donor atom, acceptor molecule, acceptor atom, score
      P1  H  7997  8010       L1    11  0.18

> <Gold.Chemscore.Hbond.Weighted>
-3.3074

> <Gold.Chemscore.Metal.Weighted>
-0.0000

> <Gold.Chemscore.Lipo.Weighted>
-10.2675

> <Gold.Chemscore.Internal_Hbond.Weighted>
0.0000

> <Gold.Chemscore.DEClash.Weighted>
0.0004

> <Gold.Chemscore.DEInternal.Weighted>
2.3778

> <Gold.Chemscore.Rot.Weighted>
3.5471

> <Gold.Chemscore.Internal.Correction.Weighted>
   9.000000E+99

> <Gold.Protein.RotatedTorsions>
[ 6907 6896 6895 6894 ] final  -31.34 input  -60.11 | X-H torsion
[ 7974 7965 7964 7962 ] final -143.45 input  175.53 | X-H torsion
[ 8008 7997 7996 7995 ] final   61.64 input   59.86 | X-H torsion
[ 10167 10162 10161 10158 ] final -171.35 input  -65.29 | X-H torsion
[ 10718 10713 10712 10709 ] final  125.65 input   66.30 | X-H torsion
[ 10763 10752 10751 10750 ] final  -53.85 input  -60.55 | X-H torsion
[ 11005 11000 10999 10996 ] final  158.30 input  -57.11 | X-H torsion

> <Gold.Protein.ActiveResidues>
 VAL166  LYS551  ARG553  GLY616  TRP617  ASP618  TYR619  PRO620  LYS621  CYS622 
 ASP623  PHE694  ASN695  SER759  ASP760  ASP761  ALA762  ILE779  LEU786  VAL792 
 PHE793  MET794  SER795  GLU796  ALA797  LYS798  CYS799  TRP800  GLU811  SER814 

> <Gold.Protein.RotatedAtoms>
  151.0934  134.9930  159.8413 H   0  0  0  0  0  0  0  0  0  0  0  0  # atno 6907 bound_to 6896
  152.5431  134.2038  159.8732 H   0  0  0  0  0  0  0  0  0  0  0  0  # atno 6908 bound_to 6896
  151.2076  133.4531  159.2631 H   0  0  0  0  0  0  0  0  0  0  0  0  # atno 6909 bound_to 6896
  144.8369  140.5833  143.5478 H   0  0  0  0  0  0  0  0  0  0  0  0  # atno 7974 bound_to 7965
  155.6016  140.3494  155.4595 H   0  0  0  0  0  0  0  0  0  0  0  0  # atno 8008 bound_to 7997
  156.0224  140.1256  157.0368 H   0  0  0  0  0  0  0  0  0  0  0  0  # atno 8009 bound_to 7997
  154.4320  140.1060  156.5969 H   0  0  0  0  0  0  0  0  0  0  0  0  # atno 8010 bound_to 7997
  139.5808  144.1428  152.1512 H   0  0  0  0  0  0  0  0  0  0  0  0  # atno 10167 bound_to 10162
  157.5485  131.1095  150.8741 H   0  0  0  0  0  0  0  0  0  0  0  0  # atno 10718 bound_to 10713
  154.1654  135.6468  153.4996 H   0  0  0  0  0  0  0  0  0  0  0  0  # atno 10763 bound_to 10752
  153.0099  135.5370  154.6668 H   0  0  0  0  0  0  0  0  0  0  0  0  # atno 10764 bound_to 10752
  154.5992  135.2942  155.0525 H   0  0  0  0  0  0  0  0  0  0  0  0  # atno 10765 bound_to 10752
  140.1852  134.8447  157.2849 H   0  0  0  0  0  0  0  0  0  0  0  0  # atno 11005 bound_to 11000
  145.4776  139.1498  143.3779 LP  0  0  0  0  0  0  0  0  0  0  0  0  # atno 17320 bound_to 7965
  146.2666  140.4911  142.8831 LP  0  0  0  0  0  0  0  0  0  0  0  0  # atno 17321 bound_to 7965
  140.0981  144.5563  150.7008 LP  0  0  0  0  0  0  0  0  0  0  0  0  # atno 17342 bound_to 10162
  140.7086  143.2487  151.4650 LP  0  0  0  0  0  0  0  0  0  0  0  0  # atno 17343 bound_to 10162
  156.9273  130.5337  149.5279 LP  0  0  0  0  0  0  0  0  0  0  0  0  # atno 17370 bound_to 10713
  156.0556  130.5618  150.9084 LP  0  0  0  0  0  0  0  0  0  0  0  0  # atno 17371 bound_to 10713
  140.2222  134.4010  155.7560 LP  0  0  0  0  0  0  0  0  0  0  0  0  # atno 17394 bound_to 11000
  141.2224  133.7171  156.8508 LP  0  0  0  0  0  0  0  0  0  0  0  0  # atno 17395 bound_to 11000

$$$$
