AV-unprocessed.smi:1456|AV-procd|sdf|5918|dock1
  -GOLD-   22720 6 03D 1   1.00000     0.00000
 Structure written by MMmdl.
 41 42  0  0  0  0  0  0  0  0  3 V2000
  147.8406  139.1538  155.8463 C   0  0  0  0  0  0  0  0  0  0  0  0
  148.5102  138.6867  154.5346 C   0  0  0  0  0  0  0  0  0  0  0  0
  147.4600  138.8642  153.4203 C   0  0  0  0  0  0  0  0  0  0  0  0
  149.7487  139.5428  154.1620 C   0  0  0  0  0  0  0  0  0  0  0  0
  151.0360  139.1935  154.9252 C   0  0  0  0  0  0  0  0  0  0  0  0
  151.0115  139.7114  156.2907 N   0  0  0  0  0  0  0  0  0  0  0  0
  152.0166  139.6831  157.1764 C   0  0  0  0  0  0  0  0  0  0  0  0
  153.1092  139.2111  156.8556 O   0  0  0  0  0  0  0  0  0  0  0  0
  151.6833  140.1946  158.3823 N   0  5  0  0  0  0  0  0  0  0  0  0
  151.9080  141.4917  158.6469 C   0  0  0  0  0  0  0  0  0  0  0  0
  151.5163  142.4804  157.8354 N   0  0  0  0  0  0  0  0  0  0  0  0
  151.8472  143.7513  158.3095 C   0  0  0  0  0  0  0  0  0  0  0  0
  152.4976  143.7297  159.5149 C   0  0  0  0  0  0  0  0  0  0  0  0
  152.7149  142.1029  160.0943 S   0  0  0  0  0  0  0  0  0  0  0  0
  151.3014  137.6778  154.8461 C   0  0  0  0  0  0  0  0  0  0  0  0
  150.1022  136.7787  155.2391 C   0  0  0  0  0  0  0  0  0  0  0  0
  150.3853  135.3570  154.7156 C   0  0  0  0  0  0  0  0  0  0  0  0
  149.9317  136.6571  156.7700 C   0  0  0  0  0  0  0  0  0  0  0  0
  148.8459  137.2353  154.5801 N   0  3  0  0  0  0  0  0  0  0  0  0
  147.4677  140.1743  155.7492 H   0  0  0  0  0  0  0  0  0  0  0  0
  148.5057  139.1572  156.7033 H   0  0  0  0  0  0  0  0  0  0  0  0
  146.9888  138.5227  156.1020 H   0  0  0  0  0  0  0  0  0  0  0  0
  147.1700  139.9098  153.3088 H   0  0  0  0  0  0  0  0  0  0  0  0
  146.5539  138.2942  153.6303 H   0  0  0  0  0  0  0  0  0  0  0  0
  147.8380  138.5266  152.4544 H   0  0  0  0  0  0  0  0  0  0  0  0
  149.9625  139.4022  153.1011 H   0  0  0  0  0  0  0  0  0  0  0  0
  149.5232  140.6048  154.2711 H   0  0  0  0  0  0  0  0  0  0  0  0
  151.8573  139.7045  154.4192 H   0  0  0  0  0  0  0  0  0  0  0  0
  150.1439  140.1211  156.6044 H   0  0  0  0  0  0  0  0  0  0  0  0
  151.5794  144.6176  157.7233 H   0  0  0  0  0  0  0  0  0  0  0  0
  152.8592  144.5652  160.0949 H   0  0  0  0  0  0  0  0  0  0  0  0
  151.5723  137.4608  153.8117 H   0  0  0  0  0  0  0  0  0  0  0  0
  152.1819  137.4082  155.4308 H   0  0  0  0  0  0  0  0  0  0  0  0
  151.3117  134.9574  155.1302 H   0  0  0  0  0  0  0  0  0  0  0  0
  150.4820  135.3410  153.6293 H   0  0  0  0  0  0  0  0  0  0  0  0
  149.5837  134.6661  154.9804 H   0  0  0  0  0  0  0  0  0  0  0  0
  150.7990  136.1708  157.2185 H   0  0  0  0  0  0  0  0  0  0  0  0
  149.0573  136.0573  157.0249 H   0  0  0  0  0  0  0  0  0  0  0  0
  149.8289  137.6099  157.2782 H   0  0  0  0  0  0  0  0  0  0  0  0
  148.0661  136.7303  154.9762 H   0  0  0  0  0  0  0  0  0  0  0  0
  148.9356  136.9530  153.6148 H   0  0  0  0  0  0  0  0  0  0  0  0
  1  2  1  0  0  0  0
  1 20  1  0  0  0  0
  1 21  1  0  0  0  0
  1 22  1  0  0  0  0
  2 19  1  0  0  0  0
  2  3  1  0  0  0  0
  2  4  1  0  0  0  0
  3 23  1  0  0  0  0
  3 24  1  0  0  0  0
  3 25  1  0  0  0  0
  4  5  1  0  0  0  0
  4 26  1  0  0  0  0
  4 27  1  0  0  0  0
  5  6  1  0  0  0  0
  5 15  1  0  0  0  0
  5 28  1  0  0  0  0
  6  7  1  0  0  0  0
  6 29  1  0  0  0  0
  7  8  2  0  0  0  0
  7  9  1  0  0  0  0
  9 10  1  0  0  0  0
 10 14  1  0  0  0  0
 10 11  2  0  0  0  0
 11 12  1  0  0  0  0
 12 13  2  0  0  0  0
 12 30  1  0  0  0  0
 13 14  1  0  0  0  0
 13 31  1  0  0  0  0
 15 16  1  0  0  0  0
 15 32  1  0  0  0  0
 15 33  1  0  0  0  0
 16 17  1  0  0  0  0
 16 18  1  0  0  0  0
 16 19  1  0  0  0  0
 17 34  1  0  0  0  0
 17 35  1  0  0  0  0
 17 36  1  0  0  0  0
 18 37  1  0  0  0  0
 18 38  1  0  0  0  0
 18 39  1  0  0  0  0
 19 40  1  0  0  0  0
 19 41  1  0  0  0  0
M  CHG  1   9  -1
M  CHG  1  19   1
M  END
> <s_m_source_file>
AV-unprocessed.smi

> <i_m_source_file_index>
1456

> <i_lp_mmshare_version>
43012

> <i_f3d_flags>
0

> <s_epik_input>
W0NIM11DMShbQ0gzXSlbQ0gyXVtDSF0oW0NIMl1DKFtDSDNdKShbQ0gzXSlbTkhdMSlbTkhdQyg9TylbTkhdYzJuW2NIXVtjSF1zMg==

> <s_epik_cmdline>
J2VwaWtfcHl0aG9uJywgJy1waCcsICc3LjAnLCAnLXRuJywgJzgnLCAnLW1hJywgJzIwMCcsICctbWV0YWxfYmluZGluZycsICctaW1hZScsICc8aW5maWxlLm1hZT4nLCAnLW9tYWUnLCAnPG91dGZpbGUubWFlPic=

> <r_lp_tautomer_probability>
1

> <r_epik_Ionization_Penalty>
7.98581

> <r_epik_Ionization_Penalty_Charging>
6.48842

> <r_epik_Ionization_Penalty_Neutral>
1.49739

> <r_epik_State_Penalty>
6.48831

> <r_epik_Charging_Adjusted_Penalty>
12.9767

> <i_epik_Tot_Q>
0

> <i_epik_Tot_abs_Q>
2

> <r_epik_Metal_State_Penalty>
2.41622

> <b_epik_Metal_Only>
1

> <s_lp_Force_Field>
OPLS_2005

> <r_lp_Energy>
15.6093

> <b_lp_Chiralities_Consistent>
1

> <s_lp_Variant>
AV-unprocessed.smi:1456-2

> <Gold.Version>
5.8.1

> <Gold.Id.Protein>
6NUR|6NUR_protein|mol2

> <Gold.PLP.Fitness>
38.4535

> <Gold.PLP.PLP>
-31.8335

> <Gold.PLP.part.hbond>
-1.9706

> <Gold.PLP.part.metal>
0.0000

> <Gold.PLP.part.buried>
-2.2951

> <Gold.PLP.part.nonpolar>
-27.9760

> <Gold.PLP.part.repulsive>
0.1315

> <Gold.PLP.ligand.clash>
0.0000

> <Gold.PLP.ligand.torsion>
1.2063

> <Gold.PLP.Chemscore.Hbond>
3.0000

> <Gold.PLP.Chemscore.CHOScore>
0.0000

> <Gold.PLP.Chemscore.Metal>
0.0000

> <Gold.Chemscore.Hbonds>
donor molecule, donor type, donor heavy atom, donor atom, acceptor molecule, acceptor atom, score
      L1  H    19    41       P1  7948  2.00
      P1  H  7997  8008       L1     8  1.00

> <Gold.PLP.Chemscore.Internal.Correction>
0.0326

> <Gold.Rescore>
     Score         DG    S(hbond)    S(metal)    S(lipo)     H(rot)  DE(clash)    DE(int)     intcor
     17.88     -19.17       1.97        0.00      82.71       1.00       0.10       1.20       ----

> <Gold.Chemscore.Fitness>
17.8766

> <Gold.Chemscore.DG>
-19.1731

> <Gold.Chemscore.ZeroCoef>
-5.4800

> <Gold.Chemscore.Hbond>
1.9690

> <Gold.Chemscore.Metal>
0.0000

> <Gold.Chemscore.Lipo>
82.7067

> <Gold.Chemscore.Internal_Hbond>
0.0000

> <Gold.Chemscore.DEClash>
0.0989

> <Gold.Chemscore.DEInternal>
1.1976

> <Gold.Chemscore.Rot>
1.0000

> <Gold.Chemscore.Internal.Correction>
   9.000000E+99

> <Gold.Chemscore.Hbonds>
donor molecule, donor type, donor heavy atom, donor atom, acceptor molecule, acceptor atom, score
      L1  H    19    41       P1  7948  1.00
      P1  H  7997  8008       L1     8  0.96

> <Gold.Chemscore.Hbond.Weighted>
-6.5764

> <Gold.Chemscore.Metal.Weighted>
-0.0000

> <Gold.Chemscore.Lipo.Weighted>
-9.6767

> <Gold.Chemscore.Internal_Hbond.Weighted>
0.0000

> <Gold.Chemscore.DEClash.Weighted>
0.0989

> <Gold.Chemscore.DEInternal.Weighted>
1.1976

> <Gold.Chemscore.Rot.Weighted>
2.5600

> <Gold.Chemscore.Internal.Correction.Weighted>
   9.000000E+99

> <Gold.Protein.RotatedTorsions>
[ 6907 6896 6895 6894 ] final  -83.50 input  -60.11 | X-H torsion
[ 7974 7965 7964 7962 ] final   73.83 input  175.53 | X-H torsion
[ 8008 7997 7996 7995 ] final  -65.78 input   59.86 | X-H torsion
[ 10167 10162 10161 10158 ] final  -87.46 input  -65.29 | X-H torsion
[ 10718 10713 10712 10709 ] final  -23.42 input   66.30 | X-H torsion
[ 10763 10752 10751 10750 ] final  116.16 input  -60.55 | X-H torsion
[ 11005 11000 10999 10996 ] final  132.00 input  -57.11 | X-H torsion

> <Gold.Protein.ActiveResidues>
 VAL166  LYS551  ARG553  GLY616  TRP617  ASP618  TYR619  PRO620  LYS621  CYS622 
 ASP623  PHE694  ASN695  SER759  ASP760  ASP761  ALA762  ILE779  LEU786  VAL792 
 PHE793  MET794  SER795  GLU796  ALA797  LYS798  CYS799  TRP800  GLU811  SER814 

> <Gold.Protein.RotatedAtoms>
  150.6885  134.3502  159.4905 H   0  0  0  0  0  0  0  0  0  0  0  0  # atno 6907 bound_to 6896
  152.1344  134.9108  160.0566 H   0  0  0  0  0  0  0  0  0  0  0  0  # atno 6908 bound_to 6896
  152.0265  133.3885  159.4316 H   0  0  0  0  0  0  0  0  0  0  0  0  # atno 6909 bound_to 6896
  145.7360  139.2702  143.1514 H   0  0  0  0  0  0  0  0  0  0  0  0  # atno 7974 bound_to 7965
  154.4693  140.0926  156.7103 H   0  0  0  0  0  0  0  0  0  0  0  0  # atno 8008 bound_to 7997
  155.4769  140.3466  155.4315 H   0  0  0  0  0  0  0  0  0  0  0  0  # atno 8009 bound_to 7997
  156.1011  140.1422  156.9454 H   0  0  0  0  0  0  0  0  0  0  0  0  # atno 8010 bound_to 7997
  140.3842  143.2734  151.9345 H   0  0  0  0  0  0  0  0  0  0  0  0  # atno 10167 bound_to 10162
  156.4913  130.4567  149.6754 H   0  0  0  0  0  0  0  0  0  0  0  0  # atno 10718 bound_to 10713
  153.5330  135.3574  155.2684 H   0  0  0  0  0  0  0  0  0  0  0  0  # atno 10763 bound_to 10752
  154.8725  135.4073  154.3130 H   0  0  0  0  0  0  0  0  0  0  0  0  # atno 10764 bound_to 10752
  153.3822  135.7068  153.6624 H   0  0  0  0  0  0  0  0  0  0  0  0  # atno 10765 bound_to 10752
  139.9764  134.9562  156.9520 H   0  0  0  0  0  0  0  0  0  0  0  0  # atno 11005 bound_to 11000
  146.0493  140.8086  142.9789 LP  0  0  0  0  0  0  0  0  0  0  0  0  # atno 17320 bound_to 7965
  144.6882  140.3028  143.7260 LP  0  0  0  0  0  0  0  0  0  0  0  0  # atno 17321 bound_to 7965
  139.4793  144.5789  151.7965 LP  0  0  0  0  0  0  0  0  0  0  0  0  # atno 17342 bound_to 10162
  140.4906  144.1316  150.5949 LP  0  0  0  0  0  0  0  0  0  0  0  0  # atno 17343 bound_to 10162
  156.3423  130.7389  151.2336 LP  0  0  0  0  0  0  0  0  0  0  0  0  # atno 17370 bound_to 10713
  157.7473  131.0400  150.4577 LP  0  0  0  0  0  0  0  0  0  0  0  0  # atno 17371 bound_to 10713
  140.5186  134.0930  155.7286 LP  0  0  0  0  0  0  0  0  0  0  0  0  # atno 17394 bound_to 11000
  141.1440  133.9087  157.2258 LP  0  0  0  0  0  0  0  0  0  0  0  0  # atno 17395 bound_to 11000

$$$$
