AV-unprocessed.smi:2235|AV-procd|sdf|9044|dock5
  -GOLD-   2272012253D 1   1.00000     0.00000
 Structure written by MMmdl.
 36 37  0  0  0  0  0  0  0  0  1 V2000
  152.9347  140.2673  157.9982 O   0  0  0  0  0  0  0  0  0  0  0  0
  151.7817  140.6854  158.1038 C   0  0  0  0  0  0  0  0  0  0  0  0
  150.6017  139.7508  157.8359 C   0  0  0  0  0  0  0  0  0  0  0  0
  150.0956  139.9201  156.4857 N   0  0  0  0  0  0  0  0  0  0  0  0
  149.0579  140.7191  156.0534 C   0  0  0  0  0  0  0  0  0  0  0  0
  148.9451  140.5522  154.7020 C   0  0  0  0  0  0  0  0  0  0  0  0
  147.9730  141.1952  153.7520 C   0  0  0  0  0  0  0  0  0  0  0  0
  147.0818  140.1529  153.0631 C   0  0  0  0  0  0  0  0  0  0  0  0
  145.9996  139.8150  153.9038 O   0  0  0  0  0  0  0  0  0  0  0  0
  149.9751  139.6174  154.3976 C   0  0  0  0  0  0  0  0  0  0  0  0
  150.6611  139.2411  155.4645 N   0  0  0  0  0  0  0  0  0  0  0  0
  151.4800  141.9473  158.4463 N   0  0  0  0  0  0  0  0  0  0  0  0
  152.4555  142.9923  158.7429 C   0  0  0  0  0  0  0  0  0  0  0  0
  152.5109  143.2656  160.2566 C   0  0  0  0  0  0  0  0  0  0  0  0
  151.8254  144.6162  160.4631 C   0  0  0  0  0  0  0  0  0  0  0  0
  152.1352  145.3885  159.1848 C   0  0  0  0  0  0  0  0  0  0  0  0
  152.0765  144.3331  158.0788 C   0  0  0  0  0  0  0  0  0  0  0  0
  150.9016  138.7128  157.9896 H   0  0  0  0  0  0  0  0  0  0  0  0
  149.7948  139.9581  158.5400 H   0  0  0  0  0  0  0  0  0  0  0  0
  148.4920  141.3346  156.7373 H   0  0  0  0  0  0  0  0  0  0  0  0
  147.3450  141.9138  154.2800 H   0  0  0  0  0  0  0  0  0  0  0  0
  148.5062  141.7692  152.9929 H   0  0  0  0  0  0  0  0  0  0  0  0
  146.6916  140.5408  152.1216 H   0  0  0  0  0  0  0  0  0  0  0  0
  147.6491  139.2499  152.8351 H   0  0  0  0  0  0  0  0  0  0  0  0
  145.2278  140.2651  153.5959 H   0  0  0  0  0  0  0  0  0  0  0  0
  150.2425  139.2031  153.4367 H   0  0  0  0  0  0  0  0  0  0  0  0
  150.5042  142.1999  158.5116 H   0  0  0  0  0  0  0  0  0  0  0  0
  153.4431  142.6698  158.4077 H   0  0  0  0  0  0  0  0  0  0  0  0
  152.0565  142.4770  160.8579 H   0  0  0  0  0  0  0  0  0  0  0  0
  153.5534  143.3440  160.5685 H   0  0  0  0  0  0  0  0  0  0  0  0
  150.7479  144.4725  160.5543 H   0  0  0  0  0  0  0  0  0  0  0  0
  152.1716  145.1304  161.3602 H   0  0  0  0  0  0  0  0  0  0  0  0
  151.4438  146.2139  159.0138 H   0  0  0  0  0  0  0  0  0  0  0  0
  153.1423  145.8037  159.2433 H   0  0  0  0  0  0  0  0  0  0  0  0
  152.7378  144.5795  157.2476 H   0  0  0  0  0  0  0  0  0  0  0  0
  151.0617  144.2932  157.6795 H   0  0  0  0  0  0  0  0  0  0  0  0
  1  2  2  0  0  0  0
  2  3  1  0  0  0  0
  2 12  1  0  0  0  0
  3  4  1  0  0  0  0
  3 18  1  0  0  0  0
  3 19  1  0  0  0  0
  4 11  1  0  0  0  0
  4  5  1  0  0  0  0
  5  6  2  0  0  0  0
  5 20  1  0  0  0  0
  6  7  1  0  0  0  0
  6 10  1  0  0  0  0
  7  8  1  0  0  0  0
  7 21  1  0  0  0  0
  7 22  1  0  0  0  0
  8  9  1  0  0  0  0
  8 23  1  0  0  0  0
  8 24  1  0  0  0  0
  9 25  1  0  0  0  0
 10 11  2  0  0  0  0
 10 26  1  0  0  0  0
 12 13  1  0  0  0  0
 12 27  1  0  0  0  0
 13 17  1  0  0  0  0
 13 14  1  0  0  0  0
 13 28  1  0  0  0  0
 14 15  1  0  0  0  0
 14 29  1  0  0  0  0
 14 30  1  0  0  0  0
 15 16  1  0  0  0  0
 15 31  1  0  0  0  0
 15 32  1  0  0  0  0
 16 17  1  0  0  0  0
 16 33  1  0  0  0  0
 16 34  1  0  0  0  0
 17 35  1  0  0  0  0
 17 36  1  0  0  0  0
M  END
> <s_m_source_file>
AV-unprocessed.smi

> <i_m_source_file_index>
2235

> <i_lp_mmshare_version>
43012

> <i_f3d_flags>
0

> <s_epik_input>
W0NIMl0xW0NIMl1bQ0gyXVtDSDJdW0NIXTFbTkhdQyg9TylbQ0gyXW4yW2NIXWMoW2NIXW4yKVtDSDJdW0NIMl1bT0hd

> <s_epik_cmdline>
J2VwaWtfcHl0aG9uJywgJy1waCcsICc3LjAnLCAnLXRuJywgJzgnLCAnLW1hJywgJzIwMCcsICctbWV0YWxfYmluZGluZycsICctaW1hZScsICc8aW5maWxlLm1hZT4nLCAnLW9tYWUnLCAnPG91dGZpbGUubWFlPic=

> <r_lp_tautomer_probability>
1

> <r_epik_Ionization_Penalty>
3.35381e-05

> <r_epik_Ionization_Penalty_Charging>
0

> <r_epik_Ionization_Penalty_Neutral>
3.35381e-05

> <r_epik_State_Penalty>
-0

> <r_epik_Charging_Adjusted_Penalty>
0

> <i_epik_Tot_Q>
0

> <i_epik_Tot_abs_Q>
0

> <r_epik_Metal_State_Penalty>
-0

> <b_epik_Metal_Only>
0

> <s_lp_Force_Field>
OPLS_2005

> <r_lp_Energy>
18.0157

> <b_lp_Chiralities_Consistent>
1

> <s_lp_Variant>
AV-unprocessed.smi:2235-1

> <Gold.Version>
5.8.1

> <Gold.Id.Protein>
6NUR|6NUR_protein|mol2

> <Gold.PLP.Fitness>
45.3736

> <Gold.PLP.PLP>
-38.5586

> <Gold.PLP.part.hbond>
-2.0000

> <Gold.PLP.part.metal>
0.0000

> <Gold.PLP.part.buried>
-2.5910

> <Gold.PLP.part.nonpolar>
-33.3624

> <Gold.PLP.part.repulsive>
0.1002

> <Gold.PLP.ligand.clash>
0.0000

> <Gold.PLP.ligand.torsion>
0.9870

> <Gold.PLP.Chemscore.Hbond>
1.9280

> <Gold.PLP.Chemscore.CHOScore>
0.9876

> <Gold.PLP.Chemscore.Metal>
0.0000

> <Gold.Chemscore.Hbonds>
donor molecule, donor type, donor heavy atom, donor atom, acceptor molecule, acceptor atom, score
      L1  H     9    25       P1 10175  1.00
      P1  H  7997  8008       L1     1  0.91
      L1  C    10    26       P1  7957  0.98

> <Gold.PLP.Chemscore.Internal.Correction>
0.0423

> <Gold.Rescore>
     Score         DG    S(hbond)    S(metal)    S(lipo)     H(rot)  DE(clash)    DE(int)     intcor
     16.87     -17.77       1.96        0.00     102.98       2.46       0.04       0.86       ----

> <Gold.Chemscore.Fitness>
16.8718

> <Gold.Chemscore.DG>
-17.7686

> <Gold.Chemscore.ZeroCoef>
-5.4800

> <Gold.Chemscore.Hbond>
1.9560

> <Gold.Chemscore.Metal>
0.0000

> <Gold.Chemscore.Lipo>
102.9768

> <Gold.Chemscore.Internal_Hbond>
0.0000

> <Gold.Chemscore.DEClash>
0.0392

> <Gold.Chemscore.DEInternal>
0.8576

> <Gold.Chemscore.Rot>
2.4581

> <Gold.Chemscore.Internal.Correction>
   9.000000E+99

> <Gold.Chemscore.Hbonds>
donor molecule, donor type, donor heavy atom, donor atom, acceptor molecule, acceptor atom, score
      L1  H     9    25       P1 10175  0.98
      P1  H  7997  8008       L1     1  0.89

> <Gold.Chemscore.Hbond.Weighted>
-6.5332

> <Gold.Chemscore.Metal.Weighted>
-0.0000

> <Gold.Chemscore.Lipo.Weighted>
-12.0483

> <Gold.Chemscore.Internal_Hbond.Weighted>
0.0000

> <Gold.Chemscore.DEClash.Weighted>
0.0392

> <Gold.Chemscore.DEInternal.Weighted>
0.8576

> <Gold.Chemscore.Rot.Weighted>
6.2928

> <Gold.Chemscore.Internal.Correction.Weighted>
   9.000000E+99

> <Gold.Protein.RotatedTorsions>
[ 6907 6896 6895 6894 ] final -178.69 input  -60.11 | X-H torsion
[ 7974 7965 7964 7962 ] final   71.82 input  175.53 | X-H torsion
[ 8008 7997 7996 7995 ] final  -85.08 input   59.86 | X-H torsion
[ 10167 10162 10161 10158 ] final  -72.02 input  -65.29 | X-H torsion
[ 10718 10713 10712 10709 ] final   59.45 input   66.30 | X-H torsion
[ 10763 10752 10751 10750 ] final  122.43 input  -60.55 | X-H torsion
[ 11005 11000 10999 10996 ] final  126.05 input  -57.11 | X-H torsion

> <Gold.Protein.ActiveResidues>
 VAL166  LYS551  ARG553  GLY616  TRP617  ASP618  TYR619  PRO620  LYS621  CYS622 
 ASP623  PHE694  ASN695  SER759  ASP760  ASP761  ALA762  ILE779  LEU786  VAL792 
 PHE793  MET794  SER795  GLU796  ALA797  LYS798  CYS799  TRP800  GLU811  SER814 

> <Gold.Protein.RotatedAtoms>
  151.6413  133.3326  159.3130 H   0  0  0  0  0  0  0  0  0  0  0  0  # atno 6907 bound_to 6896
  150.8007  134.7102  159.6609 H   0  0  0  0  0  0  0  0  0  0  0  0  # atno 6908 bound_to 6896
  152.4098  134.6148  160.0086 H   0  0  0  0  0  0  0  0  0  0  0  0  # atno 6909 bound_to 6896
  145.7611  139.2801  143.1376 H   0  0  0  0  0  0  0  0  0  0  0  0  # atno 7974 bound_to 7965
  154.6368  140.0596  156.9798 H   0  0  0  0  0  0  0  0  0  0  0  0  # atno 8008 bound_to 7997
  155.1579  140.3280  155.4399 H   0  0  0  0  0  0  0  0  0  0  0  0  # atno 8009 bound_to 7997
  156.2511  140.1936  156.6687 H   0  0  0  0  0  0  0  0  0  0  0  0  # atno 8010 bound_to 7997
  140.5226  143.2330  151.7403 H   0  0  0  0  0  0  0  0  0  0  0  0  # atno 10167 bound_to 10162
  157.5676  130.8883  149.9214 H   0  0  0  0  0  0  0  0  0  0  0  0  # atno 10718 bound_to 10713
  153.6297  135.3398  155.3038 H   0  0  0  0  0  0  0  0  0  0  0  0  # atno 10763 bound_to 10752
  154.8583  135.4292  154.2119 H   0  0  0  0  0  0  0  0  0  0  0  0  # atno 10764 bound_to 10752
  153.3011  135.7024  153.7275 H   0  0  0  0  0  0  0  0  0  0  0  0  # atno 10765 bound_to 10752
  139.9437  134.9632  156.8649 H   0  0  0  0  0  0  0  0  0  0  0  0  # atno 11005 bound_to 11000
  146.0263  140.8300  142.9898 LP  0  0  0  0  0  0  0  0  0  0  0  0  # atno 17320 bound_to 7965
  144.6830  140.2703  143.7307 LP  0  0  0  0  0  0  0  0  0  0  0  0  # atno 17321 bound_to 7965
  139.4928  144.4233  151.9954 LP  0  0  0  0  0  0  0  0  0  0  0  0  # atno 17342 bound_to 10162
  140.3330  144.3294  150.5983 LP  0  0  0  0  0  0  0  0  0  0  0  0  # atno 17343 bound_to 10162
  156.0724  130.3683  150.0749 LP  0  0  0  0  0  0  0  0  0  0  0  0  # atno 17370 bound_to 10713
  156.8905  130.9587  151.3589 LP  0  0  0  0  0  0  0  0  0  0  0  0  # atno 17371 bound_to 10713
  140.5889  134.0281  155.7492 LP  0  0  0  0  0  0  0  0  0  0  0  0  # atno 17394 bound_to 11000
  141.1080  133.9663  157.2962 LP  0  0  0  0  0  0  0  0  0  0  0  0  # atno 17395 bound_to 11000

$$$$
