AV-unprocessed.smi:283|AV-procd|sdf|2132|dock6
  -GOLD-   2262021443D 1   1.00000     0.00000
 Structure written by MMmdl.
 48 51  0  0  0  0  0  0  0  0  1 V2000
  147.7439  141.7404  153.5988 C   0  0  0  0  0  0  0  0  0  0  0  0
  147.9018  140.3453  154.2175 C   0  0  1  0  0  0  0  0  0  0  0  0
  147.7232  139.3235  153.1871 N   0  0  0  0  0  0  0  0  0  0  0  0
  147.4540  138.0452  153.5331 C   0  0  0  0  0  0  0  0  0  0  0  0
  147.9516  137.6400  154.7255 N   0  0  0  0  0  0  0  0  0  0  0  0
  147.7028  136.4054  155.1702 C   0  0  0  0  0  0  0  0  0  0  0  0
  146.9959  135.4364  154.5870 N   0  0  0  0  0  0  0  0  0  0  0  0
  146.5078  135.8277  153.3744 C   0  0  0  0  0  0  0  0  0  0  0  0
  146.6943  137.1064  152.7749 C   0  0  0  0  0  0  0  0  0  0  0  0
  146.0618  137.1299  151.5375 N   0  0  0  0  0  0  0  0  0  0  0  0
  145.5211  135.9481  151.4264 C   0  0  0  0  0  0  0  0  0  0  0  0
  145.7339  135.1015  152.4896 N   0  0  0  0  0  0  0  0  0  0  0  0
  145.2263  133.7015  152.6447 C   0  0  1  0  0  0  0  0  0  0  0  0
  144.2406  133.4455  151.6893 O   0  0  0  0  0  0  0  0  0  0  0  0
  144.3654  132.1190  151.1699 C   0  0  1  0  0  0  0  0  0  0  0  0
  144.6332  132.2279  149.6548 C   0  0  0  0  0  0  0  0  0  0  0  0
  143.4376  132.0572  148.9224 O   0  0  0  0  0  0  0  0  0  0  0  0
  145.4791  131.4654  152.0100 C   0  0  1  0  0  0  0  0  0  0  0  0
  146.2339  130.4584  151.3622 O   0  0  0  0  0  0  0  0  0  0  0  0
  146.3212  132.6417  152.4746 C   0  0  1  0  0  0  0  0  0  0  0  0
  147.3249  133.0100  151.5422 O   0  0  0  0  0  0  0  0  0  0  0  0
  149.2222  140.2505  154.9888 C   0  0  0  0  0  0  0  0  0  0  0  0
  150.2332  139.3657  154.5456 C   0  0  0  0  0  0  0  0  0  0  0  0
  151.4474  139.2516  155.2475 C   0  0  0  0  0  0  0  0  0  0  0  0
  151.6694  140.0298  156.3976 C   0  0  0  0  0  0  0  0  0  0  0  0
  150.6788  140.9267  156.8378 C   0  0  0  0  0  0  0  0  0  0  0  0
  149.4610  141.0454  156.1384 C   0  0  0  0  0  0  0  0  0  0  0  0
  148.2878  142.1757  156.7184 Cl  0  0  0  0  0  0  0  0  0  0  0  0
  144.7711  133.6748  153.6359 H   0  0  0  0  0  0  0  0  0  0  0  0
  143.4187  131.6013  151.3308 H   0  0  0  0  0  0  0  0  0  0  0  0
  145.0145  131.0139  152.8878 H   0  0  0  0  0  0  0  0  0  0  0  0
  146.7988  132.4505  153.4359 H   0  0  0  0  0  0  0  0  0  0  0  0
  147.7853  142.5150  154.3651 H   0  0  0  0  0  0  0  0  0  0  0  0
  146.7865  141.8373  153.0859 H   0  0  0  0  0  0  0  0  0  0  0  0
  148.5330  141.9461  152.8749 H   0  0  0  0  0  0  0  0  0  0  0  0
  147.0733  140.2177  154.9117 H   0  0  0  0  0  0  0  0  0  0  0  0
  148.1423  139.5515  152.2973 H   0  0  0  0  0  0  0  0  0  0  0  0
  148.1261  136.1600  156.1330 H   0  0  0  0  0  0  0  0  0  0  0  0
  144.9427  135.6618  150.5601 H   0  0  0  0  0  0  0  0  0  0  0  0
  145.0203  133.2194  149.4180 H   0  0  0  0  0  0  0  0  0  0  0  0
  145.3808  131.5080  149.3226 H   0  0  0  0  0  0  0  0  0  0  0  0
  143.5828  132.3570  148.0377 H   0  0  0  0  0  0  0  0  0  0  0  0
  147.0606  130.8335  151.0979 H   0  0  0  0  0  0  0  0  0  0  0  0
  147.8544  132.2491  151.3573 H   0  0  0  0  0  0  0  0  0  0  0  0
  150.0799  138.7616  153.6634 H   0  0  0  0  0  0  0  0  0  0  0  0
  152.2079  138.5666  154.9027 H   0  0  0  0  0  0  0  0  0  0  0  0
  152.6002  139.9429  156.9384 H   0  0  0  0  0  0  0  0  0  0  0  0
  150.8561  141.5284  157.7170 H   0  0  0  0  0  0  0  0  0  0  0  0
  1  2  1  0  0  0  0
  1 33  1  0  0  0  0
  1 34  1  0  0  0  0
  1 35  1  0  0  0  0
  2  3  1  0  0  0  0
  2 22  1  0  0  0  0
  2 36  1  0  0  0  0
  3  4  1  0  0  0  0
  3 37  1  0  0  0  0
  4  9  1  0  0  0  0
  4  5  2  0  0  0  0
  5  6  1  0  0  0  0
  6  7  2  0  0  0  0
  6 38  1  0  0  0  0
  7  8  1  0  0  0  0
  8 12  1  0  0  0  0
  8  9  2  0  0  0  0
  9 10  1  0  0  0  0
 10 11  2  0  0  0  0
 11 12  1  0  0  0  0
 11 39  1  0  0  0  0
 12 13  1  0  0  0  0
 13 29  1  0  0  0  0
 13 20  1  0  0  0  0
 13 14  1  0  0  0  0
 14 15  1  0  0  0  0
 15 30  1  0  0  0  0
 15 16  1  0  0  0  0
 15 18  1  0  0  0  0
 16 17  1  0  0  0  0
 16 40  1  0  0  0  0
 16 41  1  0  0  0  0
 17 42  1  0  0  0  0
 18 31  1  0  0  0  0
 18 19  1  0  0  0  0
 18 20  1  0  0  0  0
 19 43  1  0  0  0  0
 20 32  1  0  0  0  0
 20 21  1  0  0  0  0
 21 44  1  0  0  0  0
 22 27  1  0  0  0  0
 22 23  2  0  0  0  0
 23 24  1  0  0  0  0
 23 45  1  0  0  0  0
 24 25  2  0  0  0  0
 24 46  1  0  0  0  0
 25 26  1  0  0  0  0
 25 47  1  0  0  0  0
 26 27  2  0  0  0  0
 26 48  1  0  0  0  0
 27 28  1  0  0  0  0
M  END
> <s_m_source_file>
AV-unprocessed.smi

> <i_m_source_file_index>
283

> <i_lp_mmshare_version>
43012

> <i_f3d_flags>
0

> <s_epik_input>
Q2xjMVtjSF1bY0hdW2NIXVtjSF1jMVtDQEhdKFtDSDNdKVtOSF1jKG5bY0hdbjIpYyhjMjMpbltjSF1uM1tDQEBIXTRPW0NASF0oW0NIMl1bT0hdKVtDQEBIXShbT0hdKVtDQEhdNFtPSF0=

> <s_epik_cmdline>
J2VwaWtfcHl0aG9uJywgJy1waCcsICc3LjAnLCAnLXRuJywgJzgnLCAnLW1hJywgJzIwMCcsICctbWV0YWxfYmluZGluZycsICctaW1hZScsICc8aW5maWxlLm1hZT4nLCAnLW9tYWUnLCAnPG91dGZpbGUubWFlPic=

> <r_lp_tautomer_probability>
1

> <r_epik_Ionization_Penalty>
0.000266407

> <r_epik_Ionization_Penalty_Charging>
0

> <r_epik_Ionization_Penalty_Neutral>
0.000266407

> <r_epik_State_Penalty>
-0

> <r_epik_Charging_Adjusted_Penalty>
0

> <i_epik_Tot_Q>
0

> <i_epik_Tot_abs_Q>
0

> <r_epik_Metal_State_Penalty>
-0

> <b_epik_Metal_Only>
0

> <s_epik_Chemistry_Notes>
This compound contains an acetal/aminal-like group ( X-CH(R)-Y where X, Y are N, S, or O) that may be acid/base labile, releasing an aldehyde.

> <s_lp_Force_Field>
OPLS_2005

> <r_lp_Energy>
55.3457

> <b_lp_Chiralities_Consistent>
1

> <s_lp_Variant>
AV-unprocessed.smi:283-8

> <Gold.Version>
5.8.1

> <Gold.Id.Protein>
6NUR|6NUR_protein|mol2

> <Gold.PLP.Fitness>
47.5243

> <Gold.PLP.PLP>
-38.0864

> <Gold.PLP.part.hbond>
-5.5311

> <Gold.PLP.part.metal>
0.0000

> <Gold.PLP.part.buried>
2.0546

> <Gold.PLP.part.nonpolar>
-34.6461

> <Gold.PLP.part.repulsive>
0.7189

> <Gold.PLP.ligand.clash>
0.0000

> <Gold.PLP.ligand.torsion>
1.3019

> <Gold.PLP.Chemscore.Hbond>
3.9833

> <Gold.PLP.Chemscore.CHOScore>
0.0000

> <Gold.PLP.Chemscore.Metal>
0.0000

> <Gold.Chemscore.Hbonds>
donor molecule, donor type, donor heavy atom, donor atom, acceptor molecule, acceptor atom, score
      L1  H     3    37       P1  7957  1.00
      L1  H    19    43       P1 10747  0.88
      L1  H    21    44       P1 10747  0.86
      P1  H 10785 10796       L1    17  0.90

> <Gold.PLP.Chemscore.Internal.Correction>
0.0920

> <Gold.Rescore>
     Score         DG    S(hbond)    S(metal)    S(lipo)     H(rot)  DE(clash)    DE(int)     intcor
     10.25     -17.52       3.59        0.00      90.15       4.10       4.55       2.72       ----

> <Gold.Chemscore.Fitness>
10.2509

> <Gold.Chemscore.DG>
-17.5170

> <Gold.Chemscore.ZeroCoef>
-5.4800

> <Gold.Chemscore.Hbond>
3.5861

> <Gold.Chemscore.Metal>
0.0000

> <Gold.Chemscore.Lipo>
90.1474

> <Gold.Chemscore.Internal_Hbond>
0.0000

> <Gold.Chemscore.DEClash>
4.5456

> <Gold.Chemscore.DEInternal>
2.7204

> <Gold.Chemscore.Rot>
4.0968

> <Gold.Chemscore.Internal.Correction>
   9.000000E+99

> <Gold.Chemscore.Hbonds>
donor molecule, donor type, donor heavy atom, donor atom, acceptor molecule, acceptor atom, score
      L1  H     3    37       P1  7957  0.98
      L1  H    19    43       P1 10747  0.84
      L1  H    21    44       P1 10747  0.84
      P1  H 10785 10796       L1    17  0.22

> <Gold.Chemscore.Hbond.Weighted>
-11.9777

> <Gold.Chemscore.Metal.Weighted>
-0.0000

> <Gold.Chemscore.Lipo.Weighted>
-10.5472

> <Gold.Chemscore.Internal_Hbond.Weighted>
0.0000

> <Gold.Chemscore.DEClash.Weighted>
4.5456

> <Gold.Chemscore.DEInternal.Weighted>
2.7204

> <Gold.Chemscore.Rot.Weighted>
10.4879

> <Gold.Chemscore.Internal.Correction.Weighted>
   9.000000E+99

> <Gold.Protein.RotatedTorsions>
[ 6907 6896 6895 6894 ] final  169.02 input  -60.11 | X-H torsion
[ 7974 7965 7964 7962 ] final  -69.61 input  175.53 | X-H torsion
[ 8008 7997 7996 7995 ] final   85.07 input   59.86 | X-H torsion
[ 10167 10162 10161 10158 ] final -104.34 input  -65.29 | X-H torsion
[ 10718 10713 10712 10709 ] final  -93.36 input   66.30 | X-H torsion
[ 10763 10752 10751 10750 ] final  -48.31 input  -60.55 | X-H torsion
[ 11005 11000 10999 10996 ] final   88.28 input  -57.11 | X-H torsion

> <Gold.Protein.ActiveResidues>
 VAL166  LYS551  ARG553  GLY616  TRP617  ASP618  TYR619  PRO620  LYS621  CYS622 
 ASP623  PHE694  ASN695  SER759  ASP760  ASP761  ALA762  ILE779  LEU786  VAL792 
 PHE793  MET794  SER795  GLU796  ALA797  LYS798  CYS799  TRP800  GLU811  SER814 

> <Gold.Protein.RotatedAtoms>
  151.8385  133.3420  159.3635 H   0  0  0  0  0  0  0  0  0  0  0  0  # atno 6907 bound_to 6896
  150.7242  134.5414  159.5758 H   0  0  0  0  0  0  0  0  0  0  0  0  # atno 6908 bound_to 6896
  152.2882  134.7752  160.0434 H   0  0  0  0  0  0  0  0  0  0  0  0  # atno 6909 bound_to 6896
  145.7015  140.9114  143.0728 H   0  0  0  0  0  0  0  0  0  0  0  0  # atno 7974 bound_to 7965
  155.9452  140.3405  155.6361 H   0  0  0  0  0  0  0  0  0  0  0  0  # atno 8008 bound_to 7997
  155.6989  140.0758  157.2437 H   0  0  0  0  0  0  0  0  0  0  0  0  # atno 8009 bound_to 7997
  154.4110  140.1643  156.2156 H   0  0  0  0  0  0  0  0  0  0  0  0  # atno 8010 bound_to 7997
  140.2103  143.3752  152.1056 H   0  0  0  0  0  0  0  0  0  0  0  0  # atno 10167 bound_to 10162
  156.0012  130.5024  150.5764 H   0  0  0  0  0  0  0  0  0  0  0  0  # atno 10718 bound_to 10713
  154.0758  135.6598  153.4830 H   0  0  0  0  0  0  0  0  0  0  0  0  # atno 10763 bound_to 10752
  153.0374  135.5168  154.7523 H   0  0  0  0  0  0  0  0  0  0  0  0  # atno 10764 bound_to 10752
  154.6602  135.3014  154.9844 H   0  0  0  0  0  0  0  0  0  0  0  0  # atno 10765 bound_to 10752
  139.8900  134.8478  156.2979 H   0  0  0  0  0  0  0  0  0  0  0  0  # atno 11005 bound_to 11000
  144.6967  139.8954  143.7455 LP  0  0  0  0  0  0  0  0  0  0  0  0  # atno 17320 bound_to 7965
  146.0793  139.3781  143.0474 LP  0  0  0  0  0  0  0  0  0  0  0  0  # atno 17321 bound_to 7965
  139.5182  144.7003  151.5512 LP  0  0  0  0  0  0  0  0  0  0  0  0  # atno 17342 bound_to 10162
  140.6328  143.9042  150.6621 LP  0  0  0  0  0  0  0  0  0  0  0  0  # atno 17343 bound_to 10162
  157.3651  131.0756  151.1604 LP  0  0  0  0  0  0  0  0  0  0  0  0  # atno 17370 bound_to 10713
  157.2376  130.6554  149.5876 LP  0  0  0  0  0  0  0  0  0  0  0  0  # atno 17371 bound_to 10713
  140.9933  133.7195  156.0847 LP  0  0  0  0  0  0  0  0  0  0  0  0  # atno 17394 bound_to 11000
  140.7596  134.3954  157.5528 LP  0  0  0  0  0  0  0  0  0  0  0  0  # atno 17395 bound_to 11000

$$$$
