AV-unprocessed.smi:739|AV-procd|sdf|3543|dock7
  -GOLD-   22720 0533D 1   1.00000     0.00000
 Structure written by MMmdl.
 32 34  0  0  0  0  0  0  0  0  1 V2000
  151.5739  140.5813  157.6159 O   0  0  0  0  0  0  0  0  0  0  0  0
  150.5147  141.5030  157.4580 C   0  0  1  0  0  0  0  0  0  0  0  0
  151.1145  142.9208  157.3787 C   0  0  0  0  0  0  0  0  0  0  0  0
  151.2657  143.5279  158.6895 N   0  0  0  0  0  0  0  0  0  0  0  0
  150.7055  144.6754  159.1175 C   0  0  0  0  0  0  0  0  0  0  0  0
  150.9845  145.0641  160.3585 N   0  0  0  0  0  0  0  0  0  0  0  0
  151.8241  144.0503  160.7871 C   0  0  0  0  0  0  0  0  0  0  0  0
  152.4802  143.8654  162.0250 C   0  0  0  0  0  0  0  0  0  0  0  0
  153.3044  142.7405  162.2363 C   0  0  0  0  0  0  0  0  0  0  0  0
  153.9270  142.5798  163.4280 F   0  0  0  0  0  0  0  0  0  0  0  0
  153.4837  141.7841  161.2148 C   0  0  0  0  0  0  0  0  0  0  0  0
  154.2788  140.7082  161.4249 F   0  0  0  0  0  0  0  0  0  0  0  0
  152.8373  141.9454  159.9747 C   0  0  0  0  0  0  0  0  0  0  0  0
  152.0180  143.0706  159.7670 C   0  0  0  0  0  0  0  0  0  0  0  0
  149.6421  141.1768  156.2535 C   0  0  0  0  0  0  0  0  0  0  0  0
  150.0197  140.1430  155.3695 C   0  0  0  0  0  0  0  0  0  0  0  0
  149.2022  139.8136  154.2712 C   0  0  0  0  0  0  0  0  0  0  0  0
  148.0028  140.5171  154.0491 C   0  0  0  0  0  0  0  0  0  0  0  0
  147.2154  140.1983  152.9948 F   0  0  0  0  0  0  0  0  0  0  0  0
  147.6217  141.5506  154.9258 C   0  0  0  0  0  0  0  0  0  0  0  0
  148.4385  141.8799  156.0250 C   0  0  0  0  0  0  0  0  0  0  0  0
  151.2192  139.7730  157.9539 H   0  0  0  0  0  0  0  0  0  0  0  0
  149.9063  141.4267  158.3604 H   0  0  0  0  0  0  0  0  0  0  0  0
  152.1011  142.8845  156.9140 H   0  0  0  0  0  0  0  0  0  0  0  0
  150.5004  143.5704  156.7536 H   0  0  0  0  0  0  0  0  0  0  0  0
  150.0589  145.2606  158.4800 H   0  0  0  0  0  0  0  0  0  0  0  0
  152.3512  144.5914  162.8140 H   0  0  0  0  0  0  0  0  0  0  0  0
  152.9748  141.2152  159.1912 H   0  0  0  0  0  0  0  0  0  0  0  0
  150.9324  139.5904  155.5378 H   0  0  0  0  0  0  0  0  0  0  0  0
  149.4938  139.0186  153.6009 H   0  0  0  0  0  0  0  0  0  0  0  0
  146.7004  142.0888  154.7579 H   0  0  0  0  0  0  0  0  0  0  0  0
  148.1320  142.6675  156.6978 H   0  0  0  0  0  0  0  0  0  0  0  0
  1  2  1  0  0  0  0
  1 22  1  0  0  0  0
  2  3  1  0  0  0  0
  2 15  1  0  0  0  0
  2 23  1  0  0  0  0
  3  4  1  0  0  0  0
  3 24  1  0  0  0  0
  3 25  1  0  0  0  0
  4 14  1  0  0  0  0
  4  5  1  0  0  0  0
  5  6  2  0  0  0  0
  5 26  1  0  0  0  0
  6  7  1  0  0  0  0
  7 14  2  0  0  0  0
  7  8  1  0  0  0  0
  8  9  2  0  0  0  0
  8 27  1  0  0  0  0
  9 10  1  0  0  0  0
  9 11  1  0  0  0  0
 11 12  1  0  0  0  0
 11 13  2  0  0  0  0
 13 14  1  0  0  0  0
 13 28  1  0  0  0  0
 15 21  1  0  0  0  0
 15 16  2  0  0  0  0
 16 17  1  0  0  0  0
 16 29  1  0  0  0  0
 17 18  2  0  0  0  0
 17 30  1  0  0  0  0
 18 19  1  0  0  0  0
 18 20  1  0  0  0  0
 20 21  2  0  0  0  0
 20 31  1  0  0  0  0
 21 32  1  0  0  0  0
M  END
> <s_m_source_file>
AV-unprocessed.smi

> <i_m_source_file_index>
739

> <i_lp_mmshare_version>
43012

> <i_f3d_flags>
0

> <s_epik_input>
W2NIXTFbY0hdYyhGKVtjSF1bY0hdYzFbQ0BIXShbT0hdKVtDSDJdbihbY0hdbjIpYyhjMjMpW2NIXWMoRiljKEYpW2NIXTM=

> <s_epik_cmdline>
J2VwaWtfcHl0aG9uJywgJy1waCcsICc3LjAnLCAnLXRuJywgJzgnLCAnLW1hJywgJzIwMCcsICctbWV0YWxfYmluZGluZycsICctaW1hZScsICc8aW5maWxlLm1hZT4nLCAnLW9tYWUnLCAnPG91dGZpbGUubWFlPic=

> <r_epik_Ionization_Penalty>
0.0156356

> <r_epik_Ionization_Penalty_Charging>
0

> <r_epik_Ionization_Penalty_Neutral>
0.0156356

> <r_epik_State_Penalty>
0.0122974

> <r_epik_Charging_Adjusted_Penalty>
0.0122974

> <i_epik_Tot_Q>
0

> <i_epik_Tot_abs_Q>
0

> <r_epik_Metal_State_Penalty>
1.24258e-05

> <b_epik_Metal_Only>
0

> <s_lp_Force_Field>
OPLS_2005

> <r_lp_Energy>
11.0695

> <b_lp_Chiralities_Consistent>
1

> <s_lp_Variant>
AV-unprocessed.smi:739-2

> <Gold.Version>
5.8.1

> <Gold.Id.Protein>
6NUR|6NUR_protein|mol2

> <Gold.PLP.Fitness>
52.1933

> <Gold.PLP.PLP>
-50.2133

> <Gold.PLP.part.hbond>
0.0000

> <Gold.PLP.part.metal>
0.0000

> <Gold.PLP.part.buried>
-1.9641

> <Gold.PLP.part.nonpolar>
-47.0928

> <Gold.PLP.part.repulsive>
0.1956

> <Gold.PLP.ligand.clash>
0.0000

> <Gold.PLP.ligand.torsion>
0.4648

> <Gold.PLP.Chemscore.Hbond>
0.0000

> <Gold.PLP.Chemscore.CHOScore>
0.9651

> <Gold.PLP.Chemscore.Metal>
0.0000

> <Gold.Chemscore.Hbonds>
donor molecule, donor type, donor heavy atom, donor atom, acceptor molecule, acceptor atom, score
      L1  C     5    26       P1  8029  0.94

> <Gold.PLP.Chemscore.Internal.Correction>
0.0141

> <Gold.Rescore>
     Score         DG    S(hbond)    S(metal)    S(lipo)     H(rot)  DE(clash)    DE(int)     intcor
     13.02     -13.66       0.00        0.00     115.22       2.07       0.12       0.53       ----

> <Gold.Chemscore.Fitness>
13.0175

> <Gold.Chemscore.DG>
-13.6621

> <Gold.Chemscore.ZeroCoef>
-5.4800

> <Gold.Chemscore.Hbond>
0.0000

> <Gold.Chemscore.Metal>
0.0000

> <Gold.Chemscore.Lipo>
115.2248

> <Gold.Chemscore.Internal_Hbond>
0.0000

> <Gold.Chemscore.DEClash>
0.1184

> <Gold.Chemscore.DEInternal>
0.5262

> <Gold.Chemscore.Rot>
2.0700

> <Gold.Chemscore.Internal.Correction>
   9.000000E+99

> <Gold.Chemscore.Hbond.Weighted>
-0.0000

> <Gold.Chemscore.Metal.Weighted>
-0.0000

> <Gold.Chemscore.Lipo.Weighted>
-13.4813

> <Gold.Chemscore.Internal_Hbond.Weighted>
0.0000

> <Gold.Chemscore.DEClash.Weighted>
0.1184

> <Gold.Chemscore.DEInternal.Weighted>
0.5262

> <Gold.Chemscore.Rot.Weighted>
5.2992

> <Gold.Chemscore.Internal.Correction.Weighted>
   9.000000E+99

> <Gold.Protein.RotatedTorsions>
[ 6907 6896 6895 6894 ] final  151.64 input  -60.11 | X-H torsion
[ 7974 7965 7964 7962 ] final   80.79 input  175.53 | X-H torsion
[ 8008 7997 7996 7995 ] final   12.29 input   59.86 | X-H torsion
[ 10167 10162 10161 10158 ] final -104.54 input  -65.29 | X-H torsion
[ 10718 10713 10712 10709 ] final   38.19 input   66.30 | X-H torsion
[ 10763 10752 10751 10750 ] final   71.07 input  -60.55 | X-H torsion
[ 11005 11000 10999 10996 ] final -163.11 input  -57.11 | X-H torsion

> <Gold.Protein.ActiveResidues>
 VAL166  LYS551  ARG553  GLY616  TRP617  ASP618  TYR619  PRO620  LYS621  CYS622 
 ASP623  PHE694  ASN695  SER759  ASP760  ASP761  ALA762  ILE779  LEU786  VAL792 
 PHE793  MET794  SER795  GLU796  ALA797  LYS798  CYS799  TRP800  GLU811  SER814 

> <Gold.Protein.RotatedAtoms>
  152.0978  133.4233  159.4572 H   0  0  0  0  0  0  0  0  0  0  0  0  # atno 6907 bound_to 6896
  150.6863  134.2796  159.4631 H   0  0  0  0  0  0  0  0  0  0  0  0  # atno 6908 bound_to 6896
  152.0654  134.9567  160.0625 H   0  0  0  0  0  0  0  0  0  0  0  0  # atno 6909 bound_to 6896
  145.6466  139.2437  143.2000 H   0  0  0  0  0  0  0  0  0  0  0  0  # atno 7974 bound_to 7965
  154.8186  140.2880  155.5802 H   0  0  0  0  0  0  0  0  0  0  0  0  # atno 8008 bound_to 7997
  156.2995  140.2554  156.3019 H   0  0  0  0  0  0  0  0  0  0  0  0  # atno 8009 bound_to 7997
  154.9364  140.0382  157.2064 H   0  0  0  0  0  0  0  0  0  0  0  0  # atno 8010 bound_to 7997
  140.2081  143.3767  152.1073 H   0  0  0  0  0  0  0  0  0  0  0  0  # atno 10167 bound_to 10162
  157.3558  130.7623  149.7012 H   0  0  0  0  0  0  0  0  0  0  0  0  # atno 10718 bound_to 10713
  153.0378  135.5150  154.7538 H   0  0  0  0  0  0  0  0  0  0  0  0  # atno 10763 bound_to 10752
  154.6500  135.2924  155.0001 H   0  0  0  0  0  0  0  0  0  0  0  0  # atno 10764 bound_to 10752
  154.0888  135.6653  153.4902 H   0  0  0  0  0  0  0  0  0  0  0  0  # atno 10765 bound_to 10752
  140.6018  134.4940  157.5206 H   0  0  0  0  0  0  0  0  0  0  0  0  # atno 11005 bound_to 11000
  146.1238  140.7275  142.9445 LP  0  0  0  0  0  0  0  0  0  0  0  0  # atno 17320 bound_to 7965
  144.7138  140.4135  143.7060 LP  0  0  0  0  0  0  0  0  0  0  0  0  # atno 17321 bound_to 7965
  139.5190  144.7014  151.5482 LP  0  0  0  0  0  0  0  0  0  0  0  0  # atno 17342 bound_to 10162
  140.6343  143.9015  150.6633 LP  0  0  0  0  0  0  0  0  0  0  0  0  # atno 17343 bound_to 10162
  155.9729  130.4127  150.4048 LP  0  0  0  0  0  0  0  0  0  0  0  0  # atno 17370 bound_to 10713
  157.2117  131.0462  151.2595 LP  0  0  0  0  0  0  0  0  0  0  0  0  # atno 17371 bound_to 10713
  139.9229  134.8113  156.1155 LP  0  0  0  0  0  0  0  0  0  0  0  0  # atno 17394 bound_to 11000
  141.0867  133.6731  156.2452 LP  0  0  0  0  0  0  0  0  0  0  0  0  # atno 17395 bound_to 11000

$$$$
