AV-unprocessed.smi:1844|AV-procd|sdf|7511|dock4
  -GOLD-   22720 9213D 1   1.00000     0.00000
 Structure written by MMmdl.
 45 46  0  0  0  0  0  0  0  0  1 V2000
  145.6911  135.8656  160.6040 C   0  0  0  0  0  0  0  0  0  0  0  0
  146.9253  136.1255  159.8785 N   0  0  0  0  0  0  0  0  0  0  0  0
  148.0093  136.7165  160.4077 C   0  0  0  0  0  0  0  0  0  0  0  0
  148.0336  137.0912  161.5812 O   0  0  0  0  0  0  0  0  0  0  0  0
  149.1225  136.8629  159.4667 C   0  0  0  0  0  0  0  0  0  0  0  0
  149.0183  136.5373  158.0519 C   0  0  0  0  0  0  0  0  0  0  0  0
  150.0688  136.7183  157.2278 C   0  0  0  0  0  0  0  0  0  0  0  0
  151.3486  137.2439  157.7117 C   0  0  0  0  0  0  0  0  0  0  0  0
  152.3027  137.4355  156.9579 O   0  0  0  0  0  0  0  0  0  0  0  0
  151.4107  137.5153  159.0504 N   0  0  0  0  0  0  0  0  0  0  0  0
  152.6379  138.0618  159.6578 C   0  0  0  0  0  0  0  0  0  0  0  0
  153.0609  139.4398  159.1193 C   0  0  0  0  0  0  0  0  0  0  0  0
  154.1457  139.5527  158.5500 O   0  0  0  0  0  0  0  0  0  0  0  0
  152.2228  140.4742  159.3025 N   0  0  0  0  0  0  0  0  0  0  0  0
  152.4676  141.8582  158.9096 C   0  0  1  0  0  0  0  0  0  0  0  0
  151.3639  142.3346  157.9420 C   0  0  0  0  0  0  0  0  0  0  0  0
  151.5514  143.8082  157.5534 C   0  0  0  0  0  0  0  0  0  0  0  0
  151.6123  144.7038  158.7985 C   0  0  0  0  0  0  0  0  0  0  0  0
  152.7169  144.2387  159.7595 C   0  0  0  0  0  0  0  0  0  0  0  0
  152.5384  142.7619  160.1658 C   0  0  2  0  0  0  0  0  0  0  0  0
  153.6450  142.3292  161.1454 C   0  0  0  0  0  0  0  0  0  0  0  0
  150.3070  137.3309  159.9061 C   0  0  0  0  0  0  0  0  0  0  0  0
  144.9774  135.3601  159.9535 H   0  0  0  0  0  0  0  0  0  0  0  0
  145.2393  136.7971  160.9476 H   0  0  0  0  0  0  0  0  0  0  0  0
  145.8751  135.2271  161.4692 H   0  0  0  0  0  0  0  0  0  0  0  0
  146.9610  135.8375  158.9113 H   0  0  0  0  0  0  0  0  0  0  0  0
  148.1044  136.1449  157.6311 H   0  0  0  0  0  0  0  0  0  0  0  0
  149.9671  136.4696  156.1816 H   0  0  0  0  0  0  0  0  0  0  0  0
  152.5054  138.1486  160.7372 H   0  0  0  0  0  0  0  0  0  0  0  0
  153.4738  137.3710  159.5348 H   0  0  0  0  0  0  0  0  0  0  0  0
  151.3515  140.2910  159.7785 H   0  0  0  0  0  0  0  0  0  0  0  0
  153.4300  141.9135  158.3966 H   0  0  0  0  0  0  0  0  0  0  0  0
  151.3610  141.7203  157.0409 H   0  0  0  0  0  0  0  0  0  0  0  0
  150.3851  142.2046  158.4059 H   0  0  0  0  0  0  0  0  0  0  0  0
  152.4697  143.9199  156.9758 H   0  0  0  0  0  0  0  0  0  0  0  0
  150.7365  144.1281  156.9037 H   0  0  0  0  0  0  0  0  0  0  0  0
  151.7882  145.7388  158.5039 H   0  0  0  0  0  0  0  0  0  0  0  0
  150.6493  144.6869  159.3099 H   0  0  0  0  0  0  0  0  0  0  0  0
  153.6901  144.3748  159.2859 H   0  0  0  0  0  0  0  0  0  0  0  0
  152.7160  144.8729  160.6468 H   0  0  0  0  0  0  0  0  0  0  0  0
  151.5874  142.6797  160.6946 H   0  0  0  0  0  0  0  0  0  0  0  0
  154.6255  142.3541  160.6691 H   0  0  0  0  0  0  0  0  0  0  0  0
  153.4822  141.3182  161.5201 H   0  0  0  0  0  0  0  0  0  0  0  0
  153.6804  142.9904  162.0115 H   0  0  0  0  0  0  0  0  0  0  0  0
  150.4916  137.6122  160.9338 H   0  0  0  0  0  0  0  0  0  0  0  0
  1  2  1  0  0  0  0
  1 23  1  0  0  0  0
  1 24  1  0  0  0  0
  1 25  1  0  0  0  0
  2  3  1  0  0  0  0
  2 26  1  0  0  0  0
  3  4  2  0  0  0  0
  3  5  1  0  0  0  0
  5 22  2  0  0  0  0
  5  6  1  0  0  0  0
  6  7  2  0  0  0  0
  6 27  1  0  0  0  0
  7  8  1  0  0  0  0
  7 28  1  0  0  0  0
  8  9  2  0  0  0  0
  8 10  1  0  0  0  0
 10 11  1  0  0  0  0
 10 22  1  0  0  0  0
 11 12  1  0  0  0  0
 11 29  1  0  0  0  0
 11 30  1  0  0  0  0
 12 13  2  0  0  0  0
 12 14  1  0  0  0  0
 14 15  1  0  0  0  0
 14 31  1  0  0  0  0
 15 20  1  0  0  0  0
 15 16  1  0  0  0  0
 15 32  1  0  0  0  0
 16 17  1  0  0  0  0
 16 33  1  0  0  0  0
 16 34  1  0  0  0  0
 17 18  1  0  0  0  0
 17 35  1  0  0  0  0
 17 36  1  0  0  0  0
 18 19  1  0  0  0  0
 18 37  1  0  0  0  0
 18 38  1  0  0  0  0
 19 20  1  0  0  0  0
 19 39  1  0  0  0  0
 19 40  1  0  0  0  0
 20 21  1  0  0  0  0
 20 41  1  0  0  0  0
 21 42  1  0  0  0  0
 21 43  1  0  0  0  0
 21 44  1  0  0  0  0
 22 45  1  0  0  0  0
M  END
> <s_m_source_file>
AV-unprocessed.smi

> <i_m_source_file_index>
1844

> <i_lp_mmshare_version>
43012

> <i_f3d_flags>
0

> <s_epik_input>
W0NIM11bTkhdQyg9TyljMVtjSF1bY0hdYyg9TyluKFtjSF0xKVtDSDJdQyg9TylbTkhdW0NAQEhdMltDSDJdW0NIMl1bQ0gyXVtDSDJdW0NASF0yW0NIM10=

> <s_epik_cmdline>
J2VwaWtfcHl0aG9uJywgJy1waCcsICc3LjAnLCAnLXRuJywgJzgnLCAnLW1hJywgJzIwMCcsICctbWV0YWxfYmluZGluZycsICctaW1hZScsICc8aW5maWxlLm1hZT4nLCAnLW9tYWUnLCAnPG91dGZpbGUubWFlPic=

> <r_lp_tautomer_probability>
1

> <r_epik_Ionization_Penalty>
3.66612e-07

> <r_epik_Ionization_Penalty_Charging>
5.18929e-08

> <r_epik_Ionization_Penalty_Neutral>
3.14719e-07

> <r_epik_State_Penalty>
-0

> <r_epik_Charging_Adjusted_Penalty>
5.18929e-08

> <i_epik_Tot_Q>
0

> <i_epik_Tot_abs_Q>
0

> <r_epik_Metal_State_Penalty>
-0

> <b_epik_Metal_Only>
0

> <s_lp_Force_Field>
OPLS_2005

> <r_lp_Energy>
22.567

> <b_lp_Chiralities_Consistent>
1

> <s_lp_Variant>
AV-unprocessed.smi:1844-4

> <Gold.Version>
5.8.1

> <Gold.Id.Protein>
6NUR|6NUR_protein|mol2

> <Gold.PLP.Fitness>
46.0026

> <Gold.PLP.PLP>
-37.4339

> <Gold.PLP.part.hbond>
-3.0000

> <Gold.PLP.part.metal>
0.0000

> <Gold.PLP.part.buried>
-4.0990

> <Gold.PLP.part.nonpolar>
-30.6901

> <Gold.PLP.part.repulsive>
0.1768

> <Gold.PLP.ligand.clash>
0.0000

> <Gold.PLP.ligand.torsion>
0.0423

> <Gold.PLP.Chemscore.Hbond>
2.8720

> <Gold.PLP.Chemscore.CHOScore>
0.0000

> <Gold.PLP.Chemscore.Metal>
0.0000

> <Gold.Chemscore.Hbonds>
donor molecule, donor type, donor heavy atom, donor atom, acceptor molecule, acceptor atom, score
      P1  H  6931  6943       L1     4  1.00
      P1  H  6934  6947       L1     4  0.17
      P1  H  7997  8008       L1    13  1.00

> <Gold.PLP.Chemscore.Internal.Correction>
0.0373

> <Gold.Rescore>
     Score         DG    S(hbond)    S(metal)    S(lipo)     H(rot)  DE(clash)    DE(int)     intcor
     21.69     -22.03       2.68        0.00      97.53       1.49       0.02       0.33       ----

> <Gold.Chemscore.Fitness>
21.6935

> <Gold.Chemscore.DG>
-22.0339

> <Gold.Chemscore.ZeroCoef>
-5.4800

> <Gold.Chemscore.Hbond>
2.6836

> <Gold.Chemscore.Metal>
0.0000

> <Gold.Chemscore.Lipo>
97.5305

> <Gold.Chemscore.Internal_Hbond>
0.0000

> <Gold.Chemscore.DEClash>
0.0153

> <Gold.Chemscore.DEInternal>
0.3251

> <Gold.Chemscore.Rot>
1.4923

> <Gold.Chemscore.Internal.Correction>
   9.000000E+99

> <Gold.Chemscore.Hbonds>
donor molecule, donor type, donor heavy atom, donor atom, acceptor molecule, acceptor atom, score
      P1  H  6931  6943       L1     4  0.89
      P1  H  6934  6947       L1     4  0.01
      P1  H  7997  8008       L1    13  0.97

> <Gold.Chemscore.Hbond.Weighted>
-8.9633

> <Gold.Chemscore.Metal.Weighted>
-0.0000

> <Gold.Chemscore.Lipo.Weighted>
-11.4111

> <Gold.Chemscore.Internal_Hbond.Weighted>
0.0000

> <Gold.Chemscore.DEClash.Weighted>
0.0153

> <Gold.Chemscore.DEInternal.Weighted>
0.3251

> <Gold.Chemscore.Rot.Weighted>
3.8204

> <Gold.Chemscore.Internal.Correction.Weighted>
   9.000000E+99

> <Gold.Protein.RotatedTorsions>
[ 6907 6896 6895 6894 ] final   53.18 input  -60.11 | X-H torsion
[ 7974 7965 7964 7962 ] final -132.50 input  175.53 | X-H torsion
[ 8008 7997 7996 7995 ] final -119.14 input   59.86 | X-H torsion
[ 10167 10162 10161 10158 ] final   -4.21 input  -65.29 | X-H torsion
[ 10718 10713 10712 10709 ] final   -3.23 input   66.30 | X-H torsion
[ 10763 10752 10751 10750 ] final   72.27 input  -60.55 | X-H torsion
[ 11005 11000 10999 10996 ] final  118.39 input  -57.11 | X-H torsion

> <Gold.Protein.ActiveResidues>
 VAL166  LYS551  ARG553  GLY616  TRP617  ASP618  TYR619  PRO620  LYS621  CYS622 
 ASP623  PHE694  ASN695  SER759  ASP760  ASP761  ALA762  ILE779  LEU786  VAL792 
 PHE793  MET794  SER795  GLU796  ALA797  LYS798  CYS799  TRP800  GLU811  SER814 

> <Gold.Protein.RotatedAtoms>
  152.3311  134.7258  160.0289 H   0  0  0  0  0  0  0  0  0  0  0  0  # atno 6907 bound_to 6896
  151.7675  133.3333  159.3443 H   0  0  0  0  0  0  0  0  0  0  0  0  # atno 6908 bound_to 6896
  150.7423  134.5981  159.6067 H   0  0  0  0  0  0  0  0  0  0  0  0  # atno 6909 bound_to 6896
  144.9280  140.7094  143.4924 H   0  0  0  0  0  0  0  0  0  0  0  0  # atno 7974 bound_to 7965
  155.1109  140.0397  157.2724 H   0  0  0  0  0  0  0  0  0  0  0  0  # atno 8008 bound_to 7997
  154.6686  140.2607  155.7006 H   0  0  0  0  0  0  0  0  0  0  0  0  # atno 8009 bound_to 7997
  156.2649  140.2802  156.1186 H   0  0  0  0  0  0  0  0  0  0  0  0  # atno 8010 bound_to 7997
  140.6919  143.6449  150.8401 H   0  0  0  0  0  0  0  0  0  0  0  0  # atno 10167 bound_to 10162
  156.7792  130.5325  149.5754 H   0  0  0  0  0  0  0  0  0  0  0  0  # atno 10718 bound_to 10713
  153.0449  135.5106  154.7718 H   0  0  0  0  0  0  0  0  0  0  0  0  # atno 10763 bound_to 10752
  154.6627  135.2941  154.9848 H   0  0  0  0  0  0  0  0  0  0  0  0  # atno 10764 bound_to 10752
  154.0694  135.6680  153.4875 H   0  0  0  0  0  0  0  0  0  0  0  0  # atno 10765 bound_to 10752
  139.9108  134.9620  156.7496 H   0  0  0  0  0  0  0  0  0  0  0  0  # atno 11005 bound_to 11000
  145.3188  139.1795  143.4599 LP  0  0  0  0  0  0  0  0  0  0  0  0  # atno 17320 bound_to 7965
  146.3234  140.3203  142.8633 LP  0  0  0  0  0  0  0  0  0  0  0  0  # atno 17321 bound_to 7965
  140.0163  143.5589  152.2818 LP  0  0  0  0  0  0  0  0  0  0  0  0  # atno 17342 bound_to 10162
  139.6331  144.7647  151.2494 LP  0  0  0  0  0  0  0  0  0  0  0  0  # atno 17343 bound_to 10162
  156.1229  130.6123  151.0220 LP  0  0  0  0  0  0  0  0  0  0  0  0  # atno 17370 bound_to 10713
  157.6654  131.0872  150.7740 LP  0  0  0  0  0  0  0  0  0  0  0  0  # atno 17371 bound_to 10713
  140.6784  133.9496  155.7896 LP  0  0  0  0  0  0  0  0  0  0  0  0  # atno 17394 bound_to 11000
  141.0528  134.0460  157.3762 LP  0  0  0  0  0  0  0  0  0  0  0  0  # atno 17395 bound_to 11000

$$$$
