AV-unprocessed.smi:1705|AV-procd|sdf|6885|dock5
  -GOLD-   22720 8 93D 1   1.00000     0.00000
 Structure written by MMmdl.
 38 39  0  0  0  0  0  0  0  0  1 V2000
  150.3327  136.5584  156.3840 C   0  0  0  0  0  0  0  0  0  0  0  0
  150.6872  137.2707  157.6984 C   0  0  1  0  0  0  0  0  0  0  0  0
  150.6541  138.7122  157.5008 N   0  0  0  0  0  0  0  0  0  0  0  0
  151.4336  139.6585  158.1588 C   0  0  0  0  0  0  0  0  0  0  0  0
  152.3531  139.3046  159.1006 C   0  0  0  0  0  0  0  0  0  0  0  0
  152.6330  137.9514  159.4652 C   0  0  0  0  0  0  0  0  0  0  0  0
  152.8629  136.8643  159.7915 N   0  0  0  0  0  0  0  0  0  0  0  0
  153.1650  140.2970  159.8017 C   0  0  0  0  0  0  0  0  0  0  0  0
  154.0021  140.0156  160.6628 O   0  0  0  0  0  0  0  0  0  0  0  0
  152.9212  141.6333  159.4263 N   0  0  0  0  0  0  0  0  0  0  0  0
  153.6985  142.6461  160.1132 C   0  0  0  0  0  0  0  0  0  0  0  0
  151.9741  142.0275  158.4584 C   0  0  0  0  0  0  0  0  0  0  0  0
  151.7841  143.2159  158.1822 O   0  0  0  0  0  0  0  0  0  0  0  0
  151.2405  141.0001  157.8154 N   0  0  0  0  0  0  0  0  0  0  0  0
  150.2782  141.4686  156.8380 C   0  0  0  0  0  0  0  0  0  0  0  0
  149.7332  136.8886  158.8451 C   0  0  1  0  0  0  0  0  0  0  0  0
  148.2895  137.3553  158.6635 C   0  0  0  0  0  0  0  0  0  0  0  0
  147.5008  136.3945  159.5370 C   0  0  0  0  0  0  0  0  0  0  0  0
  148.4368  135.1939  159.7046 C   0  0  0  0  0  0  0  0  0  0  0  0
  149.5698  135.4790  158.8952 O   0  0  0  0  0  0  0  0  0  0  0  0
  150.4307  135.4769  156.4785 H   0  0  0  0  0  0  0  0  0  0  0  0
  150.9888  136.8730  155.5728 H   0  0  0  0  0  0  0  0  0  0  0  0
  149.3080  136.7757  156.0812 H   0  0  0  0  0  0  0  0  0  0  0  0
  151.6933  136.9738  157.9936 H   0  0  0  0  0  0  0  0  0  0  0  0
  149.7250  139.0367  157.2739 H   0  0  0  0  0  0  0  0  0  0  0  0
  153.5227  143.6373  159.6975 H   0  0  0  0  0  0  0  0  0  0  0  0
  154.7526  142.3902  159.9910 H   0  0  0  0  0  0  0  0  0  0  0  0
  153.4015  142.6196  161.1629 H   0  0  0  0  0  0  0  0  0  0  0  0
  149.5091  142.0201  157.3815 H   0  0  0  0  0  0  0  0  0  0  0  0
  149.8324  140.6327  156.3045 H   0  0  0  0  0  0  0  0  0  0  0  0
  150.8065  142.1030  156.1237 H   0  0  0  0  0  0  0  0  0  0  0  0
  150.1209  137.2376  159.8043 H   0  0  0  0  0  0  0  0  0  0  0  0
  148.1417  138.3986  158.9436 H   0  0  0  0  0  0  0  0  0  0  0  0
  147.9851  137.2376  157.6227 H   0  0  0  0  0  0  0  0  0  0  0  0
  147.2811  136.8404  160.5078 H   0  0  0  0  0  0  0  0  0  0  0  0
  146.5542  136.1178  159.0718 H   0  0  0  0  0  0  0  0  0  0  0  0
  148.7507  135.0931  160.7442 H   0  0  0  0  0  0  0  0  0  0  0  0
  147.9716  134.2572  159.3972 H   0  0  0  0  0  0  0  0  0  0  0  0
  1  2  1  0  0  0  0
  1 21  1  0  0  0  0
  1 22  1  0  0  0  0
  1 23  1  0  0  0  0
  2  3  1  0  0  0  0
  2 16  1  0  0  0  0
  2 24  1  0  0  0  0
  3  4  1  0  0  0  0
  3 25  1  0  0  0  0
  4 14  1  0  0  0  0
  4  5  2  0  0  0  0
  5  6  1  0  0  0  0
  5  8  1  0  0  0  0
  6  7  3  0  0  0  0
  8  9  2  0  0  0  0
  8 10  1  0  0  0  0
 10 11  1  0  0  0  0
 10 12  1  0  0  0  0
 11 26  1  0  0  0  0
 11 27  1  0  0  0  0
 11 28  1  0  0  0  0
 12 13  2  0  0  0  0
 12 14  1  0  0  0  0
 14 15  1  0  0  0  0
 15 29  1  0  0  0  0
 15 30  1  0  0  0  0
 15 31  1  0  0  0  0
 16 20  1  0  0  0  0
 16 17  1  0  0  0  0
 16 32  1  0  0  0  0
 17 18  1  0  0  0  0
 17 33  1  0  0  0  0
 17 34  1  0  0  0  0
 18 19  1  0  0  0  0
 18 35  1  0  0  0  0
 18 36  1  0  0  0  0
 19 20  1  0  0  0  0
 19 37  1  0  0  0  0
 19 38  1  0  0  0  0
M  END
> <s_m_source_file>
AV-unprocessed.smi

> <i_m_source_file_index>
1705

> <i_lp_mmshare_version>
43012

> <i_f3d_flags>
0

> <s_epik_input>
TzFbQ0gyXVtDSDJdW0NIMl1bQ0BIXTFbQ0BIXShbQ0gzXSlbTkhdYzJjKEMjTiljKD1PKW4oW0NIM10pYyg9TyluMltDSDNd

> <s_epik_cmdline>
J2VwaWtfcHl0aG9uJywgJy1waCcsICc3LjAnLCAnLXRuJywgJzgnLCAnLW1hJywgJzIwMCcsICctbWV0YWxfYmluZGluZycsICctaW1hZScsICc8aW5maWxlLm1hZT4nLCAnLW9tYWUnLCAnPG91dGZpbGUubWFlPic=

> <r_epik_Ionization_Penalty>
0.000446268

> <r_epik_Ionization_Penalty_Charging>
9.41922e-10

> <r_epik_Ionization_Penalty_Neutral>
0.000446267

> <r_epik_State_Penalty>
0.000275531

> <r_epik_Charging_Adjusted_Penalty>
0.000275532

> <i_epik_Tot_Q>
0

> <i_epik_Tot_abs_Q>
0

> <r_epik_Metal_State_Penalty>
-0

> <b_epik_Metal_Only>
0

> <s_lp_Force_Field>
OPLS_2005

> <r_lp_Energy>
37.8394

> <b_lp_Chiralities_Consistent>
1

> <s_lp_Variant>
AV-unprocessed.smi:1705-4

> <Gold.Version>
5.8.1

> <Gold.Id.Protein>
6NUR|6NUR_protein|mol2

> <Gold.PLP.Fitness>
34.1020

> <Gold.PLP.PLP>
-28.9759

> <Gold.PLP.part.hbond>
-2.0000

> <Gold.PLP.part.metal>
0.0000

> <Gold.PLP.part.buried>
-6.1985

> <Gold.PLP.part.nonpolar>
-20.5995

> <Gold.PLP.part.repulsive>
0.0789

> <Gold.PLP.ligand.clash>
9.0509

> <Gold.PLP.ligand.torsion>
0.4515

> <Gold.PLP.Chemscore.Hbond>
2.0000

> <Gold.PLP.Chemscore.CHOScore>
0.0000

> <Gold.PLP.Chemscore.Metal>
0.0000

> <Gold.Chemscore.Hbonds>
donor molecule, donor type, donor heavy atom, donor atom, acceptor molecule, acceptor atom, score
      P1  H  6896  6907       L1    20  1.00
      P1  H  6896  6908       L1     7  1.00

> <Gold.PLP.Chemscore.Internal.Correction>
9.0800

> <Gold.Rescore>
     Score         DG    S(hbond)    S(metal)    S(lipo)     H(rot)  DE(clash)    DE(int)     intcor
     10.75     -13.54       1.86        0.00      43.71       1.28       0.05       2.73       ----

> <Gold.Chemscore.Fitness>
10.7529

> <Gold.Chemscore.DG>
-13.5367

> <Gold.Chemscore.ZeroCoef>
-5.4800

> <Gold.Chemscore.Hbond>
1.8606

> <Gold.Chemscore.Metal>
0.0000

> <Gold.Chemscore.Lipo>
43.7092

> <Gold.Chemscore.Internal_Hbond>
0.0000

> <Gold.Chemscore.DEClash>
0.0515

> <Gold.Chemscore.DEInternal>
2.7323

> <Gold.Chemscore.Rot>
1.2780

> <Gold.Chemscore.Internal.Correction>
   9.000000E+99

> <Gold.Chemscore.Hbonds>
donor molecule, donor type, donor heavy atom, donor atom, acceptor molecule, acceptor atom, score
      P1  H  6896  6907       L1    20  0.28
      P1  H  6896  6908       L1     7  0.93

> <Gold.Chemscore.Hbond.Weighted>
-6.2144

> <Gold.Chemscore.Metal.Weighted>
-0.0000

> <Gold.Chemscore.Lipo.Weighted>
-5.1140

> <Gold.Chemscore.Internal_Hbond.Weighted>
0.0000

> <Gold.Chemscore.DEClash.Weighted>
0.0515

> <Gold.Chemscore.DEInternal.Weighted>
2.7323

> <Gold.Chemscore.Rot.Weighted>
3.2717

> <Gold.Chemscore.Internal.Correction.Weighted>
   9.000000E+99

> <Gold.Protein.RotatedTorsions>
[ 6907 6896 6895 6894 ] final  -85.00 input  -60.11 | X-H torsion
[ 7974 7965 7964 7962 ] final -179.92 input  175.53 | X-H torsion
[ 8008 7997 7996 7995 ] final -127.15 input   59.86 | X-H torsion
[ 10167 10162 10161 10158 ] final  -78.15 input  -65.29 | X-H torsion
[ 10718 10713 10712 10709 ] final    1.57 input   66.30 | X-H torsion
[ 10763 10752 10751 10750 ] final -155.10 input  -60.55 | X-H torsion
[ 11005 11000 10999 10996 ] final   71.30 input  -57.11 | X-H torsion

> <Gold.Protein.ActiveResidues>
 VAL166  LYS551  ARG553  GLY616  TRP617  ASP618  TYR619  PRO620  LYS621  CYS622 
 ASP623  PHE694  ASN695  SER759  ASP760  ASP761  ALA762  ILE779  LEU786  VAL792 
 PHE793  MET794  SER795  GLU796  ALA797  LYS798  CYS799  TRP800  GLU811  SER814 

> <Gold.Protein.RotatedAtoms>
  150.6873  134.3271  159.4811 H   0  0  0  0  0  0  0  0  0  0  0  0  # atno 6907 bound_to 6896
  152.1140  134.9251  160.0575 H   0  0  0  0  0  0  0  0  0  0  0  0  # atno 6908 bound_to 6896
  152.0483  133.3973  159.4403 H   0  0  0  0  0  0  0  0  0  0  0  0  # atno 6909 bound_to 6896
  144.7140  140.0644  143.6431 H   0  0  0  0  0  0  0  0  0  0  0  0  # atno 7974 bound_to 7965
  155.2414  140.0429  157.2975 H   0  0  0  0  0  0  0  0  0  0  0  0  # atno 8008 bound_to 7997
  154.5826  140.2405  155.8002 H   0  0  0  0  0  0  0  0  0  0  0  0  # atno 8009 bound_to 7997
  156.2204  140.2971  155.9946 H   0  0  0  0  0  0  0  0  0  0  0  0  # atno 8010 bound_to 7997
  140.4708  143.2427  151.8208 H   0  0  0  0  0  0  0  0  0  0  0  0  # atno 10167 bound_to 10162
  156.8501  130.5551  149.5670 H   0  0  0  0  0  0  0  0  0  0  0  0  # atno 10718 bound_to 10713
  154.7811  135.3175  154.7987 H   0  0  0  0  0  0  0  0  0  0  0  0  # atno 10763 bound_to 10752
  153.8698  135.6845  153.4779 H   0  0  0  0  0  0  0  0  0  0  0  0  # atno 10764 bound_to 10752
  153.1448  135.4724  154.9487 H   0  0  0  0  0  0  0  0  0  0  0  0  # atno 10765 bound_to 10752
  139.9551  134.7158  156.0772 H   0  0  0  0  0  0  0  0  0  0  0  0  # atno 11005 bound_to 11000
  145.9836  139.2960  143.1027 LP  0  0  0  0  0  0  0  0  0  0  0  0  # atno 17320 bound_to 7965
  145.8982  140.9260  143.0516 LP  0  0  0  0  0  0  0  0  0  0  0  0  # atno 17321 bound_to 7965
  139.4818  144.4894  151.9204 LP  0  0  0  0  0  0  0  0  0  0  0  0  # atno 17342 bound_to 10162
  140.3980  144.2530  150.5895 LP  0  0  0  0  0  0  0  0  0  0  0  0  # atno 17343 bound_to 10162
  156.0833  130.5838  150.9602 LP  0  0  0  0  0  0  0  0  0  0  0  0  # atno 17370 bound_to 10713
  157.6308  131.0921  150.8445 LP  0  0  0  0  0  0  0  0  0  0  0  0  # atno 17371 bound_to 10713
  141.1221  133.6610  156.3241 LP  0  0  0  0  0  0  0  0  0  0  0  0  # atno 17394 bound_to 11000
  140.5628  134.5917  157.5438 LP  0  0  0  0  0  0  0  0  0  0  0  0  # atno 17395 bound_to 11000

$$$$
