AV-unprocessed.smi:2822|AV-procd|sdf|10882|dock6
  -GOLD-   2272015323D 1   1.00000     0.00000
 Structure written by MMmdl.
 39 41  0  0  0  0  0  0  0  0  1 V2000
  153.3276  142.1580  161.1531 Cl  0  0  0  0  0  0  0  0  0  0  0  0
  152.3352  143.1769  160.1693 C   0  0  0  0  0  0  0  0  0  0  0  0
  152.1065  144.5132  160.5563 C   0  0  0  0  0  0  0  0  0  0  0  0
  151.3450  145.3735  159.8479 N   0  0  0  0  0  0  0  0  0  0  0  0
  150.7788  144.9200  158.7104 C   0  0  0  0  0  0  0  0  0  0  0  0
  150.9437  143.6048  158.2320 C   0  0  0  0  0  0  0  0  0  0  0  0
  151.7403  142.7035  158.9769 C   0  0  0  0  0  0  0  0  0  0  0  0
  151.9564  141.3769  158.5743 N   0  0  0  0  0  0  0  0  0  0  0  0
  151.0553  140.7223  157.6384 C   0  0  0  0  0  0  0  0  0  0  0  0
  151.2904  141.2095  156.1962 C   0  0  2  0  0  0  0  0  0  0  0  0
  150.0639  141.9230  155.5957 C   0  0  0  0  0  0  0  0  0  0  0  0
  148.9733  141.0068  155.2832 N   0  0  0  0  0  0  0  0  0  0  0  0
  147.8412  141.7205  154.6933 C   0  0  0  0  0  0  0  0  0  0  0  0
  146.6587  140.7915  154.3770 C   0  0  0  0  0  0  0  0  0  0  0  0
  147.1093  139.6516  153.4528 C   0  0  0  0  0  0  0  0  0  0  0  0
  148.3292  138.9378  154.0546 C   0  0  0  0  0  0  0  0  0  0  0  0
  149.4488  139.9444  154.3924 C   0  0  2  0  0  0  0  0  0  0  0  0
  150.6624  139.2144  155.0009 C   0  0  0  0  0  0  0  0  0  0  0  0
  151.6902  140.1455  155.3298 O   0  0  0  0  0  0  0  0  0  0  0  0
  152.5474  144.9033  161.4618 H   0  0  0  0  0  0  0  0  0  0  0  0
  150.1744  145.6276  158.1622 H   0  0  0  0  0  0  0  0  0  0  0  0
  150.4617  143.3141  157.3108 H   0  0  0  0  0  0  0  0  0  0  0  0
  152.6022  140.8034  159.0985 H   0  0  0  0  0  0  0  0  0  0  0  0
  151.1661  139.6403  157.7072 H   0  0  0  0  0  0  0  0  0  0  0  0
  150.0309  140.9530  157.9327 H   0  0  0  0  0  0  0  0  0  0  0  0
  152.1117  141.9269  156.2181 H   0  0  0  0  0  0  0  0  0  0  0  0
  149.7162  142.6948  156.2834 H   0  0  0  0  0  0  0  0  0  0  0  0
  150.3721  142.4405  154.6857 H   0  0  0  0  0  0  0  0  0  0  0  0
  147.5055  142.5016  155.3761 H   0  0  0  0  0  0  0  0  0  0  0  0
  148.1578  142.2260  153.7795 H   0  0  0  0  0  0  0  0  0  0  0  0
  146.2580  140.3791  155.3038 H   0  0  0  0  0  0  0  0  0  0  0  0
  145.8509  141.3561  153.9107 H   0  0  0  0  0  0  0  0  0  0  0  0
  146.2941  138.9445  153.2965 H   0  0  0  0  0  0  0  0  0  0  0  0
  147.3679  140.0544  152.4727 H   0  0  0  0  0  0  0  0  0  0  0  0
  148.0283  138.4044  154.9574 H   0  0  0  0  0  0  0  0  0  0  0  0
  148.6964  138.1843  153.3570 H   0  0  0  0  0  0  0  0  0  0  0  0
  149.7778  140.4010  153.4570 H   0  0  0  0  0  0  0  0  0  0  0  0
  150.3746  138.6439  155.8844 H   0  0  0  0  0  0  0  0  0  0  0  0
  151.0663  138.4957  154.2874 H   0  0  0  0  0  0  0  0  0  0  0  0
  1  2  1  0  0  0  0
  2  7  1  0  0  0  0
  2  3  2  0  0  0  0
  3  4  1  0  0  0  0
  3 20  1  0  0  0  0
  4  5  2  0  0  0  0
  5  6  1  0  0  0  0
  5 21  1  0  0  0  0
  6  7  2  0  0  0  0
  6 22  1  0  0  0  0
  7  8  1  0  0  0  0
  8  9  1  0  0  0  0
  8 23  1  0  0  0  0
  9 10  1  0  0  0  0
  9 24  1  0  0  0  0
  9 25  1  0  0  0  0
 10 19  1  0  0  0  0
 10 11  1  0  0  0  0
 10 26  1  0  0  0  0
 11 12  1  0  0  0  0
 11 27  1  0  0  0  0
 11 28  1  0  0  0  0
 12 17  1  0  0  0  0
 12 13  1  0  0  0  0
 13 14  1  0  0  0  0
 13 29  1  0  0  0  0
 13 30  1  0  0  0  0
 14 15  1  0  0  0  0
 14 31  1  0  0  0  0
 14 32  1  0  0  0  0
 15 16  1  0  0  0  0
 15 33  1  0  0  0  0
 15 34  1  0  0  0  0
 16 17  1  0  0  0  0
 16 35  1  0  0  0  0
 16 36  1  0  0  0  0
 17 18  1  0  0  0  0
 17 37  1  0  0  0  0
 18 19  1  0  0  0  0
 18 38  1  0  0  0  0
 18 39  1  0  0  0  0
M  END
> <s_m_source_file>
AV-unprocessed.smi

> <i_m_source_file_index>
2822

> <i_lp_mmshare_version>
43012

> <i_f3d_flags>
0

> <s_epik_input>
Q2xjMVtjSF1uW2NIXVtjSF1jMVtOSF1bQ0gyXVtDQEhdKFtDSDJdMilPW0NIMl1bQ0BASF0oTjIzKVtDSDJdW0NIMl1bQ0gyXVtDSDJdMw==

> <s_epik_cmdline>
J2VwaWtfcHl0aG9uJywgJy1waCcsICc3LjAnLCAnLXRuJywgJzgnLCAnLW1hJywgJzIwMCcsICctbWV0YWxfYmluZGluZycsICctaW1hZScsICc8aW5maWxlLm1hZT4nLCAnLW9tYWUnLCAnPG91dGZpbGUubWFlPic=

> <r_lp_tautomer_probability>
0.999999

> <r_epik_Ionization_Penalty>
2.10064

> <r_epik_Ionization_Penalty_Charging>
0

> <r_epik_Ionization_Penalty_Neutral>
2.10064

> <r_epik_State_Penalty>
2.1757

> <r_epik_Charging_Adjusted_Penalty>
2.1757

> <i_epik_Tot_Q>
0

> <i_epik_Tot_abs_Q>
0

> <r_epik_Metal_State_Penalty>
1.25425

> <b_epik_Metal_Only>
0

> <s_lp_Force_Field>
OPLS_2005

> <r_lp_Energy>
40.8538

> <b_lp_Chiralities_Consistent>
1

> <s_lp_Variant>
AV-unprocessed.smi:2822-23

> <Gold.Version>
5.8.1

> <Gold.Id.Protein>
6NUR|6NUR_protein|mol2

> <Gold.PLP.Fitness>
43.2293

> <Gold.PLP.PLP>
-40.4358

> <Gold.PLP.part.hbond>
-1.0000

> <Gold.PLP.part.metal>
0.0000

> <Gold.PLP.part.buried>
-6.0320

> <Gold.PLP.part.nonpolar>
-33.8009

> <Gold.PLP.part.repulsive>
0.3711

> <Gold.PLP.ligand.clash>
0.0000

> <Gold.PLP.ligand.torsion>
0.9401

> <Gold.PLP.Chemscore.Hbond>
0.5568

> <Gold.PLP.Chemscore.CHOScore>
0.9989

> <Gold.PLP.Chemscore.Metal>
0.0000

> <Gold.Chemscore.Hbonds>
donor molecule, donor type, donor heavy atom, donor atom, acceptor molecule, acceptor atom, score
      P1  H  7989  7998       L1    19  0.50
      L1  C     5    21       P1  8029  1.00

> <Gold.PLP.Chemscore.Internal.Correction>
0.0066

> <Gold.Rescore>
     Score         DG    S(hbond)    S(metal)    S(lipo)     H(rot)  DE(clash)    DE(int)     intcor
     16.09     -17.20       0.02        0.00     124.81       1.15       0.16       0.94       ----

> <Gold.Chemscore.Fitness>
16.0938

> <Gold.Chemscore.DG>
-17.1977

> <Gold.Chemscore.ZeroCoef>
-5.4800

> <Gold.Chemscore.Hbond>
0.0191

> <Gold.Chemscore.Metal>
0.0000

> <Gold.Chemscore.Lipo>
124.8076

> <Gold.Chemscore.Internal_Hbond>
0.0000

> <Gold.Chemscore.DEClash>
0.1645

> <Gold.Chemscore.DEInternal>
0.9394

> <Gold.Chemscore.Rot>
1.1519

> <Gold.Chemscore.Internal.Correction>
   9.000000E+99

> <Gold.Chemscore.Hbonds>
donor molecule, donor type, donor heavy atom, donor atom, acceptor molecule, acceptor atom, score
      P1  H  7989  7998       L1    19  0.02

> <Gold.Chemscore.Hbond.Weighted>
-0.0639

> <Gold.Chemscore.Metal.Weighted>
-0.0000

> <Gold.Chemscore.Lipo.Weighted>
-14.6025

> <Gold.Chemscore.Internal_Hbond.Weighted>
0.0000

> <Gold.Chemscore.DEClash.Weighted>
0.1645

> <Gold.Chemscore.DEInternal.Weighted>
0.9394

> <Gold.Chemscore.Rot.Weighted>
2.9487

> <Gold.Chemscore.Internal.Correction.Weighted>
   9.000000E+99

> <Gold.Protein.RotatedTorsions>
[ 6907 6896 6895 6894 ] final  142.32 input  -60.11 | X-H torsion
[ 7974 7965 7964 7962 ] final  153.77 input  175.53 | X-H torsion
[ 8008 7997 7996 7995 ] final   96.44 input   59.86 | X-H torsion
[ 10167 10162 10161 10158 ] final  171.63 input  -65.29 | X-H torsion
[ 10718 10713 10712 10709 ] final -137.42 input   66.30 | X-H torsion
[ 10763 10752 10751 10750 ] final   -6.49 input  -60.55 | X-H torsion
[ 11005 11000 10999 10996 ] final  -12.64 input  -57.11 | X-H torsion

> <Gold.Protein.ActiveResidues>
 VAL166  LYS551  ARG553  GLY616  TRP617  ASP618  TYR619  PRO620  LYS621  CYS622 
 ASP623  PHE694  ASN695  SER759  ASP760  ASP761  ALA762  ILE779  LEU786  VAL792 
 PHE793  MET794  SER795  GLU796  ALA797  LYS798  CYS799  TRP800  GLU811  SER814 

> <Gold.Protein.RotatedAtoms>
  152.2202  133.4977  159.5157 H   0  0  0  0  0  0  0  0  0  0  0  0  # atno 6907 bound_to 6896
  150.7011  134.1353  159.4094 H   0  0  0  0  0  0  0  0  0  0  0  0  # atno 6908 bound_to 6896
  151.9273  135.0272  160.0577 H   0  0  0  0  0  0  0  0  0  0  0  0  # atno 6909 bound_to 6896
  144.8133  139.6844  143.6132 H   0  0  0  0  0  0  0  0  0  0  0  0  # atno 7974 bound_to 7965
  156.0797  140.3272  155.7678 H   0  0  0  0  0  0  0  0  0  0  0  0  # atno 8008 bound_to 7997
  155.5173  140.0582  157.2930 H   0  0  0  0  0  0  0  0  0  0  0  0  # atno 8009 bound_to 7997
  154.4575  140.1950  156.0355 H   0  0  0  0  0  0  0  0  0  0  0  0  # atno 8010 bound_to 7997
  139.5052  144.3464  151.9966 H   0  0  0  0  0  0  0  0  0  0  0  0  # atno 10167 bound_to 10162
  156.2879  130.7358  151.1375 H   0  0  0  0  0  0  0  0  0  0  0  0  # atno 10718 bound_to 10713
  153.4131  135.7008  153.6345 H   0  0  0  0  0  0  0  0  0  0  0  0  # atno 10763 bound_to 10752
  153.4831  135.3689  155.2453 H   0  0  0  0  0  0  0  0  0  0  0  0  # atno 10764 bound_to 10752
  154.8718  135.4071  154.3487 H   0  0  0  0  0  0  0  0  0  0  0  0  # atno 10765 bound_to 10752
  140.7679  133.8462  155.9181 H   0  0  0  0  0  0  0  0  0  0  0  0  # atno 11005 bound_to 11000
  146.2433  139.6047  142.9476 LP  0  0  0  0  0  0  0  0  0  0  0  0  # atno 17320 bound_to 7965
  145.5274  141.0429  143.2402 LP  0  0  0  0  0  0  0  0  0  0  0  0  # atno 17321 bound_to 7965
  140.2901  144.3763  150.6091 LP  0  0  0  0  0  0  0  0  0  0  0  0  # atno 17342 bound_to 10162
  140.5953  143.2167  151.7177 LP  0  0  0  0  0  0  0  0  0  0  0  0  # atno 17343 bound_to 10162
  157.7334  131.0591  150.5580 LP  0  0  0  0  0  0  0  0  0  0  0  0  # atno 17370 bound_to 10713
  156.5693  130.4275  149.6027 LP  0  0  0  0  0  0  0  0  0  0  0  0  # atno 17371 bound_to 10713
  140.9602  134.1666  157.4660 LP  0  0  0  0  0  0  0  0  0  0  0  0  # atno 17394 bound_to 11000
  139.8760  134.9942  156.5681 LP  0  0  0  0  0  0  0  0  0  0  0  0  # atno 17395 bound_to 11000

$$$$
