AV-unprocessed.smi:72|AV-procd|sdf|675|dock7
  -GOLD-   2262016583D 1   1.00000     0.00000
 Structure written by MMmdl.
 29 30  0  0  0  0  0  0  0  0  1 V2000
  153.9448  138.4163  154.7491 N   0  0  0  0  0  0  0  0  0  0  0  0
  152.6971  138.7220  154.7940 C   0  0  0  0  0  0  0  0  0  0  0  0
  151.6827  138.0984  154.0516 N   0  0  0  0  0  0  0  0  0  0  0  0
  150.4613  138.5105  154.1986 C   0  0  0  0  0  0  0  0  0  0  0  0
  150.1121  139.5937  155.1044 N   0  0  0  0  0  0  0  0  0  0  0  0
  148.6775  140.0567  155.2506 C   0  0  2  0  0  0  0  0  0  0  0  0
  147.8528  138.9374  155.3793 O   0  0  0  0  0  0  0  0  0  0  0  0
  146.6427  139.1571  154.6623 C   0  0  2  0  0  0  0  0  0  0  0  0
  145.9330  137.8292  154.3427 C   0  0  0  0  0  0  0  0  0  0  0  0
  145.0212  138.0085  153.2799 O   0  0  0  0  0  0  0  0  0  0  0  0
  147.1002  139.9730  153.4446 C   0  0  2  0  0  0  0  0  0  0  0  0
  147.6104  139.1254  152.4283 O   0  0  0  0  0  0  0  0  0  0  0  0
  148.1731  140.8776  154.0442 C   0  0  2  0  0  0  0  0  0  0  0  0
  149.1609  141.2745  153.1073 O   0  0  0  0  0  0  0  0  0  0  0  0
  151.1251  140.2425  155.8521 C   0  0  0  0  0  0  0  0  0  0  0  0
  150.8908  141.1797  156.6145 O   0  0  0  0  0  0  0  0  0  0  0  0
  152.3771  139.7696  155.6686 N   0  0  0  0  0  0  0  0  0  0  0  0
  148.6239  140.6172  156.1851 H   0  0  0  0  0  0  0  0  0  0  0  0
  145.9941  139.7916  155.2699 H   0  0  0  0  0  0  0  0  0  0  0  0
  146.2796  140.5517  153.0193 H   0  0  0  0  0  0  0  0  0  0  0  0
  147.6993  141.7749  154.4444 H   0  0  0  0  0  0  0  0  0  0  0  0
  154.1016  137.6575  154.1020 H   0  0  0  0  0  0  0  0  0  0  0  0
  149.6223  138.0757  153.6538 H   0  0  0  0  0  0  0  0  0  0  0  0
  146.6608  137.0827  154.0234 H   0  0  0  0  0  0  0  0  0  0  0  0
  145.4197  137.4305  155.2186 H   0  0  0  0  0  0  0  0  0  0  0  0
  144.7069  138.8996  153.3012 H   0  0  0  0  0  0  0  0  0  0  0  0
  148.3879  139.5256  152.0697 H   0  0  0  0  0  0  0  0  0  0  0  0
  149.2760  140.5743  152.4831 H   0  0  0  0  0  0  0  0  0  0  0  0
  153.1207  140.2093  156.1908 H   0  0  0  0  0  0  0  0  0  0  0  0
  1  2  2  0  0  0  0
  1 22  1  0  0  0  0
  2 17  1  0  0  0  0
  2  3  1  0  0  0  0
  3  4  2  0  0  0  0
  4  5  1  0  0  0  0
  4 23  1  0  0  0  0
  5  6  1  0  0  0  0
  5 15  1  0  0  0  0
  6 18  1  0  0  0  0
  6 13  1  0  0  0  0
  6  7  1  0  0  0  0
  7  8  1  0  0  0  0
  8 19  1  0  0  0  0
  8  9  1  0  0  0  0
  8 11  1  0  0  0  0
  9 10  1  0  0  0  0
  9 24  1  0  0  0  0
  9 25  1  0  0  0  0
 10 26  1  0  0  0  0
 11 20  1  0  0  0  0
 11 12  1  0  0  0  0
 11 13  1  0  0  0  0
 12 27  1  0  0  0  0
 13 21  1  0  0  0  0
 13 14  1  0  0  0  0
 14 28  1  0  0  0  0
 15 16  2  0  0  0  0
 15 17  1  0  0  0  0
 17 29  1  0  0  0  0
M  END
> <s_m_source_file>
AV-unprocessed.smi

> <i_m_source_file_index>
72

> <i_lp_mmshare_version>
43012

> <i_f3d_flags>
0

> <s_epik_input>
W05IMl1jMW5bY0hdbihjKD1PKW4xKVtDQEBIXTJPW0NASF0oW0NIMl1bT0hdKVtDQEBIXShbT0hdKVtDQEhdMltPSF0=

> <s_epik_cmdline>
J2VwaWtfcHl0aG9uJywgJy1waCcsICc3LjAnLCAnLXRuJywgJzgnLCAnLW1hJywgJzIwMCcsICctbWV0YWxfYmluZGluZycsICctaW1hZScsICc8aW5maWxlLm1hZT4nLCAnLW9tYWUnLCAnPG91dGZpbGUubWFlPic=

> <r_lp_tautomer_probability>
7.17554e-07

> <r_epik_Ionization_Penalty>
0.0066451

> <r_epik_Ionization_Penalty_Charging>
0.00663793

> <r_epik_Ionization_Penalty_Neutral>
7.17052e-06

> <r_epik_State_Penalty>
0.419231

> <r_epik_Charging_Adjusted_Penalty>
0.425868

> <i_epik_Tot_Q>
0

> <i_epik_Tot_abs_Q>
0

> <r_epik_Metal_State_Penalty>
1.44144

> <b_epik_Metal_Only>
0

> <s_epik_Chemistry_Notes>
This compound contains an acetal/aminal-like group ( X-CH(R)-Y where X, Y are N, S, or O) that may be acid/base labile, releasing an aldehyde.

> <s_lp_Force_Field>
OPLS_2005

> <r_lp_Energy>
49.9877

> <b_lp_Chiralities_Consistent>
1

> <s_lp_Variant>
AV-unprocessed.smi:72-13

> <Gold.Version>
5.8.1

> <Gold.Id.Protein>
6NUR|6NUR_protein|mol2

> <Gold.PLP.Fitness>
40.3383

> <Gold.PLP.PLP>
-26.1618

> <Gold.PLP.part.hbond>
-6.0514

> <Gold.PLP.part.metal>
0.0000

> <Gold.PLP.part.buried>
-5.8862

> <Gold.PLP.part.nonpolar>
-15.7582

> <Gold.PLP.part.repulsive>
0.7016

> <Gold.PLP.ligand.clash>
0.0000

> <Gold.PLP.ligand.torsion>
0.5122

> <Gold.PLP.Chemscore.Hbond>
4.4235

> <Gold.PLP.Chemscore.CHOScore>
0.6413

> <Gold.PLP.Chemscore.Metal>
0.0000

> <Gold.Chemscore.Hbonds>
donor molecule, donor type, donor heavy atom, donor atom, acceptor molecule, acceptor atom, score
      L1  H    10    26       P1 10175  0.96
      L1  H    12    27       P1  7957  1.00
      L1  H    14    28       P1  7957  0.83
      P1  H  7997  8010       L1     1  0.47
      P1  H  8011  8017       L1    14  0.91
      L1  C     4    23       P1  7948  0.77

> <Gold.PLP.Chemscore.Internal.Correction>
0.0065

> <Gold.Rescore>
     Score         DG    S(hbond)    S(metal)    S(lipo)     H(rot)  DE(clash)    DE(int)     intcor
      8.16      -8.89       3.49        0.00      18.34       4.06       0.19       0.53       ----

> <Gold.Chemscore.Fitness>
8.1633

> <Gold.Chemscore.DG>
-8.8904

> <Gold.Chemscore.ZeroCoef>
-5.4800

> <Gold.Chemscore.Hbond>
3.4906

> <Gold.Chemscore.Metal>
0.0000

> <Gold.Chemscore.Lipo>
18.3363

> <Gold.Chemscore.Internal_Hbond>
0.0000

> <Gold.Chemscore.DEClash>
0.1937

> <Gold.Chemscore.DEInternal>
0.5333

> <Gold.Chemscore.Rot>
4.0600

> <Gold.Chemscore.Internal.Correction>
   9.000000E+99

> <Gold.Chemscore.Hbonds>
donor molecule, donor type, donor heavy atom, donor atom, acceptor molecule, acceptor atom, score
      L1  H    10    26       P1 10175  0.87
      L1  H    12    27       P1  7957  0.98
      L1  H    14    28       P1  7957  0.77
      P1  H  7997  8010       L1     1  0.10
      P1  H  8011  8017       L1    14  0.19

> <Gold.Chemscore.Hbond.Weighted>
-11.6586

> <Gold.Chemscore.Metal.Weighted>
-0.0000

> <Gold.Chemscore.Lipo.Weighted>
-2.1453

> <Gold.Chemscore.Internal_Hbond.Weighted>
0.0000

> <Gold.Chemscore.DEClash.Weighted>
0.1937

> <Gold.Chemscore.DEInternal.Weighted>
0.5333

> <Gold.Chemscore.Rot.Weighted>
10.3936

> <Gold.Chemscore.Internal.Correction.Weighted>
   9.000000E+99

> <Gold.Protein.RotatedTorsions>
[ 6907 6896 6895 6894 ] final  -14.20 input  -60.11 | X-H torsion
[ 7974 7965 7964 7962 ] final  -32.95 input  175.53 | X-H torsion
[ 8008 7997 7996 7995 ] final  128.30 input   59.86 | X-H torsion
[ 10167 10162 10161 10158 ] final   45.17 input  -65.29 | X-H torsion
[ 10718 10713 10712 10709 ] final  130.75 input   66.30 | X-H torsion
[ 10763 10752 10751 10750 ] final -123.00 input  -60.55 | X-H torsion
[ 11005 11000 10999 10996 ] final  122.99 input  -57.11 | X-H torsion

> <Gold.Protein.ActiveResidues>
 VAL166  LYS551  ARG553  GLY616  TRP617  ASP618  TYR619  PRO620  LYS621  CYS622 
 ASP623  PHE694  ASN695  SER759  ASP760  ASP761  ALA762  ILE779  LEU786  VAL792 
 PHE793  MET794  SER795  GLU796  ALA797  LYS798  CYS799  TRP800  GLU811  SER814 

> <Gold.Protein.RotatedAtoms>
  151.3431  135.0868  159.9377 H   0  0  0  0  0  0  0  0  0  0  0  0  # atno 6907 bound_to 6896
  152.5206  133.9427  159.7644 H   0  0  0  0  0  0  0  0  0  0  0  0  # atno 6908 bound_to 6896
  150.9788  133.6214  159.2755 H   0  0  0  0  0  0  0  0  0  0  0  0  # atno 6909 bound_to 6896
  146.0950  140.5855  142.8847 H   0  0  0  0  0  0  0  0  0  0  0  0  # atno 7974 bound_to 7965
  156.2911  140.2648  156.2413 H   0  0  0  0  0  0  0  0  0  0  0  0  # atno 8008 bound_to 7997
  154.9974  140.0388  157.2364 H   0  0  0  0  0  0  0  0  0  0  0  0  # atno 8009 bound_to 7997
  154.7632  140.2764  155.6202 H   0  0  0  0  0  0  0  0  0  0  0  0  # atno 8010 bound_to 7997
  140.3268  144.2638  150.6174 H   0  0  0  0  0  0  0  0  0  0  0  0  # atno 10167 bound_to 10162
  157.5033  131.1095  150.9397 H   0  0  0  0  0  0  0  0  0  0  0  0  # atno 10718 bound_to 10713
  154.8700  135.4113  154.2872 H   0  0  0  0  0  0  0  0  0  0  0  0  # atno 10763 bound_to 10752
  153.3754  135.7009  153.6611 H   0  0  0  0  0  0  0  0  0  0  0  0  # atno 10764 bound_to 10752
  153.5455  135.3639  155.2709 H   0  0  0  0  0  0  0  0  0  0  0  0  # atno 10765 bound_to 10752
  139.9292  134.9641  156.8192 H   0  0  0  0  0  0  0  0  0  0  0  0  # atno 11005 bound_to 11000
  144.7388  140.4885  143.6884 LP  0  0  0  0  0  0  0  0  0  0  0  0  # atno 17320 bound_to 7965
  145.5966  139.1500  143.3152 LP  0  0  0  0  0  0  0  0  0  0  0  0  # atno 17321 bound_to 7965
  140.5433  143.2219  151.8048 LP  0  0  0  0  0  0  0  0  0  0  0  0  # atno 17342 bound_to 10162
  139.4864  144.4571  151.9585 LP  0  0  0  0  0  0  0  0  0  0  0  0  # atno 17343 bound_to 10162
  157.0060  130.5618  149.5316 LP  0  0  0  0  0  0  0  0  0  0  0  0  # atno 17370 bound_to 10713
  156.0242  130.5337  150.8362 LP  0  0  0  0  0  0  0  0  0  0  0  0  # atno 17371 bound_to 10713
  140.6248  133.9960  155.7635 LP  0  0  0  0  0  0  0  0  0  0  0  0  # atno 17394 bound_to 11000
  141.0871  133.9974  157.3297 LP  0  0  0  0  0  0  0  0  0  0  0  0  # atno 17395 bound_to 11000

$$$$
