AV-unprocessed.smi:136|AV-procd|sdf|1174|dock1
  -GOLD-   2262018323D 1   1.00000     0.00000
 Structure written by MMmdl.
 54 58  0  0  0  0  0  0  0  0  1 V2000
  150.6724  137.5653  154.1684 O   0  0  0  0  0  0  0  0  0  0  0  0
  150.8710  137.8525  155.3504 C   0  0  0  0  0  0  0  0  0  0  0  0
  151.1084  136.7315  156.3844 C   0  0  0  0  0  0  0  0  0  0  0  0
  149.9652  135.8032  156.5248 N   0  0  0  0  0  0  0  0  0  0  0  0
  149.3202  135.7003  157.7824 C   0  0  0  0  0  0  0  0  0  0  0  0
  149.6895  136.3717  158.7469 O   0  0  0  0  0  0  0  0  0  0  0  0
  148.2152  134.7503  157.8474 C   0  0  0  0  0  0  0  0  0  0  0  0
  147.5484  134.5828  159.0020 F   0  0  0  0  0  0  0  0  0  0  0  0
  147.8524  134.0317  156.7650 C   0  0  0  0  0  0  0  0  0  0  0  0
  148.4904  134.1441  155.5433 N   0  0  0  0  0  0  0  0  0  0  0  0
  148.0679  133.3088  154.3556 C   0  0  1  0  0  0  0  0  0  0  0  0
  149.2055  132.3707  153.9369 C   0  0  0  0  0  0  0  0  0  0  0  0
  148.8497  131.1001  154.6782 C   0  0  0  0  0  0  0  0  0  0  0  0
  147.3265  131.1340  154.6287 C   0  0  0  0  0  0  0  0  0  0  0  0
  146.9772  132.5126  154.7215 O   0  0  0  0  0  0  0  0  0  0  0  0
  149.5808  135.0296  155.4036 C   0  0  0  0  0  0  0  0  0  0  0  0
  150.1889  135.1169  154.3343 O   0  0  0  0  0  0  0  0  0  0  0  0
  150.8992  139.1341  155.7798 N   0  0  0  0  0  0  0  0  0  0  0  0
  151.2619  139.4828  157.0398 N   0  0  0  0  0  0  0  0  0  0  0  0
  151.3642  140.7572  157.1258 C   0  0  0  0  0  0  0  0  0  0  0  0
  151.7508  141.4845  158.3552 C   0  0  0  0  0  0  0  0  0  0  0  0
  151.4538  142.8619  158.4691 C   0  0  0  0  0  0  0  0  0  0  0  0
  151.8208  143.5555  159.6387 C   0  0  0  0  0  0  0  0  0  0  0  0
  152.4786  142.8794  160.6859 C   0  0  0  0  0  0  0  0  0  0  0  0
  152.9267  143.7352  162.1155 Cl  0  0  0  0  0  0  0  0  0  0  0  0
  152.7711  141.5058  160.5677 C   0  0  0  0  0  0  0  0  0  0  0  0
  152.4094  140.8015  159.4026 C   0  0  0  0  0  0  0  0  0  0  0  0
  151.0571  141.4726  155.8537 C   0  0  0  0  0  0  0  0  0  0  0  0
  150.6911  140.3113  154.9258 C   0  0  2  0  0  0  0  0  0  0  0  0
  149.2999  140.4286  154.3702 C   0  0  0  0  0  0  0  0  0  0  0  0
  148.4054  141.4563  154.2307 C   0  0  0  0  0  0  0  0  0  0  0  0
  147.2512  140.9063  153.6085 C   0  0  0  0  0  0  0  0  0  0  0  0
  147.5263  139.5840  153.4089 C   0  0  0  0  0  0  0  0  0  0  0  0
  148.7709  139.2779  153.8652 O   0  0  0  0  0  0  0  0  0  0  0  0
  152.0184  136.1953  156.1106 H   0  0  0  0  0  0  0  0  0  0  0  0
  151.3452  137.1820  157.3497 H   0  0  0  0  0  0  0  0  0  0  0  0
  147.0313  133.3388  156.8737 H   0  0  0  0  0  0  0  0  0  0  0  0
  147.7630  134.0116  153.5786 H   0  0  0  0  0  0  0  0  0  0  0  0
  149.1476  132.2133  152.8592 H   0  0  0  0  0  0  0  0  0  0  0  0
  150.1897  132.7713  154.1835 H   0  0  0  0  0  0  0  0  0  0  0  0
  149.2716  130.2044  154.2219 H   0  0  0  0  0  0  0  0  0  0  0  0
  149.1977  131.1546  155.7105 H   0  0  0  0  0  0  0  0  0  0  0  0
  146.9700  130.7469  153.6731 H   0  0  0  0  0  0  0  0  0  0  0  0
  146.8659  130.5496  155.4252 H   0  0  0  0  0  0  0  0  0  0  0  0
  150.9501  143.3979  157.6776 H   0  0  0  0  0  0  0  0  0  0  0  0
  151.5967  144.6081  159.7310 H   0  0  0  0  0  0  0  0  0  0  0  0
  153.2742  140.9897  161.3723 H   0  0  0  0  0  0  0  0  0  0  0  0
  152.6449  139.7497  159.3365 H   0  0  0  0  0  0  0  0  0  0  0  0
  150.2306  142.1723  155.9867 H   0  0  0  0  0  0  0  0  0  0  0  0
  151.9260  142.0208  155.4876 H   0  0  0  0  0  0  0  0  0  0  0  0
  151.4045  140.2709  154.1006 H   0  0  0  0  0  0  0  0  0  0  0  0
  148.5622  142.4791  154.5407 H   0  0  0  0  0  0  0  0  0  0  0  0
  146.3365  141.4138  153.3399 H   0  0  0  0  0  0  0  0  0  0  0  0
  146.9773  138.7601  152.9772 H   0  0  0  0  0  0  0  0  0  0  0  0
  1  2  2  0  0  0  0
  2  3  1  0  0  0  0
  2 18  1  0  0  0  0
  3  4  1  0  0  0  0
  3 35  1  0  0  0  0
  3 36  1  0  0  0  0
  4 16  1  0  0  0  0
  4  5  1  0  0  0  0
  5  6  2  0  0  0  0
  5  7  1  0  0  0  0
  7  8  1  0  0  0  0
  7  9  2  0  0  0  0
  9 10  1  0  0  0  0
  9 37  1  0  0  0  0
 10 11  1  0  0  0  0
 10 16  1  0  0  0  0
 11 15  1  0  0  0  0
 11 12  1  0  0  0  0
 11 38  1  0  0  0  0
 12 13  1  0  0  0  0
 12 39  1  0  0  0  0
 12 40  1  0  0  0  0
 13 14  1  0  0  0  0
 13 41  1  0  0  0  0
 13 42  1  0  0  0  0
 14 15  1  0  0  0  0
 14 43  1  0  0  0  0
 14 44  1  0  0  0  0
 16 17  2  0  0  0  0
 18 29  1  0  0  0  0
 18 19  1  0  0  0  0
 19 20  2  0  0  0  0
 20 21  1  0  0  0  0
 20 28  1  0  0  0  0
 21 27  1  0  0  0  0
 21 22  2  0  0  0  0
 22 23  1  0  0  0  0
 22 45  1  0  0  0  0
 23 24  2  0  0  0  0
 23 46  1  0  0  0  0
 24 25  1  0  0  0  0
 24 26  1  0  0  0  0
 26 27  2  0  0  0  0
 26 47  1  0  0  0  0
 27 48  1  0  0  0  0
 28 29  1  0  0  0  0
 28 49  1  0  0  0  0
 28 50  1  0  0  0  0
 29 30  1  0  0  0  0
 29 51  1  0  0  0  0
 30 34  1  0  0  0  0
 30 31  2  0  0  0  0
 31 32  1  0  0  0  0
 31 52  1  0  0  0  0
 32 33  2  0  0  0  0
 32 53  1  0  0  0  0
 33 34  1  0  0  0  0
 33 54  1  0  0  0  0
M  END
> <s_m_source_file>
AV-unprocessed.smi

> <i_m_source_file_index>
136

> <i_lp_mmshare_version>
43012

> <i_f3d_flags>
0

> <s_epik_input>
bzFbY0hdW2NIXVtjSF1jMVtDQEBIXTJbQ0gyXUMoYzNbY0hdW2NIXWMoQ2wpW2NIXVtjSF0zKT1OTjJDKD1PKVtDSDJdbjRjKD1PKWMoRilbY0hdbihjND1PKVtDQEBIXTVbQ0gyXVtDSDJdW0NIMl1PNQ==

> <s_epik_cmdline>
J2VwaWtfcHl0aG9uJywgJy1waCcsICc3LjAnLCAnLXRuJywgJzgnLCAnLW1hJywgJzIwMCcsICctbWV0YWxfYmluZGluZycsICctaW1hZScsICc8aW5maWxlLm1hZT4nLCAnLW9tYWUnLCAnPG91dGZpbGUubWFlPic=

> <r_lp_tautomer_probability>
1

> <r_epik_Ionization_Penalty>
2.55467e-08

> <r_epik_Ionization_Penalty_Charging>
4.85705e-09

> <r_epik_Ionization_Penalty_Neutral>
2.06897e-08

> <r_epik_State_Penalty>
-0

> <r_epik_Charging_Adjusted_Penalty>
4.85705e-09

> <i_epik_Tot_Q>
0

> <i_epik_Tot_abs_Q>
0

> <r_epik_Metal_State_Penalty>
-0

> <b_epik_Metal_Only>
0

> <s_epik_Chemistry_Notes>
This compound has an imine and may undergo hydrolysis. This compound contains an acetal/aminal-like group ( X-CH(R)-Y where X, Y are N, S, or O) that may be acid/base labile, releasing an aldehyde.

> <s_lp_Force_Field>
OPLS_2005

> <r_lp_Energy>
39.5424

> <b_lp_Chiralities_Consistent>
1

> <s_lp_Variant>
AV-unprocessed.smi:136-4

> <Gold.Version>
5.8.1

> <Gold.Id.Protein>
6NUR|6NUR_protein|mol2

> <Gold.PLP.Fitness>
52.6136

> <Gold.PLP.PLP>
-50.7225

> <Gold.PLP.part.hbond>
-1.0000

> <Gold.PLP.part.metal>
0.0000

> <Gold.PLP.part.buried>
-4.5776

> <Gold.PLP.part.nonpolar>
-45.9383

> <Gold.PLP.part.repulsive>
2.0030

> <Gold.PLP.ligand.clash>
0.0000

> <Gold.PLP.ligand.torsion>
0.6344

> <Gold.PLP.Chemscore.Hbond>
0.9913

> <Gold.PLP.Chemscore.CHOScore>
0.0000

> <Gold.PLP.Chemscore.Metal>
0.0000

> <Gold.Chemscore.Hbonds>
donor molecule, donor type, donor heavy atom, donor atom, acceptor molecule, acceptor atom, score
      P1  H  6896  6907       L1     6  0.67

> <Gold.PLP.Chemscore.Internal.Correction>
0.1862

> <Gold.Rescore>
     Score         DG    S(hbond)    S(metal)    S(lipo)     H(rot)  DE(clash)    DE(int)     intcor
     13.90     -20.17       0.92        0.00     138.72       1.81       0.94       5.34       ----

> <Gold.Chemscore.Fitness>
13.9037

> <Gold.Chemscore.DG>
-20.1745

> <Gold.Chemscore.ZeroCoef>
-5.4800

> <Gold.Chemscore.Hbond>
0.9239

> <Gold.Chemscore.Metal>
0.0000

> <Gold.Chemscore.Lipo>
138.7249

> <Gold.Chemscore.Internal_Hbond>
0.0000

> <Gold.Chemscore.DEClash>
0.9353

> <Gold.Chemscore.DEInternal>
5.3355

> <Gold.Chemscore.Rot>
1.8056

> <Gold.Chemscore.Internal.Correction>
   9.000000E+99

> <Gold.Chemscore.Hbonds>
donor molecule, donor type, donor heavy atom, donor atom, acceptor molecule, acceptor atom, score
      P1  H  6896  6907       L1     6  0.26

> <Gold.Chemscore.Hbond.Weighted>
-3.0860

> <Gold.Chemscore.Metal.Weighted>
-0.0000

> <Gold.Chemscore.Lipo.Weighted>
-16.2308

> <Gold.Chemscore.Internal_Hbond.Weighted>
0.0000

> <Gold.Chemscore.DEClash.Weighted>
0.9353

> <Gold.Chemscore.DEInternal.Weighted>
5.3355

> <Gold.Chemscore.Rot.Weighted>
4.6223

> <Gold.Chemscore.Internal.Correction.Weighted>
   9.000000E+99

> <Gold.Protein.RotatedTorsions>
[ 6907 6896 6895 6894 ] final  -34.10 input  -60.11 | X-H torsion
[ 7974 7965 7964 7962 ] final  176.33 input  175.53 | X-H torsion
[ 8008 7997 7996 7995 ] final -118.11 input   59.86 | X-H torsion
[ 10167 10162 10161 10158 ] final  103.14 input  -65.29 | X-H torsion
[ 10718 10713 10712 10709 ] final -141.21 input   66.30 | X-H torsion
[ 10763 10752 10751 10750 ] final  -61.46 input  -60.55 | X-H torsion
[ 11005 11000 10999 10996 ] final  -58.30 input  -57.11 | X-H torsion

> <Gold.Protein.ActiveResidues>
 VAL166  LYS551  ARG553  GLY616  TRP617  ASP618  TYR619  PRO620  LYS621  CYS622 
 ASP623  PHE694  ASN695  SER759  ASP760  ASP761  ALA762  ILE779  LEU786  VAL792 
 PHE793  MET794  SER795  GLU796  ALA797  LYS798  CYS799  TRP800  GLU811  SER814 

> <Gold.Protein.RotatedAtoms>
  151.0570  134.9711  159.8240 H   0  0  0  0  0  0  0  0  0  0  0  0  # atno 6907 bound_to 6896
  152.5389  134.2466  159.8892 H   0  0  0  0  0  0  0  0  0  0  0  0  # atno 6908 bound_to 6896
  151.2484  133.4320  159.2644 H   0  0  0  0  0  0  0  0  0  0  0  0  # atno 6909 bound_to 6896
  144.7186  140.0080  143.6440 H   0  0  0  0  0  0  0  0  0  0  0  0  # atno 7974 bound_to 7965
  155.0944  140.0395  157.2678 H   0  0  0  0  0  0  0  0  0  0  0  0  # atno 8008 bound_to 7997
  154.6807  140.2632  155.6886 H   0  0  0  0  0  0  0  0  0  0  0  0  # atno 8009 bound_to 7997
  156.2693  140.2779  156.1350 H   0  0  0  0  0  0  0  0  0  0  0  0  # atno 8010 bound_to 7997
  139.7289  144.7041  151.0754 H   0  0  0  0  0  0  0  0  0  0  0  0  # atno 10167 bound_to 10162
  156.3314  130.7588  151.1706 H   0  0  0  0  0  0  0  0  0  0  0  0  # atno 10718 bound_to 10713
  154.2849  135.6264  153.5362 H   0  0  0  0  0  0  0  0  0  0  0  0  # atno 10763 bound_to 10752
  152.9860  135.5642  154.5454 H   0  0  0  0  0  0  0  0  0  0  0  0  # atno 10764 bound_to 10752
  154.5052  135.2874  155.1363 H   0  0  0  0  0  0  0  0  0  0  0  0  # atno 10765 bound_to 10752
  141.1201  133.6612  156.4900 H   0  0  0  0  0  0  0  0  0  0  0  0  # atno 11005 bound_to 11000
  146.0282  139.3311  143.0771 LP  0  0  0  0  0  0  0  0  0  0  0  0  # atno 17320 bound_to 7965
  145.8486  140.9541  143.0762 LP  0  0  0  0  0  0  0  0  0  0  0  0  # atno 17321 bound_to 7965
  140.7767  143.5069  150.9700 LP  0  0  0  0  0  0  0  0  0  0  0  0  # atno 17342 bound_to 10162
  139.8757  143.7135  152.3162 LP  0  0  0  0  0  0  0  0  0  0  0  0  # atno 17343 bound_to 10162
  157.7431  131.0480  150.4974 LP  0  0  0  0  0  0  0  0  0  0  0  0  # atno 17370 bound_to 10713
  156.5140  130.4146  149.6285 LP  0  0  0  0  0  0  0  0  0  0  0  0  # atno 17371 bound_to 10713
  140.4531  134.6910  157.5049 LP  0  0  0  0  0  0  0  0  0  0  0  0  # atno 17394 bound_to 11000
  140.0153  134.6629  155.9320 LP  0  0  0  0  0  0  0  0  0  0  0  0  # atno 17395 bound_to 11000

$$$$
