AV-unprocessed.smi:112|AV-procd|sdf|1088|dock6
  -GOLD-   2262018183D 1   1.00000     0.00000
 Structure written by MMmdl.
 54 57  0  0  0  0  0  0  0  0  3 V2000
  149.6828  136.9028  159.9029 C   0  0  0  0  0  0  0  0  0  0  0  0
  149.9836  137.2986  158.4657 C   0  0  0  0  0  0  0  0  0  0  0  0
  150.6042  138.4596  158.1533 C   0  0  0  0  0  0  0  0  0  0  0  0
  150.8962  138.8540  156.8571 N   0  0  0  0  0  0  0  0  0  0  0  0
  151.6652  140.1288  156.5316 C   0  0  1  0  0  0  0  0  0  0  0  0
  150.8504  141.4257  156.6448 C   0  0  0  0  0  0  0  0  0  0  0  0
  151.3057  142.0160  157.9796 C   0  0  1  0  0  0  0  0  0  0  0  0
  150.1983  142.2649  158.8221 O   0  0  0  0  0  0  0  0  0  0  0  0
  152.2472  140.9543  158.5772 C   0  0  2  0  0  0  0  0  0  0  0  0
  153.4470  141.5193  159.3530 C   0  0  0  0  0  0  0  0  0  0  0  0
  153.0132  142.2025  160.5100 O   0  0  0  0  0  0  0  0  0  0  0  0
  152.7159  140.2475  157.4360 O   0  0  0  0  0  0  0  0  0  0  0  0
  150.6201  137.9664  155.7941 C   0  0  0  0  0  0  0  0  0  0  0  0
  150.9320  138.2520  154.6355 O   0  0  0  0  0  0  0  0  0  0  0  0
  149.9707  136.7456  156.0856 N   0  0  0  0  0  0  0  0  0  0  0  0
  149.6433  135.8290  154.9693 C   0  0  0  0  0  0  0  0  0  0  0  0
  150.1527  134.3857  155.1770 C   0  0  0  0  0  0  0  0  0  0  0  0
  151.1095  134.1947  155.9286 O   0  0  0  0  0  0  0  0  0  0  0  0
  149.5135  133.3873  154.5174 N   0  0  0  0  0  0  0  0  0  0  0  0
  148.3623  133.6097  153.6251 C   0  0  0  0  0  0  0  0  0  0  0  0
  147.9516  132.2201  153.0912 C   0  0  0  0  0  0  0  0  0  0  0  0
  148.9372  131.2996  153.7480 C   0  0  0  0  0  0  0  0  0  0  0  0
  149.0092  129.9041  153.5998 C   0  0  0  0  0  0  0  0  0  0  0  0
  150.0138  129.1922  154.3013 C   0  0  0  0  0  0  0  0  0  0  0  0
  150.1191  127.7253  154.1708 N   0  3  0  0  0  0  0  0  0  0  0  0
  150.8694  127.1258  154.9340 O   0  0  0  0  0  0  0  0  0  0  0  0
  149.4510  127.1696  153.3046 O   0  5  0  0  0  0  0  0  0  0  0  0
  150.9166  129.9095  155.1307 C   0  0  0  0  0  0  0  0  0  0  0  0
  150.8296  131.3122  155.2680 C   0  0  0  0  0  0  0  0  0  0  0  0
  149.8206  132.0011  154.5604 C   0  0  0  0  0  0  0  0  0  0  0  0
  149.6052  136.3693  157.4004 C   0  0  0  0  0  0  0  0  0  0  0  0
  149.0061  135.3123  157.6082 O   0  0  0  0  0  0  0  0  0  0  0  0
  149.9890  137.6740  160.6104 H   0  0  0  0  0  0  0  0  0  0  0  0
  150.2105  135.9843  160.1623 H   0  0  0  0  0  0  0  0  0  0  0  0
  148.6138  136.7342  160.0376 H   0  0  0  0  0  0  0  0  0  0  0  0
  150.8911  139.0911  158.9776 H   0  0  0  0  0  0  0  0  0  0  0  0
  152.0353  139.9943  155.5142 H   0  0  0  0  0  0  0  0  0  0  0  0
  151.1513  142.0892  155.8331 H   0  0  0  0  0  0  0  0  0  0  0  0
  149.7784  141.2574  156.5395 H   0  0  0  0  0  0  0  0  0  0  0  0
  151.8405  142.9495  157.8001 H   0  0  0  0  0  0  0  0  0  0  0  0
  149.4676  141.7469  158.5214 H   0  0  0  0  0  0  0  0  0  0  0  0
  151.6952  140.2524  159.2051 H   0  0  0  0  0  0  0  0  0  0  0  0
  154.1052  140.7072  159.6629 H   0  0  0  0  0  0  0  0  0  0  0  0
  154.0375  142.1916  158.7298 H   0  0  0  0  0  0  0  0  0  0  0  0
  153.0627  143.1319  160.3476 H   0  0  0  0  0  0  0  0  0  0  0  0
  148.5660  135.8003  154.8007 H   0  0  0  0  0  0  0  0  0  0  0  0
  150.0475  136.2183  154.0341 H   0  0  0  0  0  0  0  0  0  0  0  0
  147.5344  134.0664  154.1691 H   0  0  0  0  0  0  0  0  0  0  0  0
  148.6334  134.2665  152.7977 H   0  0  0  0  0  0  0  0  0  0  0  0
  146.9329  131.9583  153.3793 H   0  0  0  0  0  0  0  0  0  0  0  0
  148.0388  132.1599  152.0059 H   0  0  0  0  0  0  0  0  0  0  0  0
  148.3037  129.3966  152.9582 H   0  0  0  0  0  0  0  0  0  0  0  0
  151.6904  129.3874  155.6741 H   0  0  0  0  0  0  0  0  0  0  0  0
  151.5351  131.8179  155.9079 H   0  0  0  0  0  0  0  0  0  0  0  0
  1  2  1  0  0  0  0
  1 33  1  0  0  0  0
  1 34  1  0  0  0  0
  1 35  1  0  0  0  0
  2 31  1  0  0  0  0
  2  3  2  0  0  0  0
  3  4  1  0  0  0  0
  3 36  1  0  0  0  0
  4  5  1  0  0  0  0
  4 13  1  0  0  0  0
  5 12  1  0  0  0  0
  5  6  1  0  0  0  0
  5 37  1  0  0  0  0
  6  7  1  0  0  0  0
  6 38  1  0  0  0  0
  6 39  1  0  0  0  0
  7  8  1  0  0  0  0
  7  9  1  0  0  0  0
  7 40  1  0  0  0  0
  8 41  1  0  0  0  0
  9 10  1  0  0  0  0
  9 12  1  0  0  0  0
  9 42  1  0  0  0  0
 10 11  1  0  0  0  0
 10 43  1  0  0  0  0
 10 44  1  0  0  0  0
 11 45  1  0  0  0  0
 13 14  2  0  0  0  0
 13 15  1  0  0  0  0
 15 16  1  0  0  0  0
 15 31  1  0  0  0  0
 16 17  1  0  0  0  0
 16 46  1  0  0  0  0
 16 47  1  0  0  0  0
 17 18  2  0  0  0  0
 17 19  1  0  0  0  0
 19 30  1  0  0  0  0
 19 20  1  0  0  0  0
 20 21  1  0  0  0  0
 20 48  1  0  0  0  0
 20 49  1  0  0  0  0
 21 22  1  0  0  0  0
 21 50  1  0  0  0  0
 21 51  1  0  0  0  0
 22 30  2  0  0  0  0
 22 23  1  0  0  0  0
 23 24  2  0  0  0  0
 23 52  1  0  0  0  0
 24 25  1  0  0  0  0
 24 28  1  0  0  0  0
 25 26  2  0  0  0  0
 25 27  1  0  0  0  0
 28 29  2  0  0  0  0
 28 53  1  0  0  0  0
 29 30  1  0  0  0  0
 29 54  1  0  0  0  0
 31 32  2  0  0  0  0
M  CHG  1  25   1
M  CHG  1  27  -1
M  END
> <s_m_source_file>
AV-unprocessed.smi

> <i_m_source_file_index>
112

> <i_lp_mmshare_version>
43012

> <i_f3d_flags>
0

> <s_epik_input>
W09IXVtDSDJdW0NAQEhdKE8xKVtDQEhdKFtPSF0pW0NIMl1bQ0BIXTFuKFtjSF1jMltDSDNdKWMoPU8pbihjMj1PKVtDSDJdQyg9TylOKFtDSDJdW0NIMl0zKWMoYzM0KVtjSF1bY0hdYyhbY0hdNClbTitdKD1PKVtPLV0=

> <s_epik_cmdline>
J2VwaWtfcHl0aG9uJywgJy1waCcsICc3LjAnLCAnLXRuJywgJzgnLCAnLW1hJywgJzIwMCcsICctbWV0YWxfYmluZGluZycsICctaW1hZScsICc8aW5maWxlLm1hZT4nLCAnLW9tYWUnLCAnPG91dGZpbGUubWFlPic=

> <r_lp_tautomer_probability>
1

> <r_epik_Ionization_Penalty>
2.5696e-07

> <r_epik_Ionization_Penalty_Charging>
1.04886e-08

> <r_epik_Ionization_Penalty_Neutral>
2.46472e-07

> <r_epik_State_Penalty>
-0

> <r_epik_Charging_Adjusted_Penalty>
1.04886e-08

> <i_epik_Tot_Q>
0

> <i_epik_Tot_abs_Q>
2

> <r_epik_Metal_State_Penalty>
-0

> <b_epik_Metal_Only>
0

> <s_epik_Chemistry_Notes>
This compound contains an acetal/aminal-like group ( X-CH(R)-Y where X, Y are N, S, or O) that may be acid/base labile, releasing an aldehyde.

> <s_lp_Force_Field>
OPLS_2005

> <r_lp_Energy>
55.094

> <b_lp_Chiralities_Consistent>
1

> <s_lp_Variant>
AV-unprocessed.smi:112-6

> <Gold.Version>
5.8.1

> <Gold.Id.Protein>
6NUR|6NUR_protein|mol2

> <Gold.PLP.Fitness>
46.2120

> <Gold.PLP.PLP>
-44.6866

> <Gold.PLP.part.hbond>
-1.6486

> <Gold.PLP.part.metal>
0.0000

> <Gold.PLP.part.buried>
-2.6917

> <Gold.PLP.part.nonpolar>
-39.2928

> <Gold.PLP.part.repulsive>
0.3227

> <Gold.PLP.ligand.clash>
0.0000

> <Gold.PLP.ligand.torsion>
0.7777

> <Gold.PLP.Chemscore.Hbond>
1.0000

> <Gold.PLP.Chemscore.CHOScore>
0.0000

> <Gold.PLP.Chemscore.Metal>
0.0000

> <Gold.Chemscore.Hbonds>
donor molecule, donor type, donor heavy atom, donor atom, acceptor molecule, acceptor atom, score
      P1  H  7997  8008       L1    12  0.99

> <Gold.PLP.Chemscore.Internal.Correction>
0.0808

> <Gold.Rescore>
     Score         DG    S(hbond)    S(metal)    S(lipo)     H(rot)  DE(clash)    DE(int)     intcor
      5.91     -10.23       0.95        0.00      85.60       3.29       0.19       4.13       ----

> <Gold.Chemscore.Fitness>
5.9119

> <Gold.Chemscore.DG>
-10.2327

> <Gold.Chemscore.ZeroCoef>
-5.4800

> <Gold.Chemscore.Hbond>
0.9473

> <Gold.Chemscore.Metal>
0.0000

> <Gold.Chemscore.Lipo>
85.5996

> <Gold.Chemscore.Internal_Hbond>
0.0000

> <Gold.Chemscore.DEClash>
0.1904

> <Gold.Chemscore.DEInternal>
4.1304

> <Gold.Chemscore.Rot>
3.2916

> <Gold.Chemscore.Internal.Correction>
   9.000000E+99

> <Gold.Chemscore.Hbonds>
donor molecule, donor type, donor heavy atom, donor atom, acceptor molecule, acceptor atom, score
      P1  H  7997  8008       L1    12  0.82

> <Gold.Chemscore.Hbond.Weighted>
-3.1641

> <Gold.Chemscore.Metal.Weighted>
-0.0000

> <Gold.Chemscore.Lipo.Weighted>
-10.0152

> <Gold.Chemscore.Internal_Hbond.Weighted>
0.0000

> <Gold.Chemscore.DEClash.Weighted>
0.1904

> <Gold.Chemscore.DEInternal.Weighted>
4.1304

> <Gold.Chemscore.Rot.Weighted>
8.4265

> <Gold.Chemscore.Internal.Correction.Weighted>
   9.000000E+99

> <Gold.Protein.RotatedTorsions>
[ 6907 6896 6895 6894 ] final -136.18 input  -60.11 | X-H torsion
[ 7974 7965 7964 7962 ] final  -34.54 input  175.53 | X-H torsion
[ 8008 7997 7996 7995 ] final  -62.26 input   59.86 | X-H torsion
[ 10167 10162 10161 10158 ] final   -9.56 input  -65.29 | X-H torsion
[ 10718 10713 10712 10709 ] final  106.58 input   66.30 | X-H torsion
[ 10763 10752 10751 10750 ] final  118.85 input  -60.55 | X-H torsion
[ 11005 11000 10999 10996 ] final  -29.10 input  -57.11 | X-H torsion

> <Gold.Protein.ActiveResidues>
 VAL166  LYS551  ARG553  GLY616  TRP617  ASP618  TYR619  PRO620  LYS621  CYS622 
 ASP623  PHE694  ASN695  SER759  ASP760  ASP761  ALA762  ILE779  LEU786  VAL792 
 PHE793  MET794  SER795  GLU796  ALA797  LYS798  CYS799  TRP800  GLU811  SER814 

> <Gold.Protein.RotatedAtoms>
  151.0069  133.6003  159.2687 H   0  0  0  0  0  0  0  0  0  0  0  0  # atno 6907 bound_to 6896
  151.3169  135.0807  159.9302 H   0  0  0  0  0  0  0  0  0  0  0  0  # atno 6908 bound_to 6896
  152.5289  133.9723  159.7822 H   0  0  0  0  0  0  0  0  0  0  0  0  # atno 6909 bound_to 6896
  146.0821  140.6051  142.8903 H   0  0  0  0  0  0  0  0  0  0  0  0  # atno 7974 bound_to 7965
  154.4490  140.1000  156.6559 H   0  0  0  0  0  0  0  0  0  0  0  0  # atno 8008 bound_to 7997
  155.5347  140.3482  155.4415 H   0  0  0  0  0  0  0  0  0  0  0  0  # atno 8009 bound_to 7997
  156.0640  140.1333  156.9897 H   0  0  0  0  0  0  0  0  0  0  0  0  # atno 8010 bound_to 7997
  140.7090  143.5844  150.8958 H   0  0  0  0  0  0  0  0  0  0  0  0  # atno 10167 bound_to 10162
  157.6662  131.0854  150.6029 H   0  0  0  0  0  0  0  0  0  0  0  0  # atno 10718 bound_to 10713
  153.5740  135.3496  155.2849 H   0  0  0  0  0  0  0  0  0  0  0  0  # atno 10763 bound_to 10752
  154.8678  135.4166  154.2693 H   0  0  0  0  0  0  0  0  0  0  0  0  # atno 10764 bound_to 10752
  153.3465  135.7053  153.6893 H   0  0  0  0  0  0  0  0  0  0  0  0  # atno 10765 bound_to 10752
  140.9267  133.7364  156.0877 H   0  0  0  0  0  0  0  0  0  0  0  0  # atno 11005 bound_to 11000
  144.7300  140.4643  143.6945 LP  0  0  0  0  0  0  0  0  0  0  0  0  # atno 17320 bound_to 7965
  145.6199  139.1523  143.3028 LP  0  0  0  0  0  0  0  0  0  0  0  0  # atno 17321 bound_to 7965
  139.9570  143.6207  152.3013 LP  0  0  0  0  0  0  0  0  0  0  0  0  # atno 17342 bound_to 10162
  139.6746  144.7659  151.1720 LP  0  0  0  0  0  0  0  0  0  0  0  0  # atno 17343 bound_to 10162
  156.6329  130.4437  149.5780 LP  0  0  0  0  0  0  0  0  0  0  0  0  # atno 17370 bound_to 10713
  156.2268  130.6770  151.1423 LP  0  0  0  0  0  0  0  0  0  0  0  0  # atno 17371 bound_to 10713
  140.7917  134.3610  157.5463 LP  0  0  0  0  0  0  0  0  0  0  0  0  # atno 17394 bound_to 11000
  139.8787  134.9144  156.3107 LP  0  0  0  0  0  0  0  0  0  0  0  0  # atno 17395 bound_to 11000

$$$$
