AV-unprocessed.smi:2771|AV-procd|sdf|10663|dock2
  -GOLD-   2272015113D 1   1.00000     0.00000
 Structure written by MMmdl.
 43 44  0  0  0  0  0  0  0  0  1 V2000
  153.6612  141.2054  159.9097 C   0  0  0  0  0  0  0  0  0  0  0  0
  152.8740  142.3667  159.3400 C   0  0  0  0  0  0  0  0  0  0  0  0
  153.1138  143.6866  159.7698 C   0  0  0  0  0  0  0  0  0  0  0  0
  152.3468  144.7185  159.2004 C   0  0  0  0  0  0  0  0  0  0  0  0
  151.3794  144.3912  158.2308 C   0  0  0  0  0  0  0  0  0  0  0  0
  151.2033  143.0409  157.8532 C   0  0  0  0  0  0  0  0  0  0  0  0
  150.2097  142.8174  156.8634 N   0  0  0  0  0  0  0  0  0  0  0  0
  149.9776  141.6974  156.1559 C   0  0  0  0  0  0  0  0  0  0  0  0
  150.5831  140.6330  156.2847 O   0  0  0  0  0  0  0  0  0  0  0  0
  148.9877  141.8810  155.2719 N   0  0  0  0  0  0  0  0  0  0  0  0
  148.5196  140.8728  154.3271 C   0  0  0  0  0  0  0  0  0  0  0  0
  147.3798  141.4343  153.4511 C   0  0  1  0  0  0  0  0  0  0  0  0
  146.4437  140.3832  153.2952 O   0  0  0  0  0  0  0  0  0  0  0  0
  146.6376  142.6548  154.0614 C   0  0  0  0  0  0  0  0  0  0  0  0
  145.6812  142.2224  155.2018 C   0  0  0  0  0  0  0  0  0  0  0  0
  144.9364  143.4138  155.8240 C   0  0  0  0  0  0  0  0  0  0  0  0
  144.1536  144.1932  154.7605 C   0  0  0  0  0  0  0  0  0  0  0  0
  145.0844  144.6474  153.6289 C   0  0  0  0  0  0  0  0  0  0  0  0
  145.8370  143.4587  153.0074 C   0  0  0  0  0  0  0  0  0  0  0  0
  151.9470  142.0524  158.4096 N   0  0  0  0  0  0  0  0  0  0  0  0
  154.3880  141.5445  160.6484 H   0  0  0  0  0  0  0  0  0  0  0  0
  154.1997  140.6867  159.1159 H   0  0  0  0  0  0  0  0  0  0  0  0
  152.9913  140.4935  160.3926 H   0  0  0  0  0  0  0  0  0  0  0  0
  153.8643  143.9054  160.5151 H   0  0  0  0  0  0  0  0  0  0  0  0
  152.4974  145.7450  159.5004 H   0  0  0  0  0  0  0  0  0  0  0  0
  150.7831  145.1729  157.7830 H   0  0  0  0  0  0  0  0  0  0  0  0
  149.6227  143.6105  156.6521 H   0  0  0  0  0  0  0  0  0  0  0  0
  148.5369  142.7836  155.2370 H   0  0  0  0  0  0  0  0  0  0  0  0
  149.3369  140.5083  153.7018 H   0  0  0  0  0  0  0  0  0  0  0  0
  148.1776  140.0295  154.9251 H   0  0  0  0  0  0  0  0  0  0  0  0
  147.7696  141.7041  152.4684 H   0  0  0  0  0  0  0  0  0  0  0  0
  145.6527  140.7394  152.9211 H   0  0  0  0  0  0  0  0  0  0  0  0
  147.3870  143.3239  154.4878 H   0  0  0  0  0  0  0  0  0  0  0  0
  144.9562  141.5028  154.8191 H   0  0  0  0  0  0  0  0  0  0  0  0
  146.2302  141.7109  155.9925 H   0  0  0  0  0  0  0  0  0  0  0  0
  144.2576  143.0621  156.6015 H   0  0  0  0  0  0  0  0  0  0  0  0
  145.6508  144.0767  156.3141 H   0  0  0  0  0  0  0  0  0  0  0  0
  143.3596  143.5652  154.3547 H   0  0  0  0  0  0  0  0  0  0  0  0
  143.6663  145.0568  155.2139 H   0  0  0  0  0  0  0  0  0  0  0  0
  144.5084  145.1646  152.8611 H   0  0  0  0  0  0  0  0  0  0  0  0
  145.8025  145.3718  154.0156 H   0  0  0  0  0  0  0  0  0  0  0  0
  146.4968  143.8513  152.2356 H   0  0  0  0  0  0  0  0  0  0  0  0
  145.1271  142.8012  152.5038 H   0  0  0  0  0  0  0  0  0  0  0  0
  1  2  1  0  0  0  0
  1 21  1  0  0  0  0
  1 22  1  0  0  0  0
  1 23  1  0  0  0  0
  2 20  1  0  0  0  0
  2  3  2  0  0  0  0
  3  4  1  0  0  0  0
  3 24  1  0  0  0  0
  4  5  2  0  0  0  0
  4 25  1  0  0  0  0
  5  6  1  0  0  0  0
  5 26  1  0  0  0  0
  6  7  1  0  0  0  0
  6 20  2  0  0  0  0
  7  8  1  0  0  0  0
  7 27  1  0  0  0  0
  8  9  2  0  0  0  0
  8 10  1  0  0  0  0
 10 11  1  0  0  0  0
 10 28  1  0  0  0  0
 11 12  1  0  0  0  0
 11 29  1  0  0  0  0
 11 30  1  0  0  0  0
 12 13  1  0  0  0  0
 12 14  1  0  0  0  0
 12 31  1  0  0  0  0
 13 32  1  0  0  0  0
 14 19  1  0  0  0  0
 14 15  1  0  0  0  0
 14 33  1  0  0  0  0
 15 16  1  0  0  0  0
 15 34  1  0  0  0  0
 15 35  1  0  0  0  0
 16 17  1  0  0  0  0
 16 36  1  0  0  0  0
 16 37  1  0  0  0  0
 17 18  1  0  0  0  0
 17 38  1  0  0  0  0
 17 39  1  0  0  0  0
 18 19  1  0  0  0  0
 18 40  1  0  0  0  0
 18 41  1  0  0  0  0
 19 42  1  0  0  0  0
 19 43  1  0  0  0  0
M  END
> <s_m_source_file>
AV-unprocessed.smi

> <i_m_source_file_index>
2771

> <i_lp_mmshare_version>
43012

> <i_f3d_flags>
0

> <s_epik_input>
W0NIM11jMVtjSF1bY0hdW2NIXWMobjEpW05IXUMoPU8pW05IXVtDSDJdW0NASF0oW09IXSlbQ0hdMltDSDJdW0NIMl1bQ0gyXVtDSDJdW0NIMl0y

> <s_epik_cmdline>
J2VwaWtfcHl0aG9uJywgJy1waCcsICc3LjAnLCAnLXRuJywgJzgnLCAnLW1hJywgJzIwMCcsICctbWV0YWxfYmluZGluZycsICctaW1hZScsICc8aW5maWxlLm1hZT4nLCAnLW9tYWUnLCAnPG91dGZpbGUubWFlPic=

> <r_lp_tautomer_probability>
1

> <r_epik_Ionization_Penalty>
8.92802e-05

> <r_epik_Ionization_Penalty_Charging>
0

> <r_epik_Ionization_Penalty_Neutral>
8.92802e-05

> <r_epik_State_Penalty>
-0

> <r_epik_Charging_Adjusted_Penalty>
0

> <i_epik_Tot_Q>
0

> <i_epik_Tot_abs_Q>
0

> <r_epik_Metal_State_Penalty>
-0

> <b_epik_Metal_Only>
0

> <s_lp_Force_Field>
OPLS_2005

> <r_lp_Energy>
17.4783

> <b_lp_Chiralities_Consistent>
1

> <s_lp_Variant>
AV-unprocessed.smi:2771-2

> <Gold.Version>
5.8.1

> <Gold.Id.Protein>
6NUR|6NUR_protein|mol2

> <Gold.PLP.Fitness>
52.4878

> <Gold.PLP.PLP>
-45.7290

> <Gold.PLP.part.hbond>
-3.0000

> <Gold.PLP.part.metal>
0.0000

> <Gold.PLP.part.buried>
-8.4407

> <Gold.PLP.part.nonpolar>
-34.8339

> <Gold.PLP.part.repulsive>
0.2150

> <Gold.PLP.ligand.clash>
0.0000

> <Gold.PLP.ligand.torsion>
0.8734

> <Gold.PLP.Chemscore.Hbond>
2.8240

> <Gold.PLP.Chemscore.CHOScore>
0.0000

> <Gold.PLP.Chemscore.Metal>
0.0000

> <Gold.Chemscore.Hbonds>
donor molecule, donor type, donor heavy atom, donor atom, acceptor molecule, acceptor atom, score
      L1  H     7    27       P1  8028  1.00
      L1  H    10    28       P1  8028  0.83
      L1  H    13    32       P1 10175  0.98

> <Gold.PLP.Chemscore.Internal.Correction>
0.0335

> <Gold.Rescore>
     Score         DG    S(hbond)    S(metal)    S(lipo)     H(rot)  DE(clash)    DE(int)     intcor
     19.32     -21.74       2.60        0.00     107.40       1.95       0.26       2.16       ----

> <Gold.Chemscore.Fitness>
19.3209

> <Gold.Chemscore.DG>
-21.7404

> <Gold.Chemscore.ZeroCoef>
-5.4800

> <Gold.Chemscore.Hbond>
2.6036

> <Gold.Chemscore.Metal>
0.0000

> <Gold.Chemscore.Lipo>
107.3976

> <Gold.Chemscore.Internal_Hbond>
0.0000

> <Gold.Chemscore.DEClash>
0.2605

> <Gold.Chemscore.DEInternal>
2.1590

> <Gold.Chemscore.Rot>
1.9536

> <Gold.Chemscore.Internal.Correction>
   9.000000E+99

> <Gold.Chemscore.Hbonds>
donor molecule, donor type, donor heavy atom, donor atom, acceptor molecule, acceptor atom, score
      L1  H     7    27       P1  8028  0.98
      L1  H    10    28       P1  8028  0.80
      L1  H    13    32       P1 10175  0.48

> <Gold.Chemscore.Hbond.Weighted>
-8.6961

> <Gold.Chemscore.Metal.Weighted>
-0.0000

> <Gold.Chemscore.Lipo.Weighted>
-12.5655

> <Gold.Chemscore.Internal_Hbond.Weighted>
0.0000

> <Gold.Chemscore.DEClash.Weighted>
0.2605

> <Gold.Chemscore.DEInternal.Weighted>
2.1590

> <Gold.Chemscore.Rot.Weighted>
5.0013

> <Gold.Chemscore.Internal.Correction.Weighted>
   9.000000E+99

> <Gold.Protein.RotatedTorsions>
[ 6907 6896 6895 6894 ] final  178.38 input  -60.11 | X-H torsion
[ 7974 7965 7964 7962 ] final -149.61 input  175.53 | X-H torsion
[ 8008 7997 7996 7995 ] final -160.68 input   59.86 | X-H torsion
[ 10167 10162 10161 10158 ] final -121.73 input  -65.29 | X-H torsion
[ 10718 10713 10712 10709 ] final  -28.91 input   66.30 | X-H torsion
[ 10763 10752 10751 10750 ] final  157.88 input  -60.55 | X-H torsion
[ 11005 11000 10999 10996 ] final  -38.92 input  -57.11 | X-H torsion

> <Gold.Protein.ActiveResidues>
 VAL166  LYS551  ARG553  GLY616  TRP617  ASP618  TYR619  PRO620  LYS621  CYS622 
 ASP623  PHE694  ASN695  SER759  ASP760  ASP761  ALA762  ILE779  LEU786  VAL792 
 PHE793  MET794  SER795  GLU796  ALA797  LYS798  CYS799  TRP800  GLU811  SER814 

> <Gold.Protein.RotatedAtoms>
  151.6887  133.3311  159.3237 H   0  0  0  0  0  0  0  0  0  0  0  0  # atno 6907 bound_to 6896
  150.7789  134.6717  159.6405 H   0  0  0  0  0  0  0  0  0  0  0  0  # atno 6908 bound_to 6896
  152.3840  134.6549  160.0184 H   0  0  0  0  0  0  0  0  0  0  0  0  # atno 6909 bound_to 6896
  144.7957  140.5042  143.5742 H   0  0  0  0  0  0  0  0  0  0  0  0  # atno 7974 bound_to 7965
  155.7810  140.0865  157.2059 H   0  0  0  0  0  0  0  0  0  0  0  0  # atno 8008 bound_to 7997
  154.3990  140.1508  156.3109 H   0  0  0  0  0  0  0  0  0  0  0  0  # atno 8009 bound_to 7997
  155.8654  140.3428  155.5787 H   0  0  0  0  0  0  0  0  0  0  0  0  # atno 8010 bound_to 7997
  140.0218  143.5336  152.2217 H   0  0  0  0  0  0  0  0  0  0  0  0  # atno 10167 bound_to 10162
  156.4192  130.4423  149.7196 H   0  0  0  0  0  0  0  0  0  0  0  0  # atno 10718 bound_to 10713
  154.2072  135.2787  155.2971 H   0  0  0  0  0  0  0  0  0  0  0  0  # atno 10763 bound_to 10752
  154.5807  135.5590  153.7186 H   0  0  0  0  0  0  0  0  0  0  0  0  # atno 10764 bound_to 10752
  153.0073  135.6344  154.2211 H   0  0  0  0  0  0  0  0  0  0  0  0  # atno 10765 bound_to 10752
  141.0064  133.6929  156.2118 H   0  0  0  0  0  0  0  0  0  0  0  0  # atno 11005 bound_to 11000
  145.5679  139.1482  143.3304 LP  0  0  0  0  0  0  0  0  0  0  0  0  # atno 17320 bound_to 7965
  146.2224  140.5814  142.9011 LP  0  0  0  0  0  0  0  0  0  0  0  0  # atno 17321 bound_to 7965
  139.6134  144.7614  151.2900 LP  0  0  0  0  0  0  0  0  0  0  0  0  # atno 17342 bound_to 10162
  140.7339  143.6781  150.8024 LP  0  0  0  0  0  0  0  0  0  0  0  0  # atno 17343 bound_to 10162
  156.4144  130.7738  151.2752 LP  0  0  0  0  0  0  0  0  0  0  0  0  # atno 17370 bound_to 10713
  157.7508  131.0202  150.3697 LP  0  0  0  0  0  0  0  0  0  0  0  0  # atno 17371 bound_to 10713
  140.6806  134.4771  157.5589 LP  0  0  0  0  0  0  0  0  0  0  0  0  # atno 17394 bound_to 11000
  139.9066  134.8437  156.1685 LP  0  0  0  0  0  0  0  0  0  0  0  0  # atno 17395 bound_to 11000

$$$$
