AV-unprocessed.smi:24|AV-procd|sdf|178|dock2
  -GOLD-   2262015443D 1   1.00000     0.00000
 Structure written by MMmdl.
 61 65  0  0  0  0  0  0  0  0  1 V2000
  149.6580  129.6422  160.5748 C   0  0  0  0  0  0  0  0  0  0  0  0
  148.7847  129.3869  159.4844 O   0  0  0  0  0  0  0  0  0  0  0  0
  149.0060  130.0645  158.3047 C   0  0  0  0  0  0  0  0  0  0  0  0
  148.1039  129.8244  157.2487 C   0  0  0  0  0  0  0  0  0  0  0  0
  148.2596  130.4671  156.0056 C   0  0  0  0  0  0  0  0  0  0  0  0
  149.3268  131.3632  155.7959 C   0  0  0  0  0  0  0  0  0  0  0  0
  149.4802  132.0435  154.4360 C   0  0  1  0  0  0  0  0  0  0  0  0
  148.4326  131.5648  153.4269 C   0  0  0  0  0  0  0  0  0  0  0  0
  147.7913  132.8509  153.0253 C   0  0  0  0  0  0  0  0  0  0  0  0
  146.6906  132.8974  152.0371 C   0  0  0  0  0  0  0  0  0  0  0  0
  146.2049  131.6916  151.4816 C   0  0  0  0  0  0  0  0  0  0  0  0
  145.1520  131.7339  150.5468 C   0  0  0  0  0  0  0  0  0  0  0  0
  144.5888  132.9692  150.1704 C   0  0  0  0  0  0  0  0  0  0  0  0
  145.0768  134.1685  150.7263 C   0  0  0  0  0  0  0  0  0  0  0  0
  146.1298  134.1394  151.6620 C   0  0  0  0  0  0  0  0  0  0  0  0
  148.2826  133.8794  153.6111 N   0  0  0  0  0  0  0  0  0  0  0  0
  149.2821  133.4992  154.4459 N   0  0  0  0  0  0  0  0  0  0  0  0
  150.0621  134.3772  155.1146 C   0  0  0  0  0  0  0  0  0  0  0  0
  151.0486  134.0134  155.7576 O   0  0  0  0  0  0  0  0  0  0  0  0
  149.6951  135.8750  155.0537 C   0  0  0  0  0  0  0  0  0  0  0  0
  149.8968  136.5809  156.3376 N   0  0  0  0  0  0  0  0  0  0  0  0
  149.3251  136.0375  157.5144 C   0  0  0  0  0  0  0  0  0  0  0  0
  148.6749  134.9916  157.4854 O   0  0  0  0  0  0  0  0  0  0  0  0
  149.5548  136.8009  158.7360 C   0  0  0  0  0  0  0  0  0  0  0  0
  149.0602  136.3538  159.9028 F   0  0  0  0  0  0  0  0  0  0  0  0
  150.2579  137.9520  158.7154 C   0  0  0  0  0  0  0  0  0  0  0  0
  150.7965  138.4792  157.5552 N   0  0  0  0  0  0  0  0  0  0  0  0
  151.5687  139.7808  157.5455 C   0  0  1  0  0  0  0  0  0  0  0  0
  150.7013  140.9271  158.0974 C   0  0  0  0  0  0  0  0  0  0  0  0
  151.6109  141.5648  159.1281 C   0  0  0  0  0  0  0  0  0  0  0  0
  152.4439  140.3779  159.5879 C   0  0  0  0  0  0  0  0  0  0  0  0
  152.6903  139.6755  158.3764 O   0  0  0  0  0  0  0  0  0  0  0  0
  150.6249  137.7945  156.3330 C   0  0  0  0  0  0  0  0  0  0  0  0
  151.0917  138.2510  155.2867 O   0  0  0  0  0  0  0  0  0  0  0  0
  150.2260  131.6209  156.8542 C   0  0  0  0  0  0  0  0  0  0  0  0
  150.0715  130.9756  158.0962 C   0  0  0  0  0  0  0  0  0  0  0  0
  149.3670  129.0204  161.4213 H   0  0  0  0  0  0  0  0  0  0  0  0
  149.6008  130.6834  160.8955 H   0  0  0  0  0  0  0  0  0  0  0  0
  150.6910  129.3963  160.3251 H   0  0  0  0  0  0  0  0  0  0  0  0
  147.2841  129.1359  157.3922 H   0  0  0  0  0  0  0  0  0  0  0  0
  147.5578  130.2641  155.2100 H   0  0  0  0  0  0  0  0  0  0  0  0
  150.4797  131.8400  154.0465 H   0  0  0  0  0  0  0  0  0  0  0  0
  148.8971  131.0665  152.5753 H   0  0  0  0  0  0  0  0  0  0  0  0
  147.7017  130.8893  153.8739 H   0  0  0  0  0  0  0  0  0  0  0  0
  146.6224  130.7341  151.7581 H   0  0  0  0  0  0  0  0  0  0  0  0
  144.7752  130.8167  150.1185 H   0  0  0  0  0  0  0  0  0  0  0  0
  143.7807  132.9967  149.4542 H   0  0  0  0  0  0  0  0  0  0  0  0
  144.6416  135.1133  150.4349 H   0  0  0  0  0  0  0  0  0  0  0  0
  146.4846  135.0720  152.0748 H   0  0  0  0  0  0  0  0  0  0  0  0
  150.2691  136.3378  154.2497 H   0  0  0  0  0  0  0  0  0  0  0  0
  148.6565  135.9779  154.7342 H   0  0  0  0  0  0  0  0  0  0  0  0
  150.3933  138.4668  159.6540 H   0  0  0  0  0  0  0  0  0  0  0  0
  151.8979  139.9250  156.5149 H   0  0  0  0  0  0  0  0  0  0  0  0
  150.4021  141.6106  157.3023 H   0  0  0  0  0  0  0  0  0  0  0  0
  149.8065  140.5264  158.5765 H   0  0  0  0  0  0  0  0  0  0  0  0
  152.2511  142.3104  158.6549 H   0  0  0  0  0  0  0  0  0  0  0  0
  151.0662  142.0452  159.9414 H   0  0  0  0  0  0  0  0  0  0  0  0
  153.3726  140.6759  160.0747 H   0  0  0  0  0  0  0  0  0  0  0  0
  151.8775  139.7513  160.2782 H   0  0  0  0  0  0  0  0  0  0  0  0
  151.0445  132.3128  156.7194 H   0  0  0  0  0  0  0  0  0  0  0  0
  150.7860  131.1974  158.8743 H   0  0  0  0  0  0  0  0  0  0  0  0
  1  2  1  0  0  0  0
  1 37  1  0  0  0  0
  1 38  1  0  0  0  0
  1 39  1  0  0  0  0
  2  3  1  0  0  0  0
  3 36  1  0  0  0  0
  3  4  2  0  0  0  0
  4  5  1  0  0  0  0
  4 40  1  0  0  0  0
  5  6  2  0  0  0  0
  5 41  1  0  0  0  0
  6  7  1  0  0  0  0
  6 35  1  0  0  0  0
  7 17  1  0  0  0  0
  7  8  1  0  0  0  0
  7 42  1  0  0  0  0
  8  9  1  0  0  0  0
  8 43  1  0  0  0  0
  8 44  1  0  0  0  0
  9 10  1  0  0  0  0
  9 16  2  0  0  0  0
 10 15  1  0  0  0  0
 10 11  2  0  0  0  0
 11 12  1  0  0  0  0
 11 45  1  0  0  0  0
 12 13  2  0  0  0  0
 12 46  1  0  0  0  0
 13 14  1  0  0  0  0
 13 47  1  0  0  0  0
 14 15  2  0  0  0  0
 14 48  1  0  0  0  0
 15 49  1  0  0  0  0
 16 17  1  0  0  0  0
 17 18  1  0  0  0  0
 18 19  2  0  0  0  0
 18 20  1  0  0  0  0
 20 21  1  0  0  0  0
 20 50  1  0  0  0  0
 20 51  1  0  0  0  0
 21 33  1  0  0  0  0
 21 22  1  0  0  0  0
 22 23  2  0  0  0  0
 22 24  1  0  0  0  0
 24 25  1  0  0  0  0
 24 26  2  0  0  0  0
 26 27  1  0  0  0  0
 26 52  1  0  0  0  0
 27 28  1  0  0  0  0
 27 33  1  0  0  0  0
 28 32  1  0  0  0  0
 28 29  1  0  0  0  0
 28 53  1  0  0  0  0
 29 30  1  0  0  0  0
 29 54  1  0  0  0  0
 29 55  1  0  0  0  0
 30 31  1  0  0  0  0
 30 56  1  0  0  0  0
 30 57  1  0  0  0  0
 31 32  1  0  0  0  0
 31 58  1  0  0  0  0
 31 59  1  0  0  0  0
 33 34  2  0  0  0  0
 35 36  2  0  0  0  0
 35 60  1  0  0  0  0
 36 61  1  0  0  0  0
M  END
> <s_m_source_file>
AV-unprocessed.smi

> <i_m_source_file_index>
24

> <i_lp_mmshare_version>
43012

> <i_f3d_flags>
0

> <s_epik_input>
W0NIM11PYzFbY0hdW2NIXWMoW2NIXVtjSF0xKVtDQEBIXTJbQ0gyXUMoYzNbY0hdW2NIXVtjSF1bY0hdW2NIXTMpPU5OMkMoPU8pW0NIMl1uNGMoPU8pYyhGKVtjSF1uKGM0PU8pW0NAQEhdNVtDSDJdW0NIMl1bQ0gyXU81

> <s_epik_cmdline>
J2VwaWtfcHl0aG9uJywgJy1waCcsICc3LjAnLCAnLXRuJywgJzgnLCAnLW1hJywgJzIwMCcsICctbWV0YWxfYmluZGluZycsICctaW1hZScsICc8aW5maWxlLm1hZT4nLCAnLW9tYWUnLCAnPG91dGZpbGUubWFlPic=

> <r_lp_tautomer_probability>
1

> <r_epik_Ionization_Penalty>
1.46326e-08

> <r_epik_Ionization_Penalty_Charging>
4.53232e-09

> <r_epik_Ionization_Penalty_Neutral>
1.01002e-08

> <r_epik_State_Penalty>
-0

> <r_epik_Charging_Adjusted_Penalty>
4.53232e-09

> <i_epik_Tot_Q>
0

> <i_epik_Tot_abs_Q>
0

> <r_epik_Metal_State_Penalty>
-0

> <b_epik_Metal_Only>
0

> <s_epik_Chemistry_Notes>
This compound has an imine and may undergo hydrolysis. This compound contains an acetal/aminal-like group ( X-CH(R)-Y where X, Y are N, S, or O) that may be acid/base labile, releasing an aldehyde.

> <s_lp_Force_Field>
OPLS_2005

> <r_lp_Energy>
49.9994

> <b_lp_Chiralities_Consistent>
1

> <s_lp_Variant>
AV-unprocessed.smi:24-4

> <Gold.Version>
5.8.1

> <Gold.Id.Protein>
6NUR|6NUR_protein|mol2

> <Gold.PLP.Fitness>
47.7170

> <Gold.PLP.PLP>
-45.4886

> <Gold.PLP.part.hbond>
-1.1513

> <Gold.PLP.part.metal>
0.0000

> <Gold.PLP.part.buried>
-6.2617

> <Gold.PLP.part.nonpolar>
-39.5521

> <Gold.PLP.part.repulsive>
1.3441

> <Gold.PLP.ligand.clash>
0.0000

> <Gold.PLP.ligand.torsion>
0.4438

> <Gold.PLP.Chemscore.Hbond>
1.0000

> <Gold.PLP.Chemscore.CHOScore>
0.0000

> <Gold.PLP.Chemscore.Metal>
0.0000

> <Gold.Chemscore.Hbonds>
donor molecule, donor type, donor heavy atom, donor atom, acceptor molecule, acceptor atom, score
      P1  H  7997  8010       L1    32  0.19

> <Gold.PLP.Chemscore.Internal.Correction>
0.1160

> <Gold.Rescore>
     Score         DG    S(hbond)    S(metal)    S(lipo)     H(rot)  DE(clash)    DE(int)     intcor
     12.92     -16.28       0.88        0.00     110.41       1.98       0.10       3.26       ----

> <Gold.Chemscore.Fitness>
12.9200

> <Gold.Chemscore.DG>
-16.2836

> <Gold.Chemscore.ZeroCoef>
-5.4800

> <Gold.Chemscore.Hbond>
0.8807

> <Gold.Chemscore.Metal>
0.0000

> <Gold.Chemscore.Lipo>
110.4107

> <Gold.Chemscore.Internal_Hbond>
0.0000

> <Gold.Chemscore.DEClash>
0.1024

> <Gold.Chemscore.DEInternal>
3.2613

> <Gold.Chemscore.Rot>
1.9750

> <Gold.Chemscore.Internal.Correction>
   9.000000E+99

> <Gold.Chemscore.Hbonds>
donor molecule, donor type, donor heavy atom, donor atom, acceptor molecule, acceptor atom, score
      P1  H  7997  8010       L1    32  0.10

> <Gold.Chemscore.Hbond.Weighted>
-2.9416

> <Gold.Chemscore.Metal.Weighted>
-0.0000

> <Gold.Chemscore.Lipo.Weighted>
-12.9180

> <Gold.Chemscore.Internal_Hbond.Weighted>
0.0000

> <Gold.Chemscore.DEClash.Weighted>
0.1024

> <Gold.Chemscore.DEInternal.Weighted>
3.2613

> <Gold.Chemscore.Rot.Weighted>
5.0561

> <Gold.Chemscore.Internal.Correction.Weighted>
   9.000000E+99

> <Gold.Protein.RotatedTorsions>
[ 6907 6896 6895 6894 ] final  173.84 input  -60.11 | X-H torsion
[ 7974 7965 7964 7962 ] final  173.66 input  175.53 | X-H torsion
[ 8008 7997 7996 7995 ] final   39.40 input   59.86 | X-H torsion
[ 10167 10162 10161 10158 ] final  -13.97 input  -65.29 | X-H torsion
[ 10718 10713 10712 10709 ] final  139.86 input   66.30 | X-H torsion
[ 10763 10752 10751 10750 ] final   81.59 input  -60.55 | X-H torsion
[ 11005 11000 10999 10996 ] final  -96.39 input  -57.11 | X-H torsion

> <Gold.Protein.ActiveResidues>
 VAL166  LYS551  ARG553  GLY616  TRP617  ASP618  TYR619  PRO620  LYS621  CYS622 
 ASP623  PHE694  ASN695  SER759  ASP760  ASP761  ALA762  ILE779  LEU786  VAL792 
 PHE793  MET794  SER795  GLU796  ALA797  LYS798  CYS799  TRP800  GLU811  SER814 

> <Gold.Protein.RotatedAtoms>
  151.7619  133.3334  159.3419 H   0  0  0  0  0  0  0  0  0  0  0  0  # atno 6907 bound_to 6896
  150.7495  134.6098  159.6089 H   0  0  0  0  0  0  0  0  0  0  0  0  # atno 6908 bound_to 6896
  152.3400  134.7149  160.0318 H   0  0  0  0  0  0  0  0  0  0  0  0  # atno 6909 bound_to 6896
  144.7239  139.9680  143.6436 H   0  0  0  0  0  0  0  0  0  0  0  0  # atno 7974 bound_to 7965
  155.2359  140.3342  155.4298 H   0  0  0  0  0  0  0  0  0  0  0  0  # atno 8008 bound_to 7997
  156.2276  140.1836  156.7370 H   0  0  0  0  0  0  0  0  0  0  0  0  # atno 8009 bound_to 7997
  154.5924  140.0636  156.9242 H   0  0  0  0  0  0  0  0  0  0  0  0  # atno 8010 bound_to 7997
  140.7192  143.5371  150.9452 H   0  0  0  0  0  0  0  0  0  0  0  0  # atno 10167 bound_to 10162
  157.4097  131.1026  151.0467 H   0  0  0  0  0  0  0  0  0  0  0  0  # atno 10718 bound_to 10713
  153.1130  135.4759  154.9068 H   0  0  0  0  0  0  0  0  0  0  0  0  # atno 10763 bound_to 10752
  154.7500  135.3103  154.8577 H   0  0  0  0  0  0  0  0  0  0  0  0  # atno 10764 bound_to 10752
  153.9161  135.6860  153.4803 H   0  0  0  0  0  0  0  0  0  0  0  0  # atno 10765 bound_to 10752
  141.1413  133.8094  157.0565 H   0  0  0  0  0  0  0  0  0  0  0  0  # atno 11005 bound_to 11000
  146.0585  139.3580  143.0596 LP  0  0  0  0  0  0  0  0  0  0  0  0  # atno 17320 bound_to 7965
  145.8123  140.9720  143.0942 LP  0  0  0  0  0  0  0  0  0  0  0  0  # atno 17321 bound_to 7965
  139.9092  143.6740  152.3118 LP  0  0  0  0  0  0  0  0  0  0  0  0  # atno 17342 bound_to 10162
  139.7118  144.7619  151.1100 LP  0  0  0  0  0  0  0  0  0  0  0  0  # atno 17343 bound_to 10162
  157.1436  130.6153  149.5562 LP  0  0  0  0  0  0  0  0  0  0  0  0  # atno 17370 bound_to 10713
  155.9847  130.4873  150.6995 LP  0  0  0  0  0  0  0  0  0  0  0  0  # atno 17371 bound_to 10713
  140.0599  134.9760  157.1286 LP  0  0  0  0  0  0  0  0  0  0  0  0  # atno 17394 bound_to 11000
  140.3864  134.2231  155.7168 LP  0  0  0  0  0  0  0  0  0  0  0  0  # atno 17395 bound_to 11000

$$$$
