AV-unprocessed.smi:2812|AV-procd|sdf|10833|dock5
  -GOLD-   2272015273D 1   1.00000     0.00000
 Structure written by MMmdl.
 55 56  0  0  0  0  0  0  0  0  2 V2000
  150.3799  145.3270  158.5659 C   0  0  0  0  0  0  0  0  0  0  0  0
  151.2881  144.1662  158.9400 C   0  0  0  0  0  0  0  0  0  0  0  0
  152.3262  144.3737  159.9285 C   0  0  0  0  0  0  0  0  0  0  0  0
  153.1389  143.3597  160.2539 C   0  0  0  0  0  0  0  0  0  0  0  0
  153.0035  142.0912  159.6717 N   0  0  0  0  0  0  0  0  0  0  0  0
  153.9340  141.0442  160.1020 C   0  0  0  0  0  0  0  0  0  0  0  0
  152.0318  141.8085  158.7570 C   0  0  0  0  0  0  0  0  0  0  0  0
  151.8925  140.6648  158.3175 O   0  0  0  0  0  0  0  0  0  0  0  0
  151.1663  142.9449  158.3564 C   0  0  0  0  0  0  0  0  0  0  0  0
  150.1460  142.7430  157.4133 N   0  0  0  0  0  0  0  0  0  0  0  0
  149.3537  141.6607  157.3204 C   0  0  0  0  0  0  0  0  0  0  0  0
  149.4019  140.6847  158.0705 O   0  0  0  0  0  0  0  0  0  0  0  0
  148.5122  141.7553  156.2814 N   0  0  0  0  0  0  0  0  0  0  0  0
  147.5386  140.7349  155.9072 C   0  0  0  0  0  0  0  0  0  0  0  0
  146.7167  141.1247  154.6474 C   0  0  2  0  0  0  0  0  0  0  0  0
  146.5511  142.6524  154.4660 C   0  0  0  0  0  0  0  0  0  0  0  0
  145.5675  143.2521  155.4786 C   0  0  0  0  0  0  0  0  0  0  0  0
  144.2239  142.5219  155.3867 C   0  0  0  0  0  0  0  0  0  0  0  0
  144.4040  141.0055  155.5615 C   0  0  0  0  0  0  0  0  0  0  0  0
  145.3795  140.4534  154.5825 N   0  3  2  0  0  0  0  0  0  0  0  0
  145.3935  138.9629  154.5979 C   0  0  0  0  0  0  0  0  0  0  0  0
  145.6590  138.3035  153.2251 C   0  0  0  0  0  0  0  0  0  0  0  0
  145.8356  136.7799  153.3374 C   0  0  0  0  0  0  0  0  0  0  0  0
  146.8888  138.9362  152.5574 C   0  0  0  0  0  0  0  0  0  0  0  0
  150.6430  146.2285  159.1199 H   0  0  0  0  0  0  0  0  0  0  0  0
  149.3398  145.0879  158.7898 H   0  0  0  0  0  0  0  0  0  0  0  0
  150.4635  145.5512  157.5019 H   0  0  0  0  0  0  0  0  0  0  0  0
  152.4536  145.3379  160.3981 H   0  0  0  0  0  0  0  0  0  0  0  0
  153.9316  143.4550  160.9814 H   0  0  0  0  0  0  0  0  0  0  0  0
  154.4621  140.6246  159.2442 H   0  0  0  0  0  0  0  0  0  0  0  0
  153.3970  140.2353  160.5995 H   0  0  0  0  0  0  0  0  0  0  0  0
  154.6898  141.4116  160.7970 H   0  0  0  0  0  0  0  0  0  0  0  0
  150.0950  143.4232  156.6691 H   0  0  0  0  0  0  0  0  0  0  0  0
  148.5433  142.5902  155.7145 H   0  0  0  0  0  0  0  0  0  0  0  0
  148.0762  139.7991  155.7532 H   0  0  0  0  0  0  0  0  0  0  0  0
  146.8857  140.5728  156.7639 H   0  0  0  0  0  0  0  0  0  0  0  0
  147.2786  140.7972  153.7743 H   0  0  0  0  0  0  0  0  0  0  0  0
  147.5118  143.1635  154.5298 H   0  0  0  0  0  0  0  0  0  0  0  0
  146.1813  142.8504  153.4588 H   0  0  0  0  0  0  0  0  0  0  0  0
  145.9696  143.1727  156.4891 H   0  0  0  0  0  0  0  0  0  0  0  0
  145.4298  144.3159  155.2824 H   0  0  0  0  0  0  0  0  0  0  0  0
  143.5384  142.9058  156.1427 H   0  0  0  0  0  0  0  0  0  0  0  0
  143.7625  142.7262  154.4195 H   0  0  0  0  0  0  0  0  0  0  0  0
  144.7242  140.7758  156.5784 H   0  0  0  0  0  0  0  0  0  0  0  0
  143.4366  140.5204  155.4256 H   0  0  0  0  0  0  0  0  0  0  0  0
  146.1188  138.6115  155.3323 H   0  0  0  0  0  0  0  0  0  0  0  0
  144.4233  138.6175  154.9578 H   0  0  0  0  0  0  0  0  0  0  0  0
  144.8189  138.5030  152.5602 H   0  0  0  0  0  0  0  0  0  0  0  0
  146.6706  136.5246  153.9904 H   0  0  0  0  0  0  0  0  0  0  0  0
  146.0317  136.3364  152.3608 H   0  0  0  0  0  0  0  0  0  0  0  0
  144.9413  136.3001  153.7354 H   0  0  0  0  0  0  0  0  0  0  0  0
  147.7903  138.7762  153.1498 H   0  0  0  0  0  0  0  0  0  0  0  0
  146.7590  140.0115  152.4319 H   0  0  0  0  0  0  0  0  0  0  0  0
  147.0615  138.5106  151.5683 H   0  0  0  0  0  0  0  0  0  0  0  0
  145.0088  140.7002  153.6760 H   0  0  0  0  0  0  0  0  0  0  0  0
  1  2  1  0  0  0  0
  1 25  1  0  0  0  0
  1 26  1  0  0  0  0
  1 27  1  0  0  0  0
  2  9  2  0  0  0  0
  2  3  1  0  0  0  0
  3  4  2  0  0  0  0
  3 28  1  0  0  0  0
  4  5  1  0  0  0  0
  4 29  1  0  0  0  0
  5  6  1  0  0  0  0
  5  7  1  0  0  0  0
  6 30  1  0  0  0  0
  6 31  1  0  0  0  0
  6 32  1  0  0  0  0
  7  8  2  0  0  0  0
  7  9  1  0  0  0  0
  9 10  1  0  0  0  0
 10 11  1  0  0  0  0
 10 33  1  0  0  0  0
 11 12  2  0  0  0  0
 11 13  1  0  0  0  0
 13 14  1  0  0  0  0
 13 34  1  0  0  0  0
 14 15  1  0  0  0  0
 14 35  1  0  0  0  0
 14 36  1  0  0  0  0
 15 20  1  0  0  0  0
 15 16  1  0  0  0  0
 15 37  1  0  0  0  0
 16 17  1  0  0  0  0
 16 38  1  0  0  0  0
 16 39  1  0  0  0  0
 17 18  1  0  0  0  0
 17 40  1  0  0  0  0
 17 41  1  0  0  0  0
 18 19  1  0  0  0  0
 18 42  1  0  0  0  0
 18 43  1  0  0  0  0
 19 20  1  0  0  0  0
 19 44  1  0  0  0  0
 19 45  1  0  0  0  0
 20 21  1  0  0  0  0
 20 55  1  0  0  0  0
 21 22  1  0  0  0  0
 21 46  1  0  0  0  0
 21 47  1  0  0  0  0
 22 23  1  0  0  0  0
 22 24  1  0  0  0  0
 22 48  1  0  0  0  0
 23 49  1  0  0  0  0
 23 50  1  0  0  0  0
 23 51  1  0  0  0  0
 24 52  1  0  0  0  0
 24 53  1  0  0  0  0
 24 54  1  0  0  0  0
M  CHG  1  20   1
M  END
> <s_m_source_file>
AV-unprocessed.smi

> <i_m_source_file_index>
2812

> <i_lp_mmshare_version>
43012

> <i_f3d_flags>
0

> <s_epik_input>
W0NIM11jMVtjSF1bY0hdbihbQ0gzXSljKD1PKWMxW05IXUMoPU8pW05IXVtDSDJdW0NAQEhdMltDSDJdW0NIMl1bQ0gyXVtDSDJdTjJbQ0gyXVtDSF0oW0NIM10pW0NIM10=

> <s_epik_cmdline>
J2VwaWtfcHl0aG9uJywgJy1waCcsICc3LjAnLCAnLXRuJywgJzgnLCAnLW1hJywgJzIwMCcsICctbWV0YWxfYmluZGluZycsICctaW1hZScsICc8aW5maWxlLm1hZT4nLCAnLW9tYWUnLCAnPG91dGZpbGUubWFlPic=

> <r_lp_tautomer_probability>
1

> <r_epik_Ionization_Penalty>
0.0010902

> <r_epik_Ionization_Penalty_Charging>
0.00107091

> <r_epik_Ionization_Penalty_Neutral>
1.92854e-05

> <r_epik_State_Penalty>
0.000697184

> <r_epik_Charging_Adjusted_Penalty>
0.0017681

> <i_epik_Tot_Q>
1

> <i_epik_Tot_abs_Q>
1

> <r_epik_Metal_State_Penalty>
-0

> <b_epik_Metal_Only>
0

> <s_lp_Force_Field>
OPLS_2005

> <r_lp_Energy>
39.0226

> <b_lp_Chiralities_Consistent>
1

> <s_lp_Variant>
AV-unprocessed.smi:2812-1

> <Gold.Version>
5.8.1

> <Gold.Id.Protein>
6NUR|6NUR_protein|mol2

> <Gold.PLP.Fitness>
45.5744

> <Gold.PLP.PLP>
-36.1051

> <Gold.PLP.part.hbond>
-2.9166

> <Gold.PLP.part.metal>
0.0000

> <Gold.PLP.part.buried>
-0.4190

> <Gold.PLP.part.nonpolar>
-33.0264

> <Gold.PLP.part.repulsive>
0.0441

> <Gold.PLP.ligand.clash>
0.0000

> <Gold.PLP.ligand.torsion>
1.0408

> <Gold.PLP.Chemscore.Hbond>
3.6293

> <Gold.PLP.Chemscore.CHOScore>
0.0000

> <Gold.PLP.Chemscore.Metal>
0.0000

> <Gold.Chemscore.Hbonds>
donor molecule, donor type, donor heavy atom, donor atom, acceptor molecule, acceptor atom, score
      L1  H    10    33       P1  8028  0.90
      L1  H    13    34       P1  8028  0.66
      L1  H    20    55       P1 10175  1.89

> <Gold.PLP.Chemscore.Internal.Correction>
0.6631

> <Gold.Rescore>
     Score         DG    S(hbond)    S(metal)    S(lipo)     H(rot)  DE(clash)    DE(int)     intcor
     15.13     -21.50       2.56        0.00      97.02       1.52       0.92       5.45       ----

> <Gold.Chemscore.Fitness>
15.1313

> <Gold.Chemscore.DG>
-21.5021

> <Gold.Chemscore.ZeroCoef>
-5.4800

> <Gold.Chemscore.Hbond>
2.5601

> <Gold.Chemscore.Metal>
0.0000

> <Gold.Chemscore.Lipo>
97.0228

> <Gold.Chemscore.Internal_Hbond>
0.0000

> <Gold.Chemscore.DEClash>
0.9180

> <Gold.Chemscore.DEInternal>
5.4529

> <Gold.Chemscore.Rot>
1.5157

> <Gold.Chemscore.Internal.Correction>
   9.000000E+99

> <Gold.Chemscore.Hbonds>
donor molecule, donor type, donor heavy atom, donor atom, acceptor molecule, acceptor atom, score
      L1  H    10    33       P1  8028  0.83
      L1  H    13    34       P1  8028  0.64
      L1  H    20    55       P1 10175  0.88

> <Gold.Chemscore.Hbond.Weighted>
-8.5507

> <Gold.Chemscore.Metal.Weighted>
-0.0000

> <Gold.Chemscore.Lipo.Weighted>
-11.3517

> <Gold.Chemscore.Internal_Hbond.Weighted>
0.0000

> <Gold.Chemscore.DEClash.Weighted>
0.9180

> <Gold.Chemscore.DEInternal.Weighted>
5.4529

> <Gold.Chemscore.Rot.Weighted>
3.8803

> <Gold.Chemscore.Internal.Correction.Weighted>
   9.000000E+99

> <Gold.Protein.RotatedTorsions>
[ 6907 6896 6895 6894 ] final -157.56 input  -60.11 | X-H torsion
[ 7974 7965 7964 7962 ] final  -89.86 input  175.53 | X-H torsion
[ 8008 7997 7996 7995 ] final -144.75 input   59.86 | X-H torsion
[ 10167 10162 10161 10158 ] final  -85.29 input  -65.29 | X-H torsion
[ 10718 10713 10712 10709 ] final -164.89 input   66.30 | X-H torsion
[ 10763 10752 10751 10750 ] final   98.69 input  -60.55 | X-H torsion
[ 11005 11000 10999 10996 ] final  -48.44 input  -57.11 | X-H torsion

> <Gold.Protein.ActiveResidues>
 VAL166  LYS551  ARG553  GLY616  TRP617  ASP618  TYR619  PRO620  LYS621  CYS622 
 ASP623  PHE694  ASN695  SER759  ASP760  ASP761  ALA762  ILE779  LEU786  VAL792 
 PHE793  MET794  SER795  GLU796  ALA797  LYS798  CYS799  TRP800  GLU811  SER814 

> <Gold.Protein.RotatedAtoms>
  151.3047  133.4107  159.2642 H   0  0  0  0  0  0  0  0  0  0  0  0  # atno 6907 bound_to 6896
  151.0166  134.9438  159.8046 H   0  0  0  0  0  0  0  0  0  0  0  0  # atno 6908 bound_to 6896
  152.5314  134.3010  159.9131 H   0  0  0  0  0  0  0  0  0  0  0  0  # atno 6909 bound_to 6896
  145.4341  140.9557  143.2111 H   0  0  0  0  0  0  0  0  0  0  0  0  # atno 7974 bound_to 7965
  155.5320  140.0600  157.2887 H   0  0  0  0  0  0  0  0  0  0  0  0  # atno 8008 bound_to 7997
  154.4481  140.1934  156.0549 H   0  0  0  0  0  0  0  0  0  0  0  0  # atno 8009 bound_to 7997
  156.0645  140.3268  155.7505 H   0  0  0  0  0  0  0  0  0  0  0  0  # atno 8010 bound_to 7997
  140.4051  143.2646  151.9091 H   0  0  0  0  0  0  0  0  0  0  0  0  # atno 10167 bound_to 10162
  156.6455  130.8986  151.3004 H   0  0  0  0  0  0  0  0  0  0  0  0  # atno 10718 bound_to 10713
  153.2921  135.4139  155.1176 H   0  0  0  0  0  0  0  0  0  0  0  0  # atno 10763 bound_to 10752
  154.8523  135.3521  154.5967 H   0  0  0  0  0  0  0  0  0  0  0  0  # atno 10764 bound_to 10752
  153.6390  135.7057  153.5306 H   0  0  0  0  0  0  0  0  0  0  0  0  # atno 10765 bound_to 10752
  141.0701  133.6682  156.3442 H   0  0  0  0  0  0  0  0  0  0  0  0  # atno 11005 bound_to 11000
  144.8163  139.5870  143.7007 LP  0  0  0  0  0  0  0  0  0  0  0  0  # atno 17320 bound_to 7965
  146.2591  139.6369  142.9374 LP  0  0  0  0  0  0  0  0  0  0  0  0  # atno 17321 bound_to 7965
  139.4783  144.5594  151.8263 LP  0  0  0  0  0  0  0  0  0  0  0  0  # atno 17342 bound_to 10162
  140.4698  144.1603  150.5916 LP  0  0  0  0  0  0  0  0  0  0  0  0  # atno 17343 bound_to 10162
  157.7157  130.9495  150.1249 LP  0  0  0  0  0  0  0  0  0  0  0  0  # atno 17370 bound_to 10713
  156.2125  130.3668  149.8652 LP  0  0  0  0  0  0  0  0  0  0  0  0  # atno 17371 bound_to 10713
  140.5691  134.5858  157.5453 LP  0  0  0  0  0  0  0  0  0  0  0  0  # atno 17394 bound_to 11000
  139.9515  134.7609  156.0438 LP  0  0  0  0  0  0  0  0  0  0  0  0  # atno 17395 bound_to 11000

$$$$
