AV-unprocessed.smi:3245|AV-procd|sdf|12405|dock8
  -GOLD-   2272018283D 1   1.00000     0.00000
 Structure written by MMmdl.
 35 36  0  0  0  0  0  0  0  0  1 V2000
  150.7362  140.8689  157.8548 C   0  0  0  0  0  0  0  0  0  0  0  0
  150.3461  142.3238  157.5229 C   0  0  1  0  0  0  0  0  0  0  0  0
  151.5541  143.2837  157.5465 C   0  0  0  0  0  0  0  0  0  0  0  0
  151.9047  143.7227  158.8854 N   0  0  0  0  0  0  0  0  0  0  0  0
  151.9589  145.0094  159.3790 C   0  0  0  0  0  0  0  0  0  0  0  0
  152.3287  144.9263  160.6908 C   0  0  0  0  0  0  0  0  0  0  0  0
  152.4741  143.5283  160.9128 C   0  0  0  0  0  0  0  0  0  0  0  0
  152.2154  142.8101  159.8318 N   0  0  0  0  0  0  0  0  0  0  0  0
  149.7556  142.3988  156.1922 N   0  0  0  0  0  0  0  0  0  0  0  0
  148.4907  141.6812  156.1082 C   0  0  0  0  0  0  0  0  0  0  0  0
  148.2253  141.2420  154.6570 C   0  0  0  0  0  0  0  0  0  0  0  0
  148.8125  139.9297  154.3618 N   0  0  0  0  0  0  0  0  0  0  0  0
  150.1080  139.6265  154.5199 C   0  0  0  0  0  0  0  0  0  0  0  0
  151.0100  140.3663  154.9118 O   0  0  0  0  0  0  0  0  0  0  0  0
  150.3117  138.1772  154.1355 C   0  0  0  0  0  0  0  0  0  0  0  0
  148.9520  137.8358  153.7779 N   0  0  0  0  0  0  0  0  0  0  0  0
  148.1113  138.8684  153.9220 C   0  0  0  0  0  0  0  0  0  0  0  0
  146.9037  138.8355  153.6902 O   0  0  0  0  0  0  0  0  0  0  0  0
  151.1827  140.7953  158.8464 H   0  0  0  0  0  0  0  0  0  0  0  0
  151.4599  140.4807  157.1374 H   0  0  0  0  0  0  0  0  0  0  0  0
  149.8749  140.2021  157.8517 H   0  0  0  0  0  0  0  0  0  0  0  0
  149.6179  142.6784  158.2541 H   0  0  0  0  0  0  0  0  0  0  0  0
  152.4285  142.8025  157.1055 H   0  0  0  0  0  0  0  0  0  0  0  0
  151.3485  144.1690  156.9428 H   0  0  0  0  0  0  0  0  0  0  0  0
  151.7355  145.8674  158.7620 H   0  0  0  0  0  0  0  0  0  0  0  0
  152.4723  145.7400  161.3860 H   0  0  0  0  0  0  0  0  0  0  0  0
  152.7567  143.0174  161.8214 H   0  0  0  0  0  0  0  0  0  0  0  0
  149.5934  143.3668  155.9530 H   0  0  0  0  0  0  0  0  0  0  0  0
  148.4821  140.8157  156.7700 H   0  0  0  0  0  0  0  0  0  0  0  0
  147.6897  142.3439  156.4375 H   0  0  0  0  0  0  0  0  0  0  0  0
  147.1482  141.1876  154.4921 H   0  0  0  0  0  0  0  0  0  0  0  0
  148.5864  141.9992  153.9585 H   0  0  0  0  0  0  0  0  0  0  0  0
  150.9891  138.0756  153.2870 H   0  0  0  0  0  0  0  0  0  0  0  0
  150.6680  137.5835  154.9780 H   0  0  0  0  0  0  0  0  0  0  0  0
  148.6803  136.9161  153.4616 H   0  0  0  0  0  0  0  0  0  0  0  0
  1  2  1  0  0  0  0
  1 19  1  0  0  0  0
  1 20  1  0  0  0  0
  1 21  1  0  0  0  0
  2  3  1  0  0  0  0
  2  9  1  0  0  0  0
  2 22  1  0  0  0  0
  3  4  1  0  0  0  0
  3 23  1  0  0  0  0
  3 24  1  0  0  0  0
  4  8  1  0  0  0  0
  4  5  1  0  0  0  0
  5  6  2  0  0  0  0
  5 25  1  0  0  0  0
  6  7  1  0  0  0  0
  6 26  1  0  0  0  0
  7  8  2  0  0  0  0
  7 27  1  0  0  0  0
  9 10  1  0  0  0  0
  9 28  1  0  0  0  0
 10 11  1  0  0  0  0
 10 29  1  0  0  0  0
 10 30  1  0  0  0  0
 11 12  1  0  0  0  0
 11 31  1  0  0  0  0
 11 32  1  0  0  0  0
 12 17  1  0  0  0  0
 12 13  1  0  0  0  0
 13 14  2  0  0  0  0
 13 15  1  0  0  0  0
 15 16  1  0  0  0  0
 15 33  1  0  0  0  0
 15 34  1  0  0  0  0
 16 17  1  0  0  0  0
 16 35  1  0  0  0  0
 17 18  2  0  0  0  0
M  END
> <s_m_source_file>
AV-unprocessed.smi

> <i_m_source_file_index>
3245

> <i_lp_mmshare_version>
43012

> <i_f3d_flags>
0

> <s_epik_input>
bjFbY0hdW2NIXVtjSF1uMVtDSDJdW0NAQEhdKFtDSDNdKVtOSF1bQ0gyXVtDSDJdTjJDKD1PKVtDSDJdW05IXUMyPU8=

> <s_epik_cmdline>
J2VwaWtfcHl0aG9uJywgJy1waCcsICc3LjAnLCAnLXRuJywgJzgnLCAnLW1hJywgJzIwMCcsICctbWV0YWxfYmluZGluZycsICctaW1hZScsICc8aW5maWxlLm1hZT4nLCAnLW9tYWUnLCAnPG91dGZpbGUubWFlPic=

> <r_lp_tautomer_probability>
1

> <r_epik_Ionization_Penalty>
2.14948

> <r_epik_Ionization_Penalty_Charging>
0

> <r_epik_Ionization_Penalty_Neutral>
2.14948

> <r_epik_State_Penalty>
2.28912

> <r_epik_Charging_Adjusted_Penalty>
2.28912

> <i_epik_Tot_Q>
0

> <i_epik_Tot_abs_Q>
0

> <r_epik_Metal_State_Penalty>
2.36471

> <b_epik_Metal_Only>
0

> <s_lp_Force_Field>
OPLS_2005

> <r_lp_Energy>
25.1449

> <b_lp_Chiralities_Consistent>
1

> <s_lp_Variant>
AV-unprocessed.smi:3245-4

> <Gold.Version>
5.8.1

> <Gold.Id.Protein>
6NUR|6NUR_protein|mol2

> <Gold.PLP.Fitness>
43.8354

> <Gold.PLP.PLP>
-37.3164

> <Gold.PLP.part.hbond>
-2.7997

> <Gold.PLP.part.metal>
0.0000

> <Gold.PLP.part.buried>
-4.8833

> <Gold.PLP.part.nonpolar>
-30.8537

> <Gold.PLP.part.repulsive>
0.2622

> <Gold.PLP.ligand.clash>
0.0000

> <Gold.PLP.ligand.torsion>
0.5816

> <Gold.PLP.Chemscore.Hbond>
2.5280

> <Gold.PLP.Chemscore.CHOScore>
0.0000

> <Gold.PLP.Chemscore.Metal>
0.0000

> <Gold.Chemscore.Hbonds>
donor molecule, donor type, donor heavy atom, donor atom, acceptor molecule, acceptor atom, score
      L1  H     9    28       P1  8028  1.00
      L1  H    16    35       P1  7948  0.51
      P1  H  7989  7998       L1    14  1.00

> <Gold.PLP.Chemscore.Internal.Correction>
0.0983

> <Gold.Rescore>
     Score         DG    S(hbond)    S(metal)    S(lipo)     H(rot)  DE(clash)    DE(int)     intcor
     12.89     -14.95       2.24        0.00      75.27       2.66       0.12       1.94       ----

> <Gold.Chemscore.Fitness>
12.8913

> <Gold.Chemscore.DG>
-14.9467

> <Gold.Chemscore.ZeroCoef>
-5.4800

> <Gold.Chemscore.Hbond>
2.2371

> <Gold.Chemscore.Metal>
0.0000

> <Gold.Chemscore.Lipo>
75.2691

> <Gold.Chemscore.Internal_Hbond>
0.0000

> <Gold.Chemscore.DEClash>
0.1161

> <Gold.Chemscore.DEInternal>
1.9393

> <Gold.Chemscore.Rot>
2.6609

> <Gold.Chemscore.Internal.Correction>
   9.000000E+99

> <Gold.Chemscore.Hbonds>
donor molecule, donor type, donor heavy atom, donor atom, acceptor molecule, acceptor atom, score
      L1  H     9    28       P1  8028  0.95
      L1  H    16    35       P1  7948  0.52
      P1  H  7989  7998       L1    14  0.29

> <Gold.Chemscore.Hbond.Weighted>
-7.4721

> <Gold.Chemscore.Metal.Weighted>
-0.0000

> <Gold.Chemscore.Lipo.Weighted>
-8.8065

> <Gold.Chemscore.Internal_Hbond.Weighted>
0.0000

> <Gold.Chemscore.DEClash.Weighted>
0.1161

> <Gold.Chemscore.DEInternal.Weighted>
1.9393

> <Gold.Chemscore.Rot.Weighted>
6.8118

> <Gold.Chemscore.Internal.Correction.Weighted>
   9.000000E+99

> <Gold.Protein.RotatedTorsions>
[ 6907 6896 6895 6894 ] final -171.46 input  -60.11 | X-H torsion
[ 7974 7965 7964 7962 ] final  -90.21 input  175.53 | X-H torsion
[ 8008 7997 7996 7995 ] final  -13.94 input   59.86 | X-H torsion
[ 10167 10162 10161 10158 ] final    6.68 input  -65.29 | X-H torsion
[ 10718 10713 10712 10709 ] final   -7.32 input   66.30 | X-H torsion
[ 10763 10752 10751 10750 ] final   27.06 input  -60.55 | X-H torsion
[ 11005 11000 10999 10996 ] final   48.40 input  -57.11 | X-H torsion

> <Gold.Protein.ActiveResidues>
 VAL166  LYS551  ARG553  GLY616  TRP617  ASP618  TYR619  PRO620  LYS621  CYS622 
 ASP623  PHE694  ASN695  SER759  ASP760  ASP761  ALA762  ILE779  LEU786  VAL792 
 PHE793  MET794  SER795  GLU796  ALA797  LYS798  CYS799  TRP800  GLU811  SER814 

> <Gold.Protein.RotatedAtoms>
  151.5242  133.3461  159.2906 H   0  0  0  0  0  0  0  0  0  0  0  0  # atno 6907 bound_to 6896
  150.8633  134.7993  159.7111 H   0  0  0  0  0  0  0  0  0  0  0  0  # atno 6908 bound_to 6896
  152.4646  134.5115  159.9807 H   0  0  0  0  0  0  0  0  0  0  0  0  # atno 6909 bound_to 6896
  145.4295  140.9555  143.2136 H   0  0  0  0  0  0  0  0  0  0  0  0  # atno 7974 bound_to 7965
  154.5251  140.2236  155.8905 H   0  0  0  0  0  0  0  0  0  0  0  0  # atno 8008 bound_to 7997
  156.1704  140.3123  155.8928 H   0  0  0  0  0  0  0  0  0  0  0  0  # atno 8009 bound_to 7997
  155.3569  140.0459  157.3037 H   0  0  0  0  0  0  0  0  0  0  0  0  # atno 8010 bound_to 7997
  140.6414  143.7765  150.7434 H   0  0  0  0  0  0  0  0  0  0  0  0  # atno 10167 bound_to 10162
  156.7189  130.5145  149.5873 H   0  0  0  0  0  0  0  0  0  0  0  0  # atno 10718 bound_to 10713
  153.0581  135.6546  154.0529 H   0  0  0  0  0  0  0  0  0  0  0  0  # atno 10763 bound_to 10752
  154.0203  135.2920  155.3383 H   0  0  0  0  0  0  0  0  0  0  0  0  # atno 10764 bound_to 10752
  154.6906  135.5284  153.8454 H   0  0  0  0  0  0  0  0  0  0  0  0  # atno 10765 bound_to 10752
  140.1194  134.4849  155.8610 H   0  0  0  0  0  0  0  0  0  0  0  0  # atno 11005 bound_to 11000
  144.8192  139.5821  143.6994 LP  0  0  0  0  0  0  0  0  0  0  0  0  # atno 17320 bound_to 7965
  146.2615  139.6420  142.9359 LP  0  0  0  0  0  0  0  0  0  0  0  0  # atno 17321 bound_to 7965
  140.1397  143.4452  152.2201 LP  0  0  0  0  0  0  0  0  0  0  0  0  # atno 17342 bound_to 10162
  139.5623  144.7413  151.4119 LP  0  0  0  0  0  0  0  0  0  0  0  0  # atno 17343 bound_to 10162
  156.1608  130.6373  151.0717 LP  0  0  0  0  0  0  0  0  0  0  0  0  # atno 17370 bound_to 10713
  157.6906  131.0811  150.7118 LP  0  0  0  0  0  0  0  0  0  0  0  0  # atno 17371 bound_to 10713
  141.2148  133.6755  156.6859 LP  0  0  0  0  0  0  0  0  0  0  0  0  # atno 17394 bound_to 11000
  140.2985  134.8183  157.4078 LP  0  0  0  0  0  0  0  0  0  0  0  0  # atno 17395 bound_to 11000

$$$$
