AV-unprocessed.smi:1995|AV-procd|sdf|8083|dock5
  -GOLD-   2272010293D 1   1.00000     0.00000
 Structure written by MMmdl.
 42 43  0  0  0  0  0  0  0  0  3 V2000
  151.8693  138.3573  154.6948 C   0  0  0  0  0  0  0  0  0  0  0  0
  152.0527  139.0933  156.0337 C   0  0  0  0  0  0  0  0  0  0  0  0
  150.7999  139.1683  156.9587 C   0  0  2  0  0  0  0  0  0  0  0  0
  151.1364  140.0219  158.2111 C   0  0  0  0  0  0  0  0  0  0  0  0
  150.4164  137.7460  157.4686 C   0  0  0  0  0  0  0  0  0  0  0  0
  149.5920  137.7948  158.6778 N   0  0  0  0  0  0  0  0  0  0  0  0
  148.9604  136.7661  159.2606 C   0  0  0  0  0  0  0  0  0  0  0  0
  149.1339  135.6180  158.8477 O   0  0  0  0  0  0  0  0  0  0  0  0
  148.1409  137.1371  160.2682 N   0  5  0  0  0  0  0  0  0  0  0  0
  147.4723  136.2029  160.9636 C   0  0  0  0  0  0  0  0  0  0  0  0
  147.3016  134.9509  160.5232 N   0  0  0  0  0  0  0  0  0  0  0  0
  146.5756  134.1473  161.4044 C   0  0  0  0  0  0  0  0  0  0  0  0
  146.1791  134.8050  162.5384 C   0  0  0  0  0  0  0  0  0  0  0  0
  146.7090  136.4630  162.5340 S   0  0  0  0  0  0  0  0  0  0  0  0
  149.6213  139.7540  156.2186 N   0  3  0  0  0  0  0  0  0  0  0  0
  148.3598  139.9485  156.9860 C   0  0  0  0  0  0  0  0  0  0  0  0
  147.2146  140.3352  156.0315 C   0  0  0  0  0  0  0  0  0  0  0  0
  147.5592  141.4981  155.2900 O   0  0  0  0  0  0  0  0  0  0  0  0
  148.7224  141.2945  154.4989 C   0  0  0  0  0  0  0  0  0  0  0  0
  149.9051  140.9828  155.4269 C   0  0  0  0  0  0  0  0  0  0  0  0
  152.7912  138.3939  154.1141 H   0  0  0  0  0  0  0  0  0  0  0  0
  151.0879  138.8095  154.0851 H   0  0  0  0  0  0  0  0  0  0  0  0
  151.6245  137.3051  154.8370 H   0  0  0  0  0  0  0  0  0  0  0  0
  152.8721  138.6137  156.5701 H   0  0  0  0  0  0  0  0  0  0  0  0
  152.3998  140.0986  155.7951 H   0  0  0  0  0  0  0  0  0  0  0  0
  151.8354  139.5096  158.8726 H   0  0  0  0  0  0  0  0  0  0  0  0
  150.2478  140.2364  158.8061 H   0  0  0  0  0  0  0  0  0  0  0  0
  151.5995  140.9728  157.9455 H   0  0  0  0  0  0  0  0  0  0  0  0
  149.9273  137.1626  156.6882 H   0  0  0  0  0  0  0  0  0  0  0  0
  151.3117  137.1789  157.7228 H   0  0  0  0  0  0  0  0  0  0  0  0
  149.4311  138.7094  159.0744 H   0  0  0  0  0  0  0  0  0  0  0  0
  146.3856  133.1173  161.1422 H   0  0  0  0  0  0  0  0  0  0  0  0
  145.6102  134.4192  163.3708 H   0  0  0  0  0  0  0  0  0  0  0  0
  148.0504  139.0413  157.5012 H   0  0  0  0  0  0  0  0  0  0  0  0
  148.4998  140.7203  157.7438 H   0  0  0  0  0  0  0  0  0  0  0  0
  146.9870  139.5140  155.3494 H   0  0  0  0  0  0  0  0  0  0  0  0
  146.3057  140.5365  156.5987 H   0  0  0  0  0  0  0  0  0  0  0  0
  148.5616  140.4886  153.7804 H   0  0  0  0  0  0  0  0  0  0  0  0
  148.9219  142.1997  153.9255 H   0  0  0  0  0  0  0  0  0  0  0  0
  150.0664  141.8319  156.0922 H   0  0  0  0  0  0  0  0  0  0  0  0
  150.8089  140.8743  154.8310 H   0  0  0  0  0  0  0  0  0  0  0  0
  149.3943  139.0454  155.5340 H   0  0  0  0  0  0  0  0  0  0  0  0
  1  2  1  0  0  0  0
  1 21  1  0  0  0  0
  1 22  1  0  0  0  0
  1 23  1  0  0  0  0
  2  3  1  0  0  0  0
  2 24  1  0  0  0  0
  2 25  1  0  0  0  0
  3  4  1  0  0  0  0
  3  5  1  0  0  0  0
  3 15  1  0  0  0  0
  4 26  1  0  0  0  0
  4 27  1  0  0  0  0
  4 28  1  0  0  0  0
  5  6  1  0  0  0  0
  5 29  1  0  0  0  0
  5 30  1  0  0  0  0
  6  7  1  0  0  0  0
  6 31  1  0  0  0  0
  7  8  2  0  0  0  0
  7  9  1  0  0  0  0
  9 10  1  0  0  0  0
 10 14  1  0  0  0  0
 10 11  2  0  0  0  0
 11 12  1  0  0  0  0
 12 13  2  0  0  0  0
 12 32  1  0  0  0  0
 13 14  1  0  0  0  0
 13 33  1  0  0  0  0
 15 20  1  0  0  0  0
 15 16  1  0  0  0  0
 15 42  1  0  0  0  0
 16 17  1  0  0  0  0
 16 34  1  0  0  0  0
 16 35  1  0  0  0  0
 17 18  1  0  0  0  0
 17 36  1  0  0  0  0
 17 37  1  0  0  0  0
 18 19  1  0  0  0  0
 19 20  1  0  0  0  0
 19 38  1  0  0  0  0
 19 39  1  0  0  0  0
 20 40  1  0  0  0  0
 20 41  1  0  0  0  0
M  CHG  1   9  -1
M  CHG  1  15   1
M  END
> <s_m_source_file>
AV-unprocessed.smi

> <i_m_source_file_index>
1995

> <i_lp_mmshare_version>
43012

> <i_f3d_flags>
0

> <s_epik_input>
W0NIMl0xW0NIMl1PW0NIMl1bQ0gyXU4xW0NAQF0oW0NIM10pKFtDSDJdW0NIM10pW0NIMl1bTkhdQyg9TylbTkhdYzJuW2NIXVtjSF1zMg==

> <s_epik_cmdline>
J2VwaWtfcHl0aG9uJywgJy1waCcsICc3LjAnLCAnLXRuJywgJzgnLCAnLW1hJywgJzIwMCcsICctbWV0YWxfYmluZGluZycsICctaW1hZScsICc8aW5maWxlLm1hZT4nLCAnLW9tYWUnLCAnPG91dGZpbGUubWFlPic=

> <r_lp_tautomer_probability>
0.999

> <r_epik_Ionization_Penalty>
8.09417

> <r_epik_Ionization_Penalty_Charging>
6.70334

> <r_epik_Ionization_Penalty_Neutral>
1.39083

> <r_epik_State_Penalty>
6.86521

> <r_epik_Charging_Adjusted_Penalty>
13.5685

> <i_epik_Tot_Q>
0

> <i_epik_Tot_abs_Q>
2

> <r_epik_Metal_State_Penalty>
2.79608

> <b_epik_Metal_Only>
1

> <s_lp_Force_Field>
OPLS_2005

> <r_lp_Energy>
20.9753

> <b_lp_Chiralities_Consistent>
1

> <s_lp_Variant>
AV-unprocessed.smi:1995-8

> <Gold.Version>
5.8.1

> <Gold.Id.Protein>
6NUR|6NUR_protein|mol2

> <Gold.PLP.Fitness>
41.9666

> <Gold.PLP.PLP>
-33.0780

> <Gold.PLP.part.hbond>
-3.0000

> <Gold.PLP.part.metal>
0.0000

> <Gold.PLP.part.buried>
-5.2292

> <Gold.PLP.part.nonpolar>
-27.0942

> <Gold.PLP.part.repulsive>
0.3130

> <Gold.PLP.ligand.clash>
0.0000

> <Gold.PLP.ligand.torsion>
0.5472

> <Gold.PLP.Chemscore.Hbond>
3.2699

> <Gold.PLP.Chemscore.CHOScore>
0.0000

> <Gold.PLP.Chemscore.Metal>
0.0000

> <Gold.Chemscore.Hbonds>
donor molecule, donor type, donor heavy atom, donor atom, acceptor molecule, acceptor atom, score
      P1  H  6896  6908       L1     8  1.00
      P1  H  6931  6943       L1     9  0.94
      P1  H  6934  6947       L1     9  0.78

> <Gold.PLP.Chemscore.Internal.Correction>
0.1732

> <Gold.Rescore>
     Score         DG    S(hbond)    S(metal)    S(lipo)     H(rot)  DE(clash)    DE(int)     intcor
     11.95     -14.44       1.72        0.00      65.77       1.75       0.05       2.45       ----

> <Gold.Chemscore.Fitness>
11.9453

> <Gold.Chemscore.DG>
-14.4397

> <Gold.Chemscore.ZeroCoef>
-5.4800

> <Gold.Chemscore.Hbond>
1.7218

> <Gold.Chemscore.Metal>
0.0000

> <Gold.Chemscore.Lipo>
65.7664

> <Gold.Chemscore.Internal_Hbond>
0.0000

> <Gold.Chemscore.DEClash>
0.0491

> <Gold.Chemscore.DEInternal>
2.4453

> <Gold.Chemscore.Rot>
1.7523

> <Gold.Chemscore.Internal.Correction>
   9.000000E+99

> <Gold.Chemscore.Hbonds>
donor molecule, donor type, donor heavy atom, donor atom, acceptor molecule, acceptor atom, score
      P1  H  6896  6908       L1     8  0.88
      P1  H  6931  6943       L1     9  0.13
      P1  H  6934  6947       L1     9  0.18

> <Gold.Chemscore.Hbond.Weighted>
-5.7509

> <Gold.Chemscore.Metal.Weighted>
-0.0000

> <Gold.Chemscore.Lipo.Weighted>
-7.6947

> <Gold.Chemscore.Internal_Hbond.Weighted>
0.0000

> <Gold.Chemscore.DEClash.Weighted>
0.0491

> <Gold.Chemscore.DEInternal.Weighted>
2.4453

> <Gold.Chemscore.Rot.Weighted>
4.4858

> <Gold.Chemscore.Internal.Correction.Weighted>
   9.000000E+99

> <Gold.Protein.RotatedTorsions>
[ 6907 6896 6895 6894 ] final  177.74 input  -60.11 | X-H torsion
[ 7974 7965 7964 7962 ] final  -10.98 input  175.53 | X-H torsion
[ 8008 7997 7996 7995 ] final  -65.43 input   59.86 | X-H torsion
[ 10167 10162 10161 10158 ] final  -14.07 input  -65.29 | X-H torsion
[ 10718 10713 10712 10709 ] final    7.37 input   66.30 | X-H torsion
[ 10763 10752 10751 10750 ] final  -25.95 input  -60.55 | X-H torsion
[ 11005 11000 10999 10996 ] final   41.87 input  -57.11 | X-H torsion

> <Gold.Protein.ActiveResidues>
 VAL166  LYS551  ARG553  GLY616  TRP617  ASP618  TYR619  PRO620  LYS621  CYS622 
 ASP623  PHE694  ASN695  SER759  ASP760  ASP761  ALA762  ILE779  LEU786  VAL792 
 PHE793  MET794  SER795  GLU796  ALA797  LYS798  CYS799  TRP800  GLU811  SER814 

> <Gold.Protein.RotatedAtoms>
  151.6991  133.3311  159.3261 H   0  0  0  0  0  0  0  0  0  0  0  0  # atno 6907 bound_to 6896
  150.7744  134.6631  159.6360 H   0  0  0  0  0  0  0  0  0  0  0  0  # atno 6908 bound_to 6896
  152.3780  134.6636  160.0205 H   0  0  0  0  0  0  0  0  0  0  0  0  # atno 6909 bound_to 6896
  146.2203  140.2844  142.8364 H   0  0  0  0  0  0  0  0  0  0  0  0  # atno 7974 bound_to 7965
  154.4671  140.0933  156.7049 H   0  0  0  0  0  0  0  0  0  0  0  0  # atno 8008 bound_to 7997
  155.4827  140.3468  155.4324 H   0  0  0  0  0  0  0  0  0  0  0  0  # atno 8009 bound_to 7997
  156.0975  140.1413  156.9499 H   0  0  0  0  0  0  0  0  0  0  0  0  # atno 8010 bound_to 7997
  140.7194  143.5360  150.9464 H   0  0  0  0  0  0  0  0  0  0  0  0  # atno 10167 bound_to 10162
  156.9359  130.5843  149.5651 H   0  0  0  0  0  0  0  0  0  0  0  0  # atno 10718 bound_to 10713
  153.7081  135.6952  153.5045 H   0  0  0  0  0  0  0  0  0  0  0  0  # atno 10763 bound_to 10752
  153.2292  135.4343  155.0576 H   0  0  0  0  0  0  0  0  0  0  0  0  # atno 10764 bound_to 10752
  154.8323  135.3480  154.6619 H   0  0  0  0  0  0  0  0  0  0  0  0  # atno 10765 bound_to 10752
  140.1793  134.4124  155.8209 H   0  0  0  0  0  0  0  0  0  0  0  0  # atno 11005 bound_to 11000
  144.9173  140.7827  143.5770 LP  0  0  0  0  0  0  0  0  0  0  0  0  # atno 17320 bound_to 7965
  145.2779  139.1929  143.4807 LP  0  0  0  0  0  0  0  0  0  0  0  0  # atno 17321 bound_to 7965
  139.9081  143.6753  152.3120 LP  0  0  0  0  0  0  0  0  0  0  0  0  # atno 17342 bound_to 10162
  139.7126  144.7617  151.1086 LP  0  0  0  0  0  0  0  0  0  0  0  0  # atno 17343 bound_to 10162
  156.0426  130.5506  150.8806 LP  0  0  0  0  0  0  0  0  0  0  0  0  # atno 17370 bound_to 10713
  157.5816  131.0946  150.9261 LP  0  0  0  0  0  0  0  0  0  0  0  0  # atno 17371 bound_to 10713
  141.2222  133.6993  156.7902 LP  0  0  0  0  0  0  0  0  0  0  0  0  # atno 17394 bound_to 11000
  140.2286  134.8703  157.3452 LP  0  0  0  0  0  0  0  0  0  0  0  0  # atno 17395 bound_to 11000

$$$$
