AV-unprocessed.smi:9|AV-procd|sdf|51|dock2
  -GOLD-   2262015173D 1   1.00000     0.00000
 Structure written by MMmdl.
 35 37  0  0  0  0  0  0  0  0  1 V2000
  145.4412  136.1836  150.3290 O   0  0  0  0  0  0  0  0  0  0  0  0
  145.6129  136.5723  151.4823 C   0  0  0  0  0  0  0  0  0  0  0  0
  145.2354  135.8674  152.5767 N   0  0  0  0  0  0  0  0  0  0  0  0
  145.4345  136.3220  153.9056 C   0  0  0  0  0  0  0  0  0  0  0  0
  144.9065  135.3150  154.9152 C   0  0  0  0  0  0  0  0  0  0  0  0
  145.5362  134.1445  154.8029 F   0  0  0  0  0  0  0  0  0  0  0  0
  145.0847  135.7628  156.1585 F   0  0  0  0  0  0  0  0  0  0  0  0
  143.6037  135.1047  154.7253 F   0  0  0  0  0  0  0  0  0  0  0  0
  145.9946  137.4515  154.2556 N   0  0  0  0  0  0  0  0  0  0  0  0
  146.3913  138.1828  153.1538 C   0  0  0  0  0  0  0  0  0  0  0  0
  146.2566  137.8638  151.8277 C   0  0  0  0  0  0  0  0  0  0  0  0
  146.7733  138.8633  151.0126 N   0  0  0  0  0  0  0  0  0  0  0  0
  147.2071  139.7563  151.8999 C   0  0  0  0  0  0  0  0  0  0  0  0
  147.0263  139.4199  153.1919 N   0  0  0  0  0  0  0  0  0  0  0  0
  147.4032  140.1999  154.3629 C   0  0  0  0  0  0  0  0  0  0  0  0
  148.9112  140.5535  154.4370 C   0  0  1  0  0  0  0  0  0  0  0  0
  149.1868  141.4557  153.3813 O   0  0  0  0  0  0  0  0  0  0  0  0
  149.2885  141.2132  155.7821 C   0  0  0  0  0  0  0  0  0  0  0  0
  150.8068  141.3171  155.9583 C   0  0  0  0  0  0  0  0  0  0  0  0
  151.4614  139.9522  155.7186 C   0  0  0  0  0  0  0  0  0  0  0  0
  151.1487  139.5113  154.4047 O   0  0  0  0  0  0  0  0  0  0  0  0
  149.7585  139.2829  154.1872 C   0  0  0  0  0  0  0  0  0  0  0  0
  144.7887  134.9735  152.4325 H   0  0  0  0  0  0  0  0  0  0  0  0
  147.6773  140.6819  151.6014 H   0  0  0  0  0  0  0  0  0  0  0  0
  146.8099  141.1154  154.3562 H   0  0  0  0  0  0  0  0  0  0  0  0
  147.0967  139.6520  155.2551 H   0  0  0  0  0  0  0  0  0  0  0  0
  149.3922  140.9538  152.6073 H   0  0  0  0  0  0  0  0  0  0  0  0
  148.8381  142.2021  155.8749 H   0  0  0  0  0  0  0  0  0  0  0  0
  148.8854  140.6140  156.5998 H   0  0  0  0  0  0  0  0  0  0  0  0
  151.2146  142.0472  155.2585 H   0  0  0  0  0  0  0  0  0  0  0  0
  151.0436  141.6783  156.9595 H   0  0  0  0  0  0  0  0  0  0  0  0
  152.5441  140.0339  155.8144 H   0  0  0  0  0  0  0  0  0  0  0  0
  151.1288  139.2191  156.4552 H   0  0  0  0  0  0  0  0  0  0  0  0
  149.4361  138.4793  154.8513 H   0  0  0  0  0  0  0  0  0  0  0  0
  149.6148  138.9163  153.1698 H   0  0  0  0  0  0  0  0  0  0  0  0
  1  2  2  0  0  0  0
  2 11  1  0  0  0  0
  2  3  1  0  0  0  0
  3 23  1  0  0  0  0
  3  4  1  0  0  0  0
  4  5  1  0  0  0  0
  4  9  2  0  0  0  0
  5  6  1  0  0  0  0
  5  7  1  0  0  0  0
  5  8  1  0  0  0  0
  9 10  1  0  0  0  0
 10 14  1  0  0  0  0
 10 11  2  0  0  0  0
 11 12  1  0  0  0  0
 12 13  2  0  0  0  0
 13 14  1  0  0  0  0
 13 24  1  0  0  0  0
 14 15  1  0  0  0  0
 15 16  1  0  0  0  0
 15 25  1  0  0  0  0
 15 26  1  0  0  0  0
 16 22  1  0  0  0  0
 16 17  1  0  0  0  0
 16 18  1  0  0  0  0
 17 27  1  0  0  0  0
 18 19  1  0  0  0  0
 18 28  1  0  0  0  0
 18 29  1  0  0  0  0
 19 20  1  0  0  0  0
 19 30  1  0  0  0  0
 19 31  1  0  0  0  0
 20 21  1  0  0  0  0
 20 32  1  0  0  0  0
 20 33  1  0  0  0  0
 21 22  1  0  0  0  0
 22 34  1  0  0  0  0
 22 35  1  0  0  0  0
M  END
> <s_m_source_file>
AV-unprocessed.smi

> <i_m_source_file_index>
9

> <i_lp_mmshare_version>
43012

> <i_f3d_flags>
0

> <s_epik_input>
RkMoRikoRiljKG4xKVtuSF1jKD1PKWMoYzEyKW5bY0hdbjJbQ0gyXVtDQEBdMyhbT0hdKVtDSDJdW0NIMl1bQ0gyXU9bQ0gyXTM=

> <s_epik_cmdline>
J2VwaWtfcHl0aG9uJywgJy1waCcsICc3LjAnLCAnLXRuJywgJzgnLCAnLW1hJywgJzIwMCcsICctbWV0YWxfYmluZGluZycsICctaW1hZScsICc8aW5maWxlLm1hZT4nLCAnLW9tYWUnLCAnPG91dGZpbGUubWFlPic=

> <r_lp_tautomer_probability>
0.85571

> <r_epik_Ionization_Penalty>
0.770127

> <r_epik_Ionization_Penalty_Charging>
0.770101

> <r_epik_Ionization_Penalty_Neutral>
2.64604e-05

> <r_epik_State_Penalty>
2.30539

> <r_epik_Charging_Adjusted_Penalty>
3.07549

> <i_epik_Tot_Q>
0

> <i_epik_Tot_abs_Q>
0

> <r_epik_Metal_State_Penalty>
2.4903

> <b_epik_Metal_Only>
0

> <s_lp_Force_Field>
OPLS_2005

> <r_lp_Energy>
27.1686

> <b_lp_Chiralities_Consistent>
1

> <s_lp_Variant>
AV-unprocessed.smi:9-3

> <Gold.Version>
5.8.1

> <Gold.Id.Protein>
6NUR|6NUR_protein|mol2

> <Gold.PLP.Fitness>
41.3802

> <Gold.PLP.PLP>
-31.0683

> <Gold.PLP.part.hbond>
-4.8110

> <Gold.PLP.part.metal>
0.0000

> <Gold.PLP.part.buried>
0.6616

> <Gold.PLP.part.nonpolar>
-27.0529

> <Gold.PLP.part.repulsive>
1.1815

> <Gold.PLP.ligand.clash>
0.0000

> <Gold.PLP.ligand.torsion>
0.0713

> <Gold.PLP.Chemscore.Hbond>
2.9760

> <Gold.PLP.Chemscore.CHOScore>
0.5060

> <Gold.PLP.Chemscore.Metal>
0.0000

> <Gold.Chemscore.Hbonds>
donor molecule, donor type, donor heavy atom, donor atom, acceptor molecule, acceptor atom, score
      L1  H    17    27       P1  7957  1.00
      P1  H  7954  7966       L1    12  0.87
      P1  H  7989  7998       L1    21  1.00
      L1  C    13    24       P1  7957  0.44

> <Gold.PLP.Chemscore.Internal.Correction>
0.0085

> <Gold.Rescore>
     Score         DG    S(hbond)    S(metal)    S(lipo)     H(rot)  DE(clash)    DE(int)     intcor
     10.86     -13.07       2.34        0.00      44.79       2.14       2.00       0.21       ----

> <Gold.Chemscore.Fitness>
10.8600

> <Gold.Chemscore.DG>
-13.0717

> <Gold.Chemscore.ZeroCoef>
-5.4800

> <Gold.Chemscore.Hbond>
2.3423

> <Gold.Chemscore.Metal>
0.0000

> <Gold.Chemscore.Lipo>
44.7854

> <Gold.Chemscore.Internal_Hbond>
0.0000

> <Gold.Chemscore.DEClash>
2.0046

> <Gold.Chemscore.DEInternal>
0.2071

> <Gold.Chemscore.Rot>
2.1373

> <Gold.Chemscore.Internal.Correction>
   9.000000E+99

> <Gold.Chemscore.Hbonds>
donor molecule, donor type, donor heavy atom, donor atom, acceptor molecule, acceptor atom, score
      L1  H    17    27       P1  7957  1.00
      P1  H  7954  7966       L1    12  0.34
      P1  H  7989  7998       L1    21  0.21

> <Gold.Chemscore.Hbond.Weighted>
-7.8232

> <Gold.Chemscore.Metal.Weighted>
-0.0000

> <Gold.Chemscore.Lipo.Weighted>
-5.2399

> <Gold.Chemscore.Internal_Hbond.Weighted>
0.0000

> <Gold.Chemscore.DEClash.Weighted>
2.0046

> <Gold.Chemscore.DEInternal.Weighted>
0.2071

> <Gold.Chemscore.Rot.Weighted>
5.4714

> <Gold.Chemscore.Internal.Correction.Weighted>
   9.000000E+99

> <Gold.Protein.RotatedTorsions>
[ 6907 6896 6895 6894 ] final   -8.69 input  -60.11 | X-H torsion
[ 7974 7965 7964 7962 ] final -105.17 input  175.53 | X-H torsion
[ 8008 7997 7996 7995 ] final -135.35 input   59.86 | X-H torsion
[ 10167 10162 10161 10158 ] final  -54.01 input  -65.29 | X-H torsion
[ 10718 10713 10712 10709 ] final -161.28 input   66.30 | X-H torsion
[ 10763 10752 10751 10750 ] final  -19.05 input  -60.55 | X-H torsion
[ 11005 11000 10999 10996 ] final -157.33 input  -57.11 | X-H torsion

> <Gold.Protein.ActiveResidues>
 VAL166  LYS551  ARG553  GLY616  TRP617  ASP618  TYR619  PRO620  LYS621  CYS622 
 ASP623  PHE694  ASN695  SER759  ASP760  ASP761  ALA762  ILE779  LEU786  VAL792 
 PHE793  MET794  SER795  GLU796  ALA797  LYS798  CYS799  TRP800  GLU811  SER814 

> <Gold.Protein.RotatedAtoms>
  151.4296  135.1008  159.9638 H   0  0  0  0  0  0  0  0  0  0  0  0  # atno 6907 bound_to 6896
  152.4960  133.8630  159.7270 H   0  0  0  0  0  0  0  0  0  0  0  0  # atno 6908 bound_to 6896
  150.9164  133.6875  159.2870 H   0  0  0  0  0  0  0  0  0  0  0  0  # atno 6909 bound_to 6896
  145.2338  140.9180  143.3189 H   0  0  0  0  0  0  0  0  0  0  0  0  # atno 7974 bound_to 7965
  155.3772  140.0492  157.3044 H   0  0  0  0  0  0  0  0  0  0  0  0  # atno 8008 bound_to 7997
  154.5101  140.2188  155.9136 H   0  0  0  0  0  0  0  0  0  0  0  0  # atno 8009 bound_to 7997
  156.1572  140.3124  155.8751 H   0  0  0  0  0  0  0  0  0  0  0  0  # atno 8010 bound_to 7997
  140.6454  143.2532  151.4874 H   0  0  0  0  0  0  0  0  0  0  0  0  # atno 10167 bound_to 10162
  156.5940  130.8782  151.2897 H   0  0  0  0  0  0  0  0  0  0  0  0  # atno 10718 bound_to 10713
  153.5988  135.7000  153.5393 H   0  0  0  0  0  0  0  0  0  0  0  0  # atno 10763 bound_to 10752
  153.3115  135.4100  155.1339 H   0  0  0  0  0  0  0  0  0  0  0  0  # atno 10764 bound_to 10752
  154.8586  135.3673  154.5522 H   0  0  0  0  0  0  0  0  0  0  0  0  # atno 10765 bound_to 10752
  140.6657  134.4301  157.5233 H   0  0  0  0  0  0  0  0  0  0  0  0  # atno 11005 bound_to 11000
  144.9651  139.3938  143.6336 LP  0  0  0  0  0  0  0  0  0  0  0  0  # atno 17320 bound_to 7965
  146.3346  139.8723  142.8838 LP  0  0  0  0  0  0  0  0  0  0  0  0  # atno 17321 bound_to 7965
  139.5664  144.2032  152.1771 LP  0  0  0  0  0  0  0  0  0  0  0  0  # atno 17342 bound_to 10162
  140.1315  144.5284  150.6800 LP  0  0  0  0  0  0  0  0  0  0  0  0  # atno 17343 bound_to 10162
  157.7296  130.9674  150.1796 LP  0  0  0  0  0  0  0  0  0  0  0  0  # atno 17370 bound_to 10713
  156.2525  130.3702  149.8217 LP  0  0  0  0  0  0  0  0  0  0  0  0  # atno 17371 bound_to 10713
  139.8998  134.8583  156.1946 LP  0  0  0  0  0  0  0  0  0  0  0  0  # atno 17394 bound_to 11000
  141.0431  133.6927  156.1633 LP  0  0  0  0  0  0  0  0  0  0  0  0  # atno 17395 bound_to 11000

$$$$
