AV-unprocessed.smi:1776|AV-procd|sdf|7176|dock9
  -GOLD-   22720 8413D 1   1.00000     0.00000
 Structure written by MMmdl.
 30 31  0  0  0  0  0  0  0  0  2 V2000
  151.1479  141.0262  155.5729 O   0  0  0  0  0  0  0  0  0  0  0  0
  151.4653  140.0032  156.1796 C   0  0  0  0  0  0  0  0  0  0  0  0
  151.9915  139.9664  157.4204 N   0  0  0  0  0  0  0  0  0  0  0  0
  152.3000  141.0097  158.3120 C   0  0  0  0  0  0  0  0  0  0  0  0
  151.5829  142.1590  158.4587 C   0  0  0  0  0  0  0  0  0  0  0  0
  151.9582  143.1977  159.4099 C   0  0  0  0  0  0  0  0  0  0  0  0
  151.2369  144.5285  159.5326 C   0  0  0  0  0  0  0  0  0  0  0  0
  149.9707  144.3555  159.9127 F   0  0  0  0  0  0  0  0  0  0  0  0
  151.8390  145.3179  160.4224 F   0  0  0  0  0  0  0  0  0  0  0  0
  151.2359  145.1539  158.3563 F   0  0  0  0  0  0  0  0  0  0  0  0
  153.1069  142.8796  160.1077 C   0  0  0  0  0  0  0  0  0  0  0  0
  153.8607  141.7608  160.0402 N   0  5  0  0  0  0  0  0  0  0  0  0
  153.4989  140.7947  159.1496 C   0  0  0  0  0  0  0  0  0  0  0  0
  154.1466  139.7536  159.0325 O   0  0  0  0  0  0  0  0  0  0  0  0
  151.2558  138.6297  155.5242 C   0  0  1  0  0  0  0  0  0  0  0  0
  152.1138  137.5111  156.1609 C   0  0  0  0  0  0  0  0  0  0  0  0
  151.8253  136.2744  155.5209 O   0  0  0  0  0  0  0  0  0  0  0  0
  150.4532  135.9304  155.6539 C   0  0  0  0  0  0  0  0  0  0  0  0
  149.5980  137.0336  155.0106 C   0  0  0  0  0  0  0  0  0  0  0  0
  149.8819  138.2702  155.6502 O   0  0  0  0  0  0  0  0  0  0  0  0
  152.2211  139.0474  157.7710 H   0  0  0  0  0  0  0  0  0  0  0  0
  150.6949  142.3424  157.8786 H   0  0  0  0  0  0  0  0  0  0  0  0
  153.4790  143.6411  160.8258 H   0  0  0  0  0  0  0  0  0  0  0  0
  151.5070  138.7279  154.4665 H   0  0  0  0  0  0  0  0  0  0  0  0
  153.1764  137.7216  156.0358 H   0  0  0  0  0  0  0  0  0  0  0  0
  151.9255  137.4278  157.2329 H   0  0  0  0  0  0  0  0  0  0  0  0
  150.2754  134.9754  155.1598 H   0  0  0  0  0  0  0  0  0  0  0  0
  150.1954  135.8018  156.7063 H   0  0  0  0  0  0  0  0  0  0  0  0
  149.7969  137.1077  153.9403 H   0  0  0  0  0  0  0  0  0  0  0  0
  148.5379  136.8083  155.1265 H   0  0  0  0  0  0  0  0  0  0  0  0
  1  2  2  0  0  0  0
  2  3  1  0  0  0  0
  2 15  1  0  0  0  0
  3  4  1  0  0  0  0
  3 21  1  0  0  0  0
  4 13  1  0  0  0  0
  4  5  2  0  0  0  0
  5  6  1  0  0  0  0
  5 22  1  0  0  0  0
  6  7  1  0  0  0  0
  6 11  2  0  0  0  0
  7  8  1  0  0  0  0
  7  9  1  0  0  0  0
  7 10  1  0  0  0  0
 11 12  1  0  0  0  0
 11 23  1  0  0  0  0
 12 13  1  0  0  0  0
 13 14  2  0  0  0  0
 15 20  1  0  0  0  0
 15 16  1  0  0  0  0
 15 24  1  0  0  0  0
 16 17  1  0  0  0  0
 16 25  1  0  0  0  0
 16 26  1  0  0  0  0
 17 18  1  0  0  0  0
 18 19  1  0  0  0  0
 18 27  1  0  0  0  0
 18 28  1  0  0  0  0
 19 20  1  0  0  0  0
 19 29  1  0  0  0  0
 19 30  1  0  0  0  0
M  CHG  1  12  -1
M  END
> <s_m_source_file>
AV-unprocessed.smi

> <i_m_source_file_index>
1776

> <i_lp_mmshare_version>
43012

> <i_f3d_flags>
0

> <s_epik_input>
TzFbQ0gyXVtDSDJdT1tDSDJdW0NASF0xQyg9TylbTkhdYzJbY0hdYyhDKEYpKEYpRilbY0hdW25IXWMyPU8=

> <s_epik_cmdline>
J2VwaWtfcHl0aG9uJywgJy1waCcsICc3LjAnLCAnLXRuJywgJzgnLCAnLW1hJywgJzIwMCcsICctbWV0YWxfYmluZGluZycsICctaW1hZScsICc8aW5maWxlLm1hZT4nLCAnLW9tYWUnLCAnPG91dGZpbGUubWFlPic=

> <r_epik_Ionization_Penalty>
2.46925

> <r_epik_Ionization_Penalty_Charging>
0.0509887

> <r_epik_Ionization_Penalty_Neutral>
2.41826

> <r_epik_State_Penalty>
2.57741

> <r_epik_Charging_Adjusted_Penalty>
2.6284

> <i_epik_Tot_Q>
-1

> <i_epik_Tot_abs_Q>
1

> <r_epik_Metal_State_Penalty>
0.510263

> <b_epik_Metal_Only>
0

> <s_lp_Force_Field>
OPLS_2005

> <r_lp_Energy>
25.1464

> <b_lp_Chiralities_Consistent>
1

> <s_lp_Variant>
AV-unprocessed.smi:1776-4

> <Gold.Version>
5.8.1

> <Gold.Id.Protein>
6NUR|6NUR_protein|mol2

> <Gold.PLP.Fitness>
42.4112

> <Gold.PLP.PLP>
-36.3637

> <Gold.PLP.part.hbond>
-3.0000

> <Gold.PLP.part.metal>
0.0000

> <Gold.PLP.part.buried>
-5.3423

> <Gold.PLP.part.nonpolar>
-27.3649

> <Gold.PLP.part.repulsive>
0.2259

> <Gold.PLP.ligand.clash>
0.0000

> <Gold.PLP.ligand.torsion>
0.8274

> <Gold.PLP.Chemscore.Hbond>
2.5512

> <Gold.PLP.Chemscore.CHOScore>
0.0000

> <Gold.PLP.Chemscore.Metal>
0.0000

> <Gold.Chemscore.Hbonds>
donor molecule, donor type, donor heavy atom, donor atom, acceptor molecule, acceptor atom, score
      P1  H  7989  7998       L1     1  0.50
      P1  H  7997  8008       L1    14  1.00
      P1  H 10752 10764       L1    17  1.00

> <Gold.PLP.Chemscore.Internal.Correction>
0.0488

> <Gold.Rescore>
     Score         DG    S(hbond)    S(metal)    S(lipo)     H(rot)  DE(clash)    DE(int)     intcor
     17.12     -18.09       2.11        0.00      69.43       1.00       0.41       0.55       ----

> <Gold.Chemscore.Fitness>
17.1249

> <Gold.Chemscore.DG>
-18.0872

> <Gold.Chemscore.ZeroCoef>
-5.4800

> <Gold.Chemscore.Hbond>
2.1091

> <Gold.Chemscore.Metal>
0.0000

> <Gold.Chemscore.Lipo>
69.4271

> <Gold.Chemscore.Internal_Hbond>
0.0000

> <Gold.Chemscore.DEClash>
0.4131

> <Gold.Chemscore.DEInternal>
0.5493

> <Gold.Chemscore.Rot>
1.0000

> <Gold.Chemscore.Internal.Correction>
   9.000000E+99

> <Gold.Chemscore.Hbonds>
donor molecule, donor type, donor heavy atom, donor atom, acceptor molecule, acceptor atom, score
      P1  H  7989  7998       L1     1  0.40
      P1  H  7997  8008       L1    14  0.34
      P1  H 10752 10764       L1    17  0.91

> <Gold.Chemscore.Hbond.Weighted>
-7.0443

> <Gold.Chemscore.Metal.Weighted>
-0.0000

> <Gold.Chemscore.Lipo.Weighted>
-8.1230

> <Gold.Chemscore.Internal_Hbond.Weighted>
0.0000

> <Gold.Chemscore.DEClash.Weighted>
0.4131

> <Gold.Chemscore.DEInternal.Weighted>
0.5493

> <Gold.Chemscore.Rot.Weighted>
2.5600

> <Gold.Chemscore.Internal.Correction.Weighted>
   9.000000E+99

> <Gold.Protein.RotatedTorsions>
[ 6907 6896 6895 6894 ] final  105.92 input  -60.11 | X-H torsion
[ 7974 7965 7964 7962 ] final -100.45 input  175.53 | X-H torsion
[ 8008 7997 7996 7995 ] final -117.63 input   59.86 | X-H torsion
[ 10167 10162 10161 10158 ] final  -33.97 input  -65.29 | X-H torsion
[ 10718 10713 10712 10709 ] final  -63.77 input   66.30 | X-H torsion
[ 10763 10752 10751 10750 ] final  -48.72 input  -60.55 | X-H torsion
[ 11005 11000 10999 10996 ] final  169.78 input  -57.11 | X-H torsion

> <Gold.Protein.ActiveResidues>
 VAL166  LYS551  ARG553  GLY616  TRP617  ASP618  TYR619  PRO620  LYS621  CYS622 
 ASP623  PHE694  ASN695  SER759  ASP760  ASP761  ALA762  ILE779  LEU786  VAL792 
 PHE793  MET794  SER795  GLU796  ALA797  LYS798  CYS799  TRP800  GLU811  SER814 

> <Gold.Protein.RotatedAtoms>
  152.5213  133.9458  159.7647 H   0  0  0  0  0  0  0  0  0  0  0  0  # atno 6907 bound_to 6896
  150.9778  133.6268  159.2734 H   0  0  0  0  0  0  0  0  0  0  0  0  # atno 6908 bound_to 6896
  151.3456  135.0879  159.9439 H   0  0  0  0  0  0  0  0  0  0  0  0  # atno 6909 bound_to 6896
  145.2945  140.9361  143.2859 H   0  0  0  0  0  0  0  0  0  0  0  0  # atno 7974 bound_to 7965
  155.0868  140.0394  157.2656 H   0  0  0  0  0  0  0  0  0  0  0  0  # atno 8008 bound_to 7997
  154.6863  140.2644  155.6832 H   0  0  0  0  0  0  0  0  0  0  0  0  # atno 8009 bound_to 7997
  156.2713  140.2768  156.1425 H   0  0  0  0  0  0  0  0  0  0  0  0  # atno 8010 bound_to 7997
  140.7194  143.3582  151.2017 H   0  0  0  0  0  0  0  0  0  0  0  0  # atno 10167 bound_to 10162
  156.0770  130.4225  150.1325 H   0  0  0  0  0  0  0  0  0  0  0  0  # atno 10718 bound_to 10713
  154.0824  135.6589  153.4840 H   0  0  0  0  0  0  0  0  0  0  0  0  # atno 10763 bound_to 10752
  153.0351  135.5183  154.7461 H   0  0  0  0  0  0  0  0  0  0  0  0  # atno 10764 bound_to 10752
  154.6560  135.3008  154.9895 H   0  0  0  0  0  0  0  0  0  0  0  0  # atno 10765 bound_to 10752
  140.3013  134.7592  157.3918 H   0  0  0  0  0  0  0  0  0  0  0  0  # atno 11005 bound_to 11000
  144.9145  139.4487  143.6571 LP  0  0  0  0  0  0  0  0  0  0  0  0  # atno 17320 bound_to 7965
  146.3173  139.7972  142.8973 LP  0  0  0  0  0  0  0  0  0  0  0  0  # atno 17321 bound_to 7965
  139.7128  143.9350  152.2954 LP  0  0  0  0  0  0  0  0  0  0  0  0  # atno 17342 bound_to 10162
  139.9080  144.6873  150.8593 LP  0  0  0  0  0  0  0  0  0  0  0  0  # atno 17343 bound_to 10162
  156.9364  130.9730  151.3524 LP  0  0  0  0  0  0  0  0  0  0  0  0  # atno 17370 bound_to 10713
  157.5870  130.8416  149.8603 LP  0  0  0  0  0  0  0  0  0  0  0  0  # atno 17371 bound_to 10713
  140.1106  134.5350  155.8269 LP  0  0  0  0  0  0  0  0  0  0  0  0  # atno 17394 bound_to 11000
  141.2127  133.6723  156.6682 LP  0  0  0  0  0  0  0  0  0  0  0  0  # atno 17395 bound_to 11000

$$$$
