AV-unprocessed.smi:2562|AV-procd|sdf|10052|dock1
  -GOLD-   2272014 93D 1   1.00000     0.00000
 Structure written by MMmdl.
 30 31  0  0  0  0  0  0  0  0  3 V2000
  153.2289  143.4079  163.4897 C   0  0  0  0  0  0  0  0  0  0  0  0
  152.6622  142.4519  162.4344 C   0  0  0  0  0  0  0  0  0  0  0  0
  153.7459  141.5766  161.7897 C   0  0  0  0  0  0  0  0  0  0  0  0
  153.3429  141.0880  160.4150 C   0  0  0  0  0  0  0  0  0  0  0  0
  154.0641  140.2413  159.6644 N   0  0  0  0  0  0  0  0  0  0  0  0
  153.3552  140.0525  158.5700 N   0  5  0  0  0  0  0  0  0  0  0  0
  152.2067  140.7473  158.6466 C   0  0  0  0  0  0  0  0  0  0  0  0
  151.1443  140.8180  157.5703 C   0  0  2  0  0  0  0  0  0  0  0  0
  150.9607  142.2642  157.0698 C   0  0  0  0  0  0  0  0  0  0  0  0
  149.9087  142.3187  156.0367 N   0  3  0  0  0  0  0  0  0  0  0  0
  148.6447  141.7282  156.5173 C   0  0  0  0  0  0  0  0  0  0  0  0
  148.8939  140.3006  157.0314 C   0  0  0  0  0  0  0  0  0  0  0  0
  149.8920  140.3273  158.0449 O   0  0  0  0  0  0  0  0  0  0  0  0
  152.1948  141.4068  159.8010 N   0  0  0  0  0  0  0  0  0  0  0  0
  152.4390  144.0246  163.9186 H   0  0  0  0  0  0  0  0  0  0  0  0
  153.9740  144.0752  163.0555 H   0  0  0  0  0  0  0  0  0  0  0  0
  153.7028  142.8589  164.3038 H   0  0  0  0  0  0  0  0  0  0  0  0
  151.9037  141.8166  162.8935 H   0  0  0  0  0  0  0  0  0  0  0  0
  152.1542  143.0300  161.6614 H   0  0  0  0  0  0  0  0  0  0  0  0
  154.6777  142.1364  161.7018 H   0  0  0  0  0  0  0  0  0  0  0  0
  153.9572  140.7127  162.4213 H   0  0  0  0  0  0  0  0  0  0  0  0
  151.4774  140.1843  156.7462 H   0  0  0  0  0  0  0  0  0  0  0  0
  150.6851  142.9198  157.8972 H   0  0  0  0  0  0  0  0  0  0  0  0
  151.8924  142.6475  156.6525 H   0  0  0  0  0  0  0  0  0  0  0  0
  149.7524  143.2798  155.7682 H   0  0  0  0  0  0  0  0  0  0  0  0
  148.2381  142.3504  157.3156 H   0  0  0  0  0  0  0  0  0  0  0  0
  147.9151  141.7243  155.7074 H   0  0  0  0  0  0  0  0  0  0  0  0
  147.9763  139.8859  157.4494 H   0  0  0  0  0  0  0  0  0  0  0  0
  149.2009  139.6400  156.2190 H   0  0  0  0  0  0  0  0  0  0  0  0
  150.2238  141.7972  155.2311 H   0  0  0  0  0  0  0  0  0  0  0  0
  1  2  1  0  0  0  0
  1 15  1  0  0  0  0
  1 16  1  0  0  0  0
  1 17  1  0  0  0  0
  2  3  1  0  0  0  0
  2 18  1  0  0  0  0
  2 19  1  0  0  0  0
  3  4  1  0  0  0  0
  3 20  1  0  0  0  0
  3 21  1  0  0  0  0
  4 14  1  0  0  0  0
  4  5  2  0  0  0  0
  5  6  1  0  0  0  0
  6  7  1  0  0  0  0
  7  8  1  0  0  0  0
  7 14  2  0  0  0  0
  8 13  1  0  0  0  0
  8  9  1  0  0  0  0
  8 22  1  0  0  0  0
  9 10  1  0  0  0  0
  9 23  1  0  0  0  0
  9 24  1  0  0  0  0
 10 11  1  0  0  0  0
 10 25  1  0  0  0  0
 10 30  1  0  0  0  0
 11 12  1  0  0  0  0
 11 26  1  0  0  0  0
 11 27  1  0  0  0  0
 12 13  1  0  0  0  0
 12 28  1  0  0  0  0
 12 29  1  0  0  0  0
M  CHG  1   6  -1
M  CHG  1  10   1
M  END
> <s_m_source_file>
AV-unprocessed.smi

> <i_m_source_file_index>
2562

> <i_lp_mmshare_version>
43012

> <i_f3d_flags>
0

> <s_epik_input>
W0NIM11bQ0gyXVtDSDJdYzFuW25IXWMobjEpW0NAQEhdMltDSDJdW05IXVtDSDJdW0NIMl1PMg==

> <s_epik_cmdline>
J2VwaWtfcHl0aG9uJywgJy1waCcsICc3LjAnLCAnLXRuJywgJzgnLCAnLW1hJywgJzIwMCcsICctbWV0YWxfYmluZGluZycsICctaW1hZScsICc8aW5maWxlLm1hZT4nLCAnLW9tYWUnLCAnPG91dGZpbGUubWFlPic=

> <r_epik_Ionization_Penalty>
3.5188

> <r_epik_Ionization_Penalty_Charging>
3.5188

> <r_epik_Ionization_Penalty_Neutral>
2.11677e-13

> <r_epik_State_Penalty>
2.51144

> <r_epik_Charging_Adjusted_Penalty>
6.03025

> <i_epik_Tot_Q>
0

> <i_epik_Tot_abs_Q>
2

> <r_epik_Metal_State_Penalty>
0.975833

> <b_epik_Metal_Only>
0

> <s_lp_Force_Field>
OPLS_2005

> <r_lp_Energy>
5.22198

> <b_lp_Chiralities_Consistent>
1

> <s_lp_Variant>
AV-unprocessed.smi:2562-11

> <Gold.Version>
5.8.1

> <Gold.Id.Protein>
6NUR|6NUR_protein|mol2

> <Gold.PLP.Fitness>
38.7955

> <Gold.PLP.PLP>
-27.0761

> <Gold.PLP.part.hbond>
-2.0000

> <Gold.PLP.part.metal>
0.0000

> <Gold.PLP.part.buried>
-3.2411

> <Gold.PLP.part.nonpolar>
-20.2058

> <Gold.PLP.part.repulsive>
0.1160

> <Gold.PLP.ligand.clash>
0.0000

> <Gold.PLP.ligand.torsion>
0.1506

> <Gold.PLP.Chemscore.Hbond>
4.0000

> <Gold.PLP.Chemscore.CHOScore>
0.0000

> <Gold.PLP.Chemscore.Metal>
0.0000

> <Gold.Chemscore.Hbonds>
donor molecule, donor type, donor heavy atom, donor atom, acceptor molecule, acceptor atom, score
      L1  H    10    25       P1  8028  2.00
      P1  H  7997  8009       L1     6  1.98

> <Gold.PLP.Chemscore.Internal.Correction>
0.0206

> <Gold.Rescore>
     Score         DG    S(hbond)    S(metal)    S(lipo)     H(rot)  DE(clash)    DE(int)     intcor
     13.60     -14.12       1.77        0.00      55.60       1.48       0.34       0.17       ----

> <Gold.Chemscore.Fitness>
13.5995

> <Gold.Chemscore.DG>
-14.1161

> <Gold.Chemscore.ZeroCoef>
-5.4800

> <Gold.Chemscore.Hbond>
1.7728

> <Gold.Chemscore.Metal>
0.0000

> <Gold.Chemscore.Lipo>
55.5983

> <Gold.Chemscore.Internal_Hbond>
0.0000

> <Gold.Chemscore.DEClash>
0.3424

> <Gold.Chemscore.DEInternal>
0.1741

> <Gold.Chemscore.Rot>
1.4804

> <Gold.Chemscore.Internal.Correction>
   9.000000E+99

> <Gold.Chemscore.Hbonds>
donor molecule, donor type, donor heavy atom, donor atom, acceptor molecule, acceptor atom, score
      L1  H    10    25       P1  8028  0.98
      P1  H  7997  8009       L1     6  0.32

> <Gold.Chemscore.Hbond.Weighted>
-5.9210

> <Gold.Chemscore.Metal.Weighted>
-0.0000

> <Gold.Chemscore.Lipo.Weighted>
-6.5050

> <Gold.Chemscore.Internal_Hbond.Weighted>
0.0000

> <Gold.Chemscore.DEClash.Weighted>
0.3424

> <Gold.Chemscore.DEInternal.Weighted>
0.1741

> <Gold.Chemscore.Rot.Weighted>
3.7899

> <Gold.Chemscore.Internal.Correction.Weighted>
   9.000000E+99

> <Gold.Protein.RotatedTorsions>
[ 6907 6896 6895 6894 ] final  -57.73 input  -60.11 | X-H torsion
[ 7974 7965 7964 7962 ] final   51.81 input  175.53 | X-H torsion
[ 8008 7997 7996 7995 ] final  140.97 input   59.86 | X-H torsion
[ 10167 10162 10161 10158 ] final  134.01 input  -65.29 | X-H torsion
[ 10718 10713 10712 10709 ] final  164.63 input   66.30 | X-H torsion
[ 10763 10752 10751 10750 ] final  155.39 input  -60.55 | X-H torsion
[ 11005 11000 10999 10996 ] final  173.25 input  -57.11 | X-H torsion

> <Gold.Protein.ActiveResidues>
 VAL166  LYS551  ARG553  GLY616  TRP617  ASP618  TYR619  PRO620  LYS621  CYS622 
 ASP623  PHE694  ASN695  SER759  ASP760  ASP761  ALA762  ILE779  LEU786  VAL792 
 PHE793  MET794  SER795  GLU796  ALA797  LYS798  CYS799  TRP800  GLU811  SER814 

> <Gold.Protein.RotatedAtoms>
  150.8063  134.7190  159.6646 H   0  0  0  0  0  0  0  0  0  0  0  0  # atno 6907 bound_to 6896
  152.4182  134.6000  160.0007 H   0  0  0  0  0  0  0  0  0  0  0  0  # atno 6908 bound_to 6896
  151.6222  133.3301  159.3126 H   0  0  0  0  0  0  0  0  0  0  0  0  # atno 6909 bound_to 6896
  145.9876  139.4305  143.0093 H   0  0  0  0  0  0  0  0  0  0  0  0  # atno 7974 bound_to 7965
  156.2972  140.2327  156.4488 H   0  0  0  0  0  0  0  0  0  0  0  0  # atno 8008 bound_to 7997
  154.8120  140.0442  157.1370 H   0  0  0  0  0  0  0  0  0  0  0  0  # atno 8009 bound_to 7997
  154.9413  140.3030  155.5123 H   0  0  0  0  0  0  0  0  0  0  0  0  # atno 8010 bound_to 7997
  139.5273  144.6588  151.5078 H   0  0  0  0  0  0  0  0  0  0  0  0  # atno 10167 bound_to 10162
  157.0916  131.0419  151.2534 H   0  0  0  0  0  0  0  0  0  0  0  0  # atno 10718 bound_to 10713
  154.1675  135.2806  155.3090 H   0  0  0  0  0  0  0  0  0  0  0  0  # atno 10763 bound_to 10752
  154.6100  135.5502  153.7466 H   0  0  0  0  0  0  0  0  0  0  0  0  # atno 10764 bound_to 10752
  153.0174  135.6413  154.1816 H   0  0  0  0  0  0  0  0  0  0  0  0  # atno 10765 bound_to 10752
  140.3384  134.7297  157.4185 H   0  0  0  0  0  0  0  0  0  0  0  0  # atno 11005 bound_to 11000
  145.7678  140.9909  143.1166 LP  0  0  0  0  0  0  0  0  0  0  0  0  # atno 17320 bound_to 7965
  144.6879  139.9409  143.7475 LP  0  0  0  0  0  0  0  0  0  0  0  0  # atno 17321 bound_to 7965
  140.6426  143.8858  150.6706 LP  0  0  0  0  0  0  0  0  0  0  0  0  # atno 17342 bound_to 10162
  140.2198  143.3818  152.1652 LP  0  0  0  0  0  0  0  0  0  0  0  0  # atno 17343 bound_to 10162
  157.4716  130.7712  149.7329 LP  0  0  0  0  0  0  0  0  0  0  0  0  # atno 17370 bound_to 10713
  155.9896  130.3950  150.3064 LP  0  0  0  0  0  0  0  0  0  0  0  0  # atno 17371 bound_to 10713
  140.0801  134.5742  155.8549 LP  0  0  0  0  0  0  0  0  0  0  0  0  # atno 17394 bound_to 11000
  141.2045  133.6639  156.6124 LP  0  0  0  0  0  0  0  0  0  0  0  0  # atno 17395 bound_to 11000

$$$$
