AV-unprocessed.smi:3104|AV-procd|sdf|11818|dock5
  -GOLD-   2272017193D 1   1.00000     0.00000
 Structure written by MMmdl.
 37 38  0  0  0  0  0  0  0  0  2 V2000
  154.5733  141.0843  161.2687 C   0  0  0  0  0  0  0  0  0  0  0  0
  153.4381  141.8694  160.6780 C   0  0  0  0  0  0  0  0  0  0  0  0
  152.5391  142.7471  161.3473 C   0  0  0  0  0  0  0  0  0  0  0  0
  151.6468  143.2868  160.5335 N   0  0  0  0  0  0  0  0  0  0  0  0
  151.9427  142.7789  159.3179 N   0  0  0  0  0  0  0  0  0  0  0  0
  151.1410  143.1587  158.1615 C   0  0  1  0  0  0  0  0  0  0  0  0
  151.9702  144.0575  157.2259 C   0  0  0  0  0  0  0  0  0  0  0  0
  150.5425  141.9203  157.4426 C   0  0  1  0  0  0  0  0  0  0  0  0
  149.5027  141.1683  158.2933 C   0  0  0  0  0  0  0  0  0  0  0  0
  149.9119  142.3211  156.1650 N   0  3  0  0  0  0  0  0  0  0  0  0
  148.9750  141.3308  155.5981 C   0  0  0  0  0  0  0  0  0  0  0  0
  148.4421  141.7906  154.2577 C   0  0  0  0  0  0  0  0  0  0  0  0
  147.0287  142.3128  154.1434 C   0  0  0  0  0  0  0  0  0  0  0  0
  147.3933  140.9871  153.5230 C   0  0  0  0  0  0  0  0  0  0  0  0
  153.0194  141.9168  159.3788 C   0  0  0  0  0  0  0  0  0  0  0  0
  154.6735  141.2593  162.3401 H   0  0  0  0  0  0  0  0  0  0  0  0
  155.5261  141.3494  160.8099 H   0  0  0  0  0  0  0  0  0  0  0  0
  154.4359  140.0119  161.1301 H   0  0  0  0  0  0  0  0  0  0  0  0
  152.5090  143.0062  162.3956 H   0  0  0  0  0  0  0  0  0  0  0  0
  150.3087  143.7612  158.5314 H   0  0  0  0  0  0  0  0  0  0  0  0
  151.3580  144.4788  156.4285 H   0  0  0  0  0  0  0  0  0  0  0  0
  152.7882  143.5060  156.7614 H   0  0  0  0  0  0  0  0  0  0  0  0
  152.4036  144.8957  157.7730 H   0  0  0  0  0  0  0  0  0  0  0  0
  151.3505  141.2159  157.2362 H   0  0  0  0  0  0  0  0  0  0  0  0
  149.9428  140.7539  159.2006 H   0  0  0  0  0  0  0  0  0  0  0  0
  149.0743  140.3330  157.7382 H   0  0  0  0  0  0  0  0  0  0  0  0
  148.6840  141.8249  158.5903 H   0  0  0  0  0  0  0  0  0  0  0  0
  149.4027  143.1800  156.3182 H   0  0  0  0  0  0  0  0  0  0  0  0
  149.4674  140.3642  155.4843 H   0  0  0  0  0  0  0  0  0  0  0  0
  148.1382  141.1933  156.2838 H   0  0  0  0  0  0  0  0  0  0  0  0
  149.1769  142.3086  153.6437 H   0  0  0  0  0  0  0  0  0  0  0  0
  146.4070  142.2953  155.0367 H   0  0  0  0  0  0  0  0  0  0  0  0
  146.8544  143.1504  153.4709 H   0  0  0  0  0  0  0  0  0  0  0  0
  147.4630  140.9422  152.4379 H   0  0  0  0  0  0  0  0  0  0  0  0
  147.0126  140.0873  154.0025 H   0  0  0  0  0  0  0  0  0  0  0  0
  153.3963  141.4126  158.5011 H   0  0  0  0  0  0  0  0  0  0  0  0
  150.6437  142.4997  155.4920 H   0  0  0  0  0  0  0  0  0  0  0  0
  1  2  1  0  0  0  0
  1 16  1  0  0  0  0
  1 17  1  0  0  0  0
  1 18  1  0  0  0  0
  2 15  2  0  0  0  0
  2  3  1  0  0  0  0
  3  4  2  0  0  0  0
  3 19  1  0  0  0  0
  4  5  1  0  0  0  0
  5  6  1  0  0  0  0
  5 15  1  0  0  0  0
  6  7  1  0  0  0  0
  6  8  1  0  0  0  0
  6 20  1  0  0  0  0
  7 21  1  0  0  0  0
  7 22  1  0  0  0  0
  7 23  1  0  0  0  0
  8  9  1  0  0  0  0
  8 10  1  0  0  0  0
  8 24  1  0  0  0  0
  9 25  1  0  0  0  0
  9 26  1  0  0  0  0
  9 27  1  0  0  0  0
 10 11  1  0  0  0  0
 10 28  1  0  0  0  0
 10 37  1  0  0  0  0
 11 12  1  0  0  0  0
 11 29  1  0  0  0  0
 11 30  1  0  0  0  0
 12 14  1  0  0  0  0
 12 13  1  0  0  0  0
 12 31  1  0  0  0  0
 13 14  1  0  0  0  0
 13 32  1  0  0  0  0
 13 33  1  0  0  0  0
 14 34  1  0  0  0  0
 14 35  1  0  0  0  0
 15 36  1  0  0  0  0
M  CHG  1  10   1
M  END
> <s_m_source_file>
AV-unprocessed.smi

> <i_m_source_file_index>
3104

> <i_lp_mmshare_version>
43012

> <i_f3d_flags>
0

> <s_epik_input>
W0NIM11jMVtjSF1ubihbY0hdMSlbQ0BIXShbQ0gzXSlbQ0BIXShbQ0gzXSlbTkhdW0NIMl1bQ0hdMltDSDJdW0NIMl0y

> <s_epik_cmdline>
J2VwaWtfcHl0aG9uJywgJy1waCcsICc3LjAnLCAnLXRuJywgJzgnLCAnLW1hJywgJzIwMCcsICctbWV0YWxfYmluZGluZycsICctaW1hZScsICc8aW5maWxlLm1hZT4nLCAnLW9tYWUnLCAnPG91dGZpbGUubWFlPic=

> <r_lp_tautomer_probability>
1

> <r_epik_Ionization_Penalty>
0.00120445

> <r_epik_Ionization_Penalty_Charging>
0.00118273

> <r_epik_Ionization_Penalty_Neutral>
2.17265e-05

> <r_epik_State_Penalty>
-0

> <r_epik_Charging_Adjusted_Penalty>
0.00118273

> <i_epik_Tot_Q>
1

> <i_epik_Tot_abs_Q>
1

> <r_epik_Metal_State_Penalty>
-0

> <b_epik_Metal_Only>
0

> <s_lp_Force_Field>
OPLS_2005

> <r_lp_Energy>
22.3414

> <b_lp_Chiralities_Consistent>
1

> <s_lp_Variant>
AV-unprocessed.smi:3104-4

> <Gold.Version>
5.8.1

> <Gold.Id.Protein>
6NUR|6NUR_protein|mol2

> <Gold.PLP.Fitness>
42.8588

> <Gold.PLP.PLP>
-37.7351

> <Gold.PLP.part.hbond>
-1.2336

> <Gold.PLP.part.metal>
0.0000

> <Gold.PLP.part.buried>
-2.8030

> <Gold.PLP.part.nonpolar>
-33.4364

> <Gold.PLP.part.repulsive>
0.1814

> <Gold.PLP.ligand.clash>
0.0000

> <Gold.PLP.ligand.torsion>
0.7344

> <Gold.PLP.Chemscore.Hbond>
1.9840

> <Gold.PLP.Chemscore.CHOScore>
0.0000

> <Gold.PLP.Chemscore.Metal>
0.0000

> <Gold.Chemscore.Hbonds>
donor molecule, donor type, donor heavy atom, donor atom, acceptor molecule, acceptor atom, score
      L1  H    10    28       P1  8028  1.89

> <Gold.PLP.Chemscore.Internal.Correction>
0.6405

> <Gold.Rescore>
     Score         DG    S(hbond)    S(metal)    S(lipo)     H(rot)  DE(clash)    DE(int)     intcor
     15.86     -16.88       0.94        0.00     103.37       1.49       0.33       0.69       ----

> <Gold.Chemscore.Fitness>
15.8559

> <Gold.Chemscore.DG>
-16.8819

> <Gold.Chemscore.ZeroCoef>
-5.4800

> <Gold.Chemscore.Hbond>
0.9365

> <Gold.Chemscore.Metal>
0.0000

> <Gold.Chemscore.Lipo>
103.3696

> <Gold.Chemscore.Internal_Hbond>
0.0000

> <Gold.Chemscore.DEClash>
0.3316

> <Gold.Chemscore.DEInternal>
0.6945

> <Gold.Chemscore.Rot>
1.4923

> <Gold.Chemscore.Internal.Correction>
   9.000000E+99

> <Gold.Chemscore.Hbonds>
donor molecule, donor type, donor heavy atom, donor atom, acceptor molecule, acceptor atom, score
      L1  H    10    28       P1  8028  0.91

> <Gold.Chemscore.Hbond.Weighted>
-3.1280

> <Gold.Chemscore.Metal.Weighted>
-0.0000

> <Gold.Chemscore.Lipo.Weighted>
-12.0942

> <Gold.Chemscore.Internal_Hbond.Weighted>
0.0000

> <Gold.Chemscore.DEClash.Weighted>
0.3316

> <Gold.Chemscore.DEInternal.Weighted>
0.6945

> <Gold.Chemscore.Rot.Weighted>
3.8204

> <Gold.Chemscore.Internal.Correction.Weighted>
   9.000000E+99

> <Gold.Protein.RotatedTorsions>
[ 6907 6896 6895 6894 ] final   93.61 input  -60.11 | X-H torsion
[ 7974 7965 7964 7962 ] final -115.65 input  175.53 | X-H torsion
[ 8008 7997 7996 7995 ] final  -71.55 input   59.86 | X-H torsion
[ 10167 10162 10161 10158 ] final -152.40 input  -65.29 | X-H torsion
[ 10718 10713 10712 10709 ] final    8.31 input   66.30 | X-H torsion
[ 10763 10752 10751 10750 ] final  -98.78 input  -60.55 | X-H torsion
[ 11005 11000 10999 10996 ] final -133.17 input  -57.11 | X-H torsion

> <Gold.Protein.ActiveResidues>
 VAL166  LYS551  ARG553  GLY616  TRP617  ASP618  TYR619  PRO620  LYS621  CYS622 
 ASP623  PHE694  ASN695  SER759  ASP760  ASP761  ALA762  ILE779  LEU786  VAL792 
 PHE793  MET794  SER795  GLU796  ALA797  LYS798  CYS799  TRP800  GLU811  SER814 

> <Gold.Protein.RotatedAtoms>
  152.5452  134.1322  159.8443 H   0  0  0  0  0  0  0  0  0  0  0  0  # atno 6907 bound_to 6896
  151.1366  133.4992  159.2605 H   0  0  0  0  0  0  0  0  0  0  0  0  # atno 6908 bound_to 6896
  151.1617  135.0287  159.8768 H   0  0  0  0  0  0  0  0  0  0  0  0  # atno 6909 bound_to 6896
  145.1060  140.8581  143.3898 H   0  0  0  0  0  0  0  0  0  0  0  0  # atno 7974 bound_to 7965
  154.5097  140.0813  156.7965 H   0  0  0  0  0  0  0  0  0  0  0  0  # atno 8008 bound_to 7997
  155.3813  140.3428  155.4229 H   0  0  0  0  0  0  0  0  0  0  0  0  # atno 8009 bound_to 7997
  156.1558  140.1573  156.8682 H   0  0  0  0  0  0  0  0  0  0  0  0  # atno 8010 bound_to 7997
  139.7185  143.8995  152.2494 H   0  0  0  0  0  0  0  0  0  0  0  0  # atno 10167 bound_to 10162
  156.9497  130.5892  149.5656 H   0  0  0  0  0  0  0  0  0  0  0  0  # atno 10718 bound_to 10713
  154.7443  135.4996  153.9177 H   0  0  0  0  0  0  0  0  0  0  0  0  # atno 10763 bound_to 10752
  153.1076  135.6701  153.9567 H   0  0  0  0  0  0  0  0  0  0  0  0  # atno 10764 bound_to 10752
  153.9335  135.3075  155.3424 H   0  0  0  0  0  0  0  0  0  0  0  0  # atno 10765 bound_to 10752
  140.9104  134.1575  157.4393 H   0  0  0  0  0  0  0  0  0  0  0  0  # atno 11005 bound_to 11000
  145.0902  139.2896  143.5739 LP  0  0  0  0  0  0  0  0  0  0  0  0  # atno 17320 bound_to 7965
  146.3528  140.0436  142.8641 LP  0  0  0  0  0  0  0  0  0  0  0  0  # atno 17321 bound_to 7965
  139.8884  144.6979  150.8798 LP  0  0  0  0  0  0  0  0  0  0  0  0  # atno 17342 bound_to 10162
  140.7749  143.3605  151.1837 LP  0  0  0  0  0  0  0  0  0  0  0  0  # atno 17343 bound_to 10162
  156.0368  130.5455  150.8673 LP  0  0  0  0  0  0  0  0  0  0  0  0  # atno 17370 bound_to 10713
  157.5730  131.0946  150.9389 LP  0  0  0  0  0  0  0  0  0  0  0  0  # atno 17371 bound_to 10713
  139.8756  134.9933  156.5640 LP  0  0  0  0  0  0  0  0  0  0  0  0  # atno 17394 bound_to 11000
  140.8117  133.8424  155.8816 LP  0  0  0  0  0  0  0  0  0  0  0  0  # atno 17395 bound_to 11000

$$$$
