AV-unprocessed.smi:49|AV-procd|sdf|487|dock3
  -GOLD-   2262016353D 1   1.00000     0.00000
 Structure written by MMmdl.
 26 27  0  0  0  0  0  0  0  0  2 V2000
  152.6988  141.4789  159.0725 C   0  0  0  0  0  0  0  0  0  0  0  0
  151.6009  140.4616  158.7464 C   0  0  0  0  0  0  0  0  0  0  0  0
  151.2818  140.4233  157.2680 C   0  0  0  0  0  0  0  0  0  0  0  0
  150.1204  140.7552  156.7139 N   0  0  0  0  0  0  0  0  0  0  0  0
  150.2891  140.6045  155.3911 C   0  0  0  0  0  0  0  0  0  0  0  0
  149.2401  140.9015  154.3347 C   0  0  2  0  0  0  0  0  0  0  0  0
  147.9500  141.4653  154.9575 C   0  0  0  0  0  0  0  0  0  0  0  0
  146.9343  140.3406  154.7852 C   0  0  1  0  0  0  0  0  0  0  0  0
  145.6043  140.8078  154.7057 O   0  0  0  0  0  0  0  0  0  0  0  0
  147.3988  139.6828  153.4926 C   0  0  0  0  0  0  0  0  0  0  0  0
  148.8522  139.7069  153.5747 N   0  0  0  0  0  0  0  0  0  0  0  0
  151.5429  140.2133  155.1165 N   0  0  0  0  0  0  0  0  0  0  0  0
  152.1418  140.1040  156.2847 N   0  5  0  0  0  0  0  0  0  0  0  0
  149.6562  141.6456  153.6545 H   0  0  0  0  0  0  0  0  0  0  0  0
  147.0222  139.6327  155.6110 H   0  0  0  0  0  0  0  0  0  0  0  0
  152.9139  141.4909  160.1409 H   0  0  0  0  0  0  0  0  0  0  0  0
  152.3996  142.4855  158.7795 H   0  0  0  0  0  0  0  0  0  0  0  0
  153.6235  141.2377  158.5475 H   0  0  0  0  0  0  0  0  0  0  0  0
  151.9078  139.4655  159.0666 H   0  0  0  0  0  0  0  0  0  0  0  0
  150.6917  140.7037  159.2976 H   0  0  0  0  0  0  0  0  0  0  0  0
  148.0646  141.7778  155.9964 H   0  0  0  0  0  0  0  0  0  0  0  0
  147.6343  142.3395  154.3856 H   0  0  0  0  0  0  0  0  0  0  0  0
  145.2405  140.5293  153.8794 H   0  0  0  0  0  0  0  0  0  0  0  0
  147.0132  138.6704  153.3716 H   0  0  0  0  0  0  0  0  0  0  0  0
  147.0706  140.2725  152.6357 H   0  0  0  0  0  0  0  0  0  0  0  0
  149.2388  139.7515  152.6380 H   0  0  0  0  0  0  0  0  0  0  0  0
  1  2  1  0  0  0  0
  1 16  1  0  0  0  0
  1 17  1  0  0  0  0
  1 18  1  0  0  0  0
  2  3  1  0  0  0  0
  2 19  1  0  0  0  0
  2 20  1  0  0  0  0
  3 13  1  0  0  0  0
  3  4  2  0  0  0  0
  4  5  1  0  0  0  0
  5  6  1  0  0  0  0
  5 12  2  0  0  0  0
  6 14  1  0  0  0  0
  6 11  1  0  0  0  0
  6  7  1  0  0  0  0
  7  8  1  0  0  0  0
  7 21  1  0  0  0  0
  7 22  1  0  0  0  0
  8 15  1  0  0  0  0
  8  9  1  0  0  0  0
  8 10  1  0  0  0  0
  9 23  1  0  0  0  0
 10 11  1  0  0  0  0
 10 24  1  0  0  0  0
 10 25  1  0  0  0  0
 11 26  1  0  0  0  0
 12 13  1  0  0  0  0
M  CHG  1  13  -1
M  END
> <s_m_source_file>
AV-unprocessed.smi

> <i_m_source_file_index>
49

> <i_lp_mmshare_version>
43012

> <i_f3d_flags>
0

> <s_epik_input>
W0NIM11bQ0gyXWMxbmMobltuSF0xKVtDQEBIXTJbQ0gyXVtDQEBIXShbT0hdKVtDSDJdW05IXTI=

> <s_epik_cmdline>
J2VwaWtfcHl0aG9uJywgJy1waCcsICc3LjAnLCAnLXRuJywgJzgnLCAnLW1hJywgJzIwMCcsICctbWV0YWxfYmluZGluZycsICctaW1hZScsICc8aW5maWxlLm1hZT4nLCAnLW9tYWUnLCAnPG91dGZpbGUubWFlPic=

> <r_lp_tautomer_probability>
0.948284

> <r_epik_Ionization_Penalty>
20.726

> <r_epik_Ionization_Penalty_Charging>
17.6814

> <r_epik_Ionization_Penalty_Neutral>
3.04463

> <r_epik_State_Penalty>
7.95092

> <r_epik_Charging_Adjusted_Penalty>
25.6323

> <i_epik_Tot_Q>
-1

> <i_epik_Tot_abs_Q>
1

> <r_epik_Metal_State_Penalty>
4.146

> <b_epik_Metal_Only>
1

> <s_lp_Force_Field>
OPLS_2005

> <r_lp_Energy>
17.7922

> <b_lp_Chiralities_Consistent>
1

> <s_lp_Variant>
AV-unprocessed.smi:49-25

> <Gold.Version>
5.8.1

> <Gold.Id.Protein>
6NUR|6NUR_protein|mol2

> <Gold.PLP.Fitness>
33.7029

> <Gold.PLP.PLP>
-21.5730

> <Gold.PLP.part.hbond>
-3.6400

> <Gold.PLP.part.metal>
0.0000

> <Gold.PLP.part.buried>
-1.7866

> <Gold.PLP.part.nonpolar>
-15.4850

> <Gold.PLP.part.repulsive>
0.0795

> <Gold.PLP.ligand.clash>
0.0000

> <Gold.PLP.ligand.torsion>
0.0503

> <Gold.PLP.Chemscore.Hbond>
4.0712

> <Gold.PLP.Chemscore.CHOScore>
0.0000

> <Gold.PLP.Chemscore.Metal>
0.0000

> <Gold.Chemscore.Hbonds>
donor molecule, donor type, donor heavy atom, donor atom, acceptor molecule, acceptor atom, score
      L1  H     9    23       P1 10175  0.84
      L1  H    11    26       P1  7957  1.00
      P1  H  7989  7998       L1    12  0.89
      P1  H  7997  8008       L1    13  1.20

> <Gold.PLP.Chemscore.Internal.Correction>
0.0170

> <Gold.Rescore>
     Score         DG    S(hbond)    S(metal)    S(lipo)     H(rot)  DE(clash)    DE(int)     intcor
     15.02     -15.03       2.94        0.00      37.69       1.82       0.00       0.01       ----

> <Gold.Chemscore.Fitness>
15.0165

> <Gold.Chemscore.DG>
-15.0287

> <Gold.Chemscore.ZeroCoef>
-5.4800

> <Gold.Chemscore.Hbond>
2.9356

> <Gold.Chemscore.Metal>
0.0000

> <Gold.Chemscore.Lipo>
37.6901

> <Gold.Chemscore.Internal_Hbond>
0.0000

> <Gold.Chemscore.DEClash>
0.0015

> <Gold.Chemscore.DEInternal>
0.0108

> <Gold.Chemscore.Rot>
1.8226

> <Gold.Chemscore.Internal.Correction>
   9.000000E+99

> <Gold.Chemscore.Hbonds>
donor molecule, donor type, donor heavy atom, donor atom, acceptor molecule, acceptor atom, score
      L1  H     9    23       P1 10175  0.78
      L1  H    11    26       P1  7957  0.95
      P1  H  7989  7998       L1    12  0.17
      P1  H  7997  8008       L1    13  0.58

> <Gold.Chemscore.Hbond.Weighted>
-9.8048

> <Gold.Chemscore.Metal.Weighted>
-0.0000

> <Gold.Chemscore.Lipo.Weighted>
-4.4097

> <Gold.Chemscore.Internal_Hbond.Weighted>
0.0000

> <Gold.Chemscore.DEClash.Weighted>
0.0015

> <Gold.Chemscore.DEInternal.Weighted>
0.0108

> <Gold.Chemscore.Rot.Weighted>
4.6658

> <Gold.Chemscore.Internal.Correction.Weighted>
   9.000000E+99

> <Gold.Protein.RotatedTorsions>
[ 6907 6896 6895 6894 ] final -147.06 input  -60.11 | X-H torsion
[ 7974 7965 7964 7962 ] final  119.92 input  175.53 | X-H torsion
[ 8008 7997 7996 7995 ] final  -41.90 input   59.86 | X-H torsion
[ 10167 10162 10161 10158 ] final  147.76 input  -65.29 | X-H torsion
[ 10718 10713 10712 10709 ] final  159.43 input   66.30 | X-H torsion
[ 10763 10752 10751 10750 ] final  -48.71 input  -60.55 | X-H torsion
[ 11005 11000 10999 10996 ] final -119.77 input  -57.11 | X-H torsion

> <Gold.Protein.ActiveResidues>
 VAL166  LYS551  ARG553  GLY616  TRP617  ASP618  TYR619  PRO620  LYS621  CYS622 
 ASP623  PHE694  ASN695  SER759  ASP760  ASP761  ALA762  ILE779  LEU786  VAL792 
 PHE793  MET794  SER795  GLU796  ALA797  LYS798  CYS799  TRP800  GLU811  SER814 

> <Gold.Protein.RotatedAtoms>
  151.1503  133.4912  159.2595 H   0  0  0  0  0  0  0  0  0  0  0  0  # atno 6907 bound_to 6896
  151.1561  135.0250  159.8699 H   0  0  0  0  0  0  0  0  0  0  0  0  # atno 6908 bound_to 6896
  152.5463  134.1382  159.8521 H   0  0  0  0  0  0  0  0  0  0  0  0  # atno 6909 bound_to 6896
  145.1373  139.3290  143.4634 H   0  0  0  0  0  0  0  0  0  0  0  0  # atno 7974 bound_to 7965
  154.4001  140.1487  156.3266 H   0  0  0  0  0  0  0  0  0  0  0  0  # atno 8008 bound_to 7997
  155.8481  140.3459  155.5654 H   0  0  0  0  0  0  0  0  0  0  0  0  # atno 8009 bound_to 7997
  155.8014  140.0870  157.1945 H   0  0  0  0  0  0  0  0  0  0  0  0  # atno 8010 bound_to 7997
  139.4885  144.5731  151.7017 H   0  0  0  0  0  0  0  0  0  0  0  0  # atno 10167 bound_to 10162
  157.1643  131.0595  151.2216 H   0  0  0  0  0  0  0  0  0  0  0  0  # atno 10718 bound_to 10713
  154.0822  135.6589  153.4839 H   0  0  0  0  0  0  0  0  0  0  0  0  # atno 10763 bound_to 10752
  153.0352  135.5182  154.7463 H   0  0  0  0  0  0  0  0  0  0  0  0  # atno 10764 bound_to 10752
  154.6561  135.3008  154.9894 H   0  0  0  0  0  0  0  0  0  0  0  0  # atno 10765 bound_to 10752
  141.0192  134.0150  157.3307 H   0  0  0  0  0  0  0  0  0  0  0  0  # atno 11005 bound_to 11000
  146.3508  140.1396  142.8595 LP  0  0  0  0  0  0  0  0  0  0  0  0  # atno 17320 bound_to 7965
  145.0570  140.9060  143.4961 LP  0  0  0  0  0  0  0  0  0  0  0  0  # atno 17321 bound_to 7965
  140.5322  144.0713  150.6057 LP  0  0  0  0  0  0  0  0  0  0  0  0  # atno 17342 bound_to 10162
  140.3707  143.2856  152.0282 LP  0  0  0  0  0  0  0  0  0  0  0  0  # atno 17343 bound_to 10162
  157.4103  130.7381  149.6834 LP  0  0  0  0  0  0  0  0  0  0  0  0  # atno 17370 bound_to 10713
  155.9748  130.4097  150.3892 LP  0  0  0  0  0  0  0  0  0  0  0  0  # atno 17371 bound_to 10713
  139.9135  135.0194  156.7789 LP  0  0  0  0  0  0  0  0  0  0  0  0  # atno 17394 bound_to 11000
  140.6603  133.9651  155.7801 LP  0  0  0  0  0  0  0  0  0  0  0  0  # atno 17395 bound_to 11000

$$$$
