AV-unprocessed.smi:1803|AV-procd|sdf|7287|dock4
  -GOLD-   22720 8543D 1   1.00000     0.00000
 Structure written by MMmdl.
 35 37  0  0  0  0  0  0  0  0  3 V2000
  142.9649  136.4838  152.8169 O   0  0  0  0  0  0  0  0  0  0  0  0
  142.6052  135.5181  153.4889 C   0  0  0  0  0  0  0  0  0  0  0  0
  141.5265  135.5416  154.3142 N   0  5  0  0  0  0  0  0  0  0  0  0
  140.5125  136.4131  154.1585 C   0  0  0  0  0  0  0  0  0  0  0  0
  139.4254  136.4030  154.9467 N   0  0  0  0  0  0  0  0  0  0  0  0
  138.5052  137.3895  154.6196 N   0  0  0  0  0  0  0  0  0  0  0  0
  138.9171  138.1125  153.5784 C   0  0  0  0  0  0  0  0  0  0  0  0
  140.4718  137.6617  152.9109 S   0  0  0  0  0  0  0  0  0  0  0  0
  143.3087  134.3731  153.4092 N   0  0  0  0  0  0  0  0  0  0  0  0
  144.4976  134.1565  152.5940 C   0  0  2  0  0  0  0  0  0  0  0  0
  145.4585  135.3554  152.5569 C   0  0  0  0  0  0  0  0  0  0  0  0
  145.9620  135.4299  151.1023 C   0  0  0  0  0  0  0  0  0  0  0  0
  145.3926  134.2602  150.3943 N   0  3  1  0  0  0  0  0  0  0  0  0
  146.3545  133.1261  150.3225 C   0  0  0  0  0  0  0  0  0  0  0  0
  145.6948  131.8401  149.8071 C   0  0  0  0  0  0  0  0  0  0  0  0
  144.5154  131.4547  150.7038 C   0  0  0  0  0  0  0  0  0  0  0  0
  143.5021  132.6039  150.7381 C   0  0  0  0  0  0  0  0  0  0  0  0
  144.1351  133.9607  151.1200 C   0  0  1  0  0  0  0  0  0  0  0  0
  138.3030  138.9172  153.2027 H   0  0  0  0  0  0  0  0  0  0  0  0
  142.9873  133.5935  153.9645 H   0  0  0  0  0  0  0  0  0  0  0  0
  145.0323  133.2771  152.9568 H   0  0  0  0  0  0  0  0  0  0  0  0
  144.9514  136.2844  152.8224 H   0  0  0  0  0  0  0  0  0  0  0  0
  146.2783  135.2173  153.2626 H   0  0  0  0  0  0  0  0  0  0  0  0
  145.5777  136.3348  150.6300 H   0  0  0  0  0  0  0  0  0  0  0  0
  147.0503  135.4702  151.0381 H   0  0  0  0  0  0  0  0  0  0  0  0
  147.1823  133.4045  149.6696 H   0  0  0  0  0  0  0  0  0  0  0  0
  146.7849  132.9406  151.3080 H   0  0  0  0  0  0  0  0  0  0  0  0
  145.3544  131.9804  148.7802 H   0  0  0  0  0  0  0  0  0  0  0  0
  146.4252  131.0308  149.7862 H   0  0  0  0  0  0  0  0  0  0  0  0
  144.0396  130.5470  150.3319 H   0  0  0  0  0  0  0  0  0  0  0  0
  144.8674  131.2312  151.7115 H   0  0  0  0  0  0  0  0  0  0  0  0
  143.0506  132.6962  149.7494 H   0  0  0  0  0  0  0  0  0  0  0  0
  142.6848  132.3648  151.4192 H   0  0  0  0  0  0  0  0  0  0  0  0
  143.4241  134.7428  150.8453 H   0  0  0  0  0  0  0  0  0  0  0  0
  145.1641  134.5211  149.4460 H   0  0  0  0  0  0  0  0  0  0  0  0
  1  2  2  0  0  0  0
  2  3  1  0  0  0  0
  2  9  1  0  0  0  0
  3  4  1  0  0  0  0
  4  8  1  0  0  0  0
  4  5  2  0  0  0  0
  5  6  1  0  0  0  0
  6  7  2  0  0  0  0
  7  8  1  0  0  0  0
  7 19  1  0  0  0  0
  9 10  1  0  0  0  0
  9 20  1  0  0  0  0
 10 18  1  0  0  0  0
 10 11  1  0  0  0  0
 10 21  1  0  0  0  0
 11 12  1  0  0  0  0
 11 22  1  0  0  0  0
 11 23  1  0  0  0  0
 12 13  1  0  0  0  0
 12 24  1  0  0  0  0
 12 25  1  0  0  0  0
 13 18  1  0  0  0  0
 13 14  1  0  0  0  0
 13 35  1  0  0  0  0
 14 15  1  0  0  0  0
 14 26  1  0  0  0  0
 14 27  1  0  0  0  0
 15 16  1  0  0  0  0
 15 28  1  0  0  0  0
 15 29  1  0  0  0  0
 16 17  1  0  0  0  0
 16 30  1  0  0  0  0
 16 31  1  0  0  0  0
 17 18  1  0  0  0  0
 17 32  1  0  0  0  0
 17 33  1  0  0  0  0
 18 34  1  0  0  0  0
M  CHG  1   3  -1
M  CHG  1  13   1
M  END
> <s_m_source_file>
AV-unprocessed.smi

> <i_m_source_file_index>
1803

> <i_lp_mmshare_version>
43012

> <i_f3d_flags>
0

> <s_epik_input>
czFbY0hdbm5jMVtOSF1DKD1PKVtOSF1bQ0BIXShbQ0gyXVtDSDJdMilbQ0BASF0oTjIzKVtDSDJdW0NIMl1bQ0gyXVtDSDJdMw==

> <s_epik_cmdline>
J2VwaWtfcHl0aG9uJywgJy1waCcsICc3LjAnLCAnLXRuJywgJzgnLCAnLW1hJywgJzIwMCcsICctbWV0YWxfYmluZGluZycsICctaW1hZScsICc8aW5maWxlLm1hZT4nLCAnLW9tYWUnLCAnPG91dGZpbGUubWFlPic=

> <r_lp_tautomer_probability>
1

> <r_epik_Ionization_Penalty>
3.78828

> <r_epik_Ionization_Penalty_Charging>
3.7591

> <r_epik_Ionization_Penalty_Neutral>
0.0291838

> <r_epik_State_Penalty>
3.757

> <r_epik_Charging_Adjusted_Penalty>
7.51609

> <i_epik_Tot_Q>
0

> <i_epik_Tot_abs_Q>
2

> <r_epik_Metal_State_Penalty>
0.558016

> <b_epik_Metal_Only>
1

> <s_lp_Force_Field>
OPLS_2005

> <r_lp_Energy>
31.4386

> <b_lp_Chiralities_Consistent>
1

> <s_lp_Variant>
AV-unprocessed.smi:1803-9

> <Gold.Version>
5.8.1

> <Gold.Id.Protein>
6NUR|6NUR_protein|mol2

> <Gold.PLP.Fitness>
39.4564

> <Gold.PLP.PLP>
-32.3034

> <Gold.PLP.part.hbond>
-4.0000

> <Gold.PLP.part.metal>
0.0000

> <Gold.PLP.part.buried>
-6.0829

> <Gold.PLP.part.nonpolar>
-22.8099

> <Gold.PLP.part.repulsive>
0.4831

> <Gold.PLP.ligand.clash>
0.0230

> <Gold.PLP.ligand.torsion>
0.3728

> <Gold.PLP.Chemscore.Hbond>
2.6364

> <Gold.PLP.Chemscore.CHOScore>
0.0000

> <Gold.PLP.Chemscore.Metal>
0.0000

> <Gold.Chemscore.Hbonds>
donor molecule, donor type, donor heavy atom, donor atom, acceptor molecule, acceptor atom, score
      L1  H     9    20       P1 10957  1.00
      L1  H    13    35       P1  7921  0.69
      P1  H 11000 11005       L1     5  0.90

> <Gold.PLP.Chemscore.Internal.Correction>
0.0125

> <Gold.Rescore>
     Score         DG    S(hbond)    S(metal)    S(lipo)     H(rot)  DE(clash)    DE(int)     intcor
     14.86     -18.78       2.19        0.00      73.13       1.00       0.60       3.32       ----

> <Gold.Chemscore.Fitness>
14.8553

> <Gold.Chemscore.DG>
-18.7820

> <Gold.Chemscore.ZeroCoef>
-5.4800

> <Gold.Chemscore.Hbond>
2.1873

> <Gold.Chemscore.Metal>
0.0000

> <Gold.Chemscore.Lipo>
73.1329

> <Gold.Chemscore.Internal_Hbond>
0.0000

> <Gold.Chemscore.DEClash>
0.6025

> <Gold.Chemscore.DEInternal>
3.3242

> <Gold.Chemscore.Rot>
1.0000

> <Gold.Chemscore.Internal.Correction>
   9.000000E+99

> <Gold.Chemscore.Hbonds>
donor molecule, donor type, donor heavy atom, donor atom, acceptor molecule, acceptor atom, score
      L1  H     9    20       P1 10957  0.93
      L1  H    13    35       P1  7921  0.66
      P1  H 11000 11005       L1     5  0.17

> <Gold.Chemscore.Hbond.Weighted>
-7.3054

> <Gold.Chemscore.Metal.Weighted>
-0.0000

> <Gold.Chemscore.Lipo.Weighted>
-8.5566

> <Gold.Chemscore.Internal_Hbond.Weighted>
0.0000

> <Gold.Chemscore.DEClash.Weighted>
0.6025

> <Gold.Chemscore.DEInternal.Weighted>
3.3242

> <Gold.Chemscore.Rot.Weighted>
2.5600

> <Gold.Chemscore.Internal.Correction.Weighted>
   9.000000E+99

> <Gold.Protein.RotatedTorsions>
[ 6907 6896 6895 6894 ] final  -19.79 input  -60.11 | X-H torsion
[ 7974 7965 7964 7962 ] final   58.70 input  175.53 | X-H torsion
[ 8008 7997 7996 7995 ] final   39.84 input   59.86 | X-H torsion
[ 10167 10162 10161 10158 ] final   45.39 input  -65.29 | X-H torsion
[ 10718 10713 10712 10709 ] final   68.62 input   66.30 | X-H torsion
[ 10763 10752 10751 10750 ] final   39.70 input  -60.55 | X-H torsion
[ 11005 11000 10999 10996 ] final   76.86 input  -57.11 | X-H torsion

> <Gold.Protein.ActiveResidues>
 VAL166  LYS551  ARG553  GLY616  TRP617  ASP618  TYR619  PRO620  LYS621  CYS622 
 ASP623  PHE694  ASN695  SER759  ASP760  ASP761  ALA762  ILE779  LEU786  VAL792 
 PHE793  MET794  SER795  GLU796  ALA797  LYS798  CYS799  TRP800  GLU811  SER814 

> <Gold.Protein.RotatedAtoms>
  151.2578  135.0644  159.9086 H   0  0  0  0  0  0  0  0  0  0  0  0  # atno 6907 bound_to 6896
  152.5370  134.0263  159.8015 H   0  0  0  0  0  0  0  0  0  0  0  0  # atno 6908 bound_to 6896
  151.0481  133.5598  159.2676 H   0  0  0  0  0  0  0  0  0  0  0  0  # atno 6909 bound_to 6896
  145.9153  139.3686  143.0511 H   0  0  0  0  0  0  0  0  0  0  0  0  # atno 7974 bound_to 7965
  155.2433  140.3347  155.4290 H   0  0  0  0  0  0  0  0  0  0  0  0  # atno 8008 bound_to 7997
  156.2247  140.1824  156.7438 H   0  0  0  0  0  0  0  0  0  0  0  0  # atno 8009 bound_to 7997
  154.5879  140.0643  156.9183 H   0  0  0  0  0  0  0  0  0  0  0  0  # atno 8010 bound_to 7997
  140.3247  144.2663  150.6177 H   0  0  0  0  0  0  0  0  0  0  0  0  # atno 10167 bound_to 10162
  157.6299  130.9383  150.0402 H   0  0  0  0  0  0  0  0  0  0  0  0  # atno 10718 bound_to 10713
  152.9959  135.6213  154.2508 H   0  0  0  0  0  0  0  0  0  0  0  0  # atno 10763 bound_to 10752
  154.2246  135.2794  155.2914 H   0  0  0  0  0  0  0  0  0  0  0  0  # atno 10764 bound_to 10752
  154.5500  135.5736  153.6972 H   0  0  0  0  0  0  0  0  0  0  0  0  # atno 10765 bound_to 10752
  139.9279  134.7636  156.1449 H   0  0  0  0  0  0  0  0  0  0  0  0  # atno 11005 bound_to 11000
  145.8619  140.9470  143.0695 LP  0  0  0  0  0  0  0  0  0  0  0  0  # atno 17320 bound_to 7965
  144.6747  140.0542  143.7478 LP  0  0  0  0  0  0  0  0  0  0  0  0  # atno 17321 bound_to 7965
  140.5452  143.2216  151.8019 LP  0  0  0  0  0  0  0  0  0  0  0  0  # atno 17342 bound_to 10162
  139.4867  144.4549  151.9611 LP  0  0  0  0  0  0  0  0  0  0  0  0  # atno 17343 bound_to 10162
  156.1496  130.3642  149.9458 LP  0  0  0  0  0  0  0  0  0  0  0  0  # atno 17370 bound_to 10713
  156.7481  130.9105  151.3636 LP  0  0  0  0  0  0  0  0  0  0  0  0  # atno 17371 bound_to 10713
  141.0849  133.6738  156.2416 LP  0  0  0  0  0  0  0  0  0  0  0  0  # atno 17394 bound_to 11000
  140.6283  134.5290  157.5556 LP  0  0  0  0  0  0  0  0  0  0  0  0  # atno 17395 bound_to 11000

$$$$
