AV-unprocessed.smi:1248|AV-procd|sdf|5251|dock6
  -GOLD-   22720 4363D 1   1.00000     0.00000
 Structure written by MMmdl.
 44 46  0  0  0  0  0  0  0  0  2 V2000
  150.2527  141.8824  157.5063 C   0  0  0  0  0  0  0  0  0  0  0  0
  151.2833  141.7934  156.3748 C   0  0  0  0  0  0  0  0  0  0  0  0
  151.2433  140.5040  155.7129 N   0  0  0  0  0  0  0  0  0  0  0  0
  150.1393  139.7290  155.4179 C   0  0  0  0  0  0  0  0  0  0  0  0
  150.6214  138.6162  154.7970 C   0  0  0  0  0  0  0  0  0  0  0  0
  149.8243  137.5439  154.3242 N   0  0  0  0  0  0  0  0  0  0  0  0
  148.8123  136.9397  154.9673 C   0  0  0  0  0  0  0  0  0  0  0  0
  148.4269  137.2184  156.1026 O   0  0  0  0  0  0  0  0  0  0  0  0
  148.2574  135.9804  154.2123 N   0  0  0  0  0  0  0  0  0  0  0  0
  147.1338  135.1392  154.6152 C   0  0  2  0  0  0  0  0  0  0  0  0
  146.8031  134.1387  153.4945 C   0  0  0  0  0  0  0  0  0  0  0  0
  145.5600  133.2974  153.8432 C   0  0  0  0  0  0  0  0  0  0  0  0
  144.3827  134.1446  154.1642 N   0  3  2  0  0  0  0  0  0  0  0  0
  143.7678  134.7714  152.9704 C   0  0  0  0  0  0  0  0  0  0  0  0
  142.2723  134.5745  152.8834 C   0  0  0  0  0  0  0  0  0  0  0  0
  143.1944  133.7741  151.9909 C   0  0  0  0  0  0  0  0  0  0  0  0
  144.6722  135.1117  155.2536 C   0  0  0  0  0  0  0  0  0  0  0  0
  145.8929  135.9949  154.9350 C   0  0  0  0  0  0  0  0  0  0  0  0
  152.0344  138.7823  154.7443 C   0  0  0  0  0  0  0  0  0  0  0  0
  152.3991  139.9280  155.3001 N   0  0  0  0  0  0  0  0  0  0  0  0
  150.2944  142.8569  157.9929 H   0  0  0  0  0  0  0  0  0  0  0  0
  150.4373  141.1228  158.2663 H   0  0  0  0  0  0  0  0  0  0  0  0
  149.2391  141.7418  157.1295 H   0  0  0  0  0  0  0  0  0  0  0  0
  151.1036  142.5751  155.6353 H   0  0  0  0  0  0  0  0  0  0  0  0
  152.2885  141.9533  156.7668 H   0  0  0  0  0  0  0  0  0  0  0  0
  149.1335  140.0308  155.6704 H   0  0  0  0  0  0  0  0  0  0  0  0
  150.0399  137.2114  153.3958 H   0  0  0  0  0  0  0  0  0  0  0  0
  148.6416  135.8199  153.2925 H   0  0  0  0  0  0  0  0  0  0  0  0
  147.4153  134.5737  155.5058 H   0  0  0  0  0  0  0  0  0  0  0  0
  146.6375  134.6698  152.5562 H   0  0  0  0  0  0  0  0  0  0  0  0
  147.6537  133.4781  153.3230 H   0  0  0  0  0  0  0  0  0  0  0  0
  145.3174  132.6187  153.0248 H   0  0  0  0  0  0  0  0  0  0  0  0
  145.7773  132.6693  154.7082 H   0  0  0  0  0  0  0  0  0  0  0  0
  144.2180  135.6955  152.6126 H   0  0  0  0  0  0  0  0  0  0  0  0
  141.7730  134.0452  153.6929 H   0  0  0  0  0  0  0  0  0  0  0  0
  141.6891  135.3655  152.4160 H   0  0  0  0  0  0  0  0  0  0  0  0
  143.2170  134.0367  150.9352 H   0  0  0  0  0  0  0  0  0  0  0  0
  143.3058  132.7133  152.2085 H   0  0  0  0  0  0  0  0  0  0  0  0
  143.7951  135.7303  155.4465 H   0  0  0  0  0  0  0  0  0  0  0  0
  144.8589  134.5510  156.1703 H   0  0  0  0  0  0  0  0  0  0  0  0
  146.0955  136.6489  155.7840 H   0  0  0  0  0  0  0  0  0  0  0  0
  145.6654  136.6514  154.0944 H   0  0  0  0  0  0  0  0  0  0  0  0
  152.7955  138.1345  154.3360 H   0  0  0  0  0  0  0  0  0  0  0  0
  143.6782  133.5181  154.5268 H   0  0  0  0  0  0  0  0  0  0  0  0
  1  2  1  0  0  0  0
  1 21  1  0  0  0  0
  1 22  1  0  0  0  0
  1 23  1  0  0  0  0
  2  3  1  0  0  0  0
  2 24  1  0  0  0  0
  2 25  1  0  0  0  0
  3 20  1  0  0  0  0
  3  4  1  0  0  0  0
  4  5  2  0  0  0  0
  4 26  1  0  0  0  0
  5  6  1  0  0  0  0
  5 19  1  0  0  0  0
  6  7  1  0  0  0  0
  6 27  1  0  0  0  0
  7  8  2  0  0  0  0
  7  9  1  0  0  0  0
  9 10  1  0  0  0  0
  9 28  1  0  0  0  0
 10 18  1  0  0  0  0
 10 11  1  0  0  0  0
 10 29  1  0  0  0  0
 11 12  1  0  0  0  0
 11 30  1  0  0  0  0
 11 31  1  0  0  0  0
 12 13  1  0  0  0  0
 12 32  1  0  0  0  0
 12 33  1  0  0  0  0
 13 14  1  0  0  0  0
 13 17  1  0  0  0  0
 13 44  1  0  0  0  0
 14 16  1  0  0  0  0
 14 15  1  0  0  0  0
 14 34  1  0  0  0  0
 15 16  1  0  0  0  0
 15 35  1  0  0  0  0
 15 36  1  0  0  0  0
 16 37  1  0  0  0  0
 16 38  1  0  0  0  0
 17 18  1  0  0  0  0
 17 39  1  0  0  0  0
 17 40  1  0  0  0  0
 18 41  1  0  0  0  0
 18 42  1  0  0  0  0
 19 20  2  0  0  0  0
 19 43  1  0  0  0  0
M  CHG  1  13   1
M  END
> <s_m_source_file>
AV-unprocessed.smi

> <i_m_source_file_index>
1248

> <i_lp_mmshare_version>
43012

> <i_f3d_flags>
0

> <s_epik_input>
W0NIM11bQ0gyXW4xW2NIXWMoW2NIXW4xKVtOSF1DKD1PKVtOSF1bQ0hdMltDSDJdW0NIMl1OKFtDSDJdW0NIMl0yKVtDSF0zW0NIMl1bQ0gyXTM=

> <s_epik_cmdline>
J2VwaWtfcHl0aG9uJywgJy1waCcsICc3LjAnLCAnLXRuJywgJzgnLCAnLW1hJywgJzIwMCcsICctbWV0YWxfYmluZGluZycsICctaW1hZScsICc8aW5maWxlLm1hZT4nLCAnLW9tYWUnLCAnPG91dGZpbGUubWFlPic=

> <r_lp_tautomer_probability>
1

> <r_epik_Ionization_Penalty>
0.115699

> <r_epik_Ionization_Penalty_Charging>
0.115549

> <r_epik_Ionization_Penalty_Neutral>
0.00014958

> <r_epik_State_Penalty>
0.105184

> <r_epik_Charging_Adjusted_Penalty>
0.220733

> <i_epik_Tot_Q>
1

> <i_epik_Tot_abs_Q>
1

> <r_epik_Metal_State_Penalty>
0.105189

> <b_epik_Metal_Only>
0

> <s_lp_Force_Field>
OPLS_2005

> <r_lp_Energy>
31.7182

> <b_lp_Chiralities_Consistent>
1

> <s_lp_Variant>
AV-unprocessed.smi:1248-2

> <Gold.Version>
5.8.1

> <Gold.Id.Protein>
6NUR|6NUR_protein|mol2

> <Gold.PLP.Fitness>
39.8806

> <Gold.PLP.PLP>
-27.7961

> <Gold.PLP.part.hbond>
-4.6088

> <Gold.PLP.part.metal>
0.0000

> <Gold.PLP.part.buried>
-4.1197

> <Gold.PLP.part.nonpolar>
-19.8649

> <Gold.PLP.part.repulsive>
0.0534

> <Gold.PLP.ligand.clash>
0.0000

> <Gold.PLP.ligand.torsion>
1.3753

> <Gold.PLP.Chemscore.Hbond>
4.5204

> <Gold.PLP.Chemscore.CHOScore>
0.0000

> <Gold.PLP.Chemscore.Metal>
0.0000

> <Gold.Chemscore.Hbonds>
donor molecule, donor type, donor heavy atom, donor atom, acceptor molecule, acceptor atom, score
      L1  H     6    27       P1  7948  0.66
      L1  H     9    28       P1  7948  0.94
      L1  H    13    44       P1 10957  1.95
      P1  H  7997  8009       L1    20  0.75

> <Gold.PLP.Chemscore.Internal.Correction>
1.2738

> <Gold.Rescore>
     Score         DG    S(hbond)    S(metal)    S(lipo)     H(rot)  DE(clash)    DE(int)     intcor
     17.71     -19.25       3.19        0.00      56.15       1.34       0.05       1.50       ----

> <Gold.Chemscore.Fitness>
17.7090

> <Gold.Chemscore.DG>
-19.2507

> <Gold.Chemscore.ZeroCoef>
-5.4800

> <Gold.Chemscore.Hbond>
3.1860

> <Gold.Chemscore.Metal>
0.0000

> <Gold.Chemscore.Lipo>
56.1507

> <Gold.Chemscore.Internal_Hbond>
0.0000

> <Gold.Chemscore.DEClash>
0.0467

> <Gold.Chemscore.DEInternal>
1.4950

> <Gold.Chemscore.Rot>
1.3438

> <Gold.Chemscore.Internal.Correction>
   9.000000E+99

> <Gold.Chemscore.Hbonds>
donor molecule, donor type, donor heavy atom, donor atom, acceptor molecule, acceptor atom, score
      L1  H     6    27       P1  7948  0.16
      L1  H     9    28       P1  7948  0.88
      L1  H    13    44       P1 10957  0.90
      P1  H  7997  8009       L1    20  0.73

> <Gold.Chemscore.Hbond.Weighted>
-10.6411

> <Gold.Chemscore.Metal.Weighted>
-0.0000

> <Gold.Chemscore.Lipo.Weighted>
-6.5696

> <Gold.Chemscore.Internal_Hbond.Weighted>
0.0000

> <Gold.Chemscore.DEClash.Weighted>
0.0467

> <Gold.Chemscore.DEInternal.Weighted>
1.4950

> <Gold.Chemscore.Rot.Weighted>
3.4401

> <Gold.Chemscore.Internal.Correction.Weighted>
   9.000000E+99

> <Gold.Protein.RotatedTorsions>
[ 6907 6896 6895 6894 ] final   21.96 input  -60.11 | X-H torsion
[ 7974 7965 7964 7962 ] final -103.01 input  175.53 | X-H torsion
[ 8008 7997 7996 7995 ] final -144.90 input   59.86 | X-H torsion
[ 10167 10162 10161 10158 ] final   52.89 input  -65.29 | X-H torsion
[ 10718 10713 10712 10709 ] final  114.52 input   66.30 | X-H torsion
[ 10763 10752 10751 10750 ] final -112.62 input  -60.55 | X-H torsion
[ 11005 11000 10999 10996 ] final  178.50 input  -57.11 | X-H torsion

> <Gold.Protein.ActiveResidues>
 VAL166  LYS551  ARG553  GLY616  TRP617  ASP618  TYR619  PRO620  LYS621  CYS622 
 ASP623  PHE694  ASN695  SER759  ASP760  ASP761  ALA762  ILE779  LEU786  VAL792 
 PHE793  MET794  SER795  GLU796  ALA797  LYS798  CYS799  TRP800  GLU811  SER814 

> <Gold.Protein.RotatedAtoms>
  151.9199  135.0303  160.0520 H   0  0  0  0  0  0  0  0  0  0  0  0  # atno 6907 bound_to 6896
  152.2209  133.4978  159.5170 H   0  0  0  0  0  0  0  0  0  0  0  0  # atno 6908 bound_to 6896
  150.6999  134.1261  159.4095 H   0  0  0  0  0  0  0  0  0  0  0  0  # atno 6909 bound_to 6896
  145.2614  140.9270  143.3039 H   0  0  0  0  0  0  0  0  0  0  0  0  # atno 7974 bound_to 7965
  155.5345  140.0602  157.2882 H   0  0  0  0  0  0  0  0  0  0  0  0  # atno 8008 bound_to 7997
  154.4473  140.1930  156.0572 H   0  0  0  0  0  0  0  0  0  0  0  0  # atno 8009 bound_to 7997
  156.0629  140.3270  155.7486 H   0  0  0  0  0  0  0  0  0  0  0  0  # atno 8010 bound_to 7997
  140.2465  144.3526  150.6362 H   0  0  0  0  0  0  0  0  0  0  0  0  # atno 10167 bound_to 10162
  157.6276  131.0999  150.7197 H   0  0  0  0  0  0  0  0  0  0  0  0  # atno 10718 bound_to 10713
  154.8358  135.4484  154.1222 H   0  0  0  0  0  0  0  0  0  0  0  0  # atno 10763 bound_to 10752
  153.2455  135.6921  153.7742 H   0  0  0  0  0  0  0  0  0  0  0  0  # atno 10764 bound_to 10752
  153.7074  135.3362  155.3214 H   0  0  0  0  0  0  0  0  0  0  0  0  # atno 10765 bound_to 10752
  140.3958  134.6821  157.4534 H   0  0  0  0  0  0  0  0  0  0  0  0  # atno 11005 bound_to 11000
  144.9415  139.4183  143.6446 LP  0  0  0  0  0  0  0  0  0  0  0  0  # atno 17320 bound_to 7965
  146.3274  139.8377  142.8896 LP  0  0  0  0  0  0  0  0  0  0  0  0  # atno 17321 bound_to 7965
  140.6073  143.2168  151.6955 LP  0  0  0  0  0  0  0  0  0  0  0  0  # atno 17342 bound_to 10162
  139.5060  144.3698  152.0481 LP  0  0  0  0  0  0  0  0  0  0  0  0  # atno 17343 bound_to 10162
  156.7542  130.4778  149.5450 LP  0  0  0  0  0  0  0  0  0  0  0  0  # atno 17370 bound_to 10713
  156.1459  130.6276  151.0530 LP  0  0  0  0  0  0  0  0  0  0  0  0  # atno 17371 bound_to 10713
  140.0372  134.6319  155.9027 LP  0  0  0  0  0  0  0  0  0  0  0  0  # atno 17394 bound_to 11000
  141.1874  133.6560  156.5282 LP  0  0  0  0  0  0  0  0  0  0  0  0  # atno 17395 bound_to 11000

$$$$
