AV-unprocessed.smi:1795|AV-procd|sdf|7248|dock9
  -GOLD-   22720 8503D 1   1.00000     0.00000
 Structure written by MMmdl.
 48 49  0  0  0  0  0  0  0  0  2 V2000
  146.2436  134.2456  150.8483 C   0  0  0  0  0  0  0  0  0  0  0  0
  146.2143  133.1096  151.8868 C   0  0  1  0  0  0  0  0  0  0  0  0
  147.5884  132.8255  152.5275 C   0  0  0  0  0  0  0  0  0  0  0  0
  147.9692  133.8647  153.5248 N   0  3  2  0  0  0  0  0  0  0  0  0
  149.3058  133.6684  154.1792 C   0  0  2  0  0  0  0  0  0  0  0  0
  149.3714  132.2842  154.8666 C   0  0  0  0  0  0  0  0  0  0  0  0
  149.6724  134.7854  155.1982 C   0  0  0  0  0  0  0  0  0  0  0  0
  149.9157  136.0810  154.5694 N   0  0  0  0  0  0  0  0  0  0  0  0
  150.7201  137.0341  155.0644 C   0  0  0  0  0  0  0  0  0  0  0  0
  151.3225  136.9159  156.1322 O   0  0  0  0  0  0  0  0  0  0  0  0
  150.8391  138.3192  154.2334 C   0  0  0  0  0  0  0  0  0  0  0  0
  150.3949  139.5200  154.9607 N   0  0  0  0  0  0  0  0  0  0  0  0
  149.2462  140.1771  154.4761 C   0  0  0  0  0  0  0  0  0  0  0  0
  148.7547  141.2772  155.0683 C   0  0  0  0  0  0  0  0  0  0  0  0
  149.4366  141.7878  156.2338 C   0  0  0  0  0  0  0  0  0  0  0  0
  150.5341  141.1651  156.7077 C   0  0  0  0  0  0  0  0  0  0  0  0
  151.0728  139.9602  156.0659 C   0  0  0  0  0  0  0  0  0  0  0  0
  152.0713  139.3810  156.4953 O   0  0  0  0  0  0  0  0  0  0  0  0
  146.8673  134.0245  154.5119 C   0  0  0  0  0  0  0  0  0  0  0  0
  145.5377  134.3561  153.8136 C   0  0  2  0  0  0  0  0  0  0  0  0
  144.3762  134.4637  154.8082 C   0  0  0  0  0  0  0  0  0  0  0  0
  145.2248  133.3216  152.8895 O   0  0  0  0  0  0  0  0  0  0  0  0
  146.8985  133.9902  150.0150 H   0  0  0  0  0  0  0  0  0  0  0  0
  146.6069  135.1830  151.2683 H   0  0  0  0  0  0  0  0  0  0  0  0
  145.2486  134.4238  150.4398 H   0  0  0  0  0  0  0  0  0  0  0  0
  145.9085  132.2091  151.3528 H   0  0  0  0  0  0  0  0  0  0  0  0
  147.5712  131.8520  153.0206 H   0  0  0  0  0  0  0  0  0  0  0  0
  148.3166  132.7662  151.7196 H   0  0  0  0  0  0  0  0  0  0  0  0
  150.0575  133.6936  153.3884 H   0  0  0  0  0  0  0  0  0  0  0  0
  150.3368  132.1124  155.3422 H   0  0  0  0  0  0  0  0  0  0  0  0
  149.2392  131.4588  154.1699 H   0  0  0  0  0  0  0  0  0  0  0  0
  148.6058  132.1927  155.6377 H   0  0  0  0  0  0  0  0  0  0  0  0
  148.8805  134.9356  155.9328 H   0  0  0  0  0  0  0  0  0  0  0  0
  150.5682  134.5067  155.7540 H   0  0  0  0  0  0  0  0  0  0  0  0
  149.4523  136.2593  153.6898 H   0  0  0  0  0  0  0  0  0  0  0  0
  151.8708  138.4456  153.8988 H   0  0  0  0  0  0  0  0  0  0  0  0
  150.2575  138.1870  153.3200 H   0  0  0  0  0  0  0  0  0  0  0  0
  148.7913  139.7279  153.6052 H   0  0  0  0  0  0  0  0  0  0  0  0
  147.8704  141.7652  154.6852 H   0  0  0  0  0  0  0  0  0  0  0  0
  149.0644  142.6727  156.7289 H   0  0  0  0  0  0  0  0  0  0  0  0
  151.0306  141.5613  157.5815 H   0  0  0  0  0  0  0  0  0  0  0  0
  146.7663  133.1066  155.0940 H   0  0  0  0  0  0  0  0  0  0  0  0
  147.0854  134.8219  155.2191 H   0  0  0  0  0  0  0  0  0  0  0  0
  145.6232  135.3100  153.2928 H   0  0  0  0  0  0  0  0  0  0  0  0
  144.5583  135.2493  155.5422 H   0  0  0  0  0  0  0  0  0  0  0  0
  144.2294  133.5280  155.3486 H   0  0  0  0  0  0  0  0  0  0  0  0
  143.4444  134.7007  154.2942 H   0  0  0  0  0  0  0  0  0  0  0  0
  148.0309  134.7316  153.0102 H   0  0  0  0  0  0  0  0  0  0  0  0
  1  2  1  0  0  0  0
  1 23  1  0  0  0  0
  1 24  1  0  0  0  0
  1 25  1  0  0  0  0
  2 22  1  0  0  0  0
  2  3  1  0  0  0  0
  2 26  1  0  0  0  0
  3  4  1  0  0  0  0
  3 27  1  0  0  0  0
  3 28  1  0  0  0  0
  4  5  1  0  0  0  0
  4 19  1  0  0  0  0
  4 48  1  0  0  0  0
  5  6  1  0  0  0  0
  5  7  1  0  0  0  0
  5 29  1  0  0  0  0
  6 30  1  0  0  0  0
  6 31  1  0  0  0  0
  6 32  1  0  0  0  0
  7  8  1  0  0  0  0
  7 33  1  0  0  0  0
  7 34  1  0  0  0  0
  8  9  1  0  0  0  0
  8 35  1  0  0  0  0
  9 10  2  0  0  0  0
  9 11  1  0  0  0  0
 11 12  1  0  0  0  0
 11 36  1  0  0  0  0
 11 37  1  0  0  0  0
 12 17  1  0  0  0  0
 12 13  1  0  0  0  0
 13 14  2  0  0  0  0
 13 38  1  0  0  0  0
 14 15  1  0  0  0  0
 14 39  1  0  0  0  0
 15 16  2  0  0  0  0
 15 40  1  0  0  0  0
 16 17  1  0  0  0  0
 16 41  1  0  0  0  0
 17 18  2  0  0  0  0
 19 20  1  0  0  0  0
 19 42  1  0  0  0  0
 19 43  1  0  0  0  0
 20 21  1  0  0  0  0
 20 22  1  0  0  0  0
 20 44  1  0  0  0  0
 21 45  1  0  0  0  0
 21 46  1  0  0  0  0
 21 47  1  0  0  0  0
M  CHG  1   4   1
M  END
> <s_m_source_file>
AV-unprocessed.smi

> <i_m_source_file_index>
1795

> <i_lp_mmshare_version>
43012

> <i_f3d_flags>
0

> <s_epik_input>
W0NIM11bQ0BASF0xW0NIMl1OKFtDSDJdW0NASF0oTzEpW0NIM10pW0NASF0oW0NIM10pW0NIMl1bTkhdQyg9TylbQ0gyXW4yW2NIXVtjSF1bY0hdW2NIXWMyPU8=

> <s_epik_cmdline>
J2VwaWtfcHl0aG9uJywgJy1waCcsICc3LjAnLCAnLXRuJywgJzgnLCAnLW1hJywgJzIwMCcsICctbWV0YWxfYmluZGluZycsICctaW1hZScsICc8aW5maWxlLm1hZT4nLCAnLW9tYWUnLCAnPG91dGZpbGUubWFlPic=

> <r_lp_tautomer_probability>
1

> <r_epik_Ionization_Penalty>
0.656654

> <r_epik_Ionization_Penalty_Charging>
0.656654

> <r_epik_Ionization_Penalty_Neutral>
8.90321e-08

> <r_epik_State_Penalty>
0.675641

> <r_epik_Charging_Adjusted_Penalty>
1.33229

> <i_epik_Tot_Q>
1

> <i_epik_Tot_abs_Q>
1

> <r_epik_Metal_State_Penalty>
0.675691

> <b_epik_Metal_Only>
0

> <s_lp_Force_Field>
OPLS_2005

> <r_lp_Energy>
31.4881

> <b_lp_Chiralities_Consistent>
1

> <s_lp_Variant>
AV-unprocessed.smi:1795-12

> <Gold.Version>
5.8.1

> <Gold.Id.Protein>
6NUR|6NUR_protein|mol2

> <Gold.PLP.Fitness>
57.6661

> <Gold.PLP.PLP>
-40.2268

> <Gold.PLP.part.hbond>
-4.9978

> <Gold.PLP.part.metal>
0.0000

> <Gold.PLP.part.buried>
-2.2320

> <Gold.PLP.part.nonpolar>
-33.0883

> <Gold.PLP.part.repulsive>
0.1994

> <Gold.PLP.ligand.clash>
0.0000

> <Gold.PLP.ligand.torsion>
0.3060

> <Gold.PLP.Chemscore.Hbond>
5.0000

> <Gold.PLP.Chemscore.CHOScore>
1.0000

> <Gold.PLP.Chemscore.Metal>
0.0000

> <Gold.Chemscore.Hbonds>
donor molecule, donor type, donor heavy atom, donor atom, acceptor molecule, acceptor atom, score
      L1  H     4    48       P1  7948  1.79
      L1  H     8    35       P1  7948  1.00
      P1  H  7997  8008       L1    18  0.13
      L1  C    13    38       P1  7957  0.76

> <Gold.PLP.Chemscore.Internal.Correction>
0.0512

> <Gold.Rescore>
     Score         DG    S(hbond)    S(metal)    S(lipo)     H(rot)  DE(clash)    DE(int)     intcor
     18.39     -20.13       3.51        0.00      66.45       1.89       0.04       1.70       ----

> <Gold.Chemscore.Fitness>
18.3892

> <Gold.Chemscore.DG>
-20.1333

> <Gold.Chemscore.ZeroCoef>
-5.4800

> <Gold.Chemscore.Hbond>
3.5059

> <Gold.Chemscore.Metal>
0.0000

> <Gold.Chemscore.Lipo>
66.4473

> <Gold.Chemscore.Internal_Hbond>
0.0000

> <Gold.Chemscore.DEClash>
0.0433

> <Gold.Chemscore.DEInternal>
1.7008

> <Gold.Chemscore.Rot>
1.8870

> <Gold.Chemscore.Internal.Correction>
   9.000000E+99

> <Gold.Chemscore.Hbonds>
donor molecule, donor type, donor heavy atom, donor atom, acceptor molecule, acceptor atom, score
      L1  H     4    48       P1  7948  0.73
      L1  H     8    35       P1  7948  0.70
      P1  H  7997  8008       L1    18  0.14

> <Gold.Chemscore.Hbond.Weighted>
-11.7097

> <Gold.Chemscore.Metal.Weighted>
-0.0000

> <Gold.Chemscore.Lipo.Weighted>
-7.7743

> <Gold.Chemscore.Internal_Hbond.Weighted>
0.0000

> <Gold.Chemscore.DEClash.Weighted>
0.0433

> <Gold.Chemscore.DEInternal.Weighted>
1.7008

> <Gold.Chemscore.Rot.Weighted>
4.8308

> <Gold.Chemscore.Internal.Correction.Weighted>
   9.000000E+99

> <Gold.Protein.RotatedTorsions>
[ 6907 6896 6895 6894 ] final -137.71 input  -60.11 | X-H torsion
[ 7974 7965 7964 7962 ] final  107.96 input  175.53 | X-H torsion
[ 8008 7997 7996 7995 ] final  -47.48 input   59.86 | X-H torsion
[ 10167 10162 10161 10158 ] final  126.75 input  -65.29 | X-H torsion
[ 10718 10713 10712 10709 ] final  143.97 input   66.30 | X-H torsion
[ 10763 10752 10751 10750 ] final -143.67 input  -60.55 | X-H torsion
[ 11005 11000 10999 10996 ] final    4.78 input  -57.11 | X-H torsion

> <Gold.Protein.ActiveResidues>
 VAL166  LYS551  ARG553  GLY616  TRP617  ASP618  TYR619  PRO620  LYS621  CYS622 
 ASP623  PHE694  ASN695  SER759  ASP760  ASP761  ALA762  ILE779  LEU786  VAL792 
 PHE793  MET794  SER795  GLU796  ALA797  LYS798  CYS799  TRP800  GLU811  SER814 

> <Gold.Protein.RotatedAtoms>
  151.0259  133.5834  159.2665 H   0  0  0  0  0  0  0  0  0  0  0  0  # atno 6907 bound_to 6896
  151.2934  135.0747  159.9222 H   0  0  0  0  0  0  0  0  0  0  0  0  # atno 6908 bound_to 6896
  152.5334  133.9953  159.7924 H   0  0  0  0  0  0  0  0  0  0  0  0  # atno 6909 bound_to 6896
  145.2868  139.2613  143.3886 H   0  0  0  0  0  0  0  0  0  0  0  0  # atno 7974 bound_to 7965
  154.4017  140.1345  156.4181 H   0  0  0  0  0  0  0  0  0  0  0  0  # atno 8008 bound_to 7997
  155.7669  140.3485  155.5206 H   0  0  0  0  0  0  0  0  0  0  0  0  # atno 8009 bound_to 7997
  155.8805  140.0986  157.1479 H   0  0  0  0  0  0  0  0  0  0  0  0  # atno 8010 bound_to 7997
  139.5614  144.6884  151.4031 H   0  0  0  0  0  0  0  0  0  0  0  0  # atno 10167 bound_to 10162
  157.3627  131.0967  151.0900 H   0  0  0  0  0  0  0  0  0  0  0  0  # atno 10718 bound_to 10713
  154.8460  135.3461  154.6224 H   0  0  0  0  0  0  0  0  0  0  0  0  # atno 10763 bound_to 10752
  153.6833  135.6979  153.5116 H   0  0  0  0  0  0  0  0  0  0  0  0  # atno 10764 bound_to 10752
  153.2651  135.4310  155.0888 H   0  0  0  0  0  0  0  0  0  0  0  0  # atno 10765 bound_to 10752
  140.5781  134.0039  155.8036 H   0  0  0  0  0  0  0  0  0  0  0  0  # atno 11005 bound_to 11000
  146.3198  140.3350  142.8643 LP  0  0  0  0  0  0  0  0  0  0  0  0  # atno 17320 bound_to 7965
  144.9206  140.7863  143.5750 LP  0  0  0  0  0  0  0  0  0  0  0  0  # atno 17321 bound_to 7965
  140.6895  143.7896  150.7234 LP  0  0  0  0  0  0  0  0  0  0  0  0  # atno 17342 bound_to 10162
  140.1374  143.4472  152.2216 LP  0  0  0  0  0  0  0  0  0  0  0  0  # atno 17343 bound_to 10162
  157.2034  130.6405  149.5747 LP  0  0  0  0  0  0  0  0  0  0  0  0  # atno 17370 bound_to 10713
  155.9740  130.4683  150.6356 LP  0  0  0  0  0  0  0  0  0  0  0  0  # atno 17371 bound_to 10713
  141.1013  133.9763  157.3073 LP  0  0  0  0  0  0  0  0  0  0  0  0  # atno 17394 bound_to 11000
  139.9330  135.0198  156.8463 LP  0  0  0  0  0  0  0  0  0  0  0  0  # atno 17395 bound_to 11000

$$$$
