AV-unprocessed.smi:1661|AV-procd|sdf|6655|dock4
  -GOLD-   22720 7363D 1   1.00000     0.00000
 Structure written by MMmdl.
 37 38  0  0  0  0  0  0  0  0  3 V2000
  145.0472  133.1548  150.2234 C   0  0  0  0  0  0  0  0  0  0  0  0
  145.0799  134.2113  151.3367 C   0  0  2  0  0  0  0  0  0  0  0  0
  145.2433  135.6314  150.7698 C   0  0  0  0  0  0  0  0  0  0  0  0
  145.3078  136.6784  151.8947 C   0  0  0  0  0  0  0  0  0  0  0  0
  146.4041  136.3756  152.8508 N   0  3  1  0  0  0  0  0  0  0  0  0
  146.5703  137.4431  153.8688 C   0  0  0  0  0  0  0  0  0  0  0  0
  147.2271  138.7057  153.2900 C   0  0  0  0  0  0  0  0  0  0  0  0
  148.6686  138.6642  153.4899 N   0  0  0  0  0  0  0  0  0  0  0  0
  149.3693  139.5422  154.2189 C   0  0  0  0  0  0  0  0  0  0  0  0
  148.7883  140.4715  154.7839 O   0  0  0  0  0  0  0  0  0  0  0  0
  150.6966  139.2875  154.2477 N   0  5  0  0  0  0  0  0  0  0  0  0
  151.3608  139.3175  155.4150 C   0  0  0  0  0  0  0  0  0  0  0  0
  152.6781  139.0702  155.4976 N   0  0  0  0  0  0  0  0  0  0  0  0
  153.1679  139.1467  156.7944 N   0  0  0  0  0  0  0  0  0  0  0  0
  152.2006  139.4439  157.6621 C   0  0  0  0  0  0  0  0  0  0  0  0
  150.6037  139.6529  156.9748 S   0  0  0  0  0  0  0  0  0  0  0  0
  146.2503  135.0193  153.4416 C   0  0  0  0  0  0  0  0  0  0  0  0
  146.2060  133.9387  152.3480 C   0  0  0  0  0  0  0  0  0  0  0  0
  145.9758  133.1504  149.6516 H   0  0  0  0  0  0  0  0  0  0  0  0
  144.2289  133.3432  149.5279 H   0  0  0  0  0  0  0  0  0  0  0  0
  144.9049  132.1551  150.6352 H   0  0  0  0  0  0  0  0  0  0  0  0
  144.1274  134.1638  151.8669 H   0  0  0  0  0  0  0  0  0  0  0  0
  146.1514  135.6883  150.1676 H   0  0  0  0  0  0  0  0  0  0  0  0
  144.4143  135.8640  150.1001 H   0  0  0  0  0  0  0  0  0  0  0  0
  145.4641  137.6635  151.4534 H   0  0  0  0  0  0  0  0  0  0  0  0
  144.3573  136.7173  152.4294 H   0  0  0  0  0  0  0  0  0  0  0  0
  145.5903  137.7236  154.2578 H   0  0  0  0  0  0  0  0  0  0  0  0
  147.1410  137.0611  154.7167 H   0  0  0  0  0  0  0  0  0  0  0  0
  147.0291  138.7979  152.2221 H   0  0  0  0  0  0  0  0  0  0  0  0
  146.8212  139.5955  153.7740 H   0  0  0  0  0  0  0  0  0  0  0  0
  149.1795  137.9177  153.0414 H   0  0  0  0  0  0  0  0  0  0  0  0
  152.4282  139.5370  158.7134 H   0  0  0  0  0  0  0  0  0  0  0  0
  147.0780  134.8005  154.1150 H   0  0  0  0  0  0  0  0  0  0  0  0
  145.3392  134.9831  154.0410 H   0  0  0  0  0  0  0  0  0  0  0  0
  146.0664  132.9593  152.8068 H   0  0  0  0  0  0  0  0  0  0  0  0
  147.1673  133.9037  151.8328 H   0  0  0  0  0  0  0  0  0  0  0  0
  147.2559  136.3670  152.3079 H   0  0  0  0  0  0  0  0  0  0  0  0
  1  2  1  0  0  0  0
  1 19  1  0  0  0  0
  1 20  1  0  0  0  0
  1 21  1  0  0  0  0
  2 18  1  0  0  0  0
  2  3  1  0  0  0  0
  2 22  1  0  0  0  0
  3  4  1  0  0  0  0
  3 23  1  0  0  0  0
  3 24  1  0  0  0  0
  4  5  1  0  0  0  0
  4 25  1  0  0  0  0
  4 26  1  0  0  0  0
  5  6  1  0  0  0  0
  5 17  1  0  0  0  0
  5 37  1  0  0  0  0
  6  7  1  0  0  0  0
  6 27  1  0  0  0  0
  6 28  1  0  0  0  0
  7  8  1  0  0  0  0
  7 29  1  0  0  0  0
  7 30  1  0  0  0  0
  8  9  1  0  0  0  0
  8 31  1  0  0  0  0
  9 10  2  0  0  0  0
  9 11  1  0  0  0  0
 11 12  1  0  0  0  0
 12 16  1  0  0  0  0
 12 13  2  0  0  0  0
 13 14  1  0  0  0  0
 14 15  2  0  0  0  0
 15 16  1  0  0  0  0
 15 32  1  0  0  0  0
 17 18  1  0  0  0  0
 17 33  1  0  0  0  0
 17 34  1  0  0  0  0
 18 35  1  0  0  0  0
 18 36  1  0  0  0  0
M  CHG  1   5   1
M  CHG  1  11  -1
M  END
> <s_m_source_file>
AV-unprocessed.smi

> <i_m_source_file_index>
1661

> <i_lp_mmshare_version>
43012

> <i_f3d_flags>
0

> <s_epik_input>
W0NIM11bQ0hdMVtDSDJdW0NIMl1OKFtDSDJdW0NIMl0xKVtDSDJdW0NIMl1bTkhdQyg9TylbTkhdYzJubltjSF1zMg==

> <s_epik_cmdline>
J2VwaWtfcHl0aG9uJywgJy1waCcsICc3LjAnLCAnLXRuJywgJzgnLCAnLW1hJywgJzIwMCcsICctbWV0YWxfYmluZGluZycsICctaW1hZScsICc8aW5maWxlLm1hZT4nLCAnLW9tYWUnLCAnPG91dGZpbGUubWFlPic=

> <r_lp_tautomer_probability>
1

> <r_epik_Ionization_Penalty>
3.04466

> <r_epik_Ionization_Penalty_Charging>
3.01305

> <r_epik_Ionization_Penalty_Neutral>
0.0316037

> <r_epik_State_Penalty>
3.00821

> <r_epik_Charging_Adjusted_Penalty>
6.02127

> <i_epik_Tot_Q>
0

> <i_epik_Tot_abs_Q>
2

> <r_epik_Metal_State_Penalty>
0.454395

> <b_epik_Metal_Only>
1

> <s_lp_Force_Field>
OPLS_2005

> <r_lp_Energy>
9.82396

> <b_lp_Chiralities_Consistent>
1

> <s_lp_Variant>
AV-unprocessed.smi:1661-3

> <Gold.Version>
5.8.1

> <Gold.Id.Protein>
6NUR|6NUR_protein|mol2

> <Gold.PLP.Fitness>
40.3862

> <Gold.PLP.PLP>
-27.9969

> <Gold.PLP.part.hbond>
-5.7176

> <Gold.PLP.part.metal>
0.0000

> <Gold.PLP.part.buried>
-3.9608

> <Gold.PLP.part.nonpolar>
-19.8698

> <Gold.PLP.part.repulsive>
0.3334

> <Gold.PLP.ligand.clash>
0.0000

> <Gold.PLP.ligand.torsion>
0.7667

> <Gold.PLP.Chemscore.Hbond>
4.6236

> <Gold.PLP.Chemscore.CHOScore>
0.0000

> <Gold.PLP.Chemscore.Metal>
0.0000

> <Gold.Chemscore.Hbonds>
donor molecule, donor type, donor heavy atom, donor atom, acceptor molecule, acceptor atom, score
      L1  H     5    37       P1  7948  2.00
      L1  H     8    31       P1  7948  0.86
      P1  H  7989  7998       L1    11  0.75
      P1  H  7997  8008       L1    14  1.00

> <Gold.PLP.Chemscore.Internal.Correction>
0.0520

> <Gold.Rescore>
     Score         DG    S(hbond)    S(metal)    S(lipo)     H(rot)  DE(clash)    DE(int)     intcor
     14.95     -16.42       2.82        0.00      49.64       1.68       0.03       1.44       ----

> <Gold.Chemscore.Fitness>
14.9462

> <Gold.Chemscore.DG>
-16.4242

> <Gold.Chemscore.ZeroCoef>
-5.4800

> <Gold.Chemscore.Hbond>
2.8236

> <Gold.Chemscore.Metal>
0.0000

> <Gold.Chemscore.Lipo>
49.6439

> <Gold.Chemscore.Internal_Hbond>
0.0000

> <Gold.Chemscore.DEClash>
0.0330

> <Gold.Chemscore.DEInternal>
1.4450

> <Gold.Chemscore.Rot>
1.6777

> <Gold.Chemscore.Internal.Correction>
   9.000000E+99

> <Gold.Chemscore.Hbonds>
donor molecule, donor type, donor heavy atom, donor atom, acceptor molecule, acceptor atom, score
      L1  H     5    37       P1  7948  1.00
      L1  H     8    31       P1  7948  0.79
      P1  H  7989  7998       L1    11  0.06
      P1  H  7997  8008       L1    14  0.55

> <Gold.Chemscore.Hbond.Weighted>
-9.4308

> <Gold.Chemscore.Metal.Weighted>
-0.0000

> <Gold.Chemscore.Lipo.Weighted>
-5.8083

> <Gold.Chemscore.Internal_Hbond.Weighted>
0.0000

> <Gold.Chemscore.DEClash.Weighted>
0.0330

> <Gold.Chemscore.DEInternal.Weighted>
1.4450

> <Gold.Chemscore.Rot.Weighted>
4.2950

> <Gold.Chemscore.Internal.Correction.Weighted>
   9.000000E+99

> <Gold.Protein.RotatedTorsions>
[ 6907 6896 6895 6894 ] final -128.87 input  -60.11 | X-H torsion
[ 7974 7965 7964 7962 ] final  -36.33 input  175.53 | X-H torsion
[ 8008 7997 7996 7995 ] final  -69.16 input   59.86 | X-H torsion
[ 10167 10162 10161 10158 ] final -127.72 input  -65.29 | X-H torsion
[ 10718 10713 10712 10709 ] final -155.39 input   66.30 | X-H torsion
[ 10763 10752 10751 10750 ] final -104.20 input  -60.55 | X-H torsion
[ 11005 11000 10999 10996 ] final  -54.55 input  -57.11 | X-H torsion

> <Gold.Protein.ActiveResidues>
 VAL166  LYS551  ARG553  GLY616  TRP617  ASP618  TYR619  PRO620  LYS621  CYS622 
 ASP623  PHE694  ASN695  SER759  ASP760  ASP761  ALA762  ILE779  LEU786  VAL792 
 PHE793  MET794  SER795  GLU796  ALA797  LYS798  CYS799  TRP800  GLU811  SER814 

> <Gold.Protein.RotatedAtoms>
  150.9226  133.6862  159.2828 H   0  0  0  0  0  0  0  0  0  0  0  0  # atno 6907 bound_to 6896
  151.4312  135.1008  159.9652 H   0  0  0  0  0  0  0  0  0  0  0  0  # atno 6908 bound_to 6896
  152.4987  133.8655  159.7327 H   0  0  0  0  0  0  0  0  0  0  0  0  # atno 6909 bound_to 6896
  146.0671  140.6265  142.8970 H   0  0  0  0  0  0  0  0  0  0  0  0  # atno 7974 bound_to 7965
  154.4919  140.0859  156.7612 H   0  0  0  0  0  0  0  0  0  0  0  0  # atno 8008 bound_to 7997
  155.4210  140.3445  155.4253 H   0  0  0  0  0  0  0  0  0  0  0  0  # atno 8009 bound_to 7997
  156.1341  140.1510  156.9009 H   0  0  0  0  0  0  0  0  0  0  0  0  # atno 8010 bound_to 7997
  139.9578  143.5983  152.2455 H   0  0  0  0  0  0  0  0  0  0  0  0  # atno 10167 bound_to 10162
  156.5122  130.8440  151.2650 H   0  0  0  0  0  0  0  0  0  0  0  0  # atno 10718 bound_to 10713
  154.7861  135.4795  153.9950 H   0  0  0  0  0  0  0  0  0  0  0  0  # atno 10763 bound_to 10752
  153.1563  135.6800  153.8815 H   0  0  0  0  0  0  0  0  0  0  0  0  # atno 10764 bound_to 10752
  153.8443  135.3175  155.3406 H   0  0  0  0  0  0  0  0  0  0  0  0  # atno 10765 bound_to 10752
  141.1031  133.6616  156.4337 H   0  0  0  0  0  0  0  0  0  0  0  0  # atno 11005 bound_to 11000
  144.7209  140.4369  143.7009 LP  0  0  0  0  0  0  0  0  0  0  0  0  # atno 17320 bound_to 7965
  145.6458  139.1557  143.2890 LP  0  0  0  0  0  0  0  0  0  0  0  0  # atno 17321 bound_to 7965
  139.6577  144.7662  151.2023 LP  0  0  0  0  0  0  0  0  0  0  0  0  # atno 17342 bound_to 10162
  140.7562  143.6059  150.8653 LP  0  0  0  0  0  0  0  0  0  0  0  0  # atno 17343 bound_to 10162
  157.7449  130.9946  150.2713 LP  0  0  0  0  0  0  0  0  0  0  0  0  # atno 17370 bound_to 10713
  156.3230  130.3788  149.7558 LP  0  0  0  0  0  0  0  0  0  0  0  0  # atno 17371 bound_to 10713
  140.4971  134.6520  157.5234 LP  0  0  0  0  0  0  0  0  0  0  0  0  # atno 17394 bound_to 11000
  139.9890  134.7015  155.9723 LP  0  0  0  0  0  0  0  0  0  0  0  0  # atno 17395 bound_to 11000

$$$$
