AV-unprocessed.smi:1381|AV-procd|sdf|5615|dock5
  -GOLD-   22720 5223D 1   1.00000     0.00000
 Structure written by MMmdl.
 42 43  0  0  0  0  0  0  0  0  3 V2000
  146.6978  136.9395  163.3118 C   0  0  0  0  0  0  0  0  0  0  0  0
  147.2163  136.6625  161.9422 C   0  0  0  0  0  0  0  0  0  0  0  0
  148.1879  135.8267  161.4693 C   0  0  0  0  0  0  0  0  0  0  0  0
  148.1669  136.0646  160.0676 C   0  0  0  0  0  0  0  0  0  0  0  0
  148.9447  135.4637  159.1537 N   0  5  0  0  0  0  0  0  0  0  0  0
  148.6572  135.5748  157.8371 C   0  0  0  0  0  0  0  0  0  0  0  0
  147.5329  135.6569  157.3370 O   0  0  0  0  0  0  0  0  0  0  0  0
  149.7412  135.6012  157.0484 N   0  0  0  0  0  0  0  0  0  0  0  0
  149.7335  135.7353  155.5964 C   0  0  0  0  0  0  0  0  0  0  0  0
  148.9104  136.9593  155.1534 C   0  0  0  0  0  0  0  0  0  0  0  0
  149.5781  137.7249  154.0682 N   0  3  1  0  0  0  0  0  0  0  0  0
  149.0744  139.1123  153.9249 C   0  0  0  0  0  0  0  0  0  0  0  0
  149.6489  140.0313  155.0218 C   0  0  2  0  0  0  0  0  0  0  0  0
  149.2044  141.4875  154.8456 C   0  0  0  0  0  0  0  0  0  0  0  0
  151.0705  139.9913  154.9554 O   0  0  0  0  0  0  0  0  0  0  0  0
  151.6000  138.6911  155.1929 C   0  0  2  0  0  0  0  0  0  0  0  0
  153.1290  138.7907  155.1628 C   0  0  0  0  0  0  0  0  0  0  0  0
  151.0624  137.7169  154.1218 C   0  0  0  0  0  0  0  0  0  0  0  0
  147.2523  136.9539  159.7192 N   0  0  0  0  0  0  0  0  0  0  0  0
  146.6418  137.3465  160.9164 O   0  0  0  0  0  0  0  0  0  0  0  0
  146.0038  136.1596  163.6252 H   0  0  0  0  0  0  0  0  0  0  0  0
  146.1730  137.8943  163.3470 H   0  0  0  0  0  0  0  0  0  0  0  0
  147.5138  136.9772  164.0338 H   0  0  0  0  0  0  0  0  0  0  0  0
  148.8156  135.1549  162.0350 H   0  0  0  0  0  0  0  0  0  0  0  0
  150.6419  135.5259  157.4983 H   0  0  0  0  0  0  0  0  0  0  0  0
  150.7704  135.8266  155.2760 H   0  0  0  0  0  0  0  0  0  0  0  0
  149.3454  134.8238  155.1386 H   0  0  0  0  0  0  0  0  0  0  0  0
  147.9451  136.6071  154.7878 H   0  0  0  0  0  0  0  0  0  0  0  0
  148.6929  137.6023  156.0060 H   0  0  0  0  0  0  0  0  0  0  0  0
  149.3743  139.4842  152.9440 H   0  0  0  0  0  0  0  0  0  0  0  0
  147.9837  139.1264  153.9347 H   0  0  0  0  0  0  0  0  0  0  0  0
  149.3231  139.6904  156.0061 H   0  0  0  0  0  0  0  0  0  0  0  0
  148.1184  141.5746  154.8924 H   0  0  0  0  0  0  0  0  0  0  0  0
  149.5321  141.8884  153.8859 H   0  0  0  0  0  0  0  0  0  0  0  0
  149.6218  142.1195  155.6299 H   0  0  0  0  0  0  0  0  0  0  0  0
  151.3021  138.3607  156.1887 H   0  0  0  0  0  0  0  0  0  0  0  0
  153.5891  137.8209  155.3535 H   0  0  0  0  0  0  0  0  0  0  0  0
  153.4890  139.4839  155.9235 H   0  0  0  0  0  0  0  0  0  0  0  0
  153.4836  139.1456  154.1947 H   0  0  0  0  0  0  0  0  0  0  0  0
  151.4433  136.7104  154.2902 H   0  0  0  0  0  0  0  0  0  0  0  0
  151.4331  138.0187  153.1411 H   0  0  0  0  0  0  0  0  0  0  0  0
  149.3160  137.2488  153.2166 H   0  0  0  0  0  0  0  0  0  0  0  0
  1  2  1  0  0  0  0
  1 21  1  0  0  0  0
  1 22  1  0  0  0  0
  1 23  1  0  0  0  0
  2 20  1  0  0  0  0
  2  3  2  0  0  0  0
  3  4  1  0  0  0  0
  3 24  1  0  0  0  0
  4  5  1  0  0  0  0
  4 19  2  0  0  0  0
  5  6  1  0  0  0  0
  6  7  2  0  0  0  0
  6  8  1  0  0  0  0
  8  9  1  0  0  0  0
  8 25  1  0  0  0  0
  9 10  1  0  0  0  0
  9 26  1  0  0  0  0
  9 27  1  0  0  0  0
 10 11  1  0  0  0  0
 10 28  1  0  0  0  0
 10 29  1  0  0  0  0
 11 18  1  0  0  0  0
 11 12  1  0  0  0  0
 11 42  1  0  0  0  0
 12 13  1  0  0  0  0
 12 30  1  0  0  0  0
 12 31  1  0  0  0  0
 13 14  1  0  0  0  0
 13 15  1  0  0  0  0
 13 32  1  0  0  0  0
 14 33  1  0  0  0  0
 14 34  1  0  0  0  0
 14 35  1  0  0  0  0
 15 16  1  0  0  0  0
 16 17  1  0  0  0  0
 16 18  1  0  0  0  0
 16 36  1  0  0  0  0
 17 37  1  0  0  0  0
 17 38  1  0  0  0  0
 17 39  1  0  0  0  0
 18 40  1  0  0  0  0
 18 41  1  0  0  0  0
 19 20  1  0  0  0  0
M  CHG  1   5  -1
M  CHG  1  11   1
M  END
> <s_m_source_file>
AV-unprocessed.smi

> <i_m_source_file_index>
1381

> <i_lp_mmshare_version>
43012

> <i_f3d_flags>
0

> <s_epik_input>
W0NIM11jMVtjSF1jKG5vMSlbTkhdQyg9TylbTkhdW0NIMl1bQ0gyXU4yW0NIMl1bQ0BASF0oW0NIM10pT1tDQEBIXShbQ0gzXSlbQ0gyXTI=

> <s_epik_cmdline>
J2VwaWtfcHl0aG9uJywgJy1waCcsICc3LjAnLCAnLXRuJywgJzgnLCAnLW1hJywgJzIwMCcsICctbWV0YWxfYmluZGluZycsICctaW1hZScsICc8aW5maWxlLm1hZT4nLCAnLW9tYWUnLCAnPG91dGZpbGUubWFlPic=

> <r_epik_Ionization_Penalty>
6.73511

> <r_epik_Ionization_Penalty_Charging>
6.73502

> <r_epik_Ionization_Penalty_Neutral>
9.26583e-05

> <r_epik_State_Penalty>
6.93549

> <r_epik_Charging_Adjusted_Penalty>
13.6705

> <i_epik_Tot_Q>
0

> <i_epik_Tot_abs_Q>
2

> <r_epik_Metal_State_Penalty>
2.87211

> <b_epik_Metal_Only>
1

> <s_lp_Force_Field>
OPLS_2005

> <r_lp_Energy>
4.17006

> <b_lp_Chiralities_Consistent>
1

> <s_lp_Variant>
AV-unprocessed.smi:1381-14

> <Gold.Version>
5.8.1

> <Gold.Id.Protein>
6NUR|6NUR_protein|mol2

> <Gold.PLP.Fitness>
45.7796

> <Gold.PLP.PLP>
-29.3092

> <Gold.PLP.part.hbond>
-4.6088

> <Gold.PLP.part.metal>
0.0000

> <Gold.PLP.part.buried>
1.1911

> <Gold.PLP.part.nonpolar>
-26.0110

> <Gold.PLP.part.repulsive>
0.1501

> <Gold.PLP.ligand.clash>
0.0000

> <Gold.PLP.ligand.torsion>
0.8393

> <Gold.PLP.Chemscore.Hbond>
6.0000

> <Gold.PLP.Chemscore.CHOScore>
0.0000

> <Gold.PLP.Chemscore.Metal>
0.0000

> <Gold.Chemscore.Hbonds>
donor molecule, donor type, donor heavy atom, donor atom, acceptor molecule, acceptor atom, score
      L1  H    11    42       P1  7948  2.00
      P1  H  6896  6907       L1     5  2.00
      P1  H  6934  6947       L1    20  0.90
      P1  H  7989  7998       L1    15  1.00

> <Gold.PLP.Chemscore.Internal.Correction>
0.1490

> <Gold.Rescore>
     Score         DG    S(hbond)    S(metal)    S(lipo)     H(rot)  DE(clash)    DE(int)     intcor
     15.41     -21.49       3.11        0.00      82.62       1.58       2.44       3.64       ----

> <Gold.Chemscore.Fitness>
15.4118

> <Gold.Chemscore.DG>
-21.4861

> <Gold.Chemscore.ZeroCoef>
-5.4800

> <Gold.Chemscore.Hbond>
3.1087

> <Gold.Chemscore.Metal>
0.0000

> <Gold.Chemscore.Lipo>
82.6158

> <Gold.Chemscore.Internal_Hbond>
0.0000

> <Gold.Chemscore.DEClash>
2.4378

> <Gold.Chemscore.DEInternal>
3.6366

> <Gold.Chemscore.Rot>
1.5792

> <Gold.Chemscore.Internal.Correction>
   9.000000E+99

> <Gold.Chemscore.Hbonds>
donor molecule, donor type, donor heavy atom, donor atom, acceptor molecule, acceptor atom, score
      L1  H    11    42       P1  7948  0.97
      P1  H  6896  6907       L1     5  0.82
      P1  H  6934  6947       L1    20  0.13
      P1  H  7989  7998       L1    15  0.71

> <Gold.Chemscore.Hbond.Weighted>
-10.3829

> <Gold.Chemscore.Metal.Weighted>
-0.0000

> <Gold.Chemscore.Lipo.Weighted>
-9.6661

> <Gold.Chemscore.Internal_Hbond.Weighted>
0.0000

> <Gold.Chemscore.DEClash.Weighted>
2.4378

> <Gold.Chemscore.DEInternal.Weighted>
3.6366

> <Gold.Chemscore.Rot.Weighted>
4.0428

> <Gold.Chemscore.Internal.Correction.Weighted>
   9.000000E+99

> <Gold.Protein.RotatedTorsions>
[ 6907 6896 6895 6894 ] final  -79.61 input  -60.11 | X-H torsion
[ 7974 7965 7964 7962 ] final  -45.11 input  175.53 | X-H torsion
[ 8008 7997 7996 7995 ] final  -68.27 input   59.86 | X-H torsion
[ 10167 10162 10161 10158 ] final  100.84 input  -65.29 | X-H torsion
[ 10718 10713 10712 10709 ] final  105.42 input   66.30 | X-H torsion
[ 10763 10752 10751 10750 ] final  105.56 input  -60.55 | X-H torsion
[ 11005 11000 10999 10996 ] final  148.60 input  -57.11 | X-H torsion

> <Gold.Protein.ActiveResidues>
 VAL166  LYS551  ARG553  GLY616  TRP617  ASP618  TYR619  PRO620  LYS621  CYS622 
 ASP623  PHE694  ASN695  SER759  ASP760  ASP761  ALA762  ILE779  LEU786  VAL792 
 PHE793  MET794  SER795  GLU796  ALA797  LYS798  CYS799  TRP800  GLU811  SER814 

> <Gold.Protein.RotatedAtoms>
  150.6946  134.4095  159.5154 H   0  0  0  0  0  0  0  0  0  0  0  0  # atno 6907 bound_to 6896
  152.1856  134.8714  160.0531 H   0  0  0  0  0  0  0  0  0  0  0  0  # atno 6908 bound_to 6896
  151.9689  133.3684  159.4100 H   0  0  0  0  0  0  0  0  0  0  0  0  # atno 6909 bound_to 6896
  145.9853  140.7240  142.9343 H   0  0  0  0  0  0  0  0  0  0  0  0  # atno 7974 bound_to 7965
  154.4856  140.0876  156.7479 H   0  0  0  0  0  0  0  0  0  0  0  0  # atno 8008 bound_to 7997
  155.4359  140.3451  155.4266 H   0  0  0  0  0  0  0  0  0  0  0  0  # atno 8009 bound_to 7997
  156.1256  140.1486  156.9129 H   0  0  0  0  0  0  0  0  0  0  0  0  # atno 8010 bound_to 7997
  139.7491  144.6989  151.0459 H   0  0  0  0  0  0  0  0  0  0  0  0  # atno 10167 bound_to 10162
  157.6706  131.0827  150.5853 H   0  0  0  0  0  0  0  0  0  0  0  0  # atno 10718 bound_to 10713
  153.3810  135.3906  155.1857 H   0  0  0  0  0  0  0  0  0  0  0  0  # atno 10763 bound_to 10752
  154.8707  135.3725  154.4857 H   0  0  0  0  0  0  0  0  0  0  0  0  # atno 10764 bound_to 10752
  153.5334  135.7085  153.5733 H   0  0  0  0  0  0  0  0  0  0  0  0  # atno 10765 bound_to 10752
  140.0973  134.9004  157.1743 H   0  0  0  0  0  0  0  0  0  0  0  0  # atno 11005 bound_to 11000
  144.6873  140.2978  143.7268 LP  0  0  0  0  0  0  0  0  0  0  0  0  # atno 17320 bound_to 7965
  145.7710  139.1857  143.2212 LP  0  0  0  0  0  0  0  0  0  0  0  0  # atno 17321 bound_to 7965
  140.7795  143.4831  150.9992 LP  0  0  0  0  0  0  0  0  0  0  0  0  # atno 17342 bound_to 10162
  139.8518  143.7428  152.3177 LP  0  0  0  0  0  0  0  0  0  0  0  0  # atno 17343 bound_to 10162
  156.6154  130.4391  149.5843 LP  0  0  0  0  0  0  0  0  0  0  0  0  # atno 17370 bound_to 10713
  156.2398  130.6844  151.1544 LP  0  0  0  0  0  0  0  0  0  0  0  0  # atno 17371 bound_to 10713
  140.3268  134.2854  155.7235 LP  0  0  0  0  0  0  0  0  0  0  0  0  # atno 17394 bound_to 11000
  141.2096  133.7745  156.9988 LP  0  0  0  0  0  0  0  0  0  0  0  0  # atno 17395 bound_to 11000

$$$$
