AV-unprocessed.smi:2213|AV-procd|sdf|8957|dock5
  -GOLD-   2272012173D 1   1.00000     0.00000
 Structure written by MMmdl.
 38 39  0  0  0  0  0  0  0  0  1 V2000
  145.1965  139.4067  155.5692 C   0  0  0  0  0  0  0  0  0  0  0  0
  146.6673  139.5259  155.2114 C   0  0  0  0  0  0  0  0  0  0  0  0
  147.4536  138.4086  155.5075 N   0  0  0  0  0  0  0  0  0  0  0  0
  148.7181  138.4203  155.2379 C   0  0  0  0  0  0  0  0  0  0  0  0
  149.3356  139.5334  154.6448 N   0  0  0  0  0  0  0  0  0  0  0  0
  150.7809  139.4184  154.3896 C   0  0  0  0  0  0  0  0  0  0  0  0
  151.5963  139.3065  155.6977 C   0  0  1  0  0  0  0  0  0  0  0  0
  152.9416  138.9800  155.4132 O   0  0  0  0  0  0  0  0  0  0  0  0
  151.5957  140.6049  156.5216 C   0  0  0  0  0  0  0  0  0  0  0  0
  152.4317  140.4490  157.6617 O   0  0  0  0  0  0  0  0  0  0  0  0
  152.4623  141.4584  158.6007 C   0  0  0  0  0  0  0  0  0  0  0  0
  151.8740  142.7348  158.4095 C   0  0  0  0  0  0  0  0  0  0  0  0
  151.9483  143.7146  159.4187 C   0  0  0  0  0  0  0  0  0  0  0  0
  151.2278  145.2626  159.1714 Cl  0  0  0  0  0  0  0  0  0  0  0  0
  152.6088  143.4330  160.6288 C   0  0  0  0  0  0  0  0  0  0  0  0
  153.1953  142.1701  160.8285 C   0  0  0  0  0  0  0  0  0  0  0  0
  153.1225  141.1889  159.8204 C   0  0  0  0  0  0  0  0  0  0  0  0
  153.8526  139.6467  160.0896 Cl  0  0  0  0  0  0  0  0  0  0  0  0
  148.6450  140.6687  154.3351 C   0  0  0  0  0  0  0  0  0  0  0  0
  149.2018  141.6477  153.8341 O   0  0  0  0  0  0  0  0  0  0  0  0
  147.2061  140.6391  154.6431 C   0  0  0  0  0  0  0  0  0  0  0  0
  146.3999  141.8857  154.3000 C   0  0  0  0  0  0  0  0  0  0  0  0
  144.5759  139.5139  154.6793 H   0  0  0  0  0  0  0  0  0  0  0  0
  144.9152  140.1782  156.2865 H   0  0  0  0  0  0  0  0  0  0  0  0
  144.9737  138.4375  156.0175 H   0  0  0  0  0  0  0  0  0  0  0  0
  149.3769  137.5777  155.4554 H   0  0  0  0  0  0  0  0  0  0  0  0
  151.0154  138.5882  153.7197 H   0  0  0  0  0  0  0  0  0  0  0  0
  151.1038  140.3039  153.8388 H   0  0  0  0  0  0  0  0  0  0  0  0
  151.1946  138.5122  156.3282 H   0  0  0  0  0  0  0  0  0  0  0  0
  152.9513  138.2827  154.7753 H   0  0  0  0  0  0  0  0  0  0  0  0
  151.9882  141.4114  155.9003 H   0  0  0  0  0  0  0  0  0  0  0  0
  150.5783  140.8742  156.8116 H   0  0  0  0  0  0  0  0  0  0  0  0
  151.3586  142.9866  157.4954 H   0  0  0  0  0  0  0  0  0  0  0  0
  152.6663  144.1834  161.4036 H   0  0  0  0  0  0  0  0  0  0  0  0
  153.7024  141.9543  161.7574 H   0  0  0  0  0  0  0  0  0  0  0  0
  146.7819  142.7442  154.8531 H   0  0  0  0  0  0  0  0  0  0  0  0
  145.3406  141.7899  154.5326 H   0  0  0  0  0  0  0  0  0  0  0  0
  146.4816  142.1055  153.2349 H   0  0  0  0  0  0  0  0  0  0  0  0
  1  2  1  0  0  0  0
  1 23  1  0  0  0  0
  1 24  1  0  0  0  0
  1 25  1  0  0  0  0
  2 21  2  0  0  0  0
  2  3  1  0  0  0  0
  3  4  2  0  0  0  0
  4  5  1  0  0  0  0
  4 26  1  0  0  0  0
  5  6  1  0  0  0  0
  5 19  1  0  0  0  0
  6  7  1  0  0  0  0
  6 27  1  0  0  0  0
  6 28  1  0  0  0  0
  7  8  1  0  0  0  0
  7  9  1  0  0  0  0
  7 29  1  0  0  0  0
  8 30  1  0  0  0  0
  9 10  1  0  0  0  0
  9 31  1  0  0  0  0
  9 32  1  0  0  0  0
 10 11  1  0  0  0  0
 11 17  1  0  0  0  0
 11 12  2  0  0  0  0
 12 13  1  0  0  0  0
 12 33  1  0  0  0  0
 13 14  1  0  0  0  0
 13 15  2  0  0  0  0
 15 16  1  0  0  0  0
 15 34  1  0  0  0  0
 16 17  2  0  0  0  0
 16 35  1  0  0  0  0
 17 18  1  0  0  0  0
 19 20  2  0  0  0  0
 19 21  1  0  0  0  0
 21 22  1  0  0  0  0
 22 36  1  0  0  0  0
 22 37  1  0  0  0  0
 22 38  1  0  0  0  0
M  END
> <s_m_source_file>
AV-unprocessed.smi

> <i_m_source_file_index>
2213

> <i_lp_mmshare_version>
43012

> <i_f3d_flags>
0

> <s_epik_input>
W0NIM11jMW5bY0hdbihjKD1PKWMxW0NIM10pW0NIMl1bQ0BIXShbT0hdKVtDSDJdT2MyW2NIXWMoQ2wpW2NIXVtjSF1jMkNs

> <s_epik_cmdline>
J2VwaWtfcHl0aG9uJywgJy1waCcsICc3LjAnLCAnLXRuJywgJzgnLCAnLW1hJywgJzIwMCcsICctbWV0YWxfYmluZGluZycsICctaW1hZScsICc8aW5maWxlLm1hZT4nLCAnLW9tYWUnLCAnPG91dGZpbGUubWFlPic=

> <r_lp_tautomer_probability>
1

> <r_epik_Ionization_Penalty>
3.50205e-05

> <r_epik_Ionization_Penalty_Charging>
7.87908e-08

> <r_epik_Ionization_Penalty_Neutral>
3.49418e-05

> <r_epik_State_Penalty>
-0

> <r_epik_Charging_Adjusted_Penalty>
7.87908e-08

> <i_epik_Tot_Q>
0

> <i_epik_Tot_abs_Q>
0

> <r_epik_Metal_State_Penalty>
-0

> <b_epik_Metal_Only>
0

> <s_lp_Force_Field>
OPLS_2005

> <r_lp_Energy>
23.8454

> <b_lp_Chiralities_Consistent>
1

> <s_lp_Variant>
AV-unprocessed.smi:2213-2

> <Gold.Version>
5.8.1

> <Gold.Id.Protein>
6NUR|6NUR_protein|mol2

> <Gold.PLP.Fitness>
49.6055

> <Gold.PLP.PLP>
-45.0303

> <Gold.PLP.part.hbond>
-3.7362

> <Gold.PLP.part.metal>
0.0000

> <Gold.PLP.part.buried>
-2.8303

> <Gold.PLP.part.nonpolar>
-38.1712

> <Gold.PLP.part.repulsive>
0.2416

> <Gold.PLP.ligand.clash>
0.0000

> <Gold.PLP.ligand.torsion>
0.1906

> <Gold.PLP.Chemscore.Hbond>
1.6400

> <Gold.PLP.Chemscore.CHOScore>
0.0000

> <Gold.PLP.Chemscore.Metal>
0.0000

> <Gold.Chemscore.Hbonds>
donor molecule, donor type, donor heavy atom, donor atom, acceptor molecule, acceptor atom, score
      P1  H  7997  8008       L1     8  1.00
      P1  H  8011  8017       L1    20  0.66

> <Gold.PLP.Chemscore.Internal.Correction>
0.0364

> <Gold.Rescore>
     Score         DG    S(hbond)    S(metal)    S(lipo)     H(rot)  DE(clash)    DE(int)     intcor
     18.28     -19.02       1.69        0.00     119.65       2.38       0.52       0.22       ----

> <Gold.Chemscore.Fitness>
18.2791

> <Gold.Chemscore.DG>
-19.0244

> <Gold.Chemscore.ZeroCoef>
-5.4800

> <Gold.Chemscore.Hbond>
1.6900

> <Gold.Chemscore.Metal>
0.0000

> <Gold.Chemscore.Lipo>
119.6515

> <Gold.Chemscore.Internal_Hbond>
0.0000

> <Gold.Chemscore.DEClash>
0.5204

> <Gold.Chemscore.DEInternal>
0.2249

> <Gold.Chemscore.Rot>
2.3826

> <Gold.Chemscore.Internal.Correction>
   9.000000E+99

> <Gold.Chemscore.Hbonds>
donor molecule, donor type, donor heavy atom, donor atom, acceptor molecule, acceptor atom, score
      P1  H  7997  8008       L1     8  0.96
      P1  H  8011  8017       L1    20  0.66

> <Gold.Chemscore.Hbond.Weighted>
-5.6448

> <Gold.Chemscore.Metal.Weighted>
-0.0000

> <Gold.Chemscore.Lipo.Weighted>
-13.9992

> <Gold.Chemscore.Internal_Hbond.Weighted>
0.0000

> <Gold.Chemscore.DEClash.Weighted>
0.5204

> <Gold.Chemscore.DEInternal.Weighted>
0.2249

> <Gold.Chemscore.Rot.Weighted>
6.0996

> <Gold.Chemscore.Internal.Correction.Weighted>
   9.000000E+99

> <Gold.Protein.RotatedTorsions>
[ 6907 6896 6895 6894 ] final -100.37 input  -60.11 | X-H torsion
[ 7974 7965 7964 7962 ] final  103.57 input  175.53 | X-H torsion
[ 8008 7997 7996 7995 ] final  -27.03 input   59.86 | X-H torsion
[ 10167 10162 10161 10158 ] final   62.92 input  -65.29 | X-H torsion
[ 10718 10713 10712 10709 ] final  -84.63 input   66.30 | X-H torsion
[ 10763 10752 10751 10750 ] final   79.28 input  -60.55 | X-H torsion
[ 11005 11000 10999 10996 ] final  160.31 input  -57.11 | X-H torsion

> <Gold.Protein.ActiveResidues>
 VAL166  LYS551  ARG553  GLY616  TRP617  ASP618  TYR619  PRO620  LYS621  CYS622 
 ASP623  PHE694  ASN695  SER759  ASP760  ASP761  ALA762  ILE779  LEU786  VAL792 
 PHE793  MET794  SER795  GLU796  ALA797  LYS798  CYS799  TRP800  GLU811  SER814 

> <Gold.Protein.RotatedAtoms>
  150.7113  134.0898  159.3927 H   0  0  0  0  0  0  0  0  0  0  0  0  # atno 6907 bound_to 6896
  151.8883  135.0424  160.0505 H   0  0  0  0  0  0  0  0  0  0  0  0  # atno 6908 bound_to 6896
  152.2512  133.5181  159.5363 H   0  0  0  0  0  0  0  0  0  0  0  0  # atno 6909 bound_to 6896
  145.3442  139.2455  143.3593 H   0  0  0  0  0  0  0  0  0  0  0  0  # atno 7974 bound_to 7965
  154.4396  140.1883  156.0869 H   0  0  0  0  0  0  0  0  0  0  0  0  # atno 8008 bound_to 7997
  156.0396  140.3321  155.7203 H   0  0  0  0  0  0  0  0  0  0  0  0  # atno 8009 bound_to 7997
  155.5719  140.0613  157.2795 H   0  0  0  0  0  0  0  0  0  0  0  0  # atno 8010 bound_to 7997
  140.1386  144.4575  150.6823 H   0  0  0  0  0  0  0  0  0  0  0  0  # atno 10167 bound_to 10162
  156.0004  130.4704  150.4440 H   0  0  0  0  0  0  0  0  0  0  0  0  # atno 10718 bound_to 10713
  153.0940  135.4845  154.8744 H   0  0  0  0  0  0  0  0  0  0  0  0  # atno 10763 bound_to 10752
  154.7303  135.3058  154.8905 H   0  0  0  0  0  0  0  0  0  0  0  0  # atno 10764 bound_to 10752
  153.9542  135.6820  153.4797 H   0  0  0  0  0  0  0  0  0  0  0  0  # atno 10765 bound_to 10752
  140.2047  134.8312  157.3056 H   0  0  0  0  0  0  0  0  0  0  0  0  # atno 11005 bound_to 11000
  146.2995  140.4046  142.8709 LP  0  0  0  0  0  0  0  0  0  0  0  0  # atno 17320 bound_to 7965
  144.8767  140.7345  143.6013 LP  0  0  0  0  0  0  0  0  0  0  0  0  # atno 17321 bound_to 7965
  140.6774  143.2311  151.5473 LP  0  0  0  0  0  0  0  0  0  0  0  0  # atno 17342 bound_to 10162
  139.5483  144.2462  152.1483 LP  0  0  0  0  0  0  0  0  0  0  0  0  # atno 17343 bound_to 10162
  157.2478  131.0540  151.2397 LP  0  0  0  0  0  0  0  0  0  0  0  0  # atno 17370 bound_to 10713
  157.3557  130.7105  149.6469 LP  0  0  0  0  0  0  0  0  0  0  0  0  # atno 17371 bound_to 10713
  140.2016  134.4248  155.7660 LP  0  0  0  0  0  0  0  0  0  0  0  0  # atno 17394 bound_to 11000
  141.2227  133.7074  156.8192 LP  0  0  0  0  0  0  0  0  0  0  0  0  # atno 17395 bound_to 11000

$$$$
