AV-unprocessed.smi:1252|AV-procd|sdf|5264|dock8
  -GOLD-   22720 4373D 1   1.00000     0.00000
 Structure written by MMmdl.
 43 44  0  0  0  0  0  0  0  0  1 V2000
  153.3614  138.6174  154.7128 C   0  0  0  0  0  0  0  0  0  0  0  0
  152.1660  138.5769  155.6812 C   0  0  2  0  0  0  0  0  0  0  0  0
  151.0549  137.6353  155.1941 C   0  0  0  0  0  0  0  0  0  0  0  0
  151.2934  136.4459  154.9801 O   0  0  0  0  0  0  0  0  0  0  0  0
  149.8428  138.1864  155.0259 N   0  0  0  0  0  0  0  0  0  0  0  0
  148.6334  137.4864  154.5947 C   0  0  0  0  0  0  0  0  0  0  0  0
  147.3623  137.9170  155.3870 C   0  0  0  0  0  0  0  0  0  0  0  0
  147.3412  139.4645  155.4055 C   0  0  0  0  0  0  0  0  0  0  0  0
  146.1395  137.4591  154.5520 C   0  0  0  0  0  0  0  0  0  0  0  0
  147.3329  137.3169  156.7509 N   0  0  0  0  0  0  0  0  0  0  0  0
  147.2507  135.8517  156.7796 C   0  0  0  0  0  0  0  0  0  0  0  0
  147.0984  135.3090  158.2108 C   0  0  0  0  0  0  0  0  0  0  0  0
  148.1823  135.7622  159.0126 O   0  0  0  0  0  0  0  0  0  0  0  0
  148.2636  137.1814  159.0613 C   0  0  0  0  0  0  0  0  0  0  0  0
  148.4229  137.7415  157.6375 C   0  0  0  0  0  0  0  0  0  0  0  0
  151.6369  139.9139  155.9125 N   0  0  0  0  0  0  0  0  0  0  0  0
  151.5991  140.6655  157.0172 C   0  0  0  0  0  0  0  0  0  0  0  0
  151.0134  141.8424  156.8468 N   0  0  0  0  0  0  0  0  0  0  0  0
  150.6854  141.7435  155.5245 C   0  0  0  0  0  0  0  0  0  0  0  0
  151.0323  140.6079  154.9188 N   0  0  0  0  0  0  0  0  0  0  0  0
  153.7537  137.6166  154.5278 H   0  0  0  0  0  0  0  0  0  0  0  0
  154.1735  139.2162  155.1260 H   0  0  0  0  0  0  0  0  0  0  0  0
  153.0895  139.0516  153.7498 H   0  0  0  0  0  0  0  0  0  0  0  0
  152.5323  138.1902  156.6346 H   0  0  0  0  0  0  0  0  0  0  0  0
  149.7425  139.1699  155.2316 H   0  0  0  0  0  0  0  0  0  0  0  0
  148.5077  137.6757  153.5290 H   0  0  0  0  0  0  0  0  0  0  0  0
  148.7763  136.4061  154.6608 H   0  0  0  0  0  0  0  0  0  0  0  0
  147.3521  139.8672  154.3918 H   0  0  0  0  0  0  0  0  0  0  0  0
  148.2076  139.8821  155.9180 H   0  0  0  0  0  0  0  0  0  0  0  0
  146.4479  139.8591  155.8891 H   0  0  0  0  0  0  0  0  0  0  0  0
  146.2451  137.7360  153.5023 H   0  0  0  0  0  0  0  0  0  0  0  0
  145.2112  137.9170  154.8934 H   0  0  0  0  0  0  0  0  0  0  0  0
  146.0059  136.3775  154.5916 H   0  0  0  0  0  0  0  0  0  0  0  0
  146.4009  135.4972  156.1992 H   0  0  0  0  0  0  0  0  0  0  0  0
  148.1440  135.4151  156.3327 H   0  0  0  0  0  0  0  0  0  0  0  0
  146.1520  135.6318  158.6478 H   0  0  0  0  0  0  0  0  0  0  0  0
  147.0927  134.2190  158.2033 H   0  0  0  0  0  0  0  0  0  0  0  0
  147.3709  137.5886  159.5386 H   0  0  0  0  0  0  0  0  0  0  0  0
  149.1153  137.4687  159.6782 H   0  0  0  0  0  0  0  0  0  0  0  0
  149.3832  137.4154  157.2381 H   0  0  0  0  0  0  0  0  0  0  0  0
  148.4629  138.8265  157.7131 H   0  0  0  0  0  0  0  0  0  0  0  0
  152.0068  140.3437  157.9645 H   0  0  0  0  0  0  0  0  0  0  0  0
  150.1731  142.5318  154.9926 H   0  0  0  0  0  0  0  0  0  0  0  0
  1  2  1  0  0  0  0
  1 21  1  0  0  0  0
  1 22  1  0  0  0  0
  1 23  1  0  0  0  0
  2  3  1  0  0  0  0
  2 16  1  0  0  0  0
  2 24  1  0  0  0  0
  3  4  2  0  0  0  0
  3  5  1  0  0  0  0
  5  6  1  0  0  0  0
  5 25  1  0  0  0  0
  6  7  1  0  0  0  0
  6 26  1  0  0  0  0
  6 27  1  0  0  0  0
  7  8  1  0  0  0  0
  7  9  1  0  0  0  0
  7 10  1  0  0  0  0
  8 28  1  0  0  0  0
  8 29  1  0  0  0  0
  8 30  1  0  0  0  0
  9 31  1  0  0  0  0
  9 32  1  0  0  0  0
  9 33  1  0  0  0  0
 10 15  1  0  0  0  0
 10 11  1  0  0  0  0
 11 12  1  0  0  0  0
 11 34  1  0  0  0  0
 11 35  1  0  0  0  0
 12 13  1  0  0  0  0
 12 36  1  0  0  0  0
 12 37  1  0  0  0  0
 13 14  1  0  0  0  0
 14 15  1  0  0  0  0
 14 38  1  0  0  0  0
 14 39  1  0  0  0  0
 15 40  1  0  0  0  0
 15 41  1  0  0  0  0
 16 20  1  0  0  0  0
 16 17  1  0  0  0  0
 17 18  2  0  0  0  0
 17 42  1  0  0  0  0
 18 19  1  0  0  0  0
 19 20  2  0  0  0  0
 19 43  1  0  0  0  0
M  END
> <s_m_source_file>
AV-unprocessed.smi

> <i_m_source_file_index>
1252

> <i_lp_mmshare_version>
43012

> <i_f3d_flags>
0

> <s_epik_input>
bjFbY0hdbltjSF1uMVtDQEhdKFtDSDNdKUMoPU8pW05IXVtDSDJdQyhbQ0gzXSkoW0NIM10pTjJbQ0gyXVtDSDJdT1tDSDJdW0NIMl0y

> <s_epik_cmdline>
J2VwaWtfcHl0aG9uJywgJy1waCcsICc3LjAnLCAnLXRuJywgJzgnLCAnLW1hJywgJzIwMCcsICctbWV0YWxfYmluZGluZycsICctaW1hZScsICc8aW5maWxlLm1hZT4nLCAnLW9tYWUnLCAnPG91dGZpbGUubWFlPic=

> <r_lp_tautomer_probability>
1

> <r_epik_Ionization_Penalty>
0.211373

> <r_epik_Ionization_Penalty_Charging>
0

> <r_epik_Ionization_Penalty_Neutral>
0.211373

> <r_epik_State_Penalty>
0.201459

> <r_epik_Charging_Adjusted_Penalty>
0.201459

> <i_epik_Tot_Q>
0

> <i_epik_Tot_abs_Q>
0

> <r_epik_Metal_State_Penalty>
0.201458

> <b_epik_Metal_Only>
0

> <s_lp_Force_Field>
OPLS_2005

> <r_lp_Energy>
48.0219

> <b_lp_Chiralities_Consistent>
1

> <s_lp_Variant>
AV-unprocessed.smi:1252-1

> <Gold.Version>
5.8.1

> <Gold.Id.Protein>
6NUR|6NUR_protein|mol2

> <Gold.PLP.Fitness>
34.5576

> <Gold.PLP.PLP>
-23.2607

> <Gold.PLP.part.hbond>
-3.0000

> <Gold.PLP.part.metal>
0.0000

> <Gold.PLP.part.buried>
-4.7117

> <Gold.PLP.part.nonpolar>
-15.0940

> <Gold.PLP.part.repulsive>
0.2622

> <Gold.PLP.ligand.clash>
0.0000

> <Gold.PLP.ligand.torsion>
0.3657

> <Gold.PLP.Chemscore.Hbond>
2.9760

> <Gold.PLP.Chemscore.CHOScore>
0.9902

> <Gold.PLP.Chemscore.Metal>
0.0000

> <Gold.Chemscore.Hbonds>
donor molecule, donor type, donor heavy atom, donor atom, acceptor molecule, acceptor atom, score
      P1  H  7989  7998       L1    20  0.96
      P1  H 10752 10765       L1     4  1.00
      L1  C    19    43       P1  8028  0.79

> <Gold.PLP.Chemscore.Internal.Correction>
0.1297

> <Gold.Rescore>
     Score         DG    S(hbond)    S(metal)    S(lipo)     H(rot)  DE(clash)    DE(int)     intcor
     10.18     -12.02       2.84        0.00      29.76       2.52       0.03       1.81       ----

> <Gold.Chemscore.Fitness>
10.1788

> <Gold.Chemscore.DG>
-12.0184

> <Gold.Chemscore.ZeroCoef>
-5.4800

> <Gold.Chemscore.Hbond>
2.8429

> <Gold.Chemscore.Metal>
0.0000

> <Gold.Chemscore.Lipo>
29.7618

> <Gold.Chemscore.Internal_Hbond>
0.0000

> <Gold.Chemscore.DEClash>
0.0267

> <Gold.Chemscore.DEInternal>
1.8129

> <Gold.Chemscore.Rot>
2.5153

> <Gold.Chemscore.Internal.Correction>
   9.000000E+99

> <Gold.Chemscore.Hbonds>
donor molecule, donor type, donor heavy atom, donor atom, acceptor molecule, acceptor atom, score
      P1  H  7989  7998       L1    20  0.69
      P1  H 10752 10765       L1     4  0.99

> <Gold.Chemscore.Hbond.Weighted>
-9.4954

> <Gold.Chemscore.Metal.Weighted>
-0.0000

> <Gold.Chemscore.Lipo.Weighted>
-3.4821

> <Gold.Chemscore.Internal_Hbond.Weighted>
0.0000

> <Gold.Chemscore.DEClash.Weighted>
0.0267

> <Gold.Chemscore.DEInternal.Weighted>
1.8129

> <Gold.Chemscore.Rot.Weighted>
6.4392

> <Gold.Chemscore.Internal.Correction.Weighted>
   9.000000E+99

> <Gold.Protein.RotatedTorsions>
[ 6907 6896 6895 6894 ] final  -87.06 input  -60.11 | X-H torsion
[ 7974 7965 7964 7962 ] final  101.12 input  175.53 | X-H torsion
[ 8008 7997 7996 7995 ] final  126.97 input   59.86 | X-H torsion
[ 10167 10162 10161 10158 ] final -168.23 input  -65.29 | X-H torsion
[ 10718 10713 10712 10709 ] final   81.46 input   66.30 | X-H torsion
[ 10763 10752 10751 10750 ] final  164.41 input  -60.55 | X-H torsion
[ 11005 11000 10999 10996 ] final   66.04 input  -57.11 | X-H torsion

> <Gold.Protein.ActiveResidues>
 VAL166  LYS551  ARG553  GLY616  TRP617  ASP618  TYR619  PRO620  LYS621  CYS622 
 ASP623  PHE694  ASN695  SER759  ASP760  ASP761  ALA762  ILE779  LEU786  VAL792 
 PHE793  MET794  SER795  GLU796  ALA797  LYS798  CYS799  TRP800  GLU811  SER814 

> <Gold.Protein.RotatedAtoms>
  150.6866  134.2955  159.4684 H   0  0  0  0  0  0  0  0  0  0  0  0  # atno 6907 bound_to 6896
  152.0856  134.9439  160.0582 H   0  0  0  0  0  0  0  0  0  0  0  0  # atno 6908 bound_to 6896
  152.0775  133.4102  159.4523 H   0  0  0  0  0  0  0  0  0  0  0  0  # atno 6909 bound_to 6896
  145.3766  139.2388  143.3426 H   0  0  0  0  0  0  0  0  0  0  0  0  # atno 7974 bound_to 7965
  156.2878  140.2680  156.2197 H   0  0  0  0  0  0  0  0  0  0  0  0  # atno 8008 bound_to 7997
  155.0181  140.0387  157.2444 H   0  0  0  0  0  0  0  0  0  0  0  0  # atno 8009 bound_to 7997
  154.7459  140.2734  155.6338 H   0  0  0  0  0  0  0  0  0  0  0  0  # atno 8010 bound_to 7997
  139.5998  144.1034  152.1730 H   0  0  0  0  0  0  0  0  0  0  0  0  # atno 10167 bound_to 10162
  157.6833  131.0005  150.2230 H   0  0  0  0  0  0  0  0  0  0  0  0  # atno 10718 bound_to 10713
  154.3085  135.2758  155.2577 H   0  0  0  0  0  0  0  0  0  0  0  0  # atno 10763 bound_to 10752
  154.4983  135.5815  153.6514 H   0  0  0  0  0  0  0  0  0  0  0  0  # atno 10764 bound_to 10752
  152.9891  135.6151  154.3261 H   0  0  0  0  0  0  0  0  0  0  0  0  # atno 10765 bound_to 10752
  139.9856  134.6673  156.0181 H   0  0  0  0  0  0  0  0  0  0  0  0  # atno 11005 bound_to 11000
  146.2861  140.4426  142.8757 LP  0  0  0  0  0  0  0  0  0  0  0  0  # atno 17320 bound_to 7965
  144.8538  140.7040  143.6151 LP  0  0  0  0  0  0  0  0  0  0  0  0  # atno 17321 bound_to 7965
  140.0628  144.5843  150.7250 LP  0  0  0  0  0  0  0  0  0  0  0  0  # atno 17342 bound_to 10162
  140.7241  143.2618  151.4181 LP  0  0  0  0  0  0  0  0  0  0  0  0  # atno 17343 bound_to 10162
  156.2878  130.3741  149.7872 LP  0  0  0  0  0  0  0  0  0  0  0  0  # atno 17370 bound_to 10713
  156.5540  130.8354  151.3308 LP  0  0  0  0  0  0  0  0  0  0  0  0  # atno 17371 bound_to 10713
  141.1522  133.6547  156.4048 LP  0  0  0  0  0  0  0  0  0  0  0  0  # atno 17394 bound_to 11000
  140.5008  134.6487  157.5248 LP  0  0  0  0  0  0  0  0  0  0  0  0  # atno 17395 bound_to 11000

$$$$
