AV-unprocessed.smi:3251|AV-procd|sdf|12438|dock8
  -GOLD-   2272018333D 1   1.00000     0.00000
 Structure written by MMmdl.
 40 41  0  0  0  0  0  0  0  0  1 V2000
  147.2106  139.9383  153.4000 C   0  0  0  0  0  0  0  0  0  0  0  0
  148.5128  140.1458  154.1186 C   0  0  0  0  0  0  0  0  0  0  0  0
  149.6012  139.2352  154.2395 C   0  0  0  0  0  0  0  0  0  0  0  0
  150.6074  139.7267  154.9436 N   0  0  0  0  0  0  0  0  0  0  0  0
  150.1996  140.9644  155.2955 N   0  0  0  0  0  0  0  0  0  0  0  0
  151.0683  141.8110  156.0901 C   0  0  0  0  0  0  0  0  0  0  0  0
  150.4440  142.1438  157.4530 C   0  0  0  0  0  0  0  0  0  0  0  0
  150.5560  143.5779  157.6964 N   0  0  0  0  0  0  0  0  0  0  0  0
  151.9066  144.0013  158.1116 C   0  0  1  0  0  0  0  0  0  0  0  0
  152.3571  145.1919  157.2511 C   0  0  0  0  0  0  0  0  0  0  0  0
  152.0054  144.3719  159.6094 C   0  0  0  0  0  0  0  0  0  0  0  0
  151.4444  145.3947  160.0065 O   0  0  0  0  0  0  0  0  0  0  0  0
  152.7032  143.5745  160.4476 N   0  0  0  0  0  0  0  0  0  0  0  0
  152.8289  143.8386  161.8803 C   0  0  0  0  0  0  0  0  0  0  0  0
  153.4872  142.5954  162.4782 C   0  0  0  0  0  0  0  0  0  0  0  0
  154.2677  141.9964  161.3178 C   0  0  0  0  0  0  0  0  0  0  0  0
  153.4446  142.3670  160.0839 C   0  0  0  0  0  0  0  0  0  0  0  0
  148.9394  141.2435  154.8113 C   0  0  0  0  0  0  0  0  0  0  0  0
  147.2137  139.0203  152.8117 H   0  0  0  0  0  0  0  0  0  0  0  0
  146.9937  140.7577  152.7145 H   0  0  0  0  0  0  0  0  0  0  0  0
  146.3748  139.8706  154.0962 H   0  0  0  0  0  0  0  0  0  0  0  0
  149.6887  138.2361  153.8385 H   0  0  0  0  0  0  0  0  0  0  0  0
  152.0225  141.2986  156.2215 H   0  0  0  0  0  0  0  0  0  0  0  0
  151.2730  142.7238  155.5280 H   0  0  0  0  0  0  0  0  0  0  0  0
  149.4011  141.8252  157.4662 H   0  0  0  0  0  0  0  0  0  0  0  0
  150.9631  141.5972  158.2417 H   0  0  0  0  0  0  0  0  0  0  0  0
  150.2519  144.0789  156.8742 H   0  0  0  0  0  0  0  0  0  0  0  0
  152.5746  143.1696  157.8903 H   0  0  0  0  0  0  0  0  0  0  0  0
  153.3704  145.5060  157.5047 H   0  0  0  0  0  0  0  0  0  0  0  0
  151.7000  146.0527  157.3834 H   0  0  0  0  0  0  0  0  0  0  0  0
  152.3538  144.9328  156.1920 H   0  0  0  0  0  0  0  0  0  0  0  0
  153.4630  144.7146  162.0248 H   0  0  0  0  0  0  0  0  0  0  0  0
  151.8630  144.0379  162.3472 H   0  0  0  0  0  0  0  0  0  0  0  0
  154.1157  142.8222  163.3399 H   0  0  0  0  0  0  0  0  0  0  0  0
  152.7175  141.8932  162.8011 H   0  0  0  0  0  0  0  0  0  0  0  0
  155.2496  142.4678  161.2573 H   0  0  0  0  0  0  0  0  0  0  0  0
  154.4187  140.9213  161.4186 H   0  0  0  0  0  0  0  0  0  0  0  0
  152.7358  141.5718  159.8481 H   0  0  0  0  0  0  0  0  0  0  0  0
  154.0895  142.5214  159.2179 H   0  0  0  0  0  0  0  0  0  0  0  0
  148.4550  142.1908  154.9975 H   0  0  0  0  0  0  0  0  0  0  0  0
  1  2  1  0  0  0  0
  1 19  1  0  0  0  0
  1 20  1  0  0  0  0
  1 21  1  0  0  0  0
  2 18  2  0  0  0  0
  2  3  1  0  0  0  0
  3  4  2  0  0  0  0
  3 22  1  0  0  0  0
  4  5  1  0  0  0  0
  5  6  1  0  0  0  0
  5 18  1  0  0  0  0
  6  7  1  0  0  0  0
  6 23  1  0  0  0  0
  6 24  1  0  0  0  0
  7  8  1  0  0  0  0
  7 25  1  0  0  0  0
  7 26  1  0  0  0  0
  8  9  1  0  0  0  0
  8 27  1  0  0  0  0
  9 10  1  0  0  0  0
  9 11  1  0  0  0  0
  9 28  1  0  0  0  0
 10 29  1  0  0  0  0
 10 30  1  0  0  0  0
 10 31  1  0  0  0  0
 11 12  2  0  0  0  0
 11 13  1  0  0  0  0
 13 17  1  0  0  0  0
 13 14  1  0  0  0  0
 14 15  1  0  0  0  0
 14 32  1  0  0  0  0
 14 33  1  0  0  0  0
 15 16  1  0  0  0  0
 15 34  1  0  0  0  0
 15 35  1  0  0  0  0
 16 17  1  0  0  0  0
 16 36  1  0  0  0  0
 16 37  1  0  0  0  0
 17 38  1  0  0  0  0
 17 39  1  0  0  0  0
 18 40  1  0  0  0  0
M  END
> <s_m_source_file>
AV-unprocessed.smi

> <i_m_source_file_index>
3251

> <i_lp_mmshare_version>
43012

> <i_f3d_flags>
0

> <s_epik_input>
W0NIM11jMVtjSF1ubihbY0hdMSlbQ0gyXVtDSDJdW05IXVtDQEhdKFtDSDNdKUMoPU8pTjJbQ0gyXVtDSDJdW0NIMl1bQ0gyXTI=

> <s_epik_cmdline>
J2VwaWtfcHl0aG9uJywgJy1waCcsICc3LjAnLCAnLXRuJywgJzgnLCAnLW1hJywgJzIwMCcsICctbWV0YWxfYmluZGluZycsICctaW1hZScsICc8aW5maWxlLm1hZT4nLCAnLW9tYWUnLCAnPG91dGZpbGUubWFlPic=

> <r_lp_tautomer_probability>
1

> <r_epik_Ionization_Penalty>
0.734676

> <r_epik_Ionization_Penalty_Charging>
0

> <r_epik_Ionization_Penalty_Neutral>
0.734676

> <r_epik_State_Penalty>
0.75825

> <r_epik_Charging_Adjusted_Penalty>
0.75825

> <i_epik_Tot_Q>
0

> <i_epik_Tot_abs_Q>
0

> <r_epik_Metal_State_Penalty>
0.756914

> <b_epik_Metal_Only>
0

> <s_lp_Force_Field>
OPLS_2005

> <r_lp_Energy>
31.4715

> <b_lp_Chiralities_Consistent>
1

> <s_lp_Variant>
AV-unprocessed.smi:3251-4

> <Gold.Version>
5.8.1

> <Gold.Id.Protein>
6NUR|6NUR_protein|mol2

> <Gold.PLP.Fitness>
52.9659

> <Gold.PLP.PLP>
-48.4410

> <Gold.PLP.part.hbond>
-1.5517

> <Gold.PLP.part.metal>
0.0000

> <Gold.PLP.part.buried>
-3.2325

> <Gold.PLP.part.nonpolar>
-43.3157

> <Gold.PLP.part.repulsive>
0.2364

> <Gold.PLP.ligand.clash>
0.0000

> <Gold.PLP.ligand.torsion>
1.2262

> <Gold.PLP.Chemscore.Hbond>
1.0245

> <Gold.PLP.Chemscore.CHOScore>
1.2906

> <Gold.PLP.Chemscore.Metal>
0.0000

> <Gold.Chemscore.Hbonds>
donor molecule, donor type, donor heavy atom, donor atom, acceptor molecule, acceptor atom, score
      L1  H     8    27       P1  8028  1.00
      L1  C     3    22       P1  7948  0.13
      L1  C    18    40       P1  8028  0.74

> <Gold.PLP.Chemscore.Internal.Correction>
0.0320

> <Gold.Rescore>
     Score         DG    S(hbond)    S(metal)    S(lipo)     H(rot)  DE(clash)    DE(int)     intcor
     14.85     -17.43       0.99        0.00     111.03       1.70       1.40       1.18       ----

> <Gold.Chemscore.Fitness>
14.8529

> <Gold.Chemscore.DG>
-17.4289

> <Gold.Chemscore.ZeroCoef>
-5.4800

> <Gold.Chemscore.Hbond>
0.9875

> <Gold.Chemscore.Metal>
0.0000

> <Gold.Chemscore.Lipo>
111.0284

> <Gold.Chemscore.Internal_Hbond>
0.0000

> <Gold.Chemscore.DEClash>
1.3986

> <Gold.Chemscore.DEInternal>
1.1775

> <Gold.Chemscore.Rot>
1.6951

> <Gold.Chemscore.Internal.Correction>
   9.000000E+99

> <Gold.Chemscore.Hbonds>
donor molecule, donor type, donor heavy atom, donor atom, acceptor molecule, acceptor atom, score
      L1  H     8    27       P1  8028  0.94

> <Gold.Chemscore.Hbond.Weighted>
-3.2981

> <Gold.Chemscore.Metal.Weighted>
-0.0000

> <Gold.Chemscore.Lipo.Weighted>
-12.9903

> <Gold.Chemscore.Internal_Hbond.Weighted>
0.0000

> <Gold.Chemscore.DEClash.Weighted>
1.3986

> <Gold.Chemscore.DEInternal.Weighted>
1.1775

> <Gold.Chemscore.Rot.Weighted>
4.3395

> <Gold.Chemscore.Internal.Correction.Weighted>
   9.000000E+99

> <Gold.Protein.RotatedTorsions>
[ 6907 6896 6895 6894 ] final  -35.53 input  -60.11 | X-H torsion
[ 7974 7965 7964 7962 ] final  -35.17 input  175.53 | X-H torsion
[ 8008 7997 7996 7995 ] final  146.19 input   59.86 | X-H torsion
[ 10167 10162 10161 10158 ] final  -61.76 input  -65.29 | X-H torsion
[ 10718 10713 10712 10709 ] final   17.43 input   66.30 | X-H torsion
[ 10763 10752 10751 10750 ] final -154.30 input  -60.55 | X-H torsion
[ 11005 11000 10999 10996 ] final -176.95 input  -57.11 | X-H torsion

> <Gold.Protein.ActiveResidues>
 VAL166  LYS551  ARG553  GLY616  TRP617  ASP618  TYR619  PRO620  LYS621  CYS622 
 ASP623  PHE694  ASN695  SER759  ASP760  ASP761  ALA762  ILE779  LEU786  VAL792 
 PHE793  MET794  SER795  GLU796  ALA797  LYS798  CYS799  TRP800  GLU811  SER814 

> <Gold.Protein.RotatedAtoms>
  151.0386  134.9591  159.8149 H   0  0  0  0  0  0  0  0  0  0  0  0  # atno 6907 bound_to 6896
  152.5360  134.2687  159.8973 H   0  0  0  0  0  0  0  0  0  0  0  0  # atno 6908 bound_to 6896
  151.2699  133.4218  159.2654 H   0  0  0  0  0  0  0  0  0  0  0  0  # atno 6909 bound_to 6896
  146.0769  140.6126  142.8926 H   0  0  0  0  0  0  0  0  0  0  0  0  # atno 7974 bound_to 7965
  156.2862  140.2189  156.5336 H   0  0  0  0  0  0  0  0  0  0  0  0  # atno 8008 bound_to 7997
  154.7428  140.0486  157.0848 H   0  0  0  0  0  0  0  0  0  0  0  0  # atno 8009 bound_to 7997
  155.0209  140.3124  155.4797 H   0  0  0  0  0  0  0  0  0  0  0  0  # atno 8010 bound_to 7997
  140.5984  143.2356  151.5983 H   0  0  0  0  0  0  0  0  0  0  0  0  # atno 10167 bound_to 10162
  157.0821  130.6392  149.5829 H   0  0  0  0  0  0  0  0  0  0  0  0  # atno 10718 bound_to 10713
  154.7868  135.3193  154.7867 H   0  0  0  0  0  0  0  0  0  0  0  0  # atno 10763 bound_to 10752
  153.8565  135.6857  153.4791 H   0  0  0  0  0  0  0  0  0  0  0  0  # atno 10764 bound_to 10752
  153.1523  135.4694  154.9594 H   0  0  0  0  0  0  0  0  0  0  0  0  # atno 10765 bound_to 10752
  140.4464  134.6384  157.4781 H   0  0  0  0  0  0  0  0  0  0  0  0  # atno 11005 bound_to 11000
  144.7267  140.4548  143.6967 LP  0  0  0  0  0  0  0  0  0  0  0  0  # atno 17320 bound_to 7965
  145.6289  139.1534  143.2980 LP  0  0  0  0  0  0  0  0  0  0  0  0  # atno 17321 bound_to 7965
  139.5274  144.3017  152.1067 LP  0  0  0  0  0  0  0  0  0  0  0  0  # atno 17342 bound_to 10162
  140.2194  144.4482  150.6349 LP  0  0  0  0  0  0  0  0  0  0  0  0  # atno 17343 bound_to 10162
  155.9921  130.4977  150.7325 LP  0  0  0  0  0  0  0  0  0  0  0  0  # atno 17370 bound_to 10713
  157.4792  131.0900  151.0556 LP  0  0  0  0  0  0  0  0  0  0  0  0  # atno 17371 bound_to 10713
  140.0036  134.6799  155.9491 LP  0  0  0  0  0  0  0  0  0  0  0  0  # atno 17394 bound_to 11000
  141.1683  133.6537  156.4560 LP  0  0  0  0  0  0  0  0  0  0  0  0  # atno 17395 bound_to 11000

$$$$
