AV-unprocessed.smi:3315|AV-procd|sdf|12750|dock10
  -GOLD-   2272019 93D 1   1.00000     0.00000
 Structure written by MMmdl.
 37 38  0  0  0  0  0  0  0  0  1 V2000
  141.6395  134.5808  153.1409 C   0  0  0  0  0  0  0  0  0  0  0  0
  142.9604  134.5815  153.6686 O   0  0  0  0  0  0  0  0  0  0  0  0
  144.0446  134.5194  152.7312 C   0  0  2  0  0  0  0  0  0  0  0  0
  143.7502  133.4862  151.6365 C   0  0  0  0  0  0  0  0  0  0  0  0
  145.3924  134.4695  153.4773 C   0  0  0  0  0  0  0  0  0  0  0  0
  145.3004  135.9902  153.5877 C   0  0  1  0  0  0  0  0  0  0  0  0
  146.5944  136.6476  153.4383 N   0  0  0  0  0  0  0  0  0  0  0  0
  146.9490  137.7689  154.0806 C   0  0  0  0  0  0  0  0  0  0  0  0
  146.2085  138.3623  154.8647 O   0  0  0  0  0  0  0  0  0  0  0  0
  148.1953  138.1460  153.7490 N   0  0  0  0  0  0  0  0  0  0  0  0
  148.9347  139.2600  154.2237 C   0  0  0  0  0  0  0  0  0  0  0  0
  148.4371  140.5810  154.4230 C   0  0  0  0  0  0  0  0  0  0  0  0
  149.5333  141.2490  154.8888 C   0  0  0  0  0  0  0  0  0  0  0  0
  150.6050  140.4170  154.9694 O   0  0  0  0  0  0  0  0  0  0  0  0
  150.2116  139.1432  154.5421 N   0  0  0  0  0  0  0  0  0  0  0  0
  144.4189  135.9791  152.3124 C   0  0  0  0  0  0  0  0  0  0  0  0
  145.1498  136.1282  150.9643 C   0  0  0  0  0  0  0  0  0  0  0  0
  143.2730  136.9963  152.2791 C   0  0  0  0  0  0  0  0  0  0  0  0
  140.9302  134.4657  153.9602 H   0  0  0  0  0  0  0  0  0  0  0  0
  141.4707  133.7629  152.4414 H   0  0  0  0  0  0  0  0  0  0  0  0
  141.4054  135.5219  152.6438 H   0  0  0  0  0  0  0  0  0  0  0  0
  144.5127  133.4918  150.8586 H   0  0  0  0  0  0  0  0  0  0  0  0
  142.7915  133.6822  151.1560 H   0  0  0  0  0  0  0  0  0  0  0  0
  143.7271  132.4699  152.0290 H   0  0  0  0  0  0  0  0  0  0  0  0
  145.3935  133.9515  154.4355 H   0  0  0  0  0  0  0  0  0  0  0  0
  146.2137  134.1251  152.8464 H   0  0  0  0  0  0  0  0  0  0  0  0
  144.7514  136.2945  154.4820 H   0  0  0  0  0  0  0  0  0  0  0  0
  147.2586  136.2201  152.8099 H   0  0  0  0  0  0  0  0  0  0  0  0
  148.6751  137.5656  153.0770 H   0  0  0  0  0  0  0  0  0  0  0  0
  147.4501  140.9862  154.2605 H   0  0  0  0  0  0  0  0  0  0  0  0
  149.7035  142.2708  155.1945 H   0  0  0  0  0  0  0  0  0  0  0  0
  145.5311  137.1401  150.8223 H   0  0  0  0  0  0  0  0  0  0  0  0
  144.4873  135.9142  150.1250 H   0  0  0  0  0  0  0  0  0  0  0  0
  146.0021  135.4540  150.8803 H   0  0  0  0  0  0  0  0  0  0  0  0
  143.6305  137.9973  152.0352 H   0  0  0  0  0  0  0  0  0  0  0  0
  142.7676  137.0731  153.2418 H   0  0  0  0  0  0  0  0  0  0  0  0
  142.5209  136.7239  151.5383 H   0  0  0  0  0  0  0  0  0  0  0  0
  1  2  1  0  0  0  0
  1 19  1  0  0  0  0
  1 20  1  0  0  0  0
  1 21  1  0  0  0  0
  2  3  1  0  0  0  0
  3 16  1  0  0  0  0
  3  4  1  0  0  0  0
  3  5  1  0  0  0  0
  4 22  1  0  0  0  0
  4 23  1  0  0  0  0
  4 24  1  0  0  0  0
  5  6  1  0  0  0  0
  5 25  1  0  0  0  0
  5 26  1  0  0  0  0
  6  7  1  0  0  0  0
  6 16  1  0  0  0  0
  6 27  1  0  0  0  0
  7  8  1  0  0  0  0
  7 28  1  0  0  0  0
  8  9  2  0  0  0  0
  8 10  1  0  0  0  0
 10 11  1  0  0  0  0
 10 29  1  0  0  0  0
 11 15  2  0  0  0  0
 11 12  1  0  0  0  0
 12 13  2  0  0  0  0
 12 30  1  0  0  0  0
 13 14  1  0  0  0  0
 13 31  1  0  0  0  0
 14 15  1  0  0  0  0
 16 17  1  0  0  0  0
 16 18  1  0  0  0  0
 17 32  1  0  0  0  0
 17 33  1  0  0  0  0
 17 34  1  0  0  0  0
 18 35  1  0  0  0  0
 18 36  1  0  0  0  0
 18 37  1  0  0  0  0
M  END
> <s_m_source_file>
AV-unprocessed.smi

> <i_m_source_file_index>
3315

> <i_lp_mmshare_version>
43012

> <i_f3d_flags>
0

> <s_epik_input>
W0NIM11PW0NAQF0xKFtDSDNdKVtDSDJdW0NASF0oQzEoW0NIM10pW0NIM10pW05IXUMoPU8pW05IXWMyW2NIXVtjSF1vbjI=

> <s_epik_cmdline>
J2VwaWtfcHl0aG9uJywgJy1waCcsICc3LjAnLCAnLXRuJywgJzgnLCAnLW1hJywgJzIwMCcsICctbWV0YWxfYmluZGluZycsICctaW1hZScsICc8aW5maWxlLm1hZT4nLCAnLW9tYWUnLCAnPG91dGZpbGUubWFlPic=

> <r_lp_tautomer_probability>
1

> <r_epik_Ionization_Penalty>
2.28875e-05

> <r_epik_Ionization_Penalty_Charging>
0

> <r_epik_Ionization_Penalty_Neutral>
2.28875e-05

> <r_epik_State_Penalty>
-0

> <r_epik_Charging_Adjusted_Penalty>
0

> <i_epik_Tot_Q>
0

> <i_epik_Tot_abs_Q>
0

> <r_epik_Metal_State_Penalty>
-0

> <b_epik_Metal_Only>
0

> <s_lp_Force_Field>
OPLS_2005

> <r_lp_Energy>
24.1983

> <b_lp_Chiralities_Consistent>
1

> <s_lp_Variant>
AV-unprocessed.smi:3315-2

> <Gold.Version>
5.8.1

> <Gold.Id.Protein>
6NUR|6NUR_protein|mol2

> <Gold.PLP.Fitness>
34.1905

> <Gold.PLP.PLP>
-23.5629

> <Gold.PLP.part.hbond>
-3.0000

> <Gold.PLP.part.metal>
0.0000

> <Gold.PLP.part.buried>
-0.8649

> <Gold.PLP.part.nonpolar>
-20.3297

> <Gold.PLP.part.repulsive>
0.8563

> <Gold.PLP.ligand.clash>
0.0000

> <Gold.PLP.ligand.torsion>
0.7809

> <Gold.PLP.Chemscore.Hbond>
2.9500

> <Gold.PLP.Chemscore.CHOScore>
0.9885

> <Gold.PLP.Chemscore.Metal>
0.0000

> <Gold.Chemscore.Hbonds>
donor molecule, donor type, donor heavy atom, donor atom, acceptor molecule, acceptor atom, score
      L1  H     7    28       P1  7948  1.00
      L1  H    10    29       P1  7948  1.00
      P1  H  7989  7998       L1    14  0.90
      L1  C    13    31       P1  8028  0.78

> <Gold.PLP.Chemscore.Internal.Correction>
0.3736

> <Gold.Rescore>
     Score         DG    S(hbond)    S(metal)    S(lipo)     H(rot)  DE(clash)    DE(int)     intcor
     13.65     -15.16       2.13        0.00      50.39       1.30       0.76       0.75       ----

> <Gold.Chemscore.Fitness>
13.6527

> <Gold.Chemscore.DG>
-15.1646

> <Gold.Chemscore.ZeroCoef>
-5.4800

> <Gold.Chemscore.Hbond>
2.1336

> <Gold.Chemscore.Metal>
0.0000

> <Gold.Chemscore.Lipo>
50.3937

> <Gold.Chemscore.Internal_Hbond>
0.0000

> <Gold.Chemscore.DEClash>
0.7637

> <Gold.Chemscore.DEInternal>
0.7482

> <Gold.Chemscore.Rot>
1.3038

> <Gold.Chemscore.Internal.Correction>
   9.000000E+99

> <Gold.Chemscore.Hbonds>
donor molecule, donor type, donor heavy atom, donor atom, acceptor molecule, acceptor atom, score
      L1  H     7    28       P1  7948  0.96
      L1  H    10    29       P1  7948  1.00
      P1  H  7989  7998       L1    14  0.07

> <Gold.Chemscore.Hbond.Weighted>
-7.1263

> <Gold.Chemscore.Metal.Weighted>
-0.0000

> <Gold.Chemscore.Lipo.Weighted>
-5.8961

> <Gold.Chemscore.Internal_Hbond.Weighted>
0.0000

> <Gold.Chemscore.DEClash.Weighted>
0.7637

> <Gold.Chemscore.DEInternal.Weighted>
0.7482

> <Gold.Chemscore.Rot.Weighted>
3.3377

> <Gold.Chemscore.Internal.Correction.Weighted>
   9.000000E+99

> <Gold.Protein.RotatedTorsions>
[ 6907 6896 6895 6894 ] final   78.52 input  -60.11 | X-H torsion
[ 7974 7965 7964 7962 ] final   11.29 input  175.53 | X-H torsion
[ 8008 7997 7996 7995 ] final -161.52 input   59.86 | X-H torsion
[ 10167 10162 10161 10158 ] final -140.28 input  -65.29 | X-H torsion
[ 10718 10713 10712 10709 ] final   -0.64 input   66.30 | X-H torsion
[ 10763 10752 10751 10750 ] final  103.40 input  -60.55 | X-H torsion
[ 11005 11000 10999 10996 ] final  -25.24 input  -57.11 | X-H torsion

> <Gold.Protein.ActiveResidues>
 VAL166  LYS551  ARG553  GLY616  TRP617  ASP618  TYR619  PRO620  LYS621  CYS622 
 ASP623  PHE694  ASN695  SER759  ASP760  ASP761  ALA762  ILE779  LEU786  VAL792 
 PHE793  MET794  SER795  GLU796  ALA797  LYS798  CYS799  TRP800  GLU811  SER814 

> <Gold.Protein.RotatedAtoms>
  152.5162  134.3652  159.9298 H   0  0  0  0  0  0  0  0  0  0  0  0  # atno 6907 bound_to 6896
  151.3605  133.3885  159.2697 H   0  0  0  0  0  0  0  0  0  0  0  0  # atno 6908 bound_to 6896
  150.9655  134.9056  159.7815 H   0  0  0  0  0  0  0  0  0  0  0  0  # atno 6909 bound_to 6896
  146.2373  139.9507  142.8471 H   0  0  0  0  0  0  0  0  0  0  0  0  # atno 7974 bound_to 7965
  155.7934  140.0881  157.1996 H   0  0  0  0  0  0  0  0  0  0  0  0  # atno 8008 bound_to 7997
  154.3984  140.1486  156.3248 H   0  0  0  0  0  0  0  0  0  0  0  0  # atno 8009 bound_to 7997
  155.8536  140.3433  155.5712 H   0  0  0  0  0  0  0  0  0  0  0  0  # atno 8010 bound_to 7997
  139.8297  143.7464  152.2666 H   0  0  0  0  0  0  0  0  0  0  0  0  # atno 10167 bound_to 10162
  156.8174  130.5445  149.5701 H   0  0  0  0  0  0  0  0  0  0  0  0  # atno 10718 bound_to 10713
  153.3521  135.3978  155.1654 H   0  0  0  0  0  0  0  0  0  0  0  0  # atno 10763 bound_to 10752
  154.8664  135.3659  154.5208 H   0  0  0  0  0  0  0  0  0  0  0  0  # atno 10764 bound_to 10752
  153.5660  135.7080  153.5586 H   0  0  0  0  0  0  0  0  0  0  0  0  # atno 10765 bound_to 10752
  140.8920  133.7582  156.0433 H   0  0  0  0  0  0  0  0  0  0  0  0  # atno 11005 bound_to 11000
  145.1864  140.9791  143.4236 LP  0  0  0  0  0  0  0  0  0  0  0  0  # atno 17320 bound_to 7965
  144.9896  139.3702  143.6221 LP  0  0  0  0  0  0  0  0  0  0  0  0  # atno 17321 bound_to 7965
  139.7667  144.7489  151.0283 LP  0  0  0  0  0  0  0  0  0  0  0  0  # atno 17342 bound_to 10162
  140.7807  143.4690  151.0173 LP  0  0  0  0  0  0  0  0  0  0  0  0  # atno 17343 bound_to 10162
  156.1009  130.5968  150.9892 LP  0  0  0  0  0  0  0  0  0  0  0  0  # atno 17370 bound_to 10713
  157.6474  131.0902  150.8123 LP  0  0  0  0  0  0  0  0  0  0  0  0  # atno 17371 bound_to 10713
  140.8335  134.3150  157.5340 LP  0  0  0  0  0  0  0  0  0  0  0  0  # atno 17394 bound_to 11000
  139.8731  134.9377  156.3693 LP  0  0  0  0  0  0  0  0  0  0  0  0  # atno 17395 bound_to 11000

$$$$
