AV-unprocessed.smi:100|AV-procd|sdf|908|dock1
  -GOLD-   2262017403D 1   1.00000     0.00000
 Structure written by MMmdl.
 31 33  0  0  0  0  0  0  0  0  1 V2000
  151.1789  138.2984  153.1193 N   0  0  0  0  0  0  0  0  0  0  0  0
  151.4463  138.5873  154.4005 C   0  0  0  0  0  0  0  0  0  0  0  0
  152.1063  137.6676  155.1422 N   0  0  0  0  0  0  0  0  0  0  0  0
  152.3829  137.9318  156.4229 C   0  0  0  0  0  0  0  0  0  0  0  0
  152.0954  139.0275  157.1303 N   0  0  0  0  0  0  0  0  0  0  0  0
  151.4295  139.9557  156.3829 C   0  0  0  0  0  0  0  0  0  0  0  0
  151.0695  139.8088  155.0139 C   0  0  0  0  0  0  0  0  0  0  0  0
  150.4024  140.9433  154.5753 N   0  0  0  0  0  0  0  0  0  0  0  0
  150.3678  141.7129  155.6297 C   0  0  0  0  0  0  0  0  0  0  0  0
  150.9699  141.2036  156.7604 N   0  0  0  0  0  0  0  0  0  0  0  0
  151.0620  141.8603  158.1046 C   0  0  1  0  0  0  0  0  0  0  0  0
  152.0933  141.2464  158.8234 O   0  0  0  0  0  0  0  0  0  0  0  0
  153.1322  142.1850  159.1017 C   0  0  2  0  0  0  0  0  0  0  0  0
  153.8619  141.8246  160.4055 C   0  0  0  0  0  0  0  0  0  0  0  0
  154.5025  140.5737  160.2738 O   0  0  0  0  0  0  0  0  0  0  0  0
  152.3811  143.5159  159.1475 C   0  0  2  0  0  0  0  0  0  0  0  0
  151.7303  143.6078  160.3118 F   0  0  0  0  0  0  0  0  0  0  0  0
  151.4053  143.3535  157.9930 C   0  0  2  0  0  0  0  0  0  0  0  0
  150.2918  144.2095  158.1547 O   0  0  0  0  0  0  0  0  0  0  0  0
  150.6867  138.9679  152.5454 H   0  0  0  0  0  0  0  0  0  0  0  0
  151.4641  137.4102  152.7332 H   0  0  0  0  0  0  0  0  0  0  0  0
  152.9097  137.1555  156.9578 H   0  0  0  0  0  0  0  0  0  0  0  0
  149.8967  142.6851  155.6096 H   0  0  0  0  0  0  0  0  0  0  0  0
  150.1084  141.6608  158.5963 H   0  0  0  0  0  0  0  0  0  0  0  0
  153.8404  142.2153  158.2740 H   0  0  0  0  0  0  0  0  0  0  0  0
  154.6335  142.5645  160.6200 H   0  0  0  0  0  0  0  0  0  0  0  0
  153.1778  141.8123  161.2546 H   0  0  0  0  0  0  0  0  0  0  0  0
  154.0213  140.0538  159.6484 H   0  0  0  0  0  0  0  0  0  0  0  0
  153.0294  144.3873  159.0525 H   0  0  0  0  0  0  0  0  0  0  0  0
  151.9054  143.5641  157.0477 H   0  0  0  0  0  0  0  0  0  0  0  0
  150.1415  144.6623  157.3390 H   0  0  0  0  0  0  0  0  0  0  0  0
  1  2  1  0  0  0  0
  1 20  1  0  0  0  0
  1 21  1  0  0  0  0
  2  7  1  0  0  0  0
  2  3  2  0  0  0  0
  3  4  1  0  0  0  0
  4  5  2  0  0  0  0
  4 22  1  0  0  0  0
  5  6  1  0  0  0  0
  6 10  1  0  0  0  0
  6  7  2  0  0  0  0
  7  8  1  0  0  0  0
  8  9  2  0  0  0  0
  9 10  1  0  0  0  0
  9 23  1  0  0  0  0
 10 11  1  0  0  0  0
 11 18  1  0  0  0  0
 11 12  1  0  0  0  0
 11 24  1  0  0  0  0
 12 13  1  0  0  0  0
 13 14  1  0  0  0  0
 13 16  1  0  0  0  0
 13 25  1  0  0  0  0
 14 15  1  0  0  0  0
 14 26  1  0  0  0  0
 14 27  1  0  0  0  0
 15 28  1  0  0  0  0
 16 17  1  0  0  0  0
 16 18  1  0  0  0  0
 16 29  1  0  0  0  0
 18 19  1  0  0  0  0
 18 30  1  0  0  0  0
 19 31  1  0  0  0  0
M  END
> <s_m_source_file>
AV-unprocessed.smi

> <i_m_source_file_index>
100

> <i_lp_mmshare_version>
43012

> <i_f3d_flags>
0

> <s_epik_input>
bjFbY0hdbmMoW05IMl0pYyhjMTIpbltjSF1uMltDQEBIXTNPW0NAQEhdKFtDSDJdW09IXSlbQ0BIXShGKVtDQEhdM1tPSF0=

> <s_epik_cmdline>
J2VwaWtfcHl0aG9uJywgJy1waCcsICc3LjAnLCAnLXRuJywgJzgnLCAnLW1hJywgJzIwMCcsICctbWV0YWxfYmluZGluZycsICctaW1hZScsICc8aW5maWxlLm1hZT4nLCAnLW9tYWUnLCAnPG91dGZpbGUubWFlPic=

> <r_lp_tautomer_probability>
1

> <r_epik_Ionization_Penalty>
0.000750324

> <r_epik_Ionization_Penalty_Charging>
0

> <r_epik_Ionization_Penalty_Neutral>
0.000750324

> <r_epik_State_Penalty>
-0

> <r_epik_Charging_Adjusted_Penalty>
0

> <i_epik_Tot_Q>
0

> <i_epik_Tot_abs_Q>
0

> <r_epik_Metal_State_Penalty>
-0

> <b_epik_Metal_Only>
0

> <s_epik_Chemistry_Notes>
This compound contains an acetal/aminal-like group ( X-CH(R)-Y where X, Y are N, S, or O) that may be acid/base labile, releasing an aldehyde.

> <s_lp_Force_Field>
OPLS_2005

> <r_lp_Energy>
32.6181

> <b_lp_Chiralities_Consistent>
1

> <s_lp_Variant>
AV-unprocessed.smi:100-12

> <Gold.Version>
5.8.1

> <Gold.Id.Protein>
6NUR|6NUR_protein|mol2

> <Gold.PLP.Fitness>
46.5915

> <Gold.PLP.PLP>
-34.6830

> <Gold.PLP.part.hbond>
-6.3198

> <Gold.PLP.part.metal>
0.0000

> <Gold.PLP.part.buried>
-0.8632

> <Gold.PLP.part.nonpolar>
-26.7768

> <Gold.PLP.part.repulsive>
0.3049

> <Gold.PLP.ligand.clash>
0.0000

> <Gold.PLP.ligand.torsion>
0.5388

> <Gold.PLP.Chemscore.Hbond>
3.3244

> <Gold.PLP.Chemscore.CHOScore>
1.0000

> <Gold.PLP.Chemscore.Metal>
0.0000

> <Gold.Chemscore.Hbonds>
donor molecule, donor type, donor heavy atom, donor atom, acceptor molecule, acceptor atom, score
      L1  H     1    20       P1  7957  0.75
      L1  H     1    21       P1  7949  0.98
      L1  H    19    31       P1  8028  0.82
      P1  H 10752 10765       L1     3  0.29
      L1  C     9    23       P1  8028  1.00

> <Gold.PLP.Chemscore.Internal.Correction>
0.0129

> <Gold.Rescore>
     Score         DG    S(hbond)    S(metal)    S(lipo)     H(rot)  DE(clash)    DE(int)     intcor
      8.89     -10.87       2.27        0.00      51.19       3.19       0.51       1.46       ----

> <Gold.Chemscore.Fitness>
8.8931

> <Gold.Chemscore.DG>
-10.8709

> <Gold.Chemscore.ZeroCoef>
-5.4800

> <Gold.Chemscore.Hbond>
2.2661

> <Gold.Chemscore.Metal>
0.0000

> <Gold.Chemscore.Lipo>
51.1864

> <Gold.Chemscore.Internal_Hbond>
0.0000

> <Gold.Chemscore.DEClash>
0.5138

> <Gold.Chemscore.DEInternal>
1.4640

> <Gold.Chemscore.Rot>
3.1901

> <Gold.Chemscore.Internal.Correction>
   9.000000E+99

> <Gold.Chemscore.Hbonds>
donor molecule, donor type, donor heavy atom, donor atom, acceptor molecule, acceptor atom, score
      L1  H     1    20       P1  7957  0.09
      L1  H     1    21       P1  7949  0.82
      L1  H    19    31       P1  8028  0.20
      P1  H 10752 10765       L1     3  0.20

> <Gold.Chemscore.Hbond.Weighted>
-7.5688

> <Gold.Chemscore.Metal.Weighted>
-0.0000

> <Gold.Chemscore.Lipo.Weighted>
-5.9888

> <Gold.Chemscore.Internal_Hbond.Weighted>
0.0000

> <Gold.Chemscore.DEClash.Weighted>
0.5138

> <Gold.Chemscore.DEInternal.Weighted>
1.4640

> <Gold.Chemscore.Rot.Weighted>
8.1667

> <Gold.Chemscore.Internal.Correction.Weighted>
   9.000000E+99

> <Gold.Protein.RotatedTorsions>
[ 6907 6896 6895 6894 ] final   -9.10 input  -60.11 | X-H torsion
[ 7974 7965 7964 7962 ] final   61.57 input  175.53 | X-H torsion
[ 8008 7997 7996 7995 ] final    4.00 input   59.86 | X-H torsion
[ 10167 10162 10161 10158 ] final    9.62 input  -65.29 | X-H torsion
[ 10718 10713 10712 10709 ] final  123.49 input   66.30 | X-H torsion
[ 10763 10752 10751 10750 ] final -179.39 input  -60.55 | X-H torsion
[ 11005 11000 10999 10996 ] final   53.02 input  -57.11 | X-H torsion

> <Gold.Protein.ActiveResidues>
 VAL166  LYS551  ARG553  GLY616  TRP617  ASP618  TYR619  PRO620  LYS621  CYS622 
 ASP623  PHE694  ASN695  SER759  ASP760  ASP761  ALA762  ILE779  LEU786  VAL792 
 PHE793  MET794  SER795  GLU796  ALA797  LYS798  CYS799  TRP800  GLU811  SER814 

> <Gold.Protein.RotatedAtoms>
  151.4231  135.1000  159.9619 H   0  0  0  0  0  0  0  0  0  0  0  0  # atno 6907 bound_to 6896
  152.4982  133.8688  159.7298 H   0  0  0  0  0  0  0  0  0  0  0  0  # atno 6908 bound_to 6896
  150.9209  133.6824  159.2860 H   0  0  0  0  0  0  0  0  0  0  0  0  # atno 6909 bound_to 6896
  145.8832  139.3458  143.0693 H   0  0  0  0  0  0  0  0  0  0  0  0  # atno 7974 bound_to 7965
  154.7105  140.2691  155.6633 H   0  0  0  0  0  0  0  0  0  0  0  0  # atno 8008 bound_to 7997
  156.2794  140.2754  156.1670 H   0  0  0  0  0  0  0  0  0  0  0  0  # atno 8009 bound_to 7997
  155.0641  140.0371  157.2576 H   0  0  0  0  0  0  0  0  0  0  0  0  # atno 8010 bound_to 7997
  140.6244  143.8134  150.7215 H   0  0  0  0  0  0  0  0  0  0  0  0  # atno 10167 bound_to 10162
  157.5661  131.1086  150.8453 H   0  0  0  0  0  0  0  0  0  0  0  0  # atno 10718 bound_to 10713
  154.5357  135.2802  155.1140 H   0  0  0  0  0  0  0  0  0  0  0  0  # atno 10763 bound_to 10752
  154.2643  135.6316  153.5290 H   0  0  0  0  0  0  0  0  0  0  0  0  # atno 10764 bound_to 10752
  152.9967  135.5613  154.5883 H   0  0  0  0  0  0  0  0  0  0  0  0  # atno 10765 bound_to 10752
  140.0801  134.5350  155.8955 H   0  0  0  0  0  0  0  0  0  0  0  0  # atno 11005 bound_to 11000
  145.8998  140.9250  143.0509 LP  0  0  0  0  0  0  0  0  0  0  0  0  # atno 17320 bound_to 7965
  144.6728  140.1017  143.7460 LP  0  0  0  0  0  0  0  0  0  0  0  0  # atno 17321 bound_to 7965
  140.1731  143.4178  152.1987 LP  0  0  0  0  0  0  0  0  0  0  0  0  # atno 17342 bound_to 10162
  139.5467  144.7304  151.4562 LP  0  0  0  0  0  0  0  0  0  0  0  0  # atno 17343 bound_to 10162
  156.8937  130.5222  149.5285 LP  0  0  0  0  0  0  0  0  0  0  0  0  # atno 17370 bound_to 10713
  156.0709  130.5742  150.9381 LP  0  0  0  0  0  0  0  0  0  0  0  0  # atno 17371 bound_to 10713
  141.2043  133.6638  156.6116 LP  0  0  0  0  0  0  0  0  0  0  0  0  # atno 17394 bound_to 11000
  140.3500  134.7776  157.4460 LP  0  0  0  0  0  0  0  0  0  0  0  0  # atno 17395 bound_to 11000

$$$$
