AV-unprocessed.smi:2413|AV-procd|sdf|9536|dock8
  -GOLD-   2272013173D 1   1.00000     0.00000
 Structure written by MMmdl.
 46 47  0  0  0  0  0  0  0  0  2 V2000
  151.7992  144.5094  159.4639 C   0  0  0  0  0  0  0  0  0  0  0  0
  152.4199  143.1413  159.2046 C   0  0  0  0  0  0  0  0  0  0  0  0
  153.5568  142.8943  159.6058 O   0  0  0  0  0  0  0  0  0  0  0  0
  151.6567  142.2585  158.5418 N   0  0  0  0  0  0  0  0  0  0  0  0
  152.0507  140.8990  158.1812 C   0  0  0  0  0  0  0  0  0  0  0  0
  151.8170  140.5957  156.6895 C   0  0  2  0  0  0  0  0  0  0  0  0
  150.3237  140.4823  156.3218 C   0  0  0  0  0  0  0  0  0  0  0  0
  150.1499  140.0586  154.9329 N   0  0  0  0  0  0  0  0  0  0  0  0
  148.8515  140.1513  154.3826 C   0  0  0  0  0  0  0  0  0  0  0  0
  148.3095  141.3854  153.9682 C   0  0  0  0  0  0  0  0  0  0  0  0
  147.0136  141.3682  153.4219 C   0  0  0  0  0  0  0  0  0  0  0  0
  146.3250  140.2065  153.3217 N   0  3  0  0  0  0  0  0  0  0  0  0
  146.8630  139.0638  153.7808 C   0  0  0  0  0  0  0  0  0  0  0  0
  146.1227  137.7371  153.5588 C   0  0  0  0  0  0  0  0  0  0  0  0
  146.9049  136.5575  154.1833 C   0  0  0  0  0  0  0  0  0  0  0  0
  145.9429  137.4961  152.0490 C   0  0  0  0  0  0  0  0  0  0  0  0
  144.7408  137.7584  154.2507 C   0  0  0  0  0  0  0  0  0  0  0  0
  148.1141  139.0234  154.2616 N   0  0  0  0  0  0  0  0  0  0  0  0
  150.9165  138.8632  154.5905 C   0  0  0  0  0  0  0  0  0  0  0  0
  152.3861  139.0299  155.0110 C   0  0  0  0  0  0  0  0  0  0  0  0
  152.4571  139.3578  156.3941 O   0  0  0  0  0  0  0  0  0  0  0  0
  151.3889  144.9260  158.5435 H   0  0  0  0  0  0  0  0  0  0  0  0
  152.5440  145.2057  159.8503 H   0  0  0  0  0  0  0  0  0  0  0  0
  150.9954  144.4278  160.1959 H   0  0  0  0  0  0  0  0  0  0  0  0
  150.7339  142.5532  158.2567 H   0  0  0  0  0  0  0  0  0  0  0  0
  153.1120  140.7957  158.4080 H   0  0  0  0  0  0  0  0  0  0  0  0
  151.5359  140.1655  158.8046 H   0  0  0  0  0  0  0  0  0  0  0  0
  152.2830  141.3838  156.0944 H   0  0  0  0  0  0  0  0  0  0  0  0
  149.8276  139.7678  156.9804 H   0  0  0  0  0  0  0  0  0  0  0  0
  149.8462  141.4513  156.4702 H   0  0  0  0  0  0  0  0  0  0  0  0
  148.8471  142.3167  154.0624 H   0  0  0  0  0  0  0  0  0  0  0  0
  146.5049  142.2486  153.0573 H   0  0  0  0  0  0  0  0  0  0  0  0
  146.3630  135.6178  154.0702 H   0  0  0  0  0  0  0  0  0  0  0  0
  147.0736  136.7114  155.2499 H   0  0  0  0  0  0  0  0  0  0  0  0
  147.8789  136.4167  153.7123 H   0  0  0  0  0  0  0  0  0  0  0  0
  146.9055  137.4472  151.5383 H   0  0  0  0  0  0  0  0  0  0  0  0
  145.3652  138.2965  151.5851 H   0  0  0  0  0  0  0  0  0  0  0  0
  145.4208  136.5586  151.8551 H   0  0  0  0  0  0  0  0  0  0  0  0
  144.2243  136.8051  154.1330 H   0  0  0  0  0  0  0  0  0  0  0  0
  144.0863  138.5244  153.8334 H   0  0  0  0  0  0  0  0  0  0  0  0
  144.8341  137.9488  155.3207 H   0  0  0  0  0  0  0  0  0  0  0  0
  150.4777  138.0051  155.1013 H   0  0  0  0  0  0  0  0  0  0  0  0
  150.8826  138.6505  153.5235 H   0  0  0  0  0  0  0  0  0  0  0  0
  152.9320  138.1023  154.8393 H   0  0  0  0  0  0  0  0  0  0  0  0
  152.8767  139.8019  154.4159 H   0  0  0  0  0  0  0  0  0  0  0  0
  145.3929  140.2088  152.9071 H   0  0  0  0  0  0  0  0  0  0  0  0
  1  2  1  0  0  0  0
  1 22  1  0  0  0  0
  1 23  1  0  0  0  0
  1 24  1  0  0  0  0
  2  3  2  0  0  0  0
  2  4  1  0  0  0  0
  4  5  1  0  0  0  0
  4 25  1  0  0  0  0
  5  6  1  0  0  0  0
  5 26  1  0  0  0  0
  5 27  1  0  0  0  0
  6 21  1  0  0  0  0
  6  7  1  0  0  0  0
  6 28  1  0  0  0  0
  7  8  1  0  0  0  0
  7 29  1  0  0  0  0
  7 30  1  0  0  0  0
  8  9  1  0  0  0  0
  8 19  1  0  0  0  0
  9 18  1  0  0  0  0
  9 10  2  0  0  0  0
 10 11  1  0  0  0  0
 10 31  1  0  0  0  0
 11 12  2  0  0  0  0
 11 32  1  0  0  0  0
 12 13  1  0  0  0  0
 12 46  1  0  0  0  0
 13 14  1  0  0  0  0
 13 18  2  0  0  0  0
 14 15  1  0  0  0  0
 14 16  1  0  0  0  0
 14 17  1  0  0  0  0
 15 33  1  0  0  0  0
 15 34  1  0  0  0  0
 15 35  1  0  0  0  0
 16 36  1  0  0  0  0
 16 37  1  0  0  0  0
 16 38  1  0  0  0  0
 17 39  1  0  0  0  0
 17 40  1  0  0  0  0
 17 41  1  0  0  0  0
 19 20  1  0  0  0  0
 19 42  1  0  0  0  0
 19 43  1  0  0  0  0
 20 21  1  0  0  0  0
 20 44  1  0  0  0  0
 20 45  1  0  0  0  0
M  CHG  1  12   1
M  END
> <s_m_source_file>
AV-unprocessed.smi

> <i_m_source_file_index>
2413

> <i_lp_mmshare_version>
43012

> <i_f3d_flags>
0

> <s_epik_input>
W0NIM11DKD1PKVtOSF1bQ0gyXVtDQEBIXTFbQ0gyXU4oW0NIMl1bQ0gyXU8xKWMyW2NIXVtjSF1uYyhuMilDKFtDSDNdKShbQ0gzXSlbQ0gzXQ==

> <s_epik_cmdline>
J2VwaWtfcHl0aG9uJywgJy1waCcsICc3LjAnLCAnLXRuJywgJzgnLCAnLW1hJywgJzIwMCcsICctbWV0YWxfYmluZGluZycsICctaW1hZScsICc8aW5maWxlLm1hZT4nLCAnLW9tYWUnLCAnPG91dGZpbGUubWFlPic=

> <r_lp_tautomer_probability>
0.999336

> <r_epik_Ionization_Penalty>
2.26127

> <r_epik_Ionization_Penalty_Charging>
2.26127

> <r_epik_Ionization_Penalty_Neutral>
4.08984e-07

> <r_epik_State_Penalty>
2.40914

> <r_epik_Charging_Adjusted_Penalty>
4.67041

> <i_epik_Tot_Q>
1

> <i_epik_Tot_abs_Q>
1

> <r_epik_Metal_State_Penalty>
2.42208

> <b_epik_Metal_Only>
0

> <s_lp_Force_Field>
OPLS_2005

> <r_lp_Energy>
13.7164

> <b_lp_Chiralities_Consistent>
1

> <s_lp_Variant>
AV-unprocessed.smi:2413-3

> <Gold.Version>
5.8.1

> <Gold.Id.Protein>
6NUR|6NUR_protein|mol2

> <Gold.PLP.Fitness>
43.5255

> <Gold.PLP.PLP>
-36.5407

> <Gold.PLP.part.hbond>
-2.5960

> <Gold.PLP.part.metal>
0.0000

> <Gold.PLP.part.buried>
-5.0604

> <Gold.PLP.part.nonpolar>
-29.7725

> <Gold.PLP.part.repulsive>
0.2680

> <Gold.PLP.ligand.clash>
0.0000

> <Gold.PLP.ligand.torsion>
0.7742

> <Gold.PLP.Chemscore.Hbond>
2.6801

> <Gold.PLP.Chemscore.CHOScore>
0.0000

> <Gold.PLP.Chemscore.Metal>
0.0000

> <Gold.Chemscore.Hbonds>
donor molecule, donor type, donor heavy atom, donor atom, acceptor molecule, acceptor atom, score
      L1  H    12    46       P1 10175  2.00
      P1  H  7997  8008       L1    21  0.71

> <Gold.PLP.Chemscore.Internal.Correction>
0.4929

> <Gold.Rescore>
     Score         DG    S(hbond)    S(metal)    S(lipo)     H(rot)  DE(clash)    DE(int)     intcor
     12.50     -13.21       1.03        0.00      75.51       1.77       0.01       0.70       ----

> <Gold.Chemscore.Fitness>
12.4950

> <Gold.Chemscore.DG>
-13.2099

> <Gold.Chemscore.ZeroCoef>
-5.4800

> <Gold.Chemscore.Hbond>
1.0273

> <Gold.Chemscore.Metal>
0.0000

> <Gold.Chemscore.Lipo>
75.5114

> <Gold.Chemscore.Internal_Hbond>
0.0000

> <Gold.Chemscore.DEClash>
0.0103

> <Gold.Chemscore.DEInternal>
0.7046

> <Gold.Chemscore.Rot>
1.7719

> <Gold.Chemscore.Internal.Correction>
   9.000000E+99

> <Gold.Chemscore.Hbonds>
donor molecule, donor type, donor heavy atom, donor atom, acceptor molecule, acceptor atom, score
      L1  H    12    46       P1 10175  0.98
      P1  H  7997  8008       L1    21  0.02

> <Gold.Chemscore.Hbond.Weighted>
-3.4312

> <Gold.Chemscore.Metal.Weighted>
-0.0000

> <Gold.Chemscore.Lipo.Weighted>
-8.8348

> <Gold.Chemscore.Internal_Hbond.Weighted>
0.0000

> <Gold.Chemscore.DEClash.Weighted>
0.0103

> <Gold.Chemscore.DEInternal.Weighted>
0.7046

> <Gold.Chemscore.Rot.Weighted>
4.5361

> <Gold.Chemscore.Internal.Correction.Weighted>
   9.000000E+99

> <Gold.Protein.RotatedTorsions>
[ 6907 6896 6895 6894 ] final -176.30 input  -60.11 | X-H torsion
[ 7974 7965 7964 7962 ] final   69.28 input  175.53 | X-H torsion
[ 8008 7997 7996 7995 ] final  -49.40 input   59.86 | X-H torsion
[ 10167 10162 10161 10158 ] final    1.58 input  -65.29 | X-H torsion
[ 10718 10713 10712 10709 ] final   88.93 input   66.30 | X-H torsion
[ 10763 10752 10751 10750 ] final  -24.79 input  -60.55 | X-H torsion
[ 11005 11000 10999 10996 ] final -146.28 input  -57.11 | X-H torsion

> <Gold.Protein.ActiveResidues>
 VAL166  LYS551  ARG553  GLY616  TRP617  ASP618  TYR619  PRO620  LYS621  CYS622 
 ASP623  PHE694  ASN695  SER759  ASP760  ASP761  ALA762  ILE779  LEU786  VAL792 
 PHE793  MET794  SER795  GLU796  ALA797  LYS798  CYS799  TRP800  GLU811  SER814 

> <Gold.Protein.RotatedAtoms>
  151.6025  133.3355  159.3050 H   0  0  0  0  0  0  0  0  0  0  0  0  # atno 6907 bound_to 6896
  150.8200  134.7406  159.6775 H   0  0  0  0  0  0  0  0  0  0  0  0  # atno 6908 bound_to 6896
  152.4294  134.5813  160.0000 H   0  0  0  0  0  0  0  0  0  0  0  0  # atno 6909 bound_to 6896
  145.7923  139.2940  143.1203 H   0  0  0  0  0  0  0  0  0  0  0  0  # atno 7974 bound_to 7965
  154.4043  140.1298  156.4496 H   0  0  0  0  0  0  0  0  0  0  0  0  # atno 8008 bound_to 7997
  155.7380  140.3490  155.5070 H   0  0  0  0  0  0  0  0  0  0  0  0  # atno 8009 bound_to 7997
  155.9066  140.1028  157.1301 H   0  0  0  0  0  0  0  0  0  0  0  0  # atno 8010 bound_to 7997
  140.6676  143.7137  150.7858 H   0  0  0  0  0  0  0  0  0  0  0  0  # atno 10167 bound_to 10162
  157.6952  131.0314  150.3349 H   0  0  0  0  0  0  0  0  0  0  0  0  # atno 10718 bound_to 10713
  153.6895  135.6962  153.5094 H   0  0  0  0  0  0  0  0  0  0  0  0  # atno 10763 bound_to 10752
  153.2424  135.4301  155.0711 H   0  0  0  0  0  0  0  0  0  0  0  0  # atno 10764 bound_to 10752
  154.8377  135.3511  154.6436 H   0  0  0  0  0  0  0  0  0  0  0  0  # atno 10765 bound_to 10752
  140.7836  134.3050  157.5037 H   0  0  0  0  0  0  0  0  0  0  0  0  # atno 11005 bound_to 11000
  145.9964  140.8559  143.0041 LP  0  0  0  0  0  0  0  0  0  0  0  0  # atno 17320 bound_to 7965
  144.6780  140.2288  143.7358 LP  0  0  0  0  0  0  0  0  0  0  0  0  # atno 17321 bound_to 7965
  140.0817  143.4962  152.2526 LP  0  0  0  0  0  0  0  0  0  0  0  0  # atno 17342 bound_to 10162
  139.5931  144.7557  151.3353 LP  0  0  0  0  0  0  0  0  0  0  0  0  # atno 17343 bound_to 10162
  156.3818  130.3882  149.7096 LP  0  0  0  0  0  0  0  0  0  0  0  0  # atno 17370 bound_to 10713
  156.4476  130.7891  151.2912 LP  0  0  0  0  0  0  0  0  0  0  0  0  # atno 17371 bound_to 10713
  139.8739  134.9333  156.3577 LP  0  0  0  0  0  0  0  0  0  0  0  0  # atno 17394 bound_to 11000
  140.9458  133.7484  156.0207 LP  0  0  0  0  0  0  0  0  0  0  0  0  # atno 17395 bound_to 11000

$$$$
