AV-unprocessed.smi:2340|AV-procd|sdf|9345|dock8
  -GOLD-   2272012563D 1   1.00000     0.00000
 Structure written by MMmdl.
 40 41  0  0  0  0  0  0  0  0  1 V2000
  145.7542  131.6924  149.2697 C   0  0  0  0  0  0  0  0  0  0  0  0
  144.9394  132.4052  150.3026 C   0  0  0  0  0  0  0  0  0  0  0  0
  143.6112  132.2087  150.5870 C   0  0  0  0  0  0  0  0  0  0  0  0
  143.0614  133.2497  151.8713 S   0  0  0  0  0  0  0  0  0  0  0  0
  144.6834  133.9253  151.9789 C   0  0  0  0  0  0  0  0  0  0  0  0
  145.0610  134.9961  152.9536 C   0  0  1  0  0  0  0  0  0  0  0  0
  146.2100  134.5455  153.8727 C   0  0  0  0  0  0  0  0  0  0  0  0
  145.3075  136.3461  152.2451 C   0  0  0  0  0  0  0  0  0  0  0  0
  146.6187  136.9122  152.5454 N   0  0  0  0  0  0  0  0  0  0  0  0
  146.8526  137.8700  153.4526 C   0  0  0  0  0  0  0  0  0  0  0  0
  145.9772  138.4011  154.1360 O   0  0  0  0  0  0  0  0  0  0  0  0
  148.1559  138.1697  153.5325 N   0  0  0  0  0  0  0  0  0  0  0  0
  148.7363  139.1442  154.4509 C   0  0  2  0  0  0  0  0  0  0  0  0
  148.3648  140.5624  154.0691 C   0  0  0  0  0  0  0  0  0  0  0  0
  149.4902  141.3726  154.7054 C   0  0  0  0  0  0  0  0  0  0  0  0
  150.6276  140.5158  154.7404 O   0  0  0  0  0  0  0  0  0  0  0  0
  150.2657  139.1945  154.3507 C   0  0  1  0  0  0  0  0  0  0  0  0
  150.9954  138.1663  155.2240 C   0  0  0  0  0  0  0  0  0  0  0  0
  145.5347  133.3869  151.0996 N   0  0  0  0  0  0  0  0  0  0  0  0
  145.1434  131.0035  148.6854 H   0  0  0  0  0  0  0  0  0  0  0  0
  146.5536  131.1127  149.7315 H   0  0  0  0  0  0  0  0  0  0  0  0
  146.2132  132.3957  148.5746 H   0  0  0  0  0  0  0  0  0  0  0  0
  142.9252  131.5167  150.1215 H   0  0  0  0  0  0  0  0  0  0  0  0
  144.1917  135.1305  153.5987 H   0  0  0  0  0  0  0  0  0  0  0  0
  145.9612  133.6119  154.3780 H   0  0  0  0  0  0  0  0  0  0  0  0
  146.4217  135.2851  154.6449 H   0  0  0  0  0  0  0  0  0  0  0  0
  147.1277  134.3832  153.3068 H   0  0  0  0  0  0  0  0  0  0  0  0
  145.2391  136.2174  151.1644 H   0  0  0  0  0  0  0  0  0  0  0  0
  144.5312  137.0631  152.5184 H   0  0  0  0  0  0  0  0  0  0  0  0
  147.4041  136.5381  152.0331 H   0  0  0  0  0  0  0  0  0  0  0  0
  148.7962  137.6759  152.9281 H   0  0  0  0  0  0  0  0  0  0  0  0
  148.4254  138.9616  155.4818 H   0  0  0  0  0  0  0  0  0  0  0  0
  148.3914  140.6878  152.9854 H   0  0  0  0  0  0  0  0  0  0  0  0
  147.3761  140.8575  154.4218 H   0  0  0  0  0  0  0  0  0  0  0  0
  149.7002  142.2914  154.1575 H   0  0  0  0  0  0  0  0  0  0  0  0
  149.2310  141.6423  155.7298 H   0  0  0  0  0  0  0  0  0  0  0  0
  150.5711  139.0741  153.3097 H   0  0  0  0  0  0  0  0  0  0  0  0
  150.7482  137.1483  154.9233 H   0  0  0  0  0  0  0  0  0  0  0  0
  150.7287  138.2801  156.2751 H   0  0  0  0  0  0  0  0  0  0  0  0
  152.0759  138.2829  155.1396 H   0  0  0  0  0  0  0  0  0  0  0  0
  1  2  1  0  0  0  0
  1 20  1  0  0  0  0
  1 21  1  0  0  0  0
  1 22  1  0  0  0  0
  2 19  1  0  0  0  0
  2  3  2  0  0  0  0
  3  4  1  0  0  0  0
  3 23  1  0  0  0  0
  4  5  1  0  0  0  0
  5  6  1  0  0  0  0
  5 19  2  0  0  0  0
  6  7  1  0  0  0  0
  6  8  1  0  0  0  0
  6 24  1  0  0  0  0
  7 25  1  0  0  0  0
  7 26  1  0  0  0  0
  7 27  1  0  0  0  0
  8  9  1  0  0  0  0
  8 28  1  0  0  0  0
  8 29  1  0  0  0  0
  9 10  1  0  0  0  0
  9 30  1  0  0  0  0
 10 11  2  0  0  0  0
 10 12  1  0  0  0  0
 12 13  1  0  0  0  0
 12 31  1  0  0  0  0
 13 17  1  0  0  0  0
 13 14  1  0  0  0  0
 13 32  1  0  0  0  0
 14 15  1  0  0  0  0
 14 33  1  0  0  0  0
 14 34  1  0  0  0  0
 15 16  1  0  0  0  0
 15 35  1  0  0  0  0
 15 36  1  0  0  0  0
 16 17  1  0  0  0  0
 17 18  1  0  0  0  0
 17 37  1  0  0  0  0
 18 38  1  0  0  0  0
 18 39  1  0  0  0  0
 18 40  1  0  0  0  0
M  END
> <s_m_source_file>
AV-unprocessed.smi

> <i_m_source_file_index>
2340

> <i_lp_mmshare_version>
43012

> <i_f3d_flags>
0

> <s_epik_input>
W0NIM11jMVtjSF1zYyhuMSlbQ0BIXShbQ0gzXSlbQ0gyXVtOSF1DKD1PKVtOSF1bQ0BASF0yW0NIMl1bQ0gyXU9bQ0BIXTJbQ0gzXQ==

> <s_epik_cmdline>
J2VwaWtfcHl0aG9uJywgJy1waCcsICc3LjAnLCAnLXRuJywgJzgnLCAnLW1hJywgJzIwMCcsICctbWV0YWxfYmluZGluZycsICctaW1hZScsICc8aW5maWxlLm1hZT4nLCAnLW9tYWUnLCAnPG91dGZpbGUubWFlPic=

> <r_epik_Ionization_Penalty>
0.00156622

> <r_epik_Ionization_Penalty_Charging>
0

> <r_epik_Ionization_Penalty_Neutral>
0.00156622

> <r_epik_State_Penalty>
0.00101902

> <r_epik_Charging_Adjusted_Penalty>
0.00101902

> <i_epik_Tot_Q>
0

> <i_epik_Tot_abs_Q>
0

> <r_epik_Metal_State_Penalty>
-0

> <b_epik_Metal_Only>
0

> <s_lp_Force_Field>
OPLS_2005

> <r_lp_Energy>
4.85076

> <b_lp_Chiralities_Consistent>
1

> <s_lp_Variant>
AV-unprocessed.smi:2340-2

> <Gold.Version>
5.8.1

> <Gold.Id.Protein>
6NUR|6NUR_protein|mol2

> <Gold.PLP.Fitness>
41.7173

> <Gold.PLP.PLP>
-32.6962

> <Gold.PLP.part.hbond>
-2.9458

> <Gold.PLP.part.metal>
0.0000

> <Gold.PLP.part.buried>
-2.7552

> <Gold.PLP.part.nonpolar>
-27.6298

> <Gold.PLP.part.repulsive>
0.4363

> <Gold.PLP.ligand.clash>
0.2174

> <Gold.PLP.ligand.torsion>
1.0575

> <Gold.PLP.Chemscore.Hbond>
2.7480

> <Gold.PLP.Chemscore.CHOScore>
0.9925

> <Gold.PLP.Chemscore.Metal>
0.0000

> <Gold.Chemscore.Hbonds>
donor molecule, donor type, donor heavy atom, donor atom, acceptor molecule, acceptor atom, score
      L1  H     9    30       P1  7948  1.00
      L1  H    12    31       P1  7948  0.90
      P1  H  7989  7998       L1    16  0.95
      L1  C     3    23       P1 10952  1.00

> <Gold.PLP.Chemscore.Internal.Correction>
0.1321

> <Gold.Rescore>
     Score         DG    S(hbond)    S(metal)    S(lipo)     H(rot)  DE(clash)    DE(int)     intcor
     19.07     -20.15       2.40        0.00      90.55       1.53       0.05       1.03       ----

> <Gold.Chemscore.Fitness>
19.0718

> <Gold.Chemscore.DG>
-20.1522

> <Gold.Chemscore.ZeroCoef>
-5.4800

> <Gold.Chemscore.Hbond>
2.3956

> <Gold.Chemscore.Metal>
0.0000

> <Gold.Chemscore.Lipo>
90.5480

> <Gold.Chemscore.Internal_Hbond>
0.0000

> <Gold.Chemscore.DEClash>
0.0527

> <Gold.Chemscore.DEInternal>
1.0278

> <Gold.Chemscore.Rot>
1.5325

> <Gold.Chemscore.Internal.Correction>
   9.000000E+99

> <Gold.Chemscore.Hbonds>
donor molecule, donor type, donor heavy atom, donor atom, acceptor molecule, acceptor atom, score
      L1  H     9    30       P1  7948  0.94
      L1  H    12    31       P1  7948  0.88
      P1  H  7989  7998       L1    16  0.14

> <Gold.Chemscore.Hbond.Weighted>
-8.0014

> <Gold.Chemscore.Metal.Weighted>
-0.0000

> <Gold.Chemscore.Lipo.Weighted>
-10.5941

> <Gold.Chemscore.Internal_Hbond.Weighted>
0.0000

> <Gold.Chemscore.DEClash.Weighted>
0.0527

> <Gold.Chemscore.DEInternal.Weighted>
1.0278

> <Gold.Chemscore.Rot.Weighted>
3.9233

> <Gold.Chemscore.Internal.Correction.Weighted>
   9.000000E+99

> <Gold.Protein.RotatedTorsions>
[ 6907 6896 6895 6894 ] final   16.26 input  -60.11 | X-H torsion
[ 7974 7965 7964 7962 ] final   82.79 input  175.53 | X-H torsion
[ 8008 7997 7996 7995 ] final  161.31 input   59.86 | X-H torsion
[ 10167 10162 10161 10158 ] final  -90.59 input  -65.29 | X-H torsion
[ 10718 10713 10712 10709 ] final   45.25 input   66.30 | X-H torsion
[ 10763 10752 10751 10750 ] final   79.88 input  -60.55 | X-H torsion
[ 11005 11000 10999 10996 ] final -122.32 input  -57.11 | X-H torsion

> <Gold.Protein.ActiveResidues>
 VAL166  LYS551  ARG553  GLY616  TRP617  ASP618  TYR619  PRO620  LYS621  CYS622 
 ASP623  PHE694  ASN695  SER759  ASP760  ASP761  ALA762  ILE779  LEU786  VAL792 
 PHE793  MET794  SER795  GLU796  ALA797  LYS798  CYS799  TRP800  GLU811  SER814 

> <Gold.Protein.RotatedAtoms>
  151.8310  135.0621  160.0436 H   0  0  0  0  0  0  0  0  0  0  0  0  # atno 6907 bound_to 6896
  152.2880  133.5529  159.5548 H   0  0  0  0  0  0  0  0  0  0  0  0  # atno 6908 bound_to 6896
  150.7217  134.0385  159.3800 H   0  0  0  0  0  0  0  0  0  0  0  0  # atno 6909 bound_to 6896
  145.6204  139.2385  143.2141 H   0  0  0  0  0  0  0  0  0  0  0  0  # atno 7974 bound_to 7965
  156.2112  140.1780  156.7691 H   0  0  0  0  0  0  0  0  0  0  0  0  # atno 8008 bound_to 7997
  154.5725  140.0680  156.9015 H   0  0  0  0  0  0  0  0  0  0  0  0  # atno 8009 bound_to 7997
  155.2647  140.3338  155.4272 H   0  0  0  0  0  0  0  0  0  0  0  0  # atno 8010 bound_to 7997
  140.3534  143.2879  151.9700 H   0  0  0  0  0  0  0  0  0  0  0  0  # atno 10167 bound_to 10162
  157.4355  130.8050  149.7644 H   0  0  0  0  0  0  0  0  0  0  0  0  # atno 10718 bound_to 10713
  153.0988  135.4823  154.8829 H   0  0  0  0  0  0  0  0  0  0  0  0  # atno 10763 bound_to 10752
  154.7355  135.3070  154.8820 H   0  0  0  0  0  0  0  0  0  0  0  0  # atno 10764 bound_to 10752
  153.9443  135.6830  153.4797 H   0  0  0  0  0  0  0  0  0  0  0  0  # atno 10765 bound_to 10752
  141.0004  134.0411  157.3544 H   0  0  0  0  0  0  0  0  0  0  0  0  # atno 11005 bound_to 11000
  146.1435  140.7024  142.9355 LP  0  0  0  0  0  0  0  0  0  0  0  0  # atno 17320 bound_to 7965
  144.7233  140.4445  143.6992 LP  0  0  0  0  0  0  0  0  0  0  0  0  # atno 17321 bound_to 7965
  139.4823  144.6056  151.7527 LP  0  0  0  0  0  0  0  0  0  0  0  0  # atno 17342 bound_to 10162
  140.5197  144.0898  150.6019 LP  0  0  0  0  0  0  0  0  0  0  0  0  # atno 17343 bound_to 10162
  155.9929  130.3928  150.2923 LP  0  0  0  0  0  0  0  0  0  0  0  0  # atno 17370 bound_to 10713
  157.1083  131.0214  151.3058 LP  0  0  0  0  0  0  0  0  0  0  0  0  # atno 17371 bound_to 10713
  139.9036  135.0173  156.7383 LP  0  0  0  0  0  0  0  0  0  0  0  0  # atno 17394 bound_to 11000
  140.6898  133.9400  155.7959 LP  0  0  0  0  0  0  0  0  0  0  0  0  # atno 17395 bound_to 11000

$$$$
