AV-unprocessed.smi:1039|AV-procd|sdf|4523|dock8
  -GOLD-   22720 2543D 1   1.00000     0.00000
 Structure written by MMmdl.
 41 42  0  0  0  0  0  0  0  0  2 V2000
  153.0801  142.8381  163.1839 C   0  0  0  0  0  0  0  0  0  0  0  0
  153.3451  142.9429  161.6759 C   0  0  0  0  0  0  0  0  0  0  0  0
  152.1867  143.6515  160.9410 C   0  0  0  0  0  0  0  0  0  0  0  0
  152.4147  143.6559  159.4188 C   0  0  0  0  0  0  0  0  0  0  0  0
  152.5744  142.2652  158.9605 N   0  0  0  0  0  0  0  0  0  0  0  0
  151.6658  141.5388  158.2616 C   0  0  0  0  0  0  0  0  0  0  0  0
  151.9174  140.4432  157.7588 O   0  0  0  0  0  0  0  0  0  0  0  0
  150.4641  142.1239  158.1251 N   0  0  0  0  0  0  0  0  0  0  0  0
  149.3277  141.5686  157.3960 C   0  0  0  0  0  0  0  0  0  0  0  0
  149.6476  141.2327  155.9241 C   0  0  0  0  0  0  0  0  0  0  0  0
  148.4942  141.3930  154.9768 C   0  0  0  0  0  0  0  0  0  0  0  0
  147.9603  142.5657  154.6136 N   0  3  0  0  0  0  0  0  0  0  0  0
  146.9153  142.3707  153.7538 C   0  0  0  0  0  0  0  0  0  0  0  0
  146.8060  141.0164  153.5806 C   0  0  0  0  0  0  0  0  0  0  0  0
  147.7887  140.4386  154.3438 N   0  0  0  0  0  0  0  0  0  0  0  0
  148.0551  139.0008  154.4572 C   0  0  0  0  0  0  0  0  0  0  0  0
  147.2124  138.3091  153.6906 F   0  0  0  0  0  0  0  0  0  0  0  0
  149.3165  138.7295  154.1259 F   0  0  0  0  0  0  0  0  0  0  0  0
  153.7888  141.6601  159.5214 C   0  0  0  0  0  0  0  0  0  0  0  0
  153.6346  141.5611  161.0502 C   0  0  0  0  0  0  0  0  0  0  0  0
  152.1992  142.2294  163.3902 H   0  0  0  0  0  0  0  0  0  0  0  0
  152.9145  143.8224  163.6227 H   0  0  0  0  0  0  0  0  0  0  0  0
  153.9267  142.3853  163.7006 H   0  0  0  0  0  0  0  0  0  0  0  0
  154.2384  143.5548  161.5423 H   0  0  0  0  0  0  0  0  0  0  0  0
  151.2437  143.1504  161.1645 H   0  0  0  0  0  0  0  0  0  0  0  0
  152.0861  144.6752  161.3029 H   0  0  0  0  0  0  0  0  0  0  0  0
  151.6069  144.1971  158.9265 H   0  0  0  0  0  0  0  0  0  0  0  0
  153.3200  144.2165  159.1811 H   0  0  0  0  0  0  0  0  0  0  0  0
  150.3272  143.0219  158.5662 H   0  0  0  0  0  0  0  0  0  0  0  0
  148.9433  140.6871  157.9112 H   0  0  0  0  0  0  0  0  0  0  0  0
  148.5329  142.3121  157.4379 H   0  0  0  0  0  0  0  0  0  0  0  0
  150.4400  141.8845  155.5539 H   0  0  0  0  0  0  0  0  0  0  0  0
  150.0187  140.2125  155.8331 H   0  0  0  0  0  0  0  0  0  0  0  0
  146.3441  143.1890  153.3398 H   0  0  0  0  0  0  0  0  0  0  0  0
  146.1182  140.4350  152.9837 H   0  0  0  0  0  0  0  0  0  0  0  0
  147.9055  138.6836  155.4898 H   0  0  0  0  0  0  0  0  0  0  0  0
  154.0016  140.6745  159.1052 H   0  0  0  0  0  0  0  0  0  0  0  0
  154.6520  142.2782  159.2701 H   0  0  0  0  0  0  0  0  0  0  0  0
  154.5389  141.1356  161.4863 H   0  0  0  0  0  0  0  0  0  0  0  0
  152.8238  140.8702  161.2864 H   0  0  0  0  0  0  0  0  0  0  0  0
  148.2870  143.4687  154.9348 H   0  0  0  0  0  0  0  0  0  0  0  0
  1  2  1  0  0  0  0
  1 21  1  0  0  0  0
  1 22  1  0  0  0  0
  1 23  1  0  0  0  0
  2 20  1  0  0  0  0
  2  3  1  0  0  0  0
  2 24  1  0  0  0  0
  3  4  1  0  0  0  0
  3 25  1  0  0  0  0
  3 26  1  0  0  0  0
  4  5  1  0  0  0  0
  4 27  1  0  0  0  0
  4 28  1  0  0  0  0
  5  6  1  0  0  0  0
  5 19  1  0  0  0  0
  6  7  2  0  0  0  0
  6  8  1  0  0  0  0
  8  9  1  0  0  0  0
  8 29  1  0  0  0  0
  9 10  1  0  0  0  0
  9 30  1  0  0  0  0
  9 31  1  0  0  0  0
 10 11  1  0  0  0  0
 10 32  1  0  0  0  0
 10 33  1  0  0  0  0
 11 15  1  0  0  0  0
 11 12  2  0  0  0  0
 12 13  1  0  0  0  0
 12 41  1  0  0  0  0
 13 14  2  0  0  0  0
 13 34  1  0  0  0  0
 14 15  1  0  0  0  0
 14 35  1  0  0  0  0
 15 16  1  0  0  0  0
 16 17  1  0  0  0  0
 16 18  1  0  0  0  0
 16 36  1  0  0  0  0
 19 20  1  0  0  0  0
 19 37  1  0  0  0  0
 19 38  1  0  0  0  0
 20 39  1  0  0  0  0
 20 40  1  0  0  0  0
M  CHG  1  12   1
M  END
> <s_m_source_file>
AV-unprocessed.smi

> <i_m_source_file_index>
1039

> <i_lp_mmshare_version>
43012

> <i_f3d_flags>
0

> <s_epik_input>
W0NIM11bQ0hdMVtDSDJdW0NIMl1OKFtDSDJdW0NIMl0xKUMoPU8pW05IXVtDSDJdW0NIMl1jMm5bY0hdW2NIXW4yW0NIXShGKUY=

> <s_epik_cmdline>
J2VwaWtfcHl0aG9uJywgJy1waCcsICc3LjAnLCAnLXRuJywgJzgnLCAnLW1hJywgJzIwMCcsICctbWV0YWxfYmluZGluZycsICctaW1hZScsICc8aW5maWxlLm1hZT4nLCAnLW9tYWUnLCAnPG91dGZpbGUubWFlPic=

> <r_lp_tautomer_probability>
1

> <r_epik_Ionization_Penalty>
1.09425

> <r_epik_Ionization_Penalty_Charging>
0

> <r_epik_Ionization_Penalty_Neutral>
1.09425

> <r_epik_State_Penalty>
1.15074

> <r_epik_Charging_Adjusted_Penalty>
1.15074

> <i_epik_Tot_Q>
1

> <i_epik_Tot_abs_Q>
1

> <r_epik_Metal_State_Penalty>
1.2388

> <b_epik_Metal_Only>
0

> <s_lp_Force_Field>
OPLS_2005

> <r_lp_Energy>
37.2769

> <b_lp_Chiralities_Consistent>
1

> <s_lp_Variant>
AV-unprocessed.smi:1039-2

> <Gold.Version>
5.8.1

> <Gold.Id.Protein>
6NUR|6NUR_protein|mol2

> <Gold.PLP.Fitness>
49.4175

> <Gold.PLP.PLP>
-41.5785

> <Gold.PLP.part.hbond>
-1.0000

> <Gold.PLP.part.metal>
0.0000

> <Gold.PLP.part.buried>
-6.3879

> <Gold.PLP.part.nonpolar>
-34.7087

> <Gold.PLP.part.repulsive>
0.2705

> <Gold.PLP.ligand.clash>
0.3711

> <Gold.PLP.ligand.torsion>
0.4178

> <Gold.PLP.Chemscore.Hbond>
2.0000

> <Gold.PLP.Chemscore.CHOScore>
1.0000

> <Gold.PLP.Chemscore.Metal>
0.0000

> <Gold.Chemscore.Hbonds>
donor molecule, donor type, donor heavy atom, donor atom, acceptor molecule, acceptor atom, score
      L1  H    12    41       P1  8028  2.00
      L1  C    14    35       P1 10175  1.00

> <Gold.PLP.Chemscore.Internal.Correction>
0.0457

> <Gold.Rescore>
     Score         DG    S(hbond)    S(metal)    S(lipo)     H(rot)  DE(clash)    DE(int)     intcor
     14.07     -15.97       0.97        0.00      97.13       1.61       0.57       1.33       ----

> <Gold.Chemscore.Fitness>
14.0673

> <Gold.Chemscore.DG>
-15.9700

> <Gold.Chemscore.ZeroCoef>
-5.4800

> <Gold.Chemscore.Hbond>
0.9686

> <Gold.Chemscore.Metal>
0.0000

> <Gold.Chemscore.Lipo>
97.1284

> <Gold.Chemscore.Internal_Hbond>
0.0000

> <Gold.Chemscore.DEClash>
0.5745

> <Gold.Chemscore.DEInternal>
1.3281

> <Gold.Chemscore.Rot>
1.6051

> <Gold.Chemscore.Internal.Correction>
   9.000000E+99

> <Gold.Chemscore.Hbonds>
donor molecule, donor type, donor heavy atom, donor atom, acceptor molecule, acceptor atom, score
      L1  H    12    41       P1  8028  0.91

> <Gold.Chemscore.Hbond.Weighted>
-3.2352

> <Gold.Chemscore.Metal.Weighted>
-0.0000

> <Gold.Chemscore.Lipo.Weighted>
-11.3640

> <Gold.Chemscore.Internal_Hbond.Weighted>
0.0000

> <Gold.Chemscore.DEClash.Weighted>
0.5745

> <Gold.Chemscore.DEInternal.Weighted>
1.3281

> <Gold.Chemscore.Rot.Weighted>
4.1092

> <Gold.Chemscore.Internal.Correction.Weighted>
   9.000000E+99

> <Gold.Protein.RotatedTorsions>
[ 6907 6896 6895 6894 ] final  -67.94 input  -60.11 | X-H torsion
[ 7974 7965 7964 7962 ] final   54.29 input  175.53 | X-H torsion
[ 8008 7997 7996 7995 ] final  171.81 input   59.86 | X-H torsion
[ 10167 10162 10161 10158 ] final  106.71 input  -65.29 | X-H torsion
[ 10718 10713 10712 10709 ] final  137.16 input   66.30 | X-H torsion
[ 10763 10752 10751 10750 ] final -149.47 input  -60.55 | X-H torsion
[ 11005 11000 10999 10996 ] final    6.82 input  -57.11 | X-H torsion

> <Gold.Protein.ActiveResidues>
 VAL166  LYS551  ARG553  GLY616  TRP617  ASP618  TYR619  PRO620  LYS621  CYS622 
 ASP623  PHE694  ASN695  SER759  ASP760  ASP761  ALA762  ILE779  LEU786  VAL792 
 PHE793  MET794  SER795  GLU796  ALA797  LYS798  CYS799  TRP800  GLU811  SER814 

> <Gold.Protein.RotatedAtoms>
  150.7383  134.5810  159.5938 H   0  0  0  0  0  0  0  0  0  0  0  0  # atno 6907 bound_to 6896
  152.3224  134.7361  160.0319 H   0  0  0  0  0  0  0  0  0  0  0  0  # atno 6908 bound_to 6896
  151.7872  133.3320  159.3525 H   0  0  0  0  0  0  0  0  0  0  0  0  # atno 6909 bound_to 6896
  145.9624  139.4071  143.0240 H   0  0  0  0  0  0  0  0  0  0  0  0  # atno 7974 bound_to 7965
  156.1235  140.1502  156.9169 H   0  0  0  0  0  0  0  0  0  0  0  0  # atno 8008 bound_to 7997
  154.4854  140.0867  156.7515 H   0  0  0  0  0  0  0  0  0  0  0  0  # atno 8009 bound_to 7997
  155.4385  140.3430  155.4289 H   0  0  0  0  0  0  0  0  0  0  0  0  # atno 8010 bound_to 7997
  139.6987  144.7097  151.1223 H   0  0  0  0  0  0  0  0  0  0  0  0  # atno 10167 bound_to 10162
  157.4391  131.1056  151.0164 H   0  0  0  0  0  0  0  0  0  0  0  0  # atno 10718 bound_to 10713
  154.8175  135.3308  154.7133 H   0  0  0  0  0  0  0  0  0  0  0  0  # atno 10763 bound_to 10752
  153.7771  135.6921  153.4900 H   0  0  0  0  0  0  0  0  0  0  0  0  # atno 10764 bound_to 10752
  153.2005  135.4518  155.0208 H   0  0  0  0  0  0  0  0  0  0  0  0  # atno 10765 bound_to 10752
  140.5552  134.0245  155.7951 H   0  0  0  0  0  0  0  0  0  0  0  0  # atno 11005 bound_to 11000
  145.8021  140.9766  143.0993 LP  0  0  0  0  0  0  0  0  0  0  0  0  # atno 17320 bound_to 7965
  144.6818  139.9815  143.7483 LP  0  0  0  0  0  0  0  0  0  0  0  0  # atno 17321 bound_to 7965
  140.7703  143.5455  150.9264 LP  0  0  0  0  0  0  0  0  0  0  0  0  # atno 17342 bound_to 10162
  139.9135  143.6691  152.3110 LP  0  0  0  0  0  0  0  0  0  0  0  0  # atno 17343 bound_to 10162
  157.1034  130.5991  149.5465 LP  0  0  0  0  0  0  0  0  0  0  0  0  # atno 17370 bound_to 10713
  155.9941  130.5005  150.7409 LP  0  0  0  0  0  0  0  0  0  0  0  0  # atno 17371 bound_to 10713
  141.1148  133.9558  157.2843 LP  0  0  0  0  0  0  0  0  0  0  0  0  # atno 17394 bound_to 11000
  139.9435  135.0187  156.8781 LP  0  0  0  0  0  0  0  0  0  0  0  0  # atno 17395 bound_to 11000

$$$$
