AV-unprocessed.smi:2822|AV-procd|sdf|10880|dock8
  -GOLD-   2272015323D 1   1.00000     0.00000
 Structure written by MMmdl.
 39 41  0  0  0  0  0  0  0  0  1 V2000
  150.9539  143.2497  156.4968 Cl  0  0  0  0  0  0  0  0  0  0  0  0
  150.9493  141.6588  155.8188 C   0  0  0  0  0  0  0  0  0  0  0  0
  152.0442  140.7998  156.0458 C   0  0  0  0  0  0  0  0  0  0  0  0
  152.1207  139.5452  155.5544 N   0  0  0  0  0  0  0  0  0  0  0  0
  151.0890  139.1003  154.8074 C   0  0  0  0  0  0  0  0  0  0  0  0
  149.9481  139.8755  154.5190 C   0  0  0  0  0  0  0  0  0  0  0  0
  149.8692  141.1907  155.0352 C   0  0  0  0  0  0  0  0  0  0  0  0
  148.7689  142.0294  154.7997 N   0  0  0  0  0  0  0  0  0  0  0  0
  147.7185  141.6425  153.8704 C   0  0  0  0  0  0  0  0  0  0  0  0
  146.3403  142.1259  154.3416 C   0  0  2  0  0  0  0  0  0  0  0  0
  145.8469  143.3260  153.5120 C   0  0  0  0  0  0  0  0  0  0  0  0
  144.5773  143.8458  154.0044 N   0  0  0  0  0  0  0  0  0  0  0  0
  144.1297  144.9912  153.2137 C   0  0  0  0  0  0  0  0  0  0  0  0
  142.7746  145.5386  153.6899 C   0  0  0  0  0  0  0  0  0  0  0  0
  142.8443  145.9137  155.1769 C   0  0  0  0  0  0  0  0  0  0  0  0
  143.3673  144.7243  155.9971 C   0  0  0  0  0  0  0  0  0  0  0  0
  144.6992  144.1997  155.4218 C   0  0  1  0  0  0  0  0  0  0  0  0
  145.2144  143.0013  156.2443 C   0  0  0  0  0  0  0  0  0  0  0  0
  146.4465  142.5361  155.7028 O   0  0  0  0  0  0  0  0  0  0  0  0
  152.8841  141.1295  156.6395 H   0  0  0  0  0  0  0  0  0  0  0  0
  151.1740  138.0930  154.4272 H   0  0  0  0  0  0  0  0  0  0  0  0
  149.1611  139.4505  153.9144 H   0  0  0  0  0  0  0  0  0  0  0  0
  148.8060  142.9900  155.1101 H   0  0  0  0  0  0  0  0  0  0  0  0
  147.9362  142.0384  152.8776 H   0  0  0  0  0  0  0  0  0  0  0  0
  147.7114  140.5547  153.7932 H   0  0  0  0  0  0  0  0  0  0  0  0
  145.6195  141.3096  154.2603 H   0  0  0  0  0  0  0  0  0  0  0  0
  146.6011  144.1145  153.5327 H   0  0  0  0  0  0  0  0  0  0  0  0
  145.7394  143.0258  152.4689 H   0  0  0  0  0  0  0  0  0  0  0  0
  144.8763  145.7859  153.2576 H   0  0  0  0  0  0  0  0  0  0  0  0
  144.0481  144.7028  152.1651 H   0  0  0  0  0  0  0  0  0  0  0  0
  142.4892  146.4070  153.0957 H   0  0  0  0  0  0  0  0  0  0  0  0
  142.0007  144.7857  153.5355 H   0  0  0  0  0  0  0  0  0  0  0  0
  143.5086  146.7689  155.3077 H   0  0  0  0  0  0  0  0  0  0  0  0
  141.8625  146.2216  155.5376 H   0  0  0  0  0  0  0  0  0  0  0  0
  143.4966  145.0236  157.0379 H   0  0  0  0  0  0  0  0  0  0  0  0
  142.6241  143.9257  155.9935 H   0  0  0  0  0  0  0  0  0  0  0  0
  145.4365  144.9989  155.5151 H   0  0  0  0  0  0  0  0  0  0  0  0
  145.3766  143.2931  157.2821 H   0  0  0  0  0  0  0  0  0  0  0  0
  144.4855  142.1890  156.2510 H   0  0  0  0  0  0  0  0  0  0  0  0
  1  2  1  0  0  0  0
  2  7  1  0  0  0  0
  2  3  2  0  0  0  0
  3  4  1  0  0  0  0
  3 20  1  0  0  0  0
  4  5  2  0  0  0  0
  5  6  1  0  0  0  0
  5 21  1  0  0  0  0
  6  7  2  0  0  0  0
  6 22  1  0  0  0  0
  7  8  1  0  0  0  0
  8  9  1  0  0  0  0
  8 23  1  0  0  0  0
  9 10  1  0  0  0  0
  9 24  1  0  0  0  0
  9 25  1  0  0  0  0
 10 19  1  0  0  0  0
 10 11  1  0  0  0  0
 10 26  1  0  0  0  0
 11 12  1  0  0  0  0
 11 27  1  0  0  0  0
 11 28  1  0  0  0  0
 12 17  1  0  0  0  0
 12 13  1  0  0  0  0
 13 14  1  0  0  0  0
 13 29  1  0  0  0  0
 13 30  1  0  0  0  0
 14 15  1  0  0  0  0
 14 31  1  0  0  0  0
 14 32  1  0  0  0  0
 15 16  1  0  0  0  0
 15 33  1  0  0  0  0
 15 34  1  0  0  0  0
 16 17  1  0  0  0  0
 16 35  1  0  0  0  0
 16 36  1  0  0  0  0
 17 18  1  0  0  0  0
 17 37  1  0  0  0  0
 18 19  1  0  0  0  0
 18 38  1  0  0  0  0
 18 39  1  0  0  0  0
M  END
> <s_m_source_file>
AV-unprocessed.smi

> <i_m_source_file_index>
2822

> <i_lp_mmshare_version>
43012

> <i_f3d_flags>
0

> <s_epik_input>
Q2xjMVtjSF1uW2NIXVtjSF1jMVtOSF1bQ0gyXVtDQEhdKFtDSDJdMilPW0NIMl1bQ0BASF0oTjIzKVtDSDJdW0NIMl1bQ0gyXVtDSDJdMw==

> <s_epik_cmdline>
J2VwaWtfcHl0aG9uJywgJy1waCcsICc3LjAnLCAnLXRuJywgJzgnLCAnLW1hJywgJzIwMCcsICctbWV0YWxfYmluZGluZycsICctaW1hZScsICc8aW5maWxlLm1hZT4nLCAnLW9tYWUnLCAnPG91dGZpbGUubWFlPic=

> <r_lp_tautomer_probability>
0.999999

> <r_epik_Ionization_Penalty>
2.10064

> <r_epik_Ionization_Penalty_Charging>
0

> <r_epik_Ionization_Penalty_Neutral>
2.10064

> <r_epik_State_Penalty>
2.1757

> <r_epik_Charging_Adjusted_Penalty>
2.1757

> <i_epik_Tot_Q>
0

> <i_epik_Tot_abs_Q>
0

> <r_epik_Metal_State_Penalty>
1.25425

> <b_epik_Metal_Only>
0

> <s_lp_Force_Field>
OPLS_2005

> <r_lp_Energy>
37.6936

> <b_lp_Chiralities_Consistent>
1

> <s_lp_Variant>
AV-unprocessed.smi:2822-21

> <Gold.Version>
5.8.1

> <Gold.Id.Protein>
6NUR|6NUR_protein|mol2

> <Gold.PLP.Fitness>
41.2721

> <Gold.PLP.PLP>
-39.9532

> <Gold.PLP.part.hbond>
-1.0000

> <Gold.PLP.part.metal>
0.0000

> <Gold.PLP.part.buried>
-4.3153

> <Gold.PLP.part.nonpolar>
-34.0301

> <Gold.PLP.part.repulsive>
0.5180

> <Gold.PLP.ligand.clash>
0.0000

> <Gold.PLP.ligand.torsion>
0.8407

> <Gold.PLP.Chemscore.Hbond>
1.0000

> <Gold.PLP.Chemscore.CHOScore>
0.0000

> <Gold.PLP.Chemscore.Metal>
0.0000

> <Gold.Chemscore.Hbonds>
donor molecule, donor type, donor heavy atom, donor atom, acceptor molecule, acceptor atom, score
      L1  H     8    23       P1  8028  1.00

> <Gold.PLP.Chemscore.Internal.Correction>
0.0004

> <Gold.Rescore>
     Score         DG    S(hbond)    S(metal)    S(lipo)     H(rot)  DE(clash)    DE(int)     intcor
     16.30     -17.16       0.99        0.00      96.76       1.15       0.13       0.73       ----

> <Gold.Chemscore.Fitness>
16.3032

> <Gold.Chemscore.DG>
-17.1646

> <Gold.Chemscore.ZeroCoef>
-5.4800

> <Gold.Chemscore.Hbond>
0.9918

> <Gold.Chemscore.Metal>
0.0000

> <Gold.Chemscore.Lipo>
96.7595

> <Gold.Chemscore.Internal_Hbond>
0.0000

> <Gold.Chemscore.DEClash>
0.1286

> <Gold.Chemscore.DEInternal>
0.7328

> <Gold.Chemscore.Rot>
1.1519

> <Gold.Chemscore.Internal.Correction>
   9.000000E+99

> <Gold.Chemscore.Hbonds>
donor molecule, donor type, donor heavy atom, donor atom, acceptor molecule, acceptor atom, score
      L1  H     8    23       P1  8028  1.00

> <Gold.Chemscore.Hbond.Weighted>
-3.3125

> <Gold.Chemscore.Metal.Weighted>
-0.0000

> <Gold.Chemscore.Lipo.Weighted>
-11.3209

> <Gold.Chemscore.Internal_Hbond.Weighted>
0.0000

> <Gold.Chemscore.DEClash.Weighted>
0.1286

> <Gold.Chemscore.DEInternal.Weighted>
0.7328

> <Gold.Chemscore.Rot.Weighted>
2.9487

> <Gold.Chemscore.Internal.Correction.Weighted>
   9.000000E+99

> <Gold.Protein.RotatedTorsions>
[ 6907 6896 6895 6894 ] final  -52.71 input  -60.11 | X-H torsion
[ 7974 7965 7964 7962 ] final  -17.21 input  175.53 | X-H torsion
[ 8008 7997 7996 7995 ] final  163.13 input   59.86 | X-H torsion
[ 10167 10162 10161 10158 ] final   27.10 input  -65.29 | X-H torsion
[ 10718 10713 10712 10709 ] final   73.19 input   66.30 | X-H torsion
[ 10763 10752 10751 10750 ] final    4.10 input  -60.55 | X-H torsion
[ 11005 11000 10999 10996 ] final  -69.23 input  -57.11 | X-H torsion

> <Gold.Protein.ActiveResidues>
 VAL166  LYS551  ARG553  GLY616  TRP617  ASP618  TYR619  PRO620  LYS621  CYS622 
 ASP623  PHE694  ASN695  SER759  ASP760  ASP761  ALA762  ILE779  LEU786  VAL792 
 PHE793  MET794  SER795  GLU796  ALA797  LYS798  CYS799  TRP800  GLU811  SER814 

> <Gold.Protein.RotatedAtoms>
  150.8493  134.7813  159.6995 H   0  0  0  0  0  0  0  0  0  0  0  0  # atno 6907 bound_to 6896
  152.4562  134.5283  159.9813 H   0  0  0  0  0  0  0  0  0  0  0  0  # atno 6908 bound_to 6896
  151.5407  133.3395  159.2970 H   0  0  0  0  0  0  0  0  0  0  0  0  # atno 6909 bound_to 6896
  146.1951  140.3747  142.8443 H   0  0  0  0  0  0  0  0  0  0  0  0  # atno 7974 bound_to 7965
  156.1980  140.1732  156.7959 H   0  0  0  0  0  0  0  0  0  0  0  0  # atno 8008 bound_to 7997
  154.5554  140.0709  156.8766 H   0  0  0  0  0  0  0  0  0  0  0  0  # atno 8009 bound_to 7997
  155.2948  140.3357  155.4253 H   0  0  0  0  0  0  0  0  0  0  0  0  # atno 8010 bound_to 7997
  140.4967  144.0381  150.6317 H   0  0  0  0  0  0  0  0  0  0  0  0  # atno 10167 bound_to 10162
  157.6536  130.9616  150.1035 H   0  0  0  0  0  0  0  0  0  0  0  0  # atno 10718 bound_to 10713
  153.2753  135.6936  153.7440 H   0  0  0  0  0  0  0  0  0  0  0  0  # atno 10763 bound_to 10752
  153.6447  135.3387  155.3083 H   0  0  0  0  0  0  0  0  0  0  0  0  # atno 10764 bound_to 10752
  154.8477  135.4440  154.1789 H   0  0  0  0  0  0  0  0  0  0  0  0  # atno 10765 bound_to 10752
  141.1549  133.6759  156.6568 H   0  0  0  0  0  0  0  0  0  0  0  0  # atno 11005 bound_to 11000
  144.8565  140.7078  143.6135 LP  0  0  0  0  0  0  0  0  0  0  0  0  # atno 17320 bound_to 7965
  145.3668  139.1668  143.4354 LP  0  0  0  0  0  0  0  0  0  0  0  0  # atno 17321 bound_to 7965
  140.3665  143.2878  152.0326 LP  0  0  0  0  0  0  0  0  0  0  0  0  # atno 17342 bound_to 10162
  139.4863  144.6263  151.7158 LP  0  0  0  0  0  0  0  0  0  0  0  0  # atno 17343 bound_to 10162
  156.1951  130.3657  149.8860 LP  0  0  0  0  0  0  0  0  0  0  0  0  # atno 17370 bound_to 10713
  156.6778  130.8846  151.3571 LP  0  0  0  0  0  0  0  0  0  0  0  0  # atno 17371 bound_to 10713
  140.3278  134.7954  157.4303 LP  0  0  0  0  0  0  0  0  0  0  0  0  # atno 17394 bound_to 11000
  140.1042  134.5432  155.8324 LP  0  0  0  0  0  0  0  0  0  0  0  0  # atno 17395 bound_to 11000

$$$$
