AV-unprocessed.smi:3289|AV-procd|sdf|12609|dock7
  -GOLD-   2272018543D 1   1.00000     0.00000
 Structure written by MMmdl.
 39 40  0  0  0  0  0  0  0  0  1 V2000
  151.2380  139.2808  154.3030 C   0  0  0  0  0  0  0  0  0  0  0  0
  149.8795  138.7483  154.7805 C   0  0  0  0  0  0  0  0  0  0  0  0
  149.7698  137.2247  154.6174 C   0  0  0  0  0  0  0  0  0  0  0  0
  148.7390  139.4613  154.1049 C   0  0  0  0  0  0  0  0  0  0  0  0
  147.8458  138.8401  153.3378 N   0  0  0  0  0  0  0  0  0  0  0  0
  146.9772  139.8372  152.9124 C   0  0  0  0  0  0  0  0  0  0  0  0
  147.3810  141.0418  153.4326 C   0  0  0  0  0  0  0  0  0  0  0  0
  148.5190  140.7927  154.1909 N   0  0  0  0  0  0  0  0  0  0  0  0
  149.2795  141.8070  154.9103 C   0  0  0  0  0  0  0  0  0  0  0  0
  149.5944  141.4014  156.3558 C   0  0  0  0  0  0  0  0  0  0  0  0
  148.7818  140.7632  157.0265 O   0  0  0  0  0  0  0  0  0  0  0  0
  150.7947  141.7784  156.8217 N   0  0  0  0  0  0  0  0  0  0  0  0
  151.2976  141.5110  158.1645 C   0  0  0  0  0  0  0  0  0  0  0  0
  151.0822  142.7133  159.0990 C   0  0  2  0  0  0  0  0  0  0  0  0
  151.8677  143.9569  158.6848 C   0  0  0  0  0  0  0  0  0  0  0  0
  151.9881  144.6952  159.9981 C   0  0  0  0  0  0  0  0  0  0  0  0
  152.2093  143.5470  160.9772 C   0  0  0  0  0  0  0  0  0  0  0  0
  151.5292  142.4241  160.4226 O   0  0  0  0  0  0  0  0  0  0  0  0
  151.3232  140.3526  154.4846 H   0  0  0  0  0  0  0  0  0  0  0  0
  151.3782  139.1111  153.2349 H   0  0  0  0  0  0  0  0  0  0  0  0
  152.0586  138.7910  154.8277 H   0  0  0  0  0  0  0  0  0  0  0  0
  149.8279  138.9395  155.8507 H   0  0  0  0  0  0  0  0  0  0  0  0
  148.8239  136.8559  155.0153 H   0  0  0  0  0  0  0  0  0  0  0  0
  150.5723  136.7139  155.1498 H   0  0  0  0  0  0  0  0  0  0  0  0
  149.8272  136.9303  153.5690 H   0  0  0  0  0  0  0  0  0  0  0  0
  146.1380  139.6130  152.2707 H   0  0  0  0  0  0  0  0  0  0  0  0
  146.9651  142.0328  153.3261 H   0  0  0  0  0  0  0  0  0  0  0  0
  150.2028  142.0220  154.3724 H   0  0  0  0  0  0  0  0  0  0  0  0
  148.7014  142.7324  154.9106 H   0  0  0  0  0  0  0  0  0  0  0  0
  151.4011  142.2973  156.2033 H   0  0  0  0  0  0  0  0  0  0  0  0
  150.8408  140.6115  158.5808 H   0  0  0  0  0  0  0  0  0  0  0  0
  152.3644  141.3024  158.0800 H   0  0  0  0  0  0  0  0  0  0  0  0
  150.0219  142.9659  159.1512 H   0  0  0  0  0  0  0  0  0  0  0  0
  152.8592  143.6835  158.3205 H   0  0  0  0  0  0  0  0  0  0  0  0
  151.3669  144.5384  157.9102 H   0  0  0  0  0  0  0  0  0  0  0  0
  152.7958  145.4273  160.0092 H   0  0  0  0  0  0  0  0  0  0  0  0
  151.0539  145.2105  160.2255 H   0  0  0  0  0  0  0  0  0  0  0  0
  153.2706  143.3060  161.0496 H   0  0  0  0  0  0  0  0  0  0  0  0
  151.8456  143.7784  161.9785 H   0  0  0  0  0  0  0  0  0  0  0  0
  1  2  1  0  0  0  0
  1 19  1  0  0  0  0
  1 20  1  0  0  0  0
  1 21  1  0  0  0  0
  2  3  1  0  0  0  0
  2  4  1  0  0  0  0
  2 22  1  0  0  0  0
  3 23  1  0  0  0  0
  3 24  1  0  0  0  0
  3 25  1  0  0  0  0
  4  8  1  0  0  0  0
  4  5  2  0  0  0  0
  5  6  1  0  0  0  0
  6  7  2  0  0  0  0
  6 26  1  0  0  0  0
  7  8  1  0  0  0  0
  7 27  1  0  0  0  0
  8  9  1  0  0  0  0
  9 10  1  0  0  0  0
  9 28  1  0  0  0  0
  9 29  1  0  0  0  0
 10 11  2  0  0  0  0
 10 12  1  0  0  0  0
 12 13  1  0  0  0  0
 12 30  1  0  0  0  0
 13 14  1  0  0  0  0
 13 31  1  0  0  0  0
 13 32  1  0  0  0  0
 14 18  1  0  0  0  0
 14 15  1  0  0  0  0
 14 33  1  0  0  0  0
 15 16  1  0  0  0  0
 15 34  1  0  0  0  0
 15 35  1  0  0  0  0
 16 17  1  0  0  0  0
 16 36  1  0  0  0  0
 16 37  1  0  0  0  0
 17 18  1  0  0  0  0
 17 38  1  0  0  0  0
 17 39  1  0  0  0  0
M  END
> <s_m_source_file>
AV-unprocessed.smi

> <i_m_source_file_index>
3289

> <i_lp_mmshare_version>
43012

> <i_f3d_flags>
0

> <s_epik_input>
W0NIM11bQ0hdKFtDSDNdKWMxbltjSF1bY0hdbjFbQ0gyXUMoPU8pW05IXVtDSDJdW0NAQEhdMltDSDJdW0NIMl1bQ0gyXU8y

> <s_epik_cmdline>
J2VwaWtfcHl0aG9uJywgJy1waCcsICc3LjAnLCAnLXRuJywgJzgnLCAnLW1hJywgJzIwMCcsICctbWV0YWxfYmluZGluZycsICctaW1hZScsICc8aW5maWxlLm1hZT4nLCAnLW9tYWUnLCAnPG91dGZpbGUubWFlPic=

> <r_lp_tautomer_probability>
1

> <r_epik_Ionization_Penalty>
0.587725

> <r_epik_Ionization_Penalty_Charging>
0.587725

> <r_epik_Ionization_Penalty_Neutral>
1.43432e-07

> <r_epik_State_Penalty>
0.601029

> <r_epik_Charging_Adjusted_Penalty>
1.18875

> <i_epik_Tot_Q>
0

> <i_epik_Tot_abs_Q>
0

> <r_epik_Metal_State_Penalty>
0.297663

> <b_epik_Metal_Only>
0

> <s_lp_Force_Field>
OPLS_2005

> <r_lp_Energy>
18.7222

> <b_lp_Chiralities_Consistent>
1

> <s_lp_Variant>
AV-unprocessed.smi:3289-3

> <Gold.Version>
5.8.1

> <Gold.Id.Protein>
6NUR|6NUR_protein|mol2

> <Gold.PLP.Fitness>
38.3031

> <Gold.PLP.PLP>
-36.8236

> <Gold.PLP.part.hbond>
-0.3503

> <Gold.PLP.part.metal>
0.0000

> <Gold.PLP.part.buried>
-2.5574

> <Gold.PLP.part.nonpolar>
-33.6320

> <Gold.PLP.part.repulsive>
0.3640

> <Gold.PLP.ligand.clash>
0.0000

> <Gold.PLP.ligand.torsion>
0.6794

> <Gold.PLP.Chemscore.Hbond>
0.0000

> <Gold.PLP.Chemscore.CHOScore>
0.9274

> <Gold.PLP.Chemscore.Metal>
0.0000

> <Gold.Chemscore.Hbonds>
donor molecule, donor type, donor heavy atom, donor atom, acceptor molecule, acceptor atom, score
      L1  C     6    26       P1 10175  0.80

> <Gold.PLP.Chemscore.Internal.Correction>
0.0561

> <Gold.Rescore>
     Score         DG    S(hbond)    S(metal)    S(lipo)     H(rot)  DE(clash)    DE(int)     intcor
     11.86     -12.54       0.00        0.00      97.90       1.72       0.03       0.65       ----

> <Gold.Chemscore.Fitness>
11.8613

> <Gold.Chemscore.DG>
-12.5374

> <Gold.Chemscore.ZeroCoef>
-5.4800

> <Gold.Chemscore.Hbond>
0.0000

> <Gold.Chemscore.Metal>
0.0000

> <Gold.Chemscore.Lipo>
97.8986

> <Gold.Chemscore.Internal_Hbond>
0.0000

> <Gold.Chemscore.DEClash>
0.0309

> <Gold.Chemscore.DEInternal>
0.6452

> <Gold.Chemscore.Rot>
1.7175

> <Gold.Chemscore.Internal.Correction>
   9.000000E+99

> <Gold.Chemscore.Hbond.Weighted>
-0.0000

> <Gold.Chemscore.Metal.Weighted>
-0.0000

> <Gold.Chemscore.Lipo.Weighted>
-11.4541

> <Gold.Chemscore.Internal_Hbond.Weighted>
0.0000

> <Gold.Chemscore.DEClash.Weighted>
0.0309

> <Gold.Chemscore.DEInternal.Weighted>
0.6452

> <Gold.Chemscore.Rot.Weighted>
4.3967

> <Gold.Chemscore.Internal.Correction.Weighted>
   9.000000E+99

> <Gold.Protein.RotatedTorsions>
[ 6907 6896 6895 6894 ] final   91.26 input  -60.11 | X-H torsion
[ 7974 7965 7964 7962 ] final   83.13 input  175.53 | X-H torsion
[ 8008 7997 7996 7995 ] final  -32.73 input   59.86 | X-H torsion
[ 10167 10162 10161 10158 ] final  -36.64 input  -65.29 | X-H torsion
[ 10718 10713 10712 10709 ] final   -2.93 input   66.30 | X-H torsion
[ 10763 10752 10751 10750 ] final  -29.17 input  -60.55 | X-H torsion
[ 11005 11000 10999 10996 ] final   59.84 input  -57.11 | X-H torsion

> <Gold.Protein.ActiveResidues>
 VAL166  LYS551  ARG553  GLY616  TRP617  ASP618  TYR619  PRO620  LYS621  CYS622 
 ASP623  PHE694  ASN695  SER759  ASP760  ASP761  ALA762  ILE779  LEU786  VAL792 
 PHE793  MET794  SER795  GLU796  ALA797  LYS798  CYS799  TRP800  GLU811  SER814 

> <Gold.Protein.RotatedAtoms>
  152.5449  134.1684  159.8586 H   0  0  0  0  0  0  0  0  0  0  0  0  # atno 6907 bound_to 6896
  151.1696  133.4785  159.2601 H   0  0  0  0  0  0  0  0  0  0  0  0  # atno 6908 bound_to 6896
  151.1288  135.0130  159.8628 H   0  0  0  0  0  0  0  0  0  0  0  0  # atno 6909 bound_to 6896
  145.6160  139.2377  143.2165 H   0  0  0  0  0  0  0  0  0  0  0  0  # atno 7974 bound_to 7965
  154.4171  140.1730  156.1773 H   0  0  0  0  0  0  0  0  0  0  0  0  # atno 8008 bound_to 7997
  155.9711  140.3385  155.6552 H   0  0  0  0  0  0  0  0  0  0  0  0  # atno 8009 bound_to 7997
  155.6624  140.0702  157.2540 H   0  0  0  0  0  0  0  0  0  0  0  0  # atno 8010 bound_to 7997
  140.7138  143.3395  151.2389 H   0  0  0  0  0  0  0  0  0  0  0  0  # atno 10167 bound_to 10162
  156.7835  130.5338  149.5747 H   0  0  0  0  0  0  0  0  0  0  0  0  # atno 10718 bound_to 10713
  153.7603  135.6920  153.4927 H   0  0  0  0  0  0  0  0  0  0  0  0  # atno 10763 bound_to 10752
  153.1943  135.4459  155.0187 H   0  0  0  0  0  0  0  0  0  0  0  0  # atno 10764 bound_to 10752
  154.8155  135.3397  154.7118 H   0  0  0  0  0  0  0  0  0  0  0  0  # atno 10765 bound_to 10752
  140.0275  134.6061  155.9553 H   0  0  0  0  0  0  0  0  0  0  0  0  # atno 11005 bound_to 11000
  146.1468  140.6981  142.9341 LP  0  0  0  0  0  0  0  0  0  0  0  0  # atno 17320 bound_to 7965
  144.7250  140.4497  143.6979 LP  0  0  0  0  0  0  0  0  0  0  0  0  # atno 17321 bound_to 7965
  139.6899  143.9710  152.2853 LP  0  0  0  0  0  0  0  0  0  0  0  0  # atno 17342 bound_to 10162
  139.9368  144.6707  150.8306 LP  0  0  0  0  0  0  0  0  0  0  0  0  # atno 17343 bound_to 10162
  156.1203  130.6105  151.0183 LP  0  0  0  0  0  0  0  0  0  0  0  0  # atno 17370 bound_to 10713
  157.6635  131.0876  150.7783 LP  0  0  0  0  0  0  0  0  0  0  0  0  # atno 17371 bound_to 10713
  141.1811  133.6547  156.5025 LP  0  0  0  0  0  0  0  0  0  0  0  0  # atno 17394 bound_to 11000
  140.4282  134.7126  157.4927 LP  0  0  0  0  0  0  0  0  0  0  0  0  # atno 17395 bound_to 11000

$$$$
