AV-unprocessed.smi:645|AV-procd|sdf|3159|dock3
  -GOLD-   22720 0 83D 1   1.00000     0.00000
 Structure written by MMmdl.
 23 24  0  0  0  0  0  0  0  0  1 V2000
  144.9019  138.7296  155.2260 C   0  0  0  0  0  0  0  0  0  0  0  0
  144.8523  137.7123  154.0680 C   0  0  1  0  0  0  0  0  0  0  0  0
  143.5628  136.8762  154.0776 C   0  0  0  0  0  0  0  0  0  0  0  0
  143.5826  135.4604  154.0488 C   0  0  0  0  0  0  0  0  0  0  0  0
  142.3596  134.7604  154.0524 C   0  0  0  0  0  0  0  0  0  0  0  0
  141.1554  135.3677  154.0804 N   0  0  0  0  0  0  0  0  0  0  0  0
  141.1339  136.7163  154.1064 C   0  0  0  0  0  0  0  0  0  0  0  0
  142.2981  137.5092  154.1044 C   0  0  0  0  0  0  0  0  0  0  0  0
  145.0999  138.3922  152.8028 N   0  0  0  0  0  0  0  0  0  0  0  0
  146.1872  137.9377  152.1659 C   0  0  0  0  0  0  0  0  0  0  0  0
  146.5991  138.3225  151.0742 O   0  0  0  0  0  0  0  0  0  0  0  0
  146.7488  136.9996  152.9330 N   0  0  0  0  0  0  0  0  0  0  0  0
  146.0781  136.8015  154.0666 C   0  0  0  0  0  0  0  0  0  0  0  0
  146.3856  136.0274  154.9721 O   0  0  0  0  0  0  0  0  0  0  0  0
  144.8456  138.2432  156.2001 H   0  0  0  0  0  0  0  0  0  0  0  0
  144.0715  139.4334  155.1618 H   0  0  0  0  0  0  0  0  0  0  0  0
  145.8251  139.3109  155.2093 H   0  0  0  0  0  0  0  0  0  0  0  0
  144.5065  134.9024  154.0248 H   0  0  0  0  0  0  0  0  0  0  0  0
  142.3496  133.6806  154.0313 H   0  0  0  0  0  0  0  0  0  0  0  0
  140.1588  137.1794  154.1296 H   0  0  0  0  0  0  0  0  0  0  0  0
  142.2139  138.5855  154.1296 H   0  0  0  0  0  0  0  0  0  0  0  0
  144.4874  139.1085  152.4409 H   0  0  0  0  0  0  0  0  0  0  0  0
  147.5957  136.5074  152.6885 H   0  0  0  0  0  0  0  0  0  0  0  0
  1  2  1  0  0  0  0
  1 15  1  0  0  0  0
  1 16  1  0  0  0  0
  1 17  1  0  0  0  0
  2 13  1  0  0  0  0
  2  3  1  0  0  0  0
  2  9  1  0  0  0  0
  3  8  1  0  0  0  0
  3  4  2  0  0  0  0
  4  5  1  0  0  0  0
  4 18  1  0  0  0  0
  5  6  2  0  0  0  0
  5 19  1  0  0  0  0
  6  7  1  0  0  0  0
  7  8  2  0  0  0  0
  7 20  1  0  0  0  0
  8 21  1  0  0  0  0
  9 10  1  0  0  0  0
  9 22  1  0  0  0  0
 10 11  2  0  0  0  0
 10 12  1  0  0  0  0
 12 13  1  0  0  0  0
 12 23  1  0  0  0  0
 13 14  2  0  0  0  0
M  END
> <s_m_source_file>
AV-unprocessed.smi

> <i_m_source_file_index>
645

> <i_lp_mmshare_version>
43012

> <i_f3d_flags>
0

> <s_epik_input>
Tz1DMVtOSF1DKD1PKVtOSF1bQ0BAXTEoW0NIM10pYzJbY0hdW2NIXW5bY0hdW2NIXTI=

> <s_epik_cmdline>
J2VwaWtfcHl0aG9uJywgJy1waCcsICc3LjAnLCAnLXRuJywgJzgnLCAnLW1hJywgJzIwMCcsICctbWV0YWxfYmluZGluZycsICctaW1hZScsICc8aW5maWxlLm1hZT4nLCAnLW9tYWUnLCAnPG91dGZpbGUubWFlPic=

> <r_lp_tautomer_probability>
1

> <r_epik_Ionization_Penalty>
0.0327402

> <r_epik_Ionization_Penalty_Charging>
0

> <r_epik_Ionization_Penalty_Neutral>
0.0327402

> <r_epik_State_Penalty>
0.022996

> <r_epik_Charging_Adjusted_Penalty>
0.022996

> <i_epik_Tot_Q>
0

> <i_epik_Tot_abs_Q>
0

> <r_epik_Metal_State_Penalty>
0.426243

> <b_epik_Metal_Only>
0

> <s_lp_Force_Field>
OPLS_2005

> <r_lp_Energy>
18.0362

> <b_lp_Chiralities_Consistent>
1

> <s_lp_Variant>
AV-unprocessed.smi:645-1

> <Gold.Version>
5.8.1

> <Gold.Id.Protein>
6NUR|6NUR_protein|mol2

> <Gold.PLP.Fitness>
28.3548

> <Gold.PLP.PLP>
-16.0548

> <Gold.PLP.part.hbond>
-3.9422

> <Gold.PLP.part.metal>
0.0000

> <Gold.PLP.part.buried>
-3.9586

> <Gold.PLP.part.nonpolar>
-10.9603

> <Gold.PLP.part.repulsive>
1.1744

> <Gold.PLP.ligand.clash>
0.0000

> <Gold.PLP.ligand.torsion>
0.1823

> <Gold.PLP.Chemscore.Hbond>
3.1820

> <Gold.PLP.Chemscore.CHOScore>
1.0000

> <Gold.PLP.Chemscore.Metal>
0.0000

> <Gold.Chemscore.Hbonds>
donor molecule, donor type, donor heavy atom, donor atom, acceptor molecule, acceptor atom, score
      L1  H     9    22       P1 10175  1.00
      L1  H    12    23       P1  7948  1.00
      P1  H  7954  7966       L1    11  1.00
      P1  H 11000 11005       L1     6  0.72
      L1  C     5    19       P1 10957  1.00

> <Gold.PLP.Chemscore.Internal.Correction>
0.1187

> <Gold.Rescore>
     Score         DG    S(hbond)    S(metal)    S(lipo)     H(rot)  DE(clash)    DE(int)     intcor
     15.03     -15.96       3.18        0.00      20.72       1.00       0.13       0.80       ----

> <Gold.Chemscore.Fitness>
15.0322

> <Gold.Chemscore.DG>
-15.9551

> <Gold.Chemscore.ZeroCoef>
-5.4800

> <Gold.Chemscore.Hbond>
3.1770

> <Gold.Chemscore.Metal>
0.0000

> <Gold.Chemscore.Lipo>
20.7169

> <Gold.Chemscore.Internal_Hbond>
0.0000

> <Gold.Chemscore.DEClash>
0.1263

> <Gold.Chemscore.DEInternal>
0.7966

> <Gold.Chemscore.Rot>
1.0000

> <Gold.Chemscore.Internal.Correction>
   9.000000E+99

> <Gold.Chemscore.Hbonds>
donor molecule, donor type, donor heavy atom, donor atom, acceptor molecule, acceptor atom, score
      L1  H     9    22       P1 10175  0.96
      L1  H    12    23       P1  7948  0.97
      P1  H  7954  7966       L1    11  0.94
      P1  H 11000 11005       L1     6  0.17

> <Gold.Chemscore.Hbond.Weighted>
-10.6112

> <Gold.Chemscore.Metal.Weighted>
-0.0000

> <Gold.Chemscore.Lipo.Weighted>
-2.4239

> <Gold.Chemscore.Internal_Hbond.Weighted>
0.0000

> <Gold.Chemscore.DEClash.Weighted>
0.1263

> <Gold.Chemscore.DEInternal.Weighted>
0.7966

> <Gold.Chemscore.Rot.Weighted>
2.5600

> <Gold.Chemscore.Internal.Correction.Weighted>
   9.000000E+99

> <Gold.Protein.RotatedTorsions>
[ 6907 6896 6895 6894 ] final  152.78 input  -60.11 | X-H torsion
[ 7974 7965 7964 7962 ] final  -29.77 input  175.53 | X-H torsion
[ 8008 7997 7996 7995 ] final  -14.84 input   59.86 | X-H torsion
[ 10167 10162 10161 10158 ] final -136.46 input  -65.29 | X-H torsion
[ 10718 10713 10712 10709 ] final  145.87 input   66.30 | X-H torsion
[ 10763 10752 10751 10750 ] final -152.83 input  -60.55 | X-H torsion
[ 11005 11000 10999 10996 ] final   34.22 input  -57.11 | X-H torsion

> <Gold.Protein.ActiveResidues>
 VAL166  LYS551  ARG553  GLY616  TRP617  ASP618  TYR619  PRO620  LYS621  CYS622 
 ASP623  PHE694  ASN695  SER759  ASP760  ASP761  ALA762  ILE779  LEU786  VAL792 
 PHE793  MET794  SER795  GLU796  ALA797  LYS798  CYS799  TRP800  GLU811  SER814 

> <Gold.Protein.RotatedAtoms>
  152.0820  133.4157  159.4505 H   0  0  0  0  0  0  0  0  0  0  0  0  # atno 6907 bound_to 6896
  150.6862  134.2971  159.4700 H   0  0  0  0  0  0  0  0  0  0  0  0  # atno 6908 bound_to 6896
  152.0814  134.9468  160.0624 H   0  0  0  0  0  0  0  0  0  0  0  0  # atno 6909 bound_to 6896
  146.1192  140.5455  142.8743 H   0  0  0  0  0  0  0  0  0  0  0  0  # atno 7974 bound_to 7965
  154.5178  140.2212  155.9033 H   0  0  0  0  0  0  0  0  0  0  0  0  # atno 8008 bound_to 7997
  156.1627  140.3138  155.8801 H   0  0  0  0  0  0  0  0  0  0  0  0  # atno 8009 bound_to 7997
  155.3718  140.0467  157.3036 H   0  0  0  0  0  0  0  0  0  0  0  0  # atno 8010 bound_to 7997
  139.8676  143.6998  152.2643 H   0  0  0  0  0  0  0  0  0  0  0  0  # atno 10167 bound_to 10162
  157.3401  131.0934  151.1090 H   0  0  0  0  0  0  0  0  0  0  0  0  # atno 10718 bound_to 10713
  154.7968  135.3227  154.7646 H   0  0  0  0  0  0  0  0  0  0  0  0  # atno 10763 bound_to 10752
  153.8323  135.6878  153.4817 H   0  0  0  0  0  0  0  0  0  0  0  0  # atno 10764 bound_to 10752
  153.1664  135.4640  154.9785 H   0  0  0  0  0  0  0  0  0  0  0  0  # atno 10765 bound_to 10752
  140.2551  134.3258  155.7877 H   0  0  0  0  0  0  0  0  0  0  0  0  # atno 11005 bound_to 11000
  144.7581  140.5357  143.6754 LP  0  0  0  0  0  0  0  0  0  0  0  0  # atno 17320 bound_to 7965
  145.5502  139.1476  143.3398 LP  0  0  0  0  0  0  0  0  0  0  0  0  # atno 17321 bound_to 7965
  139.7314  144.7581  151.0796 LP  0  0  0  0  0  0  0  0  0  0  0  0  # atno 17342 bound_to 10162
  140.7766  143.5083  150.9684 LP  0  0  0  0  0  0  0  0  0  0  0  0  # atno 17343 bound_to 10162
  157.2305  130.6523  149.5848 LP  0  0  0  0  0  0  0  0  0  0  0  0  # atno 17370 bound_to 10713
  155.9706  130.4600  150.6057 LP  0  0  0  0  0  0  0  0  0  0  0  0  # atno 17371 bound_to 10713
  141.2197  133.7376  156.9098 LP  0  0  0  0  0  0  0  0  0  0  0  0  # atno 17394 bound_to 11000
  140.1520  134.9224  157.2605 LP  0  0  0  0  0  0  0  0  0  0  0  0  # atno 17395 bound_to 11000

$$$$
