AV-unprocessed.smi:977|AV-procd|sdf|4305|dock5
  -GOLD-   22720 2213D 1   1.00000     0.00000
 Structure written by MMmdl.
 37 38  0  0  0  0  0  0  0  0  1 V2000
  148.9386  131.2308  154.7420 C   0  0  0  0  0  0  0  0  0  0  0  0
  149.5015  132.5105  155.2955 C   0  0  0  0  0  0  0  0  0  0  0  0
  150.3821  132.4538  156.2839 N   0  0  0  0  0  0  0  0  0  0  0  0
  150.7815  133.7741  156.5441 O   0  0  0  0  0  0  0  0  0  0  0  0
  150.1236  134.6079  155.6966 C   0  0  0  0  0  0  0  0  0  0  0  0
  150.4274  136.0638  155.8054 C   0  0  0  0  0  0  0  0  0  0  0  0
  149.2875  133.8675  154.9145 C   0  0  0  0  0  0  0  0  0  0  0  0
  148.4577  134.3929  153.8928 N   0  0  0  0  0  0  0  0  0  0  0  0
  147.1704  134.0863  153.6732 C   0  0  0  0  0  0  0  0  0  0  0  0
  146.4972  133.3382  154.3822 O   0  0  0  0  0  0  0  0  0  0  0  0
  146.6941  134.7164  152.5896 N   0  0  0  0  0  0  0  0  0  0  0  0
  145.3334  134.5966  152.0699 C   0  0  1  0  0  0  0  0  0  0  0  0
  145.1249  135.6774  150.9975 C   0  0  0  0  0  0  0  0  0  0  0  0
  145.0939  133.1726  151.5214 C   0  0  2  0  0  0  0  0  0  0  0  0
  146.1647  132.6852  150.5397 C   0  0  0  0  0  0  0  0  0  0  0  0
  145.3887  131.7253  149.6683 C   0  0  0  0  0  0  0  0  0  0  0  0
  144.0553  132.4500  149.5442 C   0  0  0  0  0  0  0  0  0  0  0  0
  143.8665  133.1054  150.7930 O   0  0  0  0  0  0  0  0  0  0  0  0
  148.7442  131.3150  153.6727 H   0  0  0  0  0  0  0  0  0  0  0  0
  148.0020  130.9692  155.2346 H   0  0  0  0  0  0  0  0  0  0  0  0
  149.6288  130.3980  154.8808 H   0  0  0  0  0  0  0  0  0  0  0  0
  149.9822  136.6208  154.9808 H   0  0  0  0  0  0  0  0  0  0  0  0
  151.5035  136.2370  155.7867 H   0  0  0  0  0  0  0  0  0  0  0  0
  150.0351  136.4696  156.7378 H   0  0  0  0  0  0  0  0  0  0  0  0
  148.8595  135.1228  153.3230 H   0  0  0  0  0  0  0  0  0  0  0  0
  147.3237  135.3143  152.0747 H   0  0  0  0  0  0  0  0  0  0  0  0
  144.6214  134.7879  152.8749 H   0  0  0  0  0  0  0  0  0  0  0  0
  144.1024  135.6719  150.6197 H   0  0  0  0  0  0  0  0  0  0  0  0
  145.7940  135.5296  150.1490 H   0  0  0  0  0  0  0  0  0  0  0  0
  145.3146  136.6723  151.4017 H   0  0  0  0  0  0  0  0  0  0  0  0
  145.0185  132.4611  152.3455 H   0  0  0  0  0  0  0  0  0  0  0  0
  146.5371  133.5119  149.9327 H   0  0  0  0  0  0  0  0  0  0  0  0
  147.0153  132.2174  151.0361 H   0  0  0  0  0  0  0  0  0  0  0  0
  145.8635  131.5370  148.7050 H   0  0  0  0  0  0  0  0  0  0  0  0
  145.2562  130.7717  150.1814 H   0  0  0  0  0  0  0  0  0  0  0  0
  144.1053  133.2062  148.7601 H   0  0  0  0  0  0  0  0  0  0  0  0
  143.2291  131.7767  149.3157 H   0  0  0  0  0  0  0  0  0  0  0  0
  1  2  1  0  0  0  0
  1 19  1  0  0  0  0
  1 20  1  0  0  0  0
  1 21  1  0  0  0  0
  2  7  1  0  0  0  0
  2  3  2  0  0  0  0
  3  4  1  0  0  0  0
  4  5  1  0  0  0  0
  5  6  1  0  0  0  0
  5  7  2  0  0  0  0
  6 22  1  0  0  0  0
  6 23  1  0  0  0  0
  6 24  1  0  0  0  0
  7  8  1  0  0  0  0
  8  9  1  0  0  0  0
  8 25  1  0  0  0  0
  9 10  2  0  0  0  0
  9 11  1  0  0  0  0
 11 12  1  0  0  0  0
 11 26  1  0  0  0  0
 12 13  1  0  0  0  0
 12 14  1  0  0  0  0
 12 27  1  0  0  0  0
 13 28  1  0  0  0  0
 13 29  1  0  0  0  0
 13 30  1  0  0  0  0
 14 18  1  0  0  0  0
 14 15  1  0  0  0  0
 14 31  1  0  0  0  0
 15 16  1  0  0  0  0
 15 32  1  0  0  0  0
 15 33  1  0  0  0  0
 16 17  1  0  0  0  0
 16 34  1  0  0  0  0
 16 35  1  0  0  0  0
 17 18  1  0  0  0  0
 17 36  1  0  0  0  0
 17 37  1  0  0  0  0
M  END
> <s_m_source_file>
AV-unprocessed.smi

> <i_m_source_file_index>
977

> <i_lp_mmshare_version>
43012

> <i_f3d_flags>
0

> <s_epik_input>
W0NIM11jMW5vYyhbQ0gzXSljMVtOSF1DKD1PKVtOSF1bQ0BIXShbQ0gzXSlbQ0BASF0yW0NIMl1bQ0gyXVtDSDJdTzI=

> <s_epik_cmdline>
J2VwaWtfcHl0aG9uJywgJy1waCcsICc3LjAnLCAnLXRuJywgJzgnLCAnLW1hJywgJzIwMCcsICctbWV0YWxfYmluZGluZycsICctaW1hZScsICc8aW5maWxlLm1hZT4nLCAnLW9tYWUnLCAnPG91dGZpbGUubWFlPic=

> <r_lp_tautomer_probability>
1

> <r_epik_Ionization_Penalty>
3.41601e-05

> <r_epik_Ionization_Penalty_Charging>
0

> <r_epik_Ionization_Penalty_Neutral>
3.41601e-05

> <r_epik_State_Penalty>
-0

> <r_epik_Charging_Adjusted_Penalty>
0

> <i_epik_Tot_Q>
0

> <i_epik_Tot_abs_Q>
0

> <r_epik_Metal_State_Penalty>
-0

> <b_epik_Metal_Only>
0

> <s_lp_Force_Field>
OPLS_2005

> <r_lp_Energy>
19.7508

> <b_lp_Chiralities_Consistent>
1

> <s_lp_Variant>
AV-unprocessed.smi:977-2

> <Gold.Version>
5.8.1

> <Gold.Id.Protein>
6NUR|6NUR_protein|mol2

> <Gold.PLP.Fitness>
37.1801

> <Gold.PLP.PLP>
-32.1105

> <Gold.PLP.part.hbond>
-2.0000

> <Gold.PLP.part.metal>
0.0000

> <Gold.PLP.part.buried>
-5.1112

> <Gold.PLP.part.nonpolar>
-25.6654

> <Gold.PLP.part.repulsive>
0.2659

> <Gold.PLP.ligand.clash>
0.0000

> <Gold.PLP.ligand.torsion>
0.5936

> <Gold.PLP.Chemscore.Hbond>
2.0000

> <Gold.PLP.Chemscore.CHOScore>
0.0000

> <Gold.PLP.Chemscore.Metal>
0.0000

> <Gold.Chemscore.Hbonds>
donor molecule, donor type, donor heavy atom, donor atom, acceptor molecule, acceptor atom, score
      L1  H     8    25       P1  7948  1.00
      L1  H    11    26       P1  7948  1.00

> <Gold.PLP.Chemscore.Internal.Correction>
0.2567

> <Gold.Rescore>
     Score         DG    S(hbond)    S(metal)    S(lipo)     H(rot)  DE(clash)    DE(int)     intcor
     15.99     -16.74       1.97        0.00      66.61       1.22       0.00       0.75       ----

> <Gold.Chemscore.Fitness>
15.9893

> <Gold.Chemscore.DG>
-16.7358

> <Gold.Chemscore.ZeroCoef>
-5.4800

> <Gold.Chemscore.Hbond>
1.9717

> <Gold.Chemscore.Metal>
0.0000

> <Gold.Chemscore.Lipo>
66.6119

> <Gold.Chemscore.Internal_Hbond>
0.0000

> <Gold.Chemscore.DEClash>
0.0000

> <Gold.Chemscore.DEInternal>
0.7465

> <Gold.Chemscore.Rot>
1.2200

> <Gold.Chemscore.Internal.Correction>
   9.000000E+99

> <Gold.Chemscore.Hbonds>
donor molecule, donor type, donor heavy atom, donor atom, acceptor molecule, acceptor atom, score
      L1  H     8    25       P1  7948  0.49
      L1  H    11    26       P1  7948  0.97

> <Gold.Chemscore.Hbond.Weighted>
-6.5853

> <Gold.Chemscore.Metal.Weighted>
-0.0000

> <Gold.Chemscore.Lipo.Weighted>
-7.7936

> <Gold.Chemscore.Internal_Hbond.Weighted>
0.0000

> <Gold.Chemscore.DEClash.Weighted>
0.0000

> <Gold.Chemscore.DEInternal.Weighted>
0.7465

> <Gold.Chemscore.Rot.Weighted>
3.1232

> <Gold.Chemscore.Internal.Correction.Weighted>
   9.000000E+99

> <Gold.Protein.RotatedTorsions>
[ 6907 6896 6895 6894 ] final  -33.79 input  -60.11 | X-H torsion
[ 7974 7965 7964 7962 ] final -178.48 input  175.53 | X-H torsion
[ 8008 7997 7996 7995 ] final   97.92 input   59.86 | X-H torsion
[ 10167 10162 10161 10158 ] final  164.51 input  -65.29 | X-H torsion
[ 10718 10713 10712 10709 ] final  152.04 input   66.30 | X-H torsion
[ 10763 10752 10751 10750 ] final -114.14 input  -60.55 | X-H torsion
[ 11005 11000 10999 10996 ] final   97.82 input  -57.11 | X-H torsion

> <Gold.Protein.ActiveResidues>
 VAL166  LYS551  ARG553  GLY616  TRP617  ASP618  TYR619  PRO620  LYS621  CYS622 
 ASP623  PHE694  ASN695  SER759  ASP760  ASP761  ALA762  ILE779  LEU786  VAL792 
 PHE793  MET794  SER795  GLU796  ALA797  LYS798  CYS799  TRP800  GLU811  SER814 

> <Gold.Protein.RotatedAtoms>
  151.0611  134.9737  159.8260 H   0  0  0  0  0  0  0  0  0  0  0  0  # atno 6907 bound_to 6896
  152.5395  134.2417  159.8874 H   0  0  0  0  0  0  0  0  0  0  0  0  # atno 6908 bound_to 6896
  151.2437  133.4343  159.2642 H   0  0  0  0  0  0  0  0  0  0  0  0  # atno 6909 bound_to 6896
  144.7131  140.0861  143.6423 H   0  0  0  0  0  0  0  0  0  0  0  0  # atno 7974 bound_to 7965
  156.0951  140.3251  155.7867 H   0  0  0  0  0  0  0  0  0  0  0  0  # atno 8008 bound_to 7997
  155.4931  140.0563  157.2968 H   0  0  0  0  0  0  0  0  0  0  0  0  # atno 8009 bound_to 7997
  154.4661  140.1990  156.0129 H   0  0  0  0  0  0  0  0  0  0  0  0  # atno 8010 bound_to 7997
  139.4890  144.4228  151.9166 H   0  0  0  0  0  0  0  0  0  0  0  0  # atno 10167 bound_to 10162
  157.2629  131.0801  151.1653 H   0  0  0  0  0  0  0  0  0  0  0  0  # atno 10718 bound_to 10713
  154.8427  135.4428  154.1460 H   0  0  0  0  0  0  0  0  0  0  0  0  # atno 10763 bound_to 10752
  153.2633  135.6938  153.7562 H   0  0  0  0  0  0  0  0  0  0  0  0  # atno 10764 bound_to 10752
  153.6831  135.3400  155.3158 H   0  0  0  0  0  0  0  0  0  0  0  0  # atno 10765 bound_to 10752
  139.8774  134.9019  156.4365 H   0  0  0  0  0  0  0  0  0  0  0  0  # atno 11005 bound_to 11000
  145.9660  139.2835  143.1127 LP  0  0  0  0  0  0  0  0  0  0  0  0  # atno 17320 bound_to 7965
  145.9169  140.9142  143.0425 LP  0  0  0  0  0  0  0  0  0  0  0  0  # atno 17321 bound_to 7965
  140.3672  144.2900  150.5925 LP  0  0  0  0  0  0  0  0  0  0  0  0  # atno 17342 bound_to 10162
  140.5351  143.2235  151.8177 LP  0  0  0  0  0  0  0  0  0  0  0  0  # atno 17343 bound_to 10162
  157.3156  130.6911  149.6240 LP  0  0  0  0  0  0  0  0  0  0  0  0  # atno 17370 bound_to 10713
  155.9664  130.4350  150.5075 LP  0  0  0  0  0  0  0  0  0  0  0  0  # atno 17371 bound_to 10713
  140.9030  133.7766  155.9702 LP  0  0  0  0  0  0  0  0  0  0  0  0  # atno 17394 bound_to 11000
  140.8630  134.2818  157.5226 LP  0  0  0  0  0  0  0  0  0  0  0  0  # atno 17395 bound_to 11000

$$$$
