AV-unprocessed.smi:1266|AV-procd|sdf|5321|dock7
  -GOLD-   22720 4443D 1   1.00000     0.00000
 Structure written by MMmdl.
 40 41  0  0  0  0  0  0  0  0  3 V2000
  149.0485  142.5367  157.6946 O   0  0  0  0  0  0  0  0  0  0  0  0
  149.7935  141.8478  156.9962 C   0  0  0  0  0  0  0  0  0  0  0  0
  149.2260  140.9247  155.9083 C   0  0  0  0  0  0  0  0  0  0  0  0
  149.5833  139.5080  156.0941 N   0  0  0  0  0  0  0  0  0  0  0  0
  149.1920  138.9030  157.3049 C   0  0  0  0  0  0  0  0  0  0  0  0
  149.4646  137.6127  157.5818 C   0  0  0  0  0  0  0  0  0  0  0  0
  149.0593  137.0094  158.8325 N   0  3  0  0  0  0  0  0  0  0  0  0
  149.1916  135.7977  158.9714 O   0  0  0  0  0  0  0  0  0  0  0  0
  148.5953  137.7242  159.7160 O   0  5  0  0  0  0  0  0  0  0  0  0
  150.1832  136.8463  156.5824 C   0  0  0  0  0  0  0  0  0  0  0  0
  150.5656  137.4207  155.4250 C   0  0  0  0  0  0  0  0  0  0  0  0
  150.2734  138.8269  155.1285 C   0  0  0  0  0  0  0  0  0  0  0  0
  150.6264  139.3595  154.0762 O   0  0  0  0  0  0  0  0  0  0  0  0
  151.1302  141.8546  157.1160 N   0  0  0  0  0  0  0  0  0  0  0  0
  151.8956  142.6488  158.0743 C   0  0  0  0  0  0  0  0  0  0  0  0
  151.6146  142.1163  159.4954 C   0  0  0  0  0  0  0  0  0  0  0  0
  152.6098  142.6356  160.5470 C   0  0  0  0  0  0  0  0  0  0  0  0
  152.2496  143.9836  161.1964 C   0  0  0  0  0  0  0  0  0  0  0  0
  151.6567  145.0574  160.2677 C   0  0  0  0  0  0  0  0  0  0  0  0
  152.2539  145.1057  158.8523 C   0  0  0  0  0  0  0  0  0  0  0  0
  151.5559  144.1409  157.8785 C   0  0  0  0  0  0  0  0  0  0  0  0
  148.1419  141.0452  155.8918 H   0  0  0  0  0  0  0  0  0  0  0  0
  149.5651  141.2729  154.9308 H   0  0  0  0  0  0  0  0  0  0  0  0
  148.6681  139.5595  157.9847 H   0  0  0  0  0  0  0  0  0  0  0  0
  150.4202  135.8067  156.7546 H   0  0  0  0  0  0  0  0  0  0  0  0
  151.1007  136.8316  154.6947 H   0  0  0  0  0  0  0  0  0  0  0  0
  151.6614  141.2586  156.4978 H   0  0  0  0  0  0  0  0  0  0  0  0
  152.9579  142.5050  157.8682 H   0  0  0  0  0  0  0  0  0  0  0  0
  150.5871  142.3215  159.7986 H   0  0  0  0  0  0  0  0  0  0  0  0
  151.7052  141.0292  159.4728 H   0  0  0  0  0  0  0  0  0  0  0  0
  152.6972  141.8965  161.3443 H   0  0  0  0  0  0  0  0  0  0  0  0
  153.6055  142.6957  160.1060 H   0  0  0  0  0  0  0  0  0  0  0  0
  151.5441  143.8117  162.0100 H   0  0  0  0  0  0  0  0  0  0  0  0
  153.1485  144.3800  161.6702 H   0  0  0  0  0  0  0  0  0  0  0  0
  150.5762  144.9253  160.2000 H   0  0  0  0  0  0  0  0  0  0  0  0
  151.7959  146.0278  160.7453 H   0  0  0  0  0  0  0  0  0  0  0  0
  152.1178  146.1163  158.4660 H   0  0  0  0  0  0  0  0  0  0  0  0
  153.3313  144.9378  158.8718 H   0  0  0  0  0  0  0  0  0  0  0  0
  151.8362  144.4279  156.8642 H   0  0  0  0  0  0  0  0  0  0  0  0
  150.4762  144.2871  157.9339 H   0  0  0  0  0  0  0  0  0  0  0  0
  1  2  2  0  0  0  0
  2  3  1  0  0  0  0
  2 14  1  0  0  0  0
  3  4  1  0  0  0  0
  3 22  1  0  0  0  0
  3 23  1  0  0  0  0
  4 12  1  0  0  0  0
  4  5  1  0  0  0  0
  5  6  2  0  0  0  0
  5 24  1  0  0  0  0
  6  7  1  0  0  0  0
  6 10  1  0  0  0  0
  7  8  2  0  0  0  0
  7  9  1  0  0  0  0
 10 11  2  0  0  0  0
 10 25  1  0  0  0  0
 11 12  1  0  0  0  0
 11 26  1  0  0  0  0
 12 13  2  0  0  0  0
 14 15  1  0  0  0  0
 14 27  1  0  0  0  0
 15 21  1  0  0  0  0
 15 16  1  0  0  0  0
 15 28  1  0  0  0  0
 16 17  1  0  0  0  0
 16 29  1  0  0  0  0
 16 30  1  0  0  0  0
 17 18  1  0  0  0  0
 17 31  1  0  0  0  0
 17 32  1  0  0  0  0
 18 19  1  0  0  0  0
 18 33  1  0  0  0  0
 18 34  1  0  0  0  0
 19 20  1  0  0  0  0
 19 35  1  0  0  0  0
 19 36  1  0  0  0  0
 20 21  1  0  0  0  0
 20 37  1  0  0  0  0
 20 38  1  0  0  0  0
 21 39  1  0  0  0  0
 21 40  1  0  0  0  0
M  CHG  1   7   1
M  CHG  1   9  -1
M  END
> <s_m_source_file>
AV-unprocessed.smi

> <i_m_source_file_index>
1266

> <i_lp_mmshare_version>
43012

> <i_f3d_flags>
0

> <s_epik_input>
W0NIMl0xW0NIMl1bQ0gyXVtDSDJdW0NIMl1bQ0gyXVtDSF0xW05IXUMoPU8pW0NIMl1uMltjSF1jKFtOK10oPU8pW08tXSlbY0hdW2NIXWMyPU8=

> <s_epik_cmdline>
J2VwaWtfcHl0aG9uJywgJy1waCcsICc3LjAnLCAnLXRuJywgJzgnLCAnLW1hJywgJzIwMCcsICctbWV0YWxfYmluZGluZycsICctaW1hZScsICc8aW5maWxlLm1hZT4nLCAnLW9tYWUnLCAnPG91dGZpbGUubWFlPic=

> <r_lp_tautomer_probability>
1

> <r_epik_Ionization_Penalty>
2.02954e-08

> <r_epik_Ionization_Penalty_Charging>
8.05481e-11

> <r_epik_Ionization_Penalty_Neutral>
2.02148e-08

> <r_epik_State_Penalty>
-0

> <r_epik_Charging_Adjusted_Penalty>
8.05481e-11

> <i_epik_Tot_Q>
0

> <i_epik_Tot_abs_Q>
2

> <r_epik_Metal_State_Penalty>
-0

> <b_epik_Metal_Only>
0

> <s_lp_Force_Field>
OPLS_2005

> <r_lp_Energy>
25.8216

> <b_lp_Chiralities_Consistent>
1

> <s_lp_Variant>
AV-unprocessed.smi:1266-1

> <Gold.Version>
5.8.1

> <Gold.Id.Protein>
6NUR|6NUR_protein|mol2

> <Gold.PLP.Fitness>
43.8317

> <Gold.PLP.PLP>
-37.4895

> <Gold.PLP.part.hbond>
-4.0000

> <Gold.PLP.part.metal>
0.0000

> <Gold.PLP.part.buried>
-5.5376

> <Gold.PLP.part.nonpolar>
-29.5923

> <Gold.PLP.part.repulsive>
0.4961

> <Gold.PLP.ligand.clash>
0.0000

> <Gold.PLP.ligand.torsion>
0.0717

> <Gold.PLP.Chemscore.Hbond>
2.1531

> <Gold.PLP.Chemscore.CHOScore>
0.0000

> <Gold.PLP.Chemscore.Metal>
0.0000

> <Gold.Chemscore.Hbonds>
donor molecule, donor type, donor heavy atom, donor atom, acceptor molecule, acceptor atom, score
      P1  H  6896  6907       L1     8  0.98
      P1  H  6931  6943       L1     9  0.11
      P1  H  6934  6947       L1     9  0.14
      P1  H  7989  7998       L1    13  1.00

> <Gold.PLP.Chemscore.Internal.Correction>
0.0262

> <Gold.Rescore>
     Score         DG    S(hbond)    S(metal)    S(lipo)     H(rot)  DE(clash)    DE(int)     intcor
     18.96     -20.16       2.14        0.00      98.17       1.55       0.08       1.12       ----

> <Gold.Chemscore.Fitness>
18.9624

> <Gold.Chemscore.DG>
-20.1607

> <Gold.Chemscore.ZeroCoef>
-5.4800

> <Gold.Chemscore.Hbond>
2.1449

> <Gold.Chemscore.Metal>
0.0000

> <Gold.Chemscore.Lipo>
98.1695

> <Gold.Chemscore.Internal_Hbond>
0.0000

> <Gold.Chemscore.DEClash>
0.0774

> <Gold.Chemscore.DEInternal>
1.1209

> <Gold.Chemscore.Rot>
1.5505

> <Gold.Chemscore.Internal.Correction>
   9.000000E+99

> <Gold.Chemscore.Hbonds>
donor molecule, donor type, donor heavy atom, donor atom, acceptor molecule, acceptor atom, score
      P1  H  6896  6907       L1     8  0.92
      P1  H  6931  6943       L1     9  0.11
      P1  H  6934  6947       L1     9  0.14
      P1  H  7989  7998       L1    13  0.99

> <Gold.Chemscore.Hbond.Weighted>
-7.1641

> <Gold.Chemscore.Metal.Weighted>
-0.0000

> <Gold.Chemscore.Lipo.Weighted>
-11.4858

> <Gold.Chemscore.Internal_Hbond.Weighted>
0.0000

> <Gold.Chemscore.DEClash.Weighted>
0.0774

> <Gold.Chemscore.DEInternal.Weighted>
1.1209

> <Gold.Chemscore.Rot.Weighted>
3.9692

> <Gold.Chemscore.Internal.Correction.Weighted>
   9.000000E+99

> <Gold.Protein.RotatedTorsions>
[ 6907 6896 6895 6894 ] final  -78.07 input  -60.11 | X-H torsion
[ 7974 7965 7964 7962 ] final   15.80 input  175.53 | X-H torsion
[ 8008 7997 7996 7995 ] final   29.93 input   59.86 | X-H torsion
[ 10167 10162 10161 10158 ] final  -72.85 input  -65.29 | X-H torsion
[ 10718 10713 10712 10709 ] final  135.82 input   66.30 | X-H torsion
[ 10763 10752 10751 10750 ] final  -82.74 input  -60.55 | X-H torsion
[ 11005 11000 10999 10996 ] final  -11.58 input  -57.11 | X-H torsion

> <Gold.Protein.ActiveResidues>
 VAL166  LYS551  ARG553  GLY616  TRP617  ASP618  TYR619  PRO620  LYS621  CYS622 
 ASP623  PHE694  ASN695  SER759  ASP760  ASP761  ALA762  ILE779  LEU786  VAL792 
 PHE793  MET794  SER795  GLU796  ALA797  LYS798  CYS799  TRP800  GLU811  SER814 

> <Gold.Protein.RotatedAtoms>
  150.6982  134.4327  159.5255 H   0  0  0  0  0  0  0  0  0  0  0  0  # atno 6907 bound_to 6896
  152.2051  134.8550  160.0513 H   0  0  0  0  0  0  0  0  0  0  0  0  # atno 6908 bound_to 6896
  151.9456  133.3615  159.4018 H   0  0  0  0  0  0  0  0  0  0  0  0  # atno 6909 bound_to 6896
  146.2268  139.8841  142.8566 H   0  0  0  0  0  0  0  0  0  0  0  0  # atno 7974 bound_to 7965
  155.0824  140.3211  155.4597 H   0  0  0  0  0  0  0  0  0  0  0  0  # atno 8008 bound_to 7997
  156.2764  140.2092  156.5897 H   0  0  0  0  0  0  0  0  0  0  0  0  # atno 8009 bound_to 7997
  154.6968  140.0511  157.0406 H   0  0  0  0  0  0  0  0  0  0  0  0  # atno 8010 bound_to 7997
  140.5158  143.2338  151.7514 H   0  0  0  0  0  0  0  0  0  0  0  0  # atno 10167 bound_to 10162
  157.4530  131.1067  151.0010 H   0  0  0  0  0  0  0  0  0  0  0  0  # atno 10718 bound_to 10713
  154.5794  135.5580  153.7171 H   0  0  0  0  0  0  0  0  0  0  0  0  # atno 10763 bound_to 10752
  153.0076  135.6316  154.2003 H   0  0  0  0  0  0  0  0  0  0  0  0  # atno 10764 bound_to 10752
  154.1944  135.2881  155.2991 H   0  0  0  0  0  0  0  0  0  0  0  0  # atno 10765 bound_to 10752
  140.7568  133.8547  155.9091 H   0  0  0  0  0  0  0  0  0  0  0  0  # atno 11005 bound_to 11000
  145.2483  141.0034  143.3896 LP  0  0  0  0  0  0  0  0  0  0  0  0  # atno 17320 bound_to 7965
  144.9395  139.4205  143.6456 LP  0  0  0  0  0  0  0  0  0  0  0  0  # atno 17321 bound_to 7965
  139.4909  144.4325  151.9856 LP  0  0  0  0  0  0  0  0  0  0  0  0  # atno 17342 bound_to 10162
  140.3419  144.3193  150.5965 LP  0  0  0  0  0  0  0  0  0  0  0  0  # atno 17343 bound_to 10162
  157.0833  130.5912  149.5425 LP  0  0  0  0  0  0  0  0  0  0  0  0  # atno 17370 bound_to 10713
  155.9995  130.5071  150.7610 LP  0  0  0  0  0  0  0  0  0  0  0  0  # atno 17371 bound_to 10713
  140.9700  134.1543  157.4584 LP  0  0  0  0  0  0  0  0  0  0  0  0  # atno 17394 bound_to 11000
  139.8778  134.9975  156.5851 LP  0  0  0  0  0  0  0  0  0  0  0  0  # atno 17395 bound_to 11000

$$$$
