AV-unprocessed.smi:40|AV-procd|sdf|376|dock3
  -GOLD-   2262016223D 1   1.00000     0.00000
 Structure written by MMmdl.
 47 48  0  0  0  0  0  0  0  0  1 V2000
  152.1162  144.7810  159.4952 C   0  0  0  0  0  0  0  0  0  0  0  0
  151.8638  143.5407  158.6304 C   0  0  0  0  0  0  0  0  0  0  0  0
  152.1863  142.2344  159.3685 C   0  0  0  0  0  0  0  0  0  0  0  0
  151.9352  140.9856  158.5065 C   0  0  0  0  0  0  0  0  0  0  0  0
  152.4570  139.6934  159.1512 C   0  0  0  0  0  0  0  0  0  0  0  0
  152.3242  138.6326  158.2212 O   0  0  0  0  0  0  0  0  0  0  0  0
  151.1788  137.9340  158.1249 C   0  0  0  0  0  0  0  0  0  0  0  0
  150.3027  137.9224  158.9889 O   0  0  0  0  0  0  0  0  0  0  0  0
  151.0988  137.2298  156.8556 N   0  0  0  0  0  0  0  0  0  0  0  0
  150.1013  136.4308  156.4045 C   0  0  0  0  0  0  0  0  0  0  0  0
  149.5017  135.5493  157.1874 N   0  0  0  0  0  0  0  0  0  0  0  0
  148.4909  134.7214  156.7838 C   0  0  0  0  0  0  0  0  0  0  0  0
  148.0149  133.9144  157.5773 O   0  0  0  0  0  0  0  0  0  0  0  0
  148.0338  134.8502  155.4458 N   0  0  0  0  0  0  0  0  0  0  0  0
  146.9763  133.9331  154.8484 C   0  0  1  0  0  0  0  0  0  0  0  0
  145.7122  134.4072  155.1975 O   0  0  0  0  0  0  0  0  0  0  0  0
  145.0721  135.0262  154.0910 C   0  0  2  0  0  0  0  0  0  0  0  0
  143.5558  134.8284  154.2001 C   0  0  0  0  0  0  0  0  0  0  0  0
  145.6926  134.3788  152.8434 C   0  0  1  0  0  0  0  0  0  0  0  0
  145.8984  135.3610  151.8481 O   0  0  0  0  0  0  0  0  0  0  0  0
  147.0306  133.7966  153.3121 C   0  0  2  0  0  0  0  0  0  0  0  0
  147.1195  132.4389  152.9279 O   0  0  0  0  0  0  0  0  0  0  0  0
  148.6480  135.7781  154.6147 C   0  0  0  0  0  0  0  0  0  0  0  0
  149.6515  136.5764  155.0388 C   0  0  0  0  0  0  0  0  0  0  0  0
  150.2192  137.4687  154.2087 F   0  0  0  0  0  0  0  0  0  0  0  0
  147.1280  132.9732  155.3434 H   0  0  0  0  0  0  0  0  0  0  0  0
  145.2873  136.0936  154.1301 H   0  0  0  0  0  0  0  0  0  0  0  0
  145.0387  133.5970  152.4527 H   0  0  0  0  0  0  0  0  0  0  0  0
  147.8964  134.3172  152.9028 H   0  0  0  0  0  0  0  0  0  0  0  0
  151.8797  145.6920  158.9449 H   0  0  0  0  0  0  0  0  0  0  0  0
  153.1610  144.8403  159.8025 H   0  0  0  0  0  0  0  0  0  0  0  0
  151.5015  144.7663  160.3957 H   0  0  0  0  0  0  0  0  0  0  0  0
  150.8233  143.5311  158.3042 H   0  0  0  0  0  0  0  0  0  0  0  0
  152.4708  143.6090  157.7269 H   0  0  0  0  0  0  0  0  0  0  0  0
  153.2298  142.2592  159.6816 H   0  0  0  0  0  0  0  0  0  0  0  0
  151.5939  142.1730  160.2821 H   0  0  0  0  0  0  0  0  0  0  0  0
  150.8651  140.8842  158.3233 H   0  0  0  0  0  0  0  0  0  0  0  0
  152.4024  141.1129  157.5293 H   0  0  0  0  0  0  0  0  0  0  0  0
  153.5020  139.8051  159.4430 H   0  0  0  0  0  0  0  0  0  0  0  0
  151.8841  139.4694  160.0522 H   0  0  0  0  0  0  0  0  0  0  0  0
  151.9037  137.3509  156.2585 H   0  0  0  0  0  0  0  0  0  0  0  0
  143.0412  135.2856  153.3547 H   0  0  0  0  0  0  0  0  0  0  0  0
  143.1686  135.2843  155.1116 H   0  0  0  0  0  0  0  0  0  0  0  0
  143.2949  133.7699  154.2199 H   0  0  0  0  0  0  0  0  0  0  0  0
  146.8021  135.3205  151.5721 H   0  0  0  0  0  0  0  0  0  0  0  0
  147.3721  132.4010  152.0182 H   0  0  0  0  0  0  0  0  0  0  0  0
  148.3264  135.8803  153.5883 H   0  0  0  0  0  0  0  0  0  0  0  0
  1  2  1  0  0  0  0
  1 30  1  0  0  0  0
  1 31  1  0  0  0  0
  1 32  1  0  0  0  0
  2  3  1  0  0  0  0
  2 33  1  0  0  0  0
  2 34  1  0  0  0  0
  3  4  1  0  0  0  0
  3 35  1  0  0  0  0
  3 36  1  0  0  0  0
  4  5  1  0  0  0  0
  4 37  1  0  0  0  0
  4 38  1  0  0  0  0
  5  6  1  0  0  0  0
  5 39  1  0  0  0  0
  5 40  1  0  0  0  0
  6  7  1  0  0  0  0
  7  8  2  0  0  0  0
  7  9  1  0  0  0  0
  9 10  1  0  0  0  0
  9 41  1  0  0  0  0
 10 24  1  0  0  0  0
 10 11  2  0  0  0  0
 11 12  1  0  0  0  0
 12 13  2  0  0  0  0
 12 14  1  0  0  0  0
 14 15  1  0  0  0  0
 14 23  1  0  0  0  0
 15 26  1  0  0  0  0
 15 21  1  0  0  0  0
 15 16  1  0  0  0  0
 16 17  1  0  0  0  0
 17 27  1  0  0  0  0
 17 18  1  0  0  0  0
 17 19  1  0  0  0  0
 18 42  1  0  0  0  0
 18 43  1  0  0  0  0
 18 44  1  0  0  0  0
 19 28  1  0  0  0  0
 19 20  1  0  0  0  0
 19 21  1  0  0  0  0
 20 45  1  0  0  0  0
 21 29  1  0  0  0  0
 21 22  1  0  0  0  0
 22 46  1  0  0  0  0
 23 24  2  0  0  0  0
 23 47  1  0  0  0  0
 24 25  1  0  0  0  0
M  END
> <s_m_source_file>
AV-unprocessed.smi

> <i_m_source_file_index>
40

> <i_lp_mmshare_version>
43012

> <i_f3d_flags>
0

> <s_epik_input>
W0NIM11bQ0gyXVtDSDJdW0NIMl1bQ0gyXU9DKD1PKVtOSF1jMW5jKD1PKW4oW2NIXWMxRilbQ0BASF0yT1tDQEhdKFtDSDNdKVtDQEBIXShbT0hdKVtDQEhdMltPSF0=

> <s_epik_cmdline>
J2VwaWtfcHl0aG9uJywgJy1waCcsICc3LjAnLCAnLXRuJywgJzgnLCAnLW1hJywgJzIwMCcsICctbWV0YWxfYmluZGluZycsICctaW1hZScsICc8aW5maWxlLm1hZT4nLCAnLW9tYWUnLCAnPG91dGZpbGUubWFlPic=

> <r_lp_tautomer_probability>
1

> <r_epik_Ionization_Penalty>
2.29506e-06

> <r_epik_Ionization_Penalty_Charging>
8.26867e-09

> <r_epik_Ionization_Penalty_Neutral>
2.2868e-06

> <r_epik_State_Penalty>
-0

> <r_epik_Charging_Adjusted_Penalty>
8.26867e-09

> <i_epik_Tot_Q>
0

> <i_epik_Tot_abs_Q>
0

> <r_epik_Metal_State_Penalty>
-0

> <b_epik_Metal_Only>
0

> <s_epik_Chemistry_Notes>
This compound has an ester and may undergo hydrolysis at high or low pH. This compound contains an acetal/aminal-like group ( X-CH(R)-Y where X, Y are N, S, or O) that may be acid/base labile, releasing an aldehyde.

> <s_lp_Force_Field>
OPLS_2005

> <r_lp_Energy>
21.8092

> <b_lp_Chiralities_Consistent>
1

> <s_lp_Variant>
AV-unprocessed.smi:40-10

> <Gold.Version>
5.8.1

> <Gold.Id.Protein>
6NUR|6NUR_protein|mol2

> <Gold.PLP.Fitness>
43.7339

> <Gold.PLP.PLP>
-33.2829

> <Gold.PLP.part.hbond>
-5.0000

> <Gold.PLP.part.metal>
0.0000

> <Gold.PLP.part.buried>
-0.7420

> <Gold.PLP.part.nonpolar>
-28.9956

> <Gold.PLP.part.repulsive>
0.1441

> <Gold.PLP.ligand.clash>
0.0000

> <Gold.PLP.ligand.torsion>
1.3905

> <Gold.PLP.Chemscore.Hbond>
3.3546

> <Gold.PLP.Chemscore.CHOScore>
1.0000

> <Gold.PLP.Chemscore.Metal>
0.0000

> <Gold.Chemscore.Hbonds>
donor molecule, donor type, donor heavy atom, donor atom, acceptor molecule, acceptor atom, score
      L1  H    20    45       P1  7948  0.27
      L1  C    23    47       P1  7948  0.58

> <Gold.PLP.Chemscore.Internal.Correction>
0.1682

> <Gold.Rescore>
     Score         DG    S(hbond)    S(metal)    S(lipo)     H(rot)  DE(clash)    DE(int)     intcor
      9.75     -11.68       2.30        0.00      68.31       3.70       0.10       1.84       ----

> <Gold.Chemscore.Fitness>
9.7460

> <Gold.Chemscore.DG>
-11.6814

> <Gold.Chemscore.ZeroCoef>
-5.4800

> <Gold.Chemscore.Hbond>
2.2965

> <Gold.Chemscore.Metal>
0.0000

> <Gold.Chemscore.Lipo>
68.3084

> <Gold.Chemscore.Internal_Hbond>
0.0000

> <Gold.Chemscore.DEClash>
0.1003

> <Gold.Chemscore.DEInternal>
1.8351

> <Gold.Chemscore.Rot>
3.6957

> <Gold.Chemscore.Internal.Correction>
   9.000000E+99

> <Gold.Chemscore.Hbonds>
donor molecule, donor type, donor heavy atom, donor atom, acceptor molecule, acceptor atom, score
      L1  H    20    45       P1  7948  0.26

> <Gold.Chemscore.Hbond.Weighted>
-7.6703

> <Gold.Chemscore.Metal.Weighted>
-0.0000

> <Gold.Chemscore.Lipo.Weighted>
-7.9921

> <Gold.Chemscore.Internal_Hbond.Weighted>
0.0000

> <Gold.Chemscore.DEClash.Weighted>
0.1003

> <Gold.Chemscore.DEInternal.Weighted>
1.8351

> <Gold.Chemscore.Rot.Weighted>
9.4610

> <Gold.Chemscore.Internal.Correction.Weighted>
   9.000000E+99

> <Gold.Protein.RotatedTorsions>
[ 6907 6896 6895 6894 ] final -134.40 input  -60.11 | X-H torsion
[ 7974 7965 7964 7962 ] final   79.95 input  175.53 | X-H torsion
[ 8008 7997 7996 7995 ] final   12.54 input   59.86 | X-H torsion
[ 10167 10162 10161 10158 ] final  -58.66 input  -65.29 | X-H torsion
[ 10718 10713 10712 10709 ] final  139.13 input   66.30 | X-H torsion
[ 10763 10752 10751 10750 ] final   -5.11 input  -60.55 | X-H torsion
[ 11005 11000 10999 10996 ] final  -46.31 input  -57.11 | X-H torsion

> <Gold.Protein.ActiveResidues>
 VAL166  LYS551  ARG553  GLY616  TRP617  ASP618  TYR619  PRO620  LYS621  CYS622 
 ASP623  PHE694  ASN695  SER759  ASP760  ASP761  ALA762  ILE779  LEU786  VAL792 
 PHE793  MET794  SER795  GLU796  ALA797  LYS798  CYS799  TRP800  GLU811  SER814 

> <Gold.Protein.RotatedAtoms>
  150.9854  133.6203  159.2715 H   0  0  0  0  0  0  0  0  0  0  0  0  # atno 6907 bound_to 6896
  151.3443  135.0869  159.9391 H   0  0  0  0  0  0  0  0  0  0  0  0  # atno 6908 bound_to 6896
  152.5229  133.9459  159.7703 H   0  0  0  0  0  0  0  0  0  0  0  0  # atno 6909 bound_to 6896
  145.6575  139.2463  143.1941 H   0  0  0  0  0  0  0  0  0  0  0  0  # atno 7974 bound_to 7965
  154.8220  140.2885  155.5780 H   0  0  0  0  0  0  0  0  0  0  0  0  # atno 8008 bound_to 7997
  156.2998  140.2548  156.3059 H   0  0  0  0  0  0  0  0  0  0  0  0  # atno 8009 bound_to 7997
  154.9328  140.0383  157.2046 H   0  0  0  0  0  0  0  0  0  0  0  0  # atno 8010 bound_to 7997
  140.6183  143.2410  151.5542 H   0  0  0  0  0  0  0  0  0  0  0  0  # atno 10167 bound_to 10162
  157.4178  131.1035  151.0386 H   0  0  0  0  0  0  0  0  0  0  0  0  # atno 10718 bound_to 10713
  153.3941  135.7003  153.6473 H   0  0  0  0  0  0  0  0  0  0  0  0  # atno 10763 bound_to 10752
  153.5034  135.3647  155.2551 H   0  0  0  0  0  0  0  0  0  0  0  0  # atno 10764 bound_to 10752
  154.8705  135.4117  154.3263 H   0  0  0  0  0  0  0  0  0  0  0  0  # atno 10765 bound_to 10752
  141.0571  133.6722  156.3137 H   0  0  0  0  0  0  0  0  0  0  0  0  # atno 11005 bound_to 11000
  146.1152  140.7378  142.9484 LP  0  0  0  0  0  0  0  0  0  0  0  0  # atno 17320 bound_to 7965
  144.7100  140.4004  143.7088 LP  0  0  0  0  0  0  0  0  0  0  0  0  # atno 17321 bound_to 7965
  139.5417  144.2629  152.1364 LP  0  0  0  0  0  0  0  0  0  0  0  0  # atno 17342 bound_to 10162
  140.1843  144.4814  150.6512 LP  0  0  0  0  0  0  0  0  0  0  0  0  # atno 17343 bound_to 10162
  157.1328  130.6109  149.5534 LP  0  0  0  0  0  0  0  0  0  0  0  0  # atno 17370 bound_to 10713
  155.9870  130.4908  150.7108 LP  0  0  0  0  0  0  0  0  0  0  0  0  # atno 17371 bound_to 10713
  140.5943  134.5619  157.5505 LP  0  0  0  0  0  0  0  0  0  0  0  0  # atno 17394 bound_to 11000
  139.9399  134.7806  156.0705 LP  0  0  0  0  0  0  0  0  0  0  0  0  # atno 17395 bound_to 11000

$$$$
