AV-unprocessed.smi:2345|AV-procd|sdf|9362|dock7
  -GOLD-   2272012583D 1   1.00000     0.00000
 Structure written by MMmdl.
 37 38  0  0  0  0  0  0  0  0  1 V2000
  152.5132  138.8270  154.9156 C   0  0  0  0  0  0  0  0  0  0  0  0
  151.1123  139.3902  155.1663 C   0  0  0  0  0  0  0  0  0  0  0  0
  149.8724  138.5674  154.1282 S   0  0  0  0  0  0  0  0  0  0  0  0
  148.3318  139.2357  154.8489 C   0  0  1  0  0  0  0  0  0  0  0  0
  148.4013  140.7636  154.8941 C   0  0  0  0  0  0  0  0  0  0  0  0
  147.9416  141.2107  153.5077 C   0  0  0  0  0  0  0  0  0  0  0  0
  146.8825  140.1867  153.0863 C   0  0  0  0  0  0  0  0  0  0  0  0
  147.0675  138.9576  153.9983 C   0  0  1  0  0  0  0  0  0  0  0  0
  147.1300  137.7229  153.2174 N   0  0  0  0  0  0  0  0  0  0  0  0
  146.1137  136.8675  153.0398 C   0  0  0  0  0  0  0  0  0  0  0  0
  144.9914  137.0394  153.5150 O   0  0  0  0  0  0  0  0  0  0  0  0
  146.4984  135.8046  152.3134 N   0  0  0  0  0  0  0  0  0  0  0  0
  145.7367  134.6677  151.9286 C   0  0  0  0  0  0  0  0  0  0  0  0
  144.3823  134.7211  151.5184 C   0  0  0  0  0  0  0  0  0  0  0  0
  143.7430  133.5220  151.1441 C   0  0  0  0  0  0  0  0  0  0  0  0
  144.3559  132.3193  151.1470 N   0  0  0  0  0  0  0  0  0  0  0  0
  145.6510  132.2744  151.5248 C   0  0  0  0  0  0  0  0  0  0  0  0
  146.3827  133.4132  151.9176 C   0  0  0  0  0  0  0  0  0  0  0  0
  147.6827  133.2983  152.2823 F   0  0  0  0  0  0  0  0  0  0  0  0
  153.2509  139.3265  155.5439 H   0  0  0  0  0  0  0  0  0  0  0  0
  152.8126  138.9629  153.8761 H   0  0  0  0  0  0  0  0  0  0  0  0
  152.5518  137.7606  155.1405 H   0  0  0  0  0  0  0  0  0  0  0  0
  150.8495  139.2631  156.2155 H   0  0  0  0  0  0  0  0  0  0  0  0
  151.0914  140.4604  154.9592 H   0  0  0  0  0  0  0  0  0  0  0  0
  148.2242  138.8343  155.8572 H   0  0  0  0  0  0  0  0  0  0  0  0
  147.7035  141.1369  155.6449 H   0  0  0  0  0  0  0  0  0  0  0  0
  149.3912  141.1417  155.1519 H   0  0  0  0  0  0  0  0  0  0  0  0
  147.5596  142.2319  153.5047 H   0  0  0  0  0  0  0  0  0  0  0  0
  148.7832  141.1728  152.8148 H   0  0  0  0  0  0  0  0  0  0  0  0
  145.8812  140.5983  153.2179 H   0  0  0  0  0  0  0  0  0  0  0  0
  146.9908  139.9436  152.0283 H   0  0  0  0  0  0  0  0  0  0  0  0
  146.2072  138.9216  154.6695 H   0  0  0  0  0  0  0  0  0  0  0  0
  148.0220  137.4954  152.8029 H   0  0  0  0  0  0  0  0  0  0  0  0
  147.4763  135.7689  152.0655 H   0  0  0  0  0  0  0  0  0  0  0  0
  143.8302  135.6471  151.4716 H   0  0  0  0  0  0  0  0  0  0  0  0
  142.7105  133.5308  150.8271 H   0  0  0  0  0  0  0  0  0  0  0  0
  146.1194  131.3014  151.5125 H   0  0  0  0  0  0  0  0  0  0  0  0
  1  2  1  0  0  0  0
  1 20  1  0  0  0  0
  1 21  1  0  0  0  0
  1 22  1  0  0  0  0
  2  3  1  0  0  0  0
  2 23  1  0  0  0  0
  2 24  1  0  0  0  0
  3  4  1  0  0  0  0
  4  8  1  0  0  0  0
  4  5  1  0  0  0  0
  4 25  1  0  0  0  0
  5  6  1  0  0  0  0
  5 26  1  0  0  0  0
  5 27  1  0  0  0  0
  6  7  1  0  0  0  0
  6 28  1  0  0  0  0
  6 29  1  0  0  0  0
  7  8  1  0  0  0  0
  7 30  1  0  0  0  0
  7 31  1  0  0  0  0
  8  9  1  0  0  0  0
  8 32  1  0  0  0  0
  9 10  1  0  0  0  0
  9 33  1  0  0  0  0
 10 11  2  0  0  0  0
 10 12  1  0  0  0  0
 12 13  1  0  0  0  0
 12 34  1  0  0  0  0
 13 18  1  0  0  0  0
 13 14  2  0  0  0  0
 14 15  1  0  0  0  0
 14 35  1  0  0  0  0
 15 16  2  0  0  0  0
 15 36  1  0  0  0  0
 16 17  1  0  0  0  0
 17 18  2  0  0  0  0
 17 37  1  0  0  0  0
 18 19  1  0  0  0  0
M  END
> <s_m_source_file>
AV-unprocessed.smi

> <i_m_source_file_index>
2345

> <i_lp_mmshare_version>
43012

> <i_f3d_flags>
0

> <s_epik_input>
W0NIM11bQ0gyXVNbQ0BASF0xW0NIMl1bQ0gyXVtDSDJdW0NASF0xW05IXUMoPU8pW05IXWMyW2NIXVtjSF1uW2NIXWMyRg==

> <s_epik_cmdline>
J2VwaWtfcHl0aG9uJywgJy1waCcsICc3LjAnLCAnLXRuJywgJzgnLCAnLW1hJywgJzIwMCcsICctbWV0YWxfYmluZGluZycsICctaW1hZScsICc8aW5maWxlLm1hZT4nLCAnLW9tYWUnLCAnPG91dGZpbGUubWFlPic=

> <r_epik_Ionization_Penalty>
0.00333745

> <r_epik_Ionization_Penalty_Charging>
0

> <r_epik_Ionization_Penalty_Neutral>
0.00333745

> <r_epik_State_Penalty>
0.00233401

> <r_epik_Charging_Adjusted_Penalty>
0.00233401

> <i_epik_Tot_Q>
0

> <i_epik_Tot_abs_Q>
0

> <r_epik_Metal_State_Penalty>
-0

> <b_epik_Metal_Only>
0

> <s_lp_Force_Field>
OPLS_2005

> <r_lp_Energy>
24.8038

> <b_lp_Chiralities_Consistent>
1

> <s_lp_Variant>
AV-unprocessed.smi:2345-2

> <Gold.Version>
5.8.1

> <Gold.Id.Protein>
6NUR|6NUR_protein|mol2

> <Gold.PLP.Fitness>
39.2800

> <Gold.PLP.PLP>
-31.8137

> <Gold.PLP.part.hbond>
-1.9290

> <Gold.PLP.part.metal>
0.0000

> <Gold.PLP.part.buried>
-2.0257

> <Gold.PLP.part.nonpolar>
-28.3093

> <Gold.PLP.part.repulsive>
0.3391

> <Gold.PLP.ligand.clash>
0.0000

> <Gold.PLP.ligand.torsion>
0.6418

> <Gold.PLP.Chemscore.Hbond>
1.9120

> <Gold.PLP.Chemscore.CHOScore>
1.0000

> <Gold.PLP.Chemscore.Metal>
0.0000

> <Gold.Chemscore.Hbonds>
donor molecule, donor type, donor heavy atom, donor atom, acceptor molecule, acceptor atom, score
      L1  H     9    33       P1  7948  0.91
      L1  H    12    34       P1  7948  1.00
      L1  C    15    36       P1 10186  1.00

> <Gold.PLP.Chemscore.Internal.Correction>
0.0140

> <Gold.Rescore>
     Score         DG    S(hbond)    S(metal)    S(lipo)     H(rot)  DE(clash)    DE(int)     intcor
     17.25     -18.30       1.94        0.00      83.50       1.35       0.38       0.66       ----

> <Gold.Chemscore.Fitness>
17.2512

> <Gold.Chemscore.DG>
-18.2958

> <Gold.Chemscore.ZeroCoef>
-5.4800

> <Gold.Chemscore.Hbond>
1.9449

> <Gold.Chemscore.Metal>
0.0000

> <Gold.Chemscore.Lipo>
83.4994

> <Gold.Chemscore.Internal_Hbond>
0.0000

> <Gold.Chemscore.DEClash>
0.3838

> <Gold.Chemscore.DEInternal>
0.6609

> <Gold.Chemscore.Rot>
1.3475

> <Gold.Chemscore.Internal.Correction>
   9.000000E+99

> <Gold.Chemscore.Hbonds>
donor molecule, donor type, donor heavy atom, donor atom, acceptor molecule, acceptor atom, score
      L1  H     9    33       P1  7948  0.88
      L1  H    12    34       P1  7948  0.93

> <Gold.Chemscore.Hbond.Weighted>
-6.4960

> <Gold.Chemscore.Metal.Weighted>
-0.0000

> <Gold.Chemscore.Lipo.Weighted>
-9.7694

> <Gold.Chemscore.Internal_Hbond.Weighted>
0.0000

> <Gold.Chemscore.DEClash.Weighted>
0.3838

> <Gold.Chemscore.DEInternal.Weighted>
0.6609

> <Gold.Chemscore.Rot.Weighted>
3.4496

> <Gold.Chemscore.Internal.Correction.Weighted>
   9.000000E+99

> <Gold.Protein.RotatedTorsions>
[ 6907 6896 6895 6894 ] final -105.64 input  -60.11 | X-H torsion
[ 7974 7965 7964 7962 ] final  -93.89 input  175.53 | X-H torsion
[ 8008 7997 7996 7995 ] final -172.16 input   59.86 | X-H torsion
[ 10167 10162 10161 10158 ] final   19.28 input  -65.29 | X-H torsion
[ 10718 10713 10712 10709 ] final  124.04 input   66.30 | X-H torsion
[ 10763 10752 10751 10750 ] final  103.83 input  -60.55 | X-H torsion
[ 11005 11000 10999 10996 ] final  102.85 input  -57.11 | X-H torsion

> <Gold.Protein.ActiveResidues>
 VAL166  LYS551  ARG553  GLY616  TRP617  ASP618  TYR619  PRO620  LYS621  CYS622 
 ASP623  PHE694  ASN695  SER759  ASP760  ASP761  ALA762  ILE779  LEU786  VAL792 
 PHE793  MET794  SER795  GLU796  ALA797  LYS798  CYS799  TRP800  GLU811  SER814 

> <Gold.Protein.RotatedAtoms>
  150.7347  134.0096  159.3665 H   0  0  0  0  0  0  0  0  0  0  0  0  # atno 6907 bound_to 6896
  151.8055  135.0694  160.0415 H   0  0  0  0  0  0  0  0  0  0  0  0  # atno 6908 bound_to 6896
  152.3110  133.5716  159.5717 H   0  0  0  0  0  0  0  0  0  0  0  0  # atno 6909 bound_to 6896
  145.3806  140.9517  143.2396 H   0  0  0  0  0  0  0  0  0  0  0  0  # atno 7974 bound_to 7965
  155.9410  140.1108  157.1056 H   0  0  0  0  0  0  0  0  0  0  0  0  # atno 8008 bound_to 7997
  154.4089  140.1219  156.4993 H   0  0  0  0  0  0  0  0  0  0  0  0  # atno 8009 bound_to 7997
  155.6962  140.3472  155.4916 H   0  0  0  0  0  0  0  0  0  0  0  0  # atno 8010 bound_to 7997
  140.5590  143.9371  150.6629 H   0  0  0  0  0  0  0  0  0  0  0  0  # atno 10167 bound_to 10162
  157.5617  131.1089  150.8527 H   0  0  0  0  0  0  0  0  0  0  0  0  # atno 10718 bound_to 10713
  153.3579  135.3963  155.1696 H   0  0  0  0  0  0  0  0  0  0  0  0  # atno 10763 bound_to 10752
  154.8674  135.3672  154.5138 H   0  0  0  0  0  0  0  0  0  0  0  0  # atno 10764 bound_to 10752
  153.5595  135.7081  153.5614 H   0  0  0  0  0  0  0  0  0  0  0  0  # atno 10765 bound_to 10752
  139.8780  134.9240  156.5120 H   0  0  0  0  0  0  0  0  0  0  0  0  # atno 11005 bound_to 11000
  144.8510  139.5321  143.6856 LP  0  0  0  0  0  0  0  0  0  0  0  0  # atno 17320 bound_to 7965
  146.2844  139.6963  142.9206 LP  0  0  0  0  0  0  0  0  0  0  0  0  # atno 17321 bound_to 7965
  140.2817  143.3385  152.1145 LP  0  0  0  0  0  0  0  0  0  0  0  0  # atno 17342 bound_to 10162
  139.5061  144.6808  151.6013 LP  0  0  0  0  0  0  0  0  0  0  0  0  # atno 17343 bound_to 10162
  156.9023  130.5251  149.5282 LP  0  0  0  0  0  0  0  0  0  0  0  0  # atno 17370 bound_to 10713
  156.0669  130.5710  150.9306 LP  0  0  0  0  0  0  0  0  0  0  0  0  # atno 17371 bound_to 10713
  140.8513  133.8130  155.9172 LP  0  0  0  0  0  0  0  0  0  0  0  0  # atno 17394 bound_to 11000
  140.9141  134.2224  157.4967 LP  0  0  0  0  0  0  0  0  0  0  0  0  # atno 17395 bound_to 11000

$$$$
