AV-unprocessed.smi:67|AV-procd|sdf|635|dock2
  -GOLD-   2262016533D 1   1.00000     0.00000
 Structure written by MMmdl.
 48 50  0  0  0  0  0  0  0  0  2 V2000
  148.4006  136.5433  154.5128 O   0  0  0  0  0  0  0  0  0  0  0  0
  147.8033  137.8224  154.3964 C   0  0  1  0  0  0  0  0  0  0  0  0
  148.9281  138.8735  154.1959 C   0  0  0  0  0  0  0  0  0  0  0  0
  149.9479  138.9140  155.2842 N   0  3  2  0  0  0  0  0  0  0  0  0
  149.8150  140.1453  156.1110 C   0  0  0  0  0  0  0  0  0  0  0  0
  150.7433  140.1162  157.3358 C   0  0  0  0  0  0  0  0  0  0  0  0
  152.2006  139.8826  156.8979 C   0  0  1  0  0  0  0  0  0  0  0  0
  153.1702  139.9802  157.9442 O   0  0  0  0  0  0  0  0  0  0  0  0
  153.0770  140.8748  158.9932 C   0  0  0  0  0  0  0  0  0  0  0  0
  153.4781  140.6373  160.3315 C   0  0  0  0  0  0  0  0  0  0  0  0
  153.3333  141.6400  161.3096 C   0  0  0  0  0  0  0  0  0  0  0  0
  152.7839  142.8896  160.9708 C   0  0  0  0  0  0  0  0  0  0  0  0
  152.3720  143.1425  159.6460 C   0  0  0  0  0  0  0  0  0  0  0  0
  151.7766  144.4861  159.2512 C   0  0  0  0  0  0  0  0  0  0  0  0
  152.4719  144.9930  158.2339 F   0  0  0  0  0  0  0  0  0  0  0  0
  150.5091  144.3284  158.8690 F   0  0  0  0  0  0  0  0  0  0  0  0
  151.8037  145.3551  160.2622 F   0  0  0  0  0  0  0  0  0  0  0  0
  152.5286  142.1342  158.6717 C   0  0  0  0  0  0  0  0  0  0  0  0
  152.3426  138.6504  155.9853 C   0  0  0  0  0  0  0  0  0  0  0  0
  151.3479  138.7234  154.8131 C   0  0  0  0  0  0  0  0  0  0  0  0
  146.7091  137.8349  153.3067 C   0  0  0  0  0  0  0  0  0  0  0  0
  145.3867  137.9054  154.0670 C   0  0  0  0  0  0  0  0  0  0  0  0
  145.7171  138.5934  155.2998 N   0  0  0  0  0  0  0  0  0  0  0  0
  147.0155  138.0792  155.7013 C   0  0  0  0  0  0  0  0  0  0  0  0
  148.8866  136.3631  153.7222 H   0  0  0  0  0  0  0  0  0  0  0  0
  149.4127  138.7517  153.2258 H   0  0  0  0  0  0  0  0  0  0  0  0
  148.4457  139.8514  154.1583 H   0  0  0  0  0  0  0  0  0  0  0  0
  150.0328  141.0187  155.4941 H   0  0  0  0  0  0  0  0  0  0  0  0
  148.7869  140.2534  156.4586 H   0  0  0  0  0  0  0  0  0  0  0  0
  150.6690  141.0624  157.8728 H   0  0  0  0  0  0  0  0  0  0  0  0
  150.3906  139.3521  158.0238 H   0  0  0  0  0  0  0  0  0  0  0  0
  152.4513  140.7367  156.2672 H   0  0  0  0  0  0  0  0  0  0  0  0
  153.9025  139.7019  160.6502 H   0  0  0  0  0  0  0  0  0  0  0  0
  153.6460  141.4494  162.3256 H   0  0  0  0  0  0  0  0  0  0  0  0
  152.6834  143.6479  161.7333 H   0  0  0  0  0  0  0  0  0  0  0  0
  152.2205  142.3298  157.6550 H   0  0  0  0  0  0  0  0  0  0  0  0
  153.3600  138.5982  155.5965 H   0  0  0  0  0  0  0  0  0  0  0  0
  152.1808  137.7191  156.5216 H   0  0  0  0  0  0  0  0  0  0  0  0
  151.4394  137.7985  154.2497 H   0  0  0  0  0  0  0  0  0  0  0  0
  151.6186  139.5373  154.1386 H   0  0  0  0  0  0  0  0  0  0  0  0
  146.7878  138.7345  152.6955 H   0  0  0  0  0  0  0  0  0  0  0  0
  146.7534  136.9752  152.6366 H   0  0  0  0  0  0  0  0  0  0  0  0
  144.6058  138.4206  153.5072 H   0  0  0  0  0  0  0  0  0  0  0  0
  145.0330  136.8975  154.2884 H   0  0  0  0  0  0  0  0  0  0  0  0
  145.0192  138.4090  156.0141 H   0  0  0  0  0  0  0  0  0  0  0  0
  146.8696  137.1451  156.2468 H   0  0  0  0  0  0  0  0  0  0  0  0
  147.5203  138.7654  156.3818 H   0  0  0  0  0  0  0  0  0  0  0  0
  149.7340  138.1382  155.8949 H   0  0  0  0  0  0  0  0  0  0  0  0
  1  2  1  0  0  0  0
  1 25  1  0  0  0  0
  2 24  1  0  0  0  0
  2  3  1  0  0  0  0
  2 21  1  0  0  0  0
  3  4  1  0  0  0  0
  3 26  1  0  0  0  0
  3 27  1  0  0  0  0
  4 20  1  0  0  0  0
  4  5  1  0  0  0  0
  4 48  1  0  0  0  0
  5  6  1  0  0  0  0
  5 28  1  0  0  0  0
  5 29  1  0  0  0  0
  6  7  1  0  0  0  0
  6 30  1  0  0  0  0
  6 31  1  0  0  0  0
  7  8  1  0  0  0  0
  7 19  1  0  0  0  0
  7 32  1  0  0  0  0
  8  9  1  0  0  0  0
  9 18  1  0  0  0  0
  9 10  2  0  0  0  0
 10 11  1  0  0  0  0
 10 33  1  0  0  0  0
 11 12  2  0  0  0  0
 11 34  1  0  0  0  0
 12 13  1  0  0  0  0
 12 35  1  0  0  0  0
 13 14  1  0  0  0  0
 13 18  2  0  0  0  0
 14 15  1  0  0  0  0
 14 16  1  0  0  0  0
 14 17  1  0  0  0  0
 18 36  1  0  0  0  0
 19 20  1  0  0  0  0
 19 37  1  0  0  0  0
 19 38  1  0  0  0  0
 20 39  1  0  0  0  0
 20 40  1  0  0  0  0
 21 22  1  0  0  0  0
 21 41  1  0  0  0  0
 21 42  1  0  0  0  0
 22 23  1  0  0  0  0
 22 43  1  0  0  0  0
 22 44  1  0  0  0  0
 23 24  1  0  0  0  0
 23 45  1  0  0  0  0
 24 46  1  0  0  0  0
 24 47  1  0  0  0  0
M  CHG  1   4   1
M  END
> <s_m_source_file>
AV-unprocessed.smi

> <i_m_source_file_index>
67

> <i_lp_mmshare_version>
43012

> <i_f3d_flags>
0

> <s_epik_input>
W0NIMl0xW05IXVtDSDJdW0NIMl1bQ0BAXTEoW09IXSlbQ0gyXU4yW0NIMl1bQ0gyXVtDSF0oW0NIMl1bQ0gyXTIpT2MzW2NIXVtjSF1bY0hdYyhDKEYpKEYpRilbY0hdMw==

> <s_epik_cmdline>
J2VwaWtfcHl0aG9uJywgJy1waCcsICc3LjAnLCAnLXRuJywgJzgnLCAnLW1hJywgJzIwMCcsICctbWV0YWxfYmluZGluZycsICctaW1hZScsICc8aW5maWxlLm1hZT4nLCAnLW9tYWUnLCAnPG91dGZpbGUubWFlPic=

> <r_epik_Ionization_Penalty>
2.37709

> <r_epik_Ionization_Penalty_Charging>
0.0305656

> <r_epik_Ionization_Penalty_Neutral>
2.34653

> <r_epik_State_Penalty>
2.56959

> <r_epik_Charging_Adjusted_Penalty>
2.60016

> <i_epik_Tot_Q>
1

> <i_epik_Tot_abs_Q>
1

> <r_epik_Metal_State_Penalty>
2.56925

> <b_epik_Metal_Only>
0

> <s_lp_Force_Field>
OPLS_2005

> <r_lp_Energy>
55.5379

> <b_lp_Chiralities_Consistent>
1

> <s_lp_Variant>
AV-unprocessed.smi:67-7

> <Gold.Version>
5.8.1

> <Gold.Id.Protein>
6NUR|6NUR_protein|mol2

> <Gold.PLP.Fitness>
52.1043

> <Gold.PLP.PLP>
-48.1971

> <Gold.PLP.part.hbond>
-2.0000

> <Gold.PLP.part.metal>
0.0000

> <Gold.PLP.part.buried>
-3.8882

> <Gold.PLP.part.nonpolar>
-41.3673

> <Gold.PLP.part.repulsive>
0.0469

> <Gold.PLP.ligand.clash>
0.1379

> <Gold.PLP.ligand.torsion>
1.2919

> <Gold.PLP.Chemscore.Hbond>
2.0000

> <Gold.PLP.Chemscore.CHOScore>
0.0000

> <Gold.PLP.Chemscore.Metal>
0.0000

> <Gold.Chemscore.Hbonds>
donor molecule, donor type, donor heavy atom, donor atom, acceptor molecule, acceptor atom, score
      L1  H     1    25       P1  7948  1.00
      P1  H  7997  8010       L1     8  0.80

> <Gold.PLP.Chemscore.Internal.Correction>
0.6289

> <Gold.Rescore>
     Score         DG    S(hbond)    S(metal)    S(lipo)     H(rot)  DE(clash)    DE(int)     intcor
     16.86     -19.20       1.67        0.00     117.29       2.17       0.30       2.04       ----

> <Gold.Chemscore.Fitness>
16.8632

> <Gold.Chemscore.DG>
-19.2003

> <Gold.Chemscore.ZeroCoef>
-5.4800

> <Gold.Chemscore.Hbond>
1.6652

> <Gold.Chemscore.Metal>
0.0000

> <Gold.Chemscore.Lipo>
117.2868

> <Gold.Chemscore.Internal_Hbond>
0.0000

> <Gold.Chemscore.DEClash>
0.2979

> <Gold.Chemscore.DEInternal>
2.0393

> <Gold.Chemscore.Rot>
2.1734

> <Gold.Chemscore.Internal.Correction>
   9.000000E+99

> <Gold.Chemscore.Hbonds>
donor molecule, donor type, donor heavy atom, donor atom, acceptor molecule, acceptor atom, score
      L1  H     1    25       P1  7948  0.95
      P1  H  7997  8010       L1     8  0.11

> <Gold.Chemscore.Hbond.Weighted>
-5.5618

> <Gold.Chemscore.Metal.Weighted>
-0.0000

> <Gold.Chemscore.Lipo.Weighted>
-13.7226

> <Gold.Chemscore.Internal_Hbond.Weighted>
0.0000

> <Gold.Chemscore.DEClash.Weighted>
0.2979

> <Gold.Chemscore.DEInternal.Weighted>
2.0393

> <Gold.Chemscore.Rot.Weighted>
5.5640

> <Gold.Chemscore.Internal.Correction.Weighted>
   9.000000E+99

> <Gold.Protein.RotatedTorsions>
[ 6907 6896 6895 6894 ] final -116.71 input  -60.11 | X-H torsion
[ 7974 7965 7964 7962 ] final   -3.89 input  175.53 | X-H torsion
[ 8008 7997 7996 7995 ] final   42.50 input   59.86 | X-H torsion
[ 10167 10162 10161 10158 ] final  110.00 input  -65.29 | X-H torsion
[ 10718 10713 10712 10709 ] final  -26.08 input   66.30 | X-H torsion
[ 10763 10752 10751 10750 ] final   42.65 input  -60.55 | X-H torsion
[ 11005 11000 10999 10996 ] final -158.65 input  -57.11 | X-H torsion

> <Gold.Protein.ActiveResidues>
 VAL166  LYS551  ARG553  GLY616  TRP617  ASP618  TYR619  PRO620  LYS621  CYS622 
 ASP623  PHE694  ASN695  SER759  ASP760  ASP761  ALA762  ILE779  LEU786  VAL792 
 PHE793  MET794  SER795  GLU796  ALA797  LYS798  CYS799  TRP800  GLU811  SER814 

> <Gold.Protein.RotatedAtoms>
  150.8078  133.8478  159.3196 H   0  0  0  0  0  0  0  0  0  0  0  0  # atno 6907 bound_to 6896
  151.6272  135.1024  160.0123 H   0  0  0  0  0  0  0  0  0  0  0  0  # atno 6908 bound_to 6896
  152.4169  133.7013  159.6482 H   0  0  0  0  0  0  0  0  0  0  0  0  # atno 6909 bound_to 6896
  146.2382  140.1789  142.8332 H   0  0  0  0  0  0  0  0  0  0  0  0  # atno 7974 bound_to 7965
  155.2871  140.3376  155.4254 H   0  0  0  0  0  0  0  0  0  0  0  0  # atno 8008 bound_to 7997
  156.2063  140.1752  156.7833 H   0  0  0  0  0  0  0  0  0  0  0  0  # atno 8009 bound_to 7997
  154.5625  140.0685  156.8825 H   0  0  0  0  0  0  0  0  0  0  0  0  # atno 8010 bound_to 7997
  139.6722  144.7124  151.1666 H   0  0  0  0  0  0  0  0  0  0  0  0  # atno 10167 bound_to 10162
  156.4560  130.4494  149.6959 H   0  0  0  0  0  0  0  0  0  0  0  0  # atno 10718 bound_to 10713
  152.9878  135.6125  154.2984 H   0  0  0  0  0  0  0  0  0  0  0  0  # atno 10763 bound_to 10752
  154.2705  135.2779  155.2742 H   0  0  0  0  0  0  0  0  0  0  0  0  # atno 10764 bound_to 10752
  154.5126  135.5837  153.6674 H   0  0  0  0  0  0  0  0  0  0  0  0  # atno 10765 bound_to 10752
  140.6513  134.4448  157.5235 H   0  0  0  0  0  0  0  0  0  0  0  0  # atno 11005 bound_to 11000
  144.9950  140.8581  143.5316 LP  0  0  0  0  0  0  0  0  0  0  0  0  # atno 17320 bound_to 7965
  145.1801  139.2357  143.5297 LP  0  0  0  0  0  0  0  0  0  0  0  0  # atno 17321 bound_to 7965
  140.7622  143.5826  150.8879 LP  0  0  0  0  0  0  0  0  0  0  0  0  # atno 17342 bound_to 10162
  139.9492  143.6291  152.3033 LP  0  0  0  0  0  0  0  0  0  0  0  0  # atno 17343 bound_to 10162
  156.3766  130.7558  151.2547 LP  0  0  0  0  0  0  0  0  0  0  0  0  # atno 17370 bound_to 10713
  157.7500  131.0307  150.4151 LP  0  0  0  0  0  0  0  0  0  0  0  0  # atno 17371 bound_to 10713
  139.9045  134.8481  156.1762 LP  0  0  0  0  0  0  0  0  0  0  0  0  # atno 17394 bound_to 11000
  141.0535  133.6877  156.1816 LP  0  0  0  0  0  0  0  0  0  0  0  0  # atno 17395 bound_to 11000

$$$$
