AV-unprocessed.smi:1758|AV-procd|sdf|7080|dock2
  -GOLD-   22720 8303D 1   1.00000     0.00000
 Structure written by MMmdl.
 44 46  0  0  0  0  0  0  0  0  2 V2000
  149.9431  140.5153  158.1422 C   0  0  0  0  0  0  0  0  0  0  0  0
  149.7103  141.1774  156.7792 C   0  0  0  0  0  0  0  0  0  0  0  0
  149.5294  140.1935  155.7301 N   0  0  0  0  0  0  0  0  0  0  0  0
  148.5582  139.2168  155.6358 C   0  0  0  0  0  0  0  0  0  0  0  0
  148.8201  138.5465  154.4743 C   0  0  0  0  0  0  0  0  0  0  0  0
  148.1301  137.4532  153.8925 N   0  0  0  0  0  0  0  0  0  0  0  0
  146.9234  136.9764  154.2390 C   0  0  0  0  0  0  0  0  0  0  0  0
  146.2178  137.4213  155.1444 O   0  0  0  0  0  0  0  0  0  0  0  0
  146.5733  135.9290  153.4794 N   0  0  0  0  0  0  0  0  0  0  0  0
  145.3258  135.1832  153.6232 C   0  0  1  0  0  0  0  0  0  0  0  0
  144.1048  135.9364  153.1115 C   0  0  0  0  0  0  0  0  0  0  0  0
  143.0666  134.8245  152.9261 C   0  0  0  0  0  0  0  0  0  0  0  0
  143.8190  133.5691  152.6803 N   0  3  1  0  0  0  0  0  0  0  0  0
  143.4389  132.8727  151.4218 C   0  0  0  0  0  0  0  0  0  0  0  0
  144.4985  131.8337  151.0266 C   0  0  0  0  0  0  0  0  0  0  0  0
  145.8636  132.4946  150.7573 C   0  0  0  0  0  0  0  0  0  0  0  0
  146.0181  133.8456  151.4822 C   0  0  0  0  0  0  0  0  0  0  0  0
  145.2729  133.8572  152.8397 C   0  0  1  0  0  0  0  0  0  0  0  0
  149.9643  139.1731  153.9153 C   0  0  0  0  0  0  0  0  0  0  0  0
  150.3894  140.1657  154.6820 N   0  0  0  0  0  0  0  0  0  0  0  0
  150.0767  141.2671  158.9201 H   0  0  0  0  0  0  0  0  0  0  0  0
  150.8351  139.8881  158.1287 H   0  0  0  0  0  0  0  0  0  0  0  0
  149.0963  139.8896  158.4258 H   0  0  0  0  0  0  0  0  0  0  0  0
  148.8254  141.8137  156.8161 H   0  0  0  0  0  0  0  0  0  0  0  0
  150.5526  141.8205  156.5203 H   0  0  0  0  0  0  0  0  0  0  0  0
  147.7920  139.0961  156.3872 H   0  0  0  0  0  0  0  0  0  0  0  0
  148.6104  136.9808  153.1405 H   0  0  0  0  0  0  0  0  0  0  0  0
  147.2100  135.6272  152.7562 H   0  0  0  0  0  0  0  0  0  0  0  0
  145.1629  134.9708  154.6821 H   0  0  0  0  0  0  0  0  0  0  0  0
  143.7687  136.7165  153.7955 H   0  0  0  0  0  0  0  0  0  0  0  0
  144.3224  136.4028  152.1494 H   0  0  0  0  0  0  0  0  0  0  0  0
  142.4902  134.6936  153.8426 H   0  0  0  0  0  0  0  0  0  0  0  0
  142.3600  135.0654  152.1308 H   0  0  0  0  0  0  0  0  0  0  0  0
  142.4670  132.3977  151.5592 H   0  0  0  0  0  0  0  0  0  0  0  0
  143.3259  133.5940  150.6103 H   0  0  0  0  0  0  0  0  0  0  0  0
  144.5986  131.1055  151.8327 H   0  0  0  0  0  0  0  0  0  0  0  0
  144.1762  131.2728  150.1487 H   0  0  0  0  0  0  0  0  0  0  0  0
  146.6553  131.8115  151.0673 H   0  0  0  0  0  0  0  0  0  0  0  0
  145.9997  132.6505  149.6867 H   0  0  0  0  0  0  0  0  0  0  0  0
  147.0797  134.0574  151.6115 H   0  0  0  0  0  0  0  0  0  0  0  0
  145.6255  134.6425  150.8489 H   0  0  0  0  0  0  0  0  0  0  0  0
  145.7054  133.0682  153.4569 H   0  0  0  0  0  0  0  0  0  0  0  0
  150.4910  138.9452  153.0004 H   0  0  0  0  0  0  0  0  0  0  0  0
  143.5805  132.9448  153.4378 H   0  0  0  0  0  0  0  0  0  0  0  0
  1  2  1  0  0  0  0
  1 21  1  0  0  0  0
  1 22  1  0  0  0  0
  1 23  1  0  0  0  0
  2  3  1  0  0  0  0
  2 24  1  0  0  0  0
  2 25  1  0  0  0  0
  3 20  1  0  0  0  0
  3  4  1  0  0  0  0
  4  5  2  0  0  0  0
  4 26  1  0  0  0  0
  5  6  1  0  0  0  0
  5 19  1  0  0  0  0
  6  7  1  0  0  0  0
  6 27  1  0  0  0  0
  7  8  2  0  0  0  0
  7  9  1  0  0  0  0
  9 10  1  0  0  0  0
  9 28  1  0  0  0  0
 10 18  1  0  0  0  0
 10 11  1  0  0  0  0
 10 29  1  0  0  0  0
 11 12  1  0  0  0  0
 11 30  1  0  0  0  0
 11 31  1  0  0  0  0
 12 13  1  0  0  0  0
 12 32  1  0  0  0  0
 12 33  1  0  0  0  0
 13 18  1  0  0  0  0
 13 14  1  0  0  0  0
 13 44  1  0  0  0  0
 14 15  1  0  0  0  0
 14 34  1  0  0  0  0
 14 35  1  0  0  0  0
 15 16  1  0  0  0  0
 15 36  1  0  0  0  0
 15 37  1  0  0  0  0
 16 17  1  0  0  0  0
 16 38  1  0  0  0  0
 16 39  1  0  0  0  0
 17 18  1  0  0  0  0
 17 40  1  0  0  0  0
 17 41  1  0  0  0  0
 18 42  1  0  0  0  0
 19 20  2  0  0  0  0
 19 43  1  0  0  0  0
M  CHG  1  13   1
M  END
> <s_m_source_file>
AV-unprocessed.smi

> <i_m_source_file_index>
1758

> <i_lp_mmshare_version>
43012

> <i_f3d_flags>
0

> <s_epik_input>
W0NIM11bQ0gyXW4xW2NIXWMoW2NIXW4xKVtOSF1DKD1PKVtOSF1bQ0BIXShbQ0gyXVtDSDJdMilbQ0BASF0oTjIzKVtDSDJdW0NIMl1bQ0gyXVtDSDJdMw==

> <s_epik_cmdline>
J2VwaWtfcHl0aG9uJywgJy1waCcsICc3LjAnLCAnLXRuJywgJzgnLCAnLW1hJywgJzIwMCcsICctbWV0YWxfYmluZGluZycsICctaW1hZScsICc8aW5maWxlLm1hZT4nLCAnLW9tYWUnLCAnPG91dGZpbGUubWFlPic=

> <r_lp_tautomer_probability>
1

> <r_epik_Ionization_Penalty>
0.00111541

> <r_epik_Ionization_Penalty_Charging>
0.000974069

> <r_epik_Ionization_Penalty_Neutral>
0.000141346

> <r_epik_State_Penalty>
0.000633842

> <r_epik_Charging_Adjusted_Penalty>
0.00160791

> <i_epik_Tot_Q>
1

> <i_epik_Tot_abs_Q>
1

> <r_epik_Metal_State_Penalty>
-0

> <b_epik_Metal_Only>
0

> <s_lp_Force_Field>
OPLS_2005

> <r_lp_Energy>
44.5039

> <b_lp_Chiralities_Consistent>
1

> <s_lp_Variant>
AV-unprocessed.smi:1758-2

> <Gold.Version>
5.8.1

> <Gold.Id.Protein>
6NUR|6NUR_protein|mol2

> <Gold.PLP.Fitness>
42.2910

> <Gold.PLP.PLP>
-26.5257

> <Gold.PLP.part.hbond>
-3.9673

> <Gold.PLP.part.metal>
0.0000

> <Gold.PLP.part.buried>
-3.0099

> <Gold.PLP.part.nonpolar>
-20.0207

> <Gold.PLP.part.repulsive>
0.1524

> <Gold.PLP.ligand.clash>
0.0000

> <Gold.PLP.ligand.torsion>
0.1816

> <Gold.PLP.Chemscore.Hbond>
4.7025

> <Gold.PLP.Chemscore.CHOScore>
0.6711

> <Gold.PLP.Chemscore.Metal>
0.0000

> <Gold.Chemscore.Hbonds>
donor molecule, donor type, donor heavy atom, donor atom, acceptor molecule, acceptor atom, score
      L1  H     6    27       P1  7948  0.96
      L1  H     9    28       P1  7948  0.81
      L1  H    13    44       P1 10957  2.00
      P1  H  7989  7998       L1    20  0.85
      L1  C    19    43       P1  7957  0.68

> <Gold.PLP.Chemscore.Internal.Correction>
0.0077

> <Gold.Rescore>
     Score         DG    S(hbond)    S(metal)    S(lipo)     H(rot)  DE(clash)    DE(int)     intcor
     18.00     -20.45       3.02        0.00      67.64       1.19       1.17       1.29       ----

> <Gold.Chemscore.Fitness>
17.9971

> <Gold.Chemscore.DG>
-20.4526

> <Gold.Chemscore.ZeroCoef>
-5.4800

> <Gold.Chemscore.Hbond>
3.0241

> <Gold.Chemscore.Metal>
0.0000

> <Gold.Chemscore.Lipo>
67.6441

> <Gold.Chemscore.Internal_Hbond>
0.0000

> <Gold.Chemscore.DEClash>
1.1660

> <Gold.Chemscore.DEInternal>
1.2894

> <Gold.Chemscore.Rot>
1.1884

> <Gold.Chemscore.Internal.Correction>
   9.000000E+99

> <Gold.Chemscore.Hbonds>
donor molecule, donor type, donor heavy atom, donor atom, acceptor molecule, acceptor atom, score
      L1  H     6    27       P1  7948  0.91
      L1  H     9    28       P1  7948  0.75
      L1  H    13    44       P1 10957  0.75
      P1  H  7989  7998       L1    20  0.15

> <Gold.Chemscore.Hbond.Weighted>
-10.1005

> <Gold.Chemscore.Metal.Weighted>
-0.0000

> <Gold.Chemscore.Lipo.Weighted>
-7.9144

> <Gold.Chemscore.Internal_Hbond.Weighted>
0.0000

> <Gold.Chemscore.DEClash.Weighted>
1.1660

> <Gold.Chemscore.DEInternal.Weighted>
1.2894

> <Gold.Chemscore.Rot.Weighted>
3.0423

> <Gold.Chemscore.Internal.Correction.Weighted>
   9.000000E+99

> <Gold.Protein.RotatedTorsions>
[ 6907 6896 6895 6894 ] final -101.33 input  -60.11 | X-H torsion
[ 7974 7965 7964 7962 ] final   96.38 input  175.53 | X-H torsion
[ 8008 7997 7996 7995 ] final  140.02 input   59.86 | X-H torsion
[ 10167 10162 10161 10158 ] final   13.26 input  -65.29 | X-H torsion
[ 10718 10713 10712 10709 ] final  111.03 input   66.30 | X-H torsion
[ 10763 10752 10751 10750 ] final   -0.26 input  -60.55 | X-H torsion
[ 11005 11000 10999 10996 ] final  -11.00 input  -57.11 | X-H torsion

> <Gold.Protein.ActiveResidues>
 VAL166  LYS551  ARG553  GLY616  TRP617  ASP618  TYR619  PRO620  LYS621  CYS622 
 ASP623  PHE694  ASN695  SER759  ASP760  ASP761  ALA762  ILE779  LEU786  VAL792 
 PHE793  MET794  SER795  GLU796  ALA797  LYS798  CYS799  TRP800  GLU811  SER814 

> <Gold.Protein.RotatedAtoms>
  150.7150  134.0751  159.3877 H   0  0  0  0  0  0  0  0  0  0  0  0  # atno 6907 bound_to 6896
  151.8734  135.0478  160.0491 H   0  0  0  0  0  0  0  0  0  0  0  0  # atno 6908 bound_to 6896
  152.2625  133.5274  159.5427 H   0  0  0  0  0  0  0  0  0  0  0  0  # atno 6909 bound_to 6896
  145.4396  139.2302  143.3099 H   0  0  0  0  0  0  0  0  0  0  0  0  # atno 7974 bound_to 7965
  156.2984  140.2352  156.4333 H   0  0  0  0  0  0  0  0  0  0  0  0  # atno 8008 bound_to 7997
  154.8251  140.0436  157.1458 H   0  0  0  0  0  0  0  0  0  0  0  0  # atno 8009 bound_to 7997
  154.9271  140.3011  155.5190 H   0  0  0  0  0  0  0  0  0  0  0  0  # atno 8010 bound_to 7997
  140.6014  143.8596  150.6969 H   0  0  0  0  0  0  0  0  0  0  0  0  # atno 10167 bound_to 10162
  157.6465  131.0943  150.6688 H   0  0  0  0  0  0  0  0  0  0  0  0  # atno 10718 bound_to 10713
  153.3296  135.6974  153.6959 H   0  0  0  0  0  0  0  0  0  0  0  0  # atno 10763 bound_to 10752
  153.5767  135.3506  155.2859 H   0  0  0  0  0  0  0  0  0  0  0  0  # atno 10764 bound_to 10752
  154.8615  135.4285  154.2481 H   0  0  0  0  0  0  0  0  0  0  0  0  # atno 10765 bound_to 10752
  140.7506  133.8595  155.9042 H   0  0  0  0  0  0  0  0  0  0  0  0  # atno 11005 bound_to 11000
  146.2563  140.5142  142.8872 LP  0  0  0  0  0  0  0  0  0  0  0  0  # atno 17320 bound_to 7965
  144.8130  140.6419  143.6403 LP  0  0  0  0  0  0  0  0  0  0  0  0  # atno 17321 bound_to 7965
  140.2143  143.3859  152.1693 LP  0  0  0  0  0  0  0  0  0  0  0  0  # atno 17342 bound_to 10162
  139.5294  144.7141  151.5111 LP  0  0  0  0  0  0  0  0  0  0  0  0  # atno 17343 bound_to 10162
  156.7005  130.4622  149.5574 LP  0  0  0  0  0  0  0  0  0  0  0  0  # atno 17370 bound_to 10713
  156.1798  130.6492  151.0938 LP  0  0  0  0  0  0  0  0  0  0  0  0  # atno 17371 bound_to 10713
  140.9754  134.1476  157.4541 LP  0  0  0  0  0  0  0  0  0  0  0  0  # atno 17394 bound_to 11000
  139.8788  134.9992  156.5945 LP  0  0  0  0  0  0  0  0  0  0  0  0  # atno 17395 bound_to 11000

$$$$
