AV-unprocessed.smi:2448|AV-procd|sdf|9654|dock3
  -GOLD-   2272013283D 1   1.00000     0.00000
 Structure written by MMmdl.
 37 38  0  0  0  0  0  0  0  0  1 V2000
  147.0363  138.6434  151.8728 O   0  0  0  0  0  0  0  0  0  0  0  0
  146.7469  138.6821  153.2593 C   0  0  2  0  0  0  0  0  0  0  0  0
  145.9325  137.4242  153.6219 C   0  0  0  0  0  0  0  0  0  0  0  0
  144.6980  137.3221  152.8381 N   0  0  0  0  0  0  0  0  0  0  0  0
  143.9244  136.0850  153.0179 C   0  0  1  0  0  0  0  0  0  0  0  0
  144.8325  134.8344  153.1442 C   0  0  0  0  0  0  0  0  0  0  0  0
  144.8228  133.9042  151.9445 C   0  0  0  0  0  0  0  0  0  0  0  0
  145.9676  133.7628  151.1334 C   0  0  0  0  0  0  0  0  0  0  0  0
  145.9096  132.8791  150.0370 C   0  0  0  0  0  0  0  0  0  0  0  0
  144.8112  132.1598  149.7215 N   0  0  0  0  0  0  0  0  0  0  0  0
  143.7164  132.3049  150.4985 C   0  0  0  0  0  0  0  0  0  0  0  0
  143.6683  133.1625  151.6156 C   0  0  0  0  0  0  0  0  0  0  0  0
  143.0113  136.2253  154.2543 C   0  0  0  0  0  0  0  0  0  0  0  0
  143.7545  136.3071  155.3585 F   0  0  0  0  0  0  0  0  0  0  0  0
  142.2794  137.3360  154.1657 F   0  0  0  0  0  0  0  0  0  0  0  0
  142.1948  135.1762  154.3625 F   0  0  0  0  0  0  0  0  0  0  0  0
  146.0385  140.0029  153.6105 C   0  0  0  0  0  0  0  0  0  0  0  0
  147.0767  141.1269  153.5409 C   0  0  0  0  0  0  0  0  0  0  0  0
  148.6671  140.4390  154.0640 S   0  0  0  0  0  0  0  0  0  0  0  0
  148.0859  138.7224  154.0164 C   0  0  0  0  0  0  0  0  0  0  0  0
  147.6774  137.9663  151.7199 H   0  0  0  0  0  0  0  0  0  0  0  0
  146.5441  136.5335  153.4723 H   0  0  0  0  0  0  0  0  0  0  0  0
  145.7088  137.4610  154.6844 H   0  0  0  0  0  0  0  0  0  0  0  0
  144.9225  137.4316  151.8542 H   0  0  0  0  0  0  0  0  0  0  0  0
  143.2604  135.9511  152.1626 H   0  0  0  0  0  0  0  0  0  0  0  0
  145.8570  135.1406  153.3607 H   0  0  0  0  0  0  0  0  0  0  0  0
  144.5173  134.2382  154.0006 H   0  0  0  0  0  0  0  0  0  0  0  0
  146.8715  134.3149  151.3457 H   0  0  0  0  0  0  0  0  0  0  0  0
  146.7693  132.7462  149.3971 H   0  0  0  0  0  0  0  0  0  0  0  0
  142.8521  131.7189  150.2230 H   0  0  0  0  0  0  0  0  0  0  0  0
  142.7688  133.2383  152.2086 H   0  0  0  0  0  0  0  0  0  0  0  0
  145.1871  140.2063  152.9600 H   0  0  0  0  0  0  0  0  0  0  0  0
  145.6515  139.9420  154.6289 H   0  0  0  0  0  0  0  0  0  0  0  0
  147.1808  141.4770  152.5136 H   0  0  0  0  0  0  0  0  0  0  0  0
  146.7979  141.9823  154.1563 H   0  0  0  0  0  0  0  0  0  0  0  0
  147.9406  138.4083  155.0508 H   0  0  0  0  0  0  0  0  0  0  0  0
  148.8383  138.0626  153.5825 H   0  0  0  0  0  0  0  0  0  0  0  0
  1  2  1  0  0  0  0
  1 21  1  0  0  0  0
  2 20  1  0  0  0  0
  2  3  1  0  0  0  0
  2 17  1  0  0  0  0
  3  4  1  0  0  0  0
  3 22  1  0  0  0  0
  3 23  1  0  0  0  0
  4  5  1  0  0  0  0
  4 24  1  0  0  0  0
  5  6  1  0  0  0  0
  5 13  1  0  0  0  0
  5 25  1  0  0  0  0
  6  7  1  0  0  0  0
  6 26  1  0  0  0  0
  6 27  1  0  0  0  0
  7 12  1  0  0  0  0
  7  8  2  0  0  0  0
  8  9  1  0  0  0  0
  8 28  1  0  0  0  0
  9 10  2  0  0  0  0
  9 29  1  0  0  0  0
 10 11  1  0  0  0  0
 11 12  2  0  0  0  0
 11 30  1  0  0  0  0
 12 31  1  0  0  0  0
 13 14  1  0  0  0  0
 13 15  1  0  0  0  0
 13 16  1  0  0  0  0
 17 18  1  0  0  0  0
 17 32  1  0  0  0  0
 17 33  1  0  0  0  0
 18 19  1  0  0  0  0
 18 34  1  0  0  0  0
 18 35  1  0  0  0  0
 19 20  1  0  0  0  0
 20 36  1  0  0  0  0
 20 37  1  0  0  0  0
M  END
> <s_m_source_file>
AV-unprocessed.smi

> <i_m_source_file_index>
2448

> <i_lp_mmshare_version>
43012

> <i_f3d_flags>
0

> <s_epik_input>
W0NIMl0xU1tDSDJdW0NIMl1bQ0BAXTEoW09IXSlbQ0gyXVtOSF1bQ0BASF0oQyhGKShGKUYpW0NIMl1jMltjSF1bY0hdbltjSF1bY0hdMg==

> <s_epik_cmdline>
J2VwaWtfcHl0aG9uJywgJy1waCcsICc3LjAnLCAnLXRuJywgJzgnLCAnLW1hJywgJzIwMCcsICctbWV0YWxfYmluZGluZycsICctaW1hZScsICc8aW5maWxlLm1hZT4nLCAnLW9tYWUnLCAnPG91dGZpbGUubWFlPic=

> <r_epik_Ionization_Penalty>
0.187708

> <r_epik_Ionization_Penalty_Charging>
0

> <r_epik_Ionization_Penalty_Neutral>
0.187708

> <r_epik_State_Penalty>
0.22769

> <r_epik_Charging_Adjusted_Penalty>
0.22769

> <i_epik_Tot_Q>
0

> <i_epik_Tot_abs_Q>
0

> <r_epik_Metal_State_Penalty>
0.176206

> <b_epik_Metal_Only>
0

> <s_lp_Force_Field>
OPLS_2005

> <r_lp_Energy>
32.1686

> <b_lp_Chiralities_Consistent>
1

> <s_lp_Variant>
AV-unprocessed.smi:2448-4

> <Gold.Version>
5.8.1

> <Gold.Id.Protein>
6NUR|6NUR_protein|mol2

> <Gold.PLP.Fitness>
41.7998

> <Gold.PLP.PLP>
-34.1951

> <Gold.PLP.part.hbond>
-4.3274

> <Gold.PLP.part.metal>
0.0000

> <Gold.PLP.part.buried>
-1.5748

> <Gold.PLP.part.nonpolar>
-28.7369

> <Gold.PLP.part.repulsive>
0.1527

> <Gold.PLP.ligand.clash>
0.0000

> <Gold.PLP.ligand.torsion>
1.0522

> <Gold.PLP.Chemscore.Hbond>
1.0291

> <Gold.PLP.Chemscore.CHOScore>
1.9973

> <Gold.PLP.Chemscore.Metal>
0.0000

> <Gold.Chemscore.Hbonds>
donor molecule, donor type, donor heavy atom, donor atom, acceptor molecule, acceptor atom, score
      L1  H     1    21       P1  7948  0.76
      L1  C    11    30       P1 10952  0.99

> <Gold.PLP.Chemscore.Internal.Correction>
0.6297

> <Gold.Rescore>
     Score         DG    S(hbond)    S(metal)    S(lipo)     H(rot)  DE(clash)    DE(int)     intcor
      9.92     -12.07       0.99        0.00      78.68       2.31       0.96       1.20       ----

> <Gold.Chemscore.Fitness>
9.9181

> <Gold.Chemscore.DG>
-12.0744

> <Gold.Chemscore.ZeroCoef>
-5.4800

> <Gold.Chemscore.Hbond>
0.9896

> <Gold.Chemscore.Metal>
0.0000

> <Gold.Chemscore.Lipo>
78.6783

> <Gold.Chemscore.Internal_Hbond>
0.0000

> <Gold.Chemscore.DEClash>
0.9612

> <Gold.Chemscore.DEInternal>
1.1951

> <Gold.Chemscore.Rot>
2.3111

> <Gold.Chemscore.Internal.Correction>
   9.000000E+99

> <Gold.Chemscore.Hbonds>
donor molecule, donor type, donor heavy atom, donor atom, acceptor molecule, acceptor atom, score
      L1  H     1    21       P1  7948  0.77

> <Gold.Chemscore.Hbond.Weighted>
-3.3054

> <Gold.Chemscore.Metal.Weighted>
-0.0000

> <Gold.Chemscore.Lipo.Weighted>
-9.2054

> <Gold.Chemscore.Internal_Hbond.Weighted>
0.0000

> <Gold.Chemscore.DEClash.Weighted>
0.9612

> <Gold.Chemscore.DEInternal.Weighted>
1.1951

> <Gold.Chemscore.Rot.Weighted>
5.9164

> <Gold.Chemscore.Internal.Correction.Weighted>
   9.000000E+99

> <Gold.Protein.RotatedTorsions>
[ 6907 6896 6895 6894 ] final  -90.15 input  -60.11 | X-H torsion
[ 7974 7965 7964 7962 ] final -142.45 input  175.53 | X-H torsion
[ 8008 7997 7996 7995 ] final   27.56 input   59.86 | X-H torsion
[ 10167 10162 10161 10158 ] final  175.00 input  -65.29 | X-H torsion
[ 10718 10713 10712 10709 ] final  146.69 input   66.30 | X-H torsion
[ 10763 10752 10751 10750 ] final  -38.37 input  -60.55 | X-H torsion
[ 11005 11000 10999 10996 ] final   60.99 input  -57.11 | X-H torsion

> <Gold.Protein.ActiveResidues>
 VAL166  LYS551  ARG553  GLY616  TRP617  ASP618  TYR619  PRO620  LYS621  CYS622 
 ASP623  PHE694  ASN695  SER759  ASP760  ASP761  ALA762  ILE779  LEU786  VAL792 
 PHE793  MET794  SER795  GLU796  ALA797  LYS798  CYS799  TRP800  GLU811  SER814 

> <Gold.Protein.RotatedAtoms>
  150.6879  134.2477  159.4497 H   0  0  0  0  0  0  0  0  0  0  0  0  # atno 6907 bound_to 6896
  152.0417  134.9705  160.0583 H   0  0  0  0  0  0  0  0  0  0  0  0  # atno 6908 bound_to 6896
  152.1204  133.4315  159.4710 H   0  0  0  0  0  0  0  0  0  0  0  0  # atno 6909 bound_to 6896
  144.8442  140.5956  143.5432 H   0  0  0  0  0  0  0  0  0  0  0  0  # atno 7974 bound_to 7965
  155.0449  140.3173  155.4712 H   0  0  0  0  0  0  0  0  0  0  0  0  # atno 8008 bound_to 7997
  156.2847  140.2156  156.5517 H   0  0  0  0  0  0  0  0  0  0  0  0  # atno 8009 bound_to 7997
  154.7259  140.0485  157.0670 H   0  0  0  0  0  0  0  0  0  0  0  0  # atno 8010 bound_to 7997
  139.5161  144.3082  152.0316 H   0  0  0  0  0  0  0  0  0  0  0  0  # atno 10167 bound_to 10162
  157.3301  131.0919  151.1170 H   0  0  0  0  0  0  0  0  0  0  0  0  # atno 10718 bound_to 10713
  153.9117  135.6791  153.4751 H   0  0  0  0  0  0  0  0  0  0  0  0  # atno 10763 bound_to 10752
  153.1075  135.4799  154.8974 H   0  0  0  0  0  0  0  0  0  0  0  0  # atno 10764 bound_to 10752
  154.7523  135.3188  154.8489 H   0  0  0  0  0  0  0  0  0  0  0  0  # atno 10765 bound_to 10752
  140.0192  134.6178  155.9664 H   0  0  0  0  0  0  0  0  0  0  0  0  # atno 11005 bound_to 11000
  145.4631  139.1511  143.3855 LP  0  0  0  0  0  0  0  0  0  0  0  0  # atno 17320 bound_to 7965
  146.2730  140.4761  142.8807 LP  0  0  0  0  0  0  0  0  0  0  0  0  # atno 17321 bound_to 7965
  140.2527  144.4152  150.6215 LP  0  0  0  0  0  0  0  0  0  0  0  0  # atno 17342 bound_to 10162
  140.6213  143.2176  151.6688 LP  0  0  0  0  0  0  0  0  0  0  0  0  # atno 17343 bound_to 10162
  157.2421  130.6574  149.5894 LP  0  0  0  0  0  0  0  0  0  0  0  0  # atno 17370 bound_to 10713
  155.9695  130.4565  150.5927 LP  0  0  0  0  0  0  0  0  0  0  0  0  # atno 17371 bound_to 10713
  141.1763  133.6541  156.4841 LP  0  0  0  0  0  0  0  0  0  0  0  0  # atno 17394 bound_to 11000
  140.4416  134.7010  157.4995 LP  0  0  0  0  0  0  0  0  0  0  0  0  # atno 17395 bound_to 11000

$$$$
