AV-unprocessed.smi:6|AV-procd|sdf|40|dock2
  -GOLD-   2262015153D 1   1.00000     0.00000
 Structure written by MMmdl.
 38 39  0  0  0  0  0  0  0  0  2 V2000
  145.9261  131.6971  149.3571 C   0  0  0  0  0  0  0  0  0  0  0  0
  144.5705  132.3279  149.7113 C   0  0  0  0  0  0  0  0  0  0  0  0
  143.7858  132.7970  148.4767 C   0  0  0  0  0  0  0  0  0  0  0  0
  144.7079  133.4316  150.7504 C   0  0  0  0  0  0  0  0  0  0  0  0
  143.6819  134.2768  150.9421 N   0  3  0  0  0  0  0  0  0  0  0  0
  143.7926  135.2708  151.8570 C   0  0  0  0  0  0  0  0  0  0  0  0
  144.9744  135.4211  152.6065 C   0  0  0  0  0  0  0  0  0  0  0  0
  146.0082  134.5020  152.3578 C   0  0  0  0  0  0  0  0  0  0  0  0
  147.2099  134.6021  153.0723 N   0  0  0  0  0  0  0  0  0  0  0  0
  147.2265  134.3787  154.5133 C   0  0  0  0  0  0  0  0  0  0  0  0
  148.5953  134.6080  155.1354 C   0  0  0  0  0  0  0  0  0  0  0  0
  149.3030  135.7446  154.9109 C   0  0  0  0  0  0  0  0  0  0  0  0
  150.5413  135.9999  155.4789 N   0  0  0  0  0  0  0  0  0  0  0  0
  151.2859  137.2048  155.2341 C   0  0  0  0  0  0  0  0  0  0  0  0
  151.1238  135.0540  156.3480 C   0  0  0  0  0  0  0  0  0  0  0  0
  152.2205  135.2171  156.8833 O   0  0  0  0  0  0  0  0  0  0  0  0
  150.3909  133.8931  156.5904 N   0  0  0  0  0  0  0  0  0  0  0  0
  149.1404  133.5907  156.0426 C   0  0  0  0  0  0  0  0  0  0  0  0
  148.5890  132.5320  156.3388 O   0  0  0  0  0  0  0  0  0  0  0  0
  145.8573  133.5267  151.4346 N   0  0  0  0  0  0  0  0  0  0  0  0
  150.7981  133.2134  157.2165 H   0  0  0  0  0  0  0  0  0  0  0  0
  146.4201  131.3029  150.2455 H   0  0  0  0  0  0  0  0  0  0  0  0
  146.5966  132.4241  148.8976 H   0  0  0  0  0  0  0  0  0  0  0  0
  145.8028  130.8725  148.6546 H   0  0  0  0  0  0  0  0  0  0  0  0
  143.9758  131.5349  150.1680 H   0  0  0  0  0  0  0  0  0  0  0  0
  142.7982  133.1652  148.7562 H   0  0  0  0  0  0  0  0  0  0  0  0
  143.6450  131.9804  147.7682 H   0  0  0  0  0  0  0  0  0  0  0  0
  144.3061  133.6011  147.9552 H   0  0  0  0  0  0  0  0  0  0  0  0
  142.9312  135.9146  151.9583 H   0  0  0  0  0  0  0  0  0  0  0  0
  145.0775  136.2095  153.3379 H   0  0  0  0  0  0  0  0  0  0  0  0
  147.9830  135.1023  152.6575 H   0  0  0  0  0  0  0  0  0  0  0  0
  146.4947  135.0394  154.9792 H   0  0  0  0  0  0  0  0  0  0  0  0
  146.9161  133.3567  154.7355 H   0  0  0  0  0  0  0  0  0  0  0  0
  148.8774  136.4880  154.2520 H   0  0  0  0  0  0  0  0  0  0  0  0
  152.2347  136.9215  154.7742 H   0  0  0  0  0  0  0  0  0  0  0  0
  151.4271  137.7091  156.1921 H   0  0  0  0  0  0  0  0  0  0  0  0
  150.7092  137.8348  154.5562 H   0  0  0  0  0  0  0  0  0  0  0  0
  142.8202  134.1804  150.4042 H   0  0  0  0  0  0  0  0  0  0  0  0
  1  2  1  0  0  0  0
  1 22  1  0  0  0  0
  1 23  1  0  0  0  0
  1 24  1  0  0  0  0
  2  3  1  0  0  0  0
  2  4  1  0  0  0  0
  2 25  1  0  0  0  0
  3 26  1  0  0  0  0
  3 27  1  0  0  0  0
  3 28  1  0  0  0  0
  4 20  1  0  0  0  0
  4  5  2  0  0  0  0
  5  6  1  0  0  0  0
  5 38  1  0  0  0  0
  6  7  2  0  0  0  0
  6 29  1  0  0  0  0
  7  8  1  0  0  0  0
  7 30  1  0  0  0  0
  8  9  1  0  0  0  0
  8 20  2  0  0  0  0
  9 10  1  0  0  0  0
  9 31  1  0  0  0  0
 10 11  1  0  0  0  0
 10 32  1  0  0  0  0
 10 33  1  0  0  0  0
 11 18  1  0  0  0  0
 11 12  2  0  0  0  0
 12 13  1  0  0  0  0
 12 34  1  0  0  0  0
 13 14  1  0  0  0  0
 13 15  1  0  0  0  0
 14 35  1  0  0  0  0
 14 36  1  0  0  0  0
 14 37  1  0  0  0  0
 15 16  2  0  0  0  0
 15 17  1  0  0  0  0
 17 21  1  0  0  0  0
 17 18  1  0  0  0  0
 18 19  2  0  0  0  0
M  CHG  1   5   1
M  END
> <s_m_source_file>
AV-unprocessed.smi

> <i_m_source_file_index>
6

> <i_lp_mmshare_version>
43012

> <i_f3d_flags>
0

> <s_epik_input>
W0NIM11bQ0hdKFtDSDNdKWMxbltjSF1bY0hdYyhuMSlbTkhdW0NIMl1jMltjSF1uKFtDSDNdKWMoPU8pW25IXWMyPU8=

> <s_epik_cmdline>
J2VwaWtfcHl0aG9uJywgJy1waCcsICc3LjAnLCAnLXRuJywgJzgnLCAnLW1hJywgJzIwMCcsICctbWV0YWxfYmluZGluZycsICctaW1hZScsICc8aW5maWxlLm1hZT4nLCAnLW9tYWUnLCAnPG91dGZpbGUubWFlPic=

> <r_lp_tautomer_probability>
0.998874

> <r_epik_Ionization_Penalty>
0.537311

> <r_epik_Ionization_Penalty_Charging>
0.537291

> <r_epik_Ionization_Penalty_Neutral>
2.09214e-05

> <r_epik_State_Penalty>
0.545757

> <r_epik_Charging_Adjusted_Penalty>
1.08305

> <i_epik_Tot_Q>
1

> <i_epik_Tot_abs_Q>
1

> <r_epik_Metal_State_Penalty>
0.947272

> <b_epik_Metal_Only>
0

> <s_lp_Force_Field>
OPLS_2005

> <r_lp_Energy>
10.386

> <b_lp_Chiralities_Consistent>
1

> <s_lp_Variant>
AV-unprocessed.smi:6-2

> <Gold.Version>
5.8.1

> <Gold.Id.Protein>
6NUR|6NUR_protein|mol2

> <Gold.PLP.Fitness>
42.0875

> <Gold.PLP.PLP>
-30.0331

> <Gold.PLP.part.hbond>
-3.1051

> <Gold.PLP.part.metal>
0.0000

> <Gold.PLP.part.buried>
-3.3203

> <Gold.PLP.part.nonpolar>
-23.8230

> <Gold.PLP.part.repulsive>
0.2563

> <Gold.PLP.ligand.clash>
0.0000

> <Gold.PLP.ligand.torsion>
1.2256

> <Gold.PLP.Chemscore.Hbond>
4.0000

> <Gold.PLP.Chemscore.CHOScore>
0.7986

> <Gold.PLP.Chemscore.Metal>
0.0000

> <Gold.Chemscore.Hbonds>
donor molecule, donor type, donor heavy atom, donor atom, acceptor molecule, acceptor atom, score
      L1  H     5    38       P1 10186  2.00
      L1  H     9    31       P1  7948  1.00
      P1  H 10752 10765       L1    16  0.99
      L1  C    12    34       P1  7948  0.81

> <Gold.PLP.Chemscore.Internal.Correction>
0.1099

> <Gold.Rescore>
     Score         DG    S(hbond)    S(metal)    S(lipo)     H(rot)  DE(clash)    DE(int)     intcor
     15.90     -17.75       2.68        0.00      65.13       1.68       0.81       1.05       ----

> <Gold.Chemscore.Fitness>
15.8953

> <Gold.Chemscore.DG>
-17.7536

> <Gold.Chemscore.ZeroCoef>
-5.4800

> <Gold.Chemscore.Hbond>
2.6800

> <Gold.Chemscore.Metal>
0.0000

> <Gold.Chemscore.Lipo>
65.1328

> <Gold.Chemscore.Internal_Hbond>
0.0000

> <Gold.Chemscore.DEClash>
0.8059

> <Gold.Chemscore.DEInternal>
1.0524

> <Gold.Chemscore.Rot>
1.6789

> <Gold.Chemscore.Internal.Correction>
   9.000000E+99

> <Gold.Chemscore.Hbonds>
donor molecule, donor type, donor heavy atom, donor atom, acceptor molecule, acceptor atom, score
      L1  H     5    38       P1 10186  0.81
      L1  H     9    31       P1  7948  0.96
      P1  H 10752 10765       L1    16  0.45

> <Gold.Chemscore.Hbond.Weighted>
-8.9511

> <Gold.Chemscore.Metal.Weighted>
-0.0000

> <Gold.Chemscore.Lipo.Weighted>
-7.6205

> <Gold.Chemscore.Internal_Hbond.Weighted>
0.0000

> <Gold.Chemscore.DEClash.Weighted>
0.8059

> <Gold.Chemscore.DEInternal.Weighted>
1.0524

> <Gold.Chemscore.Rot.Weighted>
4.2980

> <Gold.Chemscore.Internal.Correction.Weighted>
   9.000000E+99

> <Gold.Protein.RotatedTorsions>
[ 6907 6896 6895 6894 ] final  119.57 input  -60.11 | X-H torsion
[ 7974 7965 7964 7962 ] final   37.74 input  175.53 | X-H torsion
[ 8008 7997 7996 7995 ] final -148.46 input   59.86 | X-H torsion
[ 10167 10162 10161 10158 ] final   53.88 input  -65.29 | X-H torsion
[ 10718 10713 10712 10709 ] final -158.10 input   66.30 | X-H torsion
[ 10763 10752 10751 10750 ] final -120.15 input  -60.55 | X-H torsion
[ 11005 11000 10999 10996 ] final -143.73 input  -57.11 | X-H torsion

> <Gold.Protein.ActiveResidues>
 VAL166  LYS551  ARG553  GLY616  TRP617  ASP618  TYR619  PRO620  LYS621  CYS622 
 ASP623  PHE694  ASN695  SER759  ASP760  ASP761  ALA762  ILE779  LEU786  VAL792 
 PHE793  MET794  SER795  GLU796  ALA797  LYS798  CYS799  TRP800  GLU811  SER814 

> <Gold.Protein.RotatedAtoms>
  152.4462  133.7540  159.6709 H   0  0  0  0  0  0  0  0  0  0  0  0  # atno 6907 bound_to 6896
  150.8362  133.7999  159.3085 H   0  0  0  0  0  0  0  0  0  0  0  0  # atno 6908 bound_to 6896
  151.5638  135.1067  160.0030 H   0  0  0  0  0  0  0  0  0  0  0  0  # atno 6909 bound_to 6896
  146.1115  139.5857  142.9349 H   0  0  0  0  0  0  0  0  0  0  0  0  # atno 7974 bound_to 7965
  155.5920  140.0653  157.2756 H   0  0  0  0  0  0  0  0  0  0  0  0  # atno 8008 bound_to 7997
  154.4302  140.1833  156.1131 H   0  0  0  0  0  0  0  0  0  0  0  0  # atno 8009 bound_to 7997
  156.0225  140.3315  155.7057 H   0  0  0  0  0  0  0  0  0  0  0  0  # atno 8010 bound_to 7997
  140.2361  144.3634  150.6397 H   0  0  0  0  0  0  0  0  0  0  0  0  # atno 10167 bound_to 10162
  156.5495  130.8599  151.2775 H   0  0  0  0  0  0  0  0  0  0  0  0  # atno 10718 bound_to 10713
  154.8636  135.4213  154.2412 H   0  0  0  0  0  0  0  0  0  0  0  0  # atno 10763 bound_to 10752
  153.3377  135.6992  153.6899 H   0  0  0  0  0  0  0  0  0  0  0  0  # atno 10764 bound_to 10752
  153.5890  135.3558  155.2876 H   0  0  0  0  0  0  0  0  0  0  0  0  # atno 10765 bound_to 10752
  140.8096  134.2760  157.4946 H   0  0  0  0  0  0  0  0  0  0  0  0  # atno 11005 bound_to 11000
  145.5654  141.0400  143.2203 LP  0  0  0  0  0  0  0  0  0  0  0  0  # atno 17320 bound_to 7965
  144.7515  139.7181  143.7271 LP  0  0  0  0  0  0  0  0  0  0  0  0  # atno 17321 bound_to 7965
  140.6149  143.2171  151.6812 LP  0  0  0  0  0  0  0  0  0  0  0  0  # atno 17342 bound_to 10162
  139.5093  144.3581  152.0588 LP  0  0  0  0  0  0  0  0  0  0  0  0  # atno 17343 bound_to 10162
  157.7390  130.9824  150.2288 LP  0  0  0  0  0  0  0  0  0  0  0  0  # atno 17370 bound_to 10713
  156.2898  130.3744  149.7853 LP  0  0  0  0  0  0  0  0  0  0  0  0  # atno 17371 bound_to 10713
  139.8715  134.9475  156.3970 LP  0  0  0  0  0  0  0  0  0  0  0  0  # atno 17394 bound_to 11000
  140.9212  133.7644  155.9908 LP  0  0  0  0  0  0  0  0  0  0  0  0  # atno 17395 bound_to 11000

$$$$
