AV-unprocessed.smi:90|AV-procd|sdf|830|dock8
  -GOLD-   2262017253D 1   1.00000     0.00000
 Structure written by MMmdl.
 64 67  0  0  0  0  0  0  0  0  2 V2000
  143.8771  135.0270  154.9088 C   0  0  0  0  0  0  0  0  0  0  0  0
  145.3341  134.9621  154.8336 N   0  0  0  0  0  0  0  0  0  0  0  0
  145.9199  133.7469  154.2709 C   0  0  0  0  0  0  0  0  0  0  0  0
  145.6926  133.6285  152.7512 C   0  0  0  0  0  0  0  0  0  0  0  0
  146.7774  132.7935  152.0212 C   0  0  1  0  0  0  0  0  0  0  0  0
  147.6542  131.9506  152.9761 C   0  0  0  0  0  0  0  0  0  0  0  0
  146.8786  130.7670  153.5757 C   0  0  0  0  0  0  0  0  0  0  0  0
  146.2691  129.9138  152.4551 C   0  0  0  0  0  0  0  0  0  0  0  0
  145.4259  130.7683  151.4937 C   0  0  0  0  0  0  0  0  0  0  0  0
  146.2212  131.9032  150.9587 N   0  3  1  0  0  0  0  0  0  0  0  0
  145.5442  132.6119  149.8484 C   0  0  0  0  0  0  0  0  0  0  0  0
  146.0136  136.1248  154.6374 C   0  0  0  0  0  0  0  0  0  0  0  0
  145.3716  137.1808  154.0687 N   0  0  0  0  0  0  0  0  0  0  0  0
  146.0188  138.3262  153.8392 C   0  0  0  0  0  0  0  0  0  0  0  0
  147.2898  138.6309  154.1008 N   0  0  0  0  0  0  0  0  0  0  0  0
  147.9399  137.5864  154.6874 C   0  0  0  0  0  0  0  0  0  0  0  0
  147.3849  136.3079  154.9839 C   0  0  0  0  0  0  0  0  0  0  0  0
  148.3530  135.5065  155.5784 N   0  0  0  0  0  0  0  0  0  0  0  0
  149.4162  136.2608  155.6205 C   0  0  0  0  0  0  0  0  0  0  0  0
  149.2538  137.5335  155.1221 N   0  0  0  0  0  0  0  0  0  0  0  0
  150.2693  138.5759  155.0492 C   0  0  0  0  0  0  0  0  0  0  0  0
  149.9331  139.8794  155.8348 C   0  0  0  0  0  0  0  0  0  0  0  0
  148.8990  140.7397  155.0541 C   0  0  0  0  0  0  0  0  0  0  0  0
  149.3759  141.1248  153.7805 O   0  0  0  0  0  0  0  0  0  0  0  0
  149.3602  139.5244  157.2312 C   0  0  0  0  0  0  0  0  0  0  0  0
  149.3096  140.7286  158.1905 C   0  0  0  0  0  0  0  0  0  0  0  0
  150.5978  141.3171  158.3101 O   0  0  0  0  0  0  0  0  0  0  0  0
  151.0914  141.8163  157.0742 C   0  0  0  0  0  0  0  0  0  0  0  0
  151.2513  140.6591  156.0731 C   0  0  0  0  0  0  0  0  0  0  0  0
  143.5586  135.8003  155.6091 H   0  0  0  0  0  0  0  0  0  0  0  0
  143.4695  134.0775  155.2564 H   0  0  0  0  0  0  0  0  0  0  0  0
  143.4442  135.2437  153.9315 H   0  0  0  0  0  0  0  0  0  0  0  0
  146.9824  133.6845  154.4960 H   0  0  0  0  0  0  0  0  0  0  0  0
  145.4653  132.8979  154.7805 H   0  0  0  0  0  0  0  0  0  0  0  0
  144.7003  133.2189  152.5658 H   0  0  0  0  0  0  0  0  0  0  0  0
  145.6792  134.6375  152.3412 H   0  0  0  0  0  0  0  0  0  0  0  0
  147.4409  133.4987  151.5186 H   0  0  0  0  0  0  0  0  0  0  0  0
  148.5091  131.5630  152.4202 H   0  0  0  0  0  0  0  0  0  0  0  0
  148.0784  132.5637  153.7703 H   0  0  0  0  0  0  0  0  0  0  0  0
  147.5427  130.1575  154.1892 H   0  0  0  0  0  0  0  0  0  0  0  0
  146.0929  131.1282  154.2396 H   0  0  0  0  0  0  0  0  0  0  0  0
  147.0686  129.4245  151.8974 H   0  0  0  0  0  0  0  0  0  0  0  0
  145.6588  129.1171  152.8815 H   0  0  0  0  0  0  0  0  0  0  0  0
  145.0853  130.1437  150.6670 H   0  0  0  0  0  0  0  0  0  0  0  0
  144.5291  131.1366  151.9929 H   0  0  0  0  0  0  0  0  0  0  0  0
  144.5744  133.0072  150.1514 H   0  0  0  0  0  0  0  0  0  0  0  0
  145.3773  131.9298  149.0144 H   0  0  0  0  0  0  0  0  0  0  0  0
  146.1565  133.4365  149.4821 H   0  0  0  0  0  0  0  0  0  0  0  0
  145.4355  139.1102  153.3792 H   0  0  0  0  0  0  0  0  0  0  0  0
  150.3532  135.9091  156.0273 H   0  0  0  0  0  0  0  0  0  0  0  0
  151.2018  138.1475  155.4192 H   0  0  0  0  0  0  0  0  0  0  0  0
  150.4511  138.8016  153.9978 H   0  0  0  0  0  0  0  0  0  0  0  0
  147.9621  140.1979  154.9242 H   0  0  0  0  0  0  0  0  0  0  0  0
  148.6432  141.6507  155.5925 H   0  0  0  0  0  0  0  0  0  0  0  0
  149.1555  140.4478  153.1594 H   0  0  0  0  0  0  0  0  0  0  0  0
  148.3609  139.0977  157.1405 H   0  0  0  0  0  0  0  0  0  0  0  0
  149.9802  138.7532  157.6905 H   0  0  0  0  0  0  0  0  0  0  0  0
  148.5846  141.4744  157.8636 H   0  0  0  0  0  0  0  0  0  0  0  0
  148.9880  140.3987  159.1784 H   0  0  0  0  0  0  0  0  0  0  0  0
  150.4331  142.5951  156.6880 H   0  0  0  0  0  0  0  0  0  0  0  0
  152.0584  142.2868  157.2525 H   0  0  0  0  0  0  0  0  0  0  0  0
  152.0077  139.9793  156.4676 H   0  0  0  0  0  0  0  0  0  0  0  0
  151.6563  141.0351  155.1333 H   0  0  0  0  0  0  0  0  0  0  0  0
  147.0322  131.4768  150.5336 H   0  0  0  0  0  0  0  0  0  0  0  0
  1  2  1  0  0  0  0
  1 30  1  0  0  0  0
  1 31  1  0  0  0  0
  1 32  1  0  0  0  0
  2  3  1  0  0  0  0
  2 12  1  0  0  0  0
  3  4  1  0  0  0  0
  3 33  1  0  0  0  0
  3 34  1  0  0  0  0
  4  5  1  0  0  0  0
  4 35  1  0  0  0  0
  4 36  1  0  0  0  0
  5 10  1  0  0  0  0
  5  6  1  0  0  0  0
  5 37  1  0  0  0  0
  6  7  1  0  0  0  0
  6 38  1  0  0  0  0
  6 39  1  0  0  0  0
  7  8  1  0  0  0  0
  7 40  1  0  0  0  0
  7 41  1  0  0  0  0
  8  9  1  0  0  0  0
  8 42  1  0  0  0  0
  8 43  1  0  0  0  0
  9 10  1  0  0  0  0
  9 44  1  0  0  0  0
  9 45  1  0  0  0  0
 10 11  1  0  0  0  0
 10 64  1  0  0  0  0
 11 46  1  0  0  0  0
 11 47  1  0  0  0  0
 11 48  1  0  0  0  0
 12 17  1  0  0  0  0
 12 13  2  0  0  0  0
 13 14  1  0  0  0  0
 14 15  2  0  0  0  0
 14 49  1  0  0  0  0
 15 16  1  0  0  0  0
 16 20  1  0  0  0  0
 16 17  2  0  0  0  0
 17 18  1  0  0  0  0
 18 19  2  0  0  0  0
 19 20  1  0  0  0  0
 19 50  1  0  0  0  0
 20 21  1  0  0  0  0
 21 22  1  0  0  0  0
 21 51  1  0  0  0  0
 21 52  1  0  0  0  0
 22 29  1  0  0  0  0
 22 23  1  0  0  0  0
 22 25  1  0  0  0  0
 23 24  1  0  0  0  0
 23 53  1  0  0  0  0
 23 54  1  0  0  0  0
 24 55  1  0  0  0  0
 25 26  1  0  0  0  0
 25 56  1  0  0  0  0
 25 57  1  0  0  0  0
 26 27  1  0  0  0  0
 26 58  1  0  0  0  0
 26 59  1  0  0  0  0
 27 28  1  0  0  0  0
 28 29  1  0  0  0  0
 28 60  1  0  0  0  0
 28 61  1  0  0  0  0
 29 62  1  0  0  0  0
 29 63  1  0  0  0  0
M  CHG  1  10   1
M  END
> <s_m_source_file>
AV-unprocessed.smi

> <i_m_source_file_index>
90

> <i_lp_mmshare_version>
43012

> <i_f3d_flags>
0

> <s_epik_input>
W0NIM11OMVtDSDJdW0NIMl1bQ0gyXVtDSDJdW0NASF0xW0NIMl1bQ0gyXU4oW0NIM10pYyhuW2NIXW4yKWMoYzIzKW5bY0hdbjNbQ0gyXUM0KFtDSDJdW09IXSlbQ0gyXVtDSDJdT1tDSDJdW0NIMl00

> <s_epik_cmdline>
J2VwaWtfcHl0aG9uJywgJy1waCcsICc3LjAnLCAnLXRuJywgJzgnLCAnLW1hJywgJzIwMCcsICctbWV0YWxfYmluZGluZycsICctaW1hZScsICc8aW5maWxlLm1hZT4nLCAnLW9tYWUnLCAnPG91dGZpbGUubWFlPic=

> <r_lp_tautomer_probability>
1

> <r_epik_Ionization_Penalty>
0.00234895

> <r_epik_Ionization_Penalty_Charging>
0.00106647

> <r_epik_Ionization_Penalty_Neutral>
0.00128248

> <r_epik_State_Penalty>
-0

> <r_epik_Charging_Adjusted_Penalty>
0.00106647

> <i_epik_Tot_Q>
1

> <i_epik_Tot_abs_Q>
1

> <r_epik_Metal_State_Penalty>
-0

> <b_epik_Metal_Only>
0

> <s_lp_Force_Field>
OPLS_2005

> <r_lp_Energy>
42.9862

> <b_lp_Chiralities_Consistent>
1

> <s_lp_Variant>
AV-unprocessed.smi:90-2

> <Gold.Version>
5.8.1

> <Gold.Id.Protein>
6NUR|6NUR_protein|mol2

> <Gold.PLP.Fitness>
46.3629

> <Gold.PLP.PLP>
-37.5488

> <Gold.PLP.part.hbond>
-4.0000

> <Gold.PLP.part.metal>
0.0000

> <Gold.PLP.part.buried>
-5.5325

> <Gold.PLP.part.nonpolar>
-28.3137

> <Gold.PLP.part.repulsive>
0.4429

> <Gold.PLP.ligand.clash>
0.0000

> <Gold.PLP.ligand.torsion>
1.7550

> <Gold.PLP.Chemscore.Hbond>
2.8558

> <Gold.PLP.Chemscore.CHOScore>
1.0000

> <Gold.PLP.Chemscore.Metal>
0.0000

> <Gold.Chemscore.Hbonds>
donor molecule, donor type, donor heavy atom, donor atom, acceptor molecule, acceptor atom, score
      L1  H    10    64       P1 10747  0.94
      L1  H    24    55       P1  7957  0.61
      P1  H  7989  7998       L1    24  0.09
      P1  H  8011  8017       L1    24  0.56
      L1  C    14    49       P1 10175  1.00

> <Gold.PLP.Chemscore.Internal.Correction>
0.7567

> <Gold.Rescore>
     Score         DG    S(hbond)    S(metal)    S(lipo)     H(rot)  DE(clash)    DE(int)     intcor
     14.48     -17.08       2.24        0.00      95.11       2.73       0.18       2.42       ----

> <Gold.Chemscore.Fitness>
14.4806

> <Gold.Chemscore.DG>
-17.0812

> <Gold.Chemscore.ZeroCoef>
-5.4800

> <Gold.Chemscore.Hbond>
2.2378

> <Gold.Chemscore.Metal>
0.0000

> <Gold.Chemscore.Lipo>
95.1111

> <Gold.Chemscore.Internal_Hbond>
0.0000

> <Gold.Chemscore.DEClash>
0.1782

> <Gold.Chemscore.DEInternal>
2.4224

> <Gold.Chemscore.Rot>
2.7347

> <Gold.Chemscore.Internal.Correction>
   9.000000E+99

> <Gold.Chemscore.Hbonds>
donor molecule, donor type, donor heavy atom, donor atom, acceptor molecule, acceptor atom, score
      L1  H    10    64       P1 10747  0.90
      L1  H    24    55       P1  7957  0.60
      P1  H  7989  7998       L1    24  0.01
      P1  H  8011  8017       L1    24  0.04

> <Gold.Chemscore.Hbond.Weighted>
-7.4741

> <Gold.Chemscore.Metal.Weighted>
-0.0000

> <Gold.Chemscore.Lipo.Weighted>
-11.1280

> <Gold.Chemscore.Internal_Hbond.Weighted>
0.0000

> <Gold.Chemscore.DEClash.Weighted>
0.1782

> <Gold.Chemscore.DEInternal.Weighted>
2.4224

> <Gold.Chemscore.Rot.Weighted>
7.0009

> <Gold.Chemscore.Internal.Correction.Weighted>
   9.000000E+99

> <Gold.Protein.RotatedTorsions>
[ 6907 6896 6895 6894 ] final   91.19 input  -60.11 | X-H torsion
[ 7974 7965 7964 7962 ] final  175.86 input  175.53 | X-H torsion
[ 8008 7997 7996 7995 ] final   32.34 input   59.86 | X-H torsion
[ 10167 10162 10161 10158 ] final  -27.05 input  -65.29 | X-H torsion
[ 10718 10713 10712 10709 ] final -100.14 input   66.30 | X-H torsion
[ 10763 10752 10751 10750 ] final   86.67 input  -60.55 | X-H torsion
[ 11005 11000 10999 10996 ] final   45.70 input  -57.11 | X-H torsion

> <Gold.Protein.ActiveResidues>
 VAL166  LYS551  ARG553  GLY616  TRP617  ASP618  TYR619  PRO620  LYS621  CYS622 
 ASP623  PHE694  ASN695  SER759  ASP760  ASP761  ALA762  ILE779  LEU786  VAL792 
 PHE793  MET794  SER795  GLU796  ALA797  LYS798  CYS799  TRP800  GLU811  SER814 

> <Gold.Protein.RotatedAtoms>
  152.5449  134.1695  159.8590 H   0  0  0  0  0  0  0  0  0  0  0  0  # atno 6907 bound_to 6896
  151.1707  133.4779  159.2601 H   0  0  0  0  0  0  0  0  0  0  0  0  # atno 6908 bound_to 6896
  151.1278  135.0125  159.8623 H   0  0  0  0  0  0  0  0  0  0  0  0  # atno 6909 bound_to 6896
  144.7194  140.0011  143.6440 H   0  0  0  0  0  0  0  0  0  0  0  0  # atno 7974 bound_to 7965
  155.1209  140.3248  155.4497 H   0  0  0  0  0  0  0  0  0  0  0  0  # atno 8008 bound_to 7997
  156.2663  140.2027  156.6279 H   0  0  0  0  0  0  0  0  0  0  0  0  # atno 8009 bound_to 7997
  154.6684  140.0539  157.0126 H   0  0  0  0  0  0  0  0  0  0  0  0  # atno 8010 bound_to 7997
  140.7279  143.4126  151.1080 H   0  0  0  0  0  0  0  0  0  0  0  0  # atno 10167 bound_to 10162
  156.0154  130.5314  150.6774 H   0  0  0  0  0  0  0  0  0  0  0  0  # atno 10718 bound_to 10713
  153.1593  135.4572  154.9749 H   0  0  0  0  0  0  0  0  0  0  0  0  # atno 10763 bound_to 10752
  154.7885  135.3212  154.7833 H   0  0  0  0  0  0  0  0  0  0  0  0  # atno 10764 bound_to 10752
  153.8326  135.6937  153.4867 H   0  0  0  0  0  0  0  0  0  0  0  0  # atno 10765 bound_to 10752
  140.1435  134.4552  155.8432 H   0  0  0  0  0  0  0  0  0  0  0  0  # atno 11005 bound_to 11000
  146.0335  139.3356  143.0741 LP  0  0  0  0  0  0  0  0  0  0  0  0  # atno 17320 bound_to 7965
  145.8424  140.9573  143.0792 LP  0  0  0  0  0  0  0  0  0  0  0  0  # atno 17321 bound_to 7965
  139.7762  143.8422  152.3129 LP  0  0  0  0  0  0  0  0  0  0  0  0  # atno 17342 bound_to 10162
  139.8358  144.7233  150.9393 LP  0  0  0  0  0  0  0  0  0  0  0  0  # atno 17343 bound_to 10162
  157.4484  131.0869  151.0872 LP  0  0  0  0  0  0  0  0  0  0  0  0  # atno 17370 bound_to 10713
  157.1395  130.6137  149.5551 LP  0  0  0  0  0  0  0  0  0  0  0  0  # atno 17371 bound_to 10713
  141.2189  133.6843  156.7291 LP  0  0  0  0  0  0  0  0  0  0  0  0  # atno 17394 bound_to 11000
  140.2692  134.8406  157.3831 LP  0  0  0  0  0  0  0  0  0  0  0  0  # atno 17395 bound_to 11000

$$$$
