AV-unprocessed.smi:1679|AV-procd|sdf|6733|dock5
  -GOLD-   22720 7483D 1   1.00000     0.00000
 Structure written by MMmdl.
 44 45  0  0  0  0  0  0  0  0  2 V2000
  151.1254  142.4616  157.1422 C   0  0  0  0  0  0  0  0  0  0  0  0
  151.0922  143.0071  158.5789 C   0  0  2  0  0  0  0  0  0  0  0  0
  151.0267  144.5481  158.5761 C   0  0  0  0  0  0  0  0  0  0  0  0
  150.9985  145.1212  160.0016 C   0  0  0  0  0  0  0  0  0  0  0  0
  152.2066  144.6361  160.8140 C   0  0  0  0  0  0  0  0  0  0  0  0
  152.2724  143.1031  160.8308 C   0  0  0  0  0  0  0  0  0  0  0  0
  152.3008  142.5134  159.4054 C   0  0  1  0  0  0  0  0  0  0  0  0
  152.2194  141.0987  159.5073 O   0  0  0  0  0  0  0  0  0  0  0  0
  153.4680  140.4282  159.4144 C   0  0  0  0  0  0  0  0  0  0  0  0
  153.2114  138.9188  159.4479 C   0  0  0  0  0  0  0  0  0  0  0  0
  152.6978  138.4867  158.1568 N   0  0  0  0  0  0  0  0  0  0  0  0
  151.7664  137.5414  157.9618 C   0  0  0  0  0  0  0  0  0  0  0  0
  151.2418  136.9230  158.8874 O   0  0  0  0  0  0  0  0  0  0  0  0
  151.3382  137.2387  156.5150 C   0  0  0  0  0  0  0  0  0  0  0  0
  150.7579  138.3846  155.7892 N   0  0  0  0  0  0  0  0  0  0  0  0
  149.4165  138.2820  155.3800 C   0  0  0  0  0  0  0  0  0  0  0  0
  148.7952  139.2793  154.7222 C   0  0  0  0  0  0  0  0  0  0  0  0
  149.5515  140.4911  154.4324 C   0  0  0  0  0  0  0  0  0  0  0  0
  148.9992  141.4143  153.8373 O   0  0  0  0  0  0  0  0  0  0  0  0
  150.8508  140.5424  154.8482 N   0  5  0  0  0  0  0  0  0  0  0  0
  151.4665  139.5243  155.5259 C   0  0  0  0  0  0  0  0  0  0  0  0
  152.6331  139.6009  155.9115 O   0  0  0  0  0  0  0  0  0  0  0  0
  152.0217  142.7888  156.6146 H   0  0  0  0  0  0  0  0  0  0  0  0
  150.2603  142.8030  156.5731 H   0  0  0  0  0  0  0  0  0  0  0  0
  151.1128  141.3714  157.1318 H   0  0  0  0  0  0  0  0  0  0  0  0
  150.1827  142.6361  159.0545 H   0  0  0  0  0  0  0  0  0  0  0  0
  151.8872  144.9520  158.0409 H   0  0  0  0  0  0  0  0  0  0  0  0
  150.1417  144.8825  158.0332 H   0  0  0  0  0  0  0  0  0  0  0  0
  150.9878  146.2108  159.9658 H   0  0  0  0  0  0  0  0  0  0  0  0
  150.0771  144.8182  160.5010 H   0  0  0  0  0  0  0  0  0  0  0  0
  153.1255  145.0388  160.3864 H   0  0  0  0  0  0  0  0  0  0  0  0
  152.1450  145.0156  161.8345 H   0  0  0  0  0  0  0  0  0  0  0  0
  153.1429  142.7832  161.4031 H   0  0  0  0  0  0  0  0  0  0  0  0
  151.4012  142.7140  161.3576 H   0  0  0  0  0  0  0  0  0  0  0  0
  153.2202  142.8080  158.8948 H   0  0  0  0  0  0  0  0  0  0  0  0
  153.9587  140.7173  158.4846 H   0  0  0  0  0  0  0  0  0  0  0  0
  154.1402  140.6998  160.2297 H   0  0  0  0  0  0  0  0  0  0  0  0
  154.1290  138.3774  159.6815 H   0  0  0  0  0  0  0  0  0  0  0  0
  152.4859  138.6854  160.2285 H   0  0  0  0  0  0  0  0  0  0  0  0
  153.0884  138.9352  157.3399 H   0  0  0  0  0  0  0  0  0  0  0  0
  152.1983  136.8387  155.9758 H   0  0  0  0  0  0  0  0  0  0  0  0
  150.6188  136.4191  156.5413 H   0  0  0  0  0  0  0  0  0  0  0  0
  148.9278  137.3542  155.6395 H   0  0  0  0  0  0  0  0  0  0  0  0
  147.7627  139.1860  154.4191 H   0  0  0  0  0  0  0  0  0  0  0  0
  1  2  1  0  0  0  0
  1 23  1  0  0  0  0
  1 24  1  0  0  0  0
  1 25  1  0  0  0  0
  2  7  1  0  0  0  0
  2  3  1  0  0  0  0
  2 26  1  0  0  0  0
  3  4  1  0  0  0  0
  3 27  1  0  0  0  0
  3 28  1  0  0  0  0
  4  5  1  0  0  0  0
  4 29  1  0  0  0  0
  4 30  1  0  0  0  0
  5  6  1  0  0  0  0
  5 31  1  0  0  0  0
  5 32  1  0  0  0  0
  6  7  1  0  0  0  0
  6 33  1  0  0  0  0
  6 34  1  0  0  0  0
  7  8  1  0  0  0  0
  7 35  1  0  0  0  0
  8  9  1  0  0  0  0
  9 10  1  0  0  0  0
  9 36  1  0  0  0  0
  9 37  1  0  0  0  0
 10 11  1  0  0  0  0
 10 38  1  0  0  0  0
 10 39  1  0  0  0  0
 11 12  1  0  0  0  0
 11 40  1  0  0  0  0
 12 13  2  0  0  0  0
 12 14  1  0  0  0  0
 14 15  1  0  0  0  0
 14 41  1  0  0  0  0
 14 42  1  0  0  0  0
 15 21  1  0  0  0  0
 15 16  1  0  0  0  0
 16 17  2  0  0  0  0
 16 43  1  0  0  0  0
 17 18  1  0  0  0  0
 17 44  1  0  0  0  0
 18 19  2  0  0  0  0
 18 20  1  0  0  0  0
 20 21  1  0  0  0  0
 21 22  2  0  0  0  0
M  CHG  1  20  -1
M  END
> <s_m_source_file>
AV-unprocessed.smi

> <i_m_source_file_index>
1679

> <i_lp_mmshare_version>
43012

> <i_f3d_flags>
0

> <s_epik_input>
W0NIM11bQ0BASF0xW0NIMl1bQ0gyXVtDSDJdW0NIMl1bQ0BIXTFPW0NIMl1bQ0gyXVtOSF1DKD1PKVtDSDJdbjJbY0hdW2NIXWMoPU8pW25IXWMyPU8=

> <s_epik_cmdline>
J2VwaWtfcHl0aG9uJywgJy1waCcsICc3LjAnLCAnLXRuJywgJzgnLCAnLW1hJywgJzIwMCcsICctbWV0YWxfYmluZGluZycsICctaW1hZScsICc8aW5maWxlLm1hZT4nLCAnLW9tYWUnLCAnPG91dGZpbGUubWFlPic=

> <r_lp_tautomer_probability>
0.999537

> <r_epik_Ionization_Penalty>
3.07454

> <r_epik_Ionization_Penalty_Charging>
2.80088e-08

> <r_epik_Ionization_Penalty_Neutral>
3.07454

> <r_epik_State_Penalty>
3.07357

> <r_epik_Charging_Adjusted_Penalty>
3.07357

> <i_epik_Tot_Q>
-1

> <i_epik_Tot_abs_Q>
1

> <r_epik_Metal_State_Penalty>
0.45948

> <b_epik_Metal_Only>
1

> <s_lp_Force_Field>
OPLS_2005

> <r_lp_Energy>
18.3585

> <b_lp_Chiralities_Consistent>
1

> <s_lp_Variant>
AV-unprocessed.smi:1679-5

> <Gold.Version>
5.8.1

> <Gold.Id.Protein>
6NUR|6NUR_protein|mol2

> <Gold.PLP.Fitness>
50.2814

> <Gold.PLP.PLP>
-40.3385

> <Gold.PLP.part.hbond>
-4.5464

> <Gold.PLP.part.metal>
0.0000

> <Gold.PLP.part.buried>
-6.6327

> <Gold.PLP.part.nonpolar>
-29.5270

> <Gold.PLP.part.repulsive>
1.1650

> <Gold.PLP.ligand.clash>
0.0000

> <Gold.PLP.ligand.torsion>
0.7778

> <Gold.PLP.Chemscore.Hbond>
3.8073

> <Gold.PLP.Chemscore.CHOScore>
0.0000

> <Gold.PLP.Chemscore.Metal>
0.0000

> <Gold.Chemscore.Hbonds>
donor molecule, donor type, donor heavy atom, donor atom, acceptor molecule, acceptor atom, score
      P1  H  6896  6908       L1    13  0.94
      P1  H  7989  7998       L1    20  1.00
      P1  H  7997  8010       L1    22  0.99
      P1  H  8011  8017       L1    19  0.77

> <Gold.PLP.Chemscore.Internal.Correction>
0.0767

> <Gold.Rescore>
     Score         DG    S(hbond)    S(metal)    S(lipo)     H(rot)  DE(clash)    DE(int)     intcor
     18.39     -21.86       3.37        0.00      97.51       2.45       1.06       2.41       ----

> <Gold.Chemscore.Fitness>
18.3855

> <Gold.Chemscore.DG>
-21.8637

> <Gold.Chemscore.ZeroCoef>
-5.4800

> <Gold.Chemscore.Hbond>
3.3666

> <Gold.Chemscore.Metal>
0.0000

> <Gold.Chemscore.Lipo>
97.5094

> <Gold.Chemscore.Internal_Hbond>
0.0000

> <Gold.Chemscore.DEClash>
1.0633

> <Gold.Chemscore.DEInternal>
2.4148

> <Gold.Chemscore.Rot>
2.4490

> <Gold.Chemscore.Internal.Correction>
   9.000000E+99

> <Gold.Chemscore.Hbonds>
donor molecule, donor type, donor heavy atom, donor atom, acceptor molecule, acceptor atom, score
      P1  H  6896  6908       L1    13  0.85
      P1  H  7989  7998       L1    20  0.29
      P1  H  7997  8010       L1    22  0.94
      P1  H  8011  8017       L1    19  0.74

> <Gold.Chemscore.Hbond.Weighted>
-11.2445

> <Gold.Chemscore.Metal.Weighted>
-0.0000

> <Gold.Chemscore.Lipo.Weighted>
-11.4086

> <Gold.Chemscore.Internal_Hbond.Weighted>
0.0000

> <Gold.Chemscore.DEClash.Weighted>
1.0633

> <Gold.Chemscore.DEInternal.Weighted>
2.4148

> <Gold.Chemscore.Rot.Weighted>
6.2694

> <Gold.Chemscore.Internal.Correction.Weighted>
   9.000000E+99

> <Gold.Protein.RotatedTorsions>
[ 6907 6896 6895 6894 ] final -140.01 input  -60.11 | X-H torsion
[ 7974 7965 7964 7962 ] final  -31.23 input  175.53 | X-H torsion
[ 8008 7997 7996 7995 ] final  104.75 input   59.86 | X-H torsion
[ 10167 10162 10161 10158 ] final -162.46 input  -65.29 | X-H torsion
[ 10718 10713 10712 10709 ] final -160.43 input   66.30 | X-H torsion
[ 10763 10752 10751 10750 ] final -172.62 input  -60.55 | X-H torsion
[ 11005 11000 10999 10996 ] final  -25.50 input  -57.11 | X-H torsion

> <Gold.Protein.ActiveResidues>
 VAL166  LYS551  ARG553  GLY616  TRP617  ASP618  TYR619  PRO620  LYS621  CYS622 
 ASP623  PHE694  ASN695  SER759  ASP760  ASP761  ALA762  ILE779  LEU786  VAL792 
 PHE793  MET794  SER795  GLU796  ALA797  LYS798  CYS799  TRP800  GLU811  SER814 

> <Gold.Protein.RotatedAtoms>
  151.0551  133.5591  159.2638 H   0  0  0  0  0  0  0  0  0  0  0  0  # atno 6907 bound_to 6896
  151.2587  135.0646  159.9100 H   0  0  0  0  0  0  0  0  0  0  0  0  # atno 6908 bound_to 6896
  152.5388  134.0300  159.8074 H   0  0  0  0  0  0  0  0  0  0  0  0  # atno 6909 bound_to 6896
  146.1083  140.5640  142.8789 H   0  0  0  0  0  0  0  0  0  0  0  0  # atno 7974 bound_to 7965
  156.1600  140.3142  155.8791 H   0  0  0  0  0  0  0  0  0  0  0  0  # atno 8008 bound_to 7997
  155.3802  140.0487  157.3061 H   0  0  0  0  0  0  0  0  0  0  0  0  # atno 8009 bound_to 7997
  154.5137  140.2174  155.9117 H   0  0  0  0  0  0  0  0  0  0  0  0  # atno 8010 bound_to 7997
  139.6391  144.0294  152.2077 H   0  0  0  0  0  0  0  0  0  0  0  0  # atno 10167 bound_to 10162
  156.5821  130.8734  151.2867 H   0  0  0  0  0  0  0  0  0  0  0  0  # atno 10718 bound_to 10713
  154.6172  135.2871  155.0367 H   0  0  0  0  0  0  0  0  0  0  0  0  # atno 10763 bound_to 10752
  154.1575  135.6493  153.4982 H   0  0  0  0  0  0  0  0  0  0  0  0  # atno 10764 bound_to 10752
  153.0220  135.5370  154.6947 H   0  0  0  0  0  0  0  0  0  0  0  0  # atno 10765 bound_to 10752
  140.8943  133.7567  156.0461 H   0  0  0  0  0  0  0  0  0  0  0  0  # atno 11005 bound_to 11000
  144.7490  140.5142  143.6815 LP  0  0  0  0  0  0  0  0  0  0  0  0  # atno 17320 bound_to 7965
  145.5715  139.1484  143.3286 LP  0  0  0  0  0  0  0  0  0  0  0  0  # atno 17321 bound_to 7965
  139.9979  144.6314  150.7756 LP  0  0  0  0  0  0  0  0  0  0  0  0  # atno 17342 bound_to 10162
  140.7481  143.2917  151.3313 LP  0  0  0  0  0  0  0  0  0  0  0  0  # atno 17343 bound_to 10162
  157.7324  130.9714  150.1926 LP  0  0  0  0  0  0  0  0  0  0  0  0  # atno 17370 bound_to 10713
  156.2623  130.3712  149.8118 LP  0  0  0  0  0  0  0  0  0  0  0  0  # atno 17371 bound_to 10713
  140.8308  134.3180  157.5349 LP  0  0  0  0  0  0  0  0  0  0  0  0  # atno 17394 bound_to 11000
  139.8733  134.9362  156.3655 LP  0  0  0  0  0  0  0  0  0  0  0  0  # atno 17395 bound_to 11000

$$$$
