AV-unprocessed.smi:732|AV-procd|sdf|3527|dock5
  -GOLD-   22720 0523D 1   1.00000     0.00000
 Structure written by MMmdl.
 34 36  0  0  0  0  0  0  0  0  1 V2000
  146.8785  139.5396  152.7441 C   0  0  0  0  0  0  0  0  0  0  0  0
  147.9704  140.1412  153.5612 C   0  0  0  0  0  0  0  0  0  0  0  0
  148.0679  141.3086  154.2651 C   0  0  0  0  0  0  0  0  0  0  0  0
  149.3827  141.2512  154.7991 C   0  0  0  0  0  0  0  0  0  0  0  0
  149.8861  142.3024  155.6069 N   0  0  0  0  0  0  0  0  0  0  0  0
  150.7546  142.2075  156.6282 C   0  0  0  0  0  0  0  0  0  0  0  0
  151.2521  141.1591  157.0402 O   0  0  0  0  0  0  0  0  0  0  0  0
  151.0232  143.4127  157.1489 N   0  0  0  0  0  0  0  0  0  0  0  0
  151.9213  143.6665  158.2281 C   0  0  2  0  0  0  0  0  0  0  0  0
  152.1099  142.5641  159.2499 C   0  0  1  0  0  0  0  0  0  0  0  0
  153.4051  142.3800  160.0191 C   0  0  0  0  0  0  0  0  0  0  0  0
  153.1858  142.5768  161.5321 C   0  0  0  0  0  0  0  0  0  0  0  0
  152.3751  143.8467  161.8973 C   0  0  0  0  0  0  0  0  0  0  0  0
  151.9235  144.6788  160.6815 C   0  0  0  0  0  0  0  0  0  0  0  0
  151.3146  143.7948  159.6091 C   0  0  1  0  0  0  0  0  0  0  0  0
  150.0288  140.1478  154.4544 N   0  0  0  0  0  0  0  0  0  0  0  0
  149.1272  139.4310  153.6589 O   0  0  0  0  0  0  0  0  0  0  0  0
  145.9046  139.7404  153.1910 H   0  0  0  0  0  0  0  0  0  0  0  0
  146.9968  138.4585  152.6667 H   0  0  0  0  0  0  0  0  0  0  0  0
  146.8801  139.9527  151.7354 H   0  0  0  0  0  0  0  0  0  0  0  0
  147.3185  142.0781  154.3762 H   0  0  0  0  0  0  0  0  0  0  0  0
  149.5596  143.2283  155.3737 H   0  0  0  0  0  0  0  0  0  0  0  0
  150.5647  144.2163  156.7456 H   0  0  0  0  0  0  0  0  0  0  0  0
  152.7906  144.2882  158.0180 H   0  0  0  0  0  0  0  0  0  0  0  0
  151.5265  141.6530  159.1273 H   0  0  0  0  0  0  0  0  0  0  0  0
  153.8148  141.3914  159.8107 H   0  0  0  0  0  0  0  0  0  0  0  0
  154.1387  143.1030  159.6598 H   0  0  0  0  0  0  0  0  0  0  0  0
  152.6618  141.7047  161.9252 H   0  0  0  0  0  0  0  0  0  0  0  0
  154.1508  142.5946  162.0393 H   0  0  0  0  0  0  0  0  0  0  0  0
  151.4924  143.5456  162.4627 H   0  0  0  0  0  0  0  0  0  0  0  0
  152.9565  144.4764  162.5714 H   0  0  0  0  0  0  0  0  0  0  0  0
  151.2029  145.4417  160.9771 H   0  0  0  0  0  0  0  0  0  0  0  0
  152.7812  145.2068  160.2627 H   0  0  0  0  0  0  0  0  0  0  0  0
  150.2417  143.6399  159.7100 H   0  0  0  0  0  0  0  0  0  0  0  0
  1  2  1  0  0  0  0
  1 18  1  0  0  0  0
  1 19  1  0  0  0  0
  1 20  1  0  0  0  0
  2 17  1  0  0  0  0
  2  3  2  0  0  0  0
  3  4  1  0  0  0  0
  3 21  1  0  0  0  0
  4  5  1  0  0  0  0
  4 16  2  0  0  0  0
  5  6  1  0  0  0  0
  5 22  1  0  0  0  0
  6  7  2  0  0  0  0
  6  8  1  0  0  0  0
  8  9  1  0  0  0  0
  8 23  1  0  0  0  0
  9 15  1  0  0  0  0
  9 10  1  0  0  0  0
  9 24  1  0  0  0  0
 10 15  1  0  0  0  0
 10 11  1  0  0  0  0
 10 25  1  0  0  0  0
 11 12  1  0  0  0  0
 11 26  1  0  0  0  0
 11 27  1  0  0  0  0
 12 13  1  0  0  0  0
 12 28  1  0  0  0  0
 12 29  1  0  0  0  0
 13 14  1  0  0  0  0
 13 30  1  0  0  0  0
 13 31  1  0  0  0  0
 14 15  1  0  0  0  0
 14 32  1  0  0  0  0
 14 33  1  0  0  0  0
 15 34  1  0  0  0  0
 16 17  1  0  0  0  0
M  END
> <s_m_source_file>
AV-unprocessed.smi

> <i_m_source_file_index>
732

> <i_lp_mmshare_version>
43012

> <i_f3d_flags>
0

> <s_epik_input>
W0NIM11jMVtjSF1jKG5vMSlbTkhdQyg9TylbTkhdW0NASF0yW0NAQEhdKFtDQEBIXTIzKVtDSDJdW0NIMl1bQ0gyXVtDSDJdMw==

> <s_epik_cmdline>
J2VwaWtfcHl0aG9uJywgJy1waCcsICc3LjAnLCAnLXRuJywgJzgnLCAnLW1hJywgJzIwMCcsICctbWV0YWxfYmluZGluZycsICctaW1hZScsICc8aW5maWxlLm1hZT4nLCAnLW9tYWUnLCAnPG91dGZpbGUubWFlPic=

> <r_lp_tautomer_probability>
1

> <r_epik_Ionization_Penalty>
2.39506e-05

> <r_epik_Ionization_Penalty_Charging>
0

> <r_epik_Ionization_Penalty_Neutral>
2.39506e-05

> <r_epik_State_Penalty>
-0

> <r_epik_Charging_Adjusted_Penalty>
0

> <i_epik_Tot_Q>
0

> <i_epik_Tot_abs_Q>
0

> <r_epik_Metal_State_Penalty>
-0

> <b_epik_Metal_Only>
0

> <s_lp_Force_Field>
OPLS_2005

> <r_lp_Energy>
33.499

> <b_lp_Chiralities_Consistent>
1

> <s_lp_Variant>
AV-unprocessed.smi:732-1

> <Gold.Version>
5.8.1

> <Gold.Id.Protein>
6NUR|6NUR_protein|mol2

> <Gold.PLP.Fitness>
47.1022

> <Gold.PLP.PLP>
-39.6814

> <Gold.PLP.part.hbond>
-3.0000

> <Gold.PLP.part.metal>
0.0000

> <Gold.PLP.part.buried>
-4.6913

> <Gold.PLP.part.nonpolar>
-36.4104

> <Gold.PLP.part.repulsive>
3.4586

> <Gold.PLP.ligand.clash>
0.0000

> <Gold.PLP.ligand.torsion>
0.5670

> <Gold.PLP.Chemscore.Hbond>
2.8406

> <Gold.PLP.Chemscore.CHOScore>
0.0000

> <Gold.PLP.Chemscore.Metal>
0.0000

> <Gold.Chemscore.Hbonds>
donor molecule, donor type, donor heavy atom, donor atom, acceptor molecule, acceptor atom, score
      L1  H     5    22       P1  8028  1.00
      L1  H     8    23       P1  8028  0.84
      P1  H  7989  7998       L1    16  1.00

> <Gold.PLP.Chemscore.Internal.Correction>
0.0331

> <Gold.Rescore>
     Score         DG    S(hbond)    S(metal)    S(lipo)     H(rot)  DE(clash)    DE(int)     intcor
     19.93     -23.43       2.64        0.00      99.93       1.00       1.45       2.05       ----

> <Gold.Chemscore.Fitness>
19.9307

> <Gold.Chemscore.DG>
-23.4274

> <Gold.Chemscore.ZeroCoef>
-5.4800

> <Gold.Chemscore.Hbond>
2.6396

> <Gold.Chemscore.Metal>
0.0000

> <Gold.Chemscore.Lipo>
99.9254

> <Gold.Chemscore.Internal_Hbond>
0.0000

> <Gold.Chemscore.DEClash>
1.4481

> <Gold.Chemscore.DEInternal>
2.0486

> <Gold.Chemscore.Rot>
1.0000

> <Gold.Chemscore.Internal.Correction>
   9.000000E+99

> <Gold.Chemscore.Hbonds>
donor molecule, donor type, donor heavy atom, donor atom, acceptor molecule, acceptor atom, score
      L1  H     5    22       P1  8028  0.99
      L1  H     8    23       P1  8028  0.76
      P1  H  7989  7998       L1    16  0.29

> <Gold.Chemscore.Hbond.Weighted>
-8.8161

> <Gold.Chemscore.Metal.Weighted>
-0.0000

> <Gold.Chemscore.Lipo.Weighted>
-11.6913

> <Gold.Chemscore.Internal_Hbond.Weighted>
0.0000

> <Gold.Chemscore.DEClash.Weighted>
1.4481

> <Gold.Chemscore.DEInternal.Weighted>
2.0486

> <Gold.Chemscore.Rot.Weighted>
2.5600

> <Gold.Chemscore.Internal.Correction.Weighted>
   9.000000E+99

> <Gold.Protein.RotatedTorsions>
[ 6907 6896 6895 6894 ] final  112.22 input  -60.11 | X-H torsion
[ 7974 7965 7964 7962 ] final   67.51 input  175.53 | X-H torsion
[ 8008 7997 7996 7995 ] final  -30.09 input   59.86 | X-H torsion
[ 10167 10162 10161 10158 ] final -102.93 input  -65.29 | X-H torsion
[ 10718 10713 10712 10709 ] final -174.57 input   66.30 | X-H torsion
[ 10763 10752 10751 10750 ] final   86.36 input  -60.55 | X-H torsion
[ 11005 11000 10999 10996 ] final  -52.30 input  -57.11 | X-H torsion

> <Gold.Protein.ActiveResidues>
 VAL166  LYS551  ARG553  GLY616  TRP617  ASP618  TYR619  PRO620  LYS621  CYS622 
 ASP623  PHE694  ASN695  SER759  ASP760  ASP761  ALA762  ILE779  LEU786  VAL792 
 PHE793  MET794  SER795  GLU796  ALA797  LYS798  CYS799  TRP800  GLU811  SER814 

> <Gold.Protein.RotatedAtoms>
  152.4928  133.8547  159.7219 H   0  0  0  0  0  0  0  0  0  0  0  0  # atno 6907 bound_to 6896
  150.9074  133.7031  159.2870 H   0  0  0  0  0  0  0  0  0  0  0  0  # atno 6908 bound_to 6896
  151.4452  135.1028  159.9734 H   0  0  0  0  0  0  0  0  0  0  0  0  # atno 6909 bound_to 6896
  145.8138  139.3047  143.1083 H   0  0  0  0  0  0  0  0  0  0  0  0  # atno 7974 bound_to 7965
  154.4264  140.1801  156.1351 H   0  0  0  0  0  0  0  0  0  0  0  0  # atno 8008 bound_to 7997
  156.0037  140.3357  155.6846 H   0  0  0  0  0  0  0  0  0  0  0  0  # atno 8009 bound_to 7997
  155.6208  140.0659  157.2669 H   0  0  0  0  0  0  0  0  0  0  0  0  # atno 8010 bound_to 7997
  140.2254  143.3645  152.0933 H   0  0  0  0  0  0  0  0  0  0  0  0  # atno 10167 bound_to 10162
  156.7870  130.9504  151.3120 H   0  0  0  0  0  0  0  0  0  0  0  0  # atno 10718 bound_to 10713
  153.1563  135.4583  154.9708 H   0  0  0  0  0  0  0  0  0  0  0  0  # atno 10763 bound_to 10752
  154.7863  135.3205  154.7880 H   0  0  0  0  0  0  0  0  0  0  0  0  # atno 10764 bound_to 10752
  153.8377  135.6933  153.4861 H   0  0  0  0  0  0  0  0  0  0  0  0  # atno 10765 bound_to 10752
  141.0917  133.6631  156.4005 H   0  0  0  0  0  0  0  0  0  0  0  0  # atno 11005 bound_to 11000
  145.9748  140.8730  143.0144 LP  0  0  0  0  0  0  0  0  0  0  0  0  # atno 17320 bound_to 7965
  144.6754  140.1997  143.7388 LP  0  0  0  0  0  0  0  0  0  0  0  0  # atno 17321 bound_to 7965
  139.5129  144.6924  151.5724 LP  0  0  0  0  0  0  0  0  0  0  0  0  # atno 17342 bound_to 10162
  140.6224  143.9232  150.6537 LP  0  0  0  0  0  0  0  0  0  0  0  0  # atno 17343 bound_to 10162
  157.6619  130.8973  149.9848 LP  0  0  0  0  0  0  0  0  0  0  0  0  # atno 17370 bound_to 10713
  156.1182  130.3647  149.9932 LP  0  0  0  0  0  0  0  0  0  0  0  0  # atno 17371 bound_to 10713
  140.5236  134.6280  157.5326 LP  0  0  0  0  0  0  0  0  0  0  0  0  # atno 17394 bound_to 11000
  139.9745  134.7239  155.9977 LP  0  0  0  0  0  0  0  0  0  0  0  0  # atno 17395 bound_to 11000

$$$$
