AV-unprocessed.smi:2496|AV-procd|sdf|9827|dock5
  -GOLD-   2272013453D 1   1.00000     0.00000
 Structure written by MMmdl.
 40 40  0  0  0  0  0  0  0  0  1 V2000
  152.1154  139.5187  156.2101 C   0  0  0  0  0  0  0  0  0  0  0  0
  150.8937  139.9795  155.4676 C   0  0  0  0  0  0  0  0  0  0  0  0
  150.7207  139.6018  154.2107 N   0  0  0  0  0  0  0  0  0  0  0  0
  149.5619  140.1821  153.8569 N   0  0  0  0  0  0  0  0  0  0  0  0
  148.9969  140.9245  154.8671 C   0  0  0  0  0  0  0  0  0  0  0  0
  147.7106  141.6573  154.6715 C   0  0  0  0  0  0  0  0  0  0  0  0
  149.8386  140.8168  155.9451 C   0  0  0  0  0  0  0  0  0  0  0  0
  149.7263  141.4336  157.3258 C   0  0  2  0  0  0  0  0  0  0  0  0
  148.3127  141.9850  157.5906 C   0  0  0  0  0  0  0  0  0  0  0  0
  150.8313  142.4869  157.5154 C   0  0  0  0  0  0  0  0  0  0  0  0
  151.0225  143.3625  156.6706 O   0  0  0  0  0  0  0  0  0  0  0  0
  151.5578  142.3811  158.6401 N   0  0  0  0  0  0  0  0  0  0  0  0
  152.7098  143.2044  159.0007 C   0  0  1  0  0  0  0  0  0  0  0  0
  152.3399  144.6838  158.7919 C   0  0  0  0  0  0  0  0  0  0  0  0
  153.1606  142.8777  160.4492 C   0  0  0  0  0  0  0  0  0  0  0  0
  153.4320  141.3764  160.6532 C   0  0  0  0  0  0  0  0  0  0  0  0
  152.1443  143.3639  161.5021 C   0  0  0  0  0  0  0  0  0  0  0  0
  149.1729  140.0662  152.9319 H   0  0  0  0  0  0  0  0  0  0  0  0
  152.7077  140.3693  156.5478 H   0  0  0  0  0  0  0  0  0  0  0  0
  152.7578  138.8938  155.5886 H   0  0  0  0  0  0  0  0  0  0  0  0
  151.8388  138.9362  157.0888 H   0  0  0  0  0  0  0  0  0  0  0  0
  147.7423  142.6381  155.1455 H   0  0  0  0  0  0  0  0  0  0  0  0
  146.8801  141.0991  155.1030 H   0  0  0  0  0  0  0  0  0  0  0  0
  147.5001  141.8080  153.6123 H   0  0  0  0  0  0  0  0  0  0  0  0
  149.9096  140.6736  158.0860 H   0  0  0  0  0  0  0  0  0  0  0  0
  148.0476  142.7816  156.8952 H   0  0  0  0  0  0  0  0  0  0  0  0
  148.2269  142.3859  158.6011 H   0  0  0  0  0  0  0  0  0  0  0  0
  147.5656  141.1974  157.4901 H   0  0  0  0  0  0  0  0  0  0  0  0
  151.3238  141.6323  159.2761 H   0  0  0  0  0  0  0  0  0  0  0  0
  153.5409  142.9666  158.3341 H   0  0  0  0  0  0  0  0  0  0  0  0
  153.1986  145.3396  158.9318 H   0  0  0  0  0  0  0  0  0  0  0  0
  151.5594  144.9992  159.4850 H   0  0  0  0  0  0  0  0  0  0  0  0
  151.9735  144.8565  157.7794 H   0  0  0  0  0  0  0  0  0  0  0  0
  154.0966  143.4053  160.6388 H   0  0  0  0  0  0  0  0  0  0  0  0
  152.5472  140.7802  160.4276 H   0  0  0  0  0  0  0  0  0  0  0  0
  153.7180  141.1667  161.6843 H   0  0  0  0  0  0  0  0  0  0  0  0
  154.2466  141.0207  160.0231 H   0  0  0  0  0  0  0  0  0  0  0  0
  151.1615  142.9221  161.3351 H   0  0  0  0  0  0  0  0  0  0  0  0
  152.0286  144.4480  161.4887 H   0  0  0  0  0  0  0  0  0  0  0  0
  152.4621  143.0937  162.5094 H   0  0  0  0  0  0  0  0  0  0  0  0
  1  2  1  0  0  0  0
  1 19  1  0  0  0  0
  1 20  1  0  0  0  0
  1 21  1  0  0  0  0
  2  7  1  0  0  0  0
  2  3  2  0  0  0  0
  3  4  1  0  0  0  0
  4 18  1  0  0  0  0
  4  5  1  0  0  0  0
  5  6  1  0  0  0  0
  5  7  2  0  0  0  0
  6 22  1  0  0  0  0
  6 23  1  0  0  0  0
  6 24  1  0  0  0  0
  7  8  1  0  0  0  0
  8  9  1  0  0  0  0
  8 10  1  0  0  0  0
  8 25  1  0  0  0  0
  9 26  1  0  0  0  0
  9 27  1  0  0  0  0
  9 28  1  0  0  0  0
 10 11  2  0  0  0  0
 10 12  1  0  0  0  0
 12 13  1  0  0  0  0
 12 29  1  0  0  0  0
 13 14  1  0  0  0  0
 13 15  1  0  0  0  0
 13 30  1  0  0  0  0
 14 31  1  0  0  0  0
 14 32  1  0  0  0  0
 14 33  1  0  0  0  0
 15 16  1  0  0  0  0
 15 17  1  0  0  0  0
 15 34  1  0  0  0  0
 16 35  1  0  0  0  0
 16 36  1  0  0  0  0
 16 37  1  0  0  0  0
 17 38  1  0  0  0  0
 17 39  1  0  0  0  0
 17 40  1  0  0  0  0
M  END
> <s_m_source_file>
AV-unprocessed.smi

> <i_m_source_file_index>
2496

> <i_lp_mmshare_version>
43012

> <i_f3d_flags>
0

> <s_epik_input>
W0NIM11jMW5bbkhdYyhbQ0gzXSljMVtDQEhdKFtDSDNdKUMoPU8pW05IXVtDQEhdKFtDSDNdKVtDSF0oW0NIM10pW0NIM10=

> <s_epik_cmdline>
J2VwaWtfcHl0aG9uJywgJy1waCcsICc3LjAnLCAnLXRuJywgJzgnLCAnLW1hJywgJzIwMCcsICctbWV0YWxfYmluZGluZycsICctaW1hZScsICc8aW5maWxlLm1hZT4nLCAnLW9tYWUnLCAnPG91dGZpbGUubWFlPic=

> <r_lp_tautomer_probability>
1

> <r_epik_Ionization_Penalty>
0.000456212

> <r_epik_Ionization_Penalty_Charging>
0

> <r_epik_Ionization_Penalty_Neutral>
0.000456212

> <r_epik_State_Penalty>
-0

> <r_epik_Charging_Adjusted_Penalty>
0

> <i_epik_Tot_Q>
0

> <i_epik_Tot_abs_Q>
0

> <r_epik_Metal_State_Penalty>
-0

> <b_epik_Metal_Only>
0

> <s_lp_Force_Field>
OPLS_2005

> <r_lp_Energy>
1.42294

> <b_lp_Chiralities_Consistent>
1

> <s_lp_Variant>
AV-unprocessed.smi:2496-3

> <Gold.Version>
5.8.1

> <Gold.Id.Protein>
6NUR|6NUR_protein|mol2

> <Gold.PLP.Fitness>
41.5936

> <Gold.PLP.PLP>
-38.1946

> <Gold.PLP.part.hbond>
-2.0000

> <Gold.PLP.part.metal>
0.0000

> <Gold.PLP.part.buried>
-4.8860

> <Gold.PLP.part.nonpolar>
-35.5073

> <Gold.PLP.part.repulsive>
4.2516

> <Gold.PLP.ligand.clash>
0.0487

> <Gold.PLP.ligand.torsion>
0.6550

> <Gold.PLP.Chemscore.Hbond>
1.5490

> <Gold.PLP.Chemscore.CHOScore>
0.0000

> <Gold.PLP.Chemscore.Metal>
0.0000

> <Gold.Chemscore.Hbonds>
donor molecule, donor type, donor heavy atom, donor atom, acceptor molecule, acceptor atom, score
      L1  H     4    18       P1  7957  0.86
      P1  H  7989  7998       L1     3  0.51

> <Gold.PLP.Chemscore.Internal.Correction>
0.1107

> <Gold.Rescore>
     Score         DG    S(hbond)    S(metal)    S(lipo)     H(rot)  DE(clash)    DE(int)     intcor
     12.39     -16.70       0.95        0.00     100.75       1.47       1.53       2.78       ----

> <Gold.Chemscore.Fitness>
12.3887

> <Gold.Chemscore.DG>
-16.6986

> <Gold.Chemscore.ZeroCoef>
-5.4800

> <Gold.Chemscore.Hbond>
0.9533

> <Gold.Chemscore.Metal>
0.0000

> <Gold.Chemscore.Lipo>
100.7533

> <Gold.Chemscore.Internal_Hbond>
0.0000

> <Gold.Chemscore.DEClash>
1.5307

> <Gold.Chemscore.DEInternal>
2.7793

> <Gold.Chemscore.Rot>
1.4662

> <Gold.Chemscore.Internal.Correction>
   9.000000E+99

> <Gold.Chemscore.Hbonds>
donor molecule, donor type, donor heavy atom, donor atom, acceptor molecule, acceptor atom, score
      L1  H     4    18       P1  7957  0.85
      P1  H  7989  7998       L1     3  0.01

> <Gold.Chemscore.Hbond.Weighted>
-3.1839

> <Gold.Chemscore.Metal.Weighted>
-0.0000

> <Gold.Chemscore.Lipo.Weighted>
-11.7881

> <Gold.Chemscore.Internal_Hbond.Weighted>
0.0000

> <Gold.Chemscore.DEClash.Weighted>
1.5307

> <Gold.Chemscore.DEInternal.Weighted>
2.7793

> <Gold.Chemscore.Rot.Weighted>
3.7534

> <Gold.Chemscore.Internal.Correction.Weighted>
   9.000000E+99

> <Gold.Protein.RotatedTorsions>
[ 6907 6896 6895 6894 ] final   80.20 input  -60.11 | X-H torsion
[ 7974 7965 7964 7962 ] final   84.21 input  175.53 | X-H torsion
[ 8008 7997 7996 7995 ] final  -18.90 input   59.86 | X-H torsion
[ 10167 10162 10161 10158 ] final  114.73 input  -65.29 | X-H torsion
[ 10718 10713 10712 10709 ] final  150.69 input   66.30 | X-H torsion
[ 10763 10752 10751 10750 ] final  -75.23 input  -60.55 | X-H torsion
[ 11005 11000 10999 10996 ] final   53.99 input  -57.11 | X-H torsion

> <Gold.Protein.ActiveResidues>
 VAL166  LYS551  ARG553  GLY616  TRP617  ASP618  TYR619  PRO620  LYS621  CYS622 
 ASP623  PHE694  ASN695  SER759  ASP760  ASP761  ALA762  ILE779  LEU786  VAL792 
 PHE793  MET794  SER795  GLU796  ALA797  LYS798  CYS799  TRP800  GLU811  SER814 

> <Gold.Protein.RotatedAtoms>
  152.5226  134.3394  159.9211 H   0  0  0  0  0  0  0  0  0  0  0  0  # atno 6907 bound_to 6896
  151.3344  133.3981  159.2673 H   0  0  0  0  0  0  0  0  0  0  0  0  # atno 6908 bound_to 6896
  150.9854  134.9218  159.7926 H   0  0  0  0  0  0  0  0  0  0  0  0  # atno 6909 bound_to 6896
  145.6018  139.2353  143.2242 H   0  0  0  0  0  0  0  0  0  0  0  0  # atno 7974 bound_to 7965
  154.4873  140.2103  155.9626 H   0  0  0  0  0  0  0  0  0  0  0  0  # atno 8008 bound_to 7997
  156.1255  140.3206  155.8240 H   0  0  0  0  0  0  0  0  0  0  0  0  # atno 8009 bound_to 7997
  155.4391  140.0509  157.3003 H   0  0  0  0  0  0  0  0  0  0  0  0  # atno 8010 bound_to 7997
  139.6368  144.7120  151.2319 H   0  0  0  0  0  0  0  0  0  0  0  0  # atno 10167 bound_to 10162
  157.2802  131.0834  151.1537 H   0  0  0  0  0  0  0  0  0  0  0  0  # atno 10718 bound_to 10713
  154.4837  135.5838  153.6408 H   0  0  0  0  0  0  0  0  0  0  0  0  # atno 10763 bound_to 10752
  152.9851  135.6096  154.3214 H   0  0  0  0  0  0  0  0  0  0  0  0  # atno 10764 bound_to 10752
  154.3107  135.2845  155.2546 H   0  0  0  0  0  0  0  0  0  0  0  0  # atno 10765 bound_to 10752
  140.0722  134.5453  155.9034 H   0  0  0  0  0  0  0  0  0  0  0  0  # atno 11005 bound_to 11000
  146.1571  140.6842  142.9295 LP  0  0  0  0  0  0  0  0  0  0  0  0  # atno 17320 bound_to 7965
  144.7307  140.4662  143.6940 LP  0  0  0  0  0  0  0  0  0  0  0  0  # atno 17321 bound_to 7965
  140.7469  143.6382  150.8359 LP  0  0  0  0  0  0  0  0  0  0  0  0  # atno 17342 bound_to 10162
  140.0015  143.5739  152.2874 LP  0  0  0  0  0  0  0  0  0  0  0  0  # atno 17343 bound_to 10162
  157.2974  130.6826  149.6146 LP  0  0  0  0  0  0  0  0  0  0  0  0  # atno 17370 bound_to 10713
  155.9664  130.4402  150.5291 LP  0  0  0  0  0  0  0  0  0  0  0  0  # atno 17371 bound_to 10713
  141.2016  133.6620  156.5960 LP  0  0  0  0  0  0  0  0  0  0  0  0  # atno 17394 bound_to 11000
  140.3610  134.7688  157.4533 LP  0  0  0  0  0  0  0  0  0  0  0  0  # atno 17395 bound_to 11000

$$$$
