AV-unprocessed.smi:40|AV-procd|sdf|378|dock9
  -GOLD-   2262016233D 1   1.00000     0.00000
 Structure written by MMmdl.
 47 48  0  0  0  0  0  0  0  0  1 V2000
  152.5768  144.7056  157.8718 C   0  0  0  0  0  0  0  0  0  0  0  0
  151.6377  143.7287  158.5871 C   0  0  0  0  0  0  0  0  0  0  0  0
  151.6539  142.3283  157.9577 C   0  0  0  0  0  0  0  0  0  0  0  0
  151.0815  142.3170  156.5344 C   0  0  0  0  0  0  0  0  0  0  0  0
  151.3039  140.9715  155.8271 C   0  0  0  0  0  0  0  0  0  0  0  0
  150.3116  140.7590  154.8322 O   0  0  0  0  0  0  0  0  0  0  0  0
  149.4117  139.7578  154.9562 C   0  0  0  0  0  0  0  0  0  0  0  0
  149.4212  138.9225  155.8602 O   0  0  0  0  0  0  0  0  0  0  0  0
  148.4172  139.8215  153.9049 N   0  0  0  0  0  0  0  0  0  0  0  0
  147.3756  138.9806  153.7255 C   0  0  0  0  0  0  0  0  0  0  0  0
  146.9673  138.2880  154.7715 N   0  0  0  0  0  0  0  0  0  0  0  0
  145.9248  137.4015  154.7358 C   0  0  0  0  0  0  0  0  0  0  0  0
  145.5571  136.8310  155.7617 O   0  0  0  0  0  0  0  0  0  0  0  0
  145.2884  137.1812  153.4884 N   0  0  0  0  0  0  0  0  0  0  0  0
  144.1038  136.2285  153.4353 C   0  0  1  0  0  0  0  0  0  0  0  0
  143.5182  136.2757  152.1628 O   0  0  0  0  0  0  0  0  0  0  0  0
  143.8434  135.1155  151.4022 C   0  0  1  0  0  0  0  0  0  0  0  0
  145.1283  135.3409  150.5808 C   0  0  0  0  0  0  0  0  0  0  0  0
  143.9314  134.0270  152.4738 C   0  0  1  0  0  0  0  0  0  0  0  0
  144.7370  132.9340  152.0773 O   0  0  0  0  0  0  0  0  0  0  0  0
  144.5210  134.7555  153.6753 C   0  0  2  0  0  0  0  0  0  0  0  0
  143.9563  134.2348  154.8622 O   0  0  0  0  0  0  0  0  0  0  0  0
  145.6853  137.9308  152.3870 C   0  0  0  0  0  0  0  0  0  0  0  0
  146.7083  138.8098  152.4479 C   0  0  0  0  0  0  0  0  0  0  0  0
  147.0896  139.4843  151.3488 F   0  0  0  0  0  0  0  0  0  0  0  0
  143.4043  136.6221  154.1749 H   0  0  0  0  0  0  0  0  0  0  0  0
  143.0265  134.9033  150.7116 H   0  0  0  0  0  0  0  0  0  0  0  0
  142.9231  133.6742  152.6976 H   0  0  0  0  0  0  0  0  0  0  0  0
  145.6085  134.6662  153.6871 H   0  0  0  0  0  0  0  0  0  0  0  0
  152.5429  145.6897  158.3399 H   0  0  0  0  0  0  0  0  0  0  0  0
  152.2961  144.8261  156.8250 H   0  0  0  0  0  0  0  0  0  0  0  0
  153.6090  144.3561  157.9049 H   0  0  0  0  0  0  0  0  0  0  0  0
  151.9212  143.6611  159.6380 H   0  0  0  0  0  0  0  0  0  0  0  0
  150.6230  144.1278  158.5660 H   0  0  0  0  0  0  0  0  0  0  0  0
  152.6774  141.9515  157.9380 H   0  0  0  0  0  0  0  0  0  0  0  0
  151.0839  141.6413  158.5844 H   0  0  0  0  0  0  0  0  0  0  0  0
  150.0131  142.5343  156.5673 H   0  0  0  0  0  0  0  0  0  0  0  0
  151.5419  143.1180  155.9546 H   0  0  0  0  0  0  0  0  0  0  0  0
  152.3053  140.9175  155.3971 H   0  0  0  0  0  0  0  0  0  0  0  0
  151.2335  140.1616  156.5535 H   0  0  0  0  0  0  0  0  0  0  0  0
  148.5648  140.5516  153.2237 H   0  0  0  0  0  0  0  0  0  0  0  0
  145.3479  134.4783  149.9515 H   0  0  0  0  0  0  0  0  0  0  0  0
  145.9960  135.5122  151.2175 H   0  0  0  0  0  0  0  0  0  0  0  0
  145.0206  136.2013  149.9205 H   0  0  0  0  0  0  0  0  0  0  0  0
  145.6438  133.1850  152.1673 H   0  0  0  0  0  0  0  0  0  0  0  0
  143.5098  133.4289  154.6489 H   0  0  0  0  0  0  0  0  0  0  0  0
  145.1862  137.8283  151.4357 H   0  0  0  0  0  0  0  0  0  0  0  0
  1  2  1  0  0  0  0
  1 30  1  0  0  0  0
  1 31  1  0  0  0  0
  1 32  1  0  0  0  0
  2  3  1  0  0  0  0
  2 33  1  0  0  0  0
  2 34  1  0  0  0  0
  3  4  1  0  0  0  0
  3 35  1  0  0  0  0
  3 36  1  0  0  0  0
  4  5  1  0  0  0  0
  4 37  1  0  0  0  0
  4 38  1  0  0  0  0
  5  6  1  0  0  0  0
  5 39  1  0  0  0  0
  5 40  1  0  0  0  0
  6  7  1  0  0  0  0
  7  8  2  0  0  0  0
  7  9  1  0  0  0  0
  9 10  1  0  0  0  0
  9 41  1  0  0  0  0
 10 24  1  0  0  0  0
 10 11  2  0  0  0  0
 11 12  1  0  0  0  0
 12 13  2  0  0  0  0
 12 14  1  0  0  0  0
 14 15  1  0  0  0  0
 14 23  1  0  0  0  0
 15 26  1  0  0  0  0
 15 21  1  0  0  0  0
 15 16  1  0  0  0  0
 16 17  1  0  0  0  0
 17 27  1  0  0  0  0
 17 18  1  0  0  0  0
 17 19  1  0  0  0  0
 18 42  1  0  0  0  0
 18 43  1  0  0  0  0
 18 44  1  0  0  0  0
 19 28  1  0  0  0  0
 19 20  1  0  0  0  0
 19 21  1  0  0  0  0
 20 45  1  0  0  0  0
 21 29  1  0  0  0  0
 21 22  1  0  0  0  0
 22 46  1  0  0  0  0
 23 24  2  0  0  0  0
 23 47  1  0  0  0  0
 24 25  1  0  0  0  0
M  END
> <s_m_source_file>
AV-unprocessed.smi

> <i_m_source_file_index>
40

> <i_lp_mmshare_version>
43012

> <i_f3d_flags>
0

> <s_epik_input>
W0NIM11bQ0gyXVtDSDJdW0NIMl1bQ0gyXU9DKD1PKVtOSF1jMW5jKD1PKW4oW2NIXWMxRilbQ0BASF0yT1tDQEhdKFtDSDNdKVtDQEBIXShbT0hdKVtDQEhdMltPSF0=

> <s_epik_cmdline>
J2VwaWtfcHl0aG9uJywgJy1waCcsICc3LjAnLCAnLXRuJywgJzgnLCAnLW1hJywgJzIwMCcsICctbWV0YWxfYmluZGluZycsICctaW1hZScsICc8aW5maWxlLm1hZT4nLCAnLW9tYWUnLCAnPG91dGZpbGUubWFlPic=

> <r_lp_tautomer_probability>
1

> <r_epik_Ionization_Penalty>
2.29506e-06

> <r_epik_Ionization_Penalty_Charging>
8.26867e-09

> <r_epik_Ionization_Penalty_Neutral>
2.2868e-06

> <r_epik_State_Penalty>
-0

> <r_epik_Charging_Adjusted_Penalty>
8.26867e-09

> <i_epik_Tot_Q>
0

> <i_epik_Tot_abs_Q>
0

> <r_epik_Metal_State_Penalty>
-0

> <b_epik_Metal_Only>
0

> <s_epik_Chemistry_Notes>
This compound has an ester and may undergo hydrolysis at high or low pH. This compound contains an acetal/aminal-like group ( X-CH(R)-Y where X, Y are N, S, or O) that may be acid/base labile, releasing an aldehyde.

> <s_lp_Force_Field>
OPLS_2005

> <r_lp_Energy>
34.9505

> <b_lp_Chiralities_Consistent>
1

> <s_lp_Variant>
AV-unprocessed.smi:40-12

> <Gold.Version>
5.8.1

> <Gold.Id.Protein>
6NUR|6NUR_protein|mol2

> <Gold.PLP.Fitness>
39.9378

> <Gold.PLP.PLP>
-35.2738

> <Gold.PLP.part.hbond>
-2.8504

> <Gold.PLP.part.metal>
0.0000

> <Gold.PLP.part.buried>
0.4739

> <Gold.PLP.part.nonpolar>
-31.8001

> <Gold.PLP.part.repulsive>
0.4467

> <Gold.PLP.ligand.clash>
0.0000

> <Gold.PLP.ligand.torsion>
0.7478

> <Gold.PLP.Chemscore.Hbond>
1.0000

> <Gold.PLP.Chemscore.CHOScore>
1.0000

> <Gold.PLP.Chemscore.Metal>
0.0000

> <Gold.Chemscore.Hbonds>
donor molecule, donor type, donor heavy atom, donor atom, acceptor molecule, acceptor atom, score
      L1  H     9    41       P1  7957  0.07
      L1  H    22    46       P1 10957  1.00
      L1  C    23    47       P1 10171  1.00

> <Gold.PLP.Chemscore.Internal.Correction>
0.1596

> <Gold.Rescore>
     Score         DG    S(hbond)    S(metal)    S(lipo)     H(rot)  DE(clash)    DE(int)     intcor
      6.28      -9.33       1.00        0.00      85.28       3.70       0.94       2.11       ----

> <Gold.Chemscore.Fitness>
6.2783

> <Gold.Chemscore.DG>
-9.3327

> <Gold.Chemscore.ZeroCoef>
-5.4800

> <Gold.Chemscore.Hbond>
0.9986

> <Gold.Chemscore.Metal>
0.0000

> <Gold.Chemscore.Lipo>
85.2848

> <Gold.Chemscore.Internal_Hbond>
0.0000

> <Gold.Chemscore.DEClash>
0.9445

> <Gold.Chemscore.DEInternal>
2.1099

> <Gold.Chemscore.Rot>
3.6957

> <Gold.Chemscore.Internal.Correction>
   9.000000E+99

> <Gold.Chemscore.Hbonds>
donor molecule, donor type, donor heavy atom, donor atom, acceptor molecule, acceptor atom, score
      L1  H     9    41       P1  7957  0.07
      L1  H    22    46       P1 10957  1.00

> <Gold.Chemscore.Hbond.Weighted>
-3.3353

> <Gold.Chemscore.Metal.Weighted>
-0.0000

> <Gold.Chemscore.Lipo.Weighted>
-9.9783

> <Gold.Chemscore.Internal_Hbond.Weighted>
0.0000

> <Gold.Chemscore.DEClash.Weighted>
0.9445

> <Gold.Chemscore.DEInternal.Weighted>
2.1099

> <Gold.Chemscore.Rot.Weighted>
9.4610

> <Gold.Chemscore.Internal.Correction.Weighted>
   9.000000E+99

> <Gold.Protein.RotatedTorsions>
[ 6907 6896 6895 6894 ] final -140.60 input  -60.11 | X-H torsion
[ 7974 7965 7964 7962 ] final  -28.84 input  175.53 | X-H torsion
[ 8008 7997 7996 7995 ] final -166.55 input   59.86 | X-H torsion
[ 10167 10162 10161 10158 ] final -128.62 input  -65.29 | X-H torsion
[ 10718 10713 10712 10709 ] final   26.22 input   66.30 | X-H torsion
[ 10763 10752 10751 10750 ] final -129.86 input  -60.55 | X-H torsion
[ 11005 11000 10999 10996 ] final -163.50 input  -57.11 | X-H torsion

> <Gold.Protein.ActiveResidues>
 VAL166  LYS551  ARG553  GLY616  TRP617  ASP618  TYR619  PRO620  LYS621  CYS622 
 ASP623  PHE694  ASN695  SER759  ASP760  ASP761  ALA762  ILE779  LEU786  VAL792 
 PHE793  MET794  SER795  GLU796  ALA797  LYS798  CYS799  TRP800  GLU811  SER814 

> <Gold.Protein.RotatedAtoms>
  151.0629  133.5529  159.2632 H   0  0  0  0  0  0  0  0  0  0  0  0  # atno 6907 bound_to 6896
  151.2498  135.0617  159.9067 H   0  0  0  0  0  0  0  0  0  0  0  0  # atno 6908 bound_to 6896
  152.5400  134.0391  159.8113 H   0  0  0  0  0  0  0  0  0  0  0  0  # atno 6909 bound_to 6896
  146.1259  140.5335  142.8715 H   0  0  0  0  0  0  0  0  0  0  0  0  # atno 7974 bound_to 7965
  155.8654  140.0985  157.1586 H   0  0  0  0  0  0  0  0  0  0  0  0  # atno 8008 bound_to 7997
  154.3993  140.1357  156.4075 H   0  0  0  0  0  0  0  0  0  0  0  0  # atno 8009 bound_to 7997
  155.7810  140.3458  155.5300 H   0  0  0  0  0  0  0  0  0  0  0  0  # atno 8010 bound_to 7997
  139.9483  143.6084  152.2483 H   0  0  0  0  0  0  0  0  0  0  0  0  # atno 10167 bound_to 10162
  157.2039  130.6903  149.6200 H   0  0  0  0  0  0  0  0  0  0  0  0  # atno 10718 bound_to 10713
  154.8757  135.3881  154.3988 H   0  0  0  0  0  0  0  0  0  0  0  0  # atno 10763 bound_to 10752
  153.4715  135.7030  153.5996 H   0  0  0  0  0  0  0  0  0  0  0  0  # atno 10764 bound_to 10752
  153.4451  135.3847  155.2219 H   0  0  0  0  0  0  0  0  0  0  0  0  # atno 10765 bound_to 10752
  140.5973  134.4983  157.5201 H   0  0  0  0  0  0  0  0  0  0  0  0  # atno 11005 bound_to 11000
  144.7642  140.5492  143.6714 LP  0  0  0  0  0  0  0  0  0  0  0  0  # atno 17320 bound_to 7965
  145.5366  139.1475  143.3470 LP  0  0  0  0  0  0  0  0  0  0  0  0  # atno 17321 bound_to 7965
  139.6649  144.7662  151.1893 LP  0  0  0  0  0  0  0  0  0  0  0  0  # atno 17342 bound_to 10162
  140.7590  143.5954  150.8754 LP  0  0  0  0  0  0  0  0  0  0  0  0  # atno 17343 bound_to 10162
  155.9697  130.4573  150.5959 LP  0  0  0  0  0  0  0  0  0  0  0  0  # atno 17370 bound_to 10713
  157.3739  131.0770  151.1534 LP  0  0  0  0  0  0  0  0  0  0  0  0  # atno 17371 bound_to 10713
  139.9247  134.8078  156.1103 LP  0  0  0  0  0  0  0  0  0  0  0  0  # atno 17394 bound_to 11000
  141.0895  133.6720  156.2509 LP  0  0  0  0  0  0  0  0  0  0  0  0  # atno 17395 bound_to 11000

$$$$
