AV-unprocessed.smi:2124|AV-procd|sdf|8667|dock2
  -GOLD-   2272011413D 1   1.00000     0.00000
 Structure written by MMmdl.
 46 48  0  0  0  0  0  0  0  0  2 V2000
  151.5595  130.2310  158.1650 C   0  0  0  0  0  0  0  0  0  0  0  0
  150.9721  131.1563  157.1206 C   0  0  0  0  0  0  0  0  0  0  0  0
  150.4614  130.6585  156.0593 N   0  0  0  0  0  0  0  0  0  0  0  0
  149.9178  131.5143  155.0861 C   0  0  0  0  0  0  0  0  0  0  0  0
  149.3383  130.8373  153.8563 C   0  0  0  0  0  0  0  0  0  0  0  0
  149.9246  132.8678  155.2542 C   0  0  0  0  0  0  0  0  0  0  0  0
  149.3571  133.8456  154.2252 C   0  0  0  0  0  0  0  0  0  0  0  0
  147.8909  133.6482  153.8315 C   0  0  0  0  0  0  0  0  0  0  0  0
  147.2298  132.7210  154.3003 O   0  0  0  0  0  0  0  0  0  0  0  0
  147.3996  134.5364  152.9542 N   0  0  0  0  0  0  0  0  0  0  0  0
  146.0436  134.5380  152.4103 C   0  0  1  0  0  0  0  0  0  0  0  0
  145.5015  135.9766  152.4067 C   0  0  0  0  0  0  0  0  0  0  0  0
  146.0476  133.9103  150.9967 C   0  0  2  0  0  0  0  0  0  0  0  0
  144.7398  134.1031  150.1963 C   0  0  0  0  0  0  0  0  0  0  0  0
  144.4172  132.6776  149.7092 C   0  0  2  0  0  0  0  0  0  0  0  0
  143.9030  131.8438  150.8973 C   0  0  0  0  0  0  0  0  0  0  0  0
  145.1797  131.6143  151.7259 C   0  0  0  0  0  0  0  0  0  0  0  0
  146.2523  132.3757  150.9194 C   0  0  1  0  0  0  0  0  0  0  0  0
  145.8063  132.0896  149.4892 C   0  0  0  0  0  0  0  0  0  0  0  0
  150.5113  133.4004  156.4966 C   0  0  0  0  0  0  0  0  0  0  0  0
  150.5235  134.6127  156.7069 O   0  0  0  0  0  0  0  0  0  0  0  0
  151.0261  132.5059  157.3879 N   0  5  0  0  0  0  0  0  0  0  0  0
  151.5423  129.1943  157.8263 H   0  0  0  0  0  0  0  0  0  0  0  0
  150.9891  130.2981  159.0917 H   0  0  0  0  0  0  0  0  0  0  0  0
  152.5943  130.5041  158.3747 H   0  0  0  0  0  0  0  0  0  0  0  0
  148.3069  131.1501  153.6934 H   0  0  0  0  0  0  0  0  0  0  0  0
  149.3440  129.7522  153.9637 H   0  0  0  0  0  0  0  0  0  0  0  0
  149.9222  131.0898  152.9715 H   0  0  0  0  0  0  0  0  0  0  0  0
  149.4957  134.8719  154.5681 H   0  0  0  0  0  0  0  0  0  0  0  0
  149.9514  133.7781  153.3142 H   0  0  0  0  0  0  0  0  0  0  0  0
  148.0181  135.2652  152.6289 H   0  0  0  0  0  0  0  0  0  0  0  0
  145.3909  133.9435  153.0509 H   0  0  0  0  0  0  0  0  0  0  0  0
  144.4788  136.0155  152.0320 H   0  0  0  0  0  0  0  0  0  0  0  0
  146.1103  136.6297  151.7807 H   0  0  0  0  0  0  0  0  0  0  0  0
  145.4946  136.3947  153.4140 H   0  0  0  0  0  0  0  0  0  0  0  0
  146.8604  134.3716  150.4323 H   0  0  0  0  0  0  0  0  0  0  0  0
  143.9276  134.5166  150.7954 H   0  0  0  0  0  0  0  0  0  0  0  0
  144.9035  134.7770  149.3545 H   0  0  0  0  0  0  0  0  0  0  0  0
  143.7598  132.6501  148.8398 H   0  0  0  0  0  0  0  0  0  0  0  0
  143.1272  132.3618  151.4627 H   0  0  0  0  0  0  0  0  0  0  0  0
  143.4909  130.8928  150.5574 H   0  0  0  0  0  0  0  0  0  0  0  0
  145.0840  131.9586  152.7551 H   0  0  0  0  0  0  0  0  0  0  0  0
  145.4181  130.5506  151.7637 H   0  0  0  0  0  0  0  0  0  0  0  0
  147.2711  132.0588  151.1447 H   0  0  0  0  0  0  0  0  0  0  0  0
  145.7928  131.0263  149.2428 H   0  0  0  0  0  0  0  0  0  0  0  0
  146.3880  132.6236  148.7356 H   0  0  0  0  0  0  0  0  0  0  0  0
  1  2  1  0  0  0  0
  1 23  1  0  0  0  0
  1 24  1  0  0  0  0
  1 25  1  0  0  0  0
  2 22  1  0  0  0  0
  2  3  2  0  0  0  0
  3  4  1  0  0  0  0
  4  5  1  0  0  0  0
  4  6  2  0  0  0  0
  5 26  1  0  0  0  0
  5 27  1  0  0  0  0
  5 28  1  0  0  0  0
  6  7  1  0  0  0  0
  6 20  1  0  0  0  0
  7  8  1  0  0  0  0
  7 29  1  0  0  0  0
  7 30  1  0  0  0  0
  8  9  2  0  0  0  0
  8 10  1  0  0  0  0
 10 11  1  0  0  0  0
 10 31  1  0  0  0  0
 11 12  1  0  0  0  0
 11 13  1  0  0  0  0
 11 32  1  0  0  0  0
 12 33  1  0  0  0  0
 12 34  1  0  0  0  0
 12 35  1  0  0  0  0
 13 18  1  0  0  0  0
 13 14  1  0  0  0  0
 13 36  1  0  0  0  0
 14 15  1  0  0  0  0
 14 37  1  0  0  0  0
 14 38  1  0  0  0  0
 15 19  1  0  0  0  0
 15 16  1  0  0  0  0
 15 39  1  0  0  0  0
 16 17  1  0  0  0  0
 16 40  1  0  0  0  0
 16 41  1  0  0  0  0
 17 18  1  0  0  0  0
 17 42  1  0  0  0  0
 17 43  1  0  0  0  0
 18 19  1  0  0  0  0
 18 44  1  0  0  0  0
 19 45  1  0  0  0  0
 19 46  1  0  0  0  0
 20 21  2  0  0  0  0
 20 22  1  0  0  0  0
M  CHG  1  22  -1
M  END
> <s_m_source_file>
AV-unprocessed.smi

> <i_m_source_file_index>
2124

> <i_lp_mmshare_version>
43012

> <i_f3d_flags>
0

> <s_epik_input>
W0NIM11jMW5jKFtDSDNdKWMoYyg9TylbbkhdMSlbQ0gyXUMoPU8pW05IXVtDQEhdKFtDSDNdKVtDQEhdKFtDSDJdW0NASF0yMylbQ0BIXShbQ0gyXTMpW0NIMl1bQ0gyXTI=

> <s_epik_cmdline>
J2VwaWtfcHl0aG9uJywgJy1waCcsICc3LjAnLCAnLXRuJywgJzgnLCAnLW1hJywgJzIwMCcsICctbWV0YWxfYmluZGluZycsICctaW1hZScsICc8aW5maWxlLm1hZT4nLCAnLW9tYWUnLCAnPG91dGZpbGUubWFlPic=

> <r_lp_tautomer_probability>
0.839158

> <r_epik_Ionization_Penalty>
6.63797

> <r_epik_Ionization_Penalty_Charging>
7.48558e-08

> <r_epik_Ionization_Penalty_Neutral>
6.63797

> <r_epik_State_Penalty>
4.49496

> <r_epik_Charging_Adjusted_Penalty>
4.49496

> <i_epik_Tot_Q>
-1

> <i_epik_Tot_abs_Q>
1

> <r_epik_Metal_State_Penalty>
0.841241

> <b_epik_Metal_Only>
1

> <s_lp_Force_Field>
OPLS_2005

> <r_lp_Energy>
55.4984

> <b_lp_Chiralities_Consistent>
1

> <s_lp_Variant>
AV-unprocessed.smi:2124-18

> <Gold.Version>
5.8.1

> <Gold.Id.Protein>
6NUR|6NUR_protein|mol2

> <Gold.PLP.Fitness>
45.9230

> <Gold.PLP.PLP>
-37.7557

> <Gold.PLP.part.hbond>
-1.9702

> <Gold.PLP.part.metal>
0.0000

> <Gold.PLP.part.buried>
-3.4477

> <Gold.PLP.part.nonpolar>
-32.1488

> <Gold.PLP.part.repulsive>
0.0450

> <Gold.PLP.ligand.clash>
0.0000

> <Gold.PLP.ligand.torsion>
0.4272

> <Gold.PLP.Chemscore.Hbond>
2.9913

> <Gold.PLP.Chemscore.CHOScore>
0.0000

> <Gold.PLP.Chemscore.Metal>
0.0000

> <Gold.Chemscore.Hbonds>
donor molecule, donor type, donor heavy atom, donor atom, acceptor molecule, acceptor atom, score
      L1  H    10    31       P1  7948  0.98
      P1  H  6896  6908       L1    22  1.98

> <Gold.PLP.Chemscore.Internal.Correction>
0.0480

> <Gold.Rescore>
     Score         DG    S(hbond)    S(metal)    S(lipo)     H(rot)  DE(clash)    DE(int)     intcor
     18.60     -19.03       1.94        0.00      95.69       1.61       0.02       0.41       ----

> <Gold.Chemscore.Fitness>
18.5956

> <Gold.Chemscore.DG>
-19.0335

> <Gold.Chemscore.ZeroCoef>
-5.4800

> <Gold.Chemscore.Hbond>
1.9361

> <Gold.Chemscore.Metal>
0.0000

> <Gold.Chemscore.Lipo>
95.6927

> <Gold.Chemscore.Internal_Hbond>
0.0000

> <Gold.Chemscore.DEClash>
0.0239

> <Gold.Chemscore.DEInternal>
0.4141

> <Gold.Chemscore.Rot>
1.6051

> <Gold.Chemscore.Internal.Correction>
   9.000000E+99

> <Gold.Chemscore.Hbonds>
donor molecule, donor type, donor heavy atom, donor atom, acceptor molecule, acceptor atom, score
      L1  H    10    31       P1  7948  0.91
      P1  H  6896  6908       L1    22  0.72

> <Gold.Chemscore.Hbond.Weighted>
-6.4665

> <Gold.Chemscore.Metal.Weighted>
-0.0000

> <Gold.Chemscore.Lipo.Weighted>
-11.1961

> <Gold.Chemscore.Internal_Hbond.Weighted>
0.0000

> <Gold.Chemscore.DEClash.Weighted>
0.0239

> <Gold.Chemscore.DEInternal.Weighted>
0.4141

> <Gold.Chemscore.Rot.Weighted>
4.1090

> <Gold.Chemscore.Internal.Correction.Weighted>
   9.000000E+99

> <Gold.Protein.RotatedTorsions>
[ 6907 6896 6895 6894 ] final   79.31 input  -60.11 | X-H torsion
[ 7974 7965 7964 7962 ] final   26.32 input  175.53 | X-H torsion
[ 8008 7997 7996 7995 ] final  151.54 input   59.86 | X-H torsion
[ 10167 10162 10161 10158 ] final -116.16 input  -65.29 | X-H torsion
[ 10718 10713 10712 10709 ] final    3.94 input   66.30 | X-H torsion
[ 10763 10752 10751 10750 ] final  170.96 input  -60.55 | X-H torsion
[ 11005 11000 10999 10996 ] final   29.84 input  -57.11 | X-H torsion

> <Gold.Protein.ActiveResidues>
 VAL166  LYS551  ARG553  GLY616  TRP617  ASP618  TYR619  PRO620  LYS621  CYS622 
 ASP623  PHE694  ASN695  SER759  ASP760  ASP761  ALA762  ILE779  LEU786  VAL792 
 PHE793  MET794  SER795  GLU796  ALA797  LYS798  CYS799  TRP800  GLU811  SER814 

> <Gold.Protein.RotatedAtoms>
  152.5194  134.3530  159.9257 H   0  0  0  0  0  0  0  0  0  0  0  0  # atno 6907 bound_to 6896
  151.3481  133.3929  159.2685 H   0  0  0  0  0  0  0  0  0  0  0  0  # atno 6908 bound_to 6896
  150.9749  134.9134  159.7868 H   0  0  0  0  0  0  0  0  0  0  0  0  # atno 6909 bound_to 6896
  146.1844  139.7345  142.8877 H   0  0  0  0  0  0  0  0  0  0  0  0  # atno 7974 bound_to 7965
  156.2669  140.2045  156.6191 H   0  0  0  0  0  0  0  0  0  0  0  0  # atno 8008 bound_to 7997
  154.6771  140.0544  157.0251 H   0  0  0  0  0  0  0  0  0  0  0  0  # atno 8009 bound_to 7997
  155.1054  140.3210  155.4538 H   0  0  0  0  0  0  0  0  0  0  0  0  # atno 8010 bound_to 7997
  140.0822  143.4777  152.1919 H   0  0  0  0  0  0  0  0  0  0  0  0  # atno 10167 bound_to 10162
  156.8853  130.5668  149.5651 H   0  0  0  0  0  0  0  0  0  0  0  0  # atno 10718 bound_to 10713
  154.4051  135.2755  155.2072 H   0  0  0  0  0  0  0  0  0  0  0  0  # atno 10763 bound_to 10752
  154.4082  135.6028  153.5940 H   0  0  0  0  0  0  0  0  0  0  0  0  # atno 10764 bound_to 10752
  152.9831  135.5943  154.4324 H   0  0  0  0  0  0  0  0  0  0  0  0  # atno 10765 bound_to 10752
  140.3007  134.2760  155.7754 H   0  0  0  0  0  0  0  0  0  0  0  0  # atno 11005 bound_to 11000
  145.3983  141.0382  143.3085 LP  0  0  0  0  0  0  0  0  0  0  0  0  # atno 17320 bound_to 7965
  144.8370  139.5533  143.6917 LP  0  0  0  0  0  0  0  0  0  0  0  0  # atno 17321 bound_to 7965
  139.5773  144.7493  151.3732 LP  0  0  0  0  0  0  0  0  0  0  0  0  # atno 17342 bound_to 10162
  140.7072  143.7484  150.7502 LP  0  0  0  0  0  0  0  0  0  0  0  0  # atno 17343 bound_to 10162
  156.0656  130.5700  150.9282 LP  0  0  0  0  0  0  0  0  0  0  0  0  # atno 17370 bound_to 10713
  157.6116  131.0936  150.8785 LP  0  0  0  0  0  0  0  0  0  0  0  0  # atno 17371 bound_to 10713
  141.2128  133.7644  156.9762 LP  0  0  0  0  0  0  0  0  0  0  0  0  # atno 17394 bound_to 11000
  140.1112  134.9476  157.2068 LP  0  0  0  0  0  0  0  0  0  0  0  0  # atno 17395 bound_to 11000

$$$$
