AV-unprocessed.smi:1994|AV-procd|sdf|8074|dock3
  -GOLD-   2272010283D 1   1.00000     0.00000
 Structure written by MMmdl.
 40 42  0  0  0  0  0  0  0  0  2 V2000
  148.1045  140.6456  155.7643 C   0  0  0  0  0  0  0  0  0  0  0  0
  149.1991  141.0246  156.7046 C   0  0  0  0  0  0  0  0  0  0  0  0
  149.6061  142.2927  156.9929 N   0  3  0  0  0  0  0  0  0  0  0  0
  150.6563  142.2541  157.9112 C   0  0  0  0  0  0  0  0  0  0  0  0
  151.3909  143.2804  158.4972 C   0  0  0  0  0  0  0  0  0  0  0  0
  152.4029  142.8979  159.4017 C   0  0  0  0  0  0  0  0  0  0  0  0
  152.6508  141.5411  159.6947 C   0  0  0  0  0  0  0  0  0  0  0  0
  151.8986  140.5092  159.0953 C   0  0  0  0  0  0  0  0  0  0  0  0
  150.9017  140.8952  158.1989 C   0  0  0  0  0  0  0  0  0  0  0  0
  149.9783  140.1739  157.4316 N   0  0  0  0  0  0  0  0  0  0  0  0
  149.9627  138.7034  157.4916 C   0  0  0  0  0  0  0  0  0  0  0  0
  149.6694  138.1674  158.9068 C   0  0  2  0  0  0  0  0  0  0  0  0
  150.6778  137.2576  159.2982 O   0  0  0  0  0  0  0  0  0  0  0  0
  148.3096  137.4599  158.9964 C   0  0  0  0  0  0  0  0  0  0  0  0
  147.9431  137.3465  160.3650 O   0  0  0  0  0  0  0  0  0  0  0  0
  147.6411  136.0962  160.8614 C   0  0  0  0  0  0  0  0  0  0  0  0
  147.6214  134.9133  160.0793 C   0  0  0  0  0  0  0  0  0  0  0  0
  147.3033  133.6740  160.6683 C   0  0  0  0  0  0  0  0  0  0  0  0
  147.0017  133.6001  162.0406 C   0  0  0  0  0  0  0  0  0  0  0  0
  147.0177  134.7684  162.8243 C   0  0  0  0  0  0  0  0  0  0  0  0
  147.3357  136.0083  162.2366 C   0  0  0  0  0  0  0  0  0  0  0  0
  147.3473  137.1260  163.0019 F   0  0  0  0  0  0  0  0  0  0  0  0
  147.6330  141.5349  155.3452 H   0  0  0  0  0  0  0  0  0  0  0  0
  147.3442  140.0635  156.2850 H   0  0  0  0  0  0  0  0  0  0  0  0
  148.5031  140.0458  154.9459 H   0  0  0  0  0  0  0  0  0  0  0  0
  151.2014  144.3205  158.2752 H   0  0  0  0  0  0  0  0  0  0  0  0
  153.0002  143.6602  159.8811 H   0  0  0  0  0  0  0  0  0  0  0  0
  153.4339  141.2862  160.3943 H   0  0  0  0  0  0  0  0  0  0  0  0
  152.0955  139.4740  159.3321 H   0  0  0  0  0  0  0  0  0  0  0  0
  149.1923  138.3638  156.7984 H   0  0  0  0  0  0  0  0  0  0  0  0
  150.9047  138.3128  157.1069 H   0  0  0  0  0  0  0  0  0  0  0  0
  149.6824  138.9926  159.6198 H   0  0  0  0  0  0  0  0  0  0  0  0
  151.4965  137.5377  158.9187 H   0  0  0  0  0  0  0  0  0  0  0  0
  147.5568  138.0187  158.4370 H   0  0  0  0  0  0  0  0  0  0  0  0
  148.3871  136.4626  158.5596 H   0  0  0  0  0  0  0  0  0  0  0  0
  147.8478  134.9290  159.0241 H   0  0  0  0  0  0  0  0  0  0  0  0
  147.2913  132.7778  160.0654 H   0  0  0  0  0  0  0  0  0  0  0  0
  146.7588  132.6493  162.4913 H   0  0  0  0  0  0  0  0  0  0  0  0
  146.7860  134.7145  163.8779 H   0  0  0  0  0  0  0  0  0  0  0  0
  149.1941  143.1236  156.5881 H   0  0  0  0  0  0  0  0  0  0  0  0
  1  2  1  0  0  0  0
  1 23  1  0  0  0  0
  1 24  1  0  0  0  0
  1 25  1  0  0  0  0
  2 10  1  0  0  0  0
  2  3  2  0  0  0  0
  3  4  1  0  0  0  0
  3 40  1  0  0  0  0
  4  9  2  0  0  0  0
  4  5  1  0  0  0  0
  5  6  2  0  0  0  0
  5 26  1  0  0  0  0
  6  7  1  0  0  0  0
  6 27  1  0  0  0  0
  7  8  2  0  0  0  0
  7 28  1  0  0  0  0
  8  9  1  0  0  0  0
  8 29  1  0  0  0  0
  9 10  1  0  0  0  0
 10 11  1  0  0  0  0
 11 12  1  0  0  0  0
 11 30  1  0  0  0  0
 11 31  1  0  0  0  0
 12 13  1  0  0  0  0
 12 14  1  0  0  0  0
 12 32  1  0  0  0  0
 13 33  1  0  0  0  0
 14 15  1  0  0  0  0
 14 34  1  0  0  0  0
 14 35  1  0  0  0  0
 15 16  1  0  0  0  0
 16 21  1  0  0  0  0
 16 17  2  0  0  0  0
 17 18  1  0  0  0  0
 17 36  1  0  0  0  0
 18 19  2  0  0  0  0
 18 37  1  0  0  0  0
 19 20  1  0  0  0  0
 19 38  1  0  0  0  0
 20 21  2  0  0  0  0
 20 39  1  0  0  0  0
 21 22  1  0  0  0  0
M  CHG  1   3   1
M  END
> <s_m_source_file>
AV-unprocessed.smi

> <i_m_source_file_index>
1994

> <i_lp_mmshare_version>
43012

> <i_f3d_flags>
0

> <s_epik_input>
W2NIXTFbY0hdW2NIXVtjSF1jKGMxMiluKGMobjIpW0NIM10pW0NIMl1bQ0BIXShbT0hdKVtDSDJdT2MzW2NIXVtjSF1bY0hdW2NIXWMzRg==

> <s_epik_cmdline>
J2VwaWtfcHl0aG9uJywgJy1waCcsICc3LjAnLCAnLXRuJywgJzgnLCAnLW1hJywgJzIwMCcsICctbWV0YWxfYmluZGluZycsICctaW1hZScsICc8aW5maWxlLm1hZT4nLCAnLW9tYWUnLCAnPG91dGZpbGUubWFlPic=

> <r_lp_tautomer_probability>
1

> <r_epik_Ionization_Penalty>
1.03916

> <r_epik_Ionization_Penalty_Charging>
1.03916

> <r_epik_Ionization_Penalty_Neutral>
2.3993e-06

> <r_epik_State_Penalty>
1.09101

> <r_epik_Charging_Adjusted_Penalty>
2.13018

> <i_epik_Tot_Q>
1

> <i_epik_Tot_abs_Q>
1

> <r_epik_Metal_State_Penalty>
5.08156

> <b_epik_Metal_Only>
0

> <s_lp_Force_Field>
OPLS_2005

> <r_lp_Energy>
18.7982

> <b_lp_Chiralities_Consistent>
1

> <s_lp_Variant>
AV-unprocessed.smi:1994-3

> <Gold.Version>
5.8.1

> <Gold.Id.Protein>
6NUR|6NUR_protein|mol2

> <Gold.PLP.Fitness>
55.9224

> <Gold.PLP.PLP>
-46.8558

> <Gold.PLP.part.hbond>
-3.6857

> <Gold.PLP.part.metal>
0.0000

> <Gold.PLP.part.buried>
-4.7342

> <Gold.PLP.part.nonpolar>
-38.3559

> <Gold.PLP.part.repulsive>
0.0180

> <Gold.PLP.ligand.clash>
0.0000

> <Gold.PLP.ligand.torsion>
1.2201

> <Gold.PLP.Chemscore.Hbond>
3.8206

> <Gold.PLP.Chemscore.CHOScore>
0.0000

> <Gold.PLP.Chemscore.Metal>
0.0000

> <Gold.Chemscore.Hbonds>
donor molecule, donor type, donor heavy atom, donor atom, acceptor molecule, acceptor atom, score
      L1  H     3    40       P1  8028  2.00
      P1  H  6896  6908       L1    13  0.36
      P1  H  6931  6943       L1    15  0.56
      P1  H  6934  6947       L1    15  0.75

> <Gold.PLP.Chemscore.Internal.Correction>
0.0451

> <Gold.Rescore>
     Score         DG    S(hbond)    S(metal)    S(lipo)     H(rot)  DE(clash)    DE(int)     intcor
     18.65     -19.88       2.30        0.00     107.21       2.27       0.00       1.22       ----

> <Gold.Chemscore.Fitness>
18.6505

> <Gold.Chemscore.DG>
-19.8765

> <Gold.Chemscore.ZeroCoef>
-5.4800

> <Gold.Chemscore.Hbond>
2.2952

> <Gold.Chemscore.Metal>
0.0000

> <Gold.Chemscore.Lipo>
107.2072

> <Gold.Chemscore.Internal_Hbond>
0.0000

> <Gold.Chemscore.DEClash>
0.0037

> <Gold.Chemscore.DEInternal>
1.2224

> <Gold.Chemscore.Rot>
2.2706

> <Gold.Chemscore.Internal.Correction>
   9.000000E+99

> <Gold.Chemscore.Hbonds>
donor molecule, donor type, donor heavy atom, donor atom, acceptor molecule, acceptor atom, score
      L1  H     3    40       P1  8028  0.99
      P1  H  6896  6908       L1    13  0.08
      P1  H  6931  6943       L1    15  0.27
      P1  H  6934  6947       L1    15  0.49

> <Gold.Chemscore.Hbond.Weighted>
-7.6661

> <Gold.Chemscore.Metal.Weighted>
-0.0000

> <Gold.Chemscore.Lipo.Weighted>
-12.5432

> <Gold.Chemscore.Internal_Hbond.Weighted>
0.0000

> <Gold.Chemscore.DEClash.Weighted>
0.0037

> <Gold.Chemscore.DEInternal.Weighted>
1.2224

> <Gold.Chemscore.Rot.Weighted>
5.8128

> <Gold.Chemscore.Internal.Correction.Weighted>
   9.000000E+99

> <Gold.Protein.RotatedTorsions>
[ 6907 6896 6895 6894 ] final -139.09 input  -60.11 | X-H torsion
[ 7974 7965 7964 7962 ] final -106.26 input  175.53 | X-H torsion
[ 8008 7997 7996 7995 ] final  -36.29 input   59.86 | X-H torsion
[ 10167 10162 10161 10158 ] final  -49.99 input  -65.29 | X-H torsion
[ 10718 10713 10712 10709 ] final  -88.67 input   66.30 | X-H torsion
[ 10763 10752 10751 10750 ] final  166.01 input  -60.55 | X-H torsion
[ 11005 11000 10999 10996 ] final   37.16 input  -57.11 | X-H torsion

> <Gold.Protein.ActiveResidues>
 VAL166  LYS551  ARG553  GLY616  TRP617  ASP618  TYR619  PRO620  LYS621  CYS622 
 ASP623  PHE694  ASN695  SER759  ASP760  ASP761  ALA762  ILE779  LEU786  VAL792 
 PHE793  MET794  SER795  GLU796  ALA797  LYS798  CYS799  TRP800  GLU811  SER814 

> <Gold.Protein.RotatedAtoms>
  151.0433  133.5687  159.2648 H   0  0  0  0  0  0  0  0  0  0  0  0  # atno 6907 bound_to 6896
  151.2725  135.0688  159.9149 H   0  0  0  0  0  0  0  0  0  0  0  0  # atno 6908 bound_to 6896
  152.5368  134.0161  159.8014 H   0  0  0  0  0  0  0  0  0  0  0  0  # atno 6909 bound_to 6896
  145.2201  140.9130  143.3265 H   0  0  0  0  0  0  0  0  0  0  0  0  # atno 7974 bound_to 7965
  154.4076  140.1634  156.2349 H   0  0  0  0  0  0  0  0  0  0  0  0  # atno 8008 bound_to 7997
  155.9251  140.3418  155.6181 H   0  0  0  0  0  0  0  0  0  0  0  0  # atno 8009 bound_to 7997
  155.7175  140.0764  157.2335 H   0  0  0  0  0  0  0  0  0  0  0  0  # atno 8010 bound_to 7997
  140.6659  143.2675  151.4295 H   0  0  0  0  0  0  0  0  0  0  0  0  # atno 10167 bound_to 10162
  155.9983  130.4844  150.5055 H   0  0  0  0  0  0  0  0  0  0  0  0  # atno 10718 bound_to 10713
  154.3326  135.2754  155.2464 H   0  0  0  0  0  0  0  0  0  0  0  0  # atno 10763 bound_to 10752
  154.4769  135.5868  153.6365 H   0  0  0  0  0  0  0  0  0  0  0  0  # atno 10764 bound_to 10752
  152.9865  135.6102  154.3520 H   0  0  0  0  0  0  0  0  0  0  0  0  # atno 10765 bound_to 10752
  140.2253  134.3592  155.7987 H   0  0  0  0  0  0  0  0  0  0  0  0  # atno 11005 bound_to 11000
  144.9774  139.3818  143.6279 LP  0  0  0  0  0  0  0  0  0  0  0  0  # atno 17320 bound_to 7965
  146.3378  139.8899  142.8811 LP  0  0  0  0  0  0  0  0  0  0  0  0  # atno 17321 bound_to 7965
  139.5908  144.1504  152.2085 LP  0  0  0  0  0  0  0  0  0  0  0  0  # atno 17342 bound_to 10162
  140.0858  144.5662  150.7090 LP  0  0  0  0  0  0  0  0  0  0  0  0  # atno 17343 bound_to 10162
  157.3034  131.0649  151.2052 LP  0  0  0  0  0  0  0  0  0  0  0  0  # atno 17370 bound_to 10713
  157.3023  130.6849  149.6171 LP  0  0  0  0  0  0  0  0  0  0  0  0  # atno 17371 bound_to 10713
  141.2221  133.7216  156.8643 LP  0  0  0  0  0  0  0  0  0  0  0  0  # atno 17394 bound_to 11000
  140.1807  134.9035  157.2945 LP  0  0  0  0  0  0  0  0  0  0  0  0  # atno 17395 bound_to 11000

$$$$
