AV-unprocessed.smi:837|AV-procd|sdf|3897|dock2
  -GOLD-   22720 1353D 1   1.00000     0.00000
 Structure written by MMmdl.
 50 52  0  0  0  0  0  0  0  0  2 V2000
  150.1414  141.7709  157.2663 C   0  0  0  0  0  0  0  0  0  0  0  0
  150.9649  140.6954  156.5270 C   0  0  1  0  0  0  0  0  0  0  0  0
  151.5108  139.6467  157.5203 C   0  0  0  0  0  0  0  0  0  0  0  0
  152.4147  138.6193  156.8215 C   0  0  0  0  0  0  0  0  0  0  0  0
  151.6860  137.9260  155.6619 C   0  0  0  0  0  0  0  0  0  0  0  0
  151.1333  138.9536  154.6581 C   0  0  0  0  0  0  0  0  0  0  0  0
  150.2326  140.0272  155.3202 C   0  0  2  0  0  0  0  0  0  0  0  0
  149.8453  141.0154  154.3283 N   0  0  0  0  0  0  0  0  0  0  0  0
  148.5270  141.0460  154.0994 C   0  0  0  0  0  0  0  0  0  0  0  0
  147.9642  141.7843  153.2919 O   0  0  0  0  0  0  0  0  0  0  0  0
  147.9386  140.1374  154.8968 N   0  0  0  0  0  0  0  0  0  0  0  0
  146.4957  139.8652  154.9081 C   0  0  0  0  0  0  0  0  0  0  0  0
  146.1504  138.4684  154.3748 C   0  0  0  0  0  0  0  0  0  0  0  0
  146.7115  137.4663  154.8197 O   0  0  0  0  0  0  0  0  0  0  0  0
  145.2165  138.4203  153.4133 N   0  0  0  0  0  0  0  0  0  0  0  0
  144.7566  137.2064  152.7444 C   0  0  0  0  0  0  0  0  0  0  0  0
  145.8113  136.5948  151.7986 C   0  0  0  0  0  0  0  0  0  0  0  0
  145.3624  135.3039  151.1346 C   0  0  0  0  0  0  0  0  0  0  0  0
  146.2088  134.1727  151.1145 C   0  0  0  0  0  0  0  0  0  0  0  0
  145.7700  132.9912  150.4822 C   0  0  0  0  0  0  0  0  0  0  0  0
  144.4921  132.9649  149.8880 C   0  0  0  0  0  0  0  0  0  0  0  0
  143.7086  134.0650  149.9298 N   0  3  0  0  0  0  0  0  0  0  0  0
  144.0931  135.2165  150.5232 C   0  0  0  0  0  0  0  0  0  0  0  0
  148.8388  139.4849  155.6452 C   0  0  0  0  0  0  0  0  0  0  0  0
  148.6076  138.5927  156.4616 O   0  0  0  0  0  0  0  0  0  0  0  0
  149.2654  141.3453  157.7562 H   0  0  0  0  0  0  0  0  0  0  0  0
  149.7994  142.5532  156.5887 H   0  0  0  0  0  0  0  0  0  0  0  0
  150.7406  142.2545  158.0380 H   0  0  0  0  0  0  0  0  0  0  0  0
  151.8322  141.2145  156.1156 H   0  0  0  0  0  0  0  0  0  0  0  0
  152.0794  140.1445  158.3066 H   0  0  0  0  0  0  0  0  0  0  0  0
  150.6903  139.1334  158.0222 H   0  0  0  0  0  0  0  0  0  0  0  0
  153.3081  139.1181  156.4437 H   0  0  0  0  0  0  0  0  0  0  0  0
  152.7576  137.8762  157.5418 H   0  0  0  0  0  0  0  0  0  0  0  0
  152.3690  137.2456  155.1528 H   0  0  0  0  0  0  0  0  0  0  0  0
  150.8788  137.3062  156.0522 H   0  0  0  0  0  0  0  0  0  0  0  0
  151.9714  139.4448  154.1614 H   0  0  0  0  0  0  0  0  0  0  0  0
  150.5881  138.4298  153.8711 H   0  0  0  0  0  0  0  0  0  0  0  0
  150.5171  141.6033  153.8568 H   0  0  0  0  0  0  0  0  0  0  0  0
  146.0953  139.9580  155.9190 H   0  0  0  0  0  0  0  0  0  0  0  0
  145.9791  140.6216  154.3141 H   0  0  0  0  0  0  0  0  0  0  0  0
  144.7981  139.2906  153.1173 H   0  0  0  0  0  0  0  0  0  0  0  0
  144.4348  136.4705  153.4830 H   0  0  0  0  0  0  0  0  0  0  0  0
  143.8692  137.4732  152.1699 H   0  0  0  0  0  0  0  0  0  0  0  0
  146.0745  137.3162  151.0240 H   0  0  0  0  0  0  0  0  0  0  0  0
  146.7319  136.4057  152.3515 H   0  0  0  0  0  0  0  0  0  0  0  0
  147.1879  134.2106  151.5701 H   0  0  0  0  0  0  0  0  0  0  0  0
  146.4074  132.1194  150.4520 H   0  0  0  0  0  0  0  0  0  0  0  0
  144.0767  132.1044  149.3840 H   0  0  0  0  0  0  0  0  0  0  0  0
  143.3798  136.0272  150.4889 H   0  0  0  0  0  0  0  0  0  0  0  0
  142.7868  134.0244  149.4942 H   0  0  0  0  0  0  0  0  0  0  0  0
  1  2  1  0  0  0  0
  1 26  1  0  0  0  0
  1 27  1  0  0  0  0
  1 28  1  0  0  0  0
  2  7  1  0  0  0  0
  2  3  1  0  0  0  0
  2 29  1  0  0  0  0
  3  4  1  0  0  0  0
  3 30  1  0  0  0  0
  3 31  1  0  0  0  0
  4  5  1  0  0  0  0
  4 32  1  0  0  0  0
  4 33  1  0  0  0  0
  5  6  1  0  0  0  0
  5 34  1  0  0  0  0
  5 35  1  0  0  0  0
  6  7  1  0  0  0  0
  6 36  1  0  0  0  0
  6 37  1  0  0  0  0
  7 24  1  0  0  0  0
  7  8  1  0  0  0  0
  8  9  1  0  0  0  0
  8 38  1  0  0  0  0
  9 10  2  0  0  0  0
  9 11  1  0  0  0  0
 11 12  1  0  0  0  0
 11 24  1  0  0  0  0
 12 13  1  0  0  0  0
 12 39  1  0  0  0  0
 12 40  1  0  0  0  0
 13 14  2  0  0  0  0
 13 15  1  0  0  0  0
 15 16  1  0  0  0  0
 15 41  1  0  0  0  0
 16 17  1  0  0  0  0
 16 42  1  0  0  0  0
 16 43  1  0  0  0  0
 17 18  1  0  0  0  0
 17 44  1  0  0  0  0
 17 45  1  0  0  0  0
 18 23  1  0  0  0  0
 18 19  2  0  0  0  0
 19 20  1  0  0  0  0
 19 46  1  0  0  0  0
 20 21  2  0  0  0  0
 20 47  1  0  0  0  0
 21 22  1  0  0  0  0
 21 48  1  0  0  0  0
 22 23  2  0  0  0  0
 22 50  1  0  0  0  0
 23 49  1  0  0  0  0
 24 25  2  0  0  0  0
M  CHG  1  22   1
M  END
> <s_m_source_file>
AV-unprocessed.smi

> <i_m_source_file_index>
837

> <i_lp_mmshare_version>
43012

> <i_f3d_flags>
0

> <s_epik_input>
W0NIMl0xW0NIMl1bQ0gyXVtDSDJdW0NAQEhdKFtDSDNdKVtDQEBdMTJbTkhdQyg9TylOKEMyPU8pW0NIMl1DKD1PKVtOSF1bQ0gyXVtDSDJdYzNbY0hdW2NIXVtjSF1uW2NIXTM=

> <s_epik_cmdline>
J2VwaWtfcHl0aG9uJywgJy1waCcsICc3LjAnLCAnLXRuJywgJzgnLCAnLW1hJywgJzIwMCcsICctbWV0YWxfYmluZGluZycsICctaW1hZScsICc8aW5maWxlLm1hZT4nLCAnLW9tYWUnLCAnPG91dGZpbGUubWFlPic=

> <r_lp_tautomer_probability>
1

> <r_epik_Ionization_Penalty>
2.28139

> <r_epik_Ionization_Penalty_Charging>
2.28135

> <r_epik_Ionization_Penalty_Neutral>
4.65525e-05

> <r_epik_State_Penalty>
2.43066

> <r_epik_Charging_Adjusted_Penalty>
4.71201

> <i_epik_Tot_Q>
1

> <i_epik_Tot_abs_Q>
1

> <r_epik_Metal_State_Penalty>
2.4646

> <b_epik_Metal_Only>
0

> <s_lp_Force_Field>
OPLS_2005

> <r_lp_Energy>
25.3405

> <b_lp_Chiralities_Consistent>
1

> <s_lp_Variant>
AV-unprocessed.smi:837-6

> <Gold.Version>
5.8.1

> <Gold.Id.Protein>
6NUR|6NUR_protein|mol2

> <Gold.PLP.Fitness>
42.9348

> <Gold.PLP.PLP>
-33.6701

> <Gold.PLP.part.hbond>
-3.0284

> <Gold.PLP.part.metal>
0.0000

> <Gold.PLP.part.buried>
-2.3262

> <Gold.PLP.part.nonpolar>
-30.9297

> <Gold.PLP.part.repulsive>
3.2566

> <Gold.PLP.ligand.clash>
0.0000

> <Gold.PLP.ligand.torsion>
0.3005

> <Gold.PLP.Chemscore.Hbond>
3.2769

> <Gold.PLP.Chemscore.CHOScore>
0.0000

> <Gold.PLP.Chemscore.Metal>
0.0000

> <Gold.Chemscore.Hbonds>
donor molecule, donor type, donor heavy atom, donor atom, acceptor molecule, acceptor atom, score
      L1  H    15    41       P1 10175  1.00
      L1  H    22    50       P1 10186  1.98
      P1  H  8011  8017       L1    10  0.28

> <Gold.PLP.Chemscore.Internal.Correction>
0.0350

> <Gold.Rescore>
     Score         DG    S(hbond)    S(metal)    S(lipo)     H(rot)  DE(clash)    DE(int)     intcor
     12.64     -17.81       1.97        0.00      92.17       1.96       2.63       2.54       ----

> <Gold.Chemscore.Fitness>
12.6399

> <Gold.Chemscore.DG>
-17.8085

> <Gold.Chemscore.ZeroCoef>
-5.4800

> <Gold.Chemscore.Hbond>
1.9676

> <Gold.Chemscore.Metal>
0.0000

> <Gold.Chemscore.Lipo>
92.1738

> <Gold.Chemscore.Internal_Hbond>
0.0000

> <Gold.Chemscore.DEClash>
2.6270

> <Gold.Chemscore.DEInternal>
2.5416

> <Gold.Chemscore.Rot>
1.9638

> <Gold.Chemscore.Internal.Correction>
   9.000000E+99

> <Gold.Chemscore.Hbonds>
donor molecule, donor type, donor heavy atom, donor atom, acceptor molecule, acceptor atom, score
      L1  H    15    41       P1 10175  1.00
      L1  H    22    50       P1 10186  0.93
      P1  H  8011  8017       L1    10  0.04

> <Gold.Chemscore.Hbond.Weighted>
-6.5716

> <Gold.Chemscore.Metal.Weighted>
-0.0000

> <Gold.Chemscore.Lipo.Weighted>
-10.7843

> <Gold.Chemscore.Internal_Hbond.Weighted>
0.0000

> <Gold.Chemscore.DEClash.Weighted>
2.6270

> <Gold.Chemscore.DEInternal.Weighted>
2.5416

> <Gold.Chemscore.Rot.Weighted>
5.0274

> <Gold.Chemscore.Internal.Correction.Weighted>
   9.000000E+99

> <Gold.Protein.RotatedTorsions>
[ 6907 6896 6895 6894 ] final -139.55 input  -60.11 | X-H torsion
[ 7974 7965 7964 7962 ] final  -41.09 input  175.53 | X-H torsion
[ 8008 7997 7996 7995 ] final  -52.06 input   59.86 | X-H torsion
[ 10167 10162 10161 10158 ] final  111.64 input  -65.29 | X-H torsion
[ 10718 10713 10712 10709 ] final  145.30 input   66.30 | X-H torsion
[ 10763 10752 10751 10750 ] final   89.02 input  -60.55 | X-H torsion
[ 11005 11000 10999 10996 ] final -145.11 input  -57.11 | X-H torsion

> <Gold.Protein.ActiveResidues>
 VAL166  LYS551  ARG553  GLY616  TRP617  ASP618  TYR619  PRO620  LYS621  CYS622 
 ASP623  PHE694  ASN695  SER759  ASP760  ASP761  ALA762  ILE779  LEU786  VAL792 
 PHE793  MET794  SER795  GLU796  ALA797  LYS798  CYS799  TRP800  GLU811  SER814 

> <Gold.Protein.RotatedAtoms>
  151.0493  133.5638  159.2643 H   0  0  0  0  0  0  0  0  0  0  0  0  # atno 6907 bound_to 6896
  151.2655  135.0667  159.9124 H   0  0  0  0  0  0  0  0  0  0  0  0  # atno 6908 bound_to 6896
  152.5379  134.0232  159.8045 H   0  0  0  0  0  0  0  0  0  0  0  0  # atno 6909 bound_to 6896
  146.0243  140.6811  142.9163 H   0  0  0  0  0  0  0  0  0  0  0  0  # atno 7974 bound_to 7965
  154.4097  140.1233  156.4931 H   0  0  0  0  0  0  0  0  0  0  0  0  # atno 8008 bound_to 7997
  155.6970  140.3495  155.4898 H   0  0  0  0  0  0  0  0  0  0  0  0  # atno 8009 bound_to 7997
  155.9418  140.1088  157.1039 H   0  0  0  0  0  0  0  0  0  0  0  0  # atno 8010 bound_to 7997
  139.6596  144.7129  151.1891 H   0  0  0  0  0  0  0  0  0  0  0  0  # atno 10167 bound_to 10162
  157.3469  131.0944  151.1034 H   0  0  0  0  0  0  0  0  0  0  0  0  # atno 10718 bound_to 10713
  153.1828  135.4485  155.0050 H   0  0  0  0  0  0  0  0  0  0  0  0  # atno 10763 bound_to 10752
  154.8041  135.3267  154.7478 H   0  0  0  0  0  0  0  0  0  0  0  0  # atno 10764 bound_to 10752
  153.7941  135.6968  153.4921 H   0  0  0  0  0  0  0  0  0  0  0  0  # atno 10765 bound_to 10752
  140.7956  134.2917  157.4997 H   0  0  0  0  0  0  0  0  0  0  0  0  # atno 11005 bound_to 11000
  144.7003  140.3622  143.7161 LP  0  0  0  0  0  0  0  0  0  0  0  0  # atno 17320 bound_to 7965
  145.7143  139.1693  143.2521 LP  0  0  0  0  0  0  0  0  0  0  0  0  # atno 17321 bound_to 7965
  140.7574  143.6016  150.8694 LP  0  0  0  0  0  0  0  0  0  0  0  0  # atno 17342 bound_to 10162
  139.9672  143.6097  152.2984 LP  0  0  0  0  0  0  0  0  0  0  0  0  # atno 17343 bound_to 10162
  157.2225  130.6488  149.5817 LP  0  0  0  0  0  0  0  0  0  0  0  0  # atno 17370 bound_to 10713
  155.9715  130.4625  150.6147 LP  0  0  0  0  0  0  0  0  0  0  0  0  # atno 17371 bound_to 10713
  139.8726  134.9400  156.3757 LP  0  0  0  0  0  0  0  0  0  0  0  0  # atno 17394 bound_to 11000
  140.9346  133.7556  156.0068 LP  0  0  0  0  0  0  0  0  0  0  0  0  # atno 17395 bound_to 11000

$$$$
