AV-unprocessed.smi:1244|AV-procd|sdf|5226|dock4
  -GOLD-   22720 4323D 1   1.00000     0.00000
 Structure written by MMmdl.
 55 57  0  0  0  0  0  0  0  0  2 V2000
  148.6665  136.2918  157.9223 C   0  0  0  0  0  0  0  0  0  0  0  0
  149.7453  136.0704  156.8567 C   0  0  2  0  0  0  0  0  0  0  0  0
  149.2605  136.4738  155.4493 C   0  0  0  0  0  0  0  0  0  0  0  0
  150.2871  136.1778  154.4205 N   0  3  1  0  0  0  0  0  0  0  0  0
  151.4012  137.1617  154.3909 C   0  0  0  0  0  0  0  0  0  0  0  0
  150.9036  138.6121  154.5352 C   0  0  0  0  0  0  0  0  0  0  0  0
  151.6604  139.3349  155.5505 N   0  0  0  0  0  0  0  0  0  0  0  0
  151.2199  140.4204  156.2022 C   0  0  0  0  0  0  0  0  0  0  0  0
  150.1143  140.9252  156.0054 O   0  0  0  0  0  0  0  0  0  0  0  0
  152.1305  140.8592  157.0872 N   0  0  0  0  0  0  0  0  0  0  0  0
  152.0199  141.9401  158.0080 C   0  0  0  0  0  0  0  0  0  0  0  0
  151.2089  143.0704  157.7398 C   0  0  0  0  0  0  0  0  0  0  0  0
  151.1875  144.1373  158.6544 C   0  0  0  0  0  0  0  0  0  0  0  0
  151.9927  144.0455  159.8018 C   0  0  0  0  0  0  0  0  0  0  0  0
  152.7818  142.9848  160.0644 N   0  0  0  0  0  0  0  0  0  0  0  0
  152.8019  141.9415  159.1987 C   0  0  0  0  0  0  0  0  0  0  0  0
  153.6340  140.8490  159.5334 N   0  0  0  0  0  0  0  0  0  0  0  0
  154.6687  140.9913  160.5522 C   0  0  0  0  0  0  0  0  0  0  0  0
  155.0684  139.5625  160.9092 C   0  0  0  0  0  0  0  0  0  0  0  0
  153.7407  138.8182  160.8037 C   0  0  0  0  0  0  0  0  0  0  0  0
  153.0127  139.5338  159.6603 C   0  0  0  0  0  0  0  0  0  0  0  0
  150.7153  134.7582  154.5118 C   0  0  0  0  0  0  0  0  0  0  0  0
  151.1406  134.3802  155.9477 C   0  0  2  0  0  0  0  0  0  0  0  0
  151.4570  132.8864  156.0784 C   0  0  0  0  0  0  0  0  0  0  0  0
  150.0809  134.6871  156.8476 O   0  0  0  0  0  0  0  0  0  0  0  0
  148.3790  137.3420  157.9772 H   0  0  0  0  0  0  0  0  0  0  0  0
  149.0256  135.9943  158.9078 H   0  0  0  0  0  0  0  0  0  0  0  0
  147.7705  135.7097  157.7049 H   0  0  0  0  0  0  0  0  0  0  0  0
  150.6250  136.6540  157.1329 H   0  0  0  0  0  0  0  0  0  0  0  0
  148.3585  135.9127  155.2008 H   0  0  0  0  0  0  0  0  0  0  0  0
  148.9809  137.5276  155.4190 H   0  0  0  0  0  0  0  0  0  0  0  0
  152.0795  136.9586  155.2209 H   0  0  0  0  0  0  0  0  0  0  0  0
  151.9920  137.0404  153.4829 H   0  0  0  0  0  0  0  0  0  0  0  0
  150.9643  139.1541  153.5910 H   0  0  0  0  0  0  0  0  0  0  0  0
  149.8530  138.6169  154.8269 H   0  0  0  0  0  0  0  0  0  0  0  0
  152.5790  138.9817  155.7768 H   0  0  0  0  0  0  0  0  0  0  0  0
  152.9582  140.2904  157.1923 H   0  0  0  0  0  0  0  0  0  0  0  0
  150.6203  143.1490  156.8387 H   0  0  0  0  0  0  0  0  0  0  0  0
  150.5778  145.0102  158.4741 H   0  0  0  0  0  0  0  0  0  0  0  0
  152.0094  144.8472  160.5250 H   0  0  0  0  0  0  0  0  0  0  0  0
  155.5156  141.5687  160.1799 H   0  0  0  0  0  0  0  0  0  0  0  0
  154.2757  141.4895  161.4393 H   0  0  0  0  0  0  0  0  0  0  0  0
  155.7723  139.1751  160.1712 H   0  0  0  0  0  0  0  0  0  0  0  0
  155.5281  139.4830  161.8947 H   0  0  0  0  0  0  0  0  0  0  0  0
  153.8633  137.7495  160.6256 H   0  0  0  0  0  0  0  0  0  0  0  0
  153.1785  138.9419  161.7302 H   0  0  0  0  0  0  0  0  0  0  0  0
  151.9407  139.6014  159.8515 H   0  0  0  0  0  0  0  0  0  0  0  0
  153.1562  138.9854  158.7291 H   0  0  0  0  0  0  0  0  0  0  0  0
  149.8719  134.1353  154.2104 H   0  0  0  0  0  0  0  0  0  0  0  0
  151.5163  134.5432  153.8054 H   0  0  0  0  0  0  0  0  0  0  0  0
  152.0303  134.9396  156.2396 H   0  0  0  0  0  0  0  0  0  0  0  0
  152.2714  132.5982  155.4131 H   0  0  0  0  0  0  0  0  0  0  0  0
  150.5892  132.2744  155.8303 H   0  0  0  0  0  0  0  0  0  0  0  0
  151.7581  132.6398  157.0969 H   0  0  0  0  0  0  0  0  0  0  0  0
  149.8209  136.2827  153.5305 H   0  0  0  0  0  0  0  0  0  0  0  0
  1  2  1  0  0  0  0
  1 26  1  0  0  0  0
  1 27  1  0  0  0  0
  1 28  1  0  0  0  0
  2 25  1  0  0  0  0
  2  3  1  0  0  0  0
  2 29  1  0  0  0  0
  3  4  1  0  0  0  0
  3 30  1  0  0  0  0
  3 31  1  0  0  0  0
  4  5  1  0  0  0  0
  4 22  1  0  0  0  0
  4 55  1  0  0  0  0
  5  6  1  0  0  0  0
  5 32  1  0  0  0  0
  5 33  1  0  0  0  0
  6  7  1  0  0  0  0
  6 34  1  0  0  0  0
  6 35  1  0  0  0  0
  7  8  1  0  0  0  0
  7 36  1  0  0  0  0
  8  9  2  0  0  0  0
  8 10  1  0  0  0  0
 10 11  1  0  0  0  0
 10 37  1  0  0  0  0
 11 16  1  0  0  0  0
 11 12  2  0  0  0  0
 12 13  1  0  0  0  0
 12 38  1  0  0  0  0
 13 14  2  0  0  0  0
 13 39  1  0  0  0  0
 14 15  1  0  0  0  0
 14 40  1  0  0  0  0
 15 16  2  0  0  0  0
 16 17  1  0  0  0  0
 17 21  1  0  0  0  0
 17 18  1  0  0  0  0
 18 19  1  0  0  0  0
 18 41  1  0  0  0  0
 18 42  1  0  0  0  0
 19 20  1  0  0  0  0
 19 43  1  0  0  0  0
 19 44  1  0  0  0  0
 20 21  1  0  0  0  0
 20 45  1  0  0  0  0
 20 46  1  0  0  0  0
 21 47  1  0  0  0  0
 21 48  1  0  0  0  0
 22 23  1  0  0  0  0
 22 49  1  0  0  0  0
 22 50  1  0  0  0  0
 23 24  1  0  0  0  0
 23 25  1  0  0  0  0
 23 51  1  0  0  0  0
 24 52  1  0  0  0  0
 24 53  1  0  0  0  0
 24 54  1  0  0  0  0
M  CHG  1   4   1
M  END
> <s_m_source_file>
AV-unprocessed.smi

> <i_m_source_file_index>
1244

> <i_lp_mmshare_version>
43012

> <i_f3d_flags>
0

> <s_epik_input>
W0NIM11bQ0BASF0xW0NIMl1OKFtDSDJdW0NASF0oTzEpW0NIM10pW0NIMl1bQ0gyXVtOSF1DKD1PKVtOSF1jMltjSF1bY0hdW2NIXW5jMk4zW0NIMl1bQ0gyXVtDSDJdW0NIMl0z

> <s_epik_cmdline>
J2VwaWtfcHl0aG9uJywgJy1waCcsICc3LjAnLCAnLXRuJywgJzgnLCAnLW1hJywgJzIwMCcsICctbWV0YWxfYmluZGluZycsICctaW1hZScsICc8aW5maWxlLm1hZT4nLCAnLW9tYWUnLCAnPG91dGZpbGUubWFlPic=

> <r_lp_tautomer_probability>
1

> <r_epik_Ionization_Penalty>
0.684913

> <r_epik_Ionization_Penalty_Charging>
0.602531

> <r_epik_Ionization_Penalty_Neutral>
0.0823829

> <r_epik_State_Penalty>
0.678827

> <r_epik_Charging_Adjusted_Penalty>
1.28136

> <i_epik_Tot_Q>
1

> <i_epik_Tot_abs_Q>
1

> <r_epik_Metal_State_Penalty>
0.67806

> <b_epik_Metal_Only>
0

> <s_lp_Force_Field>
OPLS_2005

> <r_lp_Energy>
44.826

> <b_lp_Chiralities_Consistent>
1

> <s_lp_Variant>
AV-unprocessed.smi:1244-6

> <Gold.Version>
5.8.1

> <Gold.Id.Protein>
6NUR|6NUR_protein|mol2

> <Gold.PLP.Fitness>
43.4739

> <Gold.PLP.PLP>
-38.6850

> <Gold.PLP.part.hbond>
-1.4256

> <Gold.PLP.part.metal>
0.0000

> <Gold.PLP.part.buried>
-6.1640

> <Gold.PLP.part.nonpolar>
-31.2973

> <Gold.PLP.part.repulsive>
0.3375

> <Gold.PLP.ligand.clash>
0.0000

> <Gold.PLP.ligand.torsion>
0.9713

> <Gold.PLP.Chemscore.Hbond>
2.1255

> <Gold.PLP.Chemscore.CHOScore>
0.0000

> <Gold.PLP.Chemscore.Metal>
0.0000

> <Gold.Chemscore.Hbonds>
donor molecule, donor type, donor heavy atom, donor atom, acceptor molecule, acceptor atom, score
      L1  H     4    55       P1  7948  1.80

> <Gold.PLP.Chemscore.Internal.Correction>
0.3550

> <Gold.Rescore>
     Score         DG    S(hbond)    S(metal)    S(lipo)     H(rot)  DE(clash)    DE(int)     intcor
     14.63     -16.85       0.92        0.00     105.82       1.60       0.03       2.19       ----

> <Gold.Chemscore.Fitness>
14.6346

> <Gold.Chemscore.DG>
-16.8476

> <Gold.Chemscore.ZeroCoef>
-5.4800

> <Gold.Chemscore.Hbond>
0.9213

> <Gold.Chemscore.Metal>
0.0000

> <Gold.Chemscore.Lipo>
105.8203

> <Gold.Chemscore.Internal_Hbond>
0.0000

> <Gold.Chemscore.DEClash>
0.0251

> <Gold.Chemscore.DEInternal>
2.1880

> <Gold.Chemscore.Rot>
1.5978

> <Gold.Chemscore.Internal.Correction>
   9.000000E+99

> <Gold.Chemscore.Hbonds>
donor molecule, donor type, donor heavy atom, donor atom, acceptor molecule, acceptor atom, score
      L1  H     4    55       P1  7948  0.18

> <Gold.Chemscore.Hbond.Weighted>
-3.0771

> <Gold.Chemscore.Metal.Weighted>
-0.0000

> <Gold.Chemscore.Lipo.Weighted>
-12.3810

> <Gold.Chemscore.Internal_Hbond.Weighted>
0.0000

> <Gold.Chemscore.DEClash.Weighted>
0.0251

> <Gold.Chemscore.DEInternal.Weighted>
2.1880

> <Gold.Chemscore.Rot.Weighted>
4.0905

> <Gold.Chemscore.Internal.Correction.Weighted>
   9.000000E+99

> <Gold.Protein.RotatedTorsions>
[ 6907 6896 6895 6894 ] final   21.99 input  -60.11 | X-H torsion
[ 7974 7965 7964 7962 ] final -147.19 input  175.53 | X-H torsion
[ 8008 7997 7996 7995 ] final -171.89 input   59.86 | X-H torsion
[ 10167 10162 10161 10158 ] final    5.21 input  -65.29 | X-H torsion
[ 10718 10713 10712 10709 ] final  106.06 input   66.30 | X-H torsion
[ 10763 10752 10751 10750 ] final -132.25 input  -60.55 | X-H torsion
[ 11005 11000 10999 10996 ] final  -85.73 input  -57.11 | X-H torsion

> <Gold.Protein.ActiveResidues>
 VAL166  LYS551  ARG553  GLY616  TRP617  ASP618  TYR619  PRO620  LYS621  CYS622 
 ASP623  PHE694  ASN695  SER759  ASP760  ASP761  ALA762  ILE779  LEU786  VAL792 
 PHE793  MET794  SER795  GLU796  ALA797  LYS798  CYS799  TRP800  GLU811  SER814 

> <Gold.Protein.RotatedAtoms>
  151.9203  135.0301  160.0521 H   0  0  0  0  0  0  0  0  0  0  0  0  # atno 6907 bound_to 6896
  152.2205  133.4975  159.5168 H   0  0  0  0  0  0  0  0  0  0  0  0  # atno 6908 bound_to 6896
  150.6998  134.1266  159.4097 H   0  0  0  0  0  0  0  0  0  0  0  0  # atno 6909 bound_to 6896
  144.8110  140.5359  143.5643 H   0  0  0  0  0  0  0  0  0  0  0  0  # atno 7974 bound_to 7965
  155.9374  140.1102  157.1083 H   0  0  0  0  0  0  0  0  0  0  0  0  # atno 8008 bound_to 7997
  154.4082  140.1225  156.4948 H   0  0  0  0  0  0  0  0  0  0  0  0  # atno 8009 bound_to 7997
  155.7004  140.3472  155.4933 H   0  0  0  0  0  0  0  0  0  0  0  0  # atno 8010 bound_to 7997
  140.6494  143.7581  150.7551 H   0  0  0  0  0  0  0  0  0  0  0  0  # atno 10167 bound_to 10162
  157.6682  131.0842  150.5949 H   0  0  0  0  0  0  0  0  0  0  0  0  # atno 10718 bound_to 10713
  154.8745  135.3804  154.4378 H   0  0  0  0  0  0  0  0  0  0  0  0  # atno 10763 bound_to 10752
  153.5066  135.7030  153.5808 H   0  0  0  0  0  0  0  0  0  0  0  0  # atno 10764 bound_to 10752
  153.4116  135.3923  155.2020 H   0  0  0  0  0  0  0  0  0  0  0  0  # atno 10765 bound_to 10752
  141.1638  133.7415  156.9058 H   0  0  0  0  0  0  0  0  0  0  0  0  # atno 11005 bound_to 11000
  145.5325  139.1475  143.3492 LP  0  0  0  0  0  0  0  0  0  0  0  0  # atno 17320 bound_to 7965
  146.2408  140.5465  142.8935 LP  0  0  0  0  0  0  0  0  0  0  0  0  # atno 17321 bound_to 7965
  140.1229  143.4595  152.2302 LP  0  0  0  0  0  0  0  0  0  0  0  0  # atno 17342 bound_to 10162
  139.5708  144.7461  151.3897 LP  0  0  0  0  0  0  0  0  0  0  0  0  # atno 17343 bound_to 10162
  156.6250  130.4416  149.5808 LP  0  0  0  0  0  0  0  0  0  0  0  0  # atno 17370 bound_to 10713
  156.2326  130.6804  151.1478 LP  0  0  0  0  0  0  0  0  0  0  0  0  # atno 17371 bound_to 10713
  140.1551  134.9204  157.2642 LP  0  0  0  0  0  0  0  0  0  0  0  0  # atno 17394 bound_to 11000
  140.2677  134.3496  155.7384 LP  0  0  0  0  0  0  0  0  0  0  0  0  # atno 17395 bound_to 11000

$$$$
