AV-unprocessed.smi:176|AV-procd|sdf|1434|dock8
  -GOLD-   2262019213D 1   1.00000     0.00000
 Structure written by MMmdl.
 57 61  0  0  0  0  0  0  0  0  1 V2000
  142.8701  132.0184  149.8602 O   0  0  0  0  0  0  0  0  0  0  0  0
  144.2084  132.3016  149.5056 C   0  0  0  0  0  0  0  0  0  0  0  0
  144.8746  133.2224  150.5407 C   0  0  0  0  0  0  0  0  0  0  0  0
  144.1133  134.5624  150.5930 C   0  0  0  0  0  0  0  0  0  0  0  0
  143.8763  135.0734  149.2965 O   0  0  0  0  0  0  0  0  0  0  0  0
  145.1686  132.5773  151.9139 C   0  0  0  0  0  0  0  0  0  0  0  0
  146.5318  133.2715  151.9417 C   0  0  0  0  0  0  0  0  0  0  0  0
  147.6624  132.6502  152.5661 N   0  0  0  0  0  0  0  0  0  0  0  0
  148.7377  133.2858  153.1456 C   0  0  0  0  0  0  0  0  0  0  0  0
  149.6250  132.4970  153.6869 N   0  0  0  0  0  0  0  0  0  0  0  0
  149.1065  131.2220  153.4947 C   0  0  0  0  0  0  0  0  0  0  0  0
  149.5435  129.9135  153.8433 C   0  0  0  0  0  0  0  0  0  0  0  0
  150.7185  129.6843  154.4805 N   0  0  0  0  0  0  0  0  0  0  0  0
  150.6352  128.7261  155.5804 C   0  0  0  0  0  0  0  0  0  0  0  0
  152.0300  128.1956  155.9540 C   0  0  0  0  0  0  0  0  0  0  0  0
  153.0366  129.3388  156.2285 C   0  0  1  0  0  0  0  0  0  0  0  0
  152.6202  129.9939  157.4138 O   0  0  0  0  0  0  0  0  0  0  0  0
  154.4651  128.8167  156.5116 C   0  0  0  0  0  0  0  0  0  0  0  0
  155.1738  128.2924  155.2518 C   0  0  0  0  0  0  0  0  0  0  0  0
  155.1892  129.3562  154.1462 C   0  0  0  0  0  0  0  0  0  0  0  0
  153.7663  129.8285  153.8151 C   0  0  0  0  0  0  0  0  0  0  0  0
  153.0351  130.3693  155.0643 C   0  0  1  0  0  0  0  0  0  0  0  0
  151.6018  130.8269  154.7169 C   0  0  0  0  0  0  0  0  0  0  0  0
  148.7326  128.8731  153.5124 N   0  0  0  0  0  0  0  0  0  0  0  0
  147.5794  129.0940  152.8742 C   0  0  0  0  0  0  0  0  0  0  0  0
  147.0536  130.2549  152.4784 N   0  0  0  0  0  0  0  0  0  0  0  0
  147.8604  131.3027  152.8118 C   0  0  0  0  0  0  0  0  0  0  0  0
  146.4091  133.3444  150.4179 C   0  0  0  0  0  0  0  0  0  0  0  0
  142.3657  132.8142  149.7869 H   0  0  0  0  0  0  0  0  0  0  0  0
  144.7519  131.3636  149.3910 H   0  0  0  0  0  0  0  0  0  0  0  0
  144.1985  132.7705  148.5212 H   0  0  0  0  0  0  0  0  0  0  0  0
  143.1477  134.4476  151.0856 H   0  0  0  0  0  0  0  0  0  0  0  0
  144.6591  135.3090  151.1701 H   0  0  0  0  0  0  0  0  0  0  0  0
  144.7015  135.1246  148.8389 H   0  0  0  0  0  0  0  0  0  0  0  0
  144.4975  132.8748  152.7202 H   0  0  0  0  0  0  0  0  0  0  0  0
  145.2585  131.4904  151.8658 H   0  0  0  0  0  0  0  0  0  0  0  0
  146.4493  134.2653  152.3851 H   0  0  0  0  0  0  0  0  0  0  0  0
  148.8503  134.3602  153.1489 H   0  0  0  0  0  0  0  0  0  0  0  0
  150.1799  129.2203  156.4395 H   0  0  0  0  0  0  0  0  0  0  0  0
  149.9880  127.8861  155.3294 H   0  0  0  0  0  0  0  0  0  0  0  0
  151.9538  127.5385  156.8213 H   0  0  0  0  0  0  0  0  0  0  0  0
  152.3864  127.5702  155.1358 H   0  0  0  0  0  0  0  0  0  0  0  0
  151.6797  129.9295  157.4772 H   0  0  0  0  0  0  0  0  0  0  0  0
  155.0702  129.6237  156.9283 H   0  0  0  0  0  0  0  0  0  0  0  0
  154.4392  128.0363  157.2734 H   0  0  0  0  0  0  0  0  0  0  0  0
  156.1953  128.0024  155.4985 H   0  0  0  0  0  0  0  0  0  0  0  0
  154.6807  127.3900  154.8899 H   0  0  0  0  0  0  0  0  0  0  0  0
  155.7934  130.2071  154.4638 H   0  0  0  0  0  0  0  0  0  0  0  0
  155.6656  128.9553  153.2512 H   0  0  0  0  0  0  0  0  0  0  0  0
  153.8111  130.6028  153.0486 H   0  0  0  0  0  0  0  0  0  0  0  0
  153.2061  129.0020  153.3763 H   0  0  0  0  0  0  0  0  0  0  0  0
  153.5896  131.2512  155.3898 H   0  0  0  0  0  0  0  0  0  0  0  0
  151.6266  131.4737  153.8385 H   0  0  0  0  0  0  0  0  0  0  0  0
  151.1945  131.4221  155.5355 H   0  0  0  0  0  0  0  0  0  0  0  0
  146.9958  128.2146  152.6461 H   0  0  0  0  0  0  0  0  0  0  0  0
  146.8633  132.4856  149.9195 H   0  0  0  0  0  0  0  0  0  0  0  0
  146.7611  134.2793  149.9808 H   0  0  0  0  0  0  0  0  0  0  0  0
  1  2  1  0  0  0  0
  1 29  1  0  0  0  0
  2  3  1  0  0  0  0
  2 30  1  0  0  0  0
  2 31  1  0  0  0  0
  3 28  1  0  0  0  0
  3  4  1  0  0  0  0
  3  6  1  0  0  0  0
  4  5  1  0  0  0  0
  4 32  1  0  0  0  0
  4 33  1  0  0  0  0
  5 34  1  0  0  0  0
  6  7  1  0  0  0  0
  6 35  1  0  0  0  0
  6 36  1  0  0  0  0
  7  8  1  0  0  0  0
  7 28  1  0  0  0  0
  7 37  1  0  0  0  0
  8 27  1  0  0  0  0
  8  9  1  0  0  0  0
  9 10  2  0  0  0  0
  9 38  1  0  0  0  0
 10 11  1  0  0  0  0
 11 27  2  0  0  0  0
 11 12  1  0  0  0  0
 12 13  1  0  0  0  0
 12 24  2  0  0  0  0
 13 23  1  0  0  0  0
 13 14  1  0  0  0  0
 14 15  1  0  0  0  0
 14 39  1  0  0  0  0
 14 40  1  0  0  0  0
 15 16  1  0  0  0  0
 15 41  1  0  0  0  0
 15 42  1  0  0  0  0
 16 22  1  0  0  0  0
 16 17  1  0  0  0  0
 16 18  1  0  0  0  0
 17 43  1  0  0  0  0
 18 19  1  0  0  0  0
 18 44  1  0  0  0  0
 18 45  1  0  0  0  0
 19 20  1  0  0  0  0
 19 46  1  0  0  0  0
 19 47  1  0  0  0  0
 20 21  1  0  0  0  0
 20 48  1  0  0  0  0
 20 49  1  0  0  0  0
 21 22  1  0  0  0  0
 21 50  1  0  0  0  0
 21 51  1  0  0  0  0
 22 23  1  0  0  0  0
 22 52  1  0  0  0  0
 23 53  1  0  0  0  0
 23 54  1  0  0  0  0
 24 25  1  0  0  0  0
 25 26  2  0  0  0  0
 25 55  1  0  0  0  0
 26 27  1  0  0  0  0
 28 56  1  0  0  0  0
 28 57  1  0  0  0  0
M  END
> <s_m_source_file>
AV-unprocessed.smi

> <i_m_source_file_index>
176

> <i_lp_mmshare_version>
43012

> <i_f3d_flags>
0

> <s_epik_input>
W09IXVtDSDJdQzEoW0NIMl1bT0hdKVtDSDJdW0NIXShbQ0gyXTEpbihbY0hdbjIpYyhjMjMpbltjSF1uYzNOKFtDSDJdW0NIMl00KVtDSDJdW0NAQEhdKFtDQF00NVtPSF0pW0NIMl1bQ0gyXVtDSDJdW0NIMl01

> <s_epik_cmdline>
J2VwaWtfcHl0aG9uJywgJy1waCcsICc3LjAnLCAnLXRuJywgJzgnLCAnLW1hJywgJzIwMCcsICctbWV0YWxfYmluZGluZycsICctaW1hZScsICc8aW5maWxlLm1hZT4nLCAnLW9tYWUnLCAnPG91dGZpbGUubWFlPic=

> <r_lp_tautomer_probability>
1

> <r_epik_Ionization_Penalty>
0.00642876

> <r_epik_Ionization_Penalty_Charging>
0

> <r_epik_Ionization_Penalty_Neutral>
0.00642876

> <r_epik_State_Penalty>
0.00467813

> <r_epik_Charging_Adjusted_Penalty>
0.00467813

> <i_epik_Tot_Q>
0

> <i_epik_Tot_abs_Q>
0

> <r_epik_Metal_State_Penalty>
-0

> <b_epik_Metal_Only>
0

> <s_lp_Force_Field>
OPLS_2005

> <r_lp_Energy>
50.7593

> <b_lp_Chiralities_Consistent>
1

> <s_lp_Variant>
AV-unprocessed.smi:176-2

> <Gold.Version>
5.8.1

> <Gold.Id.Protein>
6NUR|6NUR_protein|mol2

> <Gold.PLP.Fitness>
50.2809

> <Gold.PLP.PLP>
-42.6747

> <Gold.PLP.part.hbond>
-3.8352

> <Gold.PLP.part.metal>
0.0000

> <Gold.PLP.part.buried>
-5.5145

> <Gold.PLP.part.nonpolar>
-33.1107

> <Gold.PLP.part.repulsive>
0.3659

> <Gold.PLP.ligand.clash>
0.0000

> <Gold.PLP.ligand.torsion>
1.0805

> <Gold.PLP.Chemscore.Hbond>
2.1619

> <Gold.PLP.Chemscore.CHOScore>
0.8003

> <Gold.PLP.Chemscore.Metal>
0.0000

> <Gold.Chemscore.Hbonds>
donor molecule, donor type, donor heavy atom, donor atom, acceptor molecule, acceptor atom, score
      L1  H     1    29       P1 10186  0.80
      L1  H     5    34       P1  7921  1.00
      P1  H 10785 10796       L1     1  0.14
      L1  C     9    38       P1  7948  0.66

> <Gold.PLP.Chemscore.Internal.Correction>
0.8806

> <Gold.Rescore>
     Score         DG    S(hbond)    S(metal)    S(lipo)     H(rot)  DE(clash)    DE(int)     intcor
      9.98     -12.43       1.99        0.00      83.85       3.71       0.34       2.11       ----

> <Gold.Chemscore.Fitness>
9.9835

> <Gold.Chemscore.DG>
-12.4305

> <Gold.Chemscore.ZeroCoef>
-5.4800

> <Gold.Chemscore.Hbond>
1.9881

> <Gold.Chemscore.Metal>
0.0000

> <Gold.Chemscore.Lipo>
83.8474

> <Gold.Chemscore.Internal_Hbond>
0.0000

> <Gold.Chemscore.DEClash>
0.3353

> <Gold.Chemscore.DEInternal>
2.1116

> <Gold.Chemscore.Rot>
3.7109

> <Gold.Chemscore.Internal.Correction>
   9.000000E+99

> <Gold.Chemscore.Hbonds>
donor molecule, donor type, donor heavy atom, donor atom, acceptor molecule, acceptor atom, score
      L1  H     1    29       P1 10186  0.79
      L1  H     5    34       P1  7921  1.00

> <Gold.Chemscore.Hbond.Weighted>
-6.6404

> <Gold.Chemscore.Metal.Weighted>
-0.0000

> <Gold.Chemscore.Lipo.Weighted>
-9.8101

> <Gold.Chemscore.Internal_Hbond.Weighted>
0.0000

> <Gold.Chemscore.DEClash.Weighted>
0.3353

> <Gold.Chemscore.DEInternal.Weighted>
2.1116

> <Gold.Chemscore.Rot.Weighted>
9.5000

> <Gold.Chemscore.Internal.Correction.Weighted>
   9.000000E+99

> <Gold.Protein.RotatedTorsions>
[ 6907 6896 6895 6894 ] final  133.96 input  -60.11 | X-H torsion
[ 7974 7965 7964 7962 ] final   75.37 input  175.53 | X-H torsion
[ 8008 7997 7996 7995 ] final  162.45 input   59.86 | X-H torsion
[ 10167 10162 10161 10158 ] final  -67.11 input  -65.29 | X-H torsion
[ 10718 10713 10712 10709 ] final -103.15 input   66.30 | X-H torsion
[ 10763 10752 10751 10750 ] final  101.16 input  -60.55 | X-H torsion
[ 11005 11000 10999 10996 ] final    7.44 input  -57.11 | X-H torsion

> <Gold.Protein.ActiveResidues>
 VAL166  LYS551  ARG553  GLY616  TRP617  ASP618  TYR619  PRO620  LYS621  CYS622 
 ASP623  PHE694  ASN695  SER759  ASP760  ASP761  ALA762  ILE779  LEU786  VAL792 
 PHE793  MET794  SER795  GLU796  ALA797  LYS798  CYS799  TRP800  GLU811  SER814 

> <Gold.Protein.RotatedAtoms>
  152.3164  133.5806  159.5714 H   0  0  0  0  0  0  0  0  0  0  0  0  # atno 6907 bound_to 6896
  150.7348  134.0077  159.3668 H   0  0  0  0  0  0  0  0  0  0  0  0  # atno 6908 bound_to 6896
  151.7965  135.0721  160.0445 H   0  0  0  0  0  0  0  0  0  0  0  0  # atno 6909 bound_to 6896
  145.7165  139.2633  143.1621 H   0  0  0  0  0  0  0  0  0  0  0  0  # atno 7974 bound_to 7965
  156.2030  140.1750  156.7859 H   0  0  0  0  0  0  0  0  0  0  0  0  # atno 8008 bound_to 7997
  154.5617  140.0698  156.8859 H   0  0  0  0  0  0  0  0  0  0  0  0  # atno 8009 bound_to 7997
  155.2836  140.3350  155.4259 H   0  0  0  0  0  0  0  0  0  0  0  0  # atno 8010 bound_to 7997
  140.5607  143.2313  151.6733 H   0  0  0  0  0  0  0  0  0  0  0  0  # atno 10167 bound_to 10162
  156.0255  130.5454  150.7212 H   0  0  0  0  0  0  0  0  0  0  0  0  # atno 10718 bound_to 10713
  153.3232  135.4054  155.1434 H   0  0  0  0  0  0  0  0  0  0  0  0  # atno 10763 bound_to 10752
  154.8605  135.3592  154.5569 H   0  0  0  0  0  0  0  0  0  0  0  0  # atno 10764 bound_to 10752
  153.6003  135.7071  153.5446 H   0  0  0  0  0  0  0  0  0  0  0  0  # atno 10765 bound_to 10752
  140.5482  134.0308  155.7927 H   0  0  0  0  0  0  0  0  0  0  0  0  # atno 11005 bound_to 11000
  146.0665  140.7915  142.9709 LP  0  0  0  0  0  0  0  0  0  0  0  0  # atno 17320 bound_to 7965
  144.6928  140.3276  143.7221 LP  0  0  0  0  0  0  0  0  0  0  0  0  # atno 17321 bound_to 7965
  139.5069  144.3666  152.0511 LP  0  0  0  0  0  0  0  0  0  0  0  0  # atno 17342 bound_to 10162
  140.2792  144.3878  150.6124 LP  0  0  0  0  0  0  0  0  0  0  0  0  # atno 17343 bound_to 10162
  157.4827  131.0904  151.0518 LP  0  0  0  0  0  0  0  0  0  0  0  0  # atno 17370 bound_to 10713
  157.0947  130.5957  149.5447 LP  0  0  0  0  0  0  0  0  0  0  0  0  # atno 17371 bound_to 10713
  141.1187  133.9497  157.2772 LP  0  0  0  0  0  0  0  0  0  0  0  0  # atno 17394 bound_to 11000
  139.9469  135.0182  156.8878 LP  0  0  0  0  0  0  0  0  0  0  0  0  # atno 17395 bound_to 11000

$$$$
