AV-unprocessed.smi:2846|AV-procd|sdf|10951|dock9
  -GOLD-   2272015403D 1   1.00000     0.00000
 Structure written by MMmdl.
 48 50  0  0  0  0  0  0  0  0  1 V2000
  150.0187  140.5690  157.3257 O   0  0  0  0  0  0  0  0  0  0  0  0
  149.9341  141.7112  156.8732 C   0  0  0  0  0  0  0  0  0  0  0  0
  151.1638  142.6201  156.8069 C   0  0  0  0  0  0  0  0  0  0  0  0
  151.5675  143.3045  158.1027 C   0  0  0  0  0  0  0  0  0  0  0  0
  151.5195  144.6427  158.2511 C   0  0  0  0  0  0  0  0  0  0  0  0
  151.8984  145.3720  159.5279 C   0  0  0  0  0  0  0  0  0  0  0  0
  152.0017  144.4232  160.7340 C   0  0  0  0  0  0  0  0  0  0  0  0
  152.7455  143.1340  160.3627 C   0  0  0  0  0  0  0  0  0  0  0  0
  152.0356  142.3823  159.2219 C   0  0  0  0  0  0  0  0  0  0  0  0
  148.7915  142.2373  156.4077 N   0  0  0  0  0  0  0  0  0  0  0  0
  147.5001  141.5545  156.3544 C   0  0  0  0  0  0  0  0  0  0  0  0
  146.9124  141.4660  154.9181 C   0  0  0  0  0  0  0  0  0  0  0  0
  145.8965  142.5979  154.7000 C   0  0  0  0  0  0  0  0  0  0  0  0
  144.8608  142.8222  155.6359 C   0  0  0  0  0  0  0  0  0  0  0  0
  143.9595  143.8825  155.4167 C   0  0  0  0  0  0  0  0  0  0  0  0
  144.0335  144.7114  154.3547 N   0  0  0  0  0  0  0  0  0  0  0  0
  145.0280  144.5058  153.4666 C   0  0  0  0  0  0  0  0  0  0  0  0
  145.9804  143.4754  153.5931 C   0  0  0  0  0  0  0  0  0  0  0  0
  148.0243  141.4375  153.8447 C   0  0  0  0  0  0  0  0  0  0  0  0
  148.5681  140.0064  153.8268 C   0  0  0  0  0  0  0  0  0  0  0  0
  147.4215  139.1216  154.3274 C   0  0  0  0  0  0  0  0  0  0  0  0
  146.2789  140.0760  154.6981 C   0  0  0  0  0  0  0  0  0  0  0  0
  152.0007  142.0070  156.4691 H   0  0  0  0  0  0  0  0  0  0  0  0
  151.0154  143.3778  156.0363 H   0  0  0  0  0  0  0  0  0  0  0  0
  151.2059  145.2628  157.4239 H   0  0  0  0  0  0  0  0  0  0  0  0
  152.8521  145.8726  159.3588 H   0  0  0  0  0  0  0  0  0  0  0  0
  151.1621  146.1502  159.7299 H   0  0  0  0  0  0  0  0  0  0  0  0
  152.5013  144.9261  161.5625 H   0  0  0  0  0  0  0  0  0  0  0  0
  151.0007  144.1695  161.0852 H   0  0  0  0  0  0  0  0  0  0  0  0
  153.7614  143.3849  160.0545 H   0  0  0  0  0  0  0  0  0  0  0  0
  152.8390  142.4850  161.2338 H   0  0  0  0  0  0  0  0  0  0  0  0
  151.1640  141.8534  159.6088 H   0  0  0  0  0  0  0  0  0  0  0  0
  152.7077  141.6265  158.8140 H   0  0  0  0  0  0  0  0  0  0  0  0
  148.8182  143.1820  156.0515 H   0  0  0  0  0  0  0  0  0  0  0  0
  147.5636  140.5692  156.8183 H   0  0  0  0  0  0  0  0  0  0  0  0
  146.8202  142.1276  156.9857 H   0  0  0  0  0  0  0  0  0  0  0  0
  144.7539  142.2006  156.5124 H   0  0  0  0  0  0  0  0  0  0  0  0
  143.1595  144.0721  156.1172 H   0  0  0  0  0  0  0  0  0  0  0  0
  145.0706  145.1876  152.6303 H   0  0  0  0  0  0  0  0  0  0  0  0
  146.7582  143.3779  152.8509 H   0  0  0  0  0  0  0  0  0  0  0  0
  147.5873  141.6324  152.8638 H   0  0  0  0  0  0  0  0  0  0  0  0
  148.8059  142.1819  153.9944 H   0  0  0  0  0  0  0  0  0  0  0  0
  148.9076  139.7172  152.8318 H   0  0  0  0  0  0  0  0  0  0  0  0
  149.4221  139.9225  154.5004 H   0  0  0  0  0  0  0  0  0  0  0  0
  147.1043  138.4023  153.5718 H   0  0  0  0  0  0  0  0  0  0  0  0
  147.7441  138.5550  155.2016 H   0  0  0  0  0  0  0  0  0  0  0  0
  145.7016  139.7230  155.5532 H   0  0  0  0  0  0  0  0  0  0  0  0
  145.5936  140.1217  153.8498 H   0  0  0  0  0  0  0  0  0  0  0  0
  1  2  2  0  0  0  0
  2  3  1  0  0  0  0
  2 10  1  0  0  0  0
  3  4  1  0  0  0  0
  3 23  1  0  0  0  0
  3 24  1  0  0  0  0
  4  9  1  0  0  0  0
  4  5  2  0  0  0  0
  5  6  1  0  0  0  0
  5 25  1  0  0  0  0
  6  7  1  0  0  0  0
  6 26  1  0  0  0  0
  6 27  1  0  0  0  0
  7  8  1  0  0  0  0
  7 28  1  0  0  0  0
  7 29  1  0  0  0  0
  8  9  1  0  0  0  0
  8 30  1  0  0  0  0
  8 31  1  0  0  0  0
  9 32  1  0  0  0  0
  9 33  1  0  0  0  0
 10 11  1  0  0  0  0
 10 34  1  0  0  0  0
 11 12  1  0  0  0  0
 11 35  1  0  0  0  0
 11 36  1  0  0  0  0
 12 22  1  0  0  0  0
 12 13  1  0  0  0  0
 12 19  1  0  0  0  0
 13 18  1  0  0  0  0
 13 14  2  0  0  0  0
 14 15  1  0  0  0  0
 14 37  1  0  0  0  0
 15 16  2  0  0  0  0
 15 38  1  0  0  0  0
 16 17  1  0  0  0  0
 17 18  2  0  0  0  0
 17 39  1  0  0  0  0
 18 40  1  0  0  0  0
 19 20  1  0  0  0  0
 19 41  1  0  0  0  0
 19 42  1  0  0  0  0
 20 21  1  0  0  0  0
 20 43  1  0  0  0  0
 20 44  1  0  0  0  0
 21 22  1  0  0  0  0
 21 45  1  0  0  0  0
 21 46  1  0  0  0  0
 22 47  1  0  0  0  0
 22 48  1  0  0  0  0
M  END
> <s_m_source_file>
AV-unprocessed.smi

> <i_m_source_file_index>
2846

> <i_lp_mmshare_version>
43012

> <i_f3d_flags>
0

> <s_epik_input>
W0NIMl0xW0NIMl1bQ0gyXVtDSDJdW0NIXT1DMVtDSDJdQyg9TylbTkhdW0NIMl1DMihbQ0gyXVtDSDJdW0NIMl1bQ0gyXTIpYzNbY0hdW2NIXW5bY0hdW2NIXTM=

> <s_epik_cmdline>
J2VwaWtfcHl0aG9uJywgJy1waCcsICc3LjAnLCAnLXRuJywgJzgnLCAnLW1hJywgJzIwMCcsICctbWV0YWxfYmluZGluZycsICctaW1hZScsICc8aW5maWxlLm1hZT4nLCAnLW9tYWUnLCAnPG91dGZpbGUubWFlPic=

> <r_epik_Ionization_Penalty>
0.0617419

> <r_epik_Ionization_Penalty_Charging>
0

> <r_epik_Ionization_Penalty_Neutral>
0.0617419

> <r_epik_State_Penalty>
0.0536117

> <r_epik_Charging_Adjusted_Penalty>
0.0536117

> <i_epik_Tot_Q>
0

> <i_epik_Tot_abs_Q>
0

> <r_epik_Metal_State_Penalty>
0.0485218

> <b_epik_Metal_Only>
0

> <s_lp_Force_Field>
OPLS_2005

> <r_lp_Energy>
29.944

> <b_lp_Chiralities_Consistent>
1

> <s_lp_Variant>
AV-unprocessed.smi:2846-1

> <Gold.Version>
5.8.1

> <Gold.Id.Protein>
6NUR|6NUR_protein|mol2

> <Gold.PLP.Fitness>
48.6958

> <Gold.PLP.PLP>
-48.0101

> <Gold.PLP.part.hbond>
-1.0000

> <Gold.PLP.part.metal>
0.0000

> <Gold.PLP.part.buried>
-5.0675

> <Gold.PLP.part.nonpolar>
-42.7520

> <Gold.PLP.part.repulsive>
0.1559

> <Gold.PLP.ligand.clash>
0.0000

> <Gold.PLP.ligand.torsion>
1.2254

> <Gold.PLP.Chemscore.Hbond>
1.0000

> <Gold.PLP.Chemscore.CHOScore>
0.0000

> <Gold.PLP.Chemscore.Metal>
0.0000

> <Gold.Chemscore.Hbonds>
donor molecule, donor type, donor heavy atom, donor atom, acceptor molecule, acceptor atom, score
      L1  H    10    34       P1  8028  1.00

> <Gold.PLP.Chemscore.Internal.Correction>
0.1365

> <Gold.Rescore>
     Score         DG    S(hbond)    S(metal)    S(lipo)     H(rot)  DE(clash)    DE(int)     intcor
     19.79     -21.37       0.98        0.00     137.94       1.38       0.73       0.85       ----

> <Gold.Chemscore.Fitness>
19.7911

> <Gold.Chemscore.DG>
-21.3685

> <Gold.Chemscore.ZeroCoef>
-5.4800

> <Gold.Chemscore.Hbond>
0.9820

> <Gold.Chemscore.Metal>
0.0000

> <Gold.Chemscore.Lipo>
137.9373

> <Gold.Chemscore.Internal_Hbond>
0.0000

> <Gold.Chemscore.DEClash>
0.7286

> <Gold.Chemscore.DEInternal>
0.8487

> <Gold.Chemscore.Rot>
1.3789

> <Gold.Chemscore.Internal.Correction>
   9.000000E+99

> <Gold.Chemscore.Hbonds>
donor molecule, donor type, donor heavy atom, donor atom, acceptor molecule, acceptor atom, score
      L1  H    10    34       P1  8028  0.98

> <Gold.Chemscore.Hbond.Weighted>
-3.2798

> <Gold.Chemscore.Metal.Weighted>
-0.0000

> <Gold.Chemscore.Lipo.Weighted>
-16.1387

> <Gold.Chemscore.Internal_Hbond.Weighted>
0.0000

> <Gold.Chemscore.DEClash.Weighted>
0.7286

> <Gold.Chemscore.DEInternal.Weighted>
0.8487

> <Gold.Chemscore.Rot.Weighted>
3.5299

> <Gold.Chemscore.Internal.Correction.Weighted>
   9.000000E+99

> <Gold.Protein.RotatedTorsions>
[ 6907 6896 6895 6894 ] final  125.70 input  -60.11 | X-H torsion
[ 7974 7965 7964 7962 ] final  -75.81 input  175.53 | X-H torsion
[ 8008 7997 7996 7995 ] final   36.54 input   59.86 | X-H torsion
[ 10167 10162 10161 10158 ] final  -43.89 input  -65.29 | X-H torsion
[ 10718 10713 10712 10709 ] final -122.79 input   66.30 | X-H torsion
[ 10763 10752 10751 10750 ] final  100.34 input  -60.55 | X-H torsion
[ 11005 11000 10999 10996 ] final   29.47 input  -57.11 | X-H torsion

> <Gold.Protein.ActiveResidues>
 VAL166  LYS551  ARG553  GLY616  TRP617  ASP618  TYR619  PRO620  LYS621  CYS622 
 ASP623  PHE694  ASN695  SER759  ASP760  ASP761  ALA762  ILE779  LEU786  VAL792 
 PHE793  MET794  SER795  GLU796  ALA797  LYS798  CYS799  TRP800  GLU811  SER814 

> <Gold.Protein.RotatedAtoms>
  152.3969  133.6760  159.6283 H   0  0  0  0  0  0  0  0  0  0  0  0  # atno 6907 bound_to 6896
  150.7867  133.8858  159.3308 H   0  0  0  0  0  0  0  0  0  0  0  0  # atno 6908 bound_to 6896
  151.6633  135.0988  160.0235 H   0  0  0  0  0  0  0  0  0  0  0  0  # atno 6909 bound_to 6896
  145.6211  140.9363  143.1138 H   0  0  0  0  0  0  0  0  0  0  0  0  # atno 7974 bound_to 7965
  155.1891  140.3306  155.4362 H   0  0  0  0  0  0  0  0  0  0  0  0  # atno 8008 bound_to 7997
  156.2449  140.1913  156.6934 H   0  0  0  0  0  0  0  0  0  0  0  0  # atno 8009 bound_to 7997
  154.6218  140.0594  156.9611 H   0  0  0  0  0  0  0  0  0  0  0  0  # atno 8010 bound_to 7997
  140.6917  143.2959  151.3416 H   0  0  0  0  0  0  0  0  0  0  0  0  # atno 10167 bound_to 10162
  156.1448  130.6492  150.9826 H   0  0  0  0  0  0  0  0  0  0  0  0  # atno 10718 bound_to 10713
  153.3128  135.4082  155.1350 H   0  0  0  0  0  0  0  0  0  0  0  0  # atno 10763 bound_to 10752
  154.8580  135.3568  154.5701 H   0  0  0  0  0  0  0  0  0  0  0  0  # atno 10764 bound_to 10752
  153.6131  135.7067  153.5398 H   0  0  0  0  0  0  0  0  0  0  0  0  # atno 10765 bound_to 10752
  140.3046  134.2718  155.7746 H   0  0  0  0  0  0  0  0  0  0  0  0  # atno 11005 bound_to 11000
  144.7231  139.7965  143.7375 LP  0  0  0  0  0  0  0  0  0  0  0  0  # atno 17320 bound_to 7965
  146.1430  139.4492  143.0096 LP  0  0  0  0  0  0  0  0  0  0  0  0  # atno 17321 bound_to 7965
  139.6328  144.0689  152.2490 LP  0  0  0  0  0  0  0  0  0  0  0  0  # atno 17342 bound_to 10162
  140.0169  144.6182  150.7600 LP  0  0  0  0  0  0  0  0  0  0  0  0  # atno 17343 bound_to 10162
  157.6607  131.0881  150.7845 LP  0  0  0  0  0  0  0  0  0  0  0  0  # atno 17370 bound_to 10713
  156.7917  130.4892  149.5384 LP  0  0  0  0  0  0  0  0  0  0  0  0  # atno 17371 bound_to 10713
  141.2121  133.7668  156.9817 LP  0  0  0  0  0  0  0  0  0  0  0  0  # atno 17394 bound_to 11000
  140.1079  134.9495  157.2021 LP  0  0  0  0  0  0  0  0  0  0  0  0  # atno 17395 bound_to 11000

$$$$
