AV-unprocessed.smi:2074|AV-procd|sdf|8454|dock3
  -GOLD-   2272011153D 1   1.00000     0.00000
 Structure written by MMmdl.
 44 45  0  0  0  0  0  0  0  0  2 V2000
  146.1917  131.7363  149.2307 C   0  0  0  0  0  0  0  0  0  0  0  0
  144.9796  132.2489  149.9546 C   0  0  0  0  0  0  0  0  0  0  0  0
  143.7962  131.7273  149.6799 N   0  0  0  0  0  0  0  0  0  0  0  0
  142.8818  132.3980  150.4976 O   0  0  0  0  0  0  0  0  0  0  0  0
  143.5589  133.3077  151.2427 C   0  0  0  0  0  0  0  0  0  0  0  0
  142.7492  134.1290  152.1881 C   0  0  0  0  0  0  0  0  0  0  0  0
  144.8947  133.2668  150.9488 C   0  0  0  0  0  0  0  0  0  0  0  0
  146.0097  134.0949  151.5353 C   0  0  0  0  0  0  0  0  0  0  0  0
  146.9394  133.1990  152.3541 C   0  0  0  0  0  0  0  0  0  0  0  0
  146.5992  132.0513  152.6391 O   0  0  0  0  0  0  0  0  0  0  0  0
  148.1143  133.7321  152.7188 N   0  0  0  0  0  0  0  0  0  0  0  0
  149.1508  133.0251  153.4611 C   0  0  0  0  0  0  0  0  0  0  0  0
  149.7991  133.9160  154.5544 C   0  0  2  0  0  0  0  0  0  0  0  0
  149.4672  133.3619  155.9609 C   0  0  0  0  0  0  0  0  0  0  0  0
  149.4063  135.3614  154.4535 N   0  3  0  0  0  0  0  0  0  0  0  0
  148.0662  135.6371  155.0421 C   0  0  0  0  0  0  0  0  0  0  0  0
  147.6677  137.1108  154.8603 C   0  0  0  0  0  0  0  0  0  0  0  0
  148.6479  137.9430  155.4603 O   0  0  0  0  0  0  0  0  0  0  0  0
  149.9135  137.7812  154.8388 C   0  0  0  0  0  0  0  0  0  0  0  0
  150.3976  136.3295  155.0016 C   0  0  0  0  0  0  0  0  0  0  0  0
  147.1096  131.9860  149.7623 H   0  0  0  0  0  0  0  0  0  0  0  0
  146.2602  132.1671  148.2317 H   0  0  0  0  0  0  0  0  0  0  0  0
  146.1602  130.6513  149.1252 H   0  0  0  0  0  0  0  0  0  0  0  0
  143.3816  134.5893  152.9475 H   0  0  0  0  0  0  0  0  0  0  0  0
  142.0063  133.5150  152.6974 H   0  0  0  0  0  0  0  0  0  0  0  0
  142.2262  134.9241  151.6568 H   0  0  0  0  0  0  0  0  0  0  0  0
  146.5888  134.5981  150.7605 H   0  0  0  0  0  0  0  0  0  0  0  0
  145.6188  134.8852  152.1775 H   0  0  0  0  0  0  0  0  0  0  0  0
  148.3112  134.6832  152.4428 H   0  0  0  0  0  0  0  0  0  0  0  0
  148.6655  132.1528  153.8995 H   0  0  0  0  0  0  0  0  0  0  0  0
  149.9169  132.6644  152.7720 H   0  0  0  0  0  0  0  0  0  0  0  0
  150.8796  133.8584  154.4108 H   0  0  0  0  0  0  0  0  0  0  0  0
  149.7334  132.3101  156.0617 H   0  0  0  0  0  0  0  0  0  0  0  0
  148.4018  133.4498  156.1753 H   0  0  0  0  0  0  0  0  0  0  0  0
  150.0094  133.8743  156.7534 H   0  0  0  0  0  0  0  0  0  0  0  0
  147.2969  135.0224  154.5796 H   0  0  0  0  0  0  0  0  0  0  0  0
  148.0762  135.3871  156.1044 H   0  0  0  0  0  0  0  0  0  0  0  0
  147.5533  137.3587  153.8035 H   0  0  0  0  0  0  0  0  0  0  0  0
  146.7060  137.3007  155.3372 H   0  0  0  0  0  0  0  0  0  0  0  0
  149.8522  138.0553  153.7843 H   0  0  0  0  0  0  0  0  0  0  0  0
  150.6227  138.4669  155.3028 H   0  0  0  0  0  0  0  0  0  0  0  0
  150.5799  136.1108  156.0550 H   0  0  0  0  0  0  0  0  0  0  0  0
  151.3502  136.2495  154.4792 H   0  0  0  0  0  0  0  0  0  0  0  0
  149.3397  135.5672  153.4668 H   0  0  0  0  0  0  0  0  0  0  0  0
  1  2  1  0  0  0  0
  1 21  1  0  0  0  0
  1 22  1  0  0  0  0
  1 23  1  0  0  0  0
  2  7  1  0  0  0  0
  2  3  2  0  0  0  0
  3  4  1  0  0  0  0
  4  5  1  0  0  0  0
  5  6  1  0  0  0  0
  5  7  2  0  0  0  0
  6 24  1  0  0  0  0
  6 25  1  0  0  0  0
  6 26  1  0  0  0  0
  7  8  1  0  0  0  0
  8  9  1  0  0  0  0
  8 27  1  0  0  0  0
  8 28  1  0  0  0  0
  9 10  2  0  0  0  0
  9 11  1  0  0  0  0
 11 12  1  0  0  0  0
 11 29  1  0  0  0  0
 12 13  1  0  0  0  0
 12 30  1  0  0  0  0
 12 31  1  0  0  0  0
 13 14  1  0  0  0  0
 13 15  1  0  0  0  0
 13 32  1  0  0  0  0
 14 33  1  0  0  0  0
 14 34  1  0  0  0  0
 14 35  1  0  0  0  0
 15 20  1  0  0  0  0
 15 16  1  0  0  0  0
 15 44  1  0  0  0  0
 16 17  1  0  0  0  0
 16 36  1  0  0  0  0
 16 37  1  0  0  0  0
 17 18  1  0  0  0  0
 17 38  1  0  0  0  0
 17 39  1  0  0  0  0
 18 19  1  0  0  0  0
 19 20  1  0  0  0  0
 19 40  1  0  0  0  0
 19 41  1  0  0  0  0
 20 42  1  0  0  0  0
 20 43  1  0  0  0  0
M  CHG  1  15   1
M  END
> <s_m_source_file>
AV-unprocessed.smi

> <i_m_source_file_index>
2074

> <i_lp_mmshare_version>
43012

> <i_f3d_flags>
0

> <s_epik_input>
W0NIM11jMW5vYyhbQ0gzXSljMVtDSDJdQyg9TylbTkhdW0NIMl1bQ0BIXShbQ0gzXSlOMltDSDJdW0NIMl1PW0NIMl1bQ0gyXTI=

> <s_epik_cmdline>
J2VwaWtfcHl0aG9uJywgJy1waCcsICc3LjAnLCAnLXRuJywgJzgnLCAnLW1hJywgJzIwMCcsICctbWV0YWxfYmluZGluZycsICctaW1hZScsICc8aW5maWxlLm1hZT4nLCAnLW9tYWUnLCAnPG91dGZpbGUubWFlPic=

> <r_epik_Ionization_Penalty>
0.663207

> <r_epik_Ionization_Penalty_Charging>
0.663207

> <r_epik_Ionization_Penalty_Neutral>
1.0751e-07

> <r_epik_State_Penalty>
0.682743

> <r_epik_Charging_Adjusted_Penalty>
1.34595

> <i_epik_Tot_Q>
1

> <i_epik_Tot_abs_Q>
1

> <r_epik_Metal_State_Penalty>
0.682743

> <b_epik_Metal_Only>
0

> <s_lp_Force_Field>
OPLS_2005

> <r_lp_Energy>
15.5823

> <b_lp_Chiralities_Consistent>
1

> <s_lp_Variant>
AV-unprocessed.smi:2074-3

> <Gold.Version>
5.8.1

> <Gold.Id.Protein>
6NUR|6NUR_protein|mol2

> <Gold.PLP.Fitness>
39.5208

> <Gold.PLP.PLP>
-30.7483

> <Gold.PLP.part.hbond>
-3.0000

> <Gold.PLP.part.metal>
0.0000

> <Gold.PLP.part.buried>
-4.9586

> <Gold.PLP.part.nonpolar>
-25.2161

> <Gold.PLP.part.repulsive>
2.0320

> <Gold.PLP.ligand.clash>
0.0000

> <Gold.PLP.ligand.torsion>
1.4562

> <Gold.PLP.Chemscore.Hbond>
3.8564

> <Gold.PLP.Chemscore.CHOScore>
0.0000

> <Gold.PLP.Chemscore.Metal>
0.0000

> <Gold.Chemscore.Hbonds>
donor molecule, donor type, donor heavy atom, donor atom, acceptor molecule, acceptor atom, score
      L1  H    11    29       P1  7948  1.00
      L1  H    15    44       P1  7948  2.00
      P1  H 10785 10796       L1     3  0.85

> <Gold.PLP.Chemscore.Internal.Correction>
0.1156

> <Gold.Rescore>
     Score         DG    S(hbond)    S(metal)    S(lipo)     H(rot)  DE(clash)    DE(int)     intcor
     13.68     -15.77       1.87        0.00      73.89       1.80       0.41       1.68       ----

> <Gold.Chemscore.Fitness>
13.6821

> <Gold.Chemscore.DG>
-15.7730

> <Gold.Chemscore.ZeroCoef>
-5.4800

> <Gold.Chemscore.Hbond>
1.8699

> <Gold.Chemscore.Metal>
0.0000

> <Gold.Chemscore.Lipo>
73.8945

> <Gold.Chemscore.Internal_Hbond>
0.0000

> <Gold.Chemscore.DEClash>
0.4095

> <Gold.Chemscore.DEInternal>
1.6814

> <Gold.Chemscore.Rot>
1.7961

> <Gold.Chemscore.Internal.Correction>
   9.000000E+99

> <Gold.Chemscore.Hbonds>
donor molecule, donor type, donor heavy atom, donor atom, acceptor molecule, acceptor atom, score
      L1  H    11    29       P1  7948  0.26
      L1  H    15    44       P1  7948  0.30
      P1  H 10785 10796       L1     3  0.80

> <Gold.Chemscore.Hbond.Weighted>
-6.2454

> <Gold.Chemscore.Metal.Weighted>
-0.0000

> <Gold.Chemscore.Lipo.Weighted>
-8.6457

> <Gold.Chemscore.Internal_Hbond.Weighted>
0.0000

> <Gold.Chemscore.DEClash.Weighted>
0.4095

> <Gold.Chemscore.DEInternal.Weighted>
1.6814

> <Gold.Chemscore.Rot.Weighted>
4.5980

> <Gold.Chemscore.Internal.Correction.Weighted>
   9.000000E+99

> <Gold.Protein.RotatedTorsions>
[ 6907 6896 6895 6894 ] final  111.26 input  -60.11 | X-H torsion
[ 7974 7965 7964 7962 ] final -166.43 input  175.53 | X-H torsion
[ 8008 7997 7996 7995 ] final  -90.60 input   59.86 | X-H torsion
[ 10167 10162 10161 10158 ] final   95.32 input  -65.29 | X-H torsion
[ 10718 10713 10712 10709 ] final -140.51 input   66.30 | X-H torsion
[ 10763 10752 10751 10750 ] final  -34.42 input  -60.55 | X-H torsion
[ 11005 11000 10999 10996 ] final  -49.21 input  -57.11 | X-H torsion

> <Gold.Protein.ActiveResidues>
 VAL166  LYS551  ARG553  GLY616  TRP617  ASP618  TYR619  PRO620  LYS621  CYS622 
 ASP623  PHE694  ASN695  SER759  ASP760  ASP761  ALA762  ILE779  LEU786  VAL792 
 PHE793  MET794  SER795  GLU796  ALA797  LYS798  CYS799  TRP800  GLU811  SER814 

> <Gold.Protein.RotatedAtoms>
  152.4978  133.8682  159.7284 H   0  0  0  0  0  0  0  0  0  0  0  0  # atno 6907 bound_to 6896
  150.9176  133.6911  159.2846 H   0  0  0  0  0  0  0  0  0  0  0  0  # atno 6908 bound_to 6896
  151.4299  135.1012  159.9691 H   0  0  0  0  0  0  0  0  0  0  0  0  # atno 6909 bound_to 6896
  144.7245  140.2667  143.6257 H   0  0  0  0  0  0  0  0  0  0  0  0  # atno 7974 bound_to 7965
  154.7005  140.0528  157.0453 H   0  0  0  0  0  0  0  0  0  0  0  0  # atno 8008 bound_to 7997
  155.0691  140.3197  155.4617 H   0  0  0  0  0  0  0  0  0  0  0  0  # atno 8009 bound_to 7997
  156.2758  140.2085  156.5818 H   0  0  0  0  0  0  0  0  0  0  0  0  # atno 8010 bound_to 7997
  139.8000  144.6817  150.9778 H   0  0  0  0  0  0  0  0  0  0  0  0  # atno 10167 bound_to 10162
  156.3231  130.7545  151.1647 H   0  0  0  0  0  0  0  0  0  0  0  0  # atno 10718 bound_to 10713
  153.8465  135.6853  153.4797 H   0  0  0  0  0  0  0  0  0  0  0  0  # atno 10763 bound_to 10752
  153.1423  135.4652  154.9512 H   0  0  0  0  0  0  0  0  0  0  0  0  # atno 10764 bound_to 10752
  154.7822  135.3272  154.7913 H   0  0  0  0  0  0  0  0  0  0  0  0  # atno 10765 bound_to 10752
  141.0746  133.6669  156.3553 H   0  0  0  0  0  0  0  0  0  0  0  0  # atno 11005 bound_to 11000
  145.8082  139.1992  143.2008 LP  0  0  0  0  0  0  0  0  0  0  0  0  # atno 17320 bound_to 7965
  146.0618  140.7962  142.9731 LP  0  0  0  0  0  0  0  0  0  0  0  0  # atno 17321 bound_to 7965
  140.7820  143.4291  151.0722 LP  0  0  0  0  0  0  0  0  0  0  0  0  # atno 17342 bound_to 10162
  139.7964  143.8146  152.3158 LP  0  0  0  0  0  0  0  0  0  0  0  0  # atno 17343 bound_to 10162
  157.7416  131.0502  150.5086 LP  0  0  0  0  0  0  0  0  0  0  0  0  # atno 17370 bound_to 10713
  156.5242  130.4169  149.6235 LP  0  0  0  0  0  0  0  0  0  0  0  0  # atno 17371 bound_to 10713
  140.5600  134.5943  157.5431 LP  0  0  0  0  0  0  0  0  0  0  0  0  # atno 17394 bound_to 11000
  139.9558  134.7537  156.0344 LP  0  0  0  0  0  0  0  0  0  0  0  0  # atno 17395 bound_to 11000

$$$$
