AV-unprocessed.smi:34|AV-procd|sdf|223|dock8
  -GOLD-   2262015543D 1   1.00000     0.00000
 Structure written by MMmdl.
 55 59  0  0  0  0  0  0  0  0  1 V2000
  153.9768  140.1462  159.0725 O   0  0  0  0  0  0  0  0  0  0  0  0
  153.0728  140.8321  158.5945 C   0  0  0  0  0  0  0  0  0  0  0  0
  152.3911  140.4655  157.3654 N   0  0  0  0  0  0  0  0  0  0  0  0
  152.5630  139.3539  156.6119 C   0  0  0  0  0  0  0  0  0  0  0  0
  153.5780  139.2286  155.7174 N   0  0  0  0  0  0  0  0  0  0  0  0
  153.7019  138.1128  154.9936 C   0  0  0  0  0  0  0  0  0  0  0  0
  152.9341  137.0217  155.0074 N   0  0  0  0  0  0  0  0  0  0  0  0
  151.9120  137.1355  155.9035 C   0  0  0  0  0  0  0  0  0  0  0  0
  151.6631  138.2632  156.7362 C   0  0  0  0  0  0  0  0  0  0  0  0
  150.5404  138.0321  157.5193 N   0  0  0  0  0  0  0  0  0  0  0  0
  150.1505  136.8373  157.1664 C   0  0  0  0  0  0  0  0  0  0  0  0
  150.9137  136.2250  156.1967 N   0  0  0  0  0  0  0  0  0  0  0  0
  150.6869  134.8663  155.6011 C   0  0  2  0  0  0  0  0  0  0  0  0
  149.4331  134.3806  155.9851 O   0  0  0  0  0  0  0  0  0  0  0  0
  149.5877  133.1919  156.7558 C   0  0  1  0  0  0  0  0  0  0  0  0
  148.3636  132.2795  156.6107 C   0  0  0  0  0  0  0  0  0  0  0  0
  148.2001  131.9255  155.2467 O   0  0  0  0  0  0  0  0  0  0  0  0
  147.2994  132.5755  154.4840 C   0  0  0  0  0  0  0  0  0  0  0  0
  146.7447  133.6219  154.8258 O   0  0  0  0  0  0  0  0  0  0  0  0
  147.0454  131.8982  153.1796 C   0  0  0  0  0  0  0  0  0  0  0  0
  146.0615  132.4207  152.3081 C   0  0  0  0  0  0  0  0  0  0  0  0
  145.7983  131.8027  151.0701 C   0  0  0  0  0  0  0  0  0  0  0  0
  146.5147  130.6535  150.6889 C   0  0  0  0  0  0  0  0  0  0  0  0
  147.4957  130.1234  151.5471 C   0  0  0  0  0  0  0  0  0  0  0  0
  147.7616  130.7410  152.7849 C   0  0  0  0  0  0  0  0  0  0  0  0
  150.9072  132.5946  156.2652 C   0  0  1  0  0  0  0  0  0  0  0  0
  150.7349  131.9506  155.1086 F   0  0  0  0  0  0  0  0  0  0  0  0
  151.7508  133.8334  156.0288 C   0  0  2  0  0  0  0  0  0  0  0  0
  152.4754  134.1826  157.1955 O   0  0  0  0  0  0  0  0  0  0  0  0
  152.6682  142.1412  159.2078 C   0  0  0  0  0  0  0  0  0  0  0  0
  152.1606  143.1767  158.3911 C   0  0  0  0  0  0  0  0  0  0  0  0
  151.7924  144.4140  158.9543 C   0  0  0  0  0  0  0  0  0  0  0  0
  151.9360  144.6296  160.3376 C   0  0  0  0  0  0  0  0  0  0  0  0
  152.4517  143.6080  161.1572 C   0  0  0  0  0  0  0  0  0  0  0  0
  152.8199  142.3698  160.5953 C   0  0  0  0  0  0  0  0  0  0  0  0
  151.6916  141.1161  157.0389 H   0  0  0  0  0  0  0  0  0  0  0  0
  154.5335  138.0919  154.3048 H   0  0  0  0  0  0  0  0  0  0  0  0
  149.2821  136.3670  157.6044 H   0  0  0  0  0  0  0  0  0  0  0  0
  150.6779  135.0392  154.5241 H   0  0  0  0  0  0  0  0  0  0  0  0
  149.6983  133.4789  157.8018 H   0  0  0  0  0  0  0  0  0  0  0  0
  148.5065  131.3706  157.1963 H   0  0  0  0  0  0  0  0  0  0  0  0
  147.4701  132.7753  156.9927 H   0  0  0  0  0  0  0  0  0  0  0  0
  145.4991  133.3027  152.5791 H   0  0  0  0  0  0  0  0  0  0  0  0
  145.0455  132.2118  150.4127 H   0  0  0  0  0  0  0  0  0  0  0  0
  146.3121  130.1798  149.7398 H   0  0  0  0  0  0  0  0  0  0  0  0
  148.0464  129.2410  151.2562 H   0  0  0  0  0  0  0  0  0  0  0  0
  148.5201  130.3076  153.4200 H   0  0  0  0  0  0  0  0  0  0  0  0
  151.3494  131.8862  156.9670 H   0  0  0  0  0  0  0  0  0  0  0  0
  152.4658  133.6906  155.2179 H   0  0  0  0  0  0  0  0  0  0  0  0
  152.1527  133.6620  157.9153 H   0  0  0  0  0  0  0  0  0  0  0  0
  152.0456  143.0281  157.3271 H   0  0  0  0  0  0  0  0  0  0  0  0
  151.4006  145.1983  158.3236 H   0  0  0  0  0  0  0  0  0  0  0  0
  151.6543  145.5789  160.7687 H   0  0  0  0  0  0  0  0  0  0  0  0
  152.5681  143.7748  162.2180 H   0  0  0  0  0  0  0  0  0  0  0  0
  153.2224  141.6034  161.2417 H   0  0  0  0  0  0  0  0  0  0  0  0
  1  2  2  0  0  0  0
  2  3  1  0  0  0  0
  2 30  1  0  0  0  0
  3  4  1  0  0  0  0
  3 36  1  0  0  0  0
  4  9  1  0  0  0  0
  4  5  2  0  0  0  0
  5  6  1  0  0  0  0
  6  7  2  0  0  0  0
  6 37  1  0  0  0  0
  7  8  1  0  0  0  0
  8 12  1  0  0  0  0
  8  9  2  0  0  0  0
  9 10  1  0  0  0  0
 10 11  2  0  0  0  0
 11 12  1  0  0  0  0
 11 38  1  0  0  0  0
 12 13  1  0  0  0  0
 13 28  1  0  0  0  0
 13 14  1  0  0  0  0
 13 39  1  0  0  0  0
 14 15  1  0  0  0  0
 15 16  1  0  0  0  0
 15 26  1  0  0  0  0
 15 40  1  0  0  0  0
 16 17  1  0  0  0  0
 16 41  1  0  0  0  0
 16 42  1  0  0  0  0
 17 18  1  0  0  0  0
 18 19  2  0  0  0  0
 18 20  1  0  0  0  0
 20 25  1  0  0  0  0
 20 21  2  0  0  0  0
 21 22  1  0  0  0  0
 21 43  1  0  0  0  0
 22 23  2  0  0  0  0
 22 44  1  0  0  0  0
 23 24  1  0  0  0  0
 23 45  1  0  0  0  0
 24 25  2  0  0  0  0
 24 46  1  0  0  0  0
 25 47  1  0  0  0  0
 26 27  1  0  0  0  0
 26 28  1  0  0  0  0
 26 48  1  0  0  0  0
 28 29  1  0  0  0  0
 28 49  1  0  0  0  0
 29 50  1  0  0  0  0
 30 35  1  0  0  0  0
 30 31  2  0  0  0  0
 31 32  1  0  0  0  0
 31 51  1  0  0  0  0
 32 33  2  0  0  0  0
 32 52  1  0  0  0  0
 33 34  1  0  0  0  0
 33 53  1  0  0  0  0
 34 35  2  0  0  0  0
 34 54  1  0  0  0  0
 35 55  1  0  0  0  0
M  END
> <s_m_source_file>
AV-unprocessed.smi

> <i_m_source_file_index>
34

> <i_lp_mmshare_version>
43012

> <i_f3d_flags>
0

> <s_epik_input>
W2NIXTFbY0hdW2NIXVtjSF1bY0hdYzFDKD1PKVtOSF1jKG5bY0hdbjIpYyhjMjMpbltjSF1uM1tDQEBIXTRPW0NASF0oW0NAQEhdKEYpW0NASF00W09IXSlbQ0gyXU9DKD1PKWM1W2NIXVtjSF1bY0hdW2NIXVtjSF01

> <s_epik_cmdline>
J2VwaWtfcHl0aG9uJywgJy1waCcsICc3LjAnLCAnLXRuJywgJzgnLCAnLW1hJywgJzIwMCcsICctbWV0YWxfYmluZGluZycsICctaW1hZScsICc8aW5maWxlLm1hZT4nLCAnLW9tYWUnLCAnPG91dGZpbGUubWFlPic=

> <r_lp_tautomer_probability>
1

> <r_epik_Ionization_Penalty>
0.00257489

> <r_epik_Ionization_Penalty_Charging>
0

> <r_epik_Ionization_Penalty_Neutral>
0.00257489

> <r_epik_State_Penalty>
0.00519398

> <r_epik_Charging_Adjusted_Penalty>
0.00519398

> <i_epik_Tot_Q>
0

> <i_epik_Tot_abs_Q>
0

> <r_epik_Metal_State_Penalty>
0.335891

> <b_epik_Metal_Only>
0

> <s_epik_Chemistry_Notes>
This compound has an ester and may undergo hydrolysis at high or low pH. This compound contains an acetal/aminal-like group ( X-CH(R)-Y where X, Y are N, S, or O) that may be acid/base labile, releasing an aldehyde.

> <s_lp_Force_Field>
OPLS_2005

> <r_lp_Energy>
53.1328

> <b_lp_Chiralities_Consistent>
1

> <s_lp_Variant>
AV-unprocessed.smi:34-9

> <Gold.Version>
5.8.1

> <Gold.Id.Protein>
6NUR|6NUR_protein|mol2

> <Gold.PLP.Fitness>
63.2845

> <Gold.PLP.PLP>
-58.8691

> <Gold.PLP.part.hbond>
-3.2893

> <Gold.PLP.part.metal>
0.0000

> <Gold.PLP.part.buried>
-8.6607

> <Gold.PLP.part.nonpolar>
-46.7856

> <Gold.PLP.part.repulsive>
0.4591

> <Gold.PLP.ligand.clash>
0.0000

> <Gold.PLP.ligand.torsion>
1.7004

> <Gold.PLP.Chemscore.Hbond>
2.5370

> <Gold.PLP.Chemscore.CHOScore>
0.0000

> <Gold.PLP.Chemscore.Metal>
0.0000

> <Gold.Chemscore.Hbonds>
donor molecule, donor type, donor heavy atom, donor atom, acceptor molecule, acceptor atom, score
      P1  H  7997  8008       L1     5  0.44
      P1  H  7997  8010       L1     1  0.59
      P1  H 10752 10765       L1     7  0.26

> <Gold.PLP.Chemscore.Internal.Correction>
0.2053

> <Gold.Rescore>
     Score         DG    S(hbond)    S(metal)    S(lipo)     H(rot)  DE(clash)    DE(int)     intcor
     16.07     -20.82       1.89        0.00     136.63       2.72       0.27       4.47       ----

> <Gold.Chemscore.Fitness>
16.0748

> <Gold.Chemscore.DG>
-20.8166

> <Gold.Chemscore.ZeroCoef>
-5.4800

> <Gold.Chemscore.Hbond>
1.8917

> <Gold.Chemscore.Metal>
0.0000

> <Gold.Chemscore.Lipo>
136.6257

> <Gold.Chemscore.Internal_Hbond>
0.0000

> <Gold.Chemscore.DEClash>
0.2683

> <Gold.Chemscore.DEInternal>
4.4735

> <Gold.Chemscore.Rot>
2.7215

> <Gold.Chemscore.Internal.Correction>
   9.000000E+99

> <Gold.Chemscore.Hbonds>
donor molecule, donor type, donor heavy atom, donor atom, acceptor molecule, acceptor atom, score
      P1  H  7997  8008       L1     5  0.40
      P1  H  7997  8010       L1     1  0.05
      P1  H 10752 10765       L1     7  0.22

> <Gold.Chemscore.Hbond.Weighted>
-6.3184

> <Gold.Chemscore.Metal.Weighted>
-0.0000

> <Gold.Chemscore.Lipo.Weighted>
-15.9852

> <Gold.Chemscore.Internal_Hbond.Weighted>
0.0000

> <Gold.Chemscore.DEClash.Weighted>
0.2683

> <Gold.Chemscore.DEInternal.Weighted>
4.4735

> <Gold.Chemscore.Rot.Weighted>
6.9670

> <Gold.Chemscore.Internal.Correction.Weighted>
   9.000000E+99

> <Gold.Protein.RotatedTorsions>
[ 6907 6896 6895 6894 ] final  128.41 input  -60.11 | X-H torsion
[ 7974 7965 7964 7962 ] final  -10.44 input  175.53 | X-H torsion
[ 8008 7997 7996 7995 ] final    6.25 input   59.86 | X-H torsion
[ 10167 10162 10161 10158 ] final   55.78 input  -65.29 | X-H torsion
[ 10718 10713 10712 10709 ] final   54.79 input   66.30 | X-H torsion
[ 10763 10752 10751 10750 ] final  160.70 input  -60.55 | X-H torsion
[ 11005 11000 10999 10996 ] final  -32.72 input  -57.11 | X-H torsion

> <Gold.Protein.ActiveResidues>
 VAL166  LYS551  ARG553  GLY616  TRP617  ASP618  TYR619  PRO620  LYS621  CYS622 
 ASP623  PHE694  ASN695  SER759  ASP760  ASP761  ALA762  ILE779  LEU786  VAL792 
 PHE793  MET794  SER795  GLU796  ALA797  LYS798  CYS799  TRP800  GLU811  SER814 

> <Gold.Protein.RotatedAtoms>
  152.3722  133.6433  159.6095 H   0  0  0  0  0  0  0  0  0  0  0  0  # atno 6907 bound_to 6896
  150.7677  133.9252  159.3419 H   0  0  0  0  0  0  0  0  0  0  0  0  # atno 6908 bound_to 6896
  151.7073  135.0920  160.0312 H   0  0  0  0  0  0  0  0  0  0  0  0  # atno 6909 bound_to 6896
  146.2220  140.2764  142.8359 H   0  0  0  0  0  0  0  0  0  0  0  0  # atno 7974 bound_to 7965
  154.7386  140.2744  155.6392 H   0  0  0  0  0  0  0  0  0  0  0  0  # atno 8008 bound_to 7997
  156.2868  140.2701  156.2033 H   0  0  0  0  0  0  0  0  0  0  0  0  # atno 8009 bound_to 7997
  155.0287  140.0371  157.2455 H   0  0  0  0  0  0  0  0  0  0  0  0  # atno 8010 bound_to 7997
  140.2158  144.3841  150.6470 H   0  0  0  0  0  0  0  0  0  0  0  0  # atno 10167 bound_to 10162
  157.5288  130.8616  149.8658 H   0  0  0  0  0  0  0  0  0  0  0  0  # atno 10718 bound_to 10713
  154.2516  135.2771  155.2814 H   0  0  0  0  0  0  0  0  0  0  0  0  # atno 10763 bound_to 10752
  154.5460  135.5689  153.6884 H   0  0  0  0  0  0  0  0  0  0  0  0  # atno 10764 bound_to 10752
  152.9979  135.6263  154.2663 H   0  0  0  0  0  0  0  0  0  0  0  0  # atno 10765 bound_to 10752
  140.9575  133.7184  156.1317 H   0  0  0  0  0  0  0  0  0  0  0  0  # atno 11005 bound_to 11000
  144.9229  140.7889  143.5737 LP  0  0  0  0  0  0  0  0  0  0  0  0  # atno 17320 bound_to 7965
  145.2702  139.1957  143.4845 LP  0  0  0  0  0  0  0  0  0  0  0  0  # atno 17321 bound_to 7965
  140.6291  143.2185  151.6535 LP  0  0  0  0  0  0  0  0  0  0  0  0  # atno 17342 bound_to 10162
  139.5162  144.3353  152.0790 LP  0  0  0  0  0  0  0  0  0  0  0  0  # atno 17343 bound_to 10162
  156.0407  130.3740  150.1444 LP  0  0  0  0  0  0  0  0  0  0  0  0  # atno 17370 bound_to 10713
  156.9629  130.9810  151.3475 LP  0  0  0  0  0  0  0  0  0  0  0  0  # atno 17371 bound_to 10713
  140.7515  134.4040  157.5540 LP  0  0  0  0  0  0  0  0  0  0  0  0  # atno 17394 bound_to 11000
  139.8867  134.8902  156.2570 LP  0  0  0  0  0  0  0  0  0  0  0  0  # atno 17395 bound_to 11000

$$$$
