AV-unprocessed.smi:1554|AV-procd|sdf|6261|dock3
  -GOLD-   22720 6443D 1   1.00000     0.00000
 Structure written by MMmdl.
 49 51  0  0  0  0  0  0  0  0  3 V2000
  152.5246  143.6283  161.2129 C   0  0  0  0  0  0  0  0  0  0  0  0
  152.2303  142.8307  159.9540 C   0  0  0  0  0  0  0  0  0  0  0  0
  151.2541  143.3214  159.0576 C   0  0  0  0  0  0  0  0  0  0  0  0
  151.0059  142.5689  157.9158 C   0  0  0  0  0  0  0  0  0  0  0  0
  150.1209  142.7768  156.8555 N   0  3  0  0  0  0  0  0  0  0  0  0
  150.2361  141.7571  155.9599 C   0  0  0  0  0  0  0  0  0  0  0  0
  151.1778  140.8978  156.4368 N   0  0  0  0  0  0  0  0  0  0  0  0
  151.6874  139.6416  155.8709 C   0  0  0  0  0  0  0  0  0  0  0  0
  150.6461  138.9108  155.0003 C   0  0  1  0  0  0  0  0  0  0  0  0
  150.4328  139.6526  153.8152 O   0  0  0  0  0  0  0  0  0  0  0  0
  151.1132  137.4905  154.6247 C   0  0  0  0  0  0  0  0  0  0  0  0
  149.9851  136.5271  154.5050 N   0  3  1  0  0  0  0  0  0  0  0  0
  150.4011  135.1083  154.6233 C   0  0  0  0  0  0  0  0  0  0  0  0
  150.6422  134.7206  156.0931 C   0  0  0  0  0  0  0  0  0  0  0  0
  149.4625  134.9721  156.8468 O   0  0  0  0  0  0  0  0  0  0  0  0
  149.0958  136.3473  156.8452 C   0  0  2  0  0  0  0  0  0  0  0  0
  147.8580  136.5106  157.7340 C   0  0  0  0  0  0  0  0  0  0  0  0
  148.8266  136.8032  155.3941 C   0  0  0  0  0  0  0  0  0  0  0  0
  151.6900  141.3670  157.6510 C   0  0  0  0  0  0  0  0  0  0  0  0
  152.6570  140.8703  158.5213 C   0  0  0  0  0  0  0  0  0  0  0  0
  152.9239  141.6213  159.6885 C   0  0  0  0  0  0  0  0  0  0  0  0
  153.9734  141.1049  160.6579 C   0  0  0  0  0  0  0  0  0  0  0  0
  151.8881  144.5107  161.2844 H   0  0  0  0  0  0  0  0  0  0  0  0
  153.5620  143.9639  161.2186 H   0  0  0  0  0  0  0  0  0  0  0  0
  152.3512  143.0214  162.1019 H   0  0  0  0  0  0  0  0  0  0  0  0
  150.7236  144.2422  159.2525 H   0  0  0  0  0  0  0  0  0  0  0  0
  149.6788  141.6494  155.0401 H   0  0  0  0  0  0  0  0  0  0  0  0
  152.5741  139.8825  155.2827 H   0  0  0  0  0  0  0  0  0  0  0  0
  152.0245  139.0080  156.6923 H   0  0  0  0  0  0  0  0  0  0  0  0
  149.7040  138.8683  155.5449 H   0  0  0  0  0  0  0  0  0  0  0  0
  150.1381  139.0612  153.1392 H   0  0  0  0  0  0  0  0  0  0  0  0
  151.6473  137.5465  153.6747 H   0  0  0  0  0  0  0  0  0  0  0  0
  151.8378  137.1274  155.3533 H   0  0  0  0  0  0  0  0  0  0  0  0
  149.6078  134.4826  154.2121 H   0  0  0  0  0  0  0  0  0  0  0  0
  151.2871  134.9126  154.0184 H   0  0  0  0  0  0  0  0  0  0  0  0
  150.8847  133.6603  156.1652 H   0  0  0  0  0  0  0  0  0  0  0  0
  151.4864  135.2680  156.5151 H   0  0  0  0  0  0  0  0  0  0  0  0
  149.9060  136.9328  157.2818 H   0  0  0  0  0  0  0  0  0  0  0  0
  147.5418  137.5531  157.7791 H   0  0  0  0  0  0  0  0  0  0  0  0
  148.0633  136.1816  158.7530 H   0  0  0  0  0  0  0  0  0  0  0  0
  147.0204  135.9230  157.3570 H   0  0  0  0  0  0  0  0  0  0  0  0
  148.5508  137.8564  155.3681 H   0  0  0  0  0  0  0  0  0  0  0  0
  147.9679  136.2579  154.9997 H   0  0  0  0  0  0  0  0  0  0  0  0
  153.1847  139.9501  158.3187 H   0  0  0  0  0  0  0  0  0  0  0  0
  154.4372  140.1879  160.2935 H   0  0  0  0  0  0  0  0  0  0  0  0
  153.5246  140.8886  161.6277 H   0  0  0  0  0  0  0  0  0  0  0  0
  154.7630  141.8434  160.7976 H   0  0  0  0  0  0  0  0  0  0  0  0
  149.6544  136.6369  153.5564 H   0  0  0  0  0  0  0  0  0  0  0  0
  149.4854  143.5572  156.7475 H   0  0  0  0  0  0  0  0  0  0  0  0
  1  2  1  0  0  0  0
  1 23  1  0  0  0  0
  1 24  1  0  0  0  0
  1 25  1  0  0  0  0
  2 21  1  0  0  0  0
  2  3  2  0  0  0  0
  3  4  1  0  0  0  0
  3 26  1  0  0  0  0
  4 19  2  0  0  0  0
  4  5  1  0  0  0  0
  5  6  2  0  0  0  0
  5 49  1  0  0  0  0
  6  7  1  0  0  0  0
  6 27  1  0  0  0  0
  7  8  1  0  0  0  0
  7 19  1  0  0  0  0
  8  9  1  0  0  0  0
  8 28  1  0  0  0  0
  8 29  1  0  0  0  0
  9 10  1  0  0  0  0
  9 11  1  0  0  0  0
  9 30  1  0  0  0  0
 10 31  1  0  0  0  0
 11 12  1  0  0  0  0
 11 32  1  0  0  0  0
 11 33  1  0  0  0  0
 12 18  1  0  0  0  0
 12 13  1  0  0  0  0
 12 48  1  0  0  0  0
 13 14  1  0  0  0  0
 13 34  1  0  0  0  0
 13 35  1  0  0  0  0
 14 15  1  0  0  0  0
 14 36  1  0  0  0  0
 14 37  1  0  0  0  0
 15 16  1  0  0  0  0
 16 17  1  0  0  0  0
 16 18  1  0  0  0  0
 16 38  1  0  0  0  0
 17 39  1  0  0  0  0
 17 40  1  0  0  0  0
 17 41  1  0  0  0  0
 18 42  1  0  0  0  0
 18 43  1  0  0  0  0
 19 20  1  0  0  0  0
 20 21  2  0  0  0  0
 20 44  1  0  0  0  0
 21 22  1  0  0  0  0
 22 45  1  0  0  0  0
 22 46  1  0  0  0  0
 22 47  1  0  0  0  0
M  CHG  1   5   1
M  CHG  1  12   1
M  END
> <s_m_source_file>
AV-unprocessed.smi

> <i_m_source_file_index>
1554

> <i_lp_mmshare_version>
43012

> <i_f3d_flags>
0

> <s_epik_input>
W0NIM11jKFtjSF0xKWMoW0NIM10pW2NIXWMoYzEyKW4oW2NIXW4yKVtDSDJdW0NASF0oW09IXSlbQ0gyXU4zW0NIMl1bQ0gyXU9bQ0BASF0oW0NIM10pW0NIMl0z

> <s_epik_cmdline>
J2VwaWtfcHl0aG9uJywgJy1waCcsICc3LjAnLCAnLXRuJywgJzgnLCAnLW1hJywgJzIwMCcsICctbWV0YWxfYmluZGluZycsICctaW1hZScsICc8aW5maWxlLm1hZT4nLCAnLW9tYWUnLCAnPG91dGZpbGUubWFlPic=

> <r_epik_Ionization_Penalty>
1.8848

> <r_epik_Ionization_Penalty_Charging>
1.88479

> <r_epik_Ionization_Penalty_Neutral>
1.42224e-05

> <r_epik_State_Penalty>
1.94551

> <r_epik_Charging_Adjusted_Penalty>
3.8303

> <i_epik_Tot_Q>
2

> <i_epik_Tot_abs_Q>
2

> <r_epik_Metal_State_Penalty>
5.95849

> <b_epik_Metal_Only>
0

> <s_lp_Force_Field>
OPLS_2005

> <r_lp_Energy>
31.3767

> <b_lp_Chiralities_Consistent>
1

> <s_lp_Variant>
AV-unprocessed.smi:1554-22

> <Gold.Version>
5.8.1

> <Gold.Id.Protein>
6NUR|6NUR_protein|mol2

> <Gold.PLP.Fitness>
56.3150

> <Gold.PLP.PLP>
-43.1521

> <Gold.PLP.part.hbond>
-4.0000

> <Gold.PLP.part.metal>
0.0000

> <Gold.PLP.part.buried>
-4.1973

> <Gold.PLP.part.nonpolar>
-34.7310

> <Gold.PLP.part.repulsive>
0.0764

> <Gold.PLP.ligand.clash>
0.0000

> <Gold.PLP.ligand.torsion>
1.1168

> <Gold.PLP.Chemscore.Hbond>
5.1235

> <Gold.PLP.Chemscore.CHOScore>
0.0000

> <Gold.PLP.Chemscore.Metal>
0.0000

> <Gold.Chemscore.Hbonds>
donor molecule, donor type, donor heavy atom, donor atom, acceptor molecule, acceptor atom, score
      L1  H     5    49       P1  8028  1.82
      L1  H    10    31       P1  7957  0.14
      L1  H    12    48       P1  7948  2.00
      P1  H  7989  7998       L1    10  1.00

> <Gold.PLP.Chemscore.Internal.Correction>
0.0260

> <Gold.Rescore>
     Score         DG    S(hbond)    S(metal)    S(lipo)     H(rot)  DE(clash)    DE(int)     intcor
     20.49     -22.14       2.81        0.00     108.23       2.11       0.61       1.04       ----

> <Gold.Chemscore.Fitness>
20.4889

> <Gold.Chemscore.DG>
-22.1362

> <Gold.Chemscore.ZeroCoef>
-5.4800

> <Gold.Chemscore.Hbond>
2.8145

> <Gold.Chemscore.Metal>
0.0000

> <Gold.Chemscore.Lipo>
108.2316

> <Gold.Chemscore.Internal_Hbond>
0.0000

> <Gold.Chemscore.DEClash>
0.6075

> <Gold.Chemscore.DEInternal>
1.0398

> <Gold.Chemscore.Rot>
2.1122

> <Gold.Chemscore.Internal.Correction>
   9.000000E+99

> <Gold.Chemscore.Hbonds>
donor molecule, donor type, donor heavy atom, donor atom, acceptor molecule, acceptor atom, score
      L1  H     5    49       P1  8028  0.88
      L1  H    10    31       P1  7957  0.12
      L1  H    12    48       P1  7948  0.60
      P1  H  7989  7998       L1    10  0.86

> <Gold.Chemscore.Hbond.Weighted>
-9.4003

> <Gold.Chemscore.Metal.Weighted>
-0.0000

> <Gold.Chemscore.Lipo.Weighted>
-12.6631

> <Gold.Chemscore.Internal_Hbond.Weighted>
0.0000

> <Gold.Chemscore.DEClash.Weighted>
0.6075

> <Gold.Chemscore.DEInternal.Weighted>
1.0398

> <Gold.Chemscore.Rot.Weighted>
5.4073

> <Gold.Chemscore.Internal.Correction.Weighted>
   9.000000E+99

> <Gold.Protein.RotatedTorsions>
[ 6907 6896 6895 6894 ] final -140.59 input  -60.11 | X-H torsion
[ 7974 7965 7964 7962 ] final  -55.60 input  175.53 | X-H torsion
[ 8008 7997 7996 7995 ] final -167.14 input   59.86 | X-H torsion
[ 10167 10162 10161 10158 ] final  -59.60 input  -65.29 | X-H torsion
[ 10718 10713 10712 10709 ] final  -66.19 input   66.30 | X-H torsion
[ 10763 10752 10751 10750 ] final  -50.29 input  -60.55 | X-H torsion
[ 11005 11000 10999 10996 ] final -178.07 input  -57.11 | X-H torsion

> <Gold.Protein.ActiveResidues>
 VAL166  LYS551  ARG553  GLY616  TRP617  ASP618  TYR619  PRO620  LYS621  CYS622 
 ASP623  PHE694  ASN695  SER759  ASP760  ASP761  ALA762  ILE779  LEU786  VAL792 
 PHE793  MET794  SER795  GLU796  ALA797  LYS798  CYS799  TRP800  GLU811  SER814 

> <Gold.Protein.RotatedAtoms>
  151.0628  133.5530  159.2632 H   0  0  0  0  0  0  0  0  0  0  0  0  # atno 6907 bound_to 6896
  151.2499  135.0618  159.9068 H   0  0  0  0  0  0  0  0  0  0  0  0  # atno 6908 bound_to 6896
  152.5400  134.0389  159.8112 H   0  0  0  0  0  0  0  0  0  0  0  0  # atno 6909 bound_to 6896
  145.8723  140.8207  142.9882 H   0  0  0  0  0  0  0  0  0  0  0  0  # atno 7974 bound_to 7965
  155.8735  140.0997  157.1534 H   0  0  0  0  0  0  0  0  0  0  0  0  # atno 8008 bound_to 7997
  154.3999  140.1342  156.4171 H   0  0  0  0  0  0  0  0  0  0  0  0  # atno 8009 bound_to 7997
  155.7723  140.3460  155.5256 H   0  0  0  0  0  0  0  0  0  0  0  0  # atno 8010 bound_to 7997
  140.6125  143.2391  151.5677 H   0  0  0  0  0  0  0  0  0  0  0  0  # atno 10167 bound_to 10162
  156.0626  130.4258  150.1672 H   0  0  0  0  0  0  0  0  0  0  0  0  # atno 10718 bound_to 10713
  154.1080  135.6553  153.4880 H   0  0  0  0  0  0  0  0  0  0  0  0  # atno 10763 bound_to 10752
  153.0266  135.5241  154.7220 H   0  0  0  0  0  0  0  0  0  0  0  0  # atno 10764 bound_to 10752
  154.6392  135.2986  155.0094 H   0  0  0  0  0  0  0  0  0  0  0  0  # atno 10765 bound_to 10752
  140.4339  134.6494  157.4725 H   0  0  0  0  0  0  0  0  0  0  0  0  # atno 11005 bound_to 11000
  144.6726  140.1257  143.7447 LP  0  0  0  0  0  0  0  0  0  0  0  0  # atno 17320 bound_to 7965
  145.9122  139.2494  143.1430 LP  0  0  0  0  0  0  0  0  0  0  0  0  # atno 17321 bound_to 7965
  139.5372  144.2748  152.1276 LP  0  0  0  0  0  0  0  0  0  0  0  0  # atno 17342 bound_to 10162
  140.1950  144.4714  150.6460 LP  0  0  0  0  0  0  0  0  0  0  0  0  # atno 17343 bound_to 10162
  156.9738  130.9843  151.3453 LP  0  0  0  0  0  0  0  0  0  0  0  0  # atno 17370 bound_to 10713
  157.5646  130.8269  149.8311 LP  0  0  0  0  0  0  0  0  0  0  0  0  # atno 17371 bound_to 10713
  140.0116  134.6682  155.9373 LP  0  0  0  0  0  0  0  0  0  0  0  0  # atno 17394 bound_to 11000
  141.1734  133.6538  156.4737 LP  0  0  0  0  0  0  0  0  0  0  0  0  # atno 17395 bound_to 11000

$$$$
