AV-unprocessed.smi:37|AV-procd|sdf|330|dock2
  -GOLD-   2262016163D 1   1.00000     0.00000
 Structure written by MMmdl.
 43 44  0  0  0  0  0  0  0  0  2 V2000
  146.5499  134.5971  162.5954 C   0  0  0  0  0  0  0  0  0  0  0  0
  147.5293  135.0850  161.5193 C   0  0  0  0  0  0  0  0  0  0  0  0
  147.1842  136.4862  161.0207 C   0  0  0  0  0  0  0  0  0  0  0  0
  147.4233  137.4866  161.6973 O   0  0  0  0  0  0  0  0  0  0  0  0
  146.6115  136.4742  159.8087 O   0  0  0  0  0  0  0  0  0  0  0  0
  146.4916  137.6785  159.0716 C   0  0  0  0  0  0  0  0  0  0  0  0
  147.6365  137.8054  158.0568 C   0  0  1  0  0  0  0  0  0  0  0  0
  148.8631  137.3666  158.6445 O   0  0  0  0  0  0  0  0  0  0  0  0
  149.6293  136.6761  157.7020 C   0  0  2  0  0  0  0  0  0  0  0  0
  150.5270  137.6396  156.9364 N   0  0  0  0  0  0  0  0  0  0  0  0
  150.6146  138.9820  157.2745 C   0  0  0  0  0  0  0  0  0  0  0  0
  151.4149  139.8282  156.5949 C   0  0  0  0  0  0  0  0  0  0  0  0
  151.4716  141.1241  156.9473 F   0  0  0  0  0  0  0  0  0  0  0  0
  152.2221  139.3262  155.4860 C   0  0  0  0  0  0  0  0  0  0  0  0
  152.9210  140.1090  154.8448 O   0  0  0  0  0  0  0  0  0  0  0  0
  152.1657  137.9915  155.2124 N   0  5  0  0  0  0  0  0  0  0  0  0
  151.3707  137.1286  155.9098 C   0  0  0  0  0  0  0  0  0  0  0  0
  151.3527  135.9165  155.6963 O   0  0  0  0  0  0  0  0  0  0  0  0
  148.6046  136.0035  156.7764 C   0  0  1  0  0  0  0  0  0  0  0  0
  148.0049  134.2888  157.5929 Br  0  0  0  0  0  0  0  0  0  0  0  0
  147.4488  136.9992  156.7595 C   0  0  2  0  0  0  0  0  0  0  0  0
  147.5906  137.8878  155.6563 O   0  0  0  0  0  0  0  0  0  0  0  0
  146.8255  138.9899  155.5599 C   0  0  0  0  0  0  0  0  0  0  0  0
  145.9404  139.3257  156.3468 O   0  0  0  0  0  0  0  0  0  0  0  0
  147.1580  139.8301  154.3292 C   0  0  0  0  0  0  0  0  0  0  0  0
  148.5860  140.3926  154.3802 C   0  0  0  0  0  0  0  0  0  0  0  0
  146.8151  133.5936  162.9278 H   0  0  0  0  0  0  0  0  0  0  0  0
  145.5288  134.5602  162.2146 H   0  0  0  0  0  0  0  0  0  0  0  0
  146.5587  135.2467  163.4714 H   0  0  0  0  0  0  0  0  0  0  0  0
  148.5447  135.0942  161.9162 H   0  0  0  0  0  0  0  0  0  0  0  0
  147.5260  134.3966  160.6739 H   0  0  0  0  0  0  0  0  0  0  0  0
  145.5330  137.6880  158.5511 H   0  0  0  0  0  0  0  0  0  0  0  0
  146.5023  138.5326  159.7503 H   0  0  0  0  0  0  0  0  0  0  0  0
  147.7363  138.8645  157.8175 H   0  0  0  0  0  0  0  0  0  0  0  0
  150.3208  135.9838  158.1850 H   0  0  0  0  0  0  0  0  0  0  0  0
  150.0490  139.3807  158.1013 H   0  0  0  0  0  0  0  0  0  0  0  0
  148.9999  135.7669  155.7894 H   0  0  0  0  0  0  0  0  0  0  0  0
  146.4790  136.5010  156.7206 H   0  0  0  0  0  0  0  0  0  0  0  0
  147.0398  139.2081  153.4414 H   0  0  0  0  0  0  0  0  0  0  0  0
  146.4361  140.6425  154.2455 H   0  0  0  0  0  0  0  0  0  0  0  0
  148.8370  140.8914  153.4444 H   0  0  0  0  0  0  0  0  0  0  0  0
  149.3221  139.6041  154.5425 H   0  0  0  0  0  0  0  0  0  0  0  0
  148.6967  141.1240  155.1810 H   0  0  0  0  0  0  0  0  0  0  0  0
  1  2  1  0  0  0  0
  1 27  1  0  0  0  0
  1 28  1  0  0  0  0
  1 29  1  0  0  0  0
  2  3  1  0  0  0  0
  2 30  1  0  0  0  0
  2 31  1  0  0  0  0
  3  4  2  0  0  0  0
  3  5  1  0  0  0  0
  5  6  1  0  0  0  0
  6  7  1  0  0  0  0
  6 32  1  0  0  0  0
  6 33  1  0  0  0  0
  7 21  1  0  0  0  0
  7  8  1  0  0  0  0
  7 34  1  0  0  0  0
  8  9  1  0  0  0  0
  9 10  1  0  0  0  0
  9 19  1  0  0  0  0
  9 35  1  0  0  0  0
 10 17  1  0  0  0  0
 10 11  1  0  0  0  0
 11 12  2  0  0  0  0
 11 36  1  0  0  0  0
 12 13  1  0  0  0  0
 12 14  1  0  0  0  0
 14 15  2  0  0  0  0
 14 16  1  0  0  0  0
 16 17  1  0  0  0  0
 17 18  2  0  0  0  0
 19 20  1  0  0  0  0
 19 21  1  0  0  0  0
 19 37  1  0  0  0  0
 21 22  1  0  0  0  0
 21 38  1  0  0  0  0
 22 23  1  0  0  0  0
 23 24  2  0  0  0  0
 23 25  1  0  0  0  0
 25 26  1  0  0  0  0
 25 39  1  0  0  0  0
 25 40  1  0  0  0  0
 26 41  1  0  0  0  0
 26 42  1  0  0  0  0
 26 43  1  0  0  0  0
M  CHG  1  16  -1
M  END
> <s_m_source_file>
AV-unprocessed.smi

> <i_m_source_file_index>
37

> <i_lp_mmshare_version>
43012

> <i_f3d_flags>
0

> <s_epik_input>
W0NIM11bQ0gyXUMoPU8pT1tDSDJdW0NAQEhdMU9bQ0BASF0objJbY0hdYyhGKWMoPU8pW25IXWMyPU8pW0NAQEhdKEJyKVtDQEhdMU9DKD1PKVtDSDJdW0NIM10=

> <s_epik_cmdline>
J2VwaWtfcHl0aG9uJywgJy1waCcsICc3LjAnLCAnLXRuJywgJzgnLCAnLW1hJywgJzIwMCcsICctbWV0YWxfYmluZGluZycsICctaW1hZScsICc8aW5maWxlLm1hZT4nLCAnLW9tYWUnLCAnPG91dGZpbGUubWFlPic=

> <r_epik_Ionization_Penalty>
1.08158

> <r_epik_Ionization_Penalty_Charging>
9.05154e-09

> <r_epik_Ionization_Penalty_Neutral>
1.08158

> <r_epik_State_Penalty>
1.13706

> <r_epik_Charging_Adjusted_Penalty>
1.13706

> <i_epik_Tot_Q>
-1

> <i_epik_Tot_abs_Q>
1

> <r_epik_Metal_State_Penalty>
0.00343535

> <b_epik_Metal_Only>
0

> <s_epik_Chemistry_Notes>
This compound has an ester and may undergo hydrolysis at high or low pH. This compound contains an acetal/aminal-like group ( X-CH(R)-Y where X, Y are N, S, or O) that may be acid/base labile, releasing an aldehyde.

> <s_lp_Force_Field>
OPLS_2005

> <r_lp_Energy>
28.0261

> <b_lp_Chiralities_Consistent>
1

> <s_lp_Variant>
AV-unprocessed.smi:37-28

> <Gold.Version>
5.8.1

> <Gold.Id.Protein>
6NUR|6NUR_protein|mol2

> <Gold.PLP.Fitness>
38.9063

> <Gold.PLP.PLP>
-28.1172

> <Gold.PLP.part.hbond>
-5.6219

> <Gold.PLP.part.metal>
0.0000

> <Gold.PLP.part.buried>
-3.2724

> <Gold.PLP.part.nonpolar>
-19.2102

> <Gold.PLP.part.repulsive>
0.2189

> <Gold.PLP.ligand.clash>
0.0000

> <Gold.PLP.ligand.torsion>
0.8808

> <Gold.PLP.Chemscore.Hbond>
4.1260

> <Gold.PLP.Chemscore.CHOScore>
0.0000

> <Gold.PLP.Chemscore.Metal>
0.0000

> <Gold.Chemscore.Hbonds>
donor molecule, donor type, donor heavy atom, donor atom, acceptor molecule, acceptor atom, score
      P1  H  6931  6943       L1     4  0.77
      P1  H  6934  6947       L1     4  0.75
      P1  H  7989  7998       L1    15  0.32
      P1  H  7997  8009       L1    15  0.85
      P1  H 10752 10763       L1    18  1.00

> <Gold.PLP.Chemscore.Internal.Correction>
0.1726

> <Gold.Rescore>
     Score         DG    S(hbond)    S(metal)    S(lipo)     H(rot)  DE(clash)    DE(int)     intcor
      8.57     -10.63       2.62        0.00      40.61       3.27       0.00       2.06       ----

> <Gold.Chemscore.Fitness>
8.5685

> <Gold.Chemscore.DG>
-10.6255

> <Gold.Chemscore.ZeroCoef>
-5.4800

> <Gold.Chemscore.Hbond>
2.6219

> <Gold.Chemscore.Metal>
0.0000

> <Gold.Chemscore.Lipo>
40.6140

> <Gold.Chemscore.Internal_Hbond>
0.0000

> <Gold.Chemscore.DEClash>
0.0000

> <Gold.Chemscore.DEInternal>
2.0570

> <Gold.Chemscore.Rot>
3.2669

> <Gold.Chemscore.Internal.Correction>
   9.000000E+99

> <Gold.Chemscore.Hbonds>
donor molecule, donor type, donor heavy atom, donor atom, acceptor molecule, acceptor atom, score
      P1  H  6931  6943       L1     4  0.78
      P1  H  6934  6947       L1     4  0.71
      P1  H  7989  7998       L1    15  0.16
      P1  H  7997  8009       L1    15  0.14
      P1  H 10752 10763       L1    18  0.55

> <Gold.Chemscore.Hbond.Weighted>
-8.7570

> <Gold.Chemscore.Metal.Weighted>
-0.0000

> <Gold.Chemscore.Lipo.Weighted>
-4.7518

> <Gold.Chemscore.Internal_Hbond.Weighted>
0.0000

> <Gold.Chemscore.DEClash.Weighted>
0.0000

> <Gold.Chemscore.DEInternal.Weighted>
2.0570

> <Gold.Chemscore.Rot.Weighted>
8.3634

> <Gold.Chemscore.Internal.Correction.Weighted>
   9.000000E+99

> <Gold.Protein.RotatedTorsions>
[ 6907 6896 6895 6894 ] final  152.74 input  -60.11 | X-H torsion
[ 7974 7965 7964 7962 ] final -110.15 input  175.53 | X-H torsion
[ 8008 7997 7996 7995 ] final -148.26 input   59.86 | X-H torsion
[ 10167 10162 10161 10158 ] final    8.61 input  -65.29 | X-H torsion
[ 10718 10713 10712 10709 ] final   67.30 input   66.30 | X-H torsion
[ 10763 10752 10751 10750 ] final   67.82 input  -60.55 | X-H torsion
[ 11005 11000 10999 10996 ] final -132.58 input  -57.11 | X-H torsion

> <Gold.Protein.ActiveResidues>
 VAL166  LYS551  ARG553  GLY616  TRP617  ASP618  TYR619  PRO620  LYS621  CYS622 
 ASP623  PHE694  ASN695  SER759  ASP760  ASP761  ALA762  ILE779  LEU786  VAL792 
 PHE793  MET794  SER795  GLU796  ALA797  LYS798  CYS799  TRP800  GLU811  SER814 

> <Gold.Protein.RotatedAtoms>
  152.0826  133.4160  159.4507 H   0  0  0  0  0  0  0  0  0  0  0  0  # atno 6907 bound_to 6896
  150.6862  134.2965  159.4697 H   0  0  0  0  0  0  0  0  0  0  0  0  # atno 6908 bound_to 6896
  152.0808  134.9472  160.0624 H   0  0  0  0  0  0  0  0  0  0  0  0  # atno 6909 bound_to 6896
  145.1718  140.8929  143.3531 H   0  0  0  0  0  0  0  0  0  0  0  0  # atno 7974 bound_to 7965
  155.5887  140.0650  157.2764 H   0  0  0  0  0  0  0  0  0  0  0  0  # atno 8008 bound_to 7997
  154.4311  140.1839  156.1099 H   0  0  0  0  0  0  0  0  0  0  0  0  # atno 8009 bound_to 7997
  156.0249  140.3313  155.7081 H   0  0  0  0  0  0  0  0  0  0  0  0  # atno 8010 bound_to 7997
  140.6304  143.8006  150.7288 H   0  0  0  0  0  0  0  0  0  0  0  0  # atno 10167 bound_to 10162
  157.6222  130.9313  150.0224 H   0  0  0  0  0  0  0  0  0  0  0  0  # atno 10718 bound_to 10713
  153.0205  135.5270  154.7039 H   0  0  0  0  0  0  0  0  0  0  0  0  # atno 10763 bound_to 10752
  154.6140  135.2881  155.0403 H   0  0  0  0  0  0  0  0  0  0  0  0  # atno 10764 bound_to 10752
  154.1414  135.6577  153.4995 H   0  0  0  0  0  0  0  0  0  0  0  0  # atno 10765 bound_to 10752
  140.9157  134.1510  157.4354 H   0  0  0  0  0  0  0  0  0  0  0  0  # atno 11005 bound_to 11000
  145.0225  139.3411  143.6065 LP  0  0  0  0  0  0  0  0  0  0  0  0  # atno 17320 bound_to 7965
  146.3467  139.9531  142.8726 LP  0  0  0  0  0  0  0  0  0  0  0  0  # atno 17321 bound_to 7965
  140.1616  143.4270  152.2063 LP  0  0  0  0  0  0  0  0  0  0  0  0  # atno 17342 bound_to 10162
  139.5519  144.7344  151.4409 LP  0  0  0  0  0  0  0  0  0  0  0  0  # atno 17343 bound_to 10162
  156.1373  130.3642  149.9636 LP  0  0  0  0  0  0  0  0  0  0  0  0  # atno 17370 bound_to 10713
  156.7685  130.9177  151.3643 LP  0  0  0  0  0  0  0  0  0  0  0  0  # atno 17371 bound_to 10713
  139.8765  134.9952  156.5734 LP  0  0  0  0  0  0  0  0  0  0  0  0  # atno 17394 bound_to 11000
  140.8053  133.8472  155.8762 LP  0  0  0  0  0  0  0  0  0  0  0  0  # atno 17395 bound_to 11000

$$$$
