AV-unprocessed.smi:1154|AV-procd|sdf|4900|dock4
  -GOLD-   22720 3473D 1   1.00000     0.00000
 Structure written by MMmdl.
 42 43  0  0  0  0  0  0  0  0  2 V2000
  152.9439  142.5364  161.7711 C   0  0  0  0  0  0  0  0  0  0  0  0
  153.5766  142.2567  160.3964 C   0  0  2  0  0  0  0  0  0  0  0  0
  153.2939  143.3674  159.3680 C   0  0  0  0  0  0  0  0  0  0  0  0
  151.8409  143.3190  158.8616 C   0  0  1  0  0  0  0  0  0  0  0  0
  151.5873  144.3870  157.7879 C   0  0  0  0  0  0  0  0  0  0  0  0
  151.5019  141.9081  158.3433 C   0  0  0  0  0  0  0  0  0  0  0  0
  151.7477  140.8745  159.3820 N   0  3  1  0  0  0  0  0  0  0  0  0
  151.2737  139.5312  158.9627 C   0  0  0  0  0  0  0  0  0  0  0  0
  149.8793  139.5795  158.3169 C   0  0  0  0  0  0  0  0  0  0  0  0
  149.4505  138.2440  157.9265 N   0  0  0  0  0  0  0  0  0  0  0  0
  149.1352  137.2679  158.7921 C   0  0  0  0  0  0  0  0  0  0  0  0
  149.2065  137.4031  160.0130 O   0  0  0  0  0  0  0  0  0  0  0  0
  148.6778  135.9335  158.1966 C   0  0  0  0  0  0  0  0  0  0  0  0
  149.6774  135.3710  157.3064 N   0  0  0  0  0  0  0  0  0  0  0  0
  150.3162  135.8995  156.2606 C   0  0  0  0  0  0  0  0  0  0  0  0
  151.1495  135.0322  155.7070 N   0  0  0  0  0  0  0  0  0  0  0  0
  150.9953  133.9021  156.4927 N   0  0  0  0  0  0  0  0  0  0  0  0
  150.1241  134.0974  157.4441 N   0  0  0  0  0  0  0  0  0  0  0  0
  153.1651  140.8816  159.8340 C   0  0  0  0  0  0  0  0  0  0  0  0
  151.8550  142.5481  161.7259 H   0  0  0  0  0  0  0  0  0  0  0  0
  153.2700  143.5000  162.1637 H   0  0  0  0  0  0  0  0  0  0  0  0
  153.2334  141.7749  162.4958 H   0  0  0  0  0  0  0  0  0  0  0  0
  154.6554  142.2331  160.5569 H   0  0  0  0  0  0  0  0  0  0  0  0
  153.5149  144.3450  159.7987 H   0  0  0  0  0  0  0  0  0  0  0  0
  153.9728  143.2483  158.5223 H   0  0  0  0  0  0  0  0  0  0  0  0
  151.1773  143.5406  159.6983 H   0  0  0  0  0  0  0  0  0  0  0  0
  152.2167  144.2277  156.9117 H   0  0  0  0  0  0  0  0  0  0  0  0
  151.7974  145.3860  158.1710 H   0  0  0  0  0  0  0  0  0  0  0  0
  150.5483  144.3737  157.4577 H   0  0  0  0  0  0  0  0  0  0  0  0
  150.4528  141.8820  158.0451 H   0  0  0  0  0  0  0  0  0  0  0  0
  152.0900  141.6761  157.4536 H   0  0  0  0  0  0  0  0  0  0  0  0
  151.9676  139.1181  158.2287 H   0  0  0  0  0  0  0  0  0  0  0  0
  151.2864  138.8506  159.8155 H   0  0  0  0  0  0  0  0  0  0  0  0
  149.1383  139.9899  159.0029 H   0  0  0  0  0  0  0  0  0  0  0  0
  149.9015  140.2279  157.4392 H   0  0  0  0  0  0  0  0  0  0  0  0
  149.3729  138.0520  156.9381 H   0  0  0  0  0  0  0  0  0  0  0  0
  148.4776  135.2237  159.0001 H   0  0  0  0  0  0  0  0  0  0  0  0
  147.7469  136.0663  157.6430 H   0  0  0  0  0  0  0  0  0  0  0  0
  150.1664  136.9077  155.9033 H   0  0  0  0  0  0  0  0  0  0  0  0
  153.8075  140.6216  158.9910 H   0  0  0  0  0  0  0  0  0  0  0  0
  153.3324  140.1196  160.5943 H   0  0  0  0  0  0  0  0  0  0  0  0
  151.1836  141.1391  160.1771 H   0  0  0  0  0  0  0  0  0  0  0  0
  1  2  1  0  0  0  0
  1 20  1  0  0  0  0
  1 21  1  0  0  0  0
  1 22  1  0  0  0  0
  2 19  1  0  0  0  0
  2  3  1  0  0  0  0
  2 23  1  0  0  0  0
  3  4  1  0  0  0  0
  3 24  1  0  0  0  0
  3 25  1  0  0  0  0
  4  5  1  0  0  0  0
  4  6  1  0  0  0  0
  4 26  1  0  0  0  0
  5 27  1  0  0  0  0
  5 28  1  0  0  0  0
  5 29  1  0  0  0  0
  6  7  1  0  0  0  0
  6 30  1  0  0  0  0
  6 31  1  0  0  0  0
  7  8  1  0  0  0  0
  7 19  1  0  0  0  0
  7 42  1  0  0  0  0
  8  9  1  0  0  0  0
  8 32  1  0  0  0  0
  8 33  1  0  0  0  0
  9 10  1  0  0  0  0
  9 34  1  0  0  0  0
  9 35  1  0  0  0  0
 10 11  1  0  0  0  0
 10 36  1  0  0  0  0
 11 12  2  0  0  0  0
 11 13  1  0  0  0  0
 13 14  1  0  0  0  0
 13 37  1  0  0  0  0
 13 38  1  0  0  0  0
 14 18  1  0  0  0  0
 14 15  1  0  0  0  0
 15 16  2  0  0  0  0
 15 39  1  0  0  0  0
 16 17  1  0  0  0  0
 17 18  2  0  0  0  0
 19 40  1  0  0  0  0
 19 41  1  0  0  0  0
M  CHG  1   7   1
M  END
> <s_m_source_file>
AV-unprocessed.smi

> <i_m_source_file_index>
1154

> <i_lp_mmshare_version>
43012

> <i_f3d_flags>
0

> <s_epik_input>
W0NIM11bQ0BASF0xW0NIMl1bQ0BASF0oW0NIM10pW0NIMl1OKFtDSDJdMSlbQ0gyXVtDSDJdW05IXUMoPU8pW0NIMl1uMltjSF1ubm4y

> <s_epik_cmdline>
J2VwaWtfcHl0aG9uJywgJy1waCcsICc3LjAnLCAnLXRuJywgJzgnLCAnLW1hJywgJzIwMCcsICctbWV0YWxfYmluZGluZycsICctaW1hZScsICc8aW5maWxlLm1hZT4nLCAnLW9tYWUnLCAnPG91dGZpbGUubWFlPic=

> <r_lp_tautomer_probability>
1

> <r_epik_Ionization_Penalty>
0.00217773

> <r_epik_Ionization_Penalty_Charging>
0.00217329

> <r_epik_Ionization_Penalty_Neutral>
4.43997e-06

> <r_epik_State_Penalty>
0.00149294

> <r_epik_Charging_Adjusted_Penalty>
0.00366623

> <i_epik_Tot_Q>
1

> <i_epik_Tot_abs_Q>
1

> <r_epik_Metal_State_Penalty>
-0

> <b_epik_Metal_Only>
0

> <s_lp_Force_Field>
OPLS_2005

> <r_lp_Energy>
22.5946

> <b_lp_Chiralities_Consistent>
1

> <s_lp_Variant>
AV-unprocessed.smi:1154-1

> <Gold.Version>
5.8.1

> <Gold.Id.Protein>
6NUR|6NUR_protein|mol2

> <Gold.PLP.Fitness>
40.1063

> <Gold.PLP.PLP>
-34.3760

> <Gold.PLP.part.hbond>
-4.0467

> <Gold.PLP.part.metal>
0.0000

> <Gold.PLP.part.buried>
-4.0063

> <Gold.PLP.part.nonpolar>
-27.1196

> <Gold.PLP.part.repulsive>
0.2815

> <Gold.PLP.ligand.clash>
0.0000

> <Gold.PLP.ligand.torsion>
0.1745

> <Gold.PLP.Chemscore.Hbond>
2.0155

> <Gold.PLP.Chemscore.CHOScore>
0.0000

> <Gold.PLP.Chemscore.Metal>
0.0000

> <Gold.Chemscore.Hbonds>
donor molecule, donor type, donor heavy atom, donor atom, acceptor molecule, acceptor atom, score
      P1  H  6896  6908       L1    18  0.86
      P1  H  6931  6943       L1    12  0.32
      P1  H 10752 10763       L1    16  0.81

> <Gold.PLP.Chemscore.Internal.Correction>
0.0328

> <Gold.Rescore>
     Score         DG    S(hbond)    S(metal)    S(lipo)     H(rot)  DE(clash)    DE(int)     intcor
     13.74     -14.78       1.75        0.00      87.80       2.67       0.01       1.02       ----

> <Gold.Chemscore.Fitness>
13.7428

> <Gold.Chemscore.DG>
-14.7751

> <Gold.Chemscore.ZeroCoef>
-5.4800

> <Gold.Chemscore.Hbond>
1.7519

> <Gold.Chemscore.Metal>
0.0000

> <Gold.Chemscore.Lipo>
87.7974

> <Gold.Chemscore.Internal_Hbond>
0.0000

> <Gold.Chemscore.DEClash>
0.0106

> <Gold.Chemscore.DEInternal>
1.0217

> <Gold.Chemscore.Rot>
2.6674

> <Gold.Chemscore.Internal.Correction>
   9.000000E+99

> <Gold.Chemscore.Hbonds>
donor molecule, donor type, donor heavy atom, donor atom, acceptor molecule, acceptor atom, score
      P1  H  6896  6908       L1    18  0.58
      P1  H  6931  6943       L1    12  0.31
      P1  H 10752 10763       L1    16  0.73

> <Gold.Chemscore.Hbond.Weighted>
-5.8514

> <Gold.Chemscore.Metal.Weighted>
-0.0000

> <Gold.Chemscore.Lipo.Weighted>
-10.2723

> <Gold.Chemscore.Internal_Hbond.Weighted>
0.0000

> <Gold.Chemscore.DEClash.Weighted>
0.0106

> <Gold.Chemscore.DEInternal.Weighted>
1.0217

> <Gold.Chemscore.Rot.Weighted>
6.8286

> <Gold.Chemscore.Internal.Correction.Weighted>
   9.000000E+99

> <Gold.Protein.RotatedTorsions>
[ 6907 6896 6895 6894 ] final  118.70 input  -60.11 | X-H torsion
[ 7974 7965 7964 7962 ] final -127.37 input  175.53 | X-H torsion
[ 8008 7997 7996 7995 ] final  -47.87 input   59.86 | X-H torsion
[ 10167 10162 10161 10158 ] final -146.50 input  -65.29 | X-H torsion
[ 10718 10713 10712 10709 ] final  145.90 input   66.30 | X-H torsion
[ 10763 10752 10751 10750 ] final   79.47 input  -60.55 | X-H torsion
[ 11005 11000 10999 10996 ] final  -38.65 input  -57.11 | X-H torsion

> <Gold.Protein.ActiveResidues>
 VAL166  LYS551  ARG553  GLY616  TRP617  ASP618  TYR619  PRO620  LYS621  CYS622 
 ASP623  PHE694  ASN695  SER759  ASP760  ASP761  ALA762  ILE779  LEU786  VAL792 
 PHE793  MET794  SER795  GLU796  ALA797  LYS798  CYS799  TRP800  GLU811  SER814 

> <Gold.Protein.RotatedAtoms>
  152.4524  133.7656  159.6770 H   0  0  0  0  0  0  0  0  0  0  0  0  # atno 6907 bound_to 6896
  150.8440  133.7880  159.3056 H   0  0  0  0  0  0  0  0  0  0  0  0  # atno 6908 bound_to 6896
  151.5496  135.1070  159.9998 H   0  0  0  0  0  0  0  0  0  0  0  0  # atno 6909 bound_to 6896
  144.9778  140.7610  143.4631 H   0  0  0  0  0  0  0  0  0  0  0  0  # atno 7974 bound_to 7965
  154.4022  140.1335  156.4246 H   0  0  0  0  0  0  0  0  0  0  0  0  # atno 8008 bound_to 7997
  155.7610  140.3486  155.5178 H   0  0  0  0  0  0  0  0  0  0  0  0  # atno 8009 bound_to 7997
  155.8859  140.0995  157.1443 H   0  0  0  0  0  0  0  0  0  0  0  0  # atno 8010 bound_to 7997
  139.7708  143.8241  152.2624 H   0  0  0  0  0  0  0  0  0  0  0  0  # atno 10167 bound_to 10162
  157.3397  131.0934  151.1093 H   0  0  0  0  0  0  0  0  0  0  0  0  # atno 10718 bound_to 10713
  153.0955  135.4838  154.8771 H   0  0  0  0  0  0  0  0  0  0  0  0  # atno 10763 bound_to 10752
  154.7319  135.3062  154.8878 H   0  0  0  0  0  0  0  0  0  0  0  0  # atno 10764 bound_to 10752
  153.9511  135.6823  153.4797 H   0  0  0  0  0  0  0  0  0  0  0  0  # atno 10765 bound_to 10752
  141.0043  133.6939  156.2082 H   0  0  0  0  0  0  0  0  0  0  0  0  # atno 11005 bound_to 11000
  145.2464  139.2050  143.4965 LP  0  0  0  0  0  0  0  0  0  0  0  0  # atno 17320 bound_to 7965
  146.3400  140.2370  142.8594 LP  0  0  0  0  0  0  0  0  0  0  0  0  # atno 17321 bound_to 7965
  139.8275  144.7269  150.9493 LP  0  0  0  0  0  0  0  0  0  0  0  0  # atno 17342 bound_to 10162
  140.7814  143.4101  151.1007 LP  0  0  0  0  0  0  0  0  0  0  0  0  # atno 17343 bound_to 10162
  157.2309  130.6525  149.5849 LP  0  0  0  0  0  0  0  0  0  0  0  0  # atno 17370 bound_to 10713
  155.9706  130.4599  150.6052 LP  0  0  0  0  0  0  0  0  0  0  0  0  # atno 17371 bound_to 10713
  140.6838  134.4739  157.5589 LP  0  0  0  0  0  0  0  0  0  0  0  0  # atno 17394 bound_to 11000
  139.9055  134.8458  156.1723 LP  0  0  0  0  0  0  0  0  0  0  0  0  # atno 17395 bound_to 11000

$$$$
