AV-unprocessed.smi:1410|AV-procd|sdf|5737|dock5
  -GOLD-   22720 5373D 1   1.00000     0.00000
 Structure written by MMmdl.
 40 41  0  0  0  0  0  0  0  0  4 V2000
  142.0420  132.1701  147.8461 N   0  5  0  0  0  0  0  0  0  0  0  0
  143.1313  132.9035  148.1446 C   0  0  0  0  0  0  0  0  0  0  0  0
  143.6280  133.8187  147.4913 O   0  0  0  0  0  0  0  0  0  0  0  0
  143.7883  132.4684  149.4590 C   0  0  0  0  0  0  0  0  0  0  0  0
  144.6900  133.5360  149.9592 N   0  3  2  0  0  0  0  0  0  0  0  0
  145.6333  133.0615  151.0074 C   0  0  0  0  0  0  0  0  0  0  0  0
  146.6331  134.1638  151.3926 C   0  0  0  0  0  0  0  0  0  0  0  0
  145.9048  135.4326  151.8626 C   0  0  1  0  0  0  0  0  0  0  0  0
  146.8767  136.4845  152.1470 N   0  0  0  0  0  0  0  0  0  0  0  0
  146.6004  137.6467  152.7560 C   0  0  0  0  0  0  0  0  0  0  0  0
  145.4710  137.9677  153.1251 O   0  0  0  0  0  0  0  0  0  0  0  0
  147.7036  138.4041  152.8854 N   0  0  0  0  0  0  0  0  0  0  0  0
  147.8343  139.6766  153.5058 C   0  0  0  0  0  0  0  0  0  0  0  0
  146.7987  140.6149  153.2999 C   0  0  0  0  0  0  0  0  0  0  0  0
  146.8947  141.8956  153.8817 C   0  0  0  0  0  0  0  0  0  0  0  0
  147.9773  142.2190  154.6209 N   0  3  0  0  0  0  0  0  0  0  0  0
  148.9988  141.3618  154.8330 C   0  0  0  0  0  0  0  0  0  0  0  0
  148.9590  140.0670  154.2768 C   0  0  0  0  0  0  0  0  0  0  0  0
  144.9058  135.8828  150.7812 C   0  0  0  0  0  0  0  0  0  0  0  0
  143.9457  134.7425  150.4017 C   0  0  0  0  0  0  0  0  0  0  0  0
  141.7548  131.4273  148.4949 H   0  0  0  0  0  0  0  0  0  0  0  0
  142.9813  132.2971  150.1726 H   0  0  0  0  0  0  0  0  0  0  0  0
  144.3285  131.5231  149.3702 H   0  0  0  0  0  0  0  0  0  0  0  0
  145.0710  132.7405  151.8857 H   0  0  0  0  0  0  0  0  0  0  0  0
  146.1863  132.1911  150.6538 H   0  0  0  0  0  0  0  0  0  0  0  0
  147.2965  133.7995  152.1779 H   0  0  0  0  0  0  0  0  0  0  0  0
  147.2663  134.3927  150.5338 H   0  0  0  0  0  0  0  0  0  0  0  0
  145.3570  135.1928  152.7761 H   0  0  0  0  0  0  0  0  0  0  0  0
  147.8313  136.3063  151.8709 H   0  0  0  0  0  0  0  0  0  0  0  0
  148.5410  138.0473  152.4487 H   0  0  0  0  0  0  0  0  0  0  0  0
  145.9329  140.3581  152.7065 H   0  0  0  0  0  0  0  0  0  0  0  0
  146.1443  142.6655  153.7770 H   0  0  0  0  0  0  0  0  0  0  0  0
  149.8160  141.7368  155.4319 H   0  0  0  0  0  0  0  0  0  0  0  0
  149.7961  139.4058  154.4413 H   0  0  0  0  0  0  0  0  0  0  0  0
  144.3319  136.7418  151.1309 H   0  0  0  0  0  0  0  0  0  0  0  0
  145.4445  136.2126  149.8913 H   0  0  0  0  0  0  0  0  0  0  0  0
  143.2861  135.0827  149.6025 H   0  0  0  0  0  0  0  0  0  0  0  0
  143.3100  134.4867  151.2509 H   0  0  0  0  0  0  0  0  0  0  0  0
  145.2474  133.8177  149.1651 H   0  0  0  0  0  0  0  0  0  0  0  0
  148.0284  143.1515  155.0321 H   0  0  0  0  0  0  0  0  0  0  0  0
  1  2  1  0  0  0  0
  1 21  1  0  0  0  0
  2  3  2  0  0  0  0
  2  4  1  0  0  0  0
  4  5  1  0  0  0  0
  4 22  1  0  0  0  0
  4 23  1  0  0  0  0
  5 20  1  0  0  0  0
  5  6  1  0  0  0  0
  5 39  1  0  0  0  0
  6  7  1  0  0  0  0
  6 24  1  0  0  0  0
  6 25  1  0  0  0  0
  7  8  1  0  0  0  0
  7 26  1  0  0  0  0
  7 27  1  0  0  0  0
  8  9  1  0  0  0  0
  8 19  1  0  0  0  0
  8 28  1  0  0  0  0
  9 10  1  0  0  0  0
  9 29  1  0  0  0  0
 10 11  2  0  0  0  0
 10 12  1  0  0  0  0
 12 13  1  0  0  0  0
 12 30  1  0  0  0  0
 13 18  1  0  0  0  0
 13 14  2  0  0  0  0
 14 15  1  0  0  0  0
 14 31  1  0  0  0  0
 15 16  2  0  0  0  0
 15 32  1  0  0  0  0
 16 17  1  0  0  0  0
 16 40  1  0  0  0  0
 17 18  2  0  0  0  0
 17 33  1  0  0  0  0
 18 34  1  0  0  0  0
 19 20  1  0  0  0  0
 19 35  1  0  0  0  0
 19 36  1  0  0  0  0
 20 37  1  0  0  0  0
 20 38  1  0  0  0  0
M  CHG  1   1  -1
M  CHG  1   5   1
M  CHG  1  16   1
M  END
> <s_m_source_file>
AV-unprocessed.smi

> <i_m_source_file_index>
1410

> <i_lp_mmshare_version>
43012

> <i_f3d_flags>
0

> <s_epik_input>
W05IMl1DKD1PKVtDSDJdTjFbQ0gyXVtDSDJdW0NIXShbQ0gyXVtDSDJdMSlbTkhdQyg9TylbTkhdYzJbY0hdW2NIXW5bY0hdW2NIXTI=

> <s_epik_cmdline>
J2VwaWtfcHl0aG9uJywgJy1waCcsICc3LjAnLCAnLXRuJywgJzgnLCAnLW1hJywgJzIwMCcsICctbWV0YWxfYmluZGluZycsICctaW1hZScsICc8aW5maWxlLm1hZT4nLCAnLW9tYWUnLCAnPG91dGZpbGUubWFlPic=

> <r_epik_Ionization_Penalty>
6.84067

> <r_epik_Ionization_Penalty_Charging>
6.84065

> <r_epik_Ionization_Penalty_Neutral>
1.84563e-05

> <r_epik_State_Penalty>
7.68217

> <r_epik_Charging_Adjusted_Penalty>
14.5228

> <i_epik_Tot_Q>
1

> <i_epik_Tot_abs_Q>
3

> <r_epik_Metal_State_Penalty>
3.74331

> <b_epik_Metal_Only>
1

> <s_lp_Force_Field>
OPLS_2005

> <r_lp_Energy>
19.1226

> <b_lp_Chiralities_Consistent>
1

> <s_lp_Variant>
AV-unprocessed.smi:1410-9

> <Gold.Version>
5.8.1

> <Gold.Id.Protein>
6NUR|6NUR_protein|mol2

> <Gold.PLP.Fitness>
47.5697

> <Gold.PLP.PLP>
-30.3345

> <Gold.PLP.part.hbond>
-8.3461

> <Gold.PLP.part.metal>
0.0000

> <Gold.PLP.part.buried>
4.3489

> <Gold.PLP.part.nonpolar>
-33.1633

> <Gold.PLP.part.repulsive>
6.5657

> <Gold.PLP.ligand.clash>
0.0000

> <Gold.PLP.ligand.torsion>
0.7157

> <Gold.PLP.Chemscore.Hbond>
6.2101

> <Gold.PLP.Chemscore.CHOScore>
0.0000

> <Gold.PLP.Chemscore.Metal>
0.0000

> <Gold.Chemscore.Hbonds>
donor molecule, donor type, donor heavy atom, donor atom, acceptor molecule, acceptor atom, score
      L1  H     1    21       P1 10952  1.00
      L1  H     5    39       P1  7921  1.00
      L1  H    12    30       P1  7948  0.61
      L1  H    16    40       P1  8028  2.00
      P1  H  7918  7932       L1     3  0.68
      P1  H 10192 10197       L1     3  0.78

> <Gold.PLP.Chemscore.Internal.Correction>
0.0362

> <Gold.Rescore>
     Score         DG    S(hbond)    S(metal)    S(lipo)     H(rot)  DE(clash)    DE(int)     intcor
     14.08     -22.37       4.04        0.00      72.02       1.96       5.59       2.70       ----

> <Gold.Chemscore.Fitness>
14.0830

> <Gold.Chemscore.DG>
-22.3703

> <Gold.Chemscore.ZeroCoef>
-5.4800

> <Gold.Chemscore.Hbond>
4.0373

> <Gold.Chemscore.Metal>
0.0000

> <Gold.Chemscore.Lipo>
72.0217

> <Gold.Chemscore.Internal_Hbond>
0.0000

> <Gold.Chemscore.DEClash>
5.5895

> <Gold.Chemscore.DEInternal>
2.6978

> <Gold.Chemscore.Rot>
1.9612

> <Gold.Chemscore.Internal.Correction>
   9.000000E+99

> <Gold.Chemscore.Hbonds>
donor molecule, donor type, donor heavy atom, donor atom, acceptor molecule, acceptor atom, score
      L1  H     1    21       P1 10952  1.00
      L1  H     5    39       P1  7921  0.77
      L1  H     9    29       P1  7948  0.04
      L1  H    12    30       P1  7948  0.62
      L1  H    16    40       P1  8028  0.87
      P1  H  7918  7932       L1     3  0.61
      P1  H 10192 10197       L1     3  0.38

> <Gold.Chemscore.Hbond.Weighted>
-13.4845

> <Gold.Chemscore.Metal.Weighted>
-0.0000

> <Gold.Chemscore.Lipo.Weighted>
-8.4265

> <Gold.Chemscore.Internal_Hbond.Weighted>
0.0000

> <Gold.Chemscore.DEClash.Weighted>
5.5895

> <Gold.Chemscore.DEInternal.Weighted>
2.6978

> <Gold.Chemscore.Rot.Weighted>
5.0208

> <Gold.Chemscore.Internal.Correction.Weighted>
   9.000000E+99

> <Gold.Protein.RotatedTorsions>
[ 6907 6896 6895 6894 ] final   39.95 input  -60.11 | X-H torsion
[ 7974 7965 7964 7962 ] final -112.10 input  175.53 | X-H torsion
[ 8008 7997 7996 7995 ] final   -0.83 input   59.86 | X-H torsion
[ 10167 10162 10161 10158 ] final  -43.47 input  -65.29 | X-H torsion
[ 10718 10713 10712 10709 ] final  -67.97 input   66.30 | X-H torsion
[ 10763 10752 10751 10750 ] final   76.94 input  -60.55 | X-H torsion
[ 11005 11000 10999 10996 ] final  -48.35 input  -57.11 | X-H torsion

> <Gold.Protein.ActiveResidues>
 VAL166  LYS551  ARG553  GLY616  TRP617  ASP618  TYR619  PRO620  LYS621  CYS622 
 ASP623  PHE694  ASN695  SER759  ASP760  ASP761  ALA762  ILE779  LEU786  VAL792 
 PHE793  MET794  SER795  GLU796  ALA797  LYS798  CYS799  TRP800  GLU811  SER814 

> <Gold.Protein.RotatedAtoms>
  152.1762  134.8792  160.0530 H   0  0  0  0  0  0  0  0  0  0  0  0  # atno 6907 bound_to 6896
  151.9734  133.3728  159.4088 H   0  0  0  0  0  0  0  0  0  0  0  0  # atno 6908 bound_to 6896
  150.6910  134.4039  159.5175 H   0  0  0  0  0  0  0  0  0  0  0  0  # atno 6909 bound_to 6896
  145.1481  140.8814  143.3662 H   0  0  0  0  0  0  0  0  0  0  0  0  # atno 7974 bound_to 7965
  154.6536  140.2574  155.7186 H   0  0  0  0  0  0  0  0  0  0  0  0  # atno 8008 bound_to 7997
  156.2586  140.2863  156.0901 H   0  0  0  0  0  0  0  0  0  0  0  0  # atno 8009 bound_to 7997
  155.1414  140.0380  157.2789 H   0  0  0  0  0  0  0  0  0  0  0  0  # atno 8010 bound_to 7997
  140.6932  143.2981  151.3357 H   0  0  0  0  0  0  0  0  0  0  0  0  # atno 10167 bound_to 10162
  156.0529  130.4287  150.1933 H   0  0  0  0  0  0  0  0  0  0  0  0  # atno 10718 bound_to 10713
  153.0762  135.4933  154.8408 H   0  0  0  0  0  0  0  0  0  0  0  0  # atno 10763 bound_to 10752
  154.7090  135.3016  154.9229 H   0  0  0  0  0  0  0  0  0  0  0  0  # atno 10764 bound_to 10752
  153.9929  135.6776  153.4808 H   0  0  0  0  0  0  0  0  0  0  0  0  # atno 10765 bound_to 10752
  141.0695  133.6683  156.3429 H   0  0  0  0  0  0  0  0  0  0  0  0  # atno 11005 bound_to 11000
  145.0460  139.3220  143.5952 LP  0  0  0  0  0  0  0  0  0  0  0  0  # atno 17320 bound_to 7965
  146.3498  139.9851  142.8691 LP  0  0  0  0  0  0  0  0  0  0  0  0  # atno 17321 bound_to 7965
  139.6358  144.0633  152.2514 LP  0  0  0  0  0  0  0  0  0  0  0  0  # atno 17342 bound_to 10162
  140.0123  144.6215  150.7637 LP  0  0  0  0  0  0  0  0  0  0  0  0  # atno 17343 bound_to 10162
  157.0013  130.9923  151.3390 LP  0  0  0  0  0  0  0  0  0  0  0  0  # atno 17370 bound_to 10713
  157.5473  130.8159  149.8101 LP  0  0  0  0  0  0  0  0  0  0  0  0  # atno 17371 bound_to 10713
  140.5702  134.5847  157.5455 LP  0  0  0  0  0  0  0  0  0  0  0  0  # atno 17394 bound_to 11000
  139.9510  134.7618  156.0449 LP  0  0  0  0  0  0  0  0  0  0  0  0  # atno 17395 bound_to 11000

$$$$
