AV-unprocessed.smi:2661|AV-procd|sdf|10316|dock3
  -GOLD-   2272014333D 1   1.00000     0.00000
 Structure written by MMmdl.
 44 46  0  0  0  0  0  0  0  0  1 V2000
  143.7552  133.9702  151.8192 C   0  0  0  0  0  0  0  0  0  0  0  0
  144.1965  135.3404  152.0424 N   0  0  0  0  0  0  0  0  0  0  0  0
  143.4931  136.2162  152.9580 C   0  0  0  0  0  0  0  0  0  0  0  0
  144.4445  137.4033  153.1490 C   0  0  0  0  0  0  0  0  0  0  0  0
  145.4131  137.3717  151.9529 C   0  0  1  0  0  0  0  0  0  0  0  0
  146.7758  137.6561  152.3990 N   0  0  0  0  0  0  0  0  0  0  0  0
  147.1142  138.5915  153.2980 C   0  0  0  0  0  0  0  0  0  0  0  0
  146.2948  139.3068  153.8737 O   0  0  0  0  0  0  0  0  0  0  0  0
  148.4443  138.6214  153.4885 N   0  0  0  0  0  0  0  0  0  0  0  0
  149.1964  139.4620  154.3532 C   0  0  0  0  0  0  0  0  0  0  0  0
  148.4942  140.3769  155.1610 C   0  0  0  0  0  0  0  0  0  0  0  0
  149.2101  141.2147  156.0364 C   0  0  0  0  0  0  0  0  0  0  0  0
  150.6202  141.1129  156.0904 C   0  0  0  0  0  0  0  0  0  0  0  0
  151.3610  141.9478  156.9553 N   0  0  0  0  0  0  0  0  0  0  0  0
  151.6672  141.3867  158.2693 C   0  0  0  0  0  0  0  0  0  0  0  0
  152.7204  142.2473  158.9885 C   0  0  0  0  0  0  0  0  0  0  0  0
  152.2771  143.5987  159.0538 O   0  0  0  0  0  0  0  0  0  0  0  0
  152.0963  144.1587  157.7574 C   0  0  0  0  0  0  0  0  0  0  0  0
  151.0174  143.3683  156.9981 C   0  0  0  0  0  0  0  0  0  0  0  0
  151.2935  140.2151  155.3301 N   0  0  0  0  0  0  0  0  0  0  0  0
  150.6040  139.4151  154.4894 C   0  0  0  0  0  0  0  0  0  0  0  0
  145.2702  135.9193  151.4954 C   0  0  0  0  0  0  0  0  0  0  0  0
  146.0485  135.3828  150.7069 O   0  0  0  0  0  0  0  0  0  0  0  0
  144.4634  133.2675  152.2593 H   0  0  0  0  0  0  0  0  0  0  0  0
  143.6777  133.7582  150.7523 H   0  0  0  0  0  0  0  0  0  0  0  0
  142.7774  133.7950  152.2690 H   0  0  0  0  0  0  0  0  0  0  0  0
  142.5549  136.5339  152.5007 H   0  0  0  0  0  0  0  0  0  0  0  0
  143.2668  135.7190  153.9020 H   0  0  0  0  0  0  0  0  0  0  0  0
  143.9061  138.3494  153.2136 H   0  0  0  0  0  0  0  0  0  0  0  0
  144.9851  137.2770  154.0890 H   0  0  0  0  0  0  0  0  0  0  0  0
  145.0808  138.0431  151.1592 H   0  0  0  0  0  0  0  0  0  0  0  0
  147.5141  137.1123  151.9775 H   0  0  0  0  0  0  0  0  0  0  0  0
  148.9783  137.9203  152.9964 H   0  0  0  0  0  0  0  0  0  0  0  0
  147.4170  140.4409  155.1117 H   0  0  0  0  0  0  0  0  0  0  0  0
  148.6712  141.9105  156.6621 H   0  0  0  0  0  0  0  0  0  0  0  0
  150.7500  141.3513  158.8586 H   0  0  0  0  0  0  0  0  0  0  0  0
  152.0365  140.3648  158.1972 H   0  0  0  0  0  0  0  0  0  0  0  0
  152.8787  141.8772  160.0014 H   0  0  0  0  0  0  0  0  0  0  0  0
  153.6823  142.1925  158.4759 H   0  0  0  0  0  0  0  0  0  0  0  0
  151.7955  145.2016  157.8590 H   0  0  0  0  0  0  0  0  0  0  0  0
  153.0412  144.1516  157.2111 H   0  0  0  0  0  0  0  0  0  0  0  0
  150.9244  143.7657  155.9865 H   0  0  0  0  0  0  0  0  0  0  0  0
  150.0504  143.4919  157.4878 H   0  0  0  0  0  0  0  0  0  0  0  0
  151.2110  138.7153  153.9371 H   0  0  0  0  0  0  0  0  0  0  0  0
  1  2  1  0  0  0  0
  1 24  1  0  0  0  0
  1 25  1  0  0  0  0
  1 26  1  0  0  0  0
  2 22  1  0  0  0  0
  2  3  1  0  0  0  0
  3  4  1  0  0  0  0
  3 27  1  0  0  0  0
  3 28  1  0  0  0  0
  4  5  1  0  0  0  0
  4 29  1  0  0  0  0
  4 30  1  0  0  0  0
  5  6  1  0  0  0  0
  5 22  1  0  0  0  0
  5 31  1  0  0  0  0
  6  7  1  0  0  0  0
  6 32  1  0  0  0  0
  7  8  2  0  0  0  0
  7  9  1  0  0  0  0
  9 10  1  0  0  0  0
  9 33  1  0  0  0  0
 10 21  1  0  0  0  0
 10 11  2  0  0  0  0
 11 12  1  0  0  0  0
 11 34  1  0  0  0  0
 12 13  2  0  0  0  0
 12 35  1  0  0  0  0
 13 14  1  0  0  0  0
 13 20  1  0  0  0  0
 14 19  1  0  0  0  0
 14 15  1  0  0  0  0
 15 16  1  0  0  0  0
 15 36  1  0  0  0  0
 15 37  1  0  0  0  0
 16 17  1  0  0  0  0
 16 38  1  0  0  0  0
 16 39  1  0  0  0  0
 17 18  1  0  0  0  0
 18 19  1  0  0  0  0
 18 40  1  0  0  0  0
 18 41  1  0  0  0  0
 19 42  1  0  0  0  0
 19 43  1  0  0  0  0
 20 21  2  0  0  0  0
 21 44  1  0  0  0  0
 22 23  2  0  0  0  0
M  END
> <s_m_source_file>
AV-unprocessed.smi

> <i_m_source_file_index>
2661

> <i_lp_mmshare_version>
43012

> <i_f3d_flags>
0

> <s_epik_input>
W0NIM11OMVtDSDJdW0NIMl1bQ0BIXShDMT1PKVtOSF1DKD1PKVtOSF1jMltjSF1bY0hdYyhuW2NIXTIpTjNbQ0gyXVtDSDJdT1tDSDJdW0NIMl0z

> <s_epik_cmdline>
J2VwaWtfcHl0aG9uJywgJy1waCcsICc3LjAnLCAnLXRuJywgJzgnLCAnLW1hJywgJzIwMCcsICctbWV0YWxfYmluZGluZycsICctaW1hZScsICc8aW5maWxlLm1hZT4nLCAnLW9tYWUnLCAnPG91dGZpbGUubWFlPic=

> <r_lp_tautomer_probability>
1

> <r_epik_Ionization_Penalty>
0.00172037

> <r_epik_Ionization_Penalty_Charging>
0

> <r_epik_Ionization_Penalty_Neutral>
0.00172037

> <r_epik_State_Penalty>
0.00114015

> <r_epik_Charging_Adjusted_Penalty>
0.00114015

> <i_epik_Tot_Q>
0

> <i_epik_Tot_abs_Q>
0

> <r_epik_Metal_State_Penalty>
-0

> <b_epik_Metal_Only>
0

> <s_lp_Force_Field>
OPLS_2005

> <r_lp_Energy>
30.3032

> <b_lp_Chiralities_Consistent>
1

> <s_lp_Variant>
AV-unprocessed.smi:2661-1

> <Gold.Version>
5.8.1

> <Gold.Id.Protein>
6NUR|6NUR_protein|mol2

> <Gold.PLP.Fitness>
40.7076

> <Gold.PLP.PLP>
-36.0518

> <Gold.PLP.part.hbond>
-4.0000

> <Gold.PLP.part.metal>
0.0000

> <Gold.PLP.part.buried>
-0.5502

> <Gold.PLP.part.nonpolar>
-32.4703

> <Gold.PLP.part.repulsive>
0.5600

> <Gold.PLP.ligand.clash>
0.0000

> <Gold.PLP.ligand.torsion>
0.8609

> <Gold.PLP.Chemscore.Hbond>
2.0000

> <Gold.PLP.Chemscore.CHOScore>
0.0000

> <Gold.PLP.Chemscore.Metal>
0.0000

> <Gold.Chemscore.Hbonds>
donor molecule, donor type, donor heavy atom, donor atom, acceptor molecule, acceptor atom, score
      L1  H     6    32       P1  7948  1.00
      L1  H     9    33       P1  7948  0.98

> <Gold.PLP.Chemscore.Internal.Correction>
0.3776

> <Gold.Rescore>
     Score         DG    S(hbond)    S(metal)    S(lipo)     H(rot)  DE(clash)    DE(int)     intcor
     13.47     -18.78       1.92        0.00      86.43       1.26       2.03       3.27       ----

> <Gold.Chemscore.Fitness>
13.4741

> <Gold.Chemscore.DG>
-18.7758

> <Gold.Chemscore.ZeroCoef>
-5.4800

> <Gold.Chemscore.Hbond>
1.9217

> <Gold.Chemscore.Metal>
0.0000

> <Gold.Chemscore.Lipo>
86.4274

> <Gold.Chemscore.Internal_Hbond>
0.0000

> <Gold.Chemscore.DEClash>
2.0287

> <Gold.Chemscore.DEInternal>
3.2730

> <Gold.Chemscore.Rot>
1.2636

> <Gold.Chemscore.Internal.Correction>
   9.000000E+99

> <Gold.Chemscore.Hbonds>
donor molecule, donor type, donor heavy atom, donor atom, acceptor molecule, acceptor atom, score
      L1  H     6    32       P1  7948  0.99
      L1  H     9    33       P1  7948  0.89

> <Gold.Chemscore.Hbond.Weighted>
-6.4186

> <Gold.Chemscore.Metal.Weighted>
-0.0000

> <Gold.Chemscore.Lipo.Weighted>
-10.1120

> <Gold.Chemscore.Internal_Hbond.Weighted>
0.0000

> <Gold.Chemscore.DEClash.Weighted>
2.0287

> <Gold.Chemscore.DEInternal.Weighted>
3.2730

> <Gold.Chemscore.Rot.Weighted>
3.2348

> <Gold.Chemscore.Internal.Correction.Weighted>
   9.000000E+99

> <Gold.Protein.RotatedTorsions>
[ 6907 6896 6895 6894 ] final -114.13 input  -60.11 | X-H torsion
[ 7974 7965 7964 7962 ] final   63.96 input  175.53 | X-H torsion
[ 8008 7997 7996 7995 ] final  -33.01 input   59.86 | X-H torsion
[ 10167 10162 10161 10158 ] final -163.97 input  -65.29 | X-H torsion
[ 10718 10713 10712 10709 ] final   -1.80 input   66.30 | X-H torsion
[ 10763 10752 10751 10750 ] final  118.09 input  -60.55 | X-H torsion
[ 11005 11000 10999 10996 ] final -137.47 input  -57.11 | X-H torsion

> <Gold.Protein.ActiveResidues>
 VAL166  LYS551  ARG553  GLY616  TRP617  ASP618  TYR619  PRO620  LYS621  CYS622 
 ASP623  PHE694  ASN695  SER759  ASP760  ASP761  ALA762  ILE779  LEU786  VAL792 
 PHE793  MET794  SER795  GLU796  ALA797  LYS798  CYS799  TRP800  GLU811  SER814 

> <Gold.Protein.RotatedAtoms>
  150.7880  133.8845  159.3295 H   0  0  0  0  0  0  0  0  0  0  0  0  # atno 6907 bound_to 6896
  151.6690  135.0977  160.0204 H   0  0  0  0  0  0  0  0  0  0  0  0  # atno 6908 bound_to 6896
  152.3948  133.6692  159.6302 H   0  0  0  0  0  0  0  0  0  0  0  0  # atno 6909 bound_to 6896
  145.8558  139.3283  143.0848 H   0  0  0  0  0  0  0  0  0  0  0  0  # atno 7974 bound_to 7965
  154.4162  140.1722  156.1820 H   0  0  0  0  0  0  0  0  0  0  0  0  # atno 8008 bound_to 7997
  155.9675  140.3388  155.6521 H   0  0  0  0  0  0  0  0  0  0  0  0  # atno 8009 bound_to 7997
  155.6669  140.0707  157.2525 H   0  0  0  0  0  0  0  0  0  0  0  0  # atno 8010 bound_to 7997
  139.6283  144.0489  152.1994 H   0  0  0  0  0  0  0  0  0  0  0  0  # atno 10167 bound_to 10162
  156.8002  130.5390  149.5723 H   0  0  0  0  0  0  0  0  0  0  0  0  # atno 10718 bound_to 10713
  153.5623  135.3518  155.2804 H   0  0  0  0  0  0  0  0  0  0  0  0  # atno 10763 bound_to 10752
  154.8693  135.4139  154.2817 H   0  0  0  0  0  0  0  0  0  0  0  0  # atno 10764 bound_to 10752
  153.3565  135.7058  153.6815 H   0  0  0  0  0  0  0  0  0  0  0  0  # atno 10765 bound_to 10752
  140.8708  134.2054  157.4652 H   0  0  0  0  0  0  0  0  0  0  0  0  # atno 11005 bound_to 11000
  145.9306  140.9051  143.0358 LP  0  0  0  0  0  0  0  0  0  0  0  0  # atno 17320 bound_to 7965
  144.6728  140.1412  143.7437 LP  0  0  0  0  0  0  0  0  0  0  0  0  # atno 17321 bound_to 7965
  140.0148  144.6197  150.7616 LP  0  0  0  0  0  0  0  0  0  0  0  0  # atno 17342 bound_to 10162
  140.7424  143.2831  151.3540 LP  0  0  0  0  0  0  0  0  0  0  0  0  # atno 17343 bound_to 10162
  156.1106  130.6037  151.0041 LP  0  0  0  0  0  0  0  0  0  0  0  0  # atno 17370 bound_to 10713
  157.6557  131.0889  150.7952 LP  0  0  0  0  0  0  0  0  0  0  0  0  # atno 17371 bound_to 10713
  139.8712  134.9773  156.4954 LP  0  0  0  0  0  0  0  0  0  0  0  0  # atno 17394 bound_to 11000
  140.8576  133.8084  155.9232 LP  0  0  0  0  0  0  0  0  0  0  0  0  # atno 17395 bound_to 11000

$$$$
