AV-unprocessed.smi:3150|AV-procd|sdf|12014|dock8
  -GOLD-   2272017423D 1   1.00000     0.00000
 Structure written by MMmdl.
 32 33  0  0  0  0  0  0  0  0  2 V2000
  153.6375  140.1445  160.5108 C   0  0  0  0  0  0  0  0  0  0  0  0
  152.4009  140.5238  159.6820 C   0  0  1  0  0  0  0  0  0  0  0  0
  152.5683  141.8722  159.2508 O   0  0  0  0  0  0  0  0  0  0  0  0
  152.2007  142.8645  160.2015 C   0  0  0  0  0  0  0  0  0  0  0  0
  151.5423  144.0169  159.4744 C   0  0  0  0  0  0  0  0  0  0  0  0
  152.3376  144.8564  158.5002 C   0  0  0  0  0  0  0  0  0  0  0  0
  151.8963  145.4471  159.8149 C   0  0  0  0  0  0  0  0  0  0  0  0
  152.2253  139.5926  158.4708 C   0  0  0  0  0  0  0  0  0  0  0  0
  153.1254  139.5005  157.6348 O   0  0  0  0  0  0  0  0  0  0  0  0
  151.0512  138.9377  158.4087 N   0  0  0  0  0  0  0  0  0  0  0  0
  150.5870  138.0307  157.4166 C   0  0  0  0  0  0  0  0  0  0  0  0
  150.7274  138.2582  156.0862 N   0  0  0  0  0  0  0  0  0  0  0  0
  150.2597  137.3483  155.2071 C   0  0  0  0  0  0  0  0  0  0  0  0
  149.6239  136.1563  155.5959 C   0  0  0  0  0  0  0  0  0  0  0  0
  149.4707  135.9066  156.9707 C   0  0  0  0  0  0  0  0  0  0  0  0
  149.9564  136.8520  157.8960 C   0  0  0  0  0  0  0  0  0  0  0  0
  149.8054  136.6087  159.2346 O   0  5  0  0  0  0  0  0  0  0  0  0
  153.5807  139.1120  160.8571 H   0  0  0  0  0  0  0  0  0  0  0  0
  153.7221  140.7821  161.3908 H   0  0  0  0  0  0  0  0  0  0  0  0
  154.5572  140.2562  159.9351 H   0  0  0  0  0  0  0  0  0  0  0  0
  151.5244  140.4569  160.3297 H   0  0  0  0  0  0  0  0  0  0  0  0
  151.5138  142.4700  160.9513 H   0  0  0  0  0  0  0  0  0  0  0  0
  153.0852  143.2355  160.7206 H   0  0  0  0  0  0  0  0  0  0  0  0
  150.5063  143.8289  159.1985 H   0  0  0  0  0  0  0  0  0  0  0  0
  153.3958  144.6313  158.3824 H   0  0  0  0  0  0  0  0  0  0  0  0
  151.8303  145.1971  157.5999 H   0  0  0  0  0  0  0  0  0  0  0  0
  151.0929  146.1807  159.7935 H   0  0  0  0  0  0  0  0  0  0  0  0
  152.6589  145.6134  160.5733 H   0  0  0  0  0  0  0  0  0  0  0  0
  150.3966  139.1131  159.1574 H   0  0  0  0  0  0  0  0  0  0  0  0
  150.3974  137.5789  154.1610 H   0  0  0  0  0  0  0  0  0  0  0  0
  149.2634  135.4532  154.8600 H   0  0  0  0  0  0  0  0  0  0  0  0
  148.9865  135.0018  157.3086 H   0  0  0  0  0  0  0  0  0  0  0  0
  1  2  1  0  0  0  0
  1 18  1  0  0  0  0
  1 19  1  0  0  0  0
  1 20  1  0  0  0  0
  2  3  1  0  0  0  0
  2  8  1  0  0  0  0
  2 21  1  0  0  0  0
  3  4  1  0  0  0  0
  4  5  1  0  0  0  0
  4 22  1  0  0  0  0
  4 23  1  0  0  0  0
  5  7  1  0  0  0  0
  5  6  1  0  0  0  0
  5 24  1  0  0  0  0
  6  7  1  0  0  0  0
  6 25  1  0  0  0  0
  6 26  1  0  0  0  0
  7 27  1  0  0  0  0
  7 28  1  0  0  0  0
  8  9  2  0  0  0  0
  8 10  1  0  0  0  0
 10 29  1  0  0  0  0
 10 11  1  0  0  0  0
 11 16  2  0  0  0  0
 11 12  1  0  0  0  0
 12 13  2  0  0  0  0
 13 30  1  0  0  0  0
 13 14  1  0  0  0  0
 14 31  1  0  0  0  0
 14 15  2  0  0  0  0
 15 16  1  0  0  0  0
 15 32  1  0  0  0  0
 16 17  1  0  0  0  0
M  CHG  1  17  -1
M  END
> <s_m_source_file>
AV-unprocessed.smi

> <i_m_source_file_index>
3150

> <i_lp_mmshare_version>
43012

> <i_f3d_flags>
0

> <s_epik_input>
W0NIMl0xW0NIMl1bQ0hdMVtDSDJdT1tDQEBIXShbQ0gzXSlDKD1PKVtOSF1jMm5bY0hdW2NIXVtjSF1jMltPSF0=

> <s_epik_cmdline>
J2VwaWtfcHl0aG9uJywgJy1waCcsICc3LjAnLCAnLXRuJywgJzgnLCAnLW1hJywgJzIwMCcsICctbWV0YWxfYmluZGluZycsICctaW1hZScsICc8aW5maWxlLm1hZT4nLCAnLW9tYWUnLCAnPG91dGZpbGUubWFlPic=

> <r_epik_Ionization_Penalty>
4.12024

> <r_epik_Ionization_Penalty_Charging>
2.08551

> <r_epik_Ionization_Penalty_Neutral>
2.03473

> <r_epik_State_Penalty>
2.65726

> <r_epik_Charging_Adjusted_Penalty>
4.74277

> <i_epik_Tot_Q>
-1

> <i_epik_Tot_abs_Q>
1

> <r_epik_Metal_State_Penalty>
0.600747

> <b_epik_Metal_Only>
0

> <s_lp_Force_Field>
OPLS_2005

> <r_lp_Energy>
13.8702

> <b_lp_Chiralities_Consistent>
1

> <s_lp_Variant>
AV-unprocessed.smi:3150-8

> <Gold.Version>
5.8.1

> <Gold.Id.Protein>
6NUR|6NUR_protein|mol2

> <Gold.PLP.Fitness>
38.0227

> <Gold.PLP.PLP>
-30.8465

> <Gold.PLP.part.hbond>
-1.9933

> <Gold.PLP.part.metal>
0.0000

> <Gold.PLP.part.buried>
-4.7532

> <Gold.PLP.part.nonpolar>
-24.4417

> <Gold.PLP.part.repulsive>
0.1154

> <Gold.PLP.ligand.clash>
0.0000

> <Gold.PLP.ligand.torsion>
1.2074

> <Gold.PLP.Chemscore.Hbond>
3.0000

> <Gold.PLP.Chemscore.CHOScore>
0.0000

> <Gold.PLP.Chemscore.Metal>
0.0000

> <Gold.Chemscore.Hbonds>
donor molecule, donor type, donor heavy atom, donor atom, acceptor molecule, acceptor atom, score
      P1  H  6896  6908       L1    17  1.76
      P1  H  7997  8008       L1     9  1.00

> <Gold.PLP.Chemscore.Internal.Correction>
0.5910

> <Gold.Rescore>
     Score         DG    S(hbond)    S(metal)    S(lipo)     H(rot)  DE(clash)    DE(int)     intcor
     15.74     -16.83       1.96        0.00      76.89       1.64       0.00       1.10       ----

> <Gold.Chemscore.Fitness>
15.7356

> <Gold.Chemscore.DG>
-16.8343

> <Gold.Chemscore.ZeroCoef>
-5.4800

> <Gold.Chemscore.Hbond>
1.9620

> <Gold.Chemscore.Metal>
0.0000

> <Gold.Chemscore.Lipo>
76.8909

> <Gold.Chemscore.Internal_Hbond>
0.0000

> <Gold.Chemscore.DEClash>
0.0000

> <Gold.Chemscore.DEInternal>
1.0986

> <Gold.Chemscore.Rot>
1.6387

> <Gold.Chemscore.Internal.Correction>
   9.000000E+99

> <Gold.Chemscore.Hbonds>
donor molecule, donor type, donor heavy atom, donor atom, acceptor molecule, acceptor atom, score
      P1  H  6896  6908       L1    17  0.56
      P1  H  7997  8008       L1     9  1.00

> <Gold.Chemscore.Hbond.Weighted>
-6.5531

> <Gold.Chemscore.Metal.Weighted>
-0.0000

> <Gold.Chemscore.Lipo.Weighted>
-8.9962

> <Gold.Chemscore.Internal_Hbond.Weighted>
0.0000

> <Gold.Chemscore.DEClash.Weighted>
0.0000

> <Gold.Chemscore.DEInternal.Weighted>
1.0986

> <Gold.Chemscore.Rot.Weighted>
4.1950

> <Gold.Chemscore.Internal.Correction.Weighted>
   9.000000E+99

> <Gold.Protein.RotatedTorsions>
[ 6907 6896 6895 6894 ] final -171.84 input  -60.11 | X-H torsion
[ 7974 7965 7964 7962 ] final   74.56 input  175.53 | X-H torsion
[ 8008 7997 7996 7995 ] final  -80.73 input   59.86 | X-H torsion
[ 10167 10162 10161 10158 ] final  -25.54 input  -65.29 | X-H torsion
[ 10718 10713 10712 10709 ] final  -43.70 input   66.30 | X-H torsion
[ 10763 10752 10751 10750 ] final   67.26 input  -60.55 | X-H torsion
[ 11005 11000 10999 10996 ] final  -24.94 input  -57.11 | X-H torsion

> <Gold.Protein.ActiveResidues>
 VAL166  LYS551  ARG553  GLY616  TRP617  ASP618  TYR619  PRO620  LYS621  CYS622 
 ASP623  PHE694  ASN695  SER759  ASP760  ASP761  ALA762  ILE779  LEU786  VAL792 
 PHE793  MET794  SER795  GLU796  ALA797  LYS798  CYS799  TRP800  GLU811  SER814 

> <Gold.Protein.RotatedAtoms>
  151.5303  133.3450  159.2916 H   0  0  0  0  0  0  0  0  0  0  0  0  # atno 6907 bound_to 6896
  150.8598  134.7949  159.7085 H   0  0  0  0  0  0  0  0  0  0  0  0  # atno 6908 bound_to 6896
  152.4621  134.5170  159.9822 H   0  0  0  0  0  0  0  0  0  0  0  0  # atno 6909 bound_to 6896
  145.7267  139.2668  143.1565 H   0  0  0  0  0  0  0  0  0  0  0  0  # atno 7974 bound_to 7965
  154.5912  140.0658  156.9241 H   0  0  0  0  0  0  0  0  0  0  0  0  # atno 8008 bound_to 7997
  155.2292  140.3336  155.4287 H   0  0  0  0  0  0  0  0  0  0  0  0  # atno 8009 bound_to 7997
  156.2257  140.1818  156.7353 H   0  0  0  0  0  0  0  0  0  0  0  0  # atno 8010 bound_to 7997
  140.7286  143.4256  151.0882 H   0  0  0  0  0  0  0  0  0  0  0  0  # atno 10167 bound_to 10162
  156.2463  130.4184  149.8702 H   0  0  0  0  0  0  0  0  0  0  0  0  # atno 10718 bound_to 10713
  153.0178  135.5290  154.6951 H   0  0  0  0  0  0  0  0  0  0  0  0  # atno 10763 bound_to 10752
  154.6075  135.2875  155.0470 H   0  0  0  0  0  0  0  0  0  0  0  0  # atno 10764 bound_to 10752
  154.1504  135.6564  153.5015 H   0  0  0  0  0  0  0  0  0  0  0  0  # atno 10765 bound_to 10752
  140.8891  133.7600  156.0398 H   0  0  0  0  0  0  0  0  0  0  0  0  # atno 11005 bound_to 11000
  146.0576  140.8005  142.9751 LP  0  0  0  0  0  0  0  0  0  0  0  0  # atno 17320 bound_to 7965
  144.6903  140.3147  143.7242 LP  0  0  0  0  0  0  0  0  0  0  0  0  # atno 17321 bound_to 7965
  139.7907  143.8223  152.3151 LP  0  0  0  0  0  0  0  0  0  0  0  0  # atno 17342 bound_to 10162
  139.8205  144.7297  150.9578 LP  0  0  0  0  0  0  0  0  0  0  0  0  # atno 17343 bound_to 10162
  156.6266  130.8648  151.3486 LP  0  0  0  0  0  0  0  0  0  0  0  0  # atno 17370 bound_to 10713
  157.7196  130.9541  150.1387 LP  0  0  0  0  0  0  0  0  0  0  0  0  # atno 17371 bound_to 10713
  140.8368  134.3113  157.5328 LP  0  0  0  0  0  0  0  0  0  0  0  0  # atno 17394 bound_to 11000
  139.8727  134.9394  156.3741 LP  0  0  0  0  0  0  0  0  0  0  0  0  # atno 17395 bound_to 11000

$$$$
