AV-unprocessed.smi:3161|AV-procd|sdf|12062|dock8
  -GOLD-   2272017493D 1   1.00000     0.00000
 Structure written by MMmdl.
 40 41  0  0  0  0  0  0  0  0  1 V2000
  147.1936  140.4454  152.8068 C   0  0  0  0  0  0  0  0  0  0  0  0
  148.3200  140.2008  153.7692 C   0  0  0  0  0  0  0  0  0  0  0  0
  148.9251  138.9581  154.1109 C   0  0  0  0  0  0  0  0  0  0  0  0
  149.9002  139.0864  154.9951 N   0  0  0  0  0  0  0  0  0  0  0  0
  149.9483  140.4104  155.2565 N   0  0  0  0  0  0  0  0  0  0  0  0
  150.9239  140.9278  156.2032 C   0  0  0  0  0  0  0  0  0  0  0  0
  151.6353  139.8312  157.0367 C   0  0  1  0  0  0  0  0  0  0  0  0
  152.5521  138.9451  156.1787 C   0  0  0  0  0  0  0  0  0  0  0  0
  152.4011  140.3699  158.1662 N   0  0  0  0  0  0  0  0  0  0  0  0
  151.6260  141.1128  159.1583 C   0  0  0  0  0  0  0  0  0  0  0  0
  152.1767  142.5353  159.3289 C   0  0  1  0  0  0  0  0  0  0  0  0
  151.8707  143.4128  158.0996 C   0  0  0  0  0  0  0  0  0  0  0  0
  152.3424  144.8527  158.3321 C   0  0  0  0  0  0  0  0  0  0  0  0
  151.7507  145.3837  159.6417 C   0  0  0  0  0  0  0  0  0  0  0  0
  152.0491  144.4119  160.7941 C   0  0  0  0  0  0  0  0  0  0  0  0
  151.5541  143.1154  160.4742 O   0  0  0  0  0  0  0  0  0  0  0  0
  149.0094  141.1066  154.5245 C   0  0  0  0  0  0  0  0  0  0  0  0
  146.8421  139.5201  152.3496 H   0  0  0  0  0  0  0  0  0  0  0  0
  147.4945  141.1095  151.9964 H   0  0  0  0  0  0  0  0  0  0  0  0
  146.3367  140.9053  153.2994 H   0  0  0  0  0  0  0  0  0  0  0  0
  148.6863  137.9713  153.7423 H   0  0  0  0  0  0  0  0  0  0  0  0
  151.6390  141.5539  155.6697 H   0  0  0  0  0  0  0  0  0  0  0  0
  150.3995  141.6039  156.8795 H   0  0  0  0  0  0  0  0  0  0  0  0
  150.8563  139.1809  157.4364 H   0  0  0  0  0  0  0  0  0  0  0  0
  152.0100  138.5250  155.3312 H   0  0  0  0  0  0  0  0  0  0  0  0
  152.9460  138.1117  156.7610 H   0  0  0  0  0  0  0  0  0  0  0  0
  153.4034  139.5033  155.7877 H   0  0  0  0  0  0  0  0  0  0  0  0
  152.9017  139.6167  158.6276 H   0  0  0  0  0  0  0  0  0  0  0  0
  150.5853  141.1766  158.8419 H   0  0  0  0  0  0  0  0  0  0  0  0
  151.6338  140.5957  160.1186 H   0  0  0  0  0  0  0  0  0  0  0  0
  153.2575  142.4905  159.4783 H   0  0  0  0  0  0  0  0  0  0  0  0
  152.3537  143.0023  157.2122 H   0  0  0  0  0  0  0  0  0  0  0  0
  150.7980  143.4078  157.9017 H   0  0  0  0  0  0  0  0  0  0  0  0
  153.4316  144.8794  158.3836 H   0  0  0  0  0  0  0  0  0  0  0  0
  152.0510  145.4892  157.4962 H   0  0  0  0  0  0  0  0  0  0  0  0
  152.1530  146.3721  159.8655 H   0  0  0  0  0  0  0  0  0  0  0  0
  150.6714  145.5008  159.5348 H   0  0  0  0  0  0  0  0  0  0  0  0
  153.1200  144.3645  160.9975 H   0  0  0  0  0  0  0  0  0  0  0  0
  151.5664  144.7563  161.7087 H   0  0  0  0  0  0  0  0  0  0  0  0
  148.9083  142.1790  154.6045 H   0  0  0  0  0  0  0  0  0  0  0  0
  1  2  1  0  0  0  0
  1 18  1  0  0  0  0
  1 19  1  0  0  0  0
  1 20  1  0  0  0  0
  2 17  2  0  0  0  0
  2  3  1  0  0  0  0
  3  4  2  0  0  0  0
  3 21  1  0  0  0  0
  4  5  1  0  0  0  0
  5  6  1  0  0  0  0
  5 17  1  0  0  0  0
  6  7  1  0  0  0  0
  6 22  1  0  0  0  0
  6 23  1  0  0  0  0
  7  8  1  0  0  0  0
  7  9  1  0  0  0  0
  7 24  1  0  0  0  0
  8 25  1  0  0  0  0
  8 26  1  0  0  0  0
  8 27  1  0  0  0  0
  9 10  1  0  0  0  0
  9 28  1  0  0  0  0
 10 11  1  0  0  0  0
 10 29  1  0  0  0  0
 10 30  1  0  0  0  0
 11 16  1  0  0  0  0
 11 12  1  0  0  0  0
 11 31  1  0  0  0  0
 12 13  1  0  0  0  0
 12 32  1  0  0  0  0
 12 33  1  0  0  0  0
 13 14  1  0  0  0  0
 13 34  1  0  0  0  0
 13 35  1  0  0  0  0
 14 15  1  0  0  0  0
 14 36  1  0  0  0  0
 14 37  1  0  0  0  0
 15 16  1  0  0  0  0
 15 38  1  0  0  0  0
 15 39  1  0  0  0  0
 17 40  1  0  0  0  0
M  END
> <s_m_source_file>
AV-unprocessed.smi

> <i_m_source_file_index>
3161

> <i_lp_mmshare_version>
43012

> <i_f3d_flags>
0

> <s_epik_input>
W0NIM11jMVtjSF1ubihbY0hdMSlbQ0gyXVtDQEhdKFtDSDNdKVtOSF1bQ0gyXVtDQEBIXTJbQ0gyXVtDSDJdW0NIMl1bQ0gyXU8y

> <s_epik_cmdline>
J2VwaWtfcHl0aG9uJywgJy1waCcsICc3LjAnLCAnLXRuJywgJzgnLCAnLW1hJywgJzIwMCcsICctbWV0YWxfYmluZGluZycsICctaW1hZScsICc8aW5maWxlLm1hZT4nLCAnLW9tYWUnLCAnPG91dGZpbGUubWFlPic=

> <r_lp_tautomer_probability>
1

> <r_epik_Ionization_Penalty>
2.51986

> <r_epik_Ionization_Penalty_Charging>
0

> <r_epik_Ionization_Penalty_Neutral>
2.51986

> <r_epik_State_Penalty>
2.68614

> <r_epik_Charging_Adjusted_Penalty>
2.68614

> <i_epik_Tot_Q>
0

> <i_epik_Tot_abs_Q>
0

> <r_epik_Metal_State_Penalty>
2.68606

> <b_epik_Metal_Only>
0

> <s_lp_Force_Field>
OPLS_2005

> <r_lp_Energy>
14.0123

> <b_lp_Chiralities_Consistent>
1

> <s_lp_Variant>
AV-unprocessed.smi:3161-8

> <Gold.Version>
5.8.1

> <Gold.Id.Protein>
6NUR|6NUR_protein|mol2

> <Gold.PLP.Fitness>
44.8649

> <Gold.PLP.PLP>
-40.6625

> <Gold.PLP.part.hbond>
-1.5508

> <Gold.PLP.part.metal>
0.0000

> <Gold.PLP.part.buried>
0.1612

> <Gold.PLP.part.nonpolar>
-39.3548

> <Gold.PLP.part.repulsive>
0.1547

> <Gold.PLP.ligand.clash>
0.0000

> <Gold.PLP.ligand.torsion>
0.6115

> <Gold.PLP.Chemscore.Hbond>
0.0000

> <Gold.PLP.Chemscore.CHOScore>
1.7911

> <Gold.PLP.Chemscore.Metal>
0.0000

> <Gold.Chemscore.Hbonds>
donor molecule, donor type, donor heavy atom, donor atom, acceptor molecule, acceptor atom, score
      L1  C     3    21       P1  7948  0.93
      L1  C    17    40       P1  8028  0.49

> <Gold.PLP.Chemscore.Internal.Correction>
0.0521

> <Gold.Rescore>
     Score         DG    S(hbond)    S(metal)    S(lipo)     H(rot)  DE(clash)    DE(int)     intcor
     14.49     -15.49       0.00        0.00     118.41       1.50       0.49       0.50       ----

> <Gold.Chemscore.Fitness>
14.4907

> <Gold.Chemscore.DG>
-15.4867

> <Gold.Chemscore.ZeroCoef>
-5.4800

> <Gold.Chemscore.Hbond>
0.0000

> <Gold.Chemscore.Metal>
0.0000

> <Gold.Chemscore.Lipo>
118.4139

> <Gold.Chemscore.Internal_Hbond>
0.0000

> <Gold.Chemscore.DEClash>
0.4931

> <Gold.Chemscore.DEInternal>
0.5029

> <Gold.Chemscore.Rot>
1.5030

> <Gold.Chemscore.Internal.Correction>
   9.000000E+99

> <Gold.Chemscore.Hbond.Weighted>
-0.0000

> <Gold.Chemscore.Metal.Weighted>
-0.0000

> <Gold.Chemscore.Lipo.Weighted>
-13.8544

> <Gold.Chemscore.Internal_Hbond.Weighted>
0.0000

> <Gold.Chemscore.DEClash.Weighted>
0.4931

> <Gold.Chemscore.DEInternal.Weighted>
0.5029

> <Gold.Chemscore.Rot.Weighted>
3.8477

> <Gold.Chemscore.Internal.Correction.Weighted>
   9.000000E+99

> <Gold.Protein.RotatedTorsions>
[ 6907 6896 6895 6894 ] final  -75.05 input  -60.11 | X-H torsion
[ 7974 7965 7964 7962 ] final   61.51 input  175.53 | X-H torsion
[ 8008 7997 7996 7995 ] final   17.92 input   59.86 | X-H torsion
[ 10167 10162 10161 10158 ] final   93.56 input  -65.29 | X-H torsion
[ 10718 10713 10712 10709 ] final  170.26 input   66.30 | X-H torsion
[ 10763 10752 10751 10750 ] final  146.17 input  -60.55 | X-H torsion
[ 11005 11000 10999 10996 ] final  -74.07 input  -57.11 | X-H torsion

> <Gold.Protein.ActiveResidues>
 VAL166  LYS551  ARG553  GLY616  TRP617  ASP618  TYR619  PRO620  LYS621  CYS622 
 ASP623  PHE694  ASN695  SER759  ASP760  ASP761  ALA762  ILE779  LEU786  VAL792 
 PHE793  MET794  SER795  GLU796  ALA797  LYS798  CYS799  TRP800  GLU811  SER814 

> <Gold.Protein.RotatedAtoms>
  150.7072  134.4778  159.5455 H   0  0  0  0  0  0  0  0  0  0  0  0  # atno 6907 bound_to 6896
  152.2421  134.8215  160.0468 H   0  0  0  0  0  0  0  0  0  0  0  0  # atno 6908 bound_to 6896
  151.8993  133.3499  159.3862 H   0  0  0  0  0  0  0  0  0  0  0  0  # atno 6909 bound_to 6896
  145.8839  139.3463  143.0689 H   0  0  0  0  0  0  0  0  0  0  0  0  # atno 7974 bound_to 7965
  154.8985  140.2997  155.5331 H   0  0  0  0  0  0  0  0  0  0  0  0  # atno 8008 bound_to 7997
  156.3019  140.2411  156.3944 H   0  0  0  0  0  0  0  0  0  0  0  0  # atno 8009 bound_to 7997
  154.8546  140.0408  157.1615 H   0  0  0  0  0  0  0  0  0  0  0  0  # atno 8010 bound_to 7997
  139.8168  144.6749  150.9570 H   0  0  0  0  0  0  0  0  0  0  0  0  # atno 10167 bound_to 10162
  157.0108  131.0203  151.2804 H   0  0  0  0  0  0  0  0  0  0  0  0  # atno 10718 bound_to 10713
  154.0174  135.2909  155.3385 H   0  0  0  0  0  0  0  0  0  0  0  0  # atno 10763 bound_to 10752
  154.7066  135.5166  153.8608 H   0  0  0  0  0  0  0  0  0  0  0  0  # atno 10764 bound_to 10752
  153.0696  135.6643  154.0400 H   0  0  0  0  0  0  0  0  0  0  0  0  # atno 10765 bound_to 10752
  141.1631  133.6899  156.7309 H   0  0  0  0  0  0  0  0  0  0  0  0  # atno 11005 bound_to 11000
  145.8990  140.9255  143.0513 LP  0  0  0  0  0  0  0  0  0  0  0  0  # atno 17320 bound_to 7965
  144.6728  140.1007  143.7460 LP  0  0  0  0  0  0  0  0  0  0  0  0  # atno 17321 bound_to 7965
  140.7815  143.4131  151.0961 LP  0  0  0  0  0  0  0  0  0  0  0  0  # atno 17342 bound_to 10162
  139.7794  143.8378  152.3135 LP  0  0  0  0  0  0  0  0  0  0  0  0  # atno 17343 bound_to 10162
  157.5322  130.8066  149.7930 LP  0  0  0  0  0  0  0  0  0  0  0  0  # atno 17370 bound_to 10713
  156.0137  130.3822  150.2181 LP  0  0  0  0  0  0  0  0  0  0  0  0  # atno 17371 bound_to 10713
  140.2746  134.8365  157.3878 LP  0  0  0  0  0  0  0  0  0  0  0  0  # atno 17394 bound_to 11000
  140.1490  134.4875  155.7975 LP  0  0  0  0  0  0  0  0  0  0  0  0  # atno 17395 bound_to 11000

$$$$
