AV-unprocessed.smi:1973|AV-procd|sdf|7976|dock4
  -GOLD-   2272010153D 1   1.00000     0.00000
 Structure written by MMmdl.
 48 50  0  0  0  0  0  0  0  0  2 V2000
  142.1723  131.5990  160.7717 C   0  0  0  0  0  0  0  0  0  0  0  0
  143.5819  131.4556  160.7743 O   0  0  0  0  0  0  0  0  0  0  0  0
  144.2474  132.6476  161.1561 C   0  0  0  0  0  0  0  0  0  0  0  0
  145.7641  132.4083  161.1057 C   0  0  0  0  0  0  0  0  0  0  0  0
  146.5163  133.6557  161.2791 N   0  0  0  0  0  0  0  0  0  0  0  0
  147.3091  133.9935  160.1948 N   0  0  0  0  0  0  0  0  0  0  0  0
  148.0343  135.0631  160.2256 C   0  0  0  0  0  0  0  0  0  0  0  0
  148.8936  135.4093  159.0573 C   0  0  0  0  0  0  0  0  0  0  0  0
  149.7510  136.2907  159.1375 O   0  0  0  0  0  0  0  0  0  0  0  0
  148.6767  134.7136  157.9273 N   0  0  0  0  0  0  0  0  0  0  0  0
  149.3910  134.9052  156.6695 C   0  0  0  0  0  0  0  0  0  0  0  0
  148.7502  134.1169  155.5112 C   0  0  2  0  0  0  0  0  0  0  0  0
  149.7502  133.6131  154.4743 C   0  0  0  0  0  0  0  0  0  0  0  0
  148.8610  133.3374  153.2653 C   0  0  0  0  0  0  0  0  0  0  0  0
  147.8329  134.3994  153.2850 N   0  3  1  0  0  0  0  0  0  0  0  0
  146.5372  133.9908  152.7025 C   0  0  0  0  0  0  0  0  0  0  0  0
  146.5962  133.7406  151.2147 C   0  0  0  0  0  0  0  0  0  0  0  0
  145.9598  135.0068  151.7461 C   0  0  0  0  0  0  0  0  0  0  0  0
  147.7402  134.9148  154.6712 C   0  0  0  0  0  0  0  0  0  0  0  0
  148.0208  135.9376  161.3918 C   0  0  0  0  0  0  0  0  0  0  0  0
  147.2366  135.5972  162.4377 C   0  0  0  0  0  0  0  0  0  0  0  0
  146.4137  134.3873  162.4292 C   0  0  0  0  0  0  0  0  0  0  0  0
  145.6934  134.0576  163.3709 O   0  0  0  0  0  0  0  0  0  0  0  0
  141.7089  130.6621  160.4621 H   0  0  0  0  0  0  0  0  0  0  0  0
  141.8553  132.3776  160.0766 H   0  0  0  0  0  0  0  0  0  0  0  0
  141.8003  131.8451  161.7671 H   0  0  0  0  0  0  0  0  0  0  0  0
  143.9725  133.4594  160.4808 H   0  0  0  0  0  0  0  0  0  0  0  0
  143.9410  132.9374  162.1623 H   0  0  0  0  0  0  0  0  0  0  0  0
  146.0536  131.6834  161.8687 H   0  0  0  0  0  0  0  0  0  0  0  0
  146.0250  131.9448  160.1525 H   0  0  0  0  0  0  0  0  0  0  0  0
  147.9492  134.0131  157.9376 H   0  0  0  0  0  0  0  0  0  0  0  0
  149.3902  135.9718  156.4422 H   0  0  0  0  0  0  0  0  0  0  0  0
  150.4369  134.6180  156.7898 H   0  0  0  0  0  0  0  0  0  0  0  0
  148.2350  133.2443  155.9168 H   0  0  0  0  0  0  0  0  0  0  0  0
  150.4762  134.3913  154.2337 H   0  0  0  0  0  0  0  0  0  0  0  0
  150.2974  132.7301  154.8060 H   0  0  0  0  0  0  0  0  0  0  0  0
  149.4158  133.3346  152.3268 H   0  0  0  0  0  0  0  0  0  0  0  0
  148.3874  132.3606  153.3788 H   0  0  0  0  0  0  0  0  0  0  0  0
  145.8830  133.3971  153.3392 H   0  0  0  0  0  0  0  0  0  0  0  0
  147.5584  133.8338  150.7139 H   0  0  0  0  0  0  0  0  0  0  0  0
  145.9311  132.9826  150.8058 H   0  0  0  0  0  0  0  0  0  0  0  0
  144.8757  135.0819  151.6875 H   0  0  0  0  0  0  0  0  0  0  0  0
  146.4993  135.9408  151.5981 H   0  0  0  0  0  0  0  0  0  0  0  0
  146.7327  134.8308  155.0822 H   0  0  0  0  0  0  0  0  0  0  0  0
  147.9978  135.9743  154.6518 H   0  0  0  0  0  0  0  0  0  0  0  0
  148.6102  136.8408  161.4391 H   0  0  0  0  0  0  0  0  0  0  0  0
  147.2140  136.2362  163.3083 H   0  0  0  0  0  0  0  0  0  0  0  0
  148.1897  135.1600  152.7244 H   0  0  0  0  0  0  0  0  0  0  0  0
  1  2  1  0  0  0  0
  1 24  1  0  0  0  0
  1 25  1  0  0  0  0
  1 26  1  0  0  0  0
  2  3  1  0  0  0  0
  3  4  1  0  0  0  0
  3 27  1  0  0  0  0
  3 28  1  0  0  0  0
  4  5  1  0  0  0  0
  4 29  1  0  0  0  0
  4 30  1  0  0  0  0
  5 22  1  0  0  0  0
  5  6  1  0  0  0  0
  6  7  2  0  0  0  0
  7  8  1  0  0  0  0
  7 20  1  0  0  0  0
  8  9  2  0  0  0  0
  8 10  1  0  0  0  0
 10 11  1  0  0  0  0
 10 31  1  0  0  0  0
 11 12  1  0  0  0  0
 11 32  1  0  0  0  0
 11 33  1  0  0  0  0
 12 19  1  0  0  0  0
 12 13  1  0  0  0  0
 12 34  1  0  0  0  0
 13 14  1  0  0  0  0
 13 35  1  0  0  0  0
 13 36  1  0  0  0  0
 14 15  1  0  0  0  0
 14 37  1  0  0  0  0
 14 38  1  0  0  0  0
 15 16  1  0  0  0  0
 15 19  1  0  0  0  0
 15 48  1  0  0  0  0
 16 18  1  0  0  0  0
 16 17  1  0  0  0  0
 16 39  1  0  0  0  0
 17 18  1  0  0  0  0
 17 40  1  0  0  0  0
 17 41  1  0  0  0  0
 18 42  1  0  0  0  0
 18 43  1  0  0  0  0
 19 44  1  0  0  0  0
 19 45  1  0  0  0  0
 20 21  2  0  0  0  0
 20 46  1  0  0  0  0
 21 22  1  0  0  0  0
 21 47  1  0  0  0  0
 22 23  2  0  0  0  0
M  CHG  1  15   1
M  END
> <s_m_source_file>
AV-unprocessed.smi

> <i_m_source_file_index>
1973

> <i_lp_mmshare_version>
43012

> <i_f3d_flags>
0

> <s_epik_input>
W0NIM11PW0NIMl1bQ0gyXW4xbmMoW2NIXVtjSF1jMT1PKUMoPU8pW05IXVtDSDJdW0NAQEhdMltDSDJdW0NIMl1OKFtDSDJdMilbQ0hdM1tDSDJdW0NIMl0z

> <s_epik_cmdline>
J2VwaWtfcHl0aG9uJywgJy1waCcsICc3LjAnLCAnLXRuJywgJzgnLCAnLW1hJywgJzIwMCcsICctbWV0YWxfYmluZGluZycsICctaW1hZScsICc8aW5maWxlLm1hZT4nLCAnLW9tYWUnLCAnPG91dGZpbGUubWFlPic=

> <r_lp_tautomer_probability>
1

> <r_epik_Ionization_Penalty>
0.000225706

> <r_epik_Ionization_Penalty_Charging>
0.000223776

> <r_epik_Ionization_Penalty_Neutral>
1.93004e-06

> <r_epik_State_Penalty>
-0

> <r_epik_Charging_Adjusted_Penalty>
0.000223776

> <i_epik_Tot_Q>
1

> <i_epik_Tot_abs_Q>
1

> <r_epik_Metal_State_Penalty>
-0

> <b_epik_Metal_Only>
0

> <s_lp_Force_Field>
OPLS_2005

> <r_lp_Energy>
57.8958

> <b_lp_Chiralities_Consistent>
1

> <s_lp_Variant>
AV-unprocessed.smi:1973-1

> <Gold.Version>
5.8.1

> <Gold.Id.Protein>
6NUR|6NUR_protein|mol2

> <Gold.PLP.Fitness>
43.1547

> <Gold.PLP.PLP>
-35.3741

> <Gold.PLP.part.hbond>
-3.0000

> <Gold.PLP.part.metal>
0.0000

> <Gold.PLP.part.buried>
-5.0240

> <Gold.PLP.part.nonpolar>
-27.4367

> <Gold.PLP.part.repulsive>
0.2168

> <Gold.PLP.ligand.clash>
0.0000

> <Gold.PLP.ligand.torsion>
1.2487

> <Gold.PLP.Chemscore.Hbond>
3.0000

> <Gold.PLP.Chemscore.CHOScore>
0.0000

> <Gold.PLP.Chemscore.Metal>
0.0000

> <Gold.Chemscore.Hbonds>
donor molecule, donor type, donor heavy atom, donor atom, acceptor molecule, acceptor atom, score
      L1  H    15    48       P1  7948  2.00
      P1  H  6896  6907       L1     9  0.50

> <Gold.PLP.Chemscore.Internal.Correction>
1.2780

> <Gold.Rescore>
     Score         DG    S(hbond)    S(metal)    S(lipo)     H(rot)  DE(clash)    DE(int)     intcor
     13.73     -15.02       1.94        0.00      69.25       1.97       0.00       1.29       ----

> <Gold.Chemscore.Fitness>
13.7274

> <Gold.Chemscore.DG>
-15.0193

> <Gold.Chemscore.ZeroCoef>
-5.4800

> <Gold.Chemscore.Hbond>
1.9412

> <Gold.Chemscore.Metal>
0.0000

> <Gold.Chemscore.Lipo>
69.2466

> <Gold.Chemscore.Internal_Hbond>
0.0000

> <Gold.Chemscore.DEClash>
0.0033

> <Gold.Chemscore.DEInternal>
1.2886

> <Gold.Chemscore.Rot>
1.9711

> <Gold.Chemscore.Internal.Correction>
   9.000000E+99

> <Gold.Chemscore.Hbonds>
donor molecule, donor type, donor heavy atom, donor atom, acceptor molecule, acceptor atom, score
      L1  H    15    48       P1  7948  0.88
      P1  H  6896  6907       L1     9  0.02

> <Gold.Chemscore.Hbond.Weighted>
-6.4835

> <Gold.Chemscore.Metal.Weighted>
-0.0000

> <Gold.Chemscore.Lipo.Weighted>
-8.1019

> <Gold.Chemscore.Internal_Hbond.Weighted>
0.0000

> <Gold.Chemscore.DEClash.Weighted>
0.0033

> <Gold.Chemscore.DEInternal.Weighted>
1.2886

> <Gold.Chemscore.Rot.Weighted>
5.0460

> <Gold.Chemscore.Internal.Correction.Weighted>
   9.000000E+99

> <Gold.Protein.RotatedTorsions>
[ 6907 6896 6895 6894 ] final  -34.50 input  -60.11 | X-H torsion
[ 7974 7965 7964 7962 ] final    8.04 input  175.53 | X-H torsion
[ 8008 7997 7996 7995 ] final -179.45 input   59.86 | X-H torsion
[ 10167 10162 10161 10158 ] final   78.23 input  -65.29 | X-H torsion
[ 10718 10713 10712 10709 ] final   46.91 input   66.30 | X-H torsion
[ 10763 10752 10751 10750 ] final  -32.54 input  -60.55 | X-H torsion
[ 11005 11000 10999 10996 ] final   92.74 input  -57.11 | X-H torsion

> <Gold.Protein.ActiveResidues>
 VAL166  LYS551  ARG553  GLY616  TRP617  ASP618  TYR619  PRO620  LYS621  CYS622 
 ASP623  PHE694  ASN695  SER759  ASP760  ASP761  ALA762  ILE779  LEU786  VAL792 
 PHE793  MET794  SER795  GLU796  ALA797  LYS798  CYS799  TRP800  GLU811  SER814 

> <Gold.Protein.RotatedAtoms>
  151.0518  134.9678  159.8215 H   0  0  0  0  0  0  0  0  0  0  0  0  # atno 6907 bound_to 6896
  152.5382  134.2527  159.8915 H   0  0  0  0  0  0  0  0  0  0  0  0  # atno 6908 bound_to 6896
  151.2543  133.4291  159.2647 H   0  0  0  0  0  0  0  0  0  0  0  0  # atno 6909 bound_to 6896
  146.2420  139.9993  142.8417 H   0  0  0  0  0  0  0  0  0  0  0  0  # atno 7974 bound_to 7965
  156.0307  140.1281  157.0261 H   0  0  0  0  0  0  0  0  0  0  0  0  # atno 8008 bound_to 7997
  154.4349  140.1050  156.6165 H   0  0  0  0  0  0  0  0  0  0  0  0  # atno 8009 bound_to 7997
  155.5811  140.3468  155.4543 H   0  0  0  0  0  0  0  0  0  0  0  0  # atno 8010 bound_to 7997
  139.9731  144.5880  150.7967 H   0  0  0  0  0  0  0  0  0  0  0  0  # atno 10167 bound_to 10162
  157.4530  130.8150  149.7807 H   0  0  0  0  0  0  0  0  0  0  0  0  # atno 10718 bound_to 10713
  153.8154  135.6879  153.4835 H   0  0  0  0  0  0  0  0  0  0  0  0  # atno 10763 bound_to 10752
  153.1602  135.4583  154.9760 H   0  0  0  0  0  0  0  0  0  0  0  0  # atno 10764 bound_to 10752
  154.7950  135.3315  154.7631 H   0  0  0  0  0  0  0  0  0  0  0  0  # atno 10765 bound_to 10752
  139.8819  134.8750  156.3616 H   0  0  0  0  0  0  0  0  0  0  0  0  # atno 11005 bound_to 11000
  145.1430  140.9582  143.4477 LP  0  0  0  0  0  0  0  0  0  0  0  0  # atno 17320 bound_to 7965
  145.0278  139.3368  143.6040 LP  0  0  0  0  0  0  0  0  0  0  0  0  # atno 17321 bound_to 7965
  140.7515  143.2974  151.3170 LP  0  0  0  0  0  0  0  0  0  0  0  0  # atno 17342 bound_to 10162
  139.6466  144.0440  152.2595 LP  0  0  0  0  0  0  0  0  0  0  0  0  # atno 17343 bound_to 10162
  155.9995  130.3888  150.2662 LP  0  0  0  0  0  0  0  0  0  0  0  0  # atno 17370 bound_to 10713
  157.0834  131.0150  151.3148 LP  0  0  0  0  0  0  0  0  0  0  0  0  # atno 17371 bound_to 10713
  140.9525  133.7441  156.0291 LP  0  0  0  0  0  0  0  0  0  0  0  0  # atno 17394 bound_to 11000
  140.8088  134.3423  157.5418 LP  0  0  0  0  0  0  0  0  0  0  0  0  # atno 17395 bound_to 11000

$$$$
