AV-unprocessed.smi:3253|AV-procd|sdf|12450|dock2
  -GOLD-   2272018343D 1   1.00000     0.00000
 Structure written by MMmdl.
 36 37  0  0  0  0  0  0  0  0  1 V2000
  145.3628  135.7532  153.8473 C   0  0  0  0  0  0  0  0  0  0  0  0
  145.8885  134.5828  153.0053 C   0  0  1  0  0  0  0  0  0  0  0  0
  145.6083  134.8003  151.5029 C   0  0  0  0  0  0  0  0  0  0  0  0
  145.2685  133.5696  150.8120 N   0  0  0  0  0  0  0  0  0  0  0  0
  146.1363  132.5552  150.4283 C   0  0  0  0  0  0  0  0  0  0  0  0
  145.3675  131.5895  149.8192 C   0  0  0  0  0  0  0  0  0  0  0  0
  144.0335  131.9896  149.8098 N   0  0  0  0  0  0  0  0  0  0  0  0
  144.0530  133.1713  150.4125 C   0  0  0  0  0  0  0  0  0  0  0  0
  147.3225  134.4291  153.2477 N   0  0  0  0  0  0  0  0  0  0  0  0
  147.8886  133.5004  154.0350 C   0  0  0  0  0  0  0  0  0  0  0  0
  147.2426  132.6798  154.6874 O   0  0  0  0  0  0  0  0  0  0  0  0
  149.4239  133.4827  154.0751 C   0  0  2  0  0  0  0  0  0  0  0  0
  149.9421  132.4422  155.0891 C   0  0  0  0  0  0  0  0  0  0  0  0
  150.5840  133.2808  156.1814 C   0  0  0  0  0  0  0  0  0  0  0  0
  151.0281  132.7968  157.2213 O   0  0  0  0  0  0  0  0  0  0  0  0
  150.5832  134.5755  155.8527 N   0  0  0  0  0  0  0  0  0  0  0  0
  151.1049  135.6628  156.6696 C   0  0  0  0  0  0  0  0  0  0  0  0
  150.0209  134.8301  154.5376 C   0  0  0  0  0  0  0  0  0  0  0  0
  144.2883  135.8808  153.7136 H   0  0  0  0  0  0  0  0  0  0  0  0
  145.8458  136.6914  153.5712 H   0  0  0  0  0  0  0  0  0  0  0  0
  145.5433  135.5848  154.9096 H   0  0  0  0  0  0  0  0  0  0  0  0
  145.3575  133.6876  153.3343 H   0  0  0  0  0  0  0  0  0  0  0  0
  144.7776  135.4952  151.3731 H   0  0  0  0  0  0  0  0  0  0  0  0
  146.4719  135.2520  151.0125 H   0  0  0  0  0  0  0  0  0  0  0  0
  147.1977  132.5991  150.6223 H   0  0  0  0  0  0  0  0  0  0  0  0
  145.6692  130.6453  149.3903 H   0  0  0  0  0  0  0  0  0  0  0  0
  143.1607  133.7585  150.5736 H   0  0  0  0  0  0  0  0  0  0  0  0
  147.9348  135.0615  152.7531 H   0  0  0  0  0  0  0  0  0  0  0  0
  149.8022  133.2451  153.0793 H   0  0  0  0  0  0  0  0  0  0  0  0
  149.1588  131.8077  155.5076 H   0  0  0  0  0  0  0  0  0  0  0  0
  150.6941  131.7940  154.6383 H   0  0  0  0  0  0  0  0  0  0  0  0
  152.1238  135.4480  156.9938 H   0  0  0  0  0  0  0  0  0  0  0  0
  150.4840  135.8036  157.5548 H   0  0  0  0  0  0  0  0  0  0  0  0
  151.1194  136.5999  156.1124 H   0  0  0  0  0  0  0  0  0  0  0  0
  150.8140  135.1540  153.8624 H   0  0  0  0  0  0  0  0  0  0  0  0
  149.2825  135.6327  154.5866 H   0  0  0  0  0  0  0  0  0  0  0  0
  1  2  1  0  0  0  0
  1 19  1  0  0  0  0
  1 20  1  0  0  0  0
  1 21  1  0  0  0  0
  2  3  1  0  0  0  0
  2  9  1  0  0  0  0
  2 22  1  0  0  0  0
  3  4  1  0  0  0  0
  3 23  1  0  0  0  0
  3 24  1  0  0  0  0
  4  8  1  0  0  0  0
  4  5  1  0  0  0  0
  5  6  2  0  0  0  0
  5 25  1  0  0  0  0
  6  7  1  0  0  0  0
  6 26  1  0  0  0  0
  7  8  2  0  0  0  0
  8 27  1  0  0  0  0
  9 10  1  0  0  0  0
  9 28  1  0  0  0  0
 10 11  2  0  0  0  0
 10 12  1  0  0  0  0
 12 18  1  0  0  0  0
 12 13  1  0  0  0  0
 12 29  1  0  0  0  0
 13 14  1  0  0  0  0
 13 30  1  0  0  0  0
 13 31  1  0  0  0  0
 14 15  2  0  0  0  0
 14 16  1  0  0  0  0
 16 17  1  0  0  0  0
 16 18  1  0  0  0  0
 17 32  1  0  0  0  0
 17 33  1  0  0  0  0
 17 34  1  0  0  0  0
 18 35  1  0  0  0  0
 18 36  1  0  0  0  0
M  END
> <s_m_source_file>
AV-unprocessed.smi

> <i_m_source_file_index>
3253

> <i_lp_mmshare_version>
43012

> <i_f3d_flags>
0

> <s_epik_input>
W2NIXTFuW2NIXVtjSF1uMVtDSDJdW0NAQEhdKFtDSDNdKVtOSF1DKD1PKVtDQEBIXTJbQ0gyXUMoPU8pTihbQ0gzXSlbQ0gyXTI=

> <s_epik_cmdline>
J2VwaWtfcHl0aG9uJywgJy1waCcsICc3LjAnLCAnLXRuJywgJzgnLCAnLW1hJywgJzIwMCcsICctbWV0YWxfYmluZGluZycsICctaW1hZScsICc8aW5maWxlLm1hZT4nLCAnLW9tYWUnLCAnPG91dGZpbGUubWFlPic=

> <r_lp_tautomer_probability>
1

> <r_epik_Ionization_Penalty>
0.628884

> <r_epik_Ionization_Penalty_Charging>
0.628884

> <r_epik_Ionization_Penalty_Neutral>
2.35084e-08

> <r_epik_State_Penalty>
0.64556

> <r_epik_Charging_Adjusted_Penalty>
1.27444

> <i_epik_Tot_Q>
0

> <i_epik_Tot_abs_Q>
0

> <r_epik_Metal_State_Penalty>
0.308736

> <b_epik_Metal_Only>
0

> <s_lp_Force_Field>
OPLS_2005

> <r_lp_Energy>
12.6473

> <b_lp_Chiralities_Consistent>
1

> <s_lp_Variant>
AV-unprocessed.smi:3253-6

> <Gold.Version>
5.8.1

> <Gold.Id.Protein>
6NUR|6NUR_protein|mol2

> <Gold.PLP.Fitness>
40.8270

> <Gold.PLP.PLP>
-30.7048

> <Gold.PLP.part.hbond>
-2.5855

> <Gold.PLP.part.metal>
0.0000

> <Gold.PLP.part.buried>
-4.1454

> <Gold.PLP.part.nonpolar>
-24.8498

> <Gold.PLP.part.repulsive>
0.2086

> <Gold.PLP.ligand.clash>
0.0000

> <Gold.PLP.ligand.torsion>
0.9415

> <Gold.PLP.Chemscore.Hbond>
2.0853

> <Gold.PLP.Chemscore.CHOScore>
1.8976

> <Gold.PLP.Chemscore.Metal>
0.0000

> <Gold.Chemscore.Hbonds>
donor molecule, donor type, donor heavy atom, donor atom, acceptor molecule, acceptor atom, score
      L1  H     9    28       P1  7948  1.00
      P1  H  6896  6907       L1    15  0.86
      P1  H 10785 10796       L1     7  0.22
      L1  C     5    25       P1 10747  1.00
      L1  C     8    27       P1 10186  1.00

> <Gold.PLP.Chemscore.Internal.Correction>
0.0565

> <Gold.Rescore>
     Score         DG    S(hbond)    S(metal)    S(lipo)     H(rot)  DE(clash)    DE(int)     intcor
     12.63     -13.51       2.07        0.00      52.43       1.97       0.04       0.84       ----

> <Gold.Chemscore.Fitness>
12.6296

> <Gold.Chemscore.DG>
-13.5081

> <Gold.Chemscore.ZeroCoef>
-5.4800

> <Gold.Chemscore.Hbond>
2.0746

> <Gold.Chemscore.Metal>
0.0000

> <Gold.Chemscore.Lipo>
52.4283

> <Gold.Chemscore.Internal_Hbond>
0.0000

> <Gold.Chemscore.DEClash>
0.0405

> <Gold.Chemscore.DEInternal>
0.8380

> <Gold.Chemscore.Rot>
1.9669

> <Gold.Chemscore.Internal.Correction>
   9.000000E+99

> <Gold.Chemscore.Hbonds>
donor molecule, donor type, donor heavy atom, donor atom, acceptor molecule, acceptor atom, score
      L1  H     9    28       P1  7948  0.97
      P1  H  6896  6907       L1    15  0.81
      P1  H 10785 10796       L1     7  0.03

> <Gold.Chemscore.Hbond.Weighted>
-6.9292

> <Gold.Chemscore.Metal.Weighted>
-0.0000

> <Gold.Chemscore.Lipo.Weighted>
-6.1341

> <Gold.Chemscore.Internal_Hbond.Weighted>
0.0000

> <Gold.Chemscore.DEClash.Weighted>
0.0405

> <Gold.Chemscore.DEInternal.Weighted>
0.8380

> <Gold.Chemscore.Rot.Weighted>
5.0352

> <Gold.Chemscore.Internal.Correction.Weighted>
   9.000000E+99

> <Gold.Protein.RotatedTorsions>
[ 6907 6896 6895 6894 ] final -158.76 input  -60.11 | X-H torsion
[ 7974 7965 7964 7962 ] final  -16.40 input  175.53 | X-H torsion
[ 8008 7997 7996 7995 ] final  -33.24 input   59.86 | X-H torsion
[ 10167 10162 10161 10158 ] final   29.96 input  -65.29 | X-H torsion
[ 10718 10713 10712 10709 ] final -113.90 input   66.30 | X-H torsion
[ 10763 10752 10751 10750 ] final   16.45 input  -60.55 | X-H torsion
[ 11005 11000 10999 10996 ] final  145.46 input  -57.11 | X-H torsion

> <Gold.Protein.ActiveResidues>
 VAL166  LYS551  ARG553  GLY616  TRP617  ASP618  TYR619  PRO620  LYS621  CYS622 
 ASP623  PHE694  ASN695  SER759  ASP760  ASP761  ALA762  ILE779  LEU786  VAL792 
 PHE793  MET794  SER795  GLU796  ALA797  LYS798  CYS799  TRP800  GLU811  SER814 

> <Gold.Protein.RotatedAtoms>
  151.3232  133.4031  159.2655 H   0  0  0  0  0  0  0  0  0  0  0  0  # atno 6907 bound_to 6896
  151.0017  134.9328  159.7968 H   0  0  0  0  0  0  0  0  0  0  0  0  # atno 6908 bound_to 6896
  152.5277  134.3197  159.9196 H   0  0  0  0  0  0  0  0  0  0  0  0  # atno 6909 bound_to 6896
  146.1989  140.3630  142.8430 H   0  0  0  0  0  0  0  0  0  0  0  0  # atno 7974 bound_to 7965
  154.4155  140.1716  156.1856 H   0  0  0  0  0  0  0  0  0  0  0  0  # atno 8008 bound_to 7997
  155.9645  140.3391  155.6497 H   0  0  0  0  0  0  0  0  0  0  0  0  # atno 8009 bound_to 7997
  155.6705  140.0711  157.2512 H   0  0  0  0  0  0  0  0  0  0  0  0  # atno 8010 bound_to 7997
  140.4720  144.0748  150.6240 H   0  0  0  0  0  0  0  0  0  0  0  0  # atno 10167 bound_to 10162
  156.0796  130.5998  150.8704 H   0  0  0  0  0  0  0  0  0  0  0  0  # atno 10718 bound_to 10713
  153.1429  135.6763  153.8999 H   0  0  0  0  0  0  0  0  0  0  0  0  # atno 10763 bound_to 10752
  153.8449  135.3100  155.3430 H   0  0  0  0  0  0  0  0  0  0  0  0  # atno 10764 bound_to 10752
  154.7802  135.4892  153.9913 H   0  0  0  0  0  0  0  0  0  0  0  0  # atno 10765 bound_to 10752
  140.0714  134.9150  157.1351 H   0  0  0  0  0  0  0  0  0  0  0  0  # atno 11005 bound_to 11000
  144.8640  140.7180  143.6089 LP  0  0  0  0  0  0  0  0  0  0  0  0  # atno 17320 bound_to 7965
  145.3550  139.1696  143.4414 LP  0  0  0  0  0  0  0  0  0  0  0  0  # atno 17321 bound_to 7965
  140.3965  143.2725  151.9999 LP  0  0  0  0  0  0  0  0  0  0  0  0  # atno 17342 bound_to 10162
  139.4820  144.6034  151.7565 LP  0  0  0  0  0  0  0  0  0  0  0  0  # atno 17343 bound_to 10162
  157.5906  131.0944  150.9124 LP  0  0  0  0  0  0  0  0  0  0  0  0  # atno 17370 bound_to 10713
  156.9301  130.5346  149.5279 LP  0  0  0  0  0  0  0  0  0  0  0  0  # atno 17371 bound_to 10713
  140.3622  134.2482  155.7186 LP  0  0  0  0  0  0  0  0  0  0  0  0  # atno 17394 bound_to 11000
  141.2013  133.7966  157.0447 LP  0  0  0  0  0  0  0  0  0  0  0  0  # atno 17395 bound_to 11000

$$$$
