AV-unprocessed.smi:2973|AV-procd|sdf|11350|dock4
  -GOLD-   2272016263D 1   1.00000     0.00000
 Structure written by MMmdl.
 49 51  0  0  0  0  0  0  0  0  3 V2000
  152.6683  139.0892  158.4690 C   0  0  0  0  0  0  0  0  0  0  0  0
  151.9139  140.4161  158.7047 C   0  0  1  0  0  0  0  0  0  0  0  0
  152.9050  141.5722  158.9612 C   0  0  0  0  0  0  0  0  0  0  0  0
  152.1793  142.8807  159.3071 C   0  0  0  0  0  0  0  0  0  0  0  0
  151.1865  143.2709  158.2047 C   0  0  0  0  0  0  0  0  0  0  0  0
  150.1808  142.1385  157.9357 C   0  0  0  0  0  0  0  0  0  0  0  0
  150.8713  140.7902  157.6011 C   0  0  1  0  0  0  0  0  0  0  0  0
  151.4762  140.8524  156.2798 N   0  5  0  0  0  0  0  0  0  0  0  0
  150.8557  139.9657  155.4678 C   0  0  0  0  0  0  0  0  0  0  0  0
  151.0944  139.7664  154.2776 O   0  0  0  0  0  0  0  0  0  0  0  0
  149.8906  139.2991  156.1294 N   0  0  0  0  0  0  0  0  0  0  0  0
  148.9895  138.2995  155.5343 C   0  0  0  0  0  0  0  0  0  0  0  0
  147.8619  138.8892  154.6685 C   0  0  0  0  0  0  0  0  0  0  0  0
  147.0540  139.6631  155.1816 O   0  0  0  0  0  0  0  0  0  0  0  0
  147.8110  138.5445  153.3704 N   0  0  0  0  0  0  0  0  0  0  0  0
  146.8427  139.0391  152.4018 C   0  0  0  0  0  0  0  0  0  0  0  0
  146.5269  137.9760  151.3372 C   0  0  0  0  0  0  0  0  0  0  0  0
  145.3986  137.0565  151.7599 C   0  0  0  0  0  0  0  0  0  0  0  0
  145.4711  135.6556  151.6012 C   0  0  0  0  0  0  0  0  0  0  0  0
  144.3856  134.8581  152.0201 C   0  0  0  0  0  0  0  0  0  0  0  0
  143.2535  135.4771  152.5896 C   0  0  0  0  0  0  0  0  0  0  0  0
  143.2349  136.8803  152.7249 C   0  0  0  0  0  0  0  0  0  0  0  0
  144.2940  137.6098  152.3106 N   0  3  0  0  0  0  0  0  0  0  0  0
  149.8184  139.7100  157.4005 C   0  0  0  0  0  0  0  0  0  0  0  0
  149.0389  139.3201  158.2711 O   0  0  0  0  0  0  0  0  0  0  0  0
  153.2729  139.1267  157.5625 H   0  0  0  0  0  0  0  0  0  0  0  0
  151.9870  138.2432  158.3805 H   0  0  0  0  0  0  0  0  0  0  0  0
  153.3400  138.8725  159.2999 H   0  0  0  0  0  0  0  0  0  0  0  0
  151.3561  140.2821  159.6333 H   0  0  0  0  0  0  0  0  0  0  0  0
  153.5786  141.3098  159.7776 H   0  0  0  0  0  0  0  0  0  0  0  0
  153.5346  141.7242  158.0835 H   0  0  0  0  0  0  0  0  0  0  0  0
  151.6495  142.7666  160.2535 H   0  0  0  0  0  0  0  0  0  0  0  0
  152.9053  143.6808  159.4525 H   0  0  0  0  0  0  0  0  0  0  0  0
  150.6539  144.1785  158.4894 H   0  0  0  0  0  0  0  0  0  0  0  0
  151.7296  143.5087  157.2893 H   0  0  0  0  0  0  0  0  0  0  0  0
  149.5557  142.0180  158.8219 H   0  0  0  0  0  0  0  0  0  0  0  0
  149.5042  142.4359  157.1324 H   0  0  0  0  0  0  0  0  0  0  0  0
  149.5589  137.5963  154.9248 H   0  0  0  0  0  0  0  0  0  0  0  0
  148.5375  137.6983  156.3248 H   0  0  0  0  0  0  0  0  0  0  0  0
  148.5078  137.8960  153.0311 H   0  0  0  0  0  0  0  0  0  0  0  0
  145.9337  139.3065  152.9414 H   0  0  0  0  0  0  0  0  0  0  0  0
  147.2122  139.9556  151.9388 H   0  0  0  0  0  0  0  0  0  0  0  0
  146.2545  138.4520  150.3940 H   0  0  0  0  0  0  0  0  0  0  0  0
  147.4171  137.3793  151.1330 H   0  0  0  0  0  0  0  0  0  0  0  0
  146.3469  135.1966  151.1654 H   0  0  0  0  0  0  0  0  0  0  0  0
  144.4211  133.7844  151.9067 H   0  0  0  0  0  0  0  0  0  0  0  0
  142.4118  134.8841  152.9170 H   0  0  0  0  0  0  0  0  0  0  0  0
  142.4114  137.4371  153.1480 H   0  0  0  0  0  0  0  0  0  0  0  0
  144.2602  138.6240  152.4184 H   0  0  0  0  0  0  0  0  0  0  0  0
  1  2  1  0  0  0  0
  1 26  1  0  0  0  0
  1 27  1  0  0  0  0
  1 28  1  0  0  0  0
  2  7  1  0  0  0  0
  2  3  1  0  0  0  0
  2 29  1  0  0  0  0
  3  4  1  0  0  0  0
  3 30  1  0  0  0  0
  3 31  1  0  0  0  0
  4  5  1  0  0  0  0
  4 32  1  0  0  0  0
  4 33  1  0  0  0  0
  5  6  1  0  0  0  0
  5 34  1  0  0  0  0
  5 35  1  0  0  0  0
  6  7  1  0  0  0  0
  6 36  1  0  0  0  0
  6 37  1  0  0  0  0
  7 24  1  0  0  0  0
  7  8  1  0  0  0  0
  8  9  1  0  0  0  0
  9 10  2  0  0  0  0
  9 11  1  0  0  0  0
 11 12  1  0  0  0  0
 11 24  1  0  0  0  0
 12 13  1  0  0  0  0
 12 38  1  0  0  0  0
 12 39  1  0  0  0  0
 13 14  2  0  0  0  0
 13 15  1  0  0  0  0
 15 16  1  0  0  0  0
 15 40  1  0  0  0  0
 16 17  1  0  0  0  0
 16 41  1  0  0  0  0
 16 42  1  0  0  0  0
 17 18  1  0  0  0  0
 17 43  1  0  0  0  0
 17 44  1  0  0  0  0
 18 23  1  0  0  0  0
 18 19  2  0  0  0  0
 19 20  1  0  0  0  0
 19 45  1  0  0  0  0
 20 21  2  0  0  0  0
 20 46  1  0  0  0  0
 21 22  1  0  0  0  0
 21 47  1  0  0  0  0
 22 23  2  0  0  0  0
 22 48  1  0  0  0  0
 23 49  1  0  0  0  0
 24 25  2  0  0  0  0
M  CHG  1   8  -1
M  CHG  1  23   1
M  END
> <s_m_source_file>
AV-unprocessed.smi

> <i_m_source_file_index>
2973

> <i_lp_mmshare_version>
43012

> <i_f3d_flags>
0

> <s_epik_input>
W0NIMl0xW0NIMl1bQ0gyXVtDSDJdW0NAQEhdKFtDSDNdKVtDQF0xMltOSF1DKD1PKU4oQzI9TylbQ0gyXUMoPU8pW05IXVtDSDJdW0NIMl1jM1tjSF1bY0hdW2NIXVtjSF1uMw==

> <s_epik_cmdline>
J2VwaWtfcHl0aG9uJywgJy1waCcsICc3LjAnLCAnLXRuJywgJzgnLCAnLW1hJywgJzIwMCcsICctbWV0YWxfYmluZGluZycsICctaW1hZScsICc8aW5maWxlLm1hZT4nLCAnLW9tYWUnLCAnPG91dGZpbGUubWFlPic=

> <r_lp_tautomer_probability>
1

> <r_epik_Ionization_Penalty>
7.89073

> <r_epik_Ionization_Penalty_Charging>
7.89073

> <r_epik_Ionization_Penalty_Neutral>
1.56557e-07

> <r_epik_State_Penalty>
8.01193

> <r_epik_Charging_Adjusted_Penalty>
15.9027

> <i_epik_Tot_Q>
0

> <i_epik_Tot_abs_Q>
2

> <r_epik_Metal_State_Penalty>
3.98737

> <b_epik_Metal_Only>
1

> <s_lp_Force_Field>
OPLS_2005

> <r_lp_Energy>
20.3817

> <b_lp_Chiralities_Consistent>
1

> <s_lp_Variant>
AV-unprocessed.smi:2973-14

> <Gold.Version>
5.8.1

> <Gold.Id.Protein>
6NUR|6NUR_protein|mol2

> <Gold.PLP.Fitness>
48.8858

> <Gold.PLP.PLP>
-38.3630

> <Gold.PLP.part.hbond>
-4.8574

> <Gold.PLP.part.metal>
0.0000

> <Gold.PLP.part.buried>
-0.4754

> <Gold.PLP.part.nonpolar>
-33.4962

> <Gold.PLP.part.repulsive>
0.2427

> <Gold.PLP.ligand.clash>
0.0000

> <Gold.PLP.ligand.torsion>
0.7713

> <Gold.PLP.Chemscore.Hbond>
3.9913

> <Gold.PLP.Chemscore.CHOScore>
0.0000

> <Gold.PLP.Chemscore.Metal>
0.0000

> <Gold.Chemscore.Hbonds>
donor molecule, donor type, donor heavy atom, donor atom, acceptor molecule, acceptor atom, score
      L1  H    15    40       P1  7948  0.89
      L1  H    23    49       P1 10175  2.00
      P1  H  7989  7998       L1    10  0.80

> <Gold.PLP.Chemscore.Internal.Correction>
0.0917

> <Gold.Rescore>
     Score         DG    S(hbond)    S(metal)    S(lipo)     H(rot)  DE(clash)    DE(int)     intcor
     19.08     -20.38       2.65        0.00      93.56       1.92       0.74       0.56       ----

> <Gold.Chemscore.Fitness>
19.0820

> <Gold.Chemscore.DG>
-20.3794

> <Gold.Chemscore.ZeroCoef>
-5.4800

> <Gold.Chemscore.Hbond>
2.6530

> <Gold.Chemscore.Metal>
0.0000

> <Gold.Chemscore.Lipo>
93.5644

> <Gold.Chemscore.Internal_Hbond>
0.0000

> <Gold.Chemscore.DEClash>
0.7408

> <Gold.Chemscore.DEInternal>
0.5567

> <Gold.Chemscore.Rot>
1.9175

> <Gold.Chemscore.Internal.Correction>
   9.000000E+99

> <Gold.Chemscore.Hbonds>
donor molecule, donor type, donor heavy atom, donor atom, acceptor molecule, acceptor atom, score
      L1  H    15    40       P1  7948  0.83
      L1  H    23    49       P1 10175  1.00
      P1  H  7989  7998       L1    10  0.76

> <Gold.Chemscore.Hbond.Weighted>
-8.8611

> <Gold.Chemscore.Metal.Weighted>
-0.0000

> <Gold.Chemscore.Lipo.Weighted>
-10.9470

> <Gold.Chemscore.Internal_Hbond.Weighted>
0.0000

> <Gold.Chemscore.DEClash.Weighted>
0.7408

> <Gold.Chemscore.DEInternal.Weighted>
0.5567

> <Gold.Chemscore.Rot.Weighted>
4.9087

> <Gold.Chemscore.Internal.Correction.Weighted>
   9.000000E+99

> <Gold.Protein.RotatedTorsions>
[ 6907 6896 6895 6894 ] final  143.04 input  -60.11 | X-H torsion
[ 7974 7965 7964 7962 ] final  -44.86 input  175.53 | X-H torsion
[ 8008 7997 7996 7995 ] final  129.28 input   59.86 | X-H torsion
[ 10167 10162 10161 10158 ] final   31.58 input  -65.29 | X-H torsion
[ 10718 10713 10712 10709 ] final  140.90 input   66.30 | X-H torsion
[ 10763 10752 10751 10750 ] final -166.17 input  -60.55 | X-H torsion
[ 11005 11000 10999 10996 ] final  136.60 input  -57.11 | X-H torsion

> <Gold.Protein.ActiveResidues>
 VAL166  LYS551  ARG553  GLY616  TRP617  ASP618  TYR619  PRO620  LYS621  CYS622 
 ASP623  PHE694  ASN695  SER759  ASP760  ASP761  ALA762  ILE779  LEU786  VAL792 
 PHE793  MET794  SER795  GLU796  ALA797  LYS798  CYS799  TRP800  GLU811  SER814 

> <Gold.Protein.RotatedAtoms>
  152.2112  133.4912  159.5110 H   0  0  0  0  0  0  0  0  0  0  0  0  # atno 6907 bound_to 6896
  150.6990  134.1465  159.4133 H   0  0  0  0  0  0  0  0  0  0  0  0  # atno 6908 bound_to 6896
  151.9384  135.0224  160.0585 H   0  0  0  0  0  0  0  0  0  0  0  0  # atno 6909 bound_to 6896
  145.9879  140.7213  142.9331 H   0  0  0  0  0  0  0  0  0  0  0  0  # atno 7974 bound_to 7965
  156.2933  140.2624  156.2573 H   0  0  0  0  0  0  0  0  0  0  0  0  # atno 8008 bound_to 7997
  154.9823  140.0389  157.2301 H   0  0  0  0  0  0  0  0  0  0  0  0  # atno 8009 bound_to 7997
  154.7761  140.2786  155.6105 H   0  0  0  0  0  0  0  0  0  0  0  0  # atno 8010 bound_to 7997
  140.4576  144.0955  150.6205 H   0  0  0  0  0  0  0  0  0  0  0  0  # atno 10167 bound_to 10162
  157.3981  131.1013  151.0579 H   0  0  0  0  0  0  0  0  0  0  0  0  # atno 10718 bound_to 10713
  154.6860  135.2962  154.9547 H   0  0  0  0  0  0  0  0  0  0  0  0  # atno 10763 bound_to 10752
  154.0526  135.6642  153.4806 H   0  0  0  0  0  0  0  0  0  0  0  0  # atno 10764 bound_to 10752
  153.0579  135.5133  154.7927 H   0  0  0  0  0  0  0  0  0  0  0  0  # atno 10765 bound_to 10752
  140.0057  134.9460  157.0170 H   0  0  0  0  0  0  0  0  0  0  0  0  # atno 11005 bound_to 11000
  144.6880  140.3019  143.7262 LP  0  0  0  0  0  0  0  0  0  0  0  0  # atno 17320 bound_to 7965
  145.7674  139.1845  143.2232 LP  0  0  0  0  0  0  0  0  0  0  0  0  # atno 17321 bound_to 7965
  140.4133  143.2646  151.9806 LP  0  0  0  0  0  0  0  0  0  0  0  0  # atno 17342 bound_to 10162
  139.4803  144.5896  151.7794 LP  0  0  0  0  0  0  0  0  0  0  0  0  # atno 17343 bound_to 10162
  157.1588  130.6216  149.5604 LP  0  0  0  0  0  0  0  0  0  0  0  0  # atno 17370 bound_to 10713
  155.9816  130.4824  150.6835 LP  0  0  0  0  0  0  0  0  0  0  0  0  # atno 17371 bound_to 10713
  140.4645  134.1450  155.7195 LP  0  0  0  0  0  0  0  0  0  0  0  0  # atno 17394 bound_to 11000
  141.1675  133.8674  157.1670 LP  0  0  0  0  0  0  0  0  0  0  0  0  # atno 17395 bound_to 11000

$$$$
