AV-unprocessed.smi:1860|AV-procd|sdf|7547|dock8
  -GOLD-   22720 9263D 1   1.00000     0.00000
 Structure written by MMmdl.
 31 32  0  0  0  0  0  0  0  0  1 V2000
  145.8370  146.6809  159.8369 C   0  0  0  0  0  0  0  0  0  0  0  0
  145.5906  145.1821  159.6200 C   0  0  0  0  0  0  0  0  0  0  0  0
  146.7271  144.5432  158.9681 N   0  0  0  0  0  0  0  0  0  0  0  0
  147.3864  143.4730  159.4391 C   0  0  0  0  0  0  0  0  0  0  0  0
  147.1069  142.9172  160.5013 O   0  0  0  0  0  0  0  0  0  0  0  0
  148.5350  142.9452  158.5784 C   0  0  0  0  0  0  0  0  0  0  0  0
  149.8492  143.4310  159.1171 C   0  0  0  0  0  0  0  0  0  0  0  0
  150.2975  144.7292  159.1498 C   0  0  0  0  0  0  0  0  0  0  0  0
  151.8846  144.8554  159.8568 S   0  0  0  0  0  0  0  0  0  0  0  0
  151.8800  143.1057  160.0963 C   0  0  0  0  0  0  0  0  0  0  0  0
  152.9229  142.3288  160.6824 N   0  0  0  0  0  0  0  0  0  0  0  0
  153.6234  141.2928  159.9297 C   0  0  0  0  0  0  0  0  0  0  0  0
  154.6308  140.7323  160.9287 C   0  0  0  0  0  0  0  0  0  0  0  0
  154.3647  141.5252  162.1056 N   0  0  0  0  0  0  0  0  0  0  0  0
  153.3915  142.4242  161.9427 C   0  0  0  0  0  0  0  0  0  0  0  0
  153.0138  143.1947  162.8234 O   0  0  0  0  0  0  0  0  0  0  0  0
  150.7586  142.5193  159.6637 N   0  0  0  0  0  0  0  0  0  0  0  0
  144.9947  147.1405  160.3543 H   0  0  0  0  0  0  0  0  0  0  0  0
  145.9675  147.2035  158.8888 H   0  0  0  0  0  0  0  0  0  0  0  0
  146.7299  146.8511  160.4390 H   0  0  0  0  0  0  0  0  0  0  0  0
  145.4311  144.6932  160.5812 H   0  0  0  0  0  0  0  0  0  0  0  0
  144.6813  145.0261  159.0376 H   0  0  0  0  0  0  0  0  0  0  0  0
  147.0264  144.9343  158.0867 H   0  0  0  0  0  0  0  0  0  0  0  0
  148.5062  141.8551  158.5575 H   0  0  0  0  0  0  0  0  0  0  0  0
  148.3907  143.2752  157.5486 H   0  0  0  0  0  0  0  0  0  0  0  0
  149.7932  145.6164  158.7971 H   0  0  0  0  0  0  0  0  0  0  0  0
  152.9271  140.5238  159.5919 H   0  0  0  0  0  0  0  0  0  0  0  0
  154.1216  141.7196  159.0581 H   0  0  0  0  0  0  0  0  0  0  0  0
  154.4618  139.6744  161.1322 H   0  0  0  0  0  0  0  0  0  0  0  0
  155.6599  140.8717  160.5960 H   0  0  0  0  0  0  0  0  0  0  0  0
  154.8750  141.4008  162.9680 H   0  0  0  0  0  0  0  0  0  0  0  0
  1  2  1  0  0  0  0
  1 18  1  0  0  0  0
  1 19  1  0  0  0  0
  1 20  1  0  0  0  0
  2  3  1  0  0  0  0
  2 21  1  0  0  0  0
  2 22  1  0  0  0  0
  3  4  1  0  0  0  0
  3 23  1  0  0  0  0
  4  5  2  0  0  0  0
  4  6  1  0  0  0  0
  6  7  1  0  0  0  0
  6 24  1  0  0  0  0
  6 25  1  0  0  0  0
  7 17  1  0  0  0  0
  7  8  2  0  0  0  0
  8  9  1  0  0  0  0
  8 26  1  0  0  0  0
  9 10  1  0  0  0  0
 10 11  1  0  0  0  0
 10 17  2  0  0  0  0
 11 15  1  0  0  0  0
 11 12  1  0  0  0  0
 12 13  1  0  0  0  0
 12 27  1  0  0  0  0
 12 28  1  0  0  0  0
 13 14  1  0  0  0  0
 13 29  1  0  0  0  0
 13 30  1  0  0  0  0
 14 15  1  0  0  0  0
 14 31  1  0  0  0  0
 15 16  2  0  0  0  0
M  END
> <s_m_source_file>
AV-unprocessed.smi

> <i_m_source_file_index>
1860

> <i_lp_mmshare_version>
43012

> <i_f3d_flags>
0

> <s_epik_input>
W0NIM11bQ0gyXVtOSF1DKD1PKVtDSDJdYzFbY0hdc2MobjEpTjJbQ0gyXVtDSDJdW05IXUMyPU8=

> <s_epik_cmdline>
J2VwaWtfcHl0aG9uJywgJy1waCcsICc3LjAnLCAnLXRuJywgJzgnLCAnLW1hJywgJzIwMCcsICctbWV0YWxfYmluZGluZycsICctaW1hZScsICc8aW5maWxlLm1hZT4nLCAnLW9tYWUnLCAnPG91dGZpbGUubWFlPic=

> <r_lp_tautomer_probability>
1

> <r_epik_Ionization_Penalty>
0.000119829

> <r_epik_Ionization_Penalty_Charging>
0

> <r_epik_Ionization_Penalty_Neutral>
0.000119829

> <r_epik_State_Penalty>
-0

> <r_epik_Charging_Adjusted_Penalty>
0

> <i_epik_Tot_Q>
0

> <i_epik_Tot_abs_Q>
0

> <r_epik_Metal_State_Penalty>
-0

> <b_epik_Metal_Only>
0

> <s_lp_Force_Field>
OPLS_2005

> <r_lp_Energy>
29.5586

> <b_lp_Chiralities_Consistent>
1

> <s_lp_Variant>
AV-unprocessed.smi:1860-1

> <Gold.Version>
5.8.1

> <Gold.Id.Protein>
6NUR|6NUR_protein|mol2

> <Gold.PLP.Fitness>
42.7268

> <Gold.PLP.PLP>
-35.0107

> <Gold.PLP.part.hbond>
-4.6780

> <Gold.PLP.part.metal>
0.0000

> <Gold.PLP.part.buried>
-3.9405

> <Gold.PLP.part.nonpolar>
-27.1889

> <Gold.PLP.part.repulsive>
0.2008

> <Gold.PLP.ligand.clash>
0.0000

> <Gold.PLP.ligand.torsion>
1.5129

> <Gold.PLP.Chemscore.Hbond>
2.5797

> <Gold.PLP.Chemscore.CHOScore>
1.0000

> <Gold.PLP.Chemscore.Metal>
0.0000

> <Gold.Chemscore.Hbonds>
donor molecule, donor type, donor heavy atom, donor atom, acceptor molecule, acceptor atom, score
      L1  H     3    23       P1  8029  1.00
      P1  H  6933  6944       L1     5  0.98
      P1  H  6934  6946       L1     5  0.70
      L1  C     8    26       P1  8029  1.00

> <Gold.PLP.Chemscore.Internal.Correction>
0.0029

> <Gold.Rescore>
     Score         DG    S(hbond)    S(metal)    S(lipo)     H(rot)  DE(clash)    DE(int)     intcor
     14.57     -16.33       2.58        0.00      54.52       1.62       0.15       1.61       ----

> <Gold.Chemscore.Fitness>
14.5732

> <Gold.Chemscore.DG>
-16.3316

> <Gold.Chemscore.ZeroCoef>
-5.4800

> <Gold.Chemscore.Hbond>
2.5831

> <Gold.Chemscore.Metal>
0.0000

> <Gold.Chemscore.Lipo>
54.5227

> <Gold.Chemscore.Internal_Hbond>
0.0000

> <Gold.Chemscore.DEClash>
0.1519

> <Gold.Chemscore.DEInternal>
1.6064

> <Gold.Chemscore.Rot>
1.6231

> <Gold.Chemscore.Internal.Correction>
   9.000000E+99

> <Gold.Chemscore.Hbonds>
donor molecule, donor type, donor heavy atom, donor atom, acceptor molecule, acceptor atom, score
      L1  H     3    23       P1  8029  0.81
      P1  H  6933  6944       L1     5  0.85
      P1  H  6934  6946       L1     5  0.67

> <Gold.Chemscore.Hbond.Weighted>
-8.6277

> <Gold.Chemscore.Metal.Weighted>
-0.0000

> <Gold.Chemscore.Lipo.Weighted>
-6.3792

> <Gold.Chemscore.Internal_Hbond.Weighted>
0.0000

> <Gold.Chemscore.DEClash.Weighted>
0.1519

> <Gold.Chemscore.DEInternal.Weighted>
1.6064

> <Gold.Chemscore.Rot.Weighted>
4.1553

> <Gold.Chemscore.Internal.Correction.Weighted>
   9.000000E+99

> <Gold.Protein.RotatedTorsions>
[ 6907 6896 6895 6894 ] final   -1.17 input  -60.11 | X-H torsion
[ 7974 7965 7964 7962 ] final   11.67 input  175.53 | X-H torsion
[ 8008 7997 7996 7995 ] final   84.91 input   59.86 | X-H torsion
[ 10167 10162 10161 10158 ] final  138.30 input  -65.29 | X-H torsion
[ 10718 10713 10712 10709 ] final   13.51 input   66.30 | X-H torsion
[ 10763 10752 10751 10750 ] final    3.03 input  -60.55 | X-H torsion
[ 11005 11000 10999 10996 ] final  109.07 input  -57.11 | X-H torsion

> <Gold.Protein.ActiveResidues>
 VAL166  LYS551  ARG553  GLY616  TRP617  ASP618  TYR619  PRO620  LYS621  CYS622 
 ASP623  PHE694  ASN695  SER759  ASP760  ASP761  ALA762  ILE779  LEU786  VAL792 
 PHE793  MET794  SER795  GLU796  ALA797  LYS798  CYS799  TRP800  GLU811  SER814 

> <Gold.Protein.RotatedAtoms>
  151.5504  135.1067  159.9947 H   0  0  0  0  0  0  0  0  0  0  0  0  # atno 6907 bound_to 6896
  152.4494  133.7596  159.6750 H   0  0  0  0  0  0  0  0  0  0  0  0  # atno 6908 bound_to 6896
  150.8418  133.7856  159.3082 H   0  0  0  0  0  0  0  0  0  0  0  0  # atno 6909 bound_to 6896
  146.2366  139.9450  142.8478 H   0  0  0  0  0  0  0  0  0  0  0  0  # atno 7974 bound_to 7965
  155.9432  140.3406  155.6345 H   0  0  0  0  0  0  0  0  0  0  0  0  # atno 8008 bound_to 7997
  155.7013  140.0760  157.2427 H   0  0  0  0  0  0  0  0  0  0  0  0  # atno 8009 bound_to 7997
  154.4107  140.1639  156.2181 H   0  0  0  0  0  0  0  0  0  0  0  0  # atno 8010 bound_to 7997
  139.5115  144.6361  151.5692 H   0  0  0  0  0  0  0  0  0  0  0  0  # atno 10167 bound_to 10162
  157.0257  130.6172  149.5727 H   0  0  0  0  0  0  0  0  0  0  0  0  # atno 10718 bound_to 10713
  153.2883  135.6946  153.7318 H   0  0  0  0  0  0  0  0  0  0  0  0  # atno 10763 bound_to 10752
  153.6279  135.3415  155.3033 H   0  0  0  0  0  0  0  0  0  0  0  0  # atno 10764 bound_to 10752
  154.8516  135.4402  154.1958 H   0  0  0  0  0  0  0  0  0  0  0  0  # atno 10765 bound_to 10752
  139.8855  134.9448  156.6069 H   0  0  0  0  0  0  0  0  0  0  0  0  # atno 11005 bound_to 11000
  145.1916  140.9814  143.4208 LP  0  0  0  0  0  0  0  0  0  0  0  0  # atno 17320 bound_to 7965
  144.9852  139.3743  143.6242 LP  0  0  0  0  0  0  0  0  0  0  0  0  # atno 17321 bound_to 7965
  140.6111  143.9435  150.6454 LP  0  0  0  0  0  0  0  0  0  0  0  0  # atno 17342 bound_to 10162
  140.2678  143.3478  152.1265 LP  0  0  0  0  0  0  0  0  0  0  0  0  # atno 17343 bound_to 10162
  156.0087  130.5176  150.7916 LP  0  0  0  0  0  0  0  0  0  0  0  0  # atno 17370 bound_to 10713
  157.5216  131.0932  151.0071 LP  0  0  0  0  0  0  0  0  0  0  0  0  # atno 17371 bound_to 10713
  140.7841  133.8636  155.8591 LP  0  0  0  0  0  0  0  0  0  0  0  0  # atno 17394 bound_to 11000
  140.9735  134.1500  157.4556 LP  0  0  0  0  0  0  0  0  0  0  0  0  # atno 17395 bound_to 11000

$$$$
