AV-unprocessed.smi:46|AV-procd|sdf|420|dock9
  -GOLD-   2262016303D 1   1.00000     0.00000
 Structure written by MMmdl.
 35 36  0  0  0  0  0  0  0  0  2 V2000
  152.8857  143.0059  159.9972 C   0  0  0  0  0  0  0  0  0  0  0  0
  152.4679  143.3253  158.5541 C   0  0  0  0  0  0  0  0  0  0  0  0
  151.7402  144.6744  158.4481 C   0  0  0  0  0  0  0  0  0  0  0  0
  151.6553  142.2505  158.0045 N   0  0  0  0  0  0  0  0  0  0  0  0
  150.3645  142.3041  157.5206 C   0  0  0  0  0  0  0  0  0  0  0  0
  150.0125  141.0418  157.1265 C   0  0  0  0  0  0  0  0  0  0  0  0
  148.7190  140.5340  156.5233 C   0  0  1  0  0  0  0  0  0  0  0  0
  147.6081  141.5915  156.4928 C   0  0  0  0  0  0  0  0  0  0  0  0
  147.7794  142.3376  155.2328 N   0  3  0  0  0  0  0  0  0  0  0  0
  148.5939  141.5141  154.3175 C   0  0  0  0  0  0  0  0  0  0  0  0
  148.8481  140.1757  155.0320 C   0  0  1  0  0  0  0  0  0  0  0  0
  150.1580  139.4814  154.6092 C   0  0  0  0  0  0  0  0  0  0  0  0
  149.9343  138.6885  153.4632 O   0  0  0  0  0  0  0  0  0  0  0  0
  151.1762  140.2756  157.4230 C   0  0  0  0  0  0  0  0  0  0  0  0
  152.1524  140.9975  157.9458 N   0  0  0  0  0  0  0  0  0  0  0  0
  148.3764  139.6625  157.0830 H   0  0  0  0  0  0  0  0  0  0  0  0
  148.0127  139.5145  154.7924 H   0  0  0  0  0  0  0  0  0  0  0  0
  153.5432  143.7799  160.3942 H   0  0  0  0  0  0  0  0  0  0  0  0
  153.4246  142.0592  160.0485 H   0  0  0  0  0  0  0  0  0  0  0  0
  152.0214  142.9334  160.6579 H   0  0  0  0  0  0  0  0  0  0  0  0
  153.3779  143.3964  157.9554 H   0  0  0  0  0  0  0  0  0  0  0  0
  152.3722  145.4875  158.8064 H   0  0  0  0  0  0  0  0  0  0  0  0
  150.8231  144.6843  159.0378 H   0  0  0  0  0  0  0  0  0  0  0  0
  151.4746  144.8958  157.4138 H   0  0  0  0  0  0  0  0  0  0  0  0
  149.8102  143.2305  157.4987 H   0  0  0  0  0  0  0  0  0  0  0  0
  146.6369  141.0971  156.4461 H   0  0  0  0  0  0  0  0  0  0  0  0
  147.6014  142.2440  157.3666 H   0  0  0  0  0  0  0  0  0  0  0  0
  146.8780  142.5409  154.8249 H   0  0  0  0  0  0  0  0  0  0  0  0
  148.0913  141.3758  153.3599 H   0  0  0  0  0  0  0  0  0  0  0  0
  149.5304  142.0404  154.1297 H   0  0  0  0  0  0  0  0  0  0  0  0
  150.9452  140.2038  154.3914 H   0  0  0  0  0  0  0  0  0  0  0  0
  150.5199  138.8363  155.4104 H   0  0  0  0  0  0  0  0  0  0  0  0
  149.6753  139.2541  152.7510 H   0  0  0  0  0  0  0  0  0  0  0  0
  151.3394  139.2188  157.2704 H   0  0  0  0  0  0  0  0  0  0  0  0
  148.2717  143.2001  155.4164 H   0  0  0  0  0  0  0  0  0  0  0  0
  1  2  1  0  0  0  0
  1 18  1  0  0  0  0
  1 19  1  0  0  0  0
  1 20  1  0  0  0  0
  2  3  1  0  0  0  0
  2  4  1  0  0  0  0
  2 21  1  0  0  0  0
  3 22  1  0  0  0  0
  3 23  1  0  0  0  0
  3 24  1  0  0  0  0
  4 15  1  0  0  0  0
  4  5  1  0  0  0  0
  5  6  2  0  0  0  0
  5 25  1  0  0  0  0
  6  7  1  0  0  0  0
  6 14  1  0  0  0  0
  7 16  1  0  0  0  0
  7 11  1  0  0  0  0
  7  8  1  0  0  0  0
  8  9  1  0  0  0  0
  8 26  1  0  0  0  0
  8 27  1  0  0  0  0
  9 10  1  0  0  0  0
  9 28  1  0  0  0  0
  9 35  1  0  0  0  0
 10 11  1  0  0  0  0
 10 29  1  0  0  0  0
 10 30  1  0  0  0  0
 11 17  1  0  0  0  0
 11 12  1  0  0  0  0
 12 13  1  0  0  0  0
 12 31  1  0  0  0  0
 12 32  1  0  0  0  0
 13 33  1  0  0  0  0
 14 15  2  0  0  0  0
 14 34  1  0  0  0  0
M  CHG  1   9   1
M  END
> <s_m_source_file>
AV-unprocessed.smi

> <i_m_source_file_index>
46

> <i_lp_mmshare_version>
43012

> <i_f3d_flags>
0

> <s_epik_input>
W0NIM11bQ0hdKFtDSDNdKW4xW2NIXWMoW2NIXW4xKVtDQEBIXTJbQ0gyXVtOSF1bQ0gyXVtDQEhdMltDSDJdW09IXQ==

> <s_epik_cmdline>
J2VwaWtfcHl0aG9uJywgJy1waCcsICc3LjAnLCAnLXRuJywgJzgnLCAnLW1hJywgJzIwMCcsICctbWV0YWxfYmluZGluZycsICctaW1hZScsICc8aW5maWxlLm1hZT4nLCAnLW9tYWUnLCAnPG91dGZpbGUubWFlPic=

> <r_lp_tautomer_probability>
1

> <r_epik_Ionization_Penalty>
0.000236226

> <r_epik_Ionization_Penalty_Charging>
0.00021985

> <r_epik_Ionization_Penalty_Neutral>
1.63752e-05

> <r_epik_State_Penalty>
-0

> <r_epik_Charging_Adjusted_Penalty>
0.00021985

> <i_epik_Tot_Q>
1

> <i_epik_Tot_abs_Q>
1

> <r_epik_Metal_State_Penalty>
-0

> <b_epik_Metal_Only>
0

> <s_lp_Force_Field>
OPLS_2005

> <r_lp_Energy>
33.3547

> <b_lp_Chiralities_Consistent>
1

> <s_lp_Variant>
AV-unprocessed.smi:46-2

> <Gold.Version>
5.8.1

> <Gold.Id.Protein>
6NUR|6NUR_protein|mol2

> <Gold.PLP.Fitness>
42.9229

> <Gold.PLP.PLP>
-31.8682

> <Gold.PLP.part.hbond>
-2.9014

> <Gold.PLP.part.metal>
0.0000

> <Gold.PLP.part.buried>
-4.4208

> <Gold.PLP.part.nonpolar>
-25.0856

> <Gold.PLP.part.repulsive>
0.1113

> <Gold.PLP.ligand.clash>
0.0000

> <Gold.PLP.ligand.torsion>
0.5003

> <Gold.PLP.Chemscore.Hbond>
3.0000

> <Gold.PLP.Chemscore.CHOScore>
1.0000

> <Gold.PLP.Chemscore.Metal>
0.0000

> <Gold.Chemscore.Hbonds>
donor molecule, donor type, donor heavy atom, donor atom, acceptor molecule, acceptor atom, score
      L1  H     9    35       P1  8028  2.00
      L1  H    13    33       P1  7957  1.00
      L1  C     5    25       P1  8028  1.00

> <Gold.PLP.Chemscore.Internal.Correction>
0.0553

> <Gold.Rescore>
     Score         DG    S(hbond)    S(metal)    S(lipo)     H(rot)  DE(clash)    DE(int)     intcor
     15.64     -16.22       1.93        0.00      78.15       1.90       0.02       0.56       ----

> <Gold.Chemscore.Fitness>
15.6441

> <Gold.Chemscore.DG>
-16.2227

> <Gold.Chemscore.ZeroCoef>
-5.4800

> <Gold.Chemscore.Hbond>
1.9332

> <Gold.Chemscore.Metal>
0.0000

> <Gold.Chemscore.Lipo>
78.1510

> <Gold.Chemscore.Internal_Hbond>
0.0000

> <Gold.Chemscore.DEClash>
0.0178

> <Gold.Chemscore.DEInternal>
0.5608

> <Gold.Chemscore.Rot>
1.8976

> <Gold.Chemscore.Internal.Correction>
   9.000000E+99

> <Gold.Chemscore.Hbonds>
donor molecule, donor type, donor heavy atom, donor atom, acceptor molecule, acceptor atom, score
      L1  H     9    35       P1  8028  0.95
      L1  H    13    33       P1  7957  0.98

> <Gold.Chemscore.Hbond.Weighted>
-6.4569

> <Gold.Chemscore.Metal.Weighted>
-0.0000

> <Gold.Chemscore.Lipo.Weighted>
-9.1437

> <Gold.Chemscore.Internal_Hbond.Weighted>
0.0000

> <Gold.Chemscore.DEClash.Weighted>
0.0178

> <Gold.Chemscore.DEInternal.Weighted>
0.5608

> <Gold.Chemscore.Rot.Weighted>
4.8579

> <Gold.Chemscore.Internal.Correction.Weighted>
   9.000000E+99

> <Gold.Protein.RotatedTorsions>
[ 6907 6896 6895 6894 ] final  -42.76 input  -60.11 | X-H torsion
[ 7974 7965 7964 7962 ] final  120.39 input  175.53 | X-H torsion
[ 8008 7997 7996 7995 ] final   51.26 input   59.86 | X-H torsion
[ 10167 10162 10161 10158 ] final  -16.39 input  -65.29 | X-H torsion
[ 10718 10713 10712 10709 ] final   72.67 input   66.30 | X-H torsion
[ 10763 10752 10751 10750 ] final  162.11 input  -60.55 | X-H torsion
[ 11005 11000 10999 10996 ] final  -91.24 input  -57.11 | X-H torsion

> <Gold.Protein.ActiveResidues>
 VAL166  LYS551  ARG553  GLY616  TRP617  ASP618  TYR619  PRO620  LYS621  CYS622 
 ASP623  PHE694  ASN695  SER759  ASP760  ASP761  ALA762  ILE779  LEU786  VAL792 
 PHE793  MET794  SER795  GLU796  ALA797  LYS798  CYS799  TRP800  GLU811  SER814 

> <Gold.Protein.RotatedAtoms>
  150.9515  134.8915  159.7674 H   0  0  0  0  0  0  0  0  0  0  0  0  # atno 6907 bound_to 6896
  152.5121  134.3799  159.9357 H   0  0  0  0  0  0  0  0  0  0  0  0  # atno 6908 bound_to 6896
  151.3815  133.3779  159.2745 H   0  0  0  0  0  0  0  0  0  0  0  0  # atno 6909 bound_to 6896
  145.1318  139.3323  143.4661 H   0  0  0  0  0  0  0  0  0  0  0  0  # atno 7974 bound_to 7965
  155.4324  140.3451  155.4281 H   0  0  0  0  0  0  0  0  0  0  0  0  # atno 8008 bound_to 7997
  156.1328  140.1519  156.9070 H   0  0  0  0  0  0  0  0  0  0  0  0  # atno 8009 bound_to 7997
  154.4908  140.0841  156.7570 H   0  0  0  0  0  0  0  0  0  0  0  0  # atno 8010 bound_to 7997
  140.7233  143.5121  150.9737 H   0  0  0  0  0  0  0  0  0  0  0  0  # atno 10167 bound_to 10162
  157.6512  130.9590  150.0961 H   0  0  0  0  0  0  0  0  0  0  0  0  # atno 10718 bound_to 10713
  154.2733  135.2765  155.2729 H   0  0  0  0  0  0  0  0  0  0  0  0  # atno 10763 bound_to 10752
  154.5283  135.5737  153.6741 H   0  0  0  0  0  0  0  0  0  0  0  0  # atno 10764 bound_to 10752
  152.9941  135.6221  154.2888 H   0  0  0  0  0  0  0  0  0  0  0  0  # atno 10765 bound_to 10752
  141.1549  133.7743  156.9852 H   0  0  0  0  0  0  0  0  0  0  0  0  # atno 11005 bound_to 11000
  146.3513  140.1320  142.8597 LP  0  0  0  0  0  0  0  0  0  0  0  0  # atno 17320 bound_to 7965
  145.0627  140.9099  143.4929 LP  0  0  0  0  0  0  0  0  0  0  0  0  # atno 17321 bound_to 7965
  139.8835  143.7042  152.3154 LP  0  0  0  0  0  0  0  0  0  0  0  0  # atno 17342 bound_to 10162
  139.7332  144.7577  151.0768 LP  0  0  0  0  0  0  0  0  0  0  0  0  # atno 17343 bound_to 10162
  156.1897  130.3654  149.8926 LP  0  0  0  0  0  0  0  0  0  0  0  0  # atno 17370 bound_to 10713
  156.6858  130.8876  151.3582 LP  0  0  0  0  0  0  0  0  0  0  0  0  # atno 17371 bound_to 10713
  140.1039  134.9518  157.1965 LP  0  0  0  0  0  0  0  0  0  0  0  0  # atno 17394 bound_to 11000
  140.3282  134.2840  155.7233 LP  0  0  0  0  0  0  0  0  0  0  0  0  # atno 17395 bound_to 11000

$$$$
