AV-unprocessed.smi:1677|AV-procd|sdf|6725|dock6
  -GOLD-   22720 7473D 1   1.00000     0.00000
 Structure written by MMmdl.
 36 37  0  0  0  0  0  0  0  0  1 V2000
  150.4116  137.5759  158.2470 C   0  0  0  0  0  0  0  0  0  0  0  0
  151.7576  138.3170  158.3028 C   0  0  1  0  0  0  0  0  0  0  0  0
  152.4872  138.3566  156.9424 C   0  0  0  0  0  0  0  0  0  0  0  0
  151.5981  138.6623  155.8377 N   0  0  0  0  0  0  0  0  0  0  0  0
  151.2094  137.8050  154.8169 C   0  0  0  0  0  0  0  0  0  0  0  0
  150.3645  138.5232  154.0011 C   0  0  0  0  0  0  0  0  0  0  0  0
  150.2249  139.8184  154.4943 N   0  0  0  0  0  0  0  0  0  0  0  0
  150.9867  139.8271  155.5805 C   0  0  0  0  0  0  0  0  0  0  0  0
  151.5342  139.6744  158.7918 N   0  0  0  0  0  0  0  0  0  0  0  0
  152.4570  140.6483  158.8398 C   0  0  0  0  0  0  0  0  0  0  0  0
  153.6183  140.4973  158.4591 O   0  0  0  0  0  0  0  0  0  0  0  0
  151.9971  141.9988  159.4054 C   0  0  2  0  0  0  0  0  0  0  0  0
  152.0535  143.1083  158.3296 C   0  0  0  0  0  0  0  0  0  0  0  0
  151.8499  144.4916  158.9225 C   0  0  0  0  0  0  0  0  0  0  0  0
  151.9546  144.7557  160.2364 C   0  0  0  0  0  0  0  0  0  0  0  0
  152.2929  143.7020  161.2760 C   0  0  0  0  0  0  0  0  0  0  0  0
  152.8269  142.4042  160.6403 C   0  0  0  0  0  0  0  0  0  0  0  0
  150.5422  136.5274  157.9784 H   0  0  0  0  0  0  0  0  0  0  0  0
  149.7418  138.0269  157.5140 H   0  0  0  0  0  0  0  0  0  0  0  0
  149.9108  137.5998  159.2153 H   0  0  0  0  0  0  0  0  0  0  0  0
  152.3886  137.7884  159.0202 H   0  0  0  0  0  0  0  0  0  0  0  0
  153.2847  139.1010  156.9623 H   0  0  0  0  0  0  0  0  0  0  0  0
  152.9620  137.3966  156.7355 H   0  0  0  0  0  0  0  0  0  0  0  0
  151.5548  136.7831  154.7600 H   0  0  0  0  0  0  0  0  0  0  0  0
  149.8519  138.2102  153.1033 H   0  0  0  0  0  0  0  0  0  0  0  0
  151.0969  140.7002  156.2069 H   0  0  0  0  0  0  0  0  0  0  0  0
  150.6059  139.8889  159.1258 H   0  0  0  0  0  0  0  0  0  0  0  0
  150.9586  141.8959  159.7268 H   0  0  0  0  0  0  0  0  0  0  0  0
  153.0104  143.1069  157.8058 H   0  0  0  0  0  0  0  0  0  0  0  0
  151.2811  142.9347  157.5795 H   0  0  0  0  0  0  0  0  0  0  0  0
  151.6230  145.2899  158.2311 H   0  0  0  0  0  0  0  0  0  0  0  0
  151.7848  145.7593  160.5979 H   0  0  0  0  0  0  0  0  0  0  0  0
  153.0297  144.1051  161.9711 H   0  0  0  0  0  0  0  0  0  0  0  0
  151.3910  143.4954  161.8529 H   0  0  0  0  0  0  0  0  0  0  0  0
  152.8293  141.6069  161.3846 H   0  0  0  0  0  0  0  0  0  0  0  0
  153.8674  142.5531  160.3471 H   0  0  0  0  0  0  0  0  0  0  0  0
  1  2  1  0  0  0  0
  1 18  1  0  0  0  0
  1 19  1  0  0  0  0
  1 20  1  0  0  0  0
  2  3  1  0  0  0  0
  2  9  1  0  0  0  0
  2 21  1  0  0  0  0
  3  4  1  0  0  0  0
  3 22  1  0  0  0  0
  3 23  1  0  0  0  0
  4  8  1  0  0  0  0
  4  5  1  0  0  0  0
  5  6  2  0  0  0  0
  5 24  1  0  0  0  0
  6  7  1  0  0  0  0
  6 25  1  0  0  0  0
  7  8  2  0  0  0  0
  8 26  1  0  0  0  0
  9 10  1  0  0  0  0
  9 27  1  0  0  0  0
 10 11  2  0  0  0  0
 10 12  1  0  0  0  0
 12 17  1  0  0  0  0
 12 13  1  0  0  0  0
 12 28  1  0  0  0  0
 13 14  1  0  0  0  0
 13 29  1  0  0  0  0
 13 30  1  0  0  0  0
 14 15  2  0  0  0  0
 14 31  1  0  0  0  0
 15 16  1  0  0  0  0
 15 32  1  0  0  0  0
 16 17  1  0  0  0  0
 16 33  1  0  0  0  0
 16 34  1  0  0  0  0
 17 35  1  0  0  0  0
 17 36  1  0  0  0  0
M  END
> <s_m_source_file>
AV-unprocessed.smi

> <i_m_source_file_index>
1677

> <i_lp_mmshare_version>
43012

> <i_f3d_flags>
0

> <s_epik_input>
W2NIXTFuW2NIXVtjSF1uMVtDSDJdW0NAQEhdKFtDSDNdKVtOSF1DKD1PKVtDQEBIXTJbQ0gyXVtDSF09W0NIXVtDSDJdW0NIMl0y

> <s_epik_cmdline>
J2VwaWtfcHl0aG9uJywgJy1waCcsICc3LjAnLCAnLXRuJywgJzgnLCAnLW1hJywgJzIwMCcsICctbWV0YWxfYmluZGluZycsICctaW1hZScsICc8aW5maWxlLm1hZT4nLCAnLW9tYWUnLCAnPG91dGZpbGUubWFlPic=

> <r_lp_tautomer_probability>
1

> <r_epik_Ionization_Penalty>
0.640435

> <r_epik_Ionization_Penalty_Charging>
0.640435

> <r_epik_Ionization_Penalty_Neutral>
2.11108e-08

> <r_epik_State_Penalty>
0.658069

> <r_epik_Charging_Adjusted_Penalty>
1.2985

> <i_epik_Tot_Q>
0

> <i_epik_Tot_abs_Q>
0

> <r_epik_Metal_State_Penalty>
0.311689

> <b_epik_Metal_Only>
0

> <s_lp_Force_Field>
OPLS_2005

> <r_lp_Energy>
10.0444

> <b_lp_Chiralities_Consistent>
1

> <s_lp_Variant>
AV-unprocessed.smi:1677-6

> <Gold.Version>
5.8.1

> <Gold.Id.Protein>
6NUR|6NUR_protein|mol2

> <Gold.PLP.Fitness>
48.2312

> <Gold.PLP.PLP>
-38.1084

> <Gold.PLP.part.hbond>
-2.0000

> <Gold.PLP.part.metal>
0.0000

> <Gold.PLP.part.buried>
-4.9801

> <Gold.PLP.part.nonpolar>
-31.9304

> <Gold.PLP.part.repulsive>
0.2738

> <Gold.PLP.ligand.clash>
0.0000

> <Gold.PLP.ligand.torsion>
0.3401

> <Gold.PLP.Chemscore.Hbond>
1.8960

> <Gold.PLP.Chemscore.CHOScore>
1.6915

> <Gold.PLP.Chemscore.Metal>
0.0000

> <Gold.Chemscore.Hbonds>
donor molecule, donor type, donor heavy atom, donor atom, acceptor molecule, acceptor atom, score
      P1  H  7989  7998       L1     7  0.55
      P1  H  7997  8008       L1    11  0.75
      L1  C     6    25       P1  7948  1.00
      L1  C     6    25       P1  7957  0.50

> <Gold.PLP.Chemscore.Internal.Correction>
0.0404

> <Gold.Rescore>
     Score         DG    S(hbond)    S(metal)    S(lipo)     H(rot)  DE(clash)    DE(int)     intcor
     16.69     -18.69       1.89        0.00      97.08       1.75       0.10       1.89       ----

> <Gold.Chemscore.Fitness>
16.6917

> <Gold.Chemscore.DG>
-18.6854

> <Gold.Chemscore.ZeroCoef>
-5.4800

> <Gold.Chemscore.Hbond>
1.8924

> <Gold.Chemscore.Metal>
0.0000

> <Gold.Chemscore.Lipo>
97.0813

> <Gold.Chemscore.Internal_Hbond>
0.0000

> <Gold.Chemscore.DEClash>
0.1005

> <Gold.Chemscore.DEInternal>
1.8932

> <Gold.Chemscore.Rot>
1.7475

> <Gold.Chemscore.Internal.Correction>
   9.000000E+99

> <Gold.Chemscore.Hbonds>
donor molecule, donor type, donor heavy atom, donor atom, acceptor molecule, acceptor atom, score
      P1  H  7989  7998       L1     7  0.01
      P1  H  7997  8008       L1    11  0.76

> <Gold.Chemscore.Hbond.Weighted>
-6.3205

> <Gold.Chemscore.Metal.Weighted>
-0.0000

> <Gold.Chemscore.Lipo.Weighted>
-11.3585

> <Gold.Chemscore.Internal_Hbond.Weighted>
0.0000

> <Gold.Chemscore.DEClash.Weighted>
0.1005

> <Gold.Chemscore.DEInternal.Weighted>
1.8932

> <Gold.Chemscore.Rot.Weighted>
4.4735

> <Gold.Chemscore.Internal.Correction.Weighted>
   9.000000E+99

> <Gold.Protein.RotatedTorsions>
[ 6907 6896 6895 6894 ] final  -83.58 input  -60.11 | X-H torsion
[ 7974 7965 7964 7962 ] final  -81.79 input  175.53 | X-H torsion
[ 8008 7997 7996 7995 ] final  -94.26 input   59.86 | X-H torsion
[ 10167 10162 10161 10158 ] final -179.42 input  -65.29 | X-H torsion
[ 10718 10713 10712 10709 ] final  -20.28 input   66.30 | X-H torsion
[ 10763 10752 10751 10750 ] final   20.36 input  -60.55 | X-H torsion
[ 11005 11000 10999 10996 ] final   54.21 input  -57.11 | X-H torsion

> <Gold.Protein.ActiveResidues>
 VAL166  LYS551  ARG553  GLY616  TRP617  ASP618  TYR619  PRO620  LYS621  CYS622 
 ASP623  PHE694  ASN695  SER759  ASP760  ASP761  ALA762  ILE779  LEU786  VAL792 
 PHE793  MET794  SER795  GLU796  ALA797  LYS798  CYS799  TRP800  GLU811  SER814 

> <Gold.Protein.RotatedAtoms>
  150.6884  134.3489  159.4900 H   0  0  0  0  0  0  0  0  0  0  0  0  # atno 6907 bound_to 6896
  152.1333  134.9115  160.0567 H   0  0  0  0  0  0  0  0  0  0  0  0  # atno 6908 bound_to 6896
  152.0277  133.3889  159.4321 H   0  0  0  0  0  0  0  0  0  0  0  0  # atno 6909 bound_to 6896
  145.5419  140.9508  143.1546 H   0  0  0  0  0  0  0  0  0  0  0  0  # atno 7974 bound_to 7965
  154.7461  140.0491  157.0853 H   0  0  0  0  0  0  0  0  0  0  0  0  # atno 8008 bound_to 7997
  155.0116  140.3136  155.4808 H   0  0  0  0  0  0  0  0  0  0  0  0  # atno 8009 bound_to 7997
  156.2875  140.2183  156.5231 H   0  0  0  0  0  0  0  0  0  0  0  0  # atno 8010 bound_to 7997
  139.5387  144.2423  152.0850 H   0  0  0  0  0  0  0  0  0  0  0  0  # atno 10167 bound_to 10162
  156.5340  130.4662  149.6532 H   0  0  0  0  0  0  0  0  0  0  0  0  # atno 10718 bound_to 10713
  153.1084  135.6690  153.9545 H   0  0  0  0  0  0  0  0  0  0  0  0  # atno 10763 bound_to 10752
  153.9096  135.3026  155.3450 H   0  0  0  0  0  0  0  0  0  0  0  0  # atno 10764 bound_to 10752
  154.7504  135.5037  153.9356 H   0  0  0  0  0  0  0  0  0  0  0  0  # atno 10765 bound_to 10752
  140.0705  134.5477  155.9052 H   0  0  0  0  0  0  0  0  0  0  0  0  # atno 11005 bound_to 11000
  144.7572  139.7044  143.7249 LP  0  0  0  0  0  0  0  0  0  0  0  0  # atno 17320 bound_to 7965
  146.1975  139.5250  142.9765 LP  0  0  0  0  0  0  0  0  0  0  0  0  # atno 17321 bound_to 7965
  140.1898  144.4763  150.6485 LP  0  0  0  0  0  0  0  0  0  0  0  0  # atno 17342 bound_to 10162
  140.6607  143.2251  151.5863 LP  0  0  0  0  0  0  0  0  0  0  0  0  # atno 17343 bound_to 10162
  156.3033  130.7189  151.2065 LP  0  0  0  0  0  0  0  0  0  0  0  0  # atno 17370 bound_to 10713
  157.7417  131.0500  150.5080 LP  0  0  0  0  0  0  0  0  0  0  0  0  # atno 17371 bound_to 10713
  141.2010  133.6615  156.5925 LP  0  0  0  0  0  0  0  0  0  0  0  0  # atno 17394 bound_to 11000
  140.3635  134.7667  157.4550 LP  0  0  0  0  0  0  0  0  0  0  0  0  # atno 17395 bound_to 11000

$$$$
