AV-unprocessed.smi:910|AV-procd|sdf|4116|dock2
  -GOLD-   22720 2 13D 1   1.00000     0.00000
 Structure written by MMmdl.
 46 47  0  0  0  0  0  0  0  0  1 V2000
  145.3042  130.5749  151.0921 C   0  0  0  0  0  0  0  0  0  0  0  0
  145.3455  132.0511  150.8510 C   0  0  0  0  0  0  0  0  0  0  0  0
  146.0609  132.9136  151.6696 N   0  0  0  0  0  0  0  0  0  0  0  0
  145.8560  134.1223  151.1432 C   0  0  0  0  0  0  0  0  0  0  0  0
  146.3806  135.3502  151.6179 N   0  0  0  0  0  0  0  0  0  0  0  0
  145.6991  136.3847  152.1369 C   0  0  0  0  0  0  0  0  0  0  0  0
  144.4750  136.4405  152.2581 O   0  0  0  0  0  0  0  0  0  0  0  0
  146.5273  137.3642  152.5259 N   0  0  0  0  0  0  0  0  0  0  0  0
  146.1221  138.5894  153.2073 C   0  0  0  0  0  0  0  0  0  0  0  0
  147.3251  139.5007  153.4928 C   0  0  0  0  0  0  0  0  0  0  0  0
  148.1850  138.8398  154.4095 O   0  0  0  0  0  0  0  0  0  0  0  0
  149.4820  139.4100  154.5210 C   0  0  2  0  0  0  0  0  0  0  0  0
  150.5348  138.2843  154.5714 C   0  0  0  0  0  0  0  0  0  0  0  0
  151.9415  138.8410  154.8360 C   0  0  0  0  0  0  0  0  0  0  0  0
  151.9696  139.6789  156.1223 C   0  0  0  0  0  0  0  0  0  0  0  0
  150.9280  140.8071  156.0697 C   0  0  0  0  0  0  0  0  0  0  0  0
  149.5090  140.2635  155.8085 C   0  0  1  0  0  0  0  0  0  0  0  0
  148.4881  141.4125  155.7489 C   0  0  0  0  0  0  0  0  0  0  0  0
  145.0598  134.1149  150.0414 O   0  0  0  0  0  0  0  0  0  0  0  0
  144.7424  132.7941  149.8677 C   0  0  0  0  0  0  0  0  0  0  0  0
  143.8624  132.4355  148.7188 C   0  0  0  0  0  0  0  0  0  0  0  0
  145.3232  130.0214  150.1531 H   0  0  0  0  0  0  0  0  0  0  0  0
  144.3970  130.2910  151.6256 H   0  0  0  0  0  0  0  0  0  0  0  0
  146.1562  130.2431  151.6864 H   0  0  0  0  0  0  0  0  0  0  0  0
  147.3846  135.4412  151.5779 H   0  0  0  0  0  0  0  0  0  0  0  0
  147.5183  137.2332  152.3850 H   0  0  0  0  0  0  0  0  0  0  0  0
  145.4056  139.1116  152.5728 H   0  0  0  0  0  0  0  0  0  0  0  0
  145.6006  138.3466  154.1343 H   0  0  0  0  0  0  0  0  0  0  0  0
  147.8556  139.7213  152.5664 H   0  0  0  0  0  0  0  0  0  0  0  0
  146.9825  140.4512  153.9049 H   0  0  0  0  0  0  0  0  0  0  0  0
  149.6870  140.0662  153.6729 H   0  0  0  0  0  0  0  0  0  0  0  0
  150.2728  137.5740  155.3565 H   0  0  0  0  0  0  0  0  0  0  0  0
  150.5376  137.7235  153.6368 H   0  0  0  0  0  0  0  0  0  0  0  0
  152.6579  138.0223  154.9094 H   0  0  0  0  0  0  0  0  0  0  0  0
  152.2572  139.4550  153.9916 H   0  0  0  0  0  0  0  0  0  0  0  0
  151.7718  139.0378  156.9823 H   0  0  0  0  0  0  0  0  0  0  0  0
  152.9652  140.0981  156.2709 H   0  0  0  0  0  0  0  0  0  0  0  0
  150.9476  141.3639  157.0072 H   0  0  0  0  0  0  0  0  0  0  0  0
  151.2014  141.5153  155.2857 H   0  0  0  0  0  0  0  0  0  0  0  0
  149.2371  139.6213  156.6478 H   0  0  0  0  0  0  0  0  0  0  0  0
  148.6962  142.0851  154.9162 H   0  0  0  0  0  0  0  0  0  0  0  0
  148.5066  142.0023  156.6657 H   0  0  0  0  0  0  0  0  0  0  0  0
  147.4720  141.0368  155.6245 H   0  0  0  0  0  0  0  0  0  0  0  0
  143.1305  131.6827  149.0119 H   0  0  0  0  0  0  0  0  0  0  0  0
  144.4507  132.0323  147.8945 H   0  0  0  0  0  0  0  0  0  0  0  0
  143.3205  133.3078  148.3530 H   0  0  0  0  0  0  0  0  0  0  0  0
  1  2  1  0  0  0  0
  1 22  1  0  0  0  0
  1 23  1  0  0  0  0
  1 24  1  0  0  0  0
  2 20  2  0  0  0  0
  2  3  1  0  0  0  0
  3  4  2  0  0  0  0
  4  5  1  0  0  0  0
  4 19  1  0  0  0  0
  5  6  1  0  0  0  0
  5 25  1  0  0  0  0
  6  7  2  0  0  0  0
  6  8  1  0  0  0  0
  8  9  1  0  0  0  0
  8 26  1  0  0  0  0
  9 10  1  0  0  0  0
  9 27  1  0  0  0  0
  9 28  1  0  0  0  0
 10 11  1  0  0  0  0
 10 29  1  0  0  0  0
 10 30  1  0  0  0  0
 11 12  1  0  0  0  0
 12 17  1  0  0  0  0
 12 13  1  0  0  0  0
 12 31  1  0  0  0  0
 13 14  1  0  0  0  0
 13 32  1  0  0  0  0
 13 33  1  0  0  0  0
 14 15  1  0  0  0  0
 14 34  1  0  0  0  0
 14 35  1  0  0  0  0
 15 16  1  0  0  0  0
 15 36  1  0  0  0  0
 15 37  1  0  0  0  0
 16 17  1  0  0  0  0
 16 38  1  0  0  0  0
 16 39  1  0  0  0  0
 17 18  1  0  0  0  0
 17 40  1  0  0  0  0
 18 41  1  0  0  0  0
 18 42  1  0  0  0  0
 18 43  1  0  0  0  0
 19 20  1  0  0  0  0
 20 21  1  0  0  0  0
 21 44  1  0  0  0  0
 21 45  1  0  0  0  0
 21 46  1  0  0  0  0
M  END
> <s_m_source_file>
AV-unprocessed.smi

> <i_m_source_file_index>
910

> <i_lp_mmshare_version>
43012

> <i_f3d_flags>
0

> <s_epik_input>
W0NIM11jMW5jKG9jMVtDSDNdKVtOSF1DKD1PKVtOSF1bQ0gyXVtDSDJdT1tDQEBIXTJbQ0gyXVtDSDJdW0NIMl1bQ0gyXVtDQEhdMltDSDNd

> <s_epik_cmdline>
J2VwaWtfcHl0aG9uJywgJy1waCcsICc3LjAnLCAnLXRuJywgJzgnLCAnLW1hJywgJzIwMCcsICctbWV0YWxfYmluZGluZycsICctaW1hZScsICc8aW5maWxlLm1hZT4nLCAnLW9tYWUnLCAnPG91dGZpbGUubWFlPic=

> <r_lp_tautomer_probability>
0.785861

> <r_epik_Ionization_Penalty>
4.15957e-05

> <r_epik_Ionization_Penalty_Charging>
0

> <r_epik_Ionization_Penalty_Neutral>
4.15957e-05

> <r_epik_State_Penalty>
0.0240523

> <r_epik_Charging_Adjusted_Penalty>
0.0240523

> <i_epik_Tot_Q>
0

> <i_epik_Tot_abs_Q>
0

> <r_epik_Metal_State_Penalty>
0.057053

> <b_epik_Metal_Only>
0

> <s_lp_Force_Field>
OPLS_2005

> <r_lp_Energy>
8.24802

> <b_lp_Chiralities_Consistent>
1

> <s_lp_Variant>
AV-unprocessed.smi:910-1

> <Gold.Version>
5.8.1

> <Gold.Id.Protein>
6NUR|6NUR_protein|mol2

> <Gold.PLP.Fitness>
41.3035

> <Gold.PLP.PLP>
-37.8185

> <Gold.PLP.part.hbond>
-2.0000

> <Gold.PLP.part.metal>
0.0000

> <Gold.PLP.part.buried>
-5.0487

> <Gold.PLP.part.nonpolar>
-33.2342

> <Gold.PLP.part.repulsive>
1.9508

> <Gold.PLP.ligand.clash>
0.0000

> <Gold.PLP.ligand.torsion>
1.2705

> <Gold.PLP.Chemscore.Hbond>
2.0000

> <Gold.PLP.Chemscore.CHOScore>
0.0000

> <Gold.PLP.Chemscore.Metal>
0.0000

> <Gold.Chemscore.Hbonds>
donor molecule, donor type, donor heavy atom, donor atom, acceptor molecule, acceptor atom, score
      L1  H     5    25       P1  7948  1.00
      L1  H     8    26       P1  7948  1.00

> <Gold.PLP.Chemscore.Internal.Correction>
0.0260

> <Gold.Rescore>
     Score         DG    S(hbond)    S(metal)    S(lipo)     H(rot)  DE(clash)    DE(int)     intcor
     17.86     -19.32       1.94        0.00      99.12       1.66       0.31       1.15       ----

> <Gold.Chemscore.Fitness>
17.8585

> <Gold.Chemscore.DG>
-19.3170

> <Gold.Chemscore.ZeroCoef>
-5.4800

> <Gold.Chemscore.Hbond>
1.9413

> <Gold.Chemscore.Metal>
0.0000

> <Gold.Chemscore.Lipo>
99.1168

> <Gold.Chemscore.Internal_Hbond>
0.0000

> <Gold.Chemscore.DEClash>
0.3071

> <Gold.Chemscore.DEInternal>
1.1514

> <Gold.Chemscore.Rot>
1.6576

> <Gold.Chemscore.Internal.Correction>
   9.000000E+99

> <Gold.Chemscore.Hbonds>
donor molecule, donor type, donor heavy atom, donor atom, acceptor molecule, acceptor atom, score
      L1  H     5    25       P1  7948  0.95
      L1  H     8    26       P1  7948  0.96

> <Gold.Chemscore.Hbond.Weighted>
-6.4839

> <Gold.Chemscore.Metal.Weighted>
-0.0000

> <Gold.Chemscore.Lipo.Weighted>
-11.5967

> <Gold.Chemscore.Internal_Hbond.Weighted>
0.0000

> <Gold.Chemscore.DEClash.Weighted>
0.3071

> <Gold.Chemscore.DEInternal.Weighted>
1.1514

> <Gold.Chemscore.Rot.Weighted>
4.2436

> <Gold.Chemscore.Internal.Correction.Weighted>
   9.000000E+99

> <Gold.Protein.RotatedTorsions>
[ 6907 6896 6895 6894 ] final  -51.85 input  -60.11 | X-H torsion
[ 7974 7965 7964 7962 ] final -130.29 input  175.53 | X-H torsion
[ 8008 7997 7996 7995 ] final   52.09 input   59.86 | X-H torsion
[ 10167 10162 10161 10158 ] final -122.29 input  -65.29 | X-H torsion
[ 10718 10713 10712 10709 ] final   -0.54 input   66.30 | X-H torsion
[ 10763 10752 10751 10750 ] final   13.84 input  -60.55 | X-H torsion
[ 11005 11000 10999 10996 ] final   13.73 input  -57.11 | X-H torsion

> <Gold.Protein.ActiveResidues>
 VAL166  LYS551  ARG553  GLY616  TRP617  ASP618  TYR619  PRO620  LYS621  CYS622 
 ASP623  PHE694  ASN695  SER759  ASP760  ASP761  ALA762  ILE779  LEU786  VAL792 
 PHE793  MET794  SER795  GLU796  ALA797  LYS798  CYS799  TRP800  GLU811  SER814 

> <Gold.Protein.RotatedAtoms>
  150.8573  134.7915  159.7055 H   0  0  0  0  0  0  0  0  0  0  0  0  # atno 6907 bound_to 6896
  152.4620  134.5158  159.9777 H   0  0  0  0  0  0  0  0  0  0  0  0  # atno 6908 bound_to 6896
  151.5268  133.3418  159.2946 H   0  0  0  0  0  0  0  0  0  0  0  0  # atno 6909 bound_to 6896
  144.9489  140.7323  143.4800 H   0  0  0  0  0  0  0  0  0  0  0  0  # atno 7974 bound_to 7965
  155.4460  140.3456  155.4295 H   0  0  0  0  0  0  0  0  0  0  0  0  # atno 8008 bound_to 7997
  156.1249  140.1497  156.9180 H   0  0  0  0  0  0  0  0  0  0  0  0  # atno 8009 bound_to 7997
  154.4851  140.0858  156.7447 H   0  0  0  0  0  0  0  0  0  0  0  0  # atno 8010 bound_to 7997
  140.0158  143.5394  152.2243 H   0  0  0  0  0  0  0  0  0  0  0  0  # atno 10167 bound_to 10162
  156.8189  130.5450  149.5699 H   0  0  0  0  0  0  0  0  0  0  0  0  # atno 10718 bound_to 10713
  153.1681  135.6807  153.8647 H   0  0  0  0  0  0  0  0  0  0  0  0  # atno 10763 bound_to 10752
  153.8020  135.3154  155.3392 H   0  0  0  0  0  0  0  0  0  0  0  0  # atno 10764 bound_to 10752
  154.7979  135.4796  154.0296 H   0  0  0  0  0  0  0  0  0  0  0  0  # atno 10765 bound_to 10752
  140.4774  134.0969  155.7744 H   0  0  0  0  0  0  0  0  0  0  0  0  # atno 11005 bound_to 11000
  145.2874  139.1896  143.4758 LP  0  0  0  0  0  0  0  0  0  0  0  0  # atno 17320 bound_to 7965
  146.3314  140.2846  142.8612 LP  0  0  0  0  0  0  0  0  0  0  0  0  # atno 17321 bound_to 7965
  139.6173  144.7622  151.2817 LP  0  0  0  0  0  0  0  0  0  0  0  0  # atno 17342 bound_to 10162
  140.7363  143.6712  150.8080 LP  0  0  0  0  0  0  0  0  0  0  0  0  # atno 17343 bound_to 10162
  156.1000  130.5962  150.9878 LP  0  0  0  0  0  0  0  0  0  0  0  0  # atno 17370 bound_to 10713
  157.6467  131.0903  150.8138 LP  0  0  0  0  0  0  0  0  0  0  0  0  # atno 17371 bound_to 10713
  141.1548  133.8903  157.2006 LP  0  0  0  0  0  0  0  0  0  0  0  0  # atno 17394 bound_to 11000
  139.9847  135.0086  156.9834 LP  0  0  0  0  0  0  0  0  0  0  0  0  # atno 17395 bound_to 11000

$$$$
