AV-unprocessed.smi:1971|AV-procd|sdf|7972|dock3
  -GOLD-   2272010143D 1   1.00000     0.00000
 Structure written by MMmdl.
 42 43  0  0  0  0  0  0  0  0  2 V2000
  151.9418  145.6961  159.9063 C   0  0  0  0  0  0  0  0  0  0  0  0
  152.5722  144.3014  160.0297 C   0  0  0  0  0  0  0  0  0  0  0  0
  152.1272  143.3353  159.0276 N   0  0  0  0  0  0  0  0  0  0  0  0
  150.6791  143.3988  158.8470 C   0  0  0  0  0  0  0  0  0  0  0  0
  150.1950  142.4026  157.7778 C   0  0  0  0  0  0  0  0  0  0  0  0
  150.5377  141.0153  158.1175 N   0  0  0  0  0  0  0  0  0  0  0  0
  150.0698  140.0478  157.1008 C   0  0  2  0  0  0  0  0  0  0  0  0
  148.6841  140.3950  156.5111 C   0  0  0  0  0  0  0  0  0  0  0  0
  150.0417  138.5765  157.5945 C   0  0  0  0  0  0  0  0  0  0  0  0
  148.9336  138.3166  158.5132 N   0  0  0  0  0  0  0  0  0  0  0  0
  148.7195  137.1900  159.2080 C   0  0  0  0  0  0  0  0  0  0  0  0
  149.5132  136.2501  159.1213 O   0  0  0  0  0  0  0  0  0  0  0  0
  147.5934  137.2193  159.9566 N   0  5  0  0  0  0  0  0  0  0  0  0
  147.4295  136.3389  160.9575 C   0  0  0  0  0  0  0  0  0  0  0  0
  147.7696  136.6039  162.2241 N   0  0  0  0  0  0  0  0  0  0  0  0
  147.5088  135.5496  163.1012 C   0  0  0  0  0  0  0  0  0  0  0  0
  146.9487  134.4592  162.4901 C   0  0  0  0  0  0  0  0  0  0  0  0
  146.7282  134.7269  160.7843 S   0  0  0  0  0  0  0  0  0  0  0  0
  151.9917  140.9567  158.3215 C   0  0  0  0  0  0  0  0  0  0  0  0
  152.4745  141.9599  159.3850 C   0  0  0  0  0  0  0  0  0  0  0  0
  152.2376  146.3248  160.7461 H   0  0  0  0  0  0  0  0  0  0  0  0
  150.8531  145.6363  159.9047 H   0  0  0  0  0  0  0  0  0  0  0  0
  152.2539  146.2060  158.9953 H   0  0  0  0  0  0  0  0  0  0  0  0
  153.6592  144.3892  160.0043 H   0  0  0  0  0  0  0  0  0  0  0  0
  152.3259  143.9183  161.0208 H   0  0  0  0  0  0  0  0  0  0  0  0
  150.1736  143.1952  159.7927 H   0  0  0  0  0  0  0  0  0  0  0  0
  150.3893  144.4074  158.5505 H   0  0  0  0  0  0  0  0  0  0  0  0
  149.1154  142.5176  157.6930 H   0  0  0  0  0  0  0  0  0  0  0  0
  150.6189  142.6671  156.8078 H   0  0  0  0  0  0  0  0  0  0  0  0
  150.7720  140.0748  156.2662 H   0  0  0  0  0  0  0  0  0  0  0  0
  148.3212  139.5996  155.8597 H   0  0  0  0  0  0  0  0  0  0  0  0
  148.7128  141.2972  155.9012 H   0  0  0  0  0  0  0  0  0  0  0  0
  147.9410  140.5423  157.2954 H   0  0  0  0  0  0  0  0  0  0  0  0
  150.0085  137.8960  156.7425 H   0  0  0  0  0  0  0  0  0  0  0  0
  150.9693  138.3198  158.1043 H   0  0  0  0  0  0  0  0  0  0  0  0
  148.2518  139.0539  158.6153 H   0  0  0  0  0  0  0  0  0  0  0  0
  147.7537  135.6626  164.1469 H   0  0  0  0  0  0  0  0  0  0  0  0
  146.6522  133.5218  162.9355 H   0  0  0  0  0  0  0  0  0  0  0  0
  152.2897  139.9644  158.6558 H   0  0  0  0  0  0  0  0  0  0  0  0
  152.5097  141.1406  157.3791 H   0  0  0  0  0  0  0  0  0  0  0  0
  153.5545  141.8591  159.4868 H   0  0  0  0  0  0  0  0  0  0  0  0
  152.0435  141.7028  160.3540 H   0  0  0  0  0  0  0  0  0  0  0  0
  1  2  1  0  0  0  0
  1 21  1  0  0  0  0
  1 22  1  0  0  0  0
  1 23  1  0  0  0  0
  2  3  1  0  0  0  0
  2 24  1  0  0  0  0
  2 25  1  0  0  0  0
  3 20  1  0  0  0  0
  3  4  1  0  0  0  0
  4  5  1  0  0  0  0
  4 26  1  0  0  0  0
  4 27  1  0  0  0  0
  5  6  1  0  0  0  0
  5 28  1  0  0  0  0
  5 29  1  0  0  0  0
  6  7  1  0  0  0  0
  6 19  1  0  0  0  0
  7  8  1  0  0  0  0
  7  9  1  0  0  0  0
  7 30  1  0  0  0  0
  8 31  1  0  0  0  0
  8 32  1  0  0  0  0
  8 33  1  0  0  0  0
  9 10  1  0  0  0  0
  9 34  1  0  0  0  0
  9 35  1  0  0  0  0
 10 11  1  0  0  0  0
 10 36  1  0  0  0  0
 11 12  2  0  0  0  0
 11 13  1  0  0  0  0
 13 14  1  0  0  0  0
 14 18  1  0  0  0  0
 14 15  2  0  0  0  0
 15 16  1  0  0  0  0
 16 17  2  0  0  0  0
 16 37  1  0  0  0  0
 17 18  1  0  0  0  0
 17 38  1  0  0  0  0
 19 20  1  0  0  0  0
 19 39  1  0  0  0  0
 19 40  1  0  0  0  0
 20 41  1  0  0  0  0
 20 42  1  0  0  0  0
M  CHG  1  13  -1
M  END
> <s_m_source_file>
AV-unprocessed.smi

> <i_m_source_file_index>
1971

> <i_lp_mmshare_version>
43012

> <i_f3d_flags>
0

> <s_epik_input>
W0NIM11bQ0gyXU4xW0NIMl1bQ0gyXU4oW0NIMl1bQ0gyXTEpW0NASF0oW0NIM10pW0NIMl1bTkhdQyg9TylbTkhdYzJuW2NIXVtjSF1zMg==

> <s_epik_cmdline>
J2VwaWtfcHl0aG9uJywgJy1waCcsICc3LjAnLCAnLXRuJywgJzgnLCAnLW1hJywgJzIwMCcsICctbWV0YWxfYmluZGluZycsICctaW1hZScsICc8aW5maWxlLm1hZT4nLCAnLW9tYWUnLCAnPG91dGZpbGUubWFlPic=

> <r_lp_tautomer_probability>
0.999

> <r_epik_Ionization_Penalty>
9.52272

> <r_epik_Ionization_Penalty_Charging>
5.92713

> <r_epik_Ionization_Penalty_Neutral>
3.59559

> <r_epik_State_Penalty>
7.69531

> <r_epik_Charging_Adjusted_Penalty>
13.6224

> <i_epik_Tot_Q>
-1

> <i_epik_Tot_abs_Q>
1

> <r_epik_Metal_State_Penalty>
3.66212

> <b_epik_Metal_Only>
1

> <s_lp_Force_Field>
OPLS_2005

> <r_lp_Energy>
40.0066

> <b_lp_Chiralities_Consistent>
1

> <s_lp_Variant>
AV-unprocessed.smi:1971-11

> <Gold.Version>
5.8.1

> <Gold.Id.Protein>
6NUR|6NUR_protein|mol2

> <Gold.PLP.Fitness>
44.4061

> <Gold.PLP.PLP>
-36.9827

> <Gold.PLP.part.hbond>
-3.3216

> <Gold.PLP.part.metal>
0.0000

> <Gold.PLP.part.buried>
-6.2132

> <Gold.PLP.part.nonpolar>
-27.9334

> <Gold.PLP.part.repulsive>
0.2072

> <Gold.PLP.ligand.clash>
0.0000

> <Gold.PLP.ligand.torsion>
1.3407

> <Gold.PLP.Chemscore.Hbond>
3.3540

> <Gold.PLP.Chemscore.CHOScore>
0.0000

> <Gold.PLP.Chemscore.Metal>
0.0000

> <Gold.Chemscore.Hbonds>
donor molecule, donor type, donor heavy atom, donor atom, acceptor molecule, acceptor atom, score
      P1  H  6896  6908       L1    12  0.99
      P1  H  6931  6943       L1    15  0.84
      P1  H  6934  6947       L1    13  1.57

> <Gold.PLP.Chemscore.Internal.Correction>
0.0427

> <Gold.Rescore>
     Score         DG    S(hbond)    S(metal)    S(lipo)     H(rot)  DE(clash)    DE(int)     intcor
     17.51     -19.00       2.03        0.00      94.80       1.70       0.03       1.46       ----

> <Gold.Chemscore.Fitness>
17.5116

> <Gold.Chemscore.DG>
-19.0024

> <Gold.Chemscore.ZeroCoef>
-5.4800

> <Gold.Chemscore.Hbond>
2.0336

> <Gold.Chemscore.Metal>
0.0000

> <Gold.Chemscore.Lipo>
94.8001

> <Gold.Chemscore.Internal_Hbond>
0.0000

> <Gold.Chemscore.DEClash>
0.0294

> <Gold.Chemscore.DEInternal>
1.4613

> <Gold.Chemscore.Rot>
1.7037

> <Gold.Chemscore.Internal.Correction>
   9.000000E+99

> <Gold.Chemscore.Hbonds>
donor molecule, donor type, donor heavy atom, donor atom, acceptor molecule, acceptor atom, score
      P1  H  6896  6908       L1    12  0.92
      P1  H  6931  6943       L1    15  0.21
      P1  H  6934  6947       L1    13  0.24

> <Gold.Chemscore.Hbond.Weighted>
-6.7922

> <Gold.Chemscore.Metal.Weighted>
-0.0000

> <Gold.Chemscore.Lipo.Weighted>
-11.0916

> <Gold.Chemscore.Internal_Hbond.Weighted>
0.0000

> <Gold.Chemscore.DEClash.Weighted>
0.0294

> <Gold.Chemscore.DEInternal.Weighted>
1.4613

> <Gold.Chemscore.Rot.Weighted>
4.3614

> <Gold.Chemscore.Internal.Correction.Weighted>
   9.000000E+99

> <Gold.Protein.RotatedTorsions>
[ 6907 6896 6895 6894 ] final  175.37 input  -60.11 | X-H torsion
[ 7974 7965 7964 7962 ] final  -49.79 input  175.53 | X-H torsion
[ 8008 7997 7996 7995 ] final -157.14 input   59.86 | X-H torsion
[ 10167 10162 10161 10158 ] final -113.45 input  -65.29 | X-H torsion
[ 10718 10713 10712 10709 ] final -155.70 input   66.30 | X-H torsion
[ 10763 10752 10751 10750 ] final   55.54 input  -60.55 | X-H torsion
[ 11005 11000 10999 10996 ] final   86.13 input  -57.11 | X-H torsion

> <Gold.Protein.ActiveResidues>
 VAL166  LYS551  ARG553  GLY616  TRP617  ASP618  TYR619  PRO620  LYS621  CYS622 
 ASP623  PHE694  ASN695  SER759  ASP760  ASP761  ALA762  ILE779  LEU786  VAL792 
 PHE793  MET794  SER795  GLU796  ALA797  LYS798  CYS799  TRP800  GLU811  SER814 

> <Gold.Protein.RotatedAtoms>
  151.7374  133.3320  159.3356 H   0  0  0  0  0  0  0  0  0  0  0  0  # atno 6907 bound_to 6896
  150.7587  134.6309  159.6195 H   0  0  0  0  0  0  0  0  0  0  0  0  # atno 6908 bound_to 6896
  152.3553  134.6951  160.0275 H   0  0  0  0  0  0  0  0  0  0  0  0  # atno 6909 bound_to 6896
  145.9368  140.7699  142.9572 H   0  0  0  0  0  0  0  0  0  0  0  0  # atno 7974 bound_to 7965
  155.7280  140.0798  157.2301 H   0  0  0  0  0  0  0  0  0  0  0  0  # atno 8008 bound_to 7997
  154.4036  140.1600  156.2531 H   0  0  0  0  0  0  0  0  0  0  0  0  # atno 8009 bound_to 7997
  155.9135  140.3402  155.6120 H   0  0  0  0  0  0  0  0  0  0  0  0  # atno 8010 bound_to 7997
  140.1117  143.4522  152.1748 H   0  0  0  0  0  0  0  0  0  0  0  0  # atno 10167 bound_to 10162
  156.5164  130.8458  151.2666 H   0  0  0  0  0  0  0  0  0  0  0  0  # atno 10718 bound_to 10713
  152.9818  135.5707  154.5083 H   0  0  0  0  0  0  0  0  0  0  0  0  # atno 10763 bound_to 10752
  154.4591  135.2781  155.1728 H   0  0  0  0  0  0  0  0  0  0  0  0  # atno 10764 bound_to 10752
  154.3323  135.6246  153.5611 H   0  0  0  0  0  0  0  0  0  0  0  0  # atno 10765 bound_to 10752
  139.8953  134.8334  156.2678 H   0  0  0  0  0  0  0  0  0  0  0  0  # atno 11005 bound_to 11000
  144.6773  140.2215  143.7366 LP  0  0  0  0  0  0  0  0  0  0  0  0  # atno 17320 bound_to 7965
  145.8353  139.2105  143.1859 LP  0  0  0  0  0  0  0  0  0  0  0  0  # atno 17321 bound_to 7965
  139.5616  144.7409  151.4140 LP  0  0  0  0  0  0  0  0  0  0  0  0  # atno 17342 bound_to 10162
  140.6922  143.7834  150.7272 LP  0  0  0  0  0  0  0  0  0  0  0  0  # atno 17343 bound_to 10162
  157.7443  130.9932  150.2664 LP  0  0  0  0  0  0  0  0  0  0  0  0  # atno 17370 bound_to 10713
  156.3191  130.3783  149.7591 LP  0  0  0  0  0  0  0  0  0  0  0  0  # atno 17371 bound_to 10713
  141.0121  133.7090  156.1128 LP  0  0  0  0  0  0  0  0  0  0  0  0  # atno 17394 bound_to 11000
  140.7353  134.4210  157.5561 LP  0  0  0  0  0  0  0  0  0  0  0  0  # atno 17395 bound_to 11000

$$$$
