AV-unprocessed.smi:1165|AV-procd|sdf|4930|dock4
  -GOLD-   22720 3513D 1   1.00000     0.00000
 Structure written by MMmdl.
 41 42  0  0  0  0  0  0  0  0  1 V2000
  152.0832  139.3568  156.1648 C   0  0  0  0  0  0  0  0  0  0  0  0
  151.6860  138.9407  154.7365 C   0  0  1  0  0  0  0  0  0  0  0  0
  151.2453  137.4685  154.6293 C   0  0  0  0  0  0  0  0  0  0  0  0
  149.8869  137.2732  155.1636 N   0  0  0  0  0  0  0  0  0  0  0  0
  149.3518  135.6490  155.4428 S   0  0  0  0  0  0  0  0  0  0  0  0
  150.3817  134.7227  154.9477 O   0  0  0  0  0  0  0  0  0  0  0  0
  148.8439  135.5620  156.8202 O   0  0  0  0  0  0  0  0  0  0  0  0
  148.0105  135.5936  154.3583 N   0  0  0  0  0  0  0  0  0  0  0  0
  147.0998  134.4502  154.3911 C   0  0  0  0  0  0  0  0  0  0  0  0
  147.7926  133.2037  153.8279 C   0  0  0  0  0  0  0  0  0  0  0  0
  147.0030  132.5790  152.6951 C   0  0  0  0  0  0  0  0  0  0  0  0
  146.5140  131.2600  152.7914 C   0  0  0  0  0  0  0  0  0  0  0  0
  145.7902  130.7251  151.7083 C   0  0  0  0  0  0  0  0  0  0  0  0
  145.5867  131.5340  150.5724 C   0  0  0  0  0  0  0  0  0  0  0  0
  146.0518  132.7978  150.4689 N   0  0  0  0  0  0  0  0  0  0  0  0
  146.7444  133.3032  151.5118 C   0  0  0  0  0  0  0  0  0  0  0  0
  148.9093  138.2152  154.6022 C   0  0  0  0  0  0  0  0  0  0  0  0
  149.4004  139.6660  154.7508 C   0  0  2  0  0  0  0  0  0  0  0  0
  148.4678  140.6605  154.0505 C   0  0  0  0  0  0  0  0  0  0  0  0
  150.6966  139.8022  154.1784 O   0  0  0  0  0  0  0  0  0  0  0  0
  152.9284  138.7658  156.5183 H   0  0  0  0  0  0  0  0  0  0  0  0
  151.2727  139.2162  156.8790 H   0  0  0  0  0  0  0  0  0  0  0  0
  152.3790  140.4057  156.1955 H   0  0  0  0  0  0  0  0  0  0  0  0
  152.5747  139.0641  154.1171 H   0  0  0  0  0  0  0  0  0  0  0  0
  151.2519  137.1580  153.5835 H   0  0  0  0  0  0  0  0  0  0  0  0
  151.9560  136.8269  155.1492 H   0  0  0  0  0  0  0  0  0  0  0  0
  148.2458  135.9116  153.4186 H   0  0  0  0  0  0  0  0  0  0  0  0
  146.7857  134.2707  155.4192 H   0  0  0  0  0  0  0  0  0  0  0  0
  146.2048  134.6864  153.8147 H   0  0  0  0  0  0  0  0  0  0  0  0
  148.7918  133.4585  153.4723 H   0  0  0  0  0  0  0  0  0  0  0  0
  147.9246  132.4597  154.6148 H   0  0  0  0  0  0  0  0  0  0  0  0
  146.6903  130.6670  153.6768 H   0  0  0  0  0  0  0  0  0  0  0  0
  145.4003  129.7186  151.7465 H   0  0  0  0  0  0  0  0  0  0  0  0
  145.0361  131.1557  149.7240 H   0  0  0  0  0  0  0  0  0  0  0  0
  147.1056  134.3150  151.3977 H   0  0  0  0  0  0  0  0  0  0  0  0
  148.7478  137.9693  153.5518 H   0  0  0  0  0  0  0  0  0  0  0  0
  147.9515  138.0982  155.1093 H   0  0  0  0  0  0  0  0  0  0  0  0
  149.4355  139.9302  155.8078 H   0  0  0  0  0  0  0  0  0  0  0  0
  147.4600  140.6112  154.4636 H   0  0  0  0  0  0  0  0  0  0  0  0
  148.4026  140.4565  152.9814 H   0  0  0  0  0  0  0  0  0  0  0  0
  148.8261  141.6829  154.1728 H   0  0  0  0  0  0  0  0  0  0  0  0
  1  2  1  0  0  0  0
  1 21  1  0  0  0  0
  1 22  1  0  0  0  0
  1 23  1  0  0  0  0
  2 20  1  0  0  0  0
  2  3  1  0  0  0  0
  2 24  1  0  0  0  0
  3  4  1  0  0  0  0
  3 25  1  0  0  0  0
  3 26  1  0  0  0  0
  4  5  1  0  0  0  0
  4 17  1  0  0  0  0
  5  6  2  0  0  0  0
  5  7  2  0  0  0  0
  5  8  1  0  0  0  0
  8  9  1  0  0  0  0
  8 27  1  0  0  0  0
  9 10  1  0  0  0  0
  9 28  1  0  0  0  0
  9 29  1  0  0  0  0
 10 11  1  0  0  0  0
 10 30  1  0  0  0  0
 10 31  1  0  0  0  0
 11 16  1  0  0  0  0
 11 12  2  0  0  0  0
 12 13  1  0  0  0  0
 12 32  1  0  0  0  0
 13 14  2  0  0  0  0
 13 33  1  0  0  0  0
 14 15  1  0  0  0  0
 14 34  1  0  0  0  0
 15 16  2  0  0  0  0
 16 35  1  0  0  0  0
 17 18  1  0  0  0  0
 17 36  1  0  0  0  0
 17 37  1  0  0  0  0
 18 19  1  0  0  0  0
 18 20  1  0  0  0  0
 18 38  1  0  0  0  0
 19 39  1  0  0  0  0
 19 40  1  0  0  0  0
 19 41  1  0  0  0  0
M  END
> <s_m_source_file>
AV-unprocessed.smi

> <i_m_source_file_index>
1165

> <i_lp_mmshare_version>
43012

> <i_f3d_flags>
0

> <s_epik_input>
W0NIM11bQ0BASF0xW0NIMl1OKFtDSDJdW0NASF0oTzEpW0NIM10pUyg9TykoPU8pW05IXVtDSDJdW0NIMl1jMltjSF1bY0hdW2NIXW5bY0hdMg==

> <s_epik_cmdline>
J2VwaWtfcHl0aG9uJywgJy1waCcsICc3LjAnLCAnLXRuJywgJzgnLCAnLW1hJywgJzIwMCcsICctbWV0YWxfYmluZGluZycsICctaW1hZScsICc8aW5maWxlLm1hZT4nLCAnLW9tYWUnLCAnPG91dGZpbGUubWFlPic=

> <r_epik_Ionization_Penalty>
0.0861056

> <r_epik_Ionization_Penalty_Charging>
0

> <r_epik_Ionization_Penalty_Neutral>
0.0861056

> <r_epik_State_Penalty>
0.0574425

> <r_epik_Charging_Adjusted_Penalty>
0.0574425

> <i_epik_Tot_Q>
0

> <i_epik_Tot_abs_Q>
0

> <r_epik_Metal_State_Penalty>
0.317425

> <b_epik_Metal_Only>
0

> <s_lp_Force_Field>
OPLS_2005

> <r_lp_Energy>
8.11282

> <b_lp_Chiralities_Consistent>
1

> <s_lp_Variant>
AV-unprocessed.smi:1165-3

> <Gold.Version>
5.8.1

> <Gold.Id.Protein>
6NUR|6NUR_protein|mol2

> <Gold.PLP.Fitness>
40.7245

> <Gold.PLP.PLP>
-33.0097

> <Gold.PLP.part.hbond>
-1.9810

> <Gold.PLP.part.metal>
0.0000

> <Gold.PLP.part.buried>
-4.4008

> <Gold.PLP.part.nonpolar>
-27.9189

> <Gold.PLP.part.repulsive>
0.8534

> <Gold.PLP.ligand.clash>
0.0000

> <Gold.PLP.ligand.torsion>
1.0244

> <Gold.PLP.Chemscore.Hbond>
2.0000

> <Gold.PLP.Chemscore.CHOScore>
1.0000

> <Gold.PLP.Chemscore.Metal>
0.0000

> <Gold.Chemscore.Hbonds>
donor molecule, donor type, donor heavy atom, donor atom, acceptor molecule, acceptor atom, score
      L1  H     8    27       P1  7948  1.00
      P1  H  7989  7998       L1    20  1.00
      L1  C    16    35       P1  7948  0.72

> <Gold.PLP.Chemscore.Internal.Correction>
0.7637

> <Gold.Rescore>
     Score         DG    S(hbond)    S(metal)    S(lipo)     H(rot)  DE(clash)    DE(int)     intcor
     15.99     -17.35       1.96        0.00      82.83       1.71       0.06       1.29       ----

> <Gold.Chemscore.Fitness>
15.9874

> <Gold.Chemscore.DG>
-17.3459

> <Gold.Chemscore.ZeroCoef>
-5.4800

> <Gold.Chemscore.Hbond>
1.9587

> <Gold.Chemscore.Metal>
0.0000

> <Gold.Chemscore.Lipo>
82.8312

> <Gold.Chemscore.Internal_Hbond>
0.0000

> <Gold.Chemscore.DEClash>
0.0646

> <Gold.Chemscore.DEInternal>
1.2939

> <Gold.Chemscore.Rot>
1.7060

> <Gold.Chemscore.Internal.Correction>
   9.000000E+99

> <Gold.Chemscore.Hbonds>
donor molecule, donor type, donor heavy atom, donor atom, acceptor molecule, acceptor atom, score
      L1  H     8    27       P1  7948  1.00
      P1  H  7989  7998       L1    20  0.25

> <Gold.Chemscore.Hbond.Weighted>
-6.5420

> <Gold.Chemscore.Metal.Weighted>
-0.0000

> <Gold.Chemscore.Lipo.Weighted>
-9.6912

> <Gold.Chemscore.Internal_Hbond.Weighted>
0.0000

> <Gold.Chemscore.DEClash.Weighted>
0.0646

> <Gold.Chemscore.DEInternal.Weighted>
1.2939

> <Gold.Chemscore.Rot.Weighted>
4.3674

> <Gold.Chemscore.Internal.Correction.Weighted>
   9.000000E+99

> <Gold.Protein.RotatedTorsions>
[ 6907 6896 6895 6894 ] final -116.53 input  -60.11 | X-H torsion
[ 7974 7965 7964 7962 ] final -154.10 input  175.53 | X-H torsion
[ 8008 7997 7996 7995 ] final  -40.32 input   59.86 | X-H torsion
[ 10167 10162 10161 10158 ] final  103.90 input  -65.29 | X-H torsion
[ 10718 10713 10712 10709 ] final   13.87 input   66.30 | X-H torsion
[ 10763 10752 10751 10750 ] final   -1.26 input  -60.55 | X-H torsion
[ 11005 11000 10999 10996 ] final   98.94 input  -57.11 | X-H torsion

> <Gold.Protein.ActiveResidues>
 VAL166  LYS551  ARG553  GLY616  TRP617  ASP618  TYR619  PRO620  LYS621  CYS622 
 ASP623  PHE694  ASN695  SER759  ASP760  ASP761  ALA762  ILE779  LEU786  VAL792 
 PHE793  MET794  SER795  GLU796  ALA797  LYS798  CYS799  TRP800  GLU811  SER814 

> <Gold.Protein.RotatedAtoms>
  150.8064  133.8503  159.3203 H   0  0  0  0  0  0  0  0  0  0  0  0  # atno 6907 bound_to 6896
  151.6301  135.1022  160.0129 H   0  0  0  0  0  0  0  0  0  0  0  0  # atno 6908 bound_to 6896
  152.4154  133.6990  159.6470 H   0  0  0  0  0  0  0  0  0  0  0  0  # atno 6909 bound_to 6896
  144.7706  140.4435  143.5909 H   0  0  0  0  0  0  0  0  0  0  0  0  # atno 7974 bound_to 7965
  154.4013  140.1528  156.3008 H   0  0  0  0  0  0  0  0  0  0  0  0  # atno 8008 bound_to 7997
  155.8702  140.3449  155.5794 H   0  0  0  0  0  0  0  0  0  0  0  0  # atno 8009 bound_to 7997
  155.7783  140.0840  157.2063 H   0  0  0  0  0  0  0  0  0  0  0  0  # atno 8010 bound_to 7997
  139.7224  144.7055  151.0852 H   0  0  0  0  0  0  0  0  0  0  0  0  # atno 10167 bound_to 10162
  157.0309  130.6192  149.5735 H   0  0  0  0  0  0  0  0  0  0  0  0  # atno 10718 bound_to 10713
  153.3426  135.6981  153.6855 H   0  0  0  0  0  0  0  0  0  0  0  0  # atno 10763 bound_to 10752
  153.5613  135.3534  155.2801 H   0  0  0  0  0  0  0  0  0  0  0  0  # atno 10764 bound_to 10752
  154.8639  135.4250  154.2642 H   0  0  0  0  0  0  0  0  0  0  0  0  # atno 10765 bound_to 10752
  139.8771  134.9072  156.4531 H   0  0  0  0  0  0  0  0  0  0  0  0  # atno 11005 bound_to 11000
  145.6334  139.1539  143.2956 LP  0  0  0  0  0  0  0  0  0  0  0  0  # atno 17320 bound_to 7965
  146.1850  140.6436  142.9171 LP  0  0  0  0  0  0  0  0  0  0  0  0  # atno 17321 bound_to 7965
  140.7756  143.5149  150.9607 LP  0  0  0  0  0  0  0  0  0  0  0  0  # atno 17342 bound_to 10162
  139.8836  143.7040  152.3154 LP  0  0  0  0  0  0  0  0  0  0  0  0  # atno 17343 bound_to 10162
  156.0070  130.5158  150.7863 LP  0  0  0  0  0  0  0  0  0  0  0  0  # atno 17370 bound_to 10713
  157.5178  131.0929  151.0116 LP  0  0  0  0  0  0  0  0  0  0  0  0  # atno 17371 bound_to 10713
  140.8917  133.7843  155.9579 LP  0  0  0  0  0  0  0  0  0  0  0  0  # atno 17394 bound_to 11000
  140.8746  134.2685  157.5174 LP  0  0  0  0  0  0  0  0  0  0  0  0  # atno 17395 bound_to 11000

$$$$
