AV-unprocessed.smi:526|AV-procd|sdf|2813|dock5
  -GOLD-   2262023293D 1   1.00000     0.00000
 Structure written by MMmdl.
 30 30  0  0  0  0  0  0  0  0  2 V2000
  151.9965  145.6092  159.8923 C   0  0  0  0  0  0  0  0  0  0  0  0
  152.1105  144.4042  159.3099 C   0  0  0  0  0  0  0  0  0  0  0  0
  152.1092  144.2376  157.8020 C   0  0  0  0  0  0  0  0  0  0  0  0
  152.2474  143.1277  160.1188 C   0  0  0  0  0  0  0  0  0  0  0  0
  153.2343  141.8640  159.2601 S   0  0  0  0  0  0  0  0  0  0  0  0
  152.0343  140.5882  158.9087 C   0  0  0  0  0  0  0  0  0  0  0  0
  150.8406  141.0300  158.5140 N   0  0  0  0  0  0  0  0  0  0  0  0
  149.9064  140.0933  158.2380 C   0  0  0  0  0  0  0  0  0  0  0  0
  148.5537  140.6204  157.7947 C   0  0  0  0  0  0  0  0  0  0  0  0
  150.1840  138.7073  158.3563 C   0  0  0  0  0  0  0  0  0  0  0  0
  149.1358  137.6396  158.0510 C   0  0  0  0  0  0  0  0  0  0  0  0
  148.8164  136.8704  159.3374 C   0  0  0  0  0  0  0  0  0  0  0  0
  148.2926  137.5207  160.2681 O   0  0  0  0  0  0  0  0  0  0  0  0
  149.0911  135.6503  159.3712 O   0  5  0  0  0  0  0  0  0  0  0  0
  151.4915  138.3674  158.7855 C   0  0  0  0  0  0  0  0  0  0  0  0
  151.8622  137.0622  158.9332 O   0  0  0  0  0  0  0  0  0  0  0  0
  152.4123  139.3169  159.0579 N   0  0  0  0  0  0  0  0  0  0  0  0
  151.8315  136.7758  159.8326 H   0  0  0  0  0  0  0  0  0  0  0  0
  151.8999  146.5095  159.3034 H   0  0  0  0  0  0  0  0  0  0  0  0
  151.9972  145.7142  160.9675 H   0  0  0  0  0  0  0  0  0  0  0  0
  151.2677  143.6220  157.4841 H   0  0  0  0  0  0  0  0  0  0  0  0
  153.0307  143.7554  157.4743 H   0  0  0  0  0  0  0  0  0  0  0  0
  152.0324  145.2005  157.2957 H   0  0  0  0  0  0  0  0  0  0  0  0
  152.7077  143.3662  161.0781 H   0  0  0  0  0  0  0  0  0  0  0  0
  151.2588  142.7165  160.3278 H   0  0  0  0  0  0  0  0  0  0  0  0
  148.3446  140.3160  156.7692 H   0  0  0  0  0  0  0  0  0  0  0  0
  148.5188  141.7098  157.8359 H   0  0  0  0  0  0  0  0  0  0  0  0
  147.7626  140.2373  158.4391 H   0  0  0  0  0  0  0  0  0  0  0  0
  149.4948  136.9429  157.2935 H   0  0  0  0  0  0  0  0  0  0  0  0
  148.2326  138.0953  157.6442 H   0  0  0  0  0  0  0  0  0  0  0  0
  1  2  2  0  0  0  0
  1 19  1  0  0  0  0
  1 20  1  0  0  0  0
  2  3  1  0  0  0  0
  2  4  1  0  0  0  0
  3 21  1  0  0  0  0
  3 22  1  0  0  0  0
  3 23  1  0  0  0  0
  4 24  1  0  0  0  0
  4 25  1  0  0  0  0
  4  5  1  0  0  0  0
  5  6  1  0  0  0  0
  6 17  1  0  0  0  0
  6  7  2  0  0  0  0
  7  8  1  0  0  0  0
  8 10  2  0  0  0  0
  8  9  1  0  0  0  0
  9 26  1  0  0  0  0
  9 27  1  0  0  0  0
  9 28  1  0  0  0  0
 10 15  1  0  0  0  0
 10 11  1  0  0  0  0
 11 12  1  0  0  0  0
 11 29  1  0  0  0  0
 11 30  1  0  0  0  0
 12 13  2  0  0  0  0
 12 14  1  0  0  0  0
 15 17  2  0  0  0  0
 15 16  1  0  0  0  0
 16 18  1  0  0  0  0
M  CHG  1  14  -1
M  END
> <s_m_source_file>
AV-unprocessed.smi

> <i_m_source_file_index>
526

> <i_lp_mmshare_version>
43012

> <i_f3d_flags>
0

> <s_epik_input>
W0NIMl09QyhbQ0gzXSlbQ0gyXVNjMW5jKFtDSDNdKWMoYyg9TylbbkhdMSlbQ0gyXUMoPU8pW09IXQ==

> <s_epik_cmdline>
J2VwaWtfcHl0aG9uJywgJy1waCcsICc3LjAnLCAnLXRuJywgJzgnLCAnLW1hJywgJzIwMCcsICctbWV0YWxfYmluZGluZycsICctaW1hZScsICc8aW5maWxlLm1hZT4nLCAnLW9tYWUnLCAnPG91dGZpbGUubWFlPic=

> <r_lp_tautomer_probability>
0.0660145

> <r_epik_Ionization_Penalty>
2.37967

> <r_epik_Ionization_Penalty_Charging>
0.000421182

> <r_epik_Ionization_Penalty_Neutral>
2.37925

> <r_epik_State_Penalty>
1.68674

> <r_epik_Charging_Adjusted_Penalty>
1.68716

> <i_epik_Tot_Q>
-1

> <i_epik_Tot_abs_Q>
1

> <r_epik_Metal_State_Penalty>
1.80034

> <b_epik_Metal_Only>
0

> <s_lp_Force_Field>
OPLS_2005

> <r_lp_Energy>
-7.53164

> <b_lp_Chiralities_Consistent>
1

> <s_lp_Variant>
AV-unprocessed.smi:526-3

> <Gold.Version>
5.8.1

> <Gold.Id.Protein>
6NUR|6NUR_protein|mol2

> <Gold.PLP.Fitness>
45.1332

> <Gold.PLP.PLP>
-34.9475

> <Gold.PLP.part.hbond>
-3.9699

> <Gold.PLP.part.metal>
0.0000

> <Gold.PLP.part.buried>
-4.6760

> <Gold.PLP.part.nonpolar>
-26.8228

> <Gold.PLP.part.repulsive>
0.0000

> <Gold.PLP.ligand.clash>
0.0000

> <Gold.PLP.ligand.torsion>
1.0401

> <Gold.PLP.Chemscore.Hbond>
4.0800

> <Gold.PLP.Chemscore.CHOScore>
0.0000

> <Gold.PLP.Chemscore.Metal>
0.0000

> <Gold.Chemscore.Hbonds>
donor molecule, donor type, donor heavy atom, donor atom, acceptor molecule, acceptor atom, score
      P1  H  6896  6909       L1    14  2.00
      P1  H  6931  6943       L1    13  1.02
      P1  H  6934  6947       L1    13  1.06

> <Gold.PLP.Chemscore.Internal.Correction>
0.0259

> <Gold.Rescore>
     Score         DG    S(hbond)    S(metal)    S(lipo)     H(rot)  DE(clash)    DE(int)     intcor
     12.36     -13.69       2.22        0.00      70.63       2.92       0.17       1.15       ----

> <Gold.Chemscore.Fitness>
12.3601

> <Gold.Chemscore.DG>
-13.6861

> <Gold.Chemscore.ZeroCoef>
-5.4800

> <Gold.Chemscore.Hbond>
2.2198

> <Gold.Chemscore.Metal>
0.0000

> <Gold.Chemscore.Lipo>
70.6331

> <Gold.Chemscore.Internal_Hbond>
0.0000

> <Gold.Chemscore.DEClash>
0.1739

> <Gold.Chemscore.DEInternal>
1.1521

> <Gold.Chemscore.Rot>
2.9187

> <Gold.Chemscore.Internal.Correction>
   9.000000E+99

> <Gold.Chemscore.Hbonds>
donor molecule, donor type, donor heavy atom, donor atom, acceptor molecule, acceptor atom, score
      P1  H  6896  6909       L1    14  1.00
      P1  H  6931  6943       L1    13  0.52
      P1  H  6934  6947       L1    13  0.51

> <Gold.Chemscore.Hbond.Weighted>
-7.4141

> <Gold.Chemscore.Metal.Weighted>
-0.0000

> <Gold.Chemscore.Lipo.Weighted>
-8.2641

> <Gold.Chemscore.Internal_Hbond.Weighted>
0.0000

> <Gold.Chemscore.DEClash.Weighted>
0.1739

> <Gold.Chemscore.DEInternal.Weighted>
1.1521

> <Gold.Chemscore.Rot.Weighted>
7.4720

> <Gold.Chemscore.Internal.Correction.Weighted>
   9.000000E+99

> <Gold.Protein.RotatedTorsions>
[ 6907 6896 6895 6894 ] final   60.67 input  -60.11 | X-H torsion
[ 7974 7965 7964 7962 ] final -104.58 input  175.53 | X-H torsion
[ 8008 7997 7996 7995 ] final  -79.28 input   59.86 | X-H torsion
[ 10167 10162 10161 10158 ] final  103.03 input  -65.29 | X-H torsion
[ 10718 10713 10712 10709 ] final -119.16 input   66.30 | X-H torsion
[ 10763 10752 10751 10750 ] final   74.63 input  -60.55 | X-H torsion
[ 11005 11000 10999 10996 ] final   22.60 input  -57.11 | X-H torsion

> <Gold.Protein.ActiveResidues>
 VAL166  LYS551  ARG553  GLY616  TRP617  ASP618  TYR619  PRO620  LYS621  CYS622 
 ASP623  PHE694  ASN695  SER759  ASP760  ASP761  ALA762  ILE779  LEU786  VAL792 
 PHE793  MET794  SER795  GLU796  ALA797  LYS798  CYS799  TRP800  GLU811  SER814 

> <Gold.Protein.RotatedAtoms>
  152.4023  134.6266  160.0064 H   0  0  0  0  0  0  0  0  0  0  0  0  # atno 6907 bound_to 6896
  151.6467  133.3317  159.3150 H   0  0  0  0  0  0  0  0  0  0  0  0  # atno 6908 bound_to 6896
  150.7922  134.6996  159.6587 H   0  0  0  0  0  0  0  0  0  0  0  0  # atno 6909 bound_to 6896
  145.2413  140.9206  143.3148 H   0  0  0  0  0  0  0  0  0  0  0  0  # atno 7974 bound_to 7965
  154.5769  140.0681  156.9048 H   0  0  0  0  0  0  0  0  0  0  0  0  # atno 8008 bound_to 7997
  155.2532  140.3353  155.4262 H   0  0  0  0  0  0  0  0  0  0  0  0  # atno 8009 bound_to 7997
  156.2161  140.1779  156.7571 H   0  0  0  0  0  0  0  0  0  0  0  0  # atno 8010 bound_to 7997
  139.7298  144.7038  151.0740 H   0  0  0  0  0  0  0  0  0  0  0  0  # atno 10167 bound_to 10162
  156.1160  130.6286  150.9382 H   0  0  0  0  0  0  0  0  0  0  0  0  # atno 10718 bound_to 10713
  153.0600  135.5018  154.8071 H   0  0  0  0  0  0  0  0  0  0  0  0  # atno 10763 bound_to 10752
  154.6867  135.2977  154.9539 H   0  0  0  0  0  0  0  0  0  0  0  0  # atno 10764 bound_to 10752
  154.0307  135.6730  153.4833 H   0  0  0  0  0  0  0  0  0  0  0  0  # atno 10765 bound_to 10752
  140.3788  134.1943  155.7664 H   0  0  0  0  0  0  0  0  0  0  0  0  # atno 11005 bound_to 11000
  144.9586  139.4004  143.6367 LP  0  0  0  0  0  0  0  0  0  0  0  0  # atno 17320 bound_to 7965
  146.3327  139.8629  142.8853 LP  0  0  0  0  0  0  0  0  0  0  0  0  # atno 17321 bound_to 7965
  140.7769  143.5058  150.9714 LP  0  0  0  0  0  0  0  0  0  0  0  0  # atno 17342 bound_to 10162
  139.8746  143.7149  152.3163 LP  0  0  0  0  0  0  0  0  0  0  0  0  # atno 17343 bound_to 10162
  157.6343  131.0917  150.8379 LP  0  0  0  0  0  0  0  0  0  0  0  0  # atno 17370 bound_to 10713
  156.8482  130.5071  149.5314 LP  0  0  0  0  0  0  0  0  0  0  0  0  # atno 17371 bound_to 10713
  141.1930  133.8159  157.0815 LP  0  0  0  0  0  0  0  0  0  0  0  0  # atno 17394 bound_to 11000
  140.0495  134.9813  157.1110 LP  0  0  0  0  0  0  0  0  0  0  0  0  # atno 17395 bound_to 11000

$$$$
