AV-unprocessed.smi:1779|AV-procd|sdf|7181|dock1
  -GOLD-   22720 8423D 1   1.00000     0.00000
 Structure written by MMmdl.
 47 48  0  0  0  0  0  0  0  0  2 V2000
  153.6732  141.3907  160.5659 C   0  0  0  0  0  0  0  0  0  0  0  0
  152.8839  142.0827  159.4940 C   0  0  0  0  0  0  0  0  0  0  0  0
  151.9469  141.5106  158.5849 C   0  0  0  0  0  0  0  0  0  0  0  0
  151.5434  142.5912  157.8492 C   0  0  0  0  0  0  0  0  0  0  0  0
  150.6408  142.6448  156.8340 N   0  0  0  0  0  0  0  0  0  0  0  0
  150.1935  141.6438  156.0562 C   0  0  0  0  0  0  0  0  0  0  0  0
  150.5491  140.4675  156.1297 O   0  0  0  0  0  0  0  0  0  0  0  0
  149.3055  142.0899  155.1563 N   0  0  0  0  0  0  0  0  0  0  0  0
  148.6251  141.2679  154.1603 C   0  0  0  0  0  0  0  0  0  0  0  0
  147.0966  141.4657  154.1933 C   0  0  2  0  0  0  0  0  0  0  0  0
  146.8250  142.5822  155.0164 O   0  0  0  0  0  0  0  0  0  0  0  0
  146.3260  140.2460  154.7443 C   0  0  0  0  0  0  0  0  0  0  0  0
  145.9128  139.3046  153.6722 N   0  3  0  0  0  0  0  0  0  0  0  0
  145.4127  138.0143  154.2147 C   0  0  0  0  0  0  0  0  0  0  0  0
  144.8598  137.1161  153.0949 C   0  0  0  0  0  0  0  0  0  0  0  0
  145.9160  136.8781  152.0079 C   0  0  0  0  0  0  0  0  0  0  0  0
  146.4411  138.2217  151.4863 C   0  0  0  0  0  0  0  0  0  0  0  0
  146.9637  139.0936  152.6401 C   0  0  0  0  0  0  0  0  0  0  0  0
  152.2006  143.7116  158.3062 N   0  0  0  0  0  0  0  0  0  0  0  0
  152.1048  145.0855  157.8529 C   0  0  0  0  0  0  0  0  0  0  0  0
  153.0308  143.3916  159.3219 N   0  0  0  0  0  0  0  0  0  0  0  0
  153.4011  140.3375  160.6384 H   0  0  0  0  0  0  0  0  0  0  0  0
  153.4960  141.8461  161.5407 H   0  0  0  0  0  0  0  0  0  0  0  0
  154.7428  141.4436  160.3614 H   0  0  0  0  0  0  0  0  0  0  0  0
  151.6351  140.4800  158.5067 H   0  0  0  0  0  0  0  0  0  0  0  0
  150.2742  143.5637  156.6335 H   0  0  0  0  0  0  0  0  0  0  0  0
  149.0700  143.0718  155.1693 H   0  0  0  0  0  0  0  0  0  0  0  0
  149.0209  141.4441  153.1583 H   0  0  0  0  0  0  0  0  0  0  0  0
  148.8635  140.2309  154.4004 H   0  0  0  0  0  0  0  0  0  0  0  0
  146.7588  141.7132  153.1874 H   0  0  0  0  0  0  0  0  0  0  0  0
  147.5348  143.2011  154.9329 H   0  0  0  0  0  0  0  0  0  0  0  0
  146.9238  139.6989  155.4733 H   0  0  0  0  0  0  0  0  0  0  0  0
  145.4492  140.6077  155.2838 H   0  0  0  0  0  0  0  0  0  0  0  0
  146.2183  137.5040  154.7454 H   0  0  0  0  0  0  0  0  0  0  0  0
  144.6217  138.2019  154.9423 H   0  0  0  0  0  0  0  0  0  0  0  0
  144.5309  136.1627  153.5097 H   0  0  0  0  0  0  0  0  0  0  0  0
  143.9781  137.5823  152.6529 H   0  0  0  0  0  0  0  0  0  0  0  0
  146.7405  136.2920  152.4161 H   0  0  0  0  0  0  0  0  0  0  0  0
  145.4921  136.2947  151.1899 H   0  0  0  0  0  0  0  0  0  0  0  0
  147.2338  138.0541  150.7565 H   0  0  0  0  0  0  0  0  0  0  0  0
  145.6434  138.7493  150.9612 H   0  0  0  0  0  0  0  0  0  0  0  0
  147.2983  140.0483  152.2363 H   0  0  0  0  0  0  0  0  0  0  0  0
  147.8359  138.6239  153.0979 H   0  0  0  0  0  0  0  0  0  0  0  0
  152.2462  145.1272  156.7725 H   0  0  0  0  0  0  0  0  0  0  0  0
  152.8673  145.7019  158.3316 H   0  0  0  0  0  0  0  0  0  0  0  0
  151.1202  145.4829  158.1005 H   0  0  0  0  0  0  0  0  0  0  0  0
  145.1260  139.7369  153.2085 H   0  0  0  0  0  0  0  0  0  0  0  0
  1  2  1  0  0  0  0
  1 22  1  0  0  0  0
  1 23  1  0  0  0  0
  1 24  1  0  0  0  0
  2 21  2  0  0  0  0
  2  3  1  0  0  0  0
  3  4  2  0  0  0  0
  3 25  1  0  0  0  0
  4  5  1  0  0  0  0
  4 19  1  0  0  0  0
  5  6  1  0  0  0  0
  5 26  1  0  0  0  0
  6  7  2  0  0  0  0
  6  8  1  0  0  0  0
  8  9  1  0  0  0  0
  8 27  1  0  0  0  0
  9 10  1  0  0  0  0
  9 28  1  0  0  0  0
  9 29  1  0  0  0  0
 10 11  1  0  0  0  0
 10 12  1  0  0  0  0
 10 30  1  0  0  0  0
 11 31  1  0  0  0  0
 12 13  1  0  0  0  0
 12 32  1  0  0  0  0
 12 33  1  0  0  0  0
 13 18  1  0  0  0  0
 13 14  1  0  0  0  0
 13 47  1  0  0  0  0
 14 15  1  0  0  0  0
 14 34  1  0  0  0  0
 14 35  1  0  0  0  0
 15 16  1  0  0  0  0
 15 36  1  0  0  0  0
 15 37  1  0  0  0  0
 16 17  1  0  0  0  0
 16 38  1  0  0  0  0
 16 39  1  0  0  0  0
 17 18  1  0  0  0  0
 17 40  1  0  0  0  0
 17 41  1  0  0  0  0
 18 42  1  0  0  0  0
 18 43  1  0  0  0  0
 19 20  1  0  0  0  0
 19 21  1  0  0  0  0
 20 44  1  0  0  0  0
 20 45  1  0  0  0  0
 20 46  1  0  0  0  0
M  CHG  1  13   1
M  END
> <s_m_source_file>
AV-unprocessed.smi

> <i_m_source_file_index>
1779

> <i_lp_mmshare_version>
43012

> <i_f3d_flags>
0

> <s_epik_input>
W0NIM11jMVtjSF1jKG4objEpW0NIM10pW05IXUMoPU8pW05IXVtDSDJdW0NASF0oW09IXSlbQ0gyXU4yW0NIMl1bQ0gyXVtDSDJdW0NIMl1bQ0gyXTI=

> <s_epik_cmdline>
J2VwaWtfcHl0aG9uJywgJy1waCcsICc3LjAnLCAnLXRuJywgJzgnLCAnLW1hJywgJzIwMCcsICctbWV0YWxfYmluZGluZycsICctaW1hZScsICc8aW5maWxlLm1hZT4nLCAnLW9tYWUnLCAnPG91dGZpbGUubWFlPic=

> <r_lp_tautomer_probability>
1

> <r_epik_Ionization_Penalty>
0.00528203

> <r_epik_Ionization_Penalty_Charging>
0.00519125

> <r_epik_Ionization_Penalty_Neutral>
9.07781e-05

> <r_epik_State_Penalty>
0.0037836

> <r_epik_Charging_Adjusted_Penalty>
0.00897485

> <i_epik_Tot_Q>
1

> <i_epik_Tot_abs_Q>
1

> <r_epik_Metal_State_Penalty>
-0

> <b_epik_Metal_Only>
0

> <s_lp_Force_Field>
OPLS_2005

> <r_lp_Energy>
18.32

> <b_lp_Chiralities_Consistent>
1

> <s_lp_Variant>
AV-unprocessed.smi:1779-1

> <Gold.Version>
5.8.1

> <Gold.Id.Protein>
6NUR|6NUR_protein|mol2

> <Gold.PLP.Fitness>
55.3054

> <Gold.PLP.PLP>
-43.1546

> <Gold.PLP.part.hbond>
-4.0000

> <Gold.PLP.part.metal>
0.0000

> <Gold.PLP.part.buried>
-1.9628

> <Gold.PLP.part.nonpolar>
-37.5137

> <Gold.PLP.part.repulsive>
0.2761

> <Gold.PLP.ligand.clash>
0.0000

> <Gold.PLP.ligand.torsion>
1.3354

> <Gold.PLP.Chemscore.Hbond>
4.9199

> <Gold.PLP.Chemscore.CHOScore>
0.0000

> <Gold.PLP.Chemscore.Metal>
0.0000

> <Gold.Chemscore.Hbonds>
donor molecule, donor type, donor heavy atom, donor atom, acceptor molecule, acceptor atom, score
      L1  H     5    26       P1  8028  0.97
      L1  H     8    27       P1  8028  1.00
      L1  H    11    31       P1  8028  0.78
      L1  H    13    47       P1 10175  2.00

> <Gold.PLP.Chemscore.Internal.Correction>
0.0619

> <Gold.Rescore>
     Score         DG    S(hbond)    S(metal)    S(lipo)     H(rot)  DE(clash)    DE(int)     intcor
     17.40     -20.01       3.03        0.00      89.34       2.36       0.26       2.35       ----

> <Gold.Chemscore.Fitness>
17.4004

> <Gold.Chemscore.DG>
-20.0083

> <Gold.Chemscore.ZeroCoef>
-5.4800

> <Gold.Chemscore.Hbond>
3.0269

> <Gold.Chemscore.Metal>
0.0000

> <Gold.Chemscore.Lipo>
89.3362

> <Gold.Chemscore.Internal_Hbond>
0.0000

> <Gold.Chemscore.DEClash>
0.2621

> <Gold.Chemscore.DEInternal>
2.3458

> <Gold.Chemscore.Rot>
2.3569

> <Gold.Chemscore.Internal.Correction>
   9.000000E+99

> <Gold.Chemscore.Hbonds>
donor molecule, donor type, donor heavy atom, donor atom, acceptor molecule, acceptor atom, score
      L1  H     5    26       P1  8028  0.86
      L1  H     8    27       P1  8028  1.00
      L1  H    11    31       P1  8028  0.30
      L1  H    13    47       P1 10175  1.00

> <Gold.Chemscore.Hbond.Weighted>
-10.1097

> <Gold.Chemscore.Metal.Weighted>
-0.0000

> <Gold.Chemscore.Lipo.Weighted>
-10.4523

> <Gold.Chemscore.Internal_Hbond.Weighted>
0.0000

> <Gold.Chemscore.DEClash.Weighted>
0.2621

> <Gold.Chemscore.DEInternal.Weighted>
2.3458

> <Gold.Chemscore.Rot.Weighted>
6.0337

> <Gold.Chemscore.Internal.Correction.Weighted>
   9.000000E+99

> <Gold.Protein.RotatedTorsions>
[ 6907 6896 6895 6894 ] final  -82.93 input  -60.11 | X-H torsion
[ 7974 7965 7964 7962 ] final   19.53 input  175.53 | X-H torsion
[ 8008 7997 7996 7995 ] final -169.61 input   59.86 | X-H torsion
[ 10167 10162 10161 10158 ] final   95.63 input  -65.29 | X-H torsion
[ 10718 10713 10712 10709 ] final -134.11 input   66.30 | X-H torsion
[ 10763 10752 10751 10750 ] final -125.56 input  -60.55 | X-H torsion
[ 11005 11000 10999 10996 ] final   92.47 input  -57.11 | X-H torsion

> <Gold.Protein.ActiveResidues>
 VAL166  LYS551  ARG553  GLY616  TRP617  ASP618  TYR619  PRO620  LYS621  CYS622 
 ASP623  PHE694  ASN695  SER759  ASP760  ASP761  ALA762  ILE779  LEU786  VAL792 
 PHE793  MET794  SER795  GLU796  ALA797  LYS798  CYS799  TRP800  GLU811  SER814 

> <Gold.Protein.RotatedAtoms>
  150.6891  134.3590  159.4941 H   0  0  0  0  0  0  0  0  0  0  0  0  # atno 6907 bound_to 6896
  152.1421  134.9051  160.0562 H   0  0  0  0  0  0  0  0  0  0  0  0  # atno 6908 bound_to 6896
  152.0181  133.3853  159.4284 H   0  0  0  0  0  0  0  0  0  0  0  0  # atno 6909 bound_to 6896
  146.2146  139.8300  142.8662 H   0  0  0  0  0  0  0  0  0  0  0  0  # atno 7974 bound_to 7965
  155.9072  140.1051  157.1306 H   0  0  0  0  0  0  0  0  0  0  0  0  # atno 8008 bound_to 7997
  154.4034  140.1281  156.4576 H   0  0  0  0  0  0  0  0  0  0  0  0  # atno 8009 bound_to 7997
  155.7353  140.3468  155.5081 H   0  0  0  0  0  0  0  0  0  0  0  0  # atno 8010 bound_to 7997
  139.7971  144.6829  150.9815 H   0  0  0  0  0  0  0  0  0  0  0  0  # atno 10167 bound_to 10162
  156.2520  130.7159  151.1061 H   0  0  0  0  0  0  0  0  0  0  0  0  # atno 10718 bound_to 10713
  154.8737  135.4025  154.3289 H   0  0  0  0  0  0  0  0  0  0  0  0  # atno 10763 bound_to 10752
  153.4105  135.7020  153.6368 H   0  0  0  0  0  0  0  0  0  0  0  0  # atno 10764 bound_to 10752
  153.5072  135.3715  155.2539 H   0  0  0  0  0  0  0  0  0  0  0  0  # atno 10765 bound_to 10752
  139.8823  134.8735  156.3578 H   0  0  0  0  0  0  0  0  0  0  0  0  # atno 11005 bound_to 11000
  145.3007  141.0193  143.3610 LP  0  0  0  0  0  0  0  0  0  0  0  0  # atno 17320 bound_to 7965
  144.9008  139.4652  143.6633 LP  0  0  0  0  0  0  0  0  0  0  0  0  # atno 17321 bound_to 7965
  140.7820  143.4320  151.0680 LP  0  0  0  0  0  0  0  0  0  0  0  0  # atno 17342 bound_to 10162
  139.7994  143.8105  152.3161 LP  0  0  0  0  0  0  0  0  0  0  0  0  # atno 17343 bound_to 10162
  157.7218  131.0676  150.6104 LP  0  0  0  0  0  0  0  0  0  0  0  0  # atno 17370 bound_to 10713
  156.6184  130.4399  149.5831 LP  0  0  0  0  0  0  0  0  0  0  0  0  # atno 17371 bound_to 10713
  140.9550  133.7426  156.0323 LP  0  0  0  0  0  0  0  0  0  0  0  0  # atno 17394 bound_to 11000
  140.8059  134.3455  157.5426 LP  0  0  0  0  0  0  0  0  0  0  0  0  # atno 17395 bound_to 11000

$$$$
