AV-unprocessed.smi:347|AV-procd|sdf|2394|dock2
  -GOLD-   2262022323D 1   1.00000     0.00000
 Structure written by MMmdl.
 45 46  0  0  0  0  0  0  0  0  2 V2000
  146.6256  134.2955  162.5395 C   0  0  0  0  0  0  0  0  0  0  0  0
  146.8929  135.3566  161.5279 C   0  0  0  0  0  0  0  0  0  0  0  0
  146.4814  135.5352  160.2370 C   0  0  0  0  0  0  0  0  0  0  0  0
  147.1116  136.7527  159.8661 C   0  0  0  0  0  0  0  0  0  0  0  0
  146.9292  137.3010  158.5712 N   0  0  0  0  0  0  0  0  0  0  0  0
  147.6214  138.3019  158.0014 C   0  0  0  0  0  0  0  0  0  0  0  0
  148.5712  138.8924  158.5157 O   0  0  0  0  0  0  0  0  0  0  0  0
  147.1423  138.5909  156.7827 N   0  0  0  0  0  0  0  0  0  0  0  0
  147.6498  139.6331  155.8927 C   0  0  0  0  0  0  0  0  0  0  0  0
  146.9143  139.7097  154.5405 C   0  0  0  0  0  0  0  0  0  0  0  0
  147.2830  138.5983  153.5258 C   0  0  0  0  0  0  0  0  0  0  0  0
  146.5674  137.2637  153.8303 C   0  0  0  0  0  0  0  0  0  0  0  0
  146.7989  139.0477  152.1332 C   0  0  0  0  0  0  0  0  0  0  0  0
  148.7598  138.4213  153.4312 N   0  3  0  0  0  0  0  0  0  0  0  0
  149.5896  138.3925  154.6693 C   0  0  0  0  0  0  0  0  0  0  0  0
  149.5892  136.9912  155.3200 C   0  0  0  0  0  0  0  0  0  0  0  0
  151.0414  138.6742  154.2351 C   0  0  0  0  0  0  0  0  0  0  0  0
  149.1643  139.5054  155.6628 C   0  0  0  0  0  0  0  0  0  0  0  0
  147.8411  137.2712  160.8418 N   0  0  0  0  0  0  0  0  0  0  0  0
  147.7057  136.3784  161.9116 O   0  0  0  0  0  0  0  0  0  0  0  0
  145.7321  133.7273  162.2803 H   0  0  0  0  0  0  0  0  0  0  0  0
  146.4744  134.7294  163.5281 H   0  0  0  0  0  0  0  0  0  0  0  0
  147.4631  133.6004  162.5992 H   0  0  0  0  0  0  0  0  0  0  0  0
  145.8340  134.8958  159.6559 H   0  0  0  0  0  0  0  0  0  0  0  0
  146.1819  136.8963  158.0272 H   0  0  0  0  0  0  0  0  0  0  0  0
  146.3656  138.0434  156.4415 H   0  0  0  0  0  0  0  0  0  0  0  0
  147.4862  140.5789  156.4133 H   0  0  0  0  0  0  0  0  0  0  0  0
  145.8341  139.7439  154.6875 H   0  0  0  0  0  0  0  0  0  0  0  0
  147.1686  140.6755  154.1007 H   0  0  0  0  0  0  0  0  0  0  0  0
  145.4862  137.3755  153.7397 H   0  0  0  0  0  0  0  0  0  0  0  0
  146.7457  136.8881  154.8322 H   0  0  0  0  0  0  0  0  0  0  0  0
  146.8705  136.4835  153.1314 H   0  0  0  0  0  0  0  0  0  0  0  0
  145.7217  139.2200  152.1225 H   0  0  0  0  0  0  0  0  0  0  0  0
  147.0167  138.2971  151.3719 H   0  0  0  0  0  0  0  0  0  0  0  0
  147.2795  139.9755  151.8198 H   0  0  0  0  0  0  0  0  0  0  0  0
  148.9572  137.5957  152.8837 H   0  0  0  0  0  0  0  0  0  0  0  0
  150.3211  136.9390  156.1269 H   0  0  0  0  0  0  0  0  0  0  0  0
  149.8524  136.2190  154.5963 H   0  0  0  0  0  0  0  0  0  0  0  0
  148.6378  136.7110  155.7596 H   0  0  0  0  0  0  0  0  0  0  0  0
  151.7169  138.6964  155.0912 H   0  0  0  0  0  0  0  0  0  0  0  0
  151.1290  139.6356  153.7269 H   0  0  0  0  0  0  0  0  0  0  0  0
  151.4090  137.9107  153.5480 H   0  0  0  0  0  0  0  0  0  0  0  0
  149.5057  140.4656  155.2725 H   0  0  0  0  0  0  0  0  0  0  0  0
  149.6818  139.3834  156.6158 H   0  0  0  0  0  0  0  0  0  0  0  0
  149.0900  139.2197  152.9082 H   0  0  0  0  0  0  0  0  0  0  0  0
  1  2  1  0  0  0  0
  1 21  1  0  0  0  0
  1 22  1  0  0  0  0
  1 23  1  0  0  0  0
  2 20  1  0  0  0  0
  2  3  2  0  0  0  0
  3  4  1  0  0  0  0
  3 24  1  0  0  0  0
  4  5  1  0  0  0  0
  4 19  2  0  0  0  0
  5  6  1  0  0  0  0
  5 25  1  0  0  0  0
  6  7  2  0  0  0  0
  6  8  1  0  0  0  0
  8  9  1  0  0  0  0
  8 26  1  0  0  0  0
  9 18  1  0  0  0  0
  9 10  1  0  0  0  0
  9 27  1  0  0  0  0
 10 11  1  0  0  0  0
 10 28  1  0  0  0  0
 10 29  1  0  0  0  0
 11 12  1  0  0  0  0
 11 13  1  0  0  0  0
 11 14  1  0  0  0  0
 12 30  1  0  0  0  0
 12 31  1  0  0  0  0
 12 32  1  0  0  0  0
 13 33  1  0  0  0  0
 13 34  1  0  0  0  0
 13 35  1  0  0  0  0
 14 15  1  0  0  0  0
 14 36  1  0  0  0  0
 14 45  1  0  0  0  0
 15 16  1  0  0  0  0
 15 17  1  0  0  0  0
 15 18  1  0  0  0  0
 16 37  1  0  0  0  0
 16 38  1  0  0  0  0
 16 39  1  0  0  0  0
 17 40  1  0  0  0  0
 17 41  1  0  0  0  0
 17 42  1  0  0  0  0
 18 43  1  0  0  0  0
 18 44  1  0  0  0  0
 19 20  1  0  0  0  0
M  CHG  1  14   1
M  END
> <s_m_source_file>
AV-unprocessed.smi

> <i_m_source_file_index>
347

> <i_lp_mmshare_version>
43012

> <i_f3d_flags>
0

> <s_epik_input>
W0NIM11jMVtjSF1jKG5vMSlbTkhdQyg9TylbTkhdW0NIXShbQ0gyXUMyKFtDSDNdKVtDSDNdKVtDSDJdQyhbTkhdMikoW0NIM10pW0NIM10=

> <s_epik_cmdline>
J2VwaWtfcHl0aG9uJywgJy1waCcsICc3LjAnLCAnLXRuJywgJzgnLCAnLW1hJywgJzIwMCcsICctbWV0YWxfYmluZGluZycsICctaW1hZScsICc8aW5maWxlLm1hZT4nLCAnLW9tYWUnLCAnPG91dGZpbGUubWFlPic=

> <r_lp_tautomer_probability>
1

> <r_epik_Ionization_Penalty>
0.000125139

> <r_epik_Ionization_Penalty_Charging>
0.000103024

> <r_epik_Ionization_Penalty_Neutral>
2.21147e-05

> <r_epik_State_Penalty>
-0

> <r_epik_Charging_Adjusted_Penalty>
0.000103024

> <i_epik_Tot_Q>
1

> <i_epik_Tot_abs_Q>
1

> <r_epik_Metal_State_Penalty>
-0

> <b_epik_Metal_Only>
0

> <s_lp_Force_Field>
OPLS_2005

> <r_lp_Energy>
23.9758

> <b_lp_Chiralities_Consistent>
1

> <s_lp_Variant>
AV-unprocessed.smi:347-1

> <Gold.Version>
5.8.1

> <Gold.Id.Protein>
6NUR|6NUR_protein|mol2

> <Gold.PLP.Fitness>
38.0814

> <Gold.PLP.PLP>
-25.5564

> <Gold.PLP.part.hbond>
-5.0506

> <Gold.PLP.part.metal>
0.0000

> <Gold.PLP.part.buried>
-3.2485

> <Gold.PLP.part.nonpolar>
-17.5402

> <Gold.PLP.part.repulsive>
0.1640

> <Gold.PLP.ligand.clash>
0.0000

> <Gold.PLP.ligand.torsion>
0.0578

> <Gold.PLP.Chemscore.Hbond>
4.2080

> <Gold.PLP.Chemscore.CHOScore>
0.0000

> <Gold.PLP.Chemscore.Metal>
0.0000

> <Gold.Chemscore.Hbonds>
donor molecule, donor type, donor heavy atom, donor atom, acceptor molecule, acceptor atom, score
      L1  H    14    36       P1  7948  2.00
      L1  H    14    45       P1  7957  0.98
      P1  H  6931  6943       L1    19  0.33
      P1  H  6934  6947       L1    19  0.82

> <Gold.PLP.Chemscore.Internal.Correction>
0.0167

> <Gold.Rescore>
     Score         DG    S(hbond)    S(metal)    S(lipo)     H(rot)  DE(clash)    DE(int)     intcor
     17.90     -19.69       2.84        0.00      62.16       1.00       0.52       1.27       ----

> <Gold.Chemscore.Fitness>
17.8978

> <Gold.Chemscore.DG>
-19.6919

> <Gold.Chemscore.ZeroCoef>
-5.4800

> <Gold.Chemscore.Hbond>
2.8439

> <Gold.Chemscore.Metal>
0.0000

> <Gold.Chemscore.Lipo>
62.1637

> <Gold.Chemscore.Internal_Hbond>
0.0000

> <Gold.Chemscore.DEClash>
0.5196

> <Gold.Chemscore.DEInternal>
1.2745

> <Gold.Chemscore.Rot>
1.0000

> <Gold.Chemscore.Internal.Correction>
   9.000000E+99

> <Gold.Chemscore.Hbonds>
donor molecule, donor type, donor heavy atom, donor atom, acceptor molecule, acceptor atom, score
      L1  H    14    36       P1  7948  1.00
      L1  H    14    45       P1  7957  0.90
      P1  H  6931  6943       L1    19  0.01
      P1  H  6934  6947       L1    19  0.28

> <Gold.Chemscore.Hbond.Weighted>
-9.4988

> <Gold.Chemscore.Metal.Weighted>
-0.0000

> <Gold.Chemscore.Lipo.Weighted>
-7.2732

> <Gold.Chemscore.Internal_Hbond.Weighted>
0.0000

> <Gold.Chemscore.DEClash.Weighted>
0.5196

> <Gold.Chemscore.DEInternal.Weighted>
1.2745

> <Gold.Chemscore.Rot.Weighted>
2.5600

> <Gold.Chemscore.Internal.Correction.Weighted>
   9.000000E+99

> <Gold.Protein.RotatedTorsions>
[ 6907 6896 6895 6894 ] final  170.58 input  -60.11 | X-H torsion
[ 7974 7965 7964 7962 ] final  156.99 input  175.53 | X-H torsion
[ 8008 7997 7996 7995 ] final   67.05 input   59.86 | X-H torsion
[ 10167 10162 10161 10158 ] final  -58.62 input  -65.29 | X-H torsion
[ 10718 10713 10712 10709 ] final  -44.21 input   66.30 | X-H torsion
[ 10763 10752 10751 10750 ] final   56.41 input  -60.55 | X-H torsion
[ 11005 11000 10999 10996 ] final -134.50 input  -57.11 | X-H torsion

> <Gold.Protein.ActiveResidues>
 VAL166  LYS551  ARG553  GLY616  TRP617  ASP618  TYR619  PRO620  LYS621  CYS622 
 ASP623  PHE694  ASN695  SER759  ASP760  ASP761  ALA762  ILE779  LEU786  VAL792 
 PHE793  MET794  SER795  GLU796  ALA797  LYS798  CYS799  TRP800  GLU811  SER814 

> <Gold.Protein.RotatedAtoms>
  151.8138  133.3385  159.3563 H   0  0  0  0  0  0  0  0  0  0  0  0  # atno 6907 bound_to 6896
  150.7317  134.5639  159.5865 H   0  0  0  0  0  0  0  0  0  0  0  0  # atno 6908 bound_to 6896
  152.3056  134.7560  160.0399 H   0  0  0  0  0  0  0  0  0  0  0  0  # atno 6909 bound_to 6896
  144.7930  139.7280  143.6213 H   0  0  0  0  0  0  0  0  0  0  0  0  # atno 7974 bound_to 7965
  155.6869  140.3496  155.4878 H   0  0  0  0  0  0  0  0  0  0  0  0  # atno 8008 bound_to 7997
  155.9558  140.1128  157.0960 H   0  0  0  0  0  0  0  0  0  0  0  0  # atno 8009 bound_to 7997
  154.4132  140.1185  156.5099 H   0  0  0  0  0  0  0  0  0  0  0  0  # atno 8010 bound_to 7997
  140.6186  143.2411  151.5536 H   0  0  0  0  0  0  0  0  0  0  0  0  # atno 10167 bound_to 10162
  156.2409  130.4180  149.8761 H   0  0  0  0  0  0  0  0  0  0  0  0  # atno 10718 bound_to 10713
  152.9831  135.5677  154.5225 H   0  0  0  0  0  0  0  0  0  0  0  0  # atno 10763 bound_to 10752
  154.4710  135.2785  155.1644 H   0  0  0  0  0  0  0  0  0  0  0  0  # atno 10764 bound_to 10752
  154.3192  135.6272  153.5553 H   0  0  0  0  0  0  0  0  0  0  0  0  # atno 10765 bound_to 10752
  140.8984  134.1722  157.4478 H   0  0  0  0  0  0  0  0  0  0  0  0  # atno 11005 bound_to 11000
  146.2188  139.5598  142.9632 LP  0  0  0  0  0  0  0  0  0  0  0  0  # atno 17320 bound_to 7965
  145.5746  141.0390  143.2155 LP  0  0  0  0  0  0  0  0  0  0  0  0  # atno 17321 bound_to 7965
  139.5419  144.2624  152.1368 LP  0  0  0  0  0  0  0  0  0  0  0  0  # atno 17342 bound_to 10162
  140.1839  144.4818  150.6514 LP  0  0  0  0  0  0  0  0  0  0  0  0  # atno 17343 bound_to 10162
  156.6343  130.8678  151.3501 LP  0  0  0  0  0  0  0  0  0  0  0  0  # atno 17370 bound_to 10713
  157.7175  130.9515  150.1310 LP  0  0  0  0  0  0  0  0  0  0  0  0  # atno 17371 bound_to 10713
  139.8739  134.9888  156.5428 LP  0  0  0  0  0  0  0  0  0  0  0  0  # atno 17394 bound_to 11000
  140.8260  133.8316  155.8940 LP  0  0  0  0  0  0  0  0  0  0  0  0  # atno 17395 bound_to 11000

$$$$
