AV-unprocessed.smi:3310|AV-procd|sdf|12718|dock6
  -GOLD-   2272019 53D 1   1.00000     0.00000
 Structure written by MMmdl.
 45 46  0  0  0  0  0  0  0  0  2 V2000
  144.3494  144.8294  153.2258 C   0  0  0  0  0  0  0  0  0  0  0  0
  145.5128  143.8318  153.2236 C   0  0  0  0  0  0  0  0  0  0  0  0
  145.4133  142.8301  154.3319 C   0  0  0  0  0  0  0  0  0  0  0  0
  144.3235  142.6847  155.0950 N   0  0  0  0  0  0  0  0  0  0  0  0
  144.6328  141.6908  156.0015 N   0  0  0  0  0  0  0  0  0  0  0  0
  145.8825  141.3410  155.7017 C   0  0  0  0  0  0  0  0  0  0  0  0
  146.4297  142.0108  154.6756 N   0  0  0  0  0  0  0  0  0  0  0  0
  147.7605  141.8635  154.1152 C   0  0  0  0  0  0  0  0  0  0  0  0
  148.7151  141.1813  155.1046 C   0  0  0  0  0  0  0  0  0  0  0  0
  149.5798  142.1703  155.7763 N   0  3  0  0  0  0  0  0  0  0  0  0
  149.8723  141.8503  157.1879 C   0  0  0  0  0  0  0  0  0  0  0  0
  151.2060  142.4674  157.6485 C   0  0  2  0  0  0  0  0  0  0  0  0
  151.5741  141.9801  159.0641 C   0  0  0  0  0  0  0  0  0  0  0  0
  152.8958  142.5942  159.5584 C   0  0  0  0  0  0  0  0  0  0  0  0
  152.8843  144.1348  159.5120 C   0  0  2  0  0  0  0  0  0  0  0  0
  152.0133  144.7541  160.6192 C   0  0  0  0  0  0  0  0  0  0  0  0
  152.4913  144.6263  158.1050 C   0  0  0  0  0  0  0  0  0  0  0  0
  151.1695  144.0105  157.6139 C   0  0  0  0  0  0  0  0  0  0  0  0
  144.4444  145.5394  152.4041 H   0  0  0  0  0  0  0  0  0  0  0  0
  144.3188  145.3974  154.1558 H   0  0  0  0  0  0  0  0  0  0  0  0
  143.3929  144.3177  153.1144 H   0  0  0  0  0  0  0  0  0  0  0  0
  145.5306  143.2962  152.2738 H   0  0  0  0  0  0  0  0  0  0  0  0
  146.4628  144.3616  153.2892 H   0  0  0  0  0  0  0  0  0  0  0  0
  146.4135  140.5743  156.2470 H   0  0  0  0  0  0  0  0  0  0  0  0
  147.6948  141.2979  153.1853 H   0  0  0  0  0  0  0  0  0  0  0  0
  148.1323  142.8549  153.8530 H   0  0  0  0  0  0  0  0  0  0  0  0
  148.1433  140.6383  155.8587 H   0  0  0  0  0  0  0  0  0  0  0  0
  149.3386  140.4518  154.5858 H   0  0  0  0  0  0  0  0  0  0  0  0
  150.4532  142.2344  155.2729 H   0  0  0  0  0  0  0  0  0  0  0  0
  149.0568  142.2024  157.8213 H   0  0  0  0  0  0  0  0  0  0  0  0
  149.9093  140.7649  157.2913 H   0  0  0  0  0  0  0  0  0  0  0  0
  151.9900  142.1276  156.9698 H   0  0  0  0  0  0  0  0  0  0  0  0
  150.7712  142.2234  159.7612 H   0  0  0  0  0  0  0  0  0  0  0  0
  151.6607  140.8929  159.0708 H   0  0  0  0  0  0  0  0  0  0  0  0
  153.1121  142.2494  160.5701 H   0  0  0  0  0  0  0  0  0  0  0  0
  153.7111  142.2254  158.9344 H   0  0  0  0  0  0  0  0  0  0  0  0
  153.9041  144.4726  159.7012 H   0  0  0  0  0  0  0  0  0  0  0  0
  150.9644  144.4752  160.5226 H   0  0  0  0  0  0  0  0  0  0  0  0
  152.0677  145.8427  160.5949 H   0  0  0  0  0  0  0  0  0  0  0  0
  152.3490  144.4330  161.6055 H   0  0  0  0  0  0  0  0  0  0  0  0
  152.4242  145.7148  158.0915 H   0  0  0  0  0  0  0  0  0  0  0  0
  153.2843  144.3652  157.4029 H   0  0  0  0  0  0  0  0  0  0  0  0
  150.9730  144.3602  156.6001 H   0  0  0  0  0  0  0  0  0  0  0  0
  150.3436  144.3762  158.2246 H   0  0  0  0  0  0  0  0  0  0  0  0
  149.1209  143.0694  155.7430 H   0  0  0  0  0  0  0  0  0  0  0  0
  1  2  1  0  0  0  0
  1 19  1  0  0  0  0
  1 20  1  0  0  0  0
  1 21  1  0  0  0  0
  2  3  1  0  0  0  0
  2 22  1  0  0  0  0
  2 23  1  0  0  0  0
  3  7  1  0  0  0  0
  3  4  2  0  0  0  0
  4  5  1  0  0  0  0
  5  6  2  0  0  0  0
  6  7  1  0  0  0  0
  6 24  1  0  0  0  0
  7  8  1  0  0  0  0
  8  9  1  0  0  0  0
  8 25  1  0  0  0  0
  8 26  1  0  0  0  0
  9 10  1  0  0  0  0
  9 27  1  0  0  0  0
  9 28  1  0  0  0  0
 10 11  1  0  0  0  0
 10 29  1  0  0  0  0
 10 45  1  0  0  0  0
 11 12  1  0  0  0  0
 11 30  1  0  0  0  0
 11 31  1  0  0  0  0
 12 18  1  0  0  0  0
 12 13  1  0  0  0  0
 12 32  1  0  0  0  0
 13 14  1  0  0  0  0
 13 33  1  0  0  0  0
 13 34  1  0  0  0  0
 14 15  1  0  0  0  0
 14 35  1  0  0  0  0
 14 36  1  0  0  0  0
 15 16  1  0  0  0  0
 15 17  1  0  0  0  0
 15 37  1  0  0  0  0
 16 38  1  0  0  0  0
 16 39  1  0  0  0  0
 16 40  1  0  0  0  0
 17 18  1  0  0  0  0
 17 41  1  0  0  0  0
 17 42  1  0  0  0  0
 18 43  1  0  0  0  0
 18 44  1  0  0  0  0
M  CHG  1  10   1
M  END
> <s_m_source_file>
AV-unprocessed.smi

> <i_m_source_file_index>
3310

> <i_lp_mmshare_version>
43012

> <i_f3d_flags>
0

> <s_epik_input>
W0NIM11bQ0gyXWMxbm5bY0hdbjFbQ0gyXVtDSDJdW05IXVtDSDJdW0NAQEhdMltDSDJdW0NIMl1bQ0BASF0oW0NIM10pW0NIMl1bQ0gyXTI=

> <s_epik_cmdline>
J2VwaWtfcHl0aG9uJywgJy1waCcsICc3LjAnLCAnLXRuJywgJzgnLCAnLW1hJywgJzIwMCcsICctbWV0YWxfYmluZGluZycsICctaW1hZScsICc8aW5maWxlLm1hZT4nLCAnLW9tYWUnLCAnPG91dGZpbGUubWFlPic=

> <r_lp_tautomer_probability>
1

> <r_epik_Ionization_Penalty>
0.00127868

> <r_epik_Ionization_Penalty_Charging>
0.00126792

> <r_epik_Ionization_Penalty_Neutral>
1.07546e-05

> <r_epik_State_Penalty>
-0

> <r_epik_Charging_Adjusted_Penalty>
0.00126792

> <i_epik_Tot_Q>
1

> <i_epik_Tot_abs_Q>
1

> <r_epik_Metal_State_Penalty>
-0

> <b_epik_Metal_Only>
0

> <s_lp_Force_Field>
OPLS_2005

> <r_lp_Energy>
17.5761

> <b_lp_Chiralities_Consistent>
1

> <s_lp_Variant>
AV-unprocessed.smi:3310-2

> <Gold.Version>
5.8.1

> <Gold.Id.Protein>
6NUR|6NUR_protein|mol2

> <Gold.PLP.Fitness>
49.2175

> <Gold.PLP.PLP>
-45.3365

> <Gold.PLP.part.hbond>
-1.0000

> <Gold.PLP.part.metal>
0.0000

> <Gold.PLP.part.buried>
-5.2020

> <Gold.PLP.part.nonpolar>
-40.3406

> <Gold.PLP.part.repulsive>
0.3993

> <Gold.PLP.ligand.clash>
0.0000

> <Gold.PLP.ligand.torsion>
1.0935

> <Gold.PLP.Chemscore.Hbond>
2.0000

> <Gold.PLP.Chemscore.CHOScore>
0.0000

> <Gold.PLP.Chemscore.Metal>
0.0000

> <Gold.Chemscore.Hbonds>
donor molecule, donor type, donor heavy atom, donor atom, acceptor molecule, acceptor atom, score
      L1  H    10    45       P1  8028  2.00

> <Gold.PLP.Chemscore.Internal.Correction>
0.0679

> <Gold.Rescore>
     Score         DG    S(hbond)    S(metal)    S(lipo)     H(rot)  DE(clash)    DE(int)     intcor
     14.94     -16.78       0.99        0.00     112.61       2.03       0.64       1.20       ----

> <Gold.Chemscore.Fitness>
14.9410

> <Gold.Chemscore.DG>
-16.7810

> <Gold.Chemscore.ZeroCoef>
-5.4800

> <Gold.Chemscore.Hbond>
0.9944

> <Gold.Chemscore.Metal>
0.0000

> <Gold.Chemscore.Lipo>
112.6085

> <Gold.Chemscore.Internal_Hbond>
0.0000

> <Gold.Chemscore.DEClash>
0.6446

> <Gold.Chemscore.DEInternal>
1.1954

> <Gold.Chemscore.Rot>
2.0295

> <Gold.Chemscore.Internal.Correction>
   9.000000E+99

> <Gold.Chemscore.Hbonds>
donor molecule, donor type, donor heavy atom, donor atom, acceptor molecule, acceptor atom, score
      L1  H    10    45       P1  8028  1.00

> <Gold.Chemscore.Hbond.Weighted>
-3.3214

> <Gold.Chemscore.Metal.Weighted>
-0.0000

> <Gold.Chemscore.Lipo.Weighted>
-13.1752

> <Gold.Chemscore.Internal_Hbond.Weighted>
0.0000

> <Gold.Chemscore.DEClash.Weighted>
0.6446

> <Gold.Chemscore.DEInternal.Weighted>
1.1954

> <Gold.Chemscore.Rot.Weighted>
5.1956

> <Gold.Chemscore.Internal.Correction.Weighted>
   9.000000E+99

> <Gold.Protein.RotatedTorsions>
[ 6907 6896 6895 6894 ] final  -69.58 input  -60.11 | X-H torsion
[ 7974 7965 7964 7962 ] final  106.20 input  175.53 | X-H torsion
[ 8008 7997 7996 7995 ] final  146.74 input   59.86 | X-H torsion
[ 10167 10162 10161 10158 ] final  137.56 input  -65.29 | X-H torsion
[ 10718 10713 10712 10709 ] final  173.90 input   66.30 | X-H torsion
[ 10763 10752 10751 10750 ] final  130.61 input  -60.55 | X-H torsion
[ 11005 11000 10999 10996 ] final  -52.07 input  -57.11 | X-H torsion

> <Gold.Protein.ActiveResidues>
 VAL166  LYS551  ARG553  GLY616  TRP617  ASP618  TYR619  PRO620  LYS621  CYS622 
 ASP623  PHE694  ASN695  SER759  ASP760  ASP761  ALA762  ILE779  LEU786  VAL792 
 PHE793  MET794  SER795  GLU796  ALA797  LYS798  CYS799  TRP800  GLU811  SER814 

> <Gold.Protein.RotatedAtoms>
  150.7298  134.5576  159.5825 H   0  0  0  0  0  0  0  0  0  0  0  0  # atno 6907 bound_to 6896
  152.3048  134.7566  160.0359 H   0  0  0  0  0  0  0  0  0  0  0  0  # atno 6908 bound_to 6896
  151.8134  133.3349  159.3599 H   0  0  0  0  0  0  0  0  0  0  0  0  # atno 6909 bound_to 6896
  145.3098  139.2544  143.3769 H   0  0  0  0  0  0  0  0  0  0  0  0  # atno 7974 bound_to 7965
  156.2846  140.2174  156.5426 H   0  0  0  0  0  0  0  0  0  0  0  0  # atno 8008 bound_to 7997
  154.7357  140.0492  157.0789 H   0  0  0  0  0  0  0  0  0  0  0  0  # atno 8009 bound_to 7997
  155.0295  140.3133  155.4766 H   0  0  0  0  0  0  0  0  0  0  0  0  # atno 8010 bound_to 7997
  139.5140  144.6403  151.5587 H   0  0  0  0  0  0  0  0  0  0  0  0  # atno 10167 bound_to 10162
  156.9575  131.0050  151.2935 H   0  0  0  0  0  0  0  0  0  0  0  0  # atno 10718 bound_to 10713
  153.7609  135.3196  155.3337 H   0  0  0  0  0  0  0  0  0  0  0  0  # atno 10763 bound_to 10752
  154.8230  135.4589  154.0839 H   0  0  0  0  0  0  0  0  0  0  0  0  # atno 10764 bound_to 10752
  153.2069  135.6930  153.8245 H   0  0  0  0  0  0  0  0  0  0  0  0  # atno 10765 bound_to 10752
  141.0905  133.6634  156.3970 H   0  0  0  0  0  0  0  0  0  0  0  0  # atno 11005 bound_to 11000
  146.3122  140.3631  142.8667 LP  0  0  0  0  0  0  0  0  0  0  0  0  # atno 17320 bound_to 7965
  144.9025  140.7660  143.5858 LP  0  0  0  0  0  0  0  0  0  0  0  0  # atno 17321 bound_to 7965
  140.6167  143.9335  150.6494 LP  0  0  0  0  0  0  0  0  0  0  0  0  # atno 17342 bound_to 10162
  140.2595  143.3534  152.1335 LP  0  0  0  0  0  0  0  0  0  0  0  0  # atno 17343 bound_to 10162
  157.5680  130.8291  149.8353 LP  0  0  0  0  0  0  0  0  0  0  0  0  # atno 17370 bound_to 10713
  156.0336  130.3757  150.1620 LP  0  0  0  0  0  0  0  0  0  0  0  0  # atno 17371 bound_to 10713
  140.5264  134.6255  157.5335 LP  0  0  0  0  0  0  0  0  0  0  0  0  # atno 17394 bound_to 11000
  139.9730  134.7262  156.0005 LP  0  0  0  0  0  0  0  0  0  0  0  0  # atno 17395 bound_to 11000

$$$$
