AV-unprocessed.smi:1243|AV-procd|sdf|5220|dock10
  -GOLD-   22720 4313D 1   1.00000     0.00000
 Structure written by MMmdl.
 50 51  0  0  0  0  0  0  0  0  1 V2000
  145.0202  138.0869  161.9482 C   0  0  0  0  0  0  0  0  0  0  0  0
  146.2076  137.7617  161.2340 O   0  0  0  0  0  0  0  0  0  0  0  0
  146.6662  136.4584  161.2728 C   0  0  0  0  0  0  0  0  0  0  0  0
  146.0982  135.6007  162.1573 N   0  0  0  0  0  0  0  0  0  0  0  0
  146.5476  134.3295  162.1988 C   0  0  0  0  0  0  0  0  0  0  0  0
  147.5823  133.8509  161.3746 C   0  0  0  0  0  0  0  0  0  0  0  0
  148.1732  134.7386  160.4565 C   0  0  0  0  0  0  0  0  0  0  0  0
  147.7015  136.0724  160.3893 C   0  0  0  0  0  0  0  0  0  0  0  0
  148.2289  137.0575  159.5088 N   0  0  0  0  0  0  0  0  0  0  0  0
  149.4546  137.1340  158.9635 C   0  0  0  0  0  0  0  0  0  0  0  0
  150.3782  136.3472  159.1698 O   0  0  0  0  0  0  0  0  0  0  0  0
  149.5455  138.1881  158.1415 N   0  0  0  0  0  0  0  0  0  0  0  0
  150.7331  138.5914  157.3893 C   0  0  0  0  0  0  0  0  0  0  0  0
  150.6181  140.0419  156.8380 C   0  0  0  0  0  0  0  0  0  0  0  0
  151.6521  140.1535  155.6886 C   0  0  0  0  0  0  0  0  0  0  0  0
  149.2124  140.1807  156.2057 C   0  0  0  0  0  0  0  0  0  0  0  0
  150.8846  141.0562  157.8965 N   0  0  0  0  0  0  0  0  0  0  0  0
  152.1928  140.9297  158.5591 C   0  0  0  0  0  0  0  0  0  0  0  0
  152.3366  141.9160  159.7327 C   0  0  0  0  0  0  0  0  0  0  0  0
  152.1749  143.2984  159.2930 N   0  0  0  0  0  0  0  0  0  0  0  0
  152.3228  144.2318  160.3988 C   0  0  0  0  0  0  0  0  0  0  0  0
  150.8738  143.4347  158.6460 C   0  0  0  0  0  0  0  0  0  0  0  0
  150.7260  142.4558  157.4670 C   0  0  0  0  0  0  0  0  0  0  0  0
  144.7981  139.1454  161.8137 H   0  0  0  0  0  0  0  0  0  0  0  0
  145.1355  137.9064  163.0178 H   0  0  0  0  0  0  0  0  0  0  0  0
  144.1642  137.5209  161.5782 H   0  0  0  0  0  0  0  0  0  0  0  0
  146.0718  133.6751  162.9141 H   0  0  0  0  0  0  0  0  0  0  0  0
  147.9177  132.8269  161.4471 H   0  0  0  0  0  0  0  0  0  0  0  0
  148.9796  134.3806  159.8361 H   0  0  0  0  0  0  0  0  0  0  0  0
  147.5631  137.7473  159.1924 H   0  0  0  0  0  0  0  0  0  0  0  0
  148.7328  138.7783  158.0404 H   0  0  0  0  0  0  0  0  0  0  0  0
  151.6311  138.4991  158.0028 H   0  0  0  0  0  0  0  0  0  0  0  0
  150.8810  137.8729  156.5835 H   0  0  0  0  0  0  0  0  0  0  0  0
  151.5790  139.3103  155.0005 H   0  0  0  0  0  0  0  0  0  0  0  0
  152.6746  140.1744  156.0676 H   0  0  0  0  0  0  0  0  0  0  0  0
  151.5060  141.0496  155.0857 H   0  0  0  0  0  0  0  0  0  0  0  0
  149.0545  139.4253  155.4349 H   0  0  0  0  0  0  0  0  0  0  0  0
  149.0689  141.1496  155.7281 H   0  0  0  0  0  0  0  0  0  0  0  0
  148.4168  140.0509  156.9390 H   0  0  0  0  0  0  0  0  0  0  0  0
  152.3314  139.9259  158.9558 H   0  0  0  0  0  0  0  0  0  0  0  0
  152.9996  141.1027  157.8467 H   0  0  0  0  0  0  0  0  0  0  0  0
  151.6000  141.6790  160.5023 H   0  0  0  0  0  0  0  0  0  0  0  0
  153.3179  141.7886  160.1908 H   0  0  0  0  0  0  0  0  0  0  0  0
  152.2178  145.2604  160.0525 H   0  0  0  0  0  0  0  0  0  0  0  0
  153.3080  144.1346  160.8559 H   0  0  0  0  0  0  0  0  0  0  0  0
  151.5710  144.0539  161.1690 H   0  0  0  0  0  0  0  0  0  0  0  0
  150.0752  143.2597  159.3689 H   0  0  0  0  0  0  0  0  0  0  0  0
  150.7487  144.4560  158.2843 H   0  0  0  0  0  0  0  0  0  0  0  0
  151.4605  142.7054  156.7011 H   0  0  0  0  0  0  0  0  0  0  0  0
  149.7436  142.6187  157.0280 H   0  0  0  0  0  0  0  0  0  0  0  0
  1  2  1  0  0  0  0
  1 24  1  0  0  0  0
  1 25  1  0  0  0  0
  1 26  1  0  0  0  0
  2  3  1  0  0  0  0
  3  8  1  0  0  0  0
  3  4  2  0  0  0  0
  4  5  1  0  0  0  0
  5  6  2  0  0  0  0
  5 27  1  0  0  0  0
  6  7  1  0  0  0  0
  6 28  1  0  0  0  0
  7  8  2  0  0  0  0
  7 29  1  0  0  0  0
  8  9  1  0  0  0  0
  9 10  1  0  0  0  0
  9 30  1  0  0  0  0
 10 11  2  0  0  0  0
 10 12  1  0  0  0  0
 12 13  1  0  0  0  0
 12 31  1  0  0  0  0
 13 14  1  0  0  0  0
 13 32  1  0  0  0  0
 13 33  1  0  0  0  0
 14 15  1  0  0  0  0
 14 16  1  0  0  0  0
 14 17  1  0  0  0  0
 15 34  1  0  0  0  0
 15 35  1  0  0  0  0
 15 36  1  0  0  0  0
 16 37  1  0  0  0  0
 16 38  1  0  0  0  0
 16 39  1  0  0  0  0
 17 23  1  0  0  0  0
 17 18  1  0  0  0  0
 18 19  1  0  0  0  0
 18 40  1  0  0  0  0
 18 41  1  0  0  0  0
 19 20  1  0  0  0  0
 19 42  1  0  0  0  0
 19 43  1  0  0  0  0
 20 21  1  0  0  0  0
 20 22  1  0  0  0  0
 21 44  1  0  0  0  0
 21 45  1  0  0  0  0
 21 46  1  0  0  0  0
 22 23  1  0  0  0  0
 22 47  1  0  0  0  0
 22 48  1  0  0  0  0
 23 49  1  0  0  0  0
 23 50  1  0  0  0  0
M  END
> <s_m_source_file>
AV-unprocessed.smi

> <i_m_source_file_index>
1243

> <i_lp_mmshare_version>
43012

> <i_f3d_flags>
0

> <s_epik_input>
W0NIM11PYzFuW2NIXVtjSF1bY0hdYzFbTkhdQyg9TylbTkhdW0NIMl1DKFtDSDNdKShbQ0gzXSlOMltDSDJdW0NIMl1OKFtDSDNdKVtDSDJdW0NIMl0y

> <s_epik_cmdline>
J2VwaWtfcHl0aG9uJywgJy1waCcsICc3LjAnLCAnLXRuJywgJzgnLCAnLW1hJywgJzIwMCcsICctbWV0YWxfYmluZGluZycsICctaW1hZScsICc8aW5maWxlLm1hZT4nLCAnLW9tYWUnLCAnPG91dGZpbGUubWFlPic=

> <r_lp_tautomer_probability>
1

> <r_epik_Ionization_Penalty>
3.08543

> <r_epik_Ionization_Penalty_Charging>
0

> <r_epik_Ionization_Penalty_Neutral>
3.08543

> <r_epik_State_Penalty>
2.1584

> <r_epik_Charging_Adjusted_Penalty>
2.1584

> <i_epik_Tot_Q>
0

> <i_epik_Tot_abs_Q>
0

> <r_epik_Metal_State_Penalty>
2.1584

> <b_epik_Metal_Only>
0

> <s_lp_Force_Field>
OPLS_2005

> <r_lp_Energy>
53.3534

> <b_lp_Chiralities_Consistent>
1

> <s_lp_Variant>
AV-unprocessed.smi:1243-3

> <Gold.Version>
5.8.1

> <Gold.Id.Protein>
6NUR|6NUR_protein|mol2

> <Gold.PLP.Fitness>
40.5361

> <Gold.PLP.PLP>
-35.6380

> <Gold.PLP.part.hbond>
-2.0000

> <Gold.PLP.part.metal>
0.0000

> <Gold.PLP.part.buried>
-5.6388

> <Gold.PLP.part.nonpolar>
-28.1066

> <Gold.PLP.part.repulsive>
0.3274

> <Gold.PLP.ligand.clash>
0.0000

> <Gold.PLP.ligand.torsion>
0.5840

> <Gold.PLP.Chemscore.Hbond>
2.0000

> <Gold.PLP.Chemscore.CHOScore>
0.0000

> <Gold.PLP.Chemscore.Metal>
0.0000

> <Gold.Chemscore.Hbonds>
donor molecule, donor type, donor heavy atom, donor atom, acceptor molecule, acceptor atom, score
      P1  H  6896  6909       L1    11  1.00
      P1  H  6934  6947       L1     2  1.00

> <Gold.PLP.Chemscore.Internal.Correction>
0.0662

> <Gold.Rescore>
     Score         DG    S(hbond)    S(metal)    S(lipo)     H(rot)  DE(clash)    DE(int)     intcor
     17.22     -18.83       1.86        0.00      97.48       1.67       0.00       1.61       ----

> <Gold.Chemscore.Fitness>
17.2191

> <Gold.Chemscore.DG>
-18.8260

> <Gold.Chemscore.ZeroCoef>
-5.4800

> <Gold.Chemscore.Hbond>
1.8640

> <Gold.Chemscore.Metal>
0.0000

> <Gold.Chemscore.Lipo>
97.4778

> <Gold.Chemscore.Internal_Hbond>
0.0000

> <Gold.Chemscore.DEClash>
0.0000

> <Gold.Chemscore.DEInternal>
1.6069

> <Gold.Chemscore.Rot>
1.6737

> <Gold.Chemscore.Internal.Correction>
   9.000000E+99

> <Gold.Chemscore.Hbonds>
donor molecule, donor type, donor heavy atom, donor atom, acceptor molecule, acceptor atom, score
      P1  H  6896  6909       L1    11  0.97
      P1  H  6934  6947       L1     2  0.82

> <Gold.Chemscore.Hbond.Weighted>
-6.2258

> <Gold.Chemscore.Metal.Weighted>
-0.0000

> <Gold.Chemscore.Lipo.Weighted>
-11.4049

> <Gold.Chemscore.Internal_Hbond.Weighted>
0.0000

> <Gold.Chemscore.DEClash.Weighted>
0.0000

> <Gold.Chemscore.DEInternal.Weighted>
1.6069

> <Gold.Chemscore.Rot.Weighted>
4.2848

> <Gold.Chemscore.Internal.Correction.Weighted>
   9.000000E+99

> <Gold.Protein.RotatedTorsions>
[ 6907 6896 6895 6894 ] final   69.12 input  -60.11 | X-H torsion
[ 7974 7965 7964 7962 ] final  -49.23 input  175.53 | X-H torsion
[ 8008 7997 7996 7995 ] final -163.48 input   59.86 | X-H torsion
[ 10167 10162 10161 10158 ] final  112.82 input  -65.29 | X-H torsion
[ 10718 10713 10712 10709 ] final  -32.25 input   66.30 | X-H torsion
[ 10763 10752 10751 10750 ] final  -96.39 input  -60.55 | X-H torsion
[ 11005 11000 10999 10996 ] final -143.78 input  -57.11 | X-H torsion

> <Gold.Protein.ActiveResidues>
 VAL166  LYS551  ARG553  GLY616  TRP617  ASP618  TYR619  PRO620  LYS621  CYS622 
 ASP623  PHE694  ASN695  SER759  ASP760  ASP761  ALA762  ILE779  LEU786  VAL792 
 PHE793  MET794  SER795  GLU796  ALA797  LYS798  CYS799  TRP800  GLU811  SER814 

> <Gold.Protein.RotatedAtoms>
  152.4665  134.5062  159.9739 H   0  0  0  0  0  0  0  0  0  0  0  0  # atno 6907 bound_to 6896
  151.5098  133.3481  159.2891 H   0  0  0  0  0  0  0  0  0  0  0  0  # atno 6908 bound_to 6896
  150.8653  134.8043  159.7175 H   0  0  0  0  0  0  0  0  0  0  0  0  # atno 6909 bound_to 6896
  145.9428  140.7646  142.9543 H   0  0  0  0  0  0  0  0  0  0  0  0  # atno 7974 bound_to 7965
  155.8219  140.0921  157.1844 H   0  0  0  0  0  0  0  0  0  0  0  0  # atno 8008 bound_to 7997
  154.3979  140.1435  156.3571 H   0  0  0  0  0  0  0  0  0  0  0  0  # atno 8009 bound_to 7997
  155.8257  140.3444  155.5543 H   0  0  0  0  0  0  0  0  0  0  0  0  # atno 8010 bound_to 7997
  139.6507  144.7128  151.2054 H   0  0  0  0  0  0  0  0  0  0  0  0  # atno 10167 bound_to 10162
  156.3772  130.4349  149.7498 H   0  0  0  0  0  0  0  0  0  0  0  0  # atno 10718 bound_to 10713
  154.7235  135.5085  153.8849 H   0  0  0  0  0  0  0  0  0  0  0  0  # atno 10763 bound_to 10752
  153.0883  135.6652  153.9912 H   0  0  0  0  0  0  0  0  0  0  0  0  # atno 10764 bound_to 10752
  153.9730  135.3036  155.3405 H   0  0  0  0  0  0  0  0  0  0  0  0  # atno 10765 bound_to 10752
  140.8090  134.2766  157.4948 H   0  0  0  0  0  0  0  0  0  0  0  0  # atno 11005 bound_to 11000
  144.6782  140.2308  143.7355 LP  0  0  0  0  0  0  0  0  0  0  0  0  # atno 17320 bound_to 7965
  145.8277  139.2072  143.1901 LP  0  0  0  0  0  0  0  0  0  0  0  0  # atno 17321 bound_to 7965
  140.7536  143.6155  150.8563 LP  0  0  0  0  0  0  0  0  0  0  0  0  # atno 17342 bound_to 10162
  139.9803  143.5958  152.2945 LP  0  0  0  0  0  0  0  0  0  0  0  0  # atno 17343 bound_to 10162
  156.4603  130.7948  151.2969 LP  0  0  0  0  0  0  0  0  0  0  0  0  # atno 17370 bound_to 10713
  157.7489  131.0068  150.3165 LP  0  0  0  0  0  0  0  0  0  0  0  0  # atno 17371 bound_to 10713
  139.8715  134.9472  156.3962 LP  0  0  0  0  0  0  0  0  0  0  0  0  # atno 17394 bound_to 11000
  140.9217  133.7640  155.9914 LP  0  0  0  0  0  0  0  0  0  0  0  0  # atno 17395 bound_to 11000

$$$$
