AV-unprocessed.smi:1417|AV-procd|sdf|5767|dock6
  -GOLD-   22720 5413D 1   1.00000     0.00000
 Structure written by MMmdl.
 40 41  0  0  0  0  0  0  0  0  2 V2000
  150.3961  141.8993  156.0449 C   0  0  0  0  0  0  0  0  0  0  0  0
  150.0401  140.6800  155.2653 C   0  0  0  0  0  0  0  0  0  0  0  0
  148.8473  140.1455  154.8673 C   0  0  0  0  0  0  0  0  0  0  0  0
  149.2435  138.9754  154.1562 C   0  0  0  0  0  0  0  0  0  0  0  0
  148.3818  138.0402  153.5274 N   0  0  0  0  0  0  0  0  0  0  0  0
  147.0568  137.8864  153.6869 C   0  0  0  0  0  0  0  0  0  0  0  0
  146.3435  138.5603  154.4295 O   0  0  0  0  0  0  0  0  0  0  0  0
  146.5904  136.8863  152.9245 N   0  0  0  0  0  0  0  0  0  0  0  0
  145.1936  136.4586  152.8491 C   0  0  2  0  0  0  0  0  0  0  0  0
  144.8839  135.3279  153.8506 C   0  0  0  0  0  0  0  0  0  0  0  0
  145.5515  134.0018  153.4463 C   0  0  0  0  0  0  0  0  0  0  0  0
  145.1566  133.6028  152.0690 N   0  3  2  0  0  0  0  0  0  0  0  0
  145.6620  132.2596  151.6838 C   0  0  0  0  0  0  0  0  0  0  0  0
  145.3456  131.8931  150.2300 C   0  0  0  0  0  0  0  0  0  0  0  0
  146.3862  131.6532  149.4288 N   0  0  0  0  0  0  0  0  0  0  0  0
  144.1844  131.8416  149.8285 O   0  0  0  0  0  0  0  0  0  0  0  0
  145.5101  134.6484  151.0751 C   0  0  0  0  0  0  0  0  0  0  0  0
  144.8495  135.9953  151.4228 C   0  0  0  0  0  0  0  0  0  0  0  0
  150.5535  138.8150  154.1299 N   0  0  0  0  0  0  0  0  0  0  0  0
  151.0730  139.9050  154.8381 O   0  0  0  0  0  0  0  0  0  0  0  0
  149.5025  142.3876  156.4337 H   0  0  0  0  0  0  0  0  0  0  0  0
  150.9282  142.6158  155.4189 H   0  0  0  0  0  0  0  0  0  0  0  0
  151.0368  141.6453  156.8894 H   0  0  0  0  0  0  0  0  0  0  0  0
  147.8623  140.5421  155.0624 H   0  0  0  0  0  0  0  0  0  0  0  0
  148.8312  137.4159  152.8740 H   0  0  0  0  0  0  0  0  0  0  0  0
  147.2496  136.3929  152.3403 H   0  0  0  0  0  0  0  0  0  0  0  0
  144.5662  137.3204  153.0852 H   0  0  0  0  0  0  0  0  0  0  0  0
  145.1916  135.6094  154.8582 H   0  0  0  0  0  0  0  0  0  0  0  0
  143.8042  135.1800  153.8986 H   0  0  0  0  0  0  0  0  0  0  0  0
  146.6371  134.0921  153.5051 H   0  0  0  0  0  0  0  0  0  0  0  0
  145.2636  133.2285  154.1586 H   0  0  0  0  0  0  0  0  0  0  0  0
  146.7483  132.2349  151.7804 H   0  0  0  0  0  0  0  0  0  0  0  0
  145.2696  131.5025  152.3648 H   0  0  0  0  0  0  0  0  0  0  0  0
  146.2377  131.4031  148.4617 H   0  0  0  0  0  0  0  0  0  0  0  0
  147.3253  131.7188  149.7957 H   0  0  0  0  0  0  0  0  0  0  0  0
  146.5948  134.7557  151.0278 H   0  0  0  0  0  0  0  0  0  0  0  0
  145.1804  134.3386  150.0828 H   0  0  0  0  0  0  0  0  0  0  0  0
  143.7671  135.8920  151.3330 H   0  0  0  0  0  0  0  0  0  0  0  0
  145.1412  136.7551  150.6966 H   0  0  0  0  0  0  0  0  0  0  0  0
  144.1485  133.5336  152.0612 H   0  0  0  0  0  0  0  0  0  0  0  0
  1  2  1  0  0  0  0
  1 21  1  0  0  0  0
  1 22  1  0  0  0  0
  1 23  1  0  0  0  0
  2 20  1  0  0  0  0
  2  3  2  0  0  0  0
  3  4  1  0  0  0  0
  3 24  1  0  0  0  0
  4  5  1  0  0  0  0
  4 19  2  0  0  0  0
  5  6  1  0  0  0  0
  5 25  1  0  0  0  0
  6  7  2  0  0  0  0
  6  8  1  0  0  0  0
  8  9  1  0  0  0  0
  8 26  1  0  0  0  0
  9 18  1  0  0  0  0
  9 10  1  0  0  0  0
  9 27  1  0  0  0  0
 10 11  1  0  0  0  0
 10 28  1  0  0  0  0
 10 29  1  0  0  0  0
 11 12  1  0  0  0  0
 11 30  1  0  0  0  0
 11 31  1  0  0  0  0
 12 13  1  0  0  0  0
 12 17  1  0  0  0  0
 12 40  1  0  0  0  0
 13 14  1  0  0  0  0
 13 32  1  0  0  0  0
 13 33  1  0  0  0  0
 14 15  1  0  0  0  0
 14 16  2  0  0  0  0
 15 34  1  0  0  0  0
 15 35  1  0  0  0  0
 17 18  1  0  0  0  0
 17 36  1  0  0  0  0
 17 37  1  0  0  0  0
 18 38  1  0  0  0  0
 18 39  1  0  0  0  0
 19 20  1  0  0  0  0
M  CHG  1  12   1
M  END
> <s_m_source_file>
AV-unprocessed.smi

> <i_m_source_file_index>
1417

> <i_lp_mmshare_version>
43012

> <i_f3d_flags>
0

> <s_epik_input>
W0NIM11jMVtjSF1jKG5vMSlbTkhdQyg9TylbTkhdW0NIXTJbQ0gyXVtDSDJdTihbQ0gyXVtDSDJdMilbQ0gyXUMoPU8pW05IMl0=

> <s_epik_cmdline>
J2VwaWtfcHl0aG9uJywgJy1waCcsICc3LjAnLCAnLXRuJywgJzgnLCAnLW1hJywgJzIwMCcsICctbWV0YWxfYmluZGluZycsICctaW1hZScsICc8aW5maWxlLm1hZT4nLCAnLW9tYWUnLCAnPG91dGZpbGUubWFlPic=

> <r_epik_Ionization_Penalty>
0.867698

> <r_epik_Ionization_Penalty_Charging>
0.867623

> <r_epik_Ionization_Penalty_Neutral>
7.46743e-05

> <r_epik_State_Penalty>
0.904669

> <r_epik_Charging_Adjusted_Penalty>
1.77229

> <i_epik_Tot_Q>
1

> <i_epik_Tot_abs_Q>
1

> <r_epik_Metal_State_Penalty>
0.930696

> <b_epik_Metal_Only>
0

> <s_lp_Force_Field>
OPLS_2005

> <r_lp_Energy>
12.5471

> <b_lp_Chiralities_Consistent>
1

> <s_lp_Variant>
AV-unprocessed.smi:1417-3

> <Gold.Version>
5.8.1

> <Gold.Id.Protein>
6NUR|6NUR_protein|mol2

> <Gold.PLP.Fitness>
39.8909

> <Gold.PLP.PLP>
-27.9549

> <Gold.PLP.part.hbond>
-4.9622

> <Gold.PLP.part.metal>
0.0000

> <Gold.PLP.part.buried>
-4.7932

> <Gold.PLP.part.nonpolar>
-19.2705

> <Gold.PLP.part.repulsive>
0.8350

> <Gold.PLP.ligand.clash>
0.0000

> <Gold.PLP.ligand.torsion>
0.4516

> <Gold.PLP.Chemscore.Hbond>
4.2666

> <Gold.PLP.Chemscore.CHOScore>
0.0000

> <Gold.PLP.Chemscore.Metal>
0.0000

> <Gold.Chemscore.Hbonds>
donor molecule, donor type, donor heavy atom, donor atom, acceptor molecule, acceptor atom, score
      L1  H     5    25       P1  7948  1.00
      L1  H     8    26       P1  7948  0.93
      L1  H    15    35       P1 10747  0.98
      P1  H  7989  7998       L1    20  0.95
      P1  H 10785 10796       L1    16  0.34

> <Gold.PLP.Chemscore.Internal.Correction>
0.0394

> <Gold.Rescore>
     Score         DG    S(hbond)    S(metal)    S(lipo)     H(rot)  DE(clash)    DE(int)     intcor
     15.70     -17.33       3.57        0.00      44.01       2.05       0.12       1.52       ----

> <Gold.Chemscore.Fitness>
15.6965

> <Gold.Chemscore.DG>
-17.3312

> <Gold.Chemscore.ZeroCoef>
-5.4800

> <Gold.Chemscore.Hbond>
3.5745

> <Gold.Chemscore.Metal>
0.0000

> <Gold.Chemscore.Lipo>
44.0137

> <Gold.Chemscore.Internal_Hbond>
0.0000

> <Gold.Chemscore.DEClash>
0.1166

> <Gold.Chemscore.DEInternal>
1.5181

> <Gold.Chemscore.Rot>
2.0457

> <Gold.Chemscore.Internal.Correction>
   9.000000E+99

> <Gold.Chemscore.Hbonds>
donor molecule, donor type, donor heavy atom, donor atom, acceptor molecule, acceptor atom, score
      L1  H     5    25       P1  7948  0.94
      L1  H     8    26       P1  7948  0.91
      L1  H    15    35       P1 10747  0.93
      P1  H  7989  7998       L1    20  0.06
      P1  H 10785 10796       L1    16  0.32

> <Gold.Chemscore.Hbond.Weighted>
-11.9387

> <Gold.Chemscore.Metal.Weighted>
-0.0000

> <Gold.Chemscore.Lipo.Weighted>
-5.1496

> <Gold.Chemscore.Internal_Hbond.Weighted>
0.0000

> <Gold.Chemscore.DEClash.Weighted>
0.1166

> <Gold.Chemscore.DEInternal.Weighted>
1.5181

> <Gold.Chemscore.Rot.Weighted>
5.2371

> <Gold.Chemscore.Internal.Correction.Weighted>
   9.000000E+99

> <Gold.Protein.RotatedTorsions>
[ 6907 6896 6895 6894 ] final  164.83 input  -60.11 | X-H torsion
[ 7974 7965 7964 7962 ] final -110.99 input  175.53 | X-H torsion
[ 8008 7997 7996 7995 ] final -109.43 input   59.86 | X-H torsion
[ 10167 10162 10161 10158 ] final -103.73 input  -65.29 | X-H torsion
[ 10718 10713 10712 10709 ] final   71.93 input   66.30 | X-H torsion
[ 10763 10752 10751 10750 ] final  179.61 input  -60.55 | X-H torsion
[ 11005 11000 10999 10996 ] final -113.82 input  -57.11 | X-H torsion

> <Gold.Protein.ActiveResidues>
 VAL166  LYS551  ARG553  GLY616  TRP617  ASP618  TYR619  PRO620  LYS621  CYS622 
 ASP623  PHE694  ASN695  SER759  ASP760  ASP761  ALA762  ILE779  LEU786  VAL792 
 PHE793  MET794  SER795  GLU796  ALA797  LYS798  CYS799  TRP800  GLU811  SER814 

> <Gold.Protein.RotatedAtoms>
  151.9039  133.3544  159.3839 H   0  0  0  0  0  0  0  0  0  0  0  0  # atno 6907 bound_to 6896
  150.7073  134.4801  159.5475 H   0  0  0  0  0  0  0  0  0  0  0  0  # atno 6908 bound_to 6896
  152.2394  134.8244  160.0513 H   0  0  0  0  0  0  0  0  0  0  0  0  # atno 6909 bound_to 6896
  145.1615  140.8881  143.3588 H   0  0  0  0  0  0  0  0  0  0  0  0  # atno 7974 bound_to 7965
  154.9592  140.0399  157.2182 H   0  0  0  0  0  0  0  0  0  0  0  0  # atno 8008 bound_to 7997
  154.7905  140.2834  155.5973 H   0  0  0  0  0  0  0  0  0  0  0  0  # atno 8009 bound_to 7997
  156.2949  140.2574  156.2751 H   0  0  0  0  0  0  0  0  0  0  0  0  # atno 8010 bound_to 7997
  140.2169  143.3705  152.1003 H   0  0  0  0  0  0  0  0  0  0  0  0  # atno 10167 bound_to 10162
  157.6476  130.9553  150.0858 H   0  0  0  0  0  0  0  0  0  0  0  0  # atno 10718 bound_to 10713
  154.5228  135.2795  155.1247 H   0  0  0  0  0  0  0  0  0  0  0  0  # atno 10763 bound_to 10752
  154.2798  135.6287  153.5346 H   0  0  0  0  0  0  0  0  0  0  0  0  # atno 10764 bound_to 10752
  152.9940  135.5648  154.5722 H   0  0  0  0  0  0  0  0  0  0  0  0  # atno 10765 bound_to 10752
  141.0590  133.9565  157.2701 H   0  0  0  0  0  0  0  0  0  0  0  0  # atno 11005 bound_to 11000
  145.0326  139.3328  143.6017 LP  0  0  0  0  0  0  0  0  0  0  0  0  # atno 17320 bound_to 7965
  146.3482  139.9669  142.8711 LP  0  0  0  0  0  0  0  0  0  0  0  0  # atno 17321 bound_to 7965
  139.5159  144.6969  151.5605 LP  0  0  0  0  0  0  0  0  0  0  0  0  # atno 17342 bound_to 10162
  140.6283  143.9125  150.6583 LP  0  0  0  0  0  0  0  0  0  0  0  0  # atno 17343 bound_to 10162
  156.1821  130.3650  149.9021 LP  0  0  0  0  0  0  0  0  0  0  0  0  # atno 17370 bound_to 10713
  156.6971  130.8918  151.3595 LP  0  0  0  0  0  0  0  0  0  0  0  0  # atno 17371 bound_to 10713
  139.9416  135.0190  156.8725 LP  0  0  0  0  0  0  0  0  0  0  0  0  # atno 17394 bound_to 11000
  140.5906  134.0266  155.7498 LP  0  0  0  0  0  0  0  0  0  0  0  0  # atno 17395 bound_to 11000

$$$$
