AV-unprocessed.smi:2572|AV-procd|sdf|10111|dock4
  -GOLD-   2272014133D 1   1.00000     0.00000
 Structure written by MMmdl.
 38 39  0  0  0  0  0  0  0  0  1 V2000
  155.9606  138.7083  165.4200 C   0  0  0  0  0  0  0  0  0  0  0  0
  154.8051  137.8935  165.2331 O   0  0  0  0  0  0  0  0  0  0  0  0
  154.6326  137.3313  163.9803 C   0  0  0  0  0  0  0  0  0  0  0  0
  154.5253  135.8913  163.8803 C   0  0  0  0  0  0  0  0  0  0  0  0
  154.3615  135.3297  162.6632 C   0  0  0  0  0  0  0  0  0  0  0  0
  154.2890  136.1361  161.4450 C   0  0  0  0  0  0  0  0  0  0  0  0
  154.1456  135.6490  160.3240 O   0  0  0  0  0  0  0  0  0  0  0  0
  154.3967  137.4798  161.6672 N   0  0  0  0  0  0  0  0  0  0  0  0
  154.3605  138.4413  160.5591 C   0  0  0  0  0  0  0  0  0  0  0  0
  154.6046  139.8873  161.0445 C   0  0  1  0  0  0  0  0  0  0  0  0
  155.9165  140.2704  160.6804 O   0  0  0  0  0  0  0  0  0  0  0  0
  153.6252  140.8818  160.3930 C   0  0  0  0  0  0  0  0  0  0  0  0
  153.3744  142.1404  161.2404 C   0  0  0  0  0  0  0  0  0  0  0  0
  152.8156  143.2835  160.4146 C   0  0  0  0  0  0  0  0  0  0  0  0
  152.2766  144.4218  161.0503 C   0  0  0  0  0  0  0  0  0  0  0  0
  151.7608  145.4834  160.2814 C   0  0  0  0  0  0  0  0  0  0  0  0
  151.7848  145.4118  158.8750 C   0  0  0  0  0  0  0  0  0  0  0  0
  152.3247  144.2781  158.2373 C   0  0  0  0  0  0  0  0  0  0  0  0
  152.8383  143.2151  159.0056 C   0  0  0  0  0  0  0  0  0  0  0  0
  154.5666  138.0623  162.9123 N   0  0  0  0  0  0  0  0  0  0  0  0
  155.9695  139.0837  166.4431 H   0  0  0  0  0  0  0  0  0  0  0  0
  155.9595  139.5742  164.7553 H   0  0  0  0  0  0  0  0  0  0  0  0
  156.8833  138.1442  165.2720 H   0  0  0  0  0  0  0  0  0  0  0  0
  154.5777  135.2849  164.7725 H   0  0  0  0  0  0  0  0  0  0  0  0
  154.2817  134.2554  162.5848 H   0  0  0  0  0  0  0  0  0  0  0  0
  155.0486  138.1748  159.7544 H   0  0  0  0  0  0  0  0  0  0  0  0
  153.3698  138.3751  160.1053 H   0  0  0  0  0  0  0  0  0  0  0  0
  154.5014  139.9437  162.1291 H   0  0  0  0  0  0  0  0  0  0  0  0
  155.8769  141.1108  160.2506 H   0  0  0  0  0  0  0  0  0  0  0  0
  153.9838  141.1641  159.4018 H   0  0  0  0  0  0  0  0  0  0  0  0
  152.6684  140.3813  160.2378 H   0  0  0  0  0  0  0  0  0  0  0  0
  152.6746  141.9145  162.0461 H   0  0  0  0  0  0  0  0  0  0  0  0
  154.2981  142.4664  161.7199 H   0  0  0  0  0  0  0  0  0  0  0  0
  152.2579  144.4847  162.1286 H   0  0  0  0  0  0  0  0  0  0  0  0
  151.3473  146.3529  160.7704 H   0  0  0  0  0  0  0  0  0  0  0  0
  151.3895  146.2262  158.2859 H   0  0  0  0  0  0  0  0  0  0  0  0
  152.3449  144.2238  157.1586 H   0  0  0  0  0  0  0  0  0  0  0  0
  153.2518  142.3483  158.5109 H   0  0  0  0  0  0  0  0  0  0  0  0
  1  2  1  0  0  0  0
  1 21  1  0  0  0  0
  1 22  1  0  0  0  0
  1 23  1  0  0  0  0
  2  3  1  0  0  0  0
  3 20  2  0  0  0  0
  3  4  1  0  0  0  0
  4  5  2  0  0  0  0
  4 24  1  0  0  0  0
  5  6  1  0  0  0  0
  5 25  1  0  0  0  0
  6  7  2  0  0  0  0
  6  8  1  0  0  0  0
  8  9  1  0  0  0  0
  8 20  1  0  0  0  0
  9 10  1  0  0  0  0
  9 26  1  0  0  0  0
  9 27  1  0  0  0  0
 10 11  1  0  0  0  0
 10 12  1  0  0  0  0
 10 28  1  0  0  0  0
 11 29  1  0  0  0  0
 12 13  1  0  0  0  0
 12 30  1  0  0  0  0
 12 31  1  0  0  0  0
 13 14  1  0  0  0  0
 13 32  1  0  0  0  0
 13 33  1  0  0  0  0
 14 19  1  0  0  0  0
 14 15  2  0  0  0  0
 15 16  1  0  0  0  0
 15 34  1  0  0  0  0
 16 17  2  0  0  0  0
 16 35  1  0  0  0  0
 17 18  1  0  0  0  0
 17 36  1  0  0  0  0
 18 19  2  0  0  0  0
 18 37  1  0  0  0  0
 19 38  1  0  0  0  0
M  END
> <s_m_source_file>
AV-unprocessed.smi

> <i_m_source_file_index>
2572

> <i_lp_mmshare_version>
43012

> <i_f3d_flags>
0

> <s_epik_input>
W0NIM11PYzFbY0hdW2NIXWMoPU8pbihuMSlbQ0gyXVtDQEhdKFtPSF0pW0NIMl1bQ0gyXWMyW2NIXVtjSF1bY0hdW2NIXVtjSF0y

> <s_epik_cmdline>
J2VwaWtfcHl0aG9uJywgJy1waCcsICc3LjAnLCAnLXRuJywgJzgnLCAnLW1hJywgJzIwMCcsICctbWV0YWxfYmluZGluZycsICctaW1hZScsICc8aW5maWxlLm1hZT4nLCAnLW9tYWUnLCAnPG91dGZpbGUubWFlPic=

> <r_lp_tautomer_probability>
1

> <r_epik_Ionization_Penalty>
8.48543e-06

> <r_epik_Ionization_Penalty_Charging>
6.90219e-06

> <r_epik_Ionization_Penalty_Neutral>
1.58323e-06

> <r_epik_State_Penalty>
-0

> <r_epik_Charging_Adjusted_Penalty>
6.90219e-06

> <i_epik_Tot_Q>
0

> <i_epik_Tot_abs_Q>
0

> <r_epik_Metal_State_Penalty>
-0

> <b_epik_Metal_Only>
0

> <s_lp_Force_Field>
OPLS_2005

> <r_lp_Energy>
30.5458

> <b_lp_Chiralities_Consistent>
1

> <s_lp_Variant>
AV-unprocessed.smi:2572-2

> <Gold.Version>
5.8.1

> <Gold.Id.Protein>
6NUR|6NUR_protein|mol2

> <Gold.PLP.Fitness>
51.0261

> <Gold.PLP.PLP>
-50.4016

> <Gold.PLP.part.hbond>
-1.2032

> <Gold.PLP.part.metal>
0.0000

> <Gold.PLP.part.buried>
-6.0727

> <Gold.PLP.part.nonpolar>
-42.9468

> <Gold.PLP.part.repulsive>
0.1048

> <Gold.PLP.ligand.clash>
0.0000

> <Gold.PLP.ligand.torsion>
1.1941

> <Gold.PLP.Chemscore.Hbond>
0.9913

> <Gold.PLP.Chemscore.CHOScore>
0.0000

> <Gold.PLP.Chemscore.Metal>
0.0000

> <Gold.Chemscore.Hbonds>
donor molecule, donor type, donor heavy atom, donor atom, acceptor molecule, acceptor atom, score
      P1  H  6896  6908       L1     7  1.00

> <Gold.PLP.Chemscore.Internal.Correction>
0.0389

> <Gold.Rescore>
     Score         DG    S(hbond)    S(metal)    S(lipo)     H(rot)  DE(clash)    DE(int)     intcor
     16.00     -17.26       0.99        0.00     127.50       2.52       0.04       1.22       ----

> <Gold.Chemscore.Fitness>
16.0022

> <Gold.Chemscore.DG>
-17.2574

> <Gold.Chemscore.ZeroCoef>
-5.4800

> <Gold.Chemscore.Hbond>
0.9921

> <Gold.Chemscore.Metal>
0.0000

> <Gold.Chemscore.Lipo>
127.5046

> <Gold.Chemscore.Internal_Hbond>
0.0000

> <Gold.Chemscore.DEClash>
0.0351

> <Gold.Chemscore.DEInternal>
1.2200

> <Gold.Chemscore.Rot>
2.5212

> <Gold.Chemscore.Internal.Correction>
   9.000000E+99

> <Gold.Chemscore.Hbonds>
donor molecule, donor type, donor heavy atom, donor atom, acceptor molecule, acceptor atom, score
      P1  H  6896  6908       L1     7  0.91

> <Gold.Chemscore.Hbond.Weighted>
-3.3136

> <Gold.Chemscore.Metal.Weighted>
-0.0000

> <Gold.Chemscore.Lipo.Weighted>
-14.9180

> <Gold.Chemscore.Internal_Hbond.Weighted>
0.0000

> <Gold.Chemscore.DEClash.Weighted>
0.0351

> <Gold.Chemscore.DEInternal.Weighted>
1.2200

> <Gold.Chemscore.Rot.Weighted>
6.4543

> <Gold.Chemscore.Internal.Correction.Weighted>
   9.000000E+99

> <Gold.Protein.RotatedTorsions>
[ 6907 6896 6895 6894 ] final  -58.62 input  -60.11 | X-H torsion
[ 7974 7965 7964 7962 ] final  -92.30 input  175.53 | X-H torsion
[ 8008 7997 7996 7995 ] final  130.80 input   59.86 | X-H torsion
[ 10167 10162 10161 10158 ] final  159.92 input  -65.29 | X-H torsion
[ 10718 10713 10712 10709 ] final  -15.81 input   66.30 | X-H torsion
[ 10763 10752 10751 10750 ] final -123.40 input  -60.55 | X-H torsion
[ 11005 11000 10999 10996 ] final  -85.52 input  -57.11 | X-H torsion

> <Gold.Protein.ActiveResidues>
 VAL166  LYS551  ARG553  GLY616  TRP617  ASP618  TYR619  PRO620  LYS621  CYS622 
 ASP623  PHE694  ASN695  SER759  ASP760  ASP761  ALA762  ILE779  LEU786  VAL792 
 PHE793  MET794  SER795  GLU796  ALA797  LYS798  CYS799  TRP800  GLU811  SER814 

> <Gold.Protein.RotatedAtoms>
  150.7993  134.7075  159.6584 H   0  0  0  0  0  0  0  0  0  0  0  0  # atno 6907 bound_to 6896
  152.4108  134.6123  160.0039 H   0  0  0  0  0  0  0  0  0  0  0  0  # atno 6908 bound_to 6896
  151.6367  133.3291  159.3157 H   0  0  0  0  0  0  0  0  0  0  0  0  # atno 6909 bound_to 6896
  145.4016  140.9538  143.2284 H   0  0  0  0  0  0  0  0  0  0  0  0  # atno 7974 bound_to 7965
  156.2960  140.2587  156.2822 H   0  0  0  0  0  0  0  0  0  0  0  0  # atno 8008 bound_to 7997
  154.9591  140.0393  157.2200 H   0  0  0  0  0  0  0  0  0  0  0  0  # atno 8009 bound_to 7997
  154.7964  140.2820  155.5958 H   0  0  0  0  0  0  0  0  0  0  0  0  # atno 8010 bound_to 7997
  139.4836  144.4684  151.8610 H   0  0  0  0  0  0  0  0  0  0  0  0  # atno 10167 bound_to 10162
  156.5965  130.4813  149.6257 H   0  0  0  0  0  0  0  0  0  0  0  0  # atno 10718 bound_to 10713
  154.8707  135.4099  154.2937 H   0  0  0  0  0  0  0  0  0  0  0  0  # atno 10763 bound_to 10752
  153.3809  135.7011  153.6572 H   0  0  0  0  0  0  0  0  0  0  0  0  # atno 10764 bound_to 10752
  153.5395  135.3651  155.2683 H   0  0  0  0  0  0  0  0  0  0  0  0  # atno 10765 bound_to 10752
  141.1640  133.7404  156.9027 H   0  0  0  0  0  0  0  0  0  0  0  0  # atno 11005 bound_to 11000
  144.8370  139.5534  143.6918 LP  0  0  0  0  0  0  0  0  0  0  0  0  # atno 17320 bound_to 7965
  146.2749  139.6727  142.9270 LP  0  0  0  0  0  0  0  0  0  0  0  0  # atno 17321 bound_to 7965
  140.4151  144.2318  150.5888 LP  0  0  0  0  0  0  0  0  0  0  0  0  # atno 17342 bound_to 10162
  140.4929  143.2342  151.8792 LP  0  0  0  0  0  0  0  0  0  0  0  0  # atno 17343 bound_to 10162
  156.2505  130.6904  151.1640 LP  0  0  0  0  0  0  0  0  0  0  0  0  # atno 17370 bound_to 10713
  157.7290  131.0627  150.5792 LP  0  0  0  0  0  0  0  0  0  0  0  0  # atno 17371 bound_to 10713
  140.1571  134.9190  157.2668 LP  0  0  0  0  0  0  0  0  0  0  0  0  # atno 17394 bound_to 11000
  140.2654  134.3522  155.7392 LP  0  0  0  0  0  0  0  0  0  0  0  0  # atno 17395 bound_to 11000

$$$$
