AV-unprocessed.smi:3154|AV-procd|sdf|12024|dock5
  -GOLD-   2272017443D 1   1.00000     0.00000
 Structure written by MMmdl.
 34 35  0  0  0  0  0  0  0  0  1 V2000
  147.0662  142.2972  154.7562 C   0  0  0  0  0  0  0  0  0  0  0  0
  148.1714  141.3356  155.2267 C   0  0  1  0  0  0  0  0  0  0  0  0
  149.1150  140.9016  154.0785 C   0  0  0  0  0  0  0  0  0  0  0  0
  149.8827  139.7101  154.3947 N   0  0  0  0  0  0  0  0  0  0  0  0
  149.4453  138.4050  154.4794 C   0  0  0  0  0  0  0  0  0  0  0  0
  150.5270  137.6333  154.7942 C   0  0  0  0  0  0  0  0  0  0  0  0
  151.5966  138.5682  154.8750 C   0  0  0  0  0  0  0  0  0  0  0  0
  151.2090  139.8095  154.6307 N   0  0  0  0  0  0  0  0  0  0  0  0
  148.9129  142.0165  156.2839 N   0  0  0  0  0  0  0  0  0  0  0  0
  149.9381  141.1645  156.9005 C   0  0  0  0  0  0  0  0  0  0  0  0
  151.0141  142.0051  157.5835 C   0  0  0  0  0  0  0  0  0  0  0  0
  151.8269  141.4705  158.3374 O   0  0  0  0  0  0  0  0  0  0  0  0
  151.0064  143.3177  157.3070 N   0  0  0  0  0  0  0  0  0  0  0  0
  151.9199  144.2812  157.8298 C   0  0  0  0  0  0  0  0  0  0  0  0
  152.4476  144.0612  159.2308 C   0  0  0  0  0  0  0  0  0  0  0  0
  151.4440  145.1513  158.9732 C   0  0  0  0  0  0  0  0  0  0  0  0
  146.4095  141.8244  154.0257 H   0  0  0  0  0  0  0  0  0  0  0  0
  147.4868  143.1914  154.2947 H   0  0  0  0  0  0  0  0  0  0  0  0
  146.4388  142.6156  155.5895 H   0  0  0  0  0  0  0  0  0  0  0  0
  147.6812  140.4565  155.6481 H   0  0  0  0  0  0  0  0  0  0  0  0
  148.5382  140.7047  153.1736 H   0  0  0  0  0  0  0  0  0  0  0  0
  149.8240  141.6907  153.8292 H   0  0  0  0  0  0  0  0  0  0  0  0
  148.4122  138.1374  154.3133 H   0  0  0  0  0  0  0  0  0  0  0  0
  150.5514  136.5637  154.9422 H   0  0  0  0  0  0  0  0  0  0  0  0
  152.6365  138.3830  155.1006 H   0  0  0  0  0  0  0  0  0  0  0  0
  148.2523  142.3346  156.9781 H   0  0  0  0  0  0  0  0  0  0  0  0
  149.4804  140.4993  157.6345 H   0  0  0  0  0  0  0  0  0  0  0  0
  150.4171  140.5369  156.1495 H   0  0  0  0  0  0  0  0  0  0  0  0
  150.2971  143.6607  156.6755 H   0  0  0  0  0  0  0  0  0  0  0  0
  152.6090  144.7494  157.1282 H   0  0  0  0  0  0  0  0  0  0  0  0
  152.1052  143.1813  159.7724 H   0  0  0  0  0  0  0  0  0  0  0  0
  153.4740  144.3608  159.4322 H   0  0  0  0  0  0  0  0  0  0  0  0
  151.8001  146.1792  159.0029 H   0  0  0  0  0  0  0  0  0  0  0  0
  150.4316  144.9989  159.3424 H   0  0  0  0  0  0  0  0  0  0  0  0
  1  2  1  0  0  0  0
  1 17  1  0  0  0  0
  1 18  1  0  0  0  0
  1 19  1  0  0  0  0
  2  3  1  0  0  0  0
  2  9  1  0  0  0  0
  2 20  1  0  0  0  0
  3  4  1  0  0  0  0
  3 21  1  0  0  0  0
  3 22  1  0  0  0  0
  4  8  1  0  0  0  0
  4  5  1  0  0  0  0
  5  6  2  0  0  0  0
  5 23  1  0  0  0  0
  6  7  1  0  0  0  0
  6 24  1  0  0  0  0
  7  8  2  0  0  0  0
  7 25  1  0  0  0  0
  9 10  1  0  0  0  0
  9 26  1  0  0  0  0
 10 11  1  0  0  0  0
 10 27  1  0  0  0  0
 10 28  1  0  0  0  0
 11 12  2  0  0  0  0
 11 13  1  0  0  0  0
 13 14  1  0  0  0  0
 13 29  1  0  0  0  0
 14 16  1  0  0  0  0
 14 15  1  0  0  0  0
 14 30  1  0  0  0  0
 15 16  1  0  0  0  0
 15 31  1  0  0  0  0
 15 32  1  0  0  0  0
 16 33  1  0  0  0  0
 16 34  1  0  0  0  0
M  END
> <s_m_source_file>
AV-unprocessed.smi

> <i_m_source_file_index>
3154

> <i_lp_mmshare_version>
43012

> <i_f3d_flags>
0

> <s_epik_input>
bjFbY0hdW2NIXVtjSF1uMVtDSDJdW0NAQEhdKFtDSDNdKVtOSF1bQ0gyXUMoPU8pW05IXVtDSF0yW0NIMl1bQ0gyXTI=

> <s_epik_cmdline>
J2VwaWtfcHl0aG9uJywgJy1waCcsICc3LjAnLCAnLXRuJywgJzgnLCAnLW1hJywgJzIwMCcsICctbWV0YWxfYmluZGluZycsICctaW1hZScsICc8aW5maWxlLm1hZT4nLCAnLW9tYWUnLCAnPG91dGZpbGUubWFlPic=

> <r_lp_tautomer_probability>
1

> <r_epik_Ionization_Penalty>
1.00229

> <r_epik_Ionization_Penalty_Charging>
0

> <r_epik_Ionization_Penalty_Neutral>
1.00229

> <r_epik_State_Penalty>
1.0509

> <r_epik_Charging_Adjusted_Penalty>
1.0509

> <i_epik_Tot_Q>
0

> <i_epik_Tot_abs_Q>
0

> <r_epik_Metal_State_Penalty>
1.05084

> <b_epik_Metal_Only>
0

> <s_lp_Force_Field>
OPLS_2005

> <r_lp_Energy>
18.1237

> <b_lp_Chiralities_Consistent>
1

> <s_lp_Variant>
AV-unprocessed.smi:3154-4

> <Gold.Version>
5.8.1

> <Gold.Id.Protein>
6NUR|6NUR_protein|mol2

> <Gold.PLP.Fitness>
43.3631

> <Gold.PLP.PLP>
-38.9368

> <Gold.PLP.part.hbond>
-2.9984

> <Gold.PLP.part.metal>
0.0000

> <Gold.PLP.part.buried>
-1.8213

> <Gold.PLP.part.nonpolar>
-33.3306

> <Gold.PLP.part.repulsive>
0.0811

> <Gold.PLP.ligand.clash>
0.0000

> <Gold.PLP.ligand.torsion>
0.8399

> <Gold.PLP.Chemscore.Hbond>
2.0000

> <Gold.PLP.Chemscore.CHOScore>
0.0000

> <Gold.PLP.Chemscore.Metal>
0.0000

> <Gold.Chemscore.Hbonds>
donor molecule, donor type, donor heavy atom, donor atom, acceptor molecule, acceptor atom, score
      L1  H    13    29       P1  8028  1.00
      P1  H  7989  7998       L1     8  1.00

> <Gold.PLP.Chemscore.Internal.Correction>
0.1061

> <Gold.Rescore>
     Score         DG    S(hbond)    S(metal)    S(lipo)     H(rot)  DE(clash)    DE(int)     intcor
     13.51     -15.84       1.86        0.00      81.74       2.12       0.01       2.31       ----

> <Gold.Chemscore.Fitness>
13.5144

> <Gold.Chemscore.DG>
-15.8351

> <Gold.Chemscore.ZeroCoef>
-5.4800

> <Gold.Chemscore.Hbond>
1.8638

> <Gold.Chemscore.Metal>
0.0000

> <Gold.Chemscore.Lipo>
81.7414

> <Gold.Chemscore.Internal_Hbond>
0.0000

> <Gold.Chemscore.DEClash>
0.0095

> <Gold.Chemscore.DEInternal>
2.3113

> <Gold.Chemscore.Rot>
2.1225

> <Gold.Chemscore.Internal.Correction>
   9.000000E+99

> <Gold.Chemscore.Hbonds>
donor molecule, donor type, donor heavy atom, donor atom, acceptor molecule, acceptor atom, score
      L1  H    13    29       P1  8028  0.93
      P1  H  7989  7998       L1     8  0.30

> <Gold.Chemscore.Hbond.Weighted>
-6.2251

> <Gold.Chemscore.Metal.Weighted>
-0.0000

> <Gold.Chemscore.Lipo.Weighted>
-9.5637

> <Gold.Chemscore.Internal_Hbond.Weighted>
0.0000

> <Gold.Chemscore.DEClash.Weighted>
0.0095

> <Gold.Chemscore.DEInternal.Weighted>
2.3113

> <Gold.Chemscore.Rot.Weighted>
5.4337

> <Gold.Chemscore.Internal.Correction.Weighted>
   9.000000E+99

> <Gold.Protein.RotatedTorsions>
[ 6907 6896 6895 6894 ] final  -22.19 input  -60.11 | X-H torsion
[ 7974 7965 7964 7962 ] final  106.72 input  175.53 | X-H torsion
[ 8008 7997 7996 7995 ] final -149.01 input   59.86 | X-H torsion
[ 10167 10162 10161 10158 ] final  112.12 input  -65.29 | X-H torsion
[ 10718 10713 10712 10709 ] final   91.01 input   66.30 | X-H torsion
[ 10763 10752 10751 10750 ] final   40.45 input  -60.55 | X-H torsion
[ 11005 11000 10999 10996 ] final   22.35 input  -57.11 | X-H torsion

> <Gold.Protein.ActiveResidues>
 VAL166  LYS551  ARG553  GLY616  TRP617  ASP618  TYR619  PRO620  LYS621  CYS622 
 ASP623  PHE694  ASN695  SER759  ASP760  ASP761  ALA762  ILE779  LEU786  VAL792 
 PHE793  MET794  SER795  GLU796  ALA797  LYS798  CYS799  TRP800  GLU811  SER814 

> <Gold.Protein.RotatedAtoms>
  151.2222  135.0523  159.8954 H   0  0  0  0  0  0  0  0  0  0  0  0  # atno 6907 bound_to 6896
  152.5414  134.0628  159.8169 H   0  0  0  0  0  0  0  0  0  0  0  0  # atno 6908 bound_to 6896
  151.0796  133.5353  159.2653 H   0  0  0  0  0  0  0  0  0  0  0  0  # atno 6909 bound_to 6896
  145.3030  139.2563  143.3804 H   0  0  0  0  0  0  0  0  0  0  0  0  # atno 7974 bound_to 7965
  155.6008  140.0662  157.2733 H   0  0  0  0  0  0  0  0  0  0  0  0  # atno 8008 bound_to 7997
  154.4279  140.1818  156.1218 H   0  0  0  0  0  0  0  0  0  0  0  0  # atno 8009 bound_to 7997
  156.0161  140.3321  155.6993 H   0  0  0  0  0  0  0  0  0  0  0  0  # atno 8010 bound_to 7997
  139.6559  144.7129  151.1957 H   0  0  0  0  0  0  0  0  0  0  0  0  # atno 10167 bound_to 10162
  157.6960  131.0392  150.3665 H   0  0  0  0  0  0  0  0  0  0  0  0  # atno 10718 bound_to 10713
  152.9936  135.6191  154.2629 H   0  0  0  0  0  0  0  0  0  0  0  0  # atno 10763 bound_to 10752
  154.2364  135.2790  155.2872 H   0  0  0  0  0  0  0  0  0  0  0  0  # atno 10764 bound_to 10752
  154.5406  135.5762  153.6894 H   0  0  0  0  0  0  0  0  0  0  0  0  # atno 10765 bound_to 10752
  140.3815  134.1916  155.7663 H   0  0  0  0  0  0  0  0  0  0  0  0  # atno 11005 bound_to 11000
  146.3145  140.3548  142.8659 LP  0  0  0  0  0  0  0  0  0  0  0  0  # atno 17320 bound_to 7965
  144.9078  140.7721  143.5826 LP  0  0  0  0  0  0  0  0  0  0  0  0  # atno 17321 bound_to 7965
  140.7559  143.6073  150.8640 LP  0  0  0  0  0  0  0  0  0  0  0  0  # atno 17342 bound_to 10162
  139.9725  143.6040  152.2969 LP  0  0  0  0  0  0  0  0  0  0  0  0  # atno 17343 bound_to 10162
  156.4095  130.3931  149.6901 LP  0  0  0  0  0  0  0  0  0  0  0  0  # atno 17370 bound_to 10713
  156.4191  130.7759  151.2776 LP  0  0  0  0  0  0  0  0  0  0  0  0  # atno 17371 bound_to 10713
  141.1922  133.8179  157.0850 LP  0  0  0  0  0  0  0  0  0  0  0  0  # atno 17394 bound_to 11000
  140.0475  134.9823  157.1076 LP  0  0  0  0  0  0  0  0  0  0  0  0  # atno 17395 bound_to 11000

$$$$
