AV-unprocessed.smi:2008|AV-procd|sdf|8143|dock1
  -GOLD-   2272010383D 1   1.00000     0.00000
 Structure written by MMmdl.
 46 47  0  0  0  0  0  0  0  0  2 V2000
  152.3995  141.1781  158.5361 C   0  0  0  0  0  0  0  0  0  0  0  0
  152.7984  140.0862  157.7142 O   0  0  0  0  0  0  0  0  0  0  0  0
  151.9677  139.7077  156.6796 C   0  0  0  0  0  0  0  0  0  0  0  0
  150.7658  140.4156  156.4850 C   0  0  0  0  0  0  0  0  0  0  0  0
  149.9160  140.0309  155.4311 C   0  0  0  0  0  0  0  0  0  0  0  0
  150.2863  138.9527  154.6013 C   0  0  0  0  0  0  0  0  0  0  0  0
  149.3935  138.5976  153.5513 N   0  0  0  0  0  0  0  0  0  0  0  0
  148.2194  139.1515  153.2002 C   0  0  0  0  0  0  0  0  0  0  0  0
  147.6658  140.0896  153.7719 O   0  0  0  0  0  0  0  0  0  0  0  0
  147.7003  138.5429  152.1243 N   0  0  0  0  0  0  0  0  0  0  0  0
  146.4474  138.9178  151.4785 C   0  0  0  0  0  0  0  0  0  0  0  0
  145.7248  137.6909  150.8867 C   0  0  0  0  0  0  0  0  0  0  0  0
  146.0702  136.4141  151.5692 N   0  3  2  0  0  0  0  0  0  0  0  0
  145.5416  135.2314  150.8363 C   0  0  0  0  0  0  0  0  0  0  0  0
  146.0869  133.9182  151.4195 C   0  0  0  0  0  0  0  0  0  0  0  0
  145.7804  133.8117  152.9171 C   0  0  0  0  0  0  0  0  0  0  0  0
  146.3190  135.0494  153.6477 C   0  0  0  0  0  0  0  0  0  0  0  0
  145.7880  136.3656  153.0392 C   0  0  2  0  0  0  0  0  0  0  0  0
  144.3068  136.6165  153.3945 C   0  0  0  0  0  0  0  0  0  0  0  0
  151.5159  138.3048  154.8804 C   0  0  0  0  0  0  0  0  0  0  0  0
  152.3353  138.6696  155.8893 N   0  0  0  0  0  0  0  0  0  0  0  0
  153.1588  141.3521  159.2983 H   0  0  0  0  0  0  0  0  0  0  0  0
  151.4588  140.9703  159.0480 H   0  0  0  0  0  0  0  0  0  0  0  0
  152.2965  142.0967  157.9566 H   0  0  0  0  0  0  0  0  0  0  0  0
  150.5002  141.2379  157.1330 H   0  0  0  0  0  0  0  0  0  0  0  0
  148.9888  140.5603  155.2657 H   0  0  0  0  0  0  0  0  0  0  0  0
  149.6982  137.8230  152.9803 H   0  0  0  0  0  0  0  0  0  0  0  0
  148.2170  137.7788  151.7131 H   0  0  0  0  0  0  0  0  0  0  0  0
  145.8026  139.4399  152.1877 H   0  0  0  0  0  0  0  0  0  0  0  0
  146.6995  139.6334  150.6969 H   0  0  0  0  0  0  0  0  0  0  0  0
  144.6452  137.8425  150.8875 H   0  0  0  0  0  0  0  0  0  0  0  0
  146.0112  137.5975  149.8384 H   0  0  0  0  0  0  0  0  0  0  0  0
  144.4514  135.2335  150.8580 H   0  0  0  0  0  0  0  0  0  0  0  0
  145.8292  135.2929  149.7861 H   0  0  0  0  0  0  0  0  0  0  0  0
  145.6566  133.0677  150.8896 H   0  0  0  0  0  0  0  0  0  0  0  0
  147.1650  133.8673  151.2615 H   0  0  0  0  0  0  0  0  0  0  0  0
  144.7050  133.7204  153.0721 H   0  0  0  0  0  0  0  0  0  0  0  0
  146.2302  132.9076  153.3289 H   0  0  0  0  0  0  0  0  0  0  0  0
  146.0718  134.9947  154.7086 H   0  0  0  0  0  0  0  0  0  0  0  0
  147.4086  135.0453  153.5930 H   0  0  0  0  0  0  0  0  0  0  0  0
  146.3651  137.1581  153.5138 H   0  0  0  0  0  0  0  0  0  0  0  0
  144.1543  136.5495  154.4721 H   0  0  0  0  0  0  0  0  0  0  0  0
  143.6392  135.8927  152.9280 H   0  0  0  0  0  0  0  0  0  0  0  0
  143.9808  137.6123  153.0956 H   0  0  0  0  0  0  0  0  0  0  0  0
  151.8793  137.4715  154.3022 H   0  0  0  0  0  0  0  0  0  0  0  0
  147.0745  136.3391  151.4906 H   0  0  0  0  0  0  0  0  0  0  0  0
  1  2  1  0  0  0  0
  1 22  1  0  0  0  0
  1 23  1  0  0  0  0
  1 24  1  0  0  0  0
  2  3  1  0  0  0  0
  3 21  1  0  0  0  0
  3  4  2  0  0  0  0
  4  5  1  0  0  0  0
  4 25  1  0  0  0  0
  5  6  2  0  0  0  0
  5 26  1  0  0  0  0
  6  7  1  0  0  0  0
  6 20  1  0  0  0  0
  7  8  1  0  0  0  0
  7 27  1  0  0  0  0
  8  9  2  0  0  0  0
  8 10  1  0  0  0  0
 10 11  1  0  0  0  0
 10 28  1  0  0  0  0
 11 12  1  0  0  0  0
 11 29  1  0  0  0  0
 11 30  1  0  0  0  0
 12 13  1  0  0  0  0
 12 31  1  0  0  0  0
 12 32  1  0  0  0  0
 13 18  1  0  0  0  0
 13 14  1  0  0  0  0
 13 46  1  0  0  0  0
 14 15  1  0  0  0  0
 14 33  1  0  0  0  0
 14 34  1  0  0  0  0
 15 16  1  0  0  0  0
 15 35  1  0  0  0  0
 15 36  1  0  0  0  0
 16 17  1  0  0  0  0
 16 37  1  0  0  0  0
 16 38  1  0  0  0  0
 17 18  1  0  0  0  0
 17 39  1  0  0  0  0
 17 40  1  0  0  0  0
 18 19  1  0  0  0  0
 18 41  1  0  0  0  0
 19 42  1  0  0  0  0
 19 43  1  0  0  0  0
 19 44  1  0  0  0  0
 20 21  2  0  0  0  0
 20 45  1  0  0  0  0
M  CHG  1  13   1
M  END
> <s_m_source_file>
AV-unprocessed.smi

> <i_m_source_file_index>
2008

> <i_lp_mmshare_version>
43012

> <i_f3d_flags>
0

> <s_epik_input>
W0NIM11PYzFbY0hdW2NIXWMoW2NIXW4xKVtOSF1DKD1PKVtOSF1bQ0gyXVtDSDJdTjJbQ0gyXVtDSDJdW0NIMl1bQ0gyXVtDQEhdMltDSDNd

> <s_epik_cmdline>
J2VwaWtfcHl0aG9uJywgJy1waCcsICc3LjAnLCAnLXRuJywgJzgnLCAnLW1hJywgJzIwMCcsICctbWV0YWxfYmluZGluZycsICctaW1hZScsICc8aW5maWxlLm1hZT4nLCAnLW9tYWUnLCAnPG91dGZpbGUubWFlPic=

> <r_lp_tautomer_probability>
1

> <r_epik_Ionization_Penalty>
0.00219526

> <r_epik_Ionization_Penalty_Charging>
0.00211816

> <r_epik_Ionization_Penalty_Neutral>
7.71003e-05

> <r_epik_State_Penalty>
0.00145254

> <r_epik_Charging_Adjusted_Penalty>
0.0035707

> <i_epik_Tot_Q>
1

> <i_epik_Tot_abs_Q>
1

> <r_epik_Metal_State_Penalty>
-0

> <b_epik_Metal_Only>
0

> <s_lp_Force_Field>
OPLS_2005

> <r_lp_Energy>
23.262

> <b_lp_Chiralities_Consistent>
1

> <s_lp_Variant>
AV-unprocessed.smi:2008-3

> <Gold.Version>
5.8.1

> <Gold.Id.Protein>
6NUR|6NUR_protein|mol2

> <Gold.PLP.Fitness>
44.0194

> <Gold.PLP.PLP>
-31.0125

> <Gold.PLP.part.hbond>
-5.9848

> <Gold.PLP.part.metal>
0.0000

> <Gold.PLP.part.buried>
6.3790

> <Gold.PLP.part.nonpolar>
-32.6773

> <Gold.PLP.part.repulsive>
0.4108

> <Gold.PLP.ligand.clash>
0.6956

> <Gold.PLP.ligand.torsion>
0.4372

> <Gold.PLP.Chemscore.Hbond>
4.8400

> <Gold.PLP.Chemscore.CHOScore>
0.0000

> <Gold.PLP.Chemscore.Metal>
0.0000

> <Gold.Chemscore.Hbonds>
donor molecule, donor type, donor heavy atom, donor atom, acceptor molecule, acceptor atom, score
      L1  H     7    27       P1  7948  0.84
      L1  H    10    28       P1  7948  1.00
      L1  H    13    46       P1  7948  2.00
      P1  H  7997  8008       L1     2  1.00

> <Gold.PLP.Chemscore.Internal.Correction>
0.0568

> <Gold.Rescore>
     Score         DG    S(hbond)    S(metal)    S(lipo)     H(rot)  DE(clash)    DE(int)     intcor
     15.11     -20.49       3.02        0.00      79.59       1.71       3.57       1.80       ----

> <Gold.Chemscore.Fitness>
15.1135

> <Gold.Chemscore.DG>
-20.4890

> <Gold.Chemscore.ZeroCoef>
-5.4800

> <Gold.Chemscore.Hbond>
3.0170

> <Gold.Chemscore.Metal>
0.0000

> <Gold.Chemscore.Lipo>
79.5869

> <Gold.Chemscore.Internal_Hbond>
0.0000

> <Gold.Chemscore.DEClash>
3.5733

> <Gold.Chemscore.DEInternal>
1.8023

> <Gold.Chemscore.Rot>
1.7107

> <Gold.Chemscore.Internal.Correction>
   9.000000E+99

> <Gold.Chemscore.Hbonds>
donor molecule, donor type, donor heavy atom, donor atom, acceptor molecule, acceptor atom, score
      L1  H     7    27       P1  7948  0.51
      L1  H    10    28       P1  7948  0.96
      L1  H    13    46       P1  7948  1.00
      P1  H  7997  8008       L1     2  0.41

> <Gold.Chemscore.Hbond.Weighted>
-10.0768

> <Gold.Chemscore.Metal.Weighted>
-0.0000

> <Gold.Chemscore.Lipo.Weighted>
-9.3117

> <Gold.Chemscore.Internal_Hbond.Weighted>
0.0000

> <Gold.Chemscore.DEClash.Weighted>
3.5733

> <Gold.Chemscore.DEInternal.Weighted>
1.8023

> <Gold.Chemscore.Rot.Weighted>
4.3794

> <Gold.Chemscore.Internal.Correction.Weighted>
   9.000000E+99

> <Gold.Protein.RotatedTorsions>
[ 6907 6896 6895 6894 ] final  -56.34 input  -60.11 | X-H torsion
[ 7974 7965 7964 7962 ] final    4.27 input  175.53 | X-H torsion
[ 8008 7997 7996 7995 ] final  -81.17 input   59.86 | X-H torsion
[ 10167 10162 10161 10158 ] final  -72.93 input  -65.29 | X-H torsion
[ 10718 10713 10712 10709 ] final   12.07 input   66.30 | X-H torsion
[ 10763 10752 10751 10750 ] final   39.57 input  -60.55 | X-H torsion
[ 11005 11000 10999 10996 ] final  -10.56 input  -57.11 | X-H torsion

> <Gold.Protein.ActiveResidues>
 VAL166  LYS551  ARG553  GLY616  TRP617  ASP618  TYR619  PRO620  LYS621  CYS622 
 ASP623  PHE694  ASN695  SER759  ASP760  ASP761  ALA762  ILE779  LEU786  VAL792 
 PHE793  MET794  SER795  GLU796  ALA797  LYS798  CYS799  TRP800  GLU811  SER814 

> <Gold.Protein.RotatedAtoms>
  150.8176  134.7366  159.6743 H   0  0  0  0  0  0  0  0  0  0  0  0  # atno 6907 bound_to 6896
  152.4293  134.5804  159.9956 H   0  0  0  0  0  0  0  0  0  0  0  0  # atno 6908 bound_to 6896
  151.5997  133.3320  159.3081 H   0  0  0  0  0  0  0  0  0  0  0  0  # atno 6909 bound_to 6896
  146.2444  140.0560  142.8372 H   0  0  0  0  0  0  0  0  0  0  0  0  # atno 7974 bound_to 7965
  154.5957  140.0652  156.9299 H   0  0  0  0  0  0  0  0  0  0  0  0  # atno 8008 bound_to 7997
  155.2219  140.3331  155.4296 H   0  0  0  0  0  0  0  0  0  0  0  0  # atno 8009 bound_to 7997
  156.2285  140.1830  156.7286 H   0  0  0  0  0  0  0  0  0  0  0  0  # atno 8010 bound_to 7997
  140.5152  143.2339  151.7525 H   0  0  0  0  0  0  0  0  0  0  0  0  # atno 10167 bound_to 10162
  157.0047  130.6093  149.5700 H   0  0  0  0  0  0  0  0  0  0  0  0  # atno 10718 bound_to 10713
  152.9963  135.6216  154.2487 H   0  0  0  0  0  0  0  0  0  0  0  0  # atno 10763 bound_to 10752
  154.2226  135.2795  155.2921 H   0  0  0  0  0  0  0  0  0  0  0  0  # atno 10764 bound_to 10752
  154.5516  135.5731  153.6985 H   0  0  0  0  0  0  0  0  0  0  0  0  # atno 10765 bound_to 10752
  140.7460  133.8631  155.9006 H   0  0  0  0  0  0  0  0  0  0  0  0  # atno 11005 bound_to 11000
  145.0942  140.9304  143.4751 LP  0  0  0  0  0  0  0  0  0  0  0  0  # atno 17320 bound_to 7965
  145.0739  139.3011  143.5818 LP  0  0  0  0  0  0  0  0  0  0  0  0  # atno 17321 bound_to 7965
  139.4907  144.4334  151.9846 LP  0  0  0  0  0  0  0  0  0  0  0  0  # atno 17342 bound_to 10162
  140.3428  144.3183  150.5964 LP  0  0  0  0  0  0  0  0  0  0  0  0  # atno 17343 bound_to 10162
  156.0158  130.5252  150.8129 LP  0  0  0  0  0  0  0  0  0  0  0  0  # atno 17370 bound_to 10713
  157.5364  131.0939  150.9886 LP  0  0  0  0  0  0  0  0  0  0  0  0  # atno 17371 bound_to 10713
  140.9794  134.1426  157.4508 LP  0  0  0  0  0  0  0  0  0  0  0  0  # atno 17394 bound_to 11000
  139.8796  135.0005  156.6015 LP  0  0  0  0  0  0  0  0  0  0  0  0  # atno 17395 bound_to 11000

$$$$
