AV-unprocessed.smi:1090|AV-procd|sdf|4735|dock1
  -GOLD-   22720 3273D 1   1.00000     0.00000
 Structure written by MMmdl.
 38 40  0  0  0  0  0  0  0  0  1 V2000
  152.7252  139.3678  157.0762 O   0  0  0  0  0  0  0  0  0  0  0  0
  151.8200  139.8949  157.7228 C   0  0  0  0  0  0  0  0  0  0  0  0
  150.4911  140.2388  157.0457 C   0  0  0  0  0  0  0  0  0  0  0  0
  150.6232  140.5170  155.5308 C   0  0  0  0  0  0  0  0  0  0  0  0
  149.5579  141.4732  155.0096 C   0  0  0  0  0  0  0  0  0  0  0  0
  148.1130  141.3445  155.4322 C   0  0  0  0  0  0  0  0  0  0  0  0
  148.5140  141.0308  154.0095 C   0  0  0  0  0  0  0  0  0  0  0  0
  150.5924  139.2124  154.7533 C   0  0  0  0  0  0  0  0  0  0  0  0
  149.6526  138.0960  155.1396 C   0  0  0  0  0  0  0  0  0  0  0  0
  151.1437  137.9336  155.3368 C   0  0  0  0  0  0  0  0  0  0  0  0
  151.9263  140.2062  159.0234 N   0  0  0  0  0  0  0  0  0  0  0  0
  153.0924  139.9326  159.8541 C   0  0  0  0  0  0  0  0  0  0  0  0
  153.9406  141.1966  160.0671 C   0  0  0  0  0  0  0  0  0  0  0  0
  153.1041  142.4053  160.3201 C   0  0  0  0  0  0  0  0  0  0  0  0
  152.8634  143.3425  159.3988 N   0  0  0  0  0  0  0  0  0  0  0  0
  152.0814  144.3891  159.8942 C   0  0  0  0  0  0  0  0  0  0  0  0
  151.7409  144.2403  161.2147 C   0  0  0  0  0  0  0  0  0  0  0  0
  152.3956  142.7733  161.8891 S   0  0  0  0  0  0  0  0  0  0  0  0
  149.7937  139.4162  157.2117 H   0  0  0  0  0  0  0  0  0  0  0  0
  150.0573  141.1050  157.5472 H   0  0  0  0  0  0  0  0  0  0  0  0
  151.5969  140.9781  155.3542 H   0  0  0  0  0  0  0  0  0  0  0  0
  149.9171  142.4943  154.8945 H   0  0  0  0  0  0  0  0  0  0  0  0
  147.8381  140.5054  156.0680 H   0  0  0  0  0  0  0  0  0  0  0  0
  147.5589  142.2643  155.6086 H   0  0  0  0  0  0  0  0  0  0  0  0
  148.2306  141.7407  153.2353 H   0  0  0  0  0  0  0  0  0  0  0  0
  148.5108  139.9855  153.7066 H   0  0  0  0  0  0  0  0  0  0  0  0
  150.7454  139.3445  153.6835 H   0  0  0  0  0  0  0  0  0  0  0  0
  149.0410  138.2326  156.0294 H   0  0  0  0  0  0  0  0  0  0  0  0
  149.1864  137.5309  154.3352 H   0  0  0  0  0  0  0  0  0  0  0  0
  151.6711  137.2618  154.6630 H   0  0  0  0  0  0  0  0  0  0  0  0
  151.5164  137.9568  156.3588 H   0  0  0  0  0  0  0  0  0  0  0  0
  151.1365  140.6456  159.4738 H   0  0  0  0  0  0  0  0  0  0  0  0
  152.7805  139.5143  160.8126 H   0  0  0  0  0  0  0  0  0  0  0  0
  153.6885  139.1650  159.3595 H   0  0  0  0  0  0  0  0  0  0  0  0
  154.6207  141.0572  160.9084 H   0  0  0  0  0  0  0  0  0  0  0  0
  154.5635  141.3885  159.1926 H   0  0  0  0  0  0  0  0  0  0  0  0
  151.8147  145.2033  159.2365 H   0  0  0  0  0  0  0  0  0  0  0  0
  151.1502  144.9030  161.8299 H   0  0  0  0  0  0  0  0  0  0  0  0
  1  2  2  0  0  0  0
  2  3  1  0  0  0  0
  2 11  1  0  0  0  0
  3  4  1  0  0  0  0
  3 19  1  0  0  0  0
  3 20  1  0  0  0  0
  4  5  1  0  0  0  0
  4  8  1  0  0  0  0
  4 21  1  0  0  0  0
  5  7  1  0  0  0  0
  5  6  1  0  0  0  0
  5 22  1  0  0  0  0
  6  7  1  0  0  0  0
  6 23  1  0  0  0  0
  6 24  1  0  0  0  0
  7 25  1  0  0  0  0
  7 26  1  0  0  0  0
  8 10  1  0  0  0  0
  8  9  1  0  0  0  0
  8 27  1  0  0  0  0
  9 10  1  0  0  0  0
  9 28  1  0  0  0  0
  9 29  1  0  0  0  0
 10 30  1  0  0  0  0
 10 31  1  0  0  0  0
 11 12  1  0  0  0  0
 11 32  1  0  0  0  0
 12 13  1  0  0  0  0
 12 33  1  0  0  0  0
 12 34  1  0  0  0  0
 13 14  1  0  0  0  0
 13 35  1  0  0  0  0
 13 36  1  0  0  0  0
 14 18  1  0  0  0  0
 14 15  2  0  0  0  0
 15 16  1  0  0  0  0
 16 17  2  0  0  0  0
 16 37  1  0  0  0  0
 17 18  1  0  0  0  0
 17 38  1  0  0  0  0
M  END
> <s_m_source_file>
AV-unprocessed.smi

> <i_m_source_file_index>
1090

> <i_lp_mmshare_version>
43012

> <i_f3d_flags>
0

> <s_epik_input>
W0NIMl0xW0NIMl1bQ0hdMVtDSF0oW0NIXTJbQ0gyXVtDSDJdMilbQ0gyXUMoPU8pW05IXVtDSDJdW0NIMl1jM25bY0hdW2NIXXMz

> <s_epik_cmdline>
J2VwaWtfcHl0aG9uJywgJy1waCcsICc3LjAnLCAnLXRuJywgJzgnLCAnLW1hJywgJzIwMCcsICctbWV0YWxfYmluZGluZycsICctaW1hZScsICc8aW5maWxlLm1hZT4nLCAnLW9tYWUnLCAnPG91dGZpbGUubWFlPic=

> <r_lp_tautomer_probability>
1

> <r_epik_Ionization_Penalty>
0.000189819

> <r_epik_Ionization_Penalty_Charging>
0

> <r_epik_Ionization_Penalty_Neutral>
0.000189819

> <r_epik_State_Penalty>
-0

> <r_epik_Charging_Adjusted_Penalty>
0

> <i_epik_Tot_Q>
0

> <i_epik_Tot_abs_Q>
0

> <r_epik_Metal_State_Penalty>
-0

> <b_epik_Metal_Only>
0

> <s_lp_Force_Field>
OPLS_2005

> <r_lp_Energy>
14.2357

> <b_lp_Chiralities_Consistent>
1

> <s_lp_Variant>
AV-unprocessed.smi:1090-1

> <Gold.Version>
5.8.1

> <Gold.Id.Protein>
6NUR|6NUR_protein|mol2

> <Gold.PLP.Fitness>
42.9957

> <Gold.PLP.PLP>
-42.6556

> <Gold.PLP.part.hbond>
-1.0000

> <Gold.PLP.part.metal>
0.0000

> <Gold.PLP.part.buried>
-3.5734

> <Gold.PLP.part.nonpolar>
-38.2651

> <Gold.PLP.part.repulsive>
0.1296

> <Gold.PLP.ligand.clash>
0.0000

> <Gold.PLP.ligand.torsion>
2.5428

> <Gold.PLP.Chemscore.Hbond>
1.0000

> <Gold.PLP.Chemscore.CHOScore>
0.0000

> <Gold.PLP.Chemscore.Metal>
0.0000

> <Gold.Chemscore.Hbonds>
donor molecule, donor type, donor heavy atom, donor atom, acceptor molecule, acceptor atom, score
      P1  H  7997  8009       L1     1  1.00

> <Gold.PLP.Chemscore.Internal.Correction>
2.4257

> <Gold.Rescore>
     Score         DG    S(hbond)    S(metal)    S(lipo)     H(rot)  DE(clash)    DE(int)     intcor
     15.40     -17.95       1.00        0.00     115.30       1.70       0.07       2.49       ----

> <Gold.Chemscore.Fitness>
15.3961

> <Gold.Chemscore.DG>
-17.9543

> <Gold.Chemscore.ZeroCoef>
-5.4800

> <Gold.Chemscore.Hbond>
0.9975

> <Gold.Chemscore.Metal>
0.0000

> <Gold.Chemscore.Lipo>
115.2982

> <Gold.Chemscore.Internal_Hbond>
0.0000

> <Gold.Chemscore.DEClash>
0.0705

> <Gold.Chemscore.DEInternal>
2.4877

> <Gold.Chemscore.Rot>
1.6982

> <Gold.Chemscore.Internal.Correction>
   9.000000E+99

> <Gold.Chemscore.Hbonds>
donor molecule, donor type, donor heavy atom, donor atom, acceptor molecule, acceptor atom, score
      P1  H  7997  8009       L1     1  0.99

> <Gold.Chemscore.Hbond.Weighted>
-3.3318

> <Gold.Chemscore.Metal.Weighted>
-0.0000

> <Gold.Chemscore.Lipo.Weighted>
-13.4899

> <Gold.Chemscore.Internal_Hbond.Weighted>
0.0000

> <Gold.Chemscore.DEClash.Weighted>
0.0705

> <Gold.Chemscore.DEInternal.Weighted>
2.4877

> <Gold.Chemscore.Rot.Weighted>
4.3474

> <Gold.Chemscore.Internal.Correction.Weighted>
   9.000000E+99

> <Gold.Protein.RotatedTorsions>
[ 6907 6896 6895 6894 ] final   71.31 input  -60.11 | X-H torsion
[ 7974 7965 7964 7962 ] final -105.55 input  175.53 | X-H torsion
[ 8008 7997 7996 7995 ] final -167.05 input   59.86 | X-H torsion
[ 10167 10162 10161 10158 ] final -144.83 input  -65.29 | X-H torsion
[ 10718 10713 10712 10709 ] final -177.20 input   66.30 | X-H torsion
[ 10763 10752 10751 10750 ] final   10.87 input  -60.55 | X-H torsion
[ 11005 11000 10999 10996 ] final  119.34 input  -57.11 | X-H torsion

> <Gold.Protein.ActiveResidues>
 VAL166  LYS551  ARG553  GLY616  TRP617  ASP618  TYR619  PRO620  LYS621  CYS622 
 ASP623  PHE694  ASN695  SER759  ASP760  ASP761  ALA762  ILE779  LEU786  VAL792 
 PHE793  MET794  SER795  GLU796  ALA797  LYS798  CYS799  TRP800  GLU811  SER814 

> <Gold.Protein.RotatedAtoms>
  152.4802  134.4738  159.9643 H   0  0  0  0  0  0  0  0  0  0  0  0  # atno 6907 bound_to 6896
  151.4746  133.3555  159.2836 H   0  0  0  0  0  0  0  0  0  0  0  0  # atno 6908 bound_to 6896
  150.8870  134.8295  159.7327 H   0  0  0  0  0  0  0  0  0  0  0  0  # atno 6909 bound_to 6896
  145.2291  140.9163  143.3215 H   0  0  0  0  0  0  0  0  0  0  0  0  # atno 7974 bound_to 7965
  155.8723  140.0995  157.1542 H   0  0  0  0  0  0  0  0  0  0  0  0  # atno 8008 bound_to 7997
  154.3998  140.1344  156.4156 H   0  0  0  0  0  0  0  0  0  0  0  0  # atno 8009 bound_to 7997
  155.7736  140.3460  155.5262 H   0  0  0  0  0  0  0  0  0  0  0  0  # atno 8010 bound_to 7997
  139.7863  143.8030  152.2645 H   0  0  0  0  0  0  0  0  0  0  0  0  # atno 10167 bound_to 10162
  156.8259  130.9636  151.3109 H   0  0  0  0  0  0  0  0  0  0  0  0  # atno 10718 bound_to 10713
  153.1986  135.6853  153.8260 H   0  0  0  0  0  0  0  0  0  0  0  0  # atno 10763 bound_to 10752
  153.7534  135.3220  155.3326 H   0  0  0  0  0  0  0  0  0  0  0  0  # atno 10764 bound_to 10752
  154.8159  135.4686  154.0742 H   0  0  0  0  0  0  0  0  0  0  0  0  # atno 10765 bound_to 10752
  139.9143  134.9627  156.7641 H   0  0  0  0  0  0  0  0  0  0  0  0  # atno 11005 bound_to 11000
  144.9694  139.3896  143.6317 LP  0  0  0  0  0  0  0  0  0  0  0  0  # atno 17320 bound_to 7965
  146.3357  139.8784  142.8828 LP  0  0  0  0  0  0  0  0  0  0  0  0  # atno 17321 bound_to 7965
  139.8107  144.7337  150.9700 LP  0  0  0  0  0  0  0  0  0  0  0  0  # atno 17342 bound_to 10162
  140.7819  143.4253  151.0778 LP  0  0  0  0  0  0  0  0  0  0  0  0  # atno 17343 bound_to 10162
  157.6432  130.8823  149.9488 LP  0  0  0  0  0  0  0  0  0  0  0  0  # atno 17370 bound_to 10713
  156.0962  130.3659  150.0303 LP  0  0  0  0  0  0  0  0  0  0  0  0  # atno 17371 bound_to 10713
  140.6674  133.9591  155.7837 LP  0  0  0  0  0  0  0  0  0  0  0  0  # atno 17394 bound_to 11000
  141.0602  134.0358  157.3669 LP  0  0  0  0  0  0  0  0  0  0  0  0  # atno 17395 bound_to 11000

$$$$
