AV-unprocessed.smi:33|AV-procd|sdf|199|dock1
  -GOLD-   2262015473D 1   1.00000     0.00000
 Structure written by MMmdl.
 67 72  0  0  0  0  0  0  0  0  1 V2000
  151.1413  142.8238  156.8166 O   0  0  0  0  0  0  0  0  0  0  0  0
  151.3395  141.8261  157.5128 C   0  0  0  0  0  0  0  0  0  0  0  0
  150.8835  140.5985  157.2026 O   0  0  0  0  0  0  0  0  0  0  0  0
  150.0141  140.4182  156.0972 C   0  0  0  0  0  0  0  0  0  0  0  0
  149.7426  138.9195  155.9352 C   0  0  2  0  0  0  0  0  0  0  0  0
  149.9404  138.2292  157.1618 O   0  0  0  0  0  0  0  0  0  0  0  0
  150.0663  136.8645  156.8966 C   0  0  1  0  0  0  0  0  0  0  0  0
  148.7393  136.2100  157.1450 N   0  0  0  0  0  0  0  0  0  0  0  0
  147.4705  136.7524  157.1089 C   0  0  0  0  0  0  0  0  0  0  0  0
  146.5000  135.9215  157.3798 N   0  0  0  0  0  0  0  0  0  0  0  0
  147.1481  134.7197  157.6323 C   0  0  0  0  0  0  0  0  0  0  0  0
  146.7124  133.4141  157.9835 C   0  0  0  0  0  0  0  0  0  0  0  0
  145.4067  133.0935  158.1392 N   0  0  0  0  0  0  0  0  0  0  0  0
  144.4740  133.5760  157.1102 C   0  0  0  0  0  0  0  0  0  0  0  0
  143.2869  133.7442  157.3958 O   0  0  0  0  0  0  0  0  0  0  0  0
  144.9672  133.9068  155.7303 C   0  0  0  0  0  0  0  0  0  0  0  0
  145.8204  133.0105  155.0499 C   0  0  0  0  0  0  0  0  0  0  0  0
  146.2975  133.3236  153.7623 C   0  0  0  0  0  0  0  0  0  0  0  0
  145.9395  134.5421  153.1548 C   0  0  0  0  0  0  0  0  0  0  0  0
  145.1130  135.4530  153.8397 C   0  0  0  0  0  0  0  0  0  0  0  0
  144.6354  135.1409  155.1271 C   0  0  0  0  0  0  0  0  0  0  0  0
  145.0420  132.2974  159.3202 C   0  0  0  0  0  0  0  0  0  0  0  0
  145.7626  132.3277  160.3197 O   0  0  0  0  0  0  0  0  0  0  0  0
  143.7719  131.4949  159.3361 C   0  0  0  0  0  0  0  0  0  0  0  0
  143.1836  131.1281  160.5664 C   0  0  0  0  0  0  0  0  0  0  0  0
  141.9995  130.3660  160.5877 C   0  0  0  0  0  0  0  0  0  0  0  0
  141.4076  129.9492  159.3805 C   0  0  0  0  0  0  0  0  0  0  0  0
  142.0047  130.2871  158.1511 C   0  0  0  0  0  0  0  0  0  0  0  0
  143.1875  131.0509  158.1285 C   0  0  0  0  0  0  0  0  0  0  0  0
  147.6567  132.4547  158.1665 N   0  0  0  0  0  0  0  0  0  0  0  0
  148.9495  132.7570  158.0116 C   0  0  0  0  0  0  0  0  0  0  0  0
  149.5004  133.9281  157.6813 N   0  0  0  0  0  0  0  0  0  0  0  0
  148.5520  134.8922  157.4996 C   0  0  0  0  0  0  0  0  0  0  0  0
  150.5309  136.7338  155.4229 C   0  0  1  0  0  0  0  0  0  0  0  0
  149.6101  136.0857  154.5620 O   0  0  0  0  0  0  0  0  0  0  0  0
  150.7022  138.1867  155.0005 C   0  0  2  0  0  0  0  0  0  0  0  0
  151.9604  138.5708  155.2265 F   0  0  0  0  0  0  0  0  0  0  0  0
  152.1112  141.8510  158.7889 C   0  0  0  0  0  0  0  0  0  0  0  0
  152.1112  143.0259  159.5762 C   0  0  0  0  0  0  0  0  0  0  0  0
  152.8310  143.0791  160.7857 C   0  0  0  0  0  0  0  0  0  0  0  0
  153.5602  141.9578  161.2225 C   0  0  0  0  0  0  0  0  0  0  0  0
  153.5690  140.7833  160.4479 C   0  0  0  0  0  0  0  0  0  0  0  0
  152.8493  140.7279  159.2384 C   0  0  0  0  0  0  0  0  0  0  0  0
  149.0798  140.9477  156.2885 H   0  0  0  0  0  0  0  0  0  0  0  0
  150.4528  140.8324  155.1883 H   0  0  0  0  0  0  0  0  0  0  0  0
  148.7213  138.7635  155.5837 H   0  0  0  0  0  0  0  0  0  0  0  0
  150.7401  136.3967  157.6154 H   0  0  0  0  0  0  0  0  0  0  0  0
  147.2769  137.7893  156.8761 H   0  0  0  0  0  0  0  0  0  0  0  0
  146.1020  132.0728  155.5068 H   0  0  0  0  0  0  0  0  0  0  0  0
  146.9395  132.6289  153.2410 H   0  0  0  0  0  0  0  0  0  0  0  0
  146.3048  134.7815  152.1670 H   0  0  0  0  0  0  0  0  0  0  0  0
  144.8466  136.3927  153.3787 H   0  0  0  0  0  0  0  0  0  0  0  0
  144.0067  135.8503  155.6462 H   0  0  0  0  0  0  0  0  0  0  0  0
  143.6289  131.4434  161.4991 H   0  0  0  0  0  0  0  0  0  0  0  0
  141.5458  130.1012  161.5314 H   0  0  0  0  0  0  0  0  0  0  0  0
  140.4992  129.3651  159.3975 H   0  0  0  0  0  0  0  0  0  0  0  0
  141.5567  129.9598  157.2246 H   0  0  0  0  0  0  0  0  0  0  0  0
  143.6392  131.3008  157.1791 H   0  0  0  0  0  0  0  0  0  0  0  0
  149.6416  131.9439  158.1738 H   0  0  0  0  0  0  0  0  0  0  0  0
  151.4773  136.1930  155.3873 H   0  0  0  0  0  0  0  0  0  0  0  0
  149.8109  136.3318  153.6716 H   0  0  0  0  0  0  0  0  0  0  0  0
  150.4964  138.3669  153.9445 H   0  0  0  0  0  0  0  0  0  0  0  0
  151.5592  143.8998  159.2610 H   0  0  0  0  0  0  0  0  0  0  0  0
  152.8233  143.9819  161.3783 H   0  0  0  0  0  0  0  0  0  0  0  0
  154.1123  141.9988  162.1498 H   0  0  0  0  0  0  0  0  0  0  0  0
  154.1289  139.9221  160.7817 H   0  0  0  0  0  0  0  0  0  0  0  0
  152.8779  139.8107  158.6685 H   0  0  0  0  0  0  0  0  0  0  0  0
  1  2  2  0  0  0  0
  2  3  1  0  0  0  0
  2 38  1  0  0  0  0
  3  4  1  0  0  0  0
  4  5  1  0  0  0  0
  4 44  1  0  0  0  0
  4 45  1  0  0  0  0
  5 36  1  0  0  0  0
  5  6  1  0  0  0  0
  5 46  1  0  0  0  0
  6  7  1  0  0  0  0
  7  8  1  0  0  0  0
  7 34  1  0  0  0  0
  7 47  1  0  0  0  0
  8 33  1  0  0  0  0
  8  9  1  0  0  0  0
  9 10  2  0  0  0  0
  9 48  1  0  0  0  0
 10 11  1  0  0  0  0
 11 33  2  0  0  0  0
 11 12  1  0  0  0  0
 12 13  1  0  0  0  0
 12 30  2  0  0  0  0
 13 14  1  0  0  0  0
 13 22  1  0  0  0  0
 14 15  2  0  0  0  0
 14 16  1  0  0  0  0
 16 21  1  0  0  0  0
 16 17  2  0  0  0  0
 17 18  1  0  0  0  0
 17 49  1  0  0  0  0
 18 19  2  0  0  0  0
 18 50  1  0  0  0  0
 19 20  1  0  0  0  0
 19 51  1  0  0  0  0
 20 21  2  0  0  0  0
 20 52  1  0  0  0  0
 21 53  1  0  0  0  0
 22 23  2  0  0  0  0
 22 24  1  0  0  0  0
 24 29  1  0  0  0  0
 24 25  2  0  0  0  0
 25 26  1  0  0  0  0
 25 54  1  0  0  0  0
 26 27  2  0  0  0  0
 26 55  1  0  0  0  0
 27 28  1  0  0  0  0
 27 56  1  0  0  0  0
 28 29  2  0  0  0  0
 28 57  1  0  0  0  0
 29 58  1  0  0  0  0
 30 31  1  0  0  0  0
 31 32  2  0  0  0  0
 31 59  1  0  0  0  0
 32 33  1  0  0  0  0
 34 35  1  0  0  0  0
 34 36  1  0  0  0  0
 34 60  1  0  0  0  0
 35 61  1  0  0  0  0
 36 37  1  0  0  0  0
 36 62  1  0  0  0  0
 38 43  1  0  0  0  0
 38 39  2  0  0  0  0
 39 40  1  0  0  0  0
 39 63  1  0  0  0  0
 40 41  2  0  0  0  0
 40 64  1  0  0  0  0
 41 42  1  0  0  0  0
 41 65  1  0  0  0  0
 42 43  2  0  0  0  0
 42 66  1  0  0  0  0
 43 67  1  0  0  0  0
M  END
> <s_m_source_file>
AV-unprocessed.smi

> <i_m_source_file_index>
33

> <i_lp_mmshare_version>
43012

> <i_f3d_flags>
0

> <s_epik_input>
W2NIXTFbY0hdW2NIXVtjSF1bY0hdYzFDKD1PKU9bQ0gyXVtDQEBIXTJPW0NASF0oW0NAQEhdKFtPSF0pW0NAQEhdMkYpbihbY0hdbjMpYyhjMzQpbltjSF1uYzROKEMoPU8pYzVbY0hdW2NIXVtjSF1bY0hdW2NIXTUpQyg9TyljNltjSF1bY0hdW2NIXVtjSF1bY0hdNg==

> <s_epik_cmdline>
J2VwaWtfcHl0aG9uJywgJy1waCcsICc3LjAnLCAnLXRuJywgJzgnLCAnLW1hJywgJzIwMCcsICctbWV0YWxfYmluZGluZycsICctaW1hZScsICc8aW5maWxlLm1hZT4nLCAnLW9tYWUnLCAnPG91dGZpbGUubWFlPic=

> <r_lp_tautomer_probability>
1

> <r_epik_Ionization_Penalty>
0.00067664

> <r_epik_Ionization_Penalty_Charging>
0

> <r_epik_Ionization_Penalty_Neutral>
0.00067664

> <r_epik_State_Penalty>
0.000428095

> <r_epik_Charging_Adjusted_Penalty>
0.000428095

> <i_epik_Tot_Q>
0

> <i_epik_Tot_abs_Q>
0

> <r_epik_Metal_State_Penalty>
-0

> <b_epik_Metal_Only>
0

> <s_epik_Chemistry_Notes>
This compound has an ester and may undergo hydrolysis at high or low pH. This compound contains an acetal/aminal-like group ( X-CH(R)-Y where X, Y are N, S, or O) that may be acid/base labile, releasing an aldehyde.

> <s_lp_Force_Field>
OPLS_2005

> <r_lp_Energy>
71.8737

> <b_lp_Chiralities_Consistent>
1

> <s_lp_Variant>
AV-unprocessed.smi:33-1

> <Gold.Version>
5.8.1

> <Gold.Id.Protein>
6NUR|6NUR_protein|mol2

> <Gold.PLP.Fitness>
53.7295

> <Gold.PLP.PLP>
-48.0498

> <Gold.PLP.part.hbond>
-3.0000

> <Gold.PLP.part.metal>
0.0000

> <Gold.PLP.part.buried>
-8.8695

> <Gold.PLP.part.nonpolar>
-38.4336

> <Gold.PLP.part.repulsive>
0.2322

> <Gold.PLP.ligand.clash>
0.0000

> <Gold.PLP.ligand.torsion>
3.8785

> <Gold.PLP.Chemscore.Hbond>
2.5450

> <Gold.PLP.Chemscore.CHOScore>
0.0000

> <Gold.PLP.Chemscore.Metal>
0.0000

> <Gold.Chemscore.Hbonds>
donor molecule, donor type, donor heavy atom, donor atom, acceptor molecule, acceptor atom, score
      L1  H    35    61       P1  7948  0.80
      P1  H  6896  6909       L1    32  0.81
      P1  H 11000 11005       L1    15  0.83

> <Gold.PLP.Chemscore.Internal.Correction>
5.8016

> <Gold.Rescore>
     Score         DG    S(hbond)    S(metal)    S(lipo)     H(rot)  DE(clash)    DE(int)     intcor
     11.16     -18.94       1.80        0.00     118.95       2.52       0.18       7.60       ----

> <Gold.Chemscore.Fitness>
11.1620

> <Gold.Chemscore.DG>
-18.9374

> <Gold.Chemscore.ZeroCoef>
-5.4800

> <Gold.Chemscore.Hbond>
1.7974

> <Gold.Chemscore.Metal>
0.0000

> <Gold.Chemscore.Lipo>
118.9504

> <Gold.Chemscore.Internal_Hbond>
0.0000

> <Gold.Chemscore.DEClash>
0.1774

> <Gold.Chemscore.DEInternal>
7.5980

> <Gold.Chemscore.Rot>
2.5247

> <Gold.Chemscore.Internal.Correction>
   9.000000E+99

> <Gold.Chemscore.Hbonds>
donor molecule, donor type, donor heavy atom, donor atom, acceptor molecule, acceptor atom, score
      L1  H    35    61       P1  7948  0.23
      P1  H  6896  6909       L1    32  0.12
      P1  H 11000 11005       L1    15  0.80

> <Gold.Chemscore.Hbond.Weighted>
-6.0034

> <Gold.Chemscore.Metal.Weighted>
-0.0000

> <Gold.Chemscore.Lipo.Weighted>
-13.9172

> <Gold.Chemscore.Internal_Hbond.Weighted>
0.0000

> <Gold.Chemscore.DEClash.Weighted>
0.1774

> <Gold.Chemscore.DEInternal.Weighted>
7.5980

> <Gold.Chemscore.Rot.Weighted>
6.4633

> <Gold.Chemscore.Internal.Correction.Weighted>
   9.000000E+99

> <Gold.Protein.RotatedTorsions>
[ 6907 6896 6895 6894 ] final   23.45 input  -60.11 | X-H torsion
[ 7974 7965 7964 7962 ] final  -22.43 input  175.53 | X-H torsion
[ 8008 7997 7996 7995 ] final   56.72 input   59.86 | X-H torsion
[ 10167 10162 10161 10158 ] final -111.81 input  -65.29 | X-H torsion
[ 10718 10713 10712 10709 ] final   70.40 input   66.30 | X-H torsion
[ 10763 10752 10751 10750 ] final -168.67 input  -60.55 | X-H torsion
[ 11005 11000 10999 10996 ] final  -93.64 input  -57.11 | X-H torsion

> <Gold.Protein.ActiveResidues>
 VAL166  LYS551  ARG553  GLY616  TRP617  ASP618  TYR619  PRO620  LYS621  CYS622 
 ASP623  PHE694  ASN695  SER759  ASP760  ASP761  ALA762  ILE779  LEU786  VAL792 
 PHE793  MET794  SER795  GLU796  ALA797  LYS798  CYS799  TRP800  GLU811  SER814 

> <Gold.Protein.RotatedAtoms>
  151.9425  135.0207  160.0536 H   0  0  0  0  0  0  0  0  0  0  0  0  # atno 6907 bound_to 6896
  152.2024  133.4846  159.5074 H   0  0  0  0  0  0  0  0  0  0  0  0  # atno 6908 bound_to 6896
  150.6957  134.1491  159.4176 H   0  0  0  0  0  0  0  0  0  0  0  0  # atno 6909 bound_to 6896
  146.1676  140.4478  142.8545 H   0  0  0  0  0  0  0  0  0  0  0  0  # atno 7974 bound_to 7965
  155.5220  140.3480  155.4409 H   0  0  0  0  0  0  0  0  0  0  0  0  # atno 8008 bound_to 7997
  156.0778  140.1379  156.9777 H   0  0  0  0  0  0  0  0  0  0  0  0  # atno 8009 bound_to 7997
  154.4563  140.0952  156.6741 H   0  0  0  0  0  0  0  0  0  0  0  0  # atno 8010 bound_to 7997
  140.1296  143.4372  152.1636 H   0  0  0  0  0  0  0  0  0  0  0  0  # atno 10167 bound_to 10162
  157.6398  130.9475  150.0646 H   0  0  0  0  0  0  0  0  0  0  0  0  # atno 10718 bound_to 10713
  154.6604  135.2924  154.9874 H   0  0  0  0  0  0  0  0  0  0  0  0  # atno 10763 bound_to 10752
  154.0936  135.6587  153.4860 H   0  0  0  0  0  0  0  0  0  0  0  0  # atno 10764 bound_to 10752
  153.0426  135.5226  154.7552 H   0  0  0  0  0  0  0  0  0  0  0  0  # atno 10765 bound_to 10752
  141.1492  133.7902  157.0188 H   0  0  0  0  0  0  0  0  0  0  0  0  # atno 11005 bound_to 11000
  144.8115  140.6394  143.6412 LP  0  0  0  0  0  0  0  0  0  0  0  0  # atno 17320 bound_to 7965
  145.4426  139.1533  143.3962 LP  0  0  0  0  0  0  0  0  0  0  0  0  # atno 17321 bound_to 7965
  139.5526  144.7349  151.4388 LP  0  0  0  0  0  0  0  0  0  0  0  0  # atno 17342 bound_to 10162
  140.6825  143.8050  150.7140 LP  0  0  0  0  0  0  0  0  0  0  0  0  # atno 17343 bound_to 10162
  156.1668  130.3645  149.9220 LP  0  0  0  0  0  0  0  0  0  0  0  0  # atno 17370 bound_to 10713
  156.7205  130.9005  151.3618 LP  0  0  0  0  0  0  0  0  0  0  0  0  # atno 17371 bound_to 10713
  140.0829  134.9637  157.1654 LP  0  0  0  0  0  0  0  0  0  0  0  0  # atno 17394 bound_to 11000
  140.3551  134.2555  155.7193 LP  0  0  0  0  0  0  0  0  0  0  0  0  # atno 17395 bound_to 11000

$$$$
