AV-unprocessed.smi:2845|AV-procd|sdf|10950|dock8
  -GOLD-   2272015403D 1   1.00000     0.00000
 Structure written by MMmdl.
 43 45  0  0  0  0  0  0  0  0  2 V2000
  152.2568  144.8593  160.3626 C   0  0  0  0  0  0  0  0  0  0  0  0
  152.0242  143.6993  159.4094 C   0  0  0  0  0  0  0  0  0  0  0  0
  151.2205  143.9155  158.2673 C   0  0  0  0  0  0  0  0  0  0  0  0
  151.0302  142.8366  157.4121 C   0  0  0  0  0  0  0  0  0  0  0  0
  150.3084  142.7305  156.2213 N   0  3  0  0  0  0  0  0  0  0  0  0
  150.4184  141.4635  155.7346 C   0  0  0  0  0  0  0  0  0  0  0  0
  151.1986  140.7580  156.5976 N   0  0  0  0  0  0  0  0  0  0  0  0
  151.6275  139.3529  156.5401 C   0  0  0  0  0  0  0  0  0  0  0  0
  152.0066  138.8990  155.1168 C   0  0  1  0  0  0  0  0  0  0  0  0
  153.1557  139.5980  154.6766 O   0  0  0  0  0  0  0  0  0  0  0  0
  152.2614  137.3810  155.0486 C   0  0  0  0  0  0  0  0  0  0  0  0
  151.0629  136.6040  155.3090 N   0  0  0  0  0  0  0  0  0  0  0  0
  149.9809  136.4001  154.5519 C   0  0  0  0  0  0  0  0  0  0  0  0
  149.0702  135.6150  155.1124 N   0  0  0  0  0  0  0  0  0  0  0  0
  149.7071  135.3595  156.2916 C   0  0  0  0  0  0  0  0  0  0  0  0
  148.9557  134.2974  157.5646 S   0  0  2  0  0  0  0  0  0  0  0  0
  147.2091  134.5199  156.9818 C   0  0  0  0  0  0  0  0  0  0  0  0
  149.0889  135.0617  158.8836 O   0  0  0  0  0  0  0  0  0  0  0  0
  150.8999  135.9243  156.4687 N   0  0  0  0  0  0  0  0  0  0  0  0
  151.6044  141.5746  157.6602 C   0  0  0  0  0  0  0  0  0  0  0  0
  152.3981  141.3450  158.7817 C   0  0  0  0  0  0  0  0  0  0  0  0
  152.6053  142.4299  159.6631 C   0  0  0  0  0  0  0  0  0  0  0  0
  153.4714  142.2090  160.8916 C   0  0  0  0  0  0  0  0  0  0  0  0
  151.7637  145.7674  160.0142 H   0  0  0  0  0  0  0  0  0  0  0  0
  153.3220  145.0732  160.4537 H   0  0  0  0  0  0  0  0  0  0  0  0
  151.8638  144.6259  161.3523 H   0  0  0  0  0  0  0  0  0  0  0  0
  150.7756  144.8793  158.0667 H   0  0  0  0  0  0  0  0  0  0  0  0
  149.9685  141.0868  154.8272 H   0  0  0  0  0  0  0  0  0  0  0  0
  152.4498  139.1978  157.2389 H   0  0  0  0  0  0  0  0  0  0  0  0
  150.7966  138.7512  156.9106 H   0  0  0  0  0  0  0  0  0  0  0  0
  151.1895  139.1498  154.4391 H   0  0  0  0  0  0  0  0  0  0  0  0
  153.6825  139.0120  154.1539 H   0  0  0  0  0  0  0  0  0  0  0  0
  152.6603  137.1014  154.0719 H   0  0  0  0  0  0  0  0  0  0  0  0
  153.0129  137.0946  155.7852 H   0  0  0  0  0  0  0  0  0  0  0  0
  149.8593  136.8325  153.5694 H   0  0  0  0  0  0  0  0  0  0  0  0
  147.1758  134.7183  155.9103 H   0  0  0  0  0  0  0  0  0  0  0  0
  146.7404  135.3541  157.5039 H   0  0  0  0  0  0  0  0  0  0  0  0
  146.6311  133.6177  157.1812 H   0  0  0  0  0  0  0  0  0  0  0  0
  152.8482  140.3818  158.9715 H   0  0  0  0  0  0  0  0  0  0  0  0
  153.7936  141.1702  160.9709 H   0  0  0  0  0  0  0  0  0  0  0  0
  152.9218  142.4555  161.8002 H   0  0  0  0  0  0  0  0  0  0  0  0
  154.3642  142.8330  160.8455 H   0  0  0  0  0  0  0  0  0  0  0  0
  149.7806  143.4673  155.7708 H   0  0  0  0  0  0  0  0  0  0  0  0
  1  2  1  0  0  0  0
  1 24  1  0  0  0  0
  1 25  1  0  0  0  0
  1 26  1  0  0  0  0
  2 22  1  0  0  0  0
  2  3  2  0  0  0  0
  3  4  1  0  0  0  0
  3 27  1  0  0  0  0
  4 20  2  0  0  0  0
  4  5  1  0  0  0  0
  5  6  2  0  0  0  0
  5 43  1  0  0  0  0
  6  7  1  0  0  0  0
  6 28  1  0  0  0  0
  7  8  1  0  0  0  0
  7 20  1  0  0  0  0
  8  9  1  0  0  0  0
  8 29  1  0  0  0  0
  8 30  1  0  0  0  0
  9 10  1  0  0  0  0
  9 11  1  0  0  0  0
  9 31  1  0  0  0  0
 10 32  1  0  0  0  0
 11 12  1  0  0  0  0
 11 33  1  0  0  0  0
 11 34  1  0  0  0  0
 12 19  1  0  0  0  0
 12 13  1  0  0  0  0
 13 14  2  0  0  0  0
 13 35  1  0  0  0  0
 14 15  1  0  0  0  0
 15 16  1  0  0  0  0
 15 19  2  0  0  0  0
 16 17  1  0  0  0  0
 16 18  2  0  0  0  0
 17 36  1  0  0  0  0
 17 37  1  0  0  0  0
 17 38  1  0  0  0  0
 20 21  1  0  0  0  0
 21 22  2  0  0  0  0
 21 39  1  0  0  0  0
 22 23  1  0  0  0  0
 23 40  1  0  0  0  0
 23 41  1  0  0  0  0
 23 42  1  0  0  0  0
M  CHG  1   5   1
M  END
> <s_m_source_file>
AV-unprocessed.smi

> <i_m_source_file_index>
2845

> <i_lp_mmshare_version>
43012

> <i_f3d_flags>
0

> <s_epik_input>
W0NIM11jKFtjSF0xKWMoW0NIM10pW2NIXWMoYzEyKW4oW2NIXW4yKVtDSDJdW0NASF0oW09IXSlbQ0gyXW4zW2NIXW5jKG4zKVtTQF0oPU8pW0NIM10=

> <s_epik_cmdline>
J2VwaWtfcHl0aG9uJywgJy1waCcsICc3LjAnLCAnLXRuJywgJzgnLCAnLW1hJywgJzIwMCcsICctbWV0YWxfYmluZGluZycsICctaW1hZScsICc8aW5maWxlLm1hZT4nLCAnLW9tYWUnLCAnPG91dGZpbGUubWFlPic=

> <r_lp_tautomer_probability>
1

> <r_epik_Ionization_Penalty>
1.12076

> <r_epik_Ionization_Penalty_Charging>
1.12075

> <r_epik_Ionization_Penalty_Neutral>
1.54566e-06

> <r_epik_State_Penalty>
1.17957

> <r_epik_Charging_Adjusted_Penalty>
2.30033

> <i_epik_Tot_Q>
1

> <i_epik_Tot_abs_Q>
1

> <r_epik_Metal_State_Penalty>
1.26402

> <b_epik_Metal_Only>
0

> <s_lp_Force_Field>
OPLS_2005

> <r_lp_Energy>
14.8832

> <b_lp_Chiralities_Consistent>
1

> <s_lp_Variant>
AV-unprocessed.smi:2845-8

> <Gold.Version>
5.8.1

> <Gold.Id.Protein>
6NUR|6NUR_protein|mol2

> <Gold.PLP.Fitness>
55.0220

> <Gold.PLP.PLP>
-40.9660

> <Gold.PLP.part.hbond>
-3.8575

> <Gold.PLP.part.metal>
0.0000

> <Gold.PLP.part.buried>
-1.9327

> <Gold.PLP.part.nonpolar>
-36.2719

> <Gold.PLP.part.repulsive>
0.2258

> <Gold.PLP.ligand.clash>
0.0000

> <Gold.PLP.ligand.torsion>
0.9866

> <Gold.PLP.Chemscore.Hbond>
4.0031

> <Gold.PLP.Chemscore.CHOScore>
1.0000

> <Gold.PLP.Chemscore.Metal>
0.0000

> <Gold.Chemscore.Hbonds>
donor molecule, donor type, donor heavy atom, donor atom, acceptor molecule, acceptor atom, score
      L1  H     5    43       P1  8028  2.00
      P1  H  6896  6908       L1    18  1.00
      P1  H  7989  7998       L1    10  0.03
      P1  H  7997  8010       L1    10  0.96
      L1  C    13    35       P1  7948  0.89

> <Gold.PLP.Chemscore.Internal.Correction>
1.0200

> <Gold.Rescore>
     Score         DG    S(hbond)    S(metal)    S(lipo)     H(rot)  DE(clash)    DE(int)     intcor
     16.42     -18.79       2.58        0.00     100.71       2.77       1.40       0.97       ----

> <Gold.Chemscore.Fitness>
16.4196

> <Gold.Chemscore.DG>
-18.7851

> <Gold.Chemscore.ZeroCoef>
-5.4800

> <Gold.Chemscore.Hbond>
2.5773

> <Gold.Chemscore.Metal>
0.0000

> <Gold.Chemscore.Lipo>
100.7117

> <Gold.Chemscore.Internal_Hbond>
0.0000

> <Gold.Chemscore.DEClash>
1.3987

> <Gold.Chemscore.DEInternal>
0.9668

> <Gold.Chemscore.Rot>
2.7681

> <Gold.Chemscore.Internal.Correction>
   9.000000E+99

> <Gold.Chemscore.Hbonds>
donor molecule, donor type, donor heavy atom, donor atom, acceptor molecule, acceptor atom, score
      L1  H     5    43       P1  8028  0.94
      P1  H  6896  6908       L1    18  0.55
      P1  H  7997  8010       L1    10  0.33

> <Gold.Chemscore.Hbond.Weighted>
-8.6081

> <Gold.Chemscore.Metal.Weighted>
-0.0000

> <Gold.Chemscore.Lipo.Weighted>
-11.7833

> <Gold.Chemscore.Internal_Hbond.Weighted>
0.0000

> <Gold.Chemscore.DEClash.Weighted>
1.3987

> <Gold.Chemscore.DEInternal.Weighted>
0.9668

> <Gold.Chemscore.Rot.Weighted>
7.0863

> <Gold.Chemscore.Internal.Correction.Weighted>
   9.000000E+99

> <Gold.Protein.RotatedTorsions>
[ 6907 6896 6895 6894 ] final  172.61 input  -60.11 | X-H torsion
[ 7974 7965 7964 7962 ] final  -93.92 input  175.53 | X-H torsion
[ 8008 7997 7996 7995 ] final   88.71 input   59.86 | X-H torsion
[ 10167 10162 10161 10158 ] final   -7.75 input  -65.29 | X-H torsion
[ 10718 10713 10712 10709 ] final   63.74 input   66.30 | X-H torsion
[ 10763 10752 10751 10750 ] final  172.62 input  -60.55 | X-H torsion
[ 11005 11000 10999 10996 ] final   91.07 input  -57.11 | X-H torsion

> <Gold.Protein.ActiveResidues>
 VAL166  LYS551  ARG553  GLY616  TRP617  ASP618  TYR619  PRO620  LYS621  CYS622 
 ASP623  PHE694  ASN695  SER759  ASP760  ASP761  ALA762  ILE779  LEU786  VAL792 
 PHE793  MET794  SER795  GLU796  ALA797  LYS798  CYS799  TRP800  GLU811  SER814 

> <Gold.Protein.RotatedAtoms>
  151.7815  133.3350  159.3472 H   0  0  0  0  0  0  0  0  0  0  0  0  # atno 6907 bound_to 6896
  150.7425  134.5927  159.6005 H   0  0  0  0  0  0  0  0  0  0  0  0  # atno 6908 bound_to 6896
  152.3273  134.7306  160.0350 H   0  0  0  0  0  0  0  0  0  0  0  0  # atno 6909 bound_to 6896
  145.3801  140.9516  143.2398 H   0  0  0  0  0  0  0  0  0  0  0  0  # atno 7974 bound_to 7965
  155.9911  140.3368  155.6754 H   0  0  0  0  0  0  0  0  0  0  0  0  # atno 8008 bound_to 7997
  155.6419  140.0696  157.2634 H   0  0  0  0  0  0  0  0  0  0  0  0  # atno 8009 bound_to 7997
  154.4220  140.1741  156.1569 H   0  0  0  0  0  0  0  0  0  0  0  0  # atno 8010 bound_to 7997
  140.7038  143.6046  150.8764 H   0  0  0  0  0  0  0  0  0  0  0  0  # atno 10167 bound_to 10162
  157.5992  130.9121  149.9754 H   0  0  0  0  0  0  0  0  0  0  0  0  # atno 10718 bound_to 10713
  154.4286  135.2759  155.1927 H   0  0  0  0  0  0  0  0  0  0  0  0  # atno 10763 bound_to 10752
  154.3843  135.6080  153.5811 H   0  0  0  0  0  0  0  0  0  0  0  0  # atno 10764 bound_to 10752
  152.9835  135.5888  154.4594 H   0  0  0  0  0  0  0  0  0  0  0  0  # atno 10765 bound_to 10752
  139.8845  134.8652  156.3376 H   0  0  0  0  0  0  0  0  0  0  0  0  # atno 11005 bound_to 11000
  144.8514  139.5316  143.6855 LP  0  0  0  0  0  0  0  0  0  0  0  0  # atno 17320 bound_to 7965
  146.2846  139.6969  142.9205 LP  0  0  0  0  0  0  0  0  0  0  0  0  # atno 17321 bound_to 7965
  139.9770  143.5993  152.2955 LP  0  0  0  0  0  0  0  0  0  0  0  0  # atno 17342 bound_to 10162
  139.6601  144.7662  151.1980 LP  0  0  0  0  0  0  0  0  0  0  0  0  # atno 17343 bound_to 10162
  156.1061  130.3652  150.0131 LP  0  0  0  0  0  0  0  0  0  0  0  0  # atno 17370 bound_to 10713
  156.8238  130.9368  151.3640 LP  0  0  0  0  0  0  0  0  0  0  0  0  # atno 17371 bound_to 10713
  140.9681  133.7345  156.0495 LP  0  0  0  0  0  0  0  0  0  0  0  0  # atno 17394 bound_to 11000
  140.7906  134.3622  157.5465 LP  0  0  0  0  0  0  0  0  0  0  0  0  # atno 17395 bound_to 11000

$$$$
