AV-unprocessed.smi:12|AV-procd|sdf|62|dock9
  -GOLD-   2262015183D 1   1.00000     0.00000
 Structure written by MMmdl.
 41 44  0  0  0  0  0  0  0  0  1 V2000
  148.3619  136.0807  160.4224 C   0  0  0  0  0  0  0  0  0  0  0  0
  148.5083  136.5313  158.9801 C   0  0  0  0  0  0  0  0  0  0  0  0
  148.2327  137.8011  158.5989 C   0  0  0  0  0  0  0  0  0  0  0  0
  148.3869  138.1564  157.2881 N   0  0  0  0  0  0  0  0  0  0  0  0
  148.8182  137.1971  156.3500 C   0  0  0  0  0  0  0  0  0  0  0  0
  149.1029  135.9642  156.6339 N   0  0  0  0  0  0  0  0  0  0  0  0
  148.9698  135.5445  157.9714 C   0  0  0  0  0  0  0  0  0  0  0  0
  149.2295  134.3852  158.2908 O   0  0  0  0  0  0  0  0  0  0  0  0
  148.8736  137.7814  155.1231 O   0  0  0  0  0  0  0  0  0  0  0  0
  148.4069  139.1403  155.1950 C   0  0  2  0  0  0  0  0  0  0  0  0
  149.4962  140.1459  154.8476 C   0  0  2  0  0  0  0  0  0  0  0  0
  150.2884  139.7177  153.7581 O   0  0  0  0  0  0  0  0  0  0  0  0
  150.2444  140.3054  156.1708 C   0  0  1  0  0  0  0  0  0  0  0  0
  151.0638  141.5967  156.2898 C   0  0  0  0  0  0  0  0  0  0  0  0
  151.1891  141.9534  157.6569 O   0  0  0  0  0  0  0  0  0  0  0  0
  152.1952  141.4501  158.3979 C   0  0  0  0  0  0  0  0  0  0  0  0
  152.8827  140.4877  158.0510 O   0  0  0  0  0  0  0  0  0  0  0  0
  152.3892  142.1807  159.6840 C   0  0  0  0  0  0  0  0  0  0  0  0
  153.2010  141.6075  160.6908 C   0  0  0  0  0  0  0  0  0  0  0  0
  153.4027  142.2733  161.9154 C   0  0  0  0  0  0  0  0  0  0  0  0
  152.7943  143.5203  162.1485 C   0  0  0  0  0  0  0  0  0  0  0  0
  151.9843  144.1010  161.1555 C   0  0  0  0  0  0  0  0  0  0  0  0
  151.7816  143.4370  159.9298 C   0  0  0  0  0  0  0  0  0  0  0  0
  149.1649  140.3361  157.1004 O   0  0  0  0  0  0  0  0  0  0  0  0
  148.1484  139.4689  156.6823 C   0  0  2  0  0  0  0  0  0  0  0  0
  148.0154  136.8948  161.0596 H   0  0  0  0  0  0  0  0  0  0  0  0
  149.3193  135.7320  160.8108 H   0  0  0  0  0  0  0  0  0  0  0  0
  147.6418  135.2654  160.4961 H   0  0  0  0  0  0  0  0  0  0  0  0
  147.8985  138.5377  159.3150 H   0  0  0  0  0  0  0  0  0  0  0  0
  147.5009  139.2705  154.6020 H   0  0  0  0  0  0  0  0  0  0  0  0
  149.0295  141.0960  154.5828 H   0  0  0  0  0  0  0  0  0  0  0  0
  149.7665  139.7619  152.9712 H   0  0  0  0  0  0  0  0  0  0  0  0
  150.8669  139.4330  156.3781 H   0  0  0  0  0  0  0  0  0  0  0  0
  152.0488  141.4648  155.8397 H   0  0  0  0  0  0  0  0  0  0  0  0
  150.5631  142.4036  155.7531 H   0  0  0  0  0  0  0  0  0  0  0  0
  153.6787  140.6510  160.5348 H   0  0  0  0  0  0  0  0  0  0  0  0
  154.0251  141.8263  162.6764 H   0  0  0  0  0  0  0  0  0  0  0  0
  152.9490  144.0304  163.0879 H   0  0  0  0  0  0  0  0  0  0  0  0
  151.5168  145.0582  161.3335 H   0  0  0  0  0  0  0  0  0  0  0  0
  151.1537  143.9116  159.1898 H   0  0  0  0  0  0  0  0  0  0  0  0
  147.1333  139.7579  156.9561 H   0  0  0  0  0  0  0  0  0  0  0  0
  1  2  1  0  0  0  0
  1 26  1  0  0  0  0
  1 27  1  0  0  0  0
  1 28  1  0  0  0  0
  2  7  1  0  0  0  0
  2  3  2  0  0  0  0
  3  4  1  0  0  0  0
  3 29  1  0  0  0  0
  4 25  1  0  0  0  0
  4  5  1  0  0  0  0
  5  6  2  0  0  0  0
  5  9  1  0  0  0  0
  6  7  1  0  0  0  0
  7  8  2  0  0  0  0
  9 10  1  0  0  0  0
 10 25  1  0  0  0  0
 10 11  1  0  0  0  0
 10 30  1  0  0  0  0
 11 12  1  0  0  0  0
 11 13  1  0  0  0  0
 11 31  1  0  0  0  0
 12 32  1  0  0  0  0
 13 14  1  0  0  0  0
 13 24  1  0  0  0  0
 13 33  1  0  0  0  0
 14 15  1  0  0  0  0
 14 34  1  0  0  0  0
 14 35  1  0  0  0  0
 15 16  1  0  0  0  0
 16 17  2  0  0  0  0
 16 18  1  0  0  0  0
 18 23  1  0  0  0  0
 18 19  2  0  0  0  0
 19 20  1  0  0  0  0
 19 36  1  0  0  0  0
 20 21  2  0  0  0  0
 20 37  1  0  0  0  0
 21 22  1  0  0  0  0
 21 38  1  0  0  0  0
 22 23  2  0  0  0  0
 22 39  1  0  0  0  0
 23 40  1  0  0  0  0
 24 25  1  0  0  0  0
 25 41  1  0  0  0  0
M  END
> <s_m_source_file>
AV-unprocessed.smi

> <i_m_source_file_index>
12

> <i_lp_mmshare_version>
43012

> <i_f3d_flags>
0

> <s_epik_input>
W0NIM11jKFtjSF0xKWMoPU8pbmMobjEyKU9bQ0BIXTNbQ0BASF0yT1tDQEBIXShbQ0BASF0zW09IXSlbQ0gyXU9DKD1PKWM0W2NIXVtjSF1bY0hdW2NIXVtjSF00

> <s_epik_cmdline>
J2VwaWtfcHl0aG9uJywgJy1waCcsICc3LjAnLCAnLXRuJywgJzgnLCAnLW1hJywgJzIwMCcsICctbWV0YWxfYmluZGluZycsICctaW1hZScsICc8aW5maWxlLm1hZT4nLCAnLW9tYWUnLCAnPG91dGZpbGUubWFlPic=

> <r_lp_tautomer_probability>
0.933681

> <r_epik_Ionization_Penalty>
0.00399549

> <r_epik_Ionization_Penalty_Charging>
3.09373e-09

> <r_epik_Ionization_Penalty_Neutral>
0.00399549

> <r_epik_State_Penalty>
0.00284953

> <r_epik_Charging_Adjusted_Penalty>
0.00284953

> <i_epik_Tot_Q>
0

> <i_epik_Tot_abs_Q>
0

> <r_epik_Metal_State_Penalty>
-0

> <b_epik_Metal_Only>
0

> <s_epik_Chemistry_Notes>
This compound has an ester and may undergo hydrolysis at high or low pH. This compound contains an acetal/aminal-like group ( X-CH(R)-Y where X, Y are N, S, or O) that may be acid/base labile, releasing an aldehyde.

> <s_lp_Force_Field>
OPLS_2005

> <r_lp_Energy>
46.3609

> <b_lp_Chiralities_Consistent>
1

> <s_lp_Variant>
AV-unprocessed.smi:12-2

> <Gold.Version>
5.8.1

> <Gold.Id.Protein>
6NUR|6NUR_protein|mol2

> <Gold.PLP.Fitness>
50.6216

> <Gold.PLP.PLP>
-40.6028

> <Gold.PLP.part.hbond>
-4.0000

> <Gold.PLP.part.metal>
0.0000

> <Gold.PLP.part.buried>
-4.1090

> <Gold.PLP.part.nonpolar>
-31.4474

> <Gold.PLP.part.repulsive>
0.1763

> <Gold.PLP.ligand.clash>
0.0000

> <Gold.PLP.ligand.torsion>
0.6763

> <Gold.PLP.Chemscore.Hbond>
3.7846

> <Gold.PLP.Chemscore.CHOScore>
0.0000

> <Gold.PLP.Chemscore.Metal>
0.0000

> <Gold.Chemscore.Hbonds>
donor molecule, donor type, donor heavy atom, donor atom, acceptor molecule, acceptor atom, score
      L1  H    12    32       P1  7957  1.00
      P1  H  6896  6909       L1     8  1.00
      P1  H  7989  7998       L1    12  0.93
      P1  H  7997  8010       L1    17  0.83

> <Gold.PLP.Chemscore.Internal.Correction>
0.0176

> <Gold.Rescore>
     Score         DG    S(hbond)    S(metal)    S(lipo)     H(rot)  DE(clash)    DE(int)     intcor
     21.23     -22.11       3.18        0.00      99.19       2.18       0.19       0.70       ----

> <Gold.Chemscore.Fitness>
21.2305

> <Gold.Chemscore.DG>
-22.1126

> <Gold.Chemscore.ZeroCoef>
-5.4800

> <Gold.Chemscore.Hbond>
3.1761

> <Gold.Chemscore.Metal>
0.0000

> <Gold.Chemscore.Lipo>
99.1910

> <Gold.Chemscore.Internal_Hbond>
0.0000

> <Gold.Chemscore.DEClash>
0.1868

> <Gold.Chemscore.DEInternal>
0.6953

> <Gold.Chemscore.Rot>
2.1800

> <Gold.Chemscore.Internal.Correction>
   9.000000E+99

> <Gold.Chemscore.Hbonds>
donor molecule, donor type, donor heavy atom, donor atom, acceptor molecule, acceptor atom, score
      L1  H    12    32       P1  7957  0.94
      P1  H  6896  6909       L1     8  0.98
      P1  H  7989  7998       L1    12  0.32
      P1  H  7997  8010       L1    17  0.77

> <Gold.Chemscore.Hbond.Weighted>
-10.6080

> <Gold.Chemscore.Metal.Weighted>
-0.0000

> <Gold.Chemscore.Lipo.Weighted>
-11.6054

> <Gold.Chemscore.Internal_Hbond.Weighted>
0.0000

> <Gold.Chemscore.DEClash.Weighted>
0.1868

> <Gold.Chemscore.DEInternal.Weighted>
0.6953

> <Gold.Chemscore.Rot.Weighted>
5.5807

> <Gold.Chemscore.Internal.Correction.Weighted>
   9.000000E+99

> <Gold.Protein.RotatedTorsions>
[ 6907 6896 6895 6894 ] final    8.35 input  -60.11 | X-H torsion
[ 7974 7965 7964 7962 ] final   99.28 input  175.53 | X-H torsion
[ 8008 7997 7996 7995 ] final   43.79 input   59.86 | X-H torsion
[ 10167 10162 10161 10158 ] final   11.39 input  -65.29 | X-H torsion
[ 10718 10713 10712 10709 ] final  132.00 input   66.30 | X-H torsion
[ 10763 10752 10751 10750 ] final -104.95 input  -60.55 | X-H torsion
[ 11005 11000 10999 10996 ] final  171.54 input  -57.11 | X-H torsion

> <Gold.Protein.ActiveResidues>
 VAL166  LYS551  ARG553  GLY616  TRP617  ASP618  TYR619  PRO620  LYS621  CYS622 
 ASP623  PHE694  ASN695  SER759  ASP760  ASP761  ALA762  ILE779  LEU786  VAL792 
 PHE793  MET794  SER795  GLU796  ALA797  LYS798  CYS799  TRP800  GLU811  SER814 

> <Gold.Protein.RotatedAtoms>
  151.7047  135.0924  160.0256 H   0  0  0  0  0  0  0  0  0  0  0  0  # atno 6907 bound_to 6896
  152.3699  133.6401  159.6087 H   0  0  0  0  0  0  0  0  0  0  0  0  # atno 6908 bound_to 6896
  150.7665  133.9204  159.3437 H   0  0  0  0  0  0  0  0  0  0  0  0  # atno 6909 bound_to 6896
  145.4009  139.2348  143.3300 H   0  0  0  0  0  0  0  0  0  0  0  0  # atno 7974 bound_to 7965
  155.3086  140.3389  155.4245 H   0  0  0  0  0  0  0  0  0  0  0  0  # atno 8008 bound_to 7997
  156.1966  140.1717  156.8023 H   0  0  0  0  0  0  0  0  0  0  0  0  # atno 8009 bound_to 7997
  154.5507  140.0706  156.8646 H   0  0  0  0  0  0  0  0  0  0  0  0  # atno 8010 bound_to 7997
  140.6134  143.8359  150.7091 H   0  0  0  0  0  0  0  0  0  0  0  0  # atno 10167 bound_to 10162
  157.4913  131.1090  150.9552 H   0  0  0  0  0  0  0  0  0  0  0  0  # atno 10718 bound_to 10713
  154.7913  135.4767  154.0060 H   0  0  0  0  0  0  0  0  0  0  0  0  # atno 10763 bound_to 10752
  153.1636  135.6813  153.8715 H   0  0  0  0  0  0  0  0  0  0  0  0  # atno 10764 bound_to 10752
  153.8320  135.3190  155.3397 H   0  0  0  0  0  0  0  0  0  0  0  0  # atno 10765 bound_to 10752
  140.3201  134.7445  157.4057 H   0  0  0  0  0  0  0  0  0  0  0  0  # atno 11005 bound_to 11000
  146.2752  140.4707  142.8798 LP  0  0  0  0  0  0  0  0  0  0  0  0  # atno 17320 bound_to 7965
  144.8374  140.6804  143.6251 LP  0  0  0  0  0  0  0  0  0  0  0  0  # atno 17321 bound_to 7965
  140.1932  143.4019  152.1847 LP  0  0  0  0  0  0  0  0  0  0  0  0  # atno 17342 bound_to 10162
  139.5379  144.7228  151.4830 LP  0  0  0  0  0  0  0  0  0  0  0  0  # atno 17343 bound_to 10162
  157.0253  130.5690  149.5336 LP  0  0  0  0  0  0  0  0  0  0  0  0  # atno 17370 bound_to 10713
  156.0175  130.5270  150.8179 LP  0  0  0  0  0  0  0  0  0  0  0  0  # atno 17371 bound_to 10713
  140.0949  134.5550  155.8408 LP  0  0  0  0  0  0  0  0  0  0  0  0  # atno 17394 bound_to 11000
  141.2088  133.6678  156.6399 LP  0  0  0  0  0  0  0  0  0  0  0  0  # atno 17395 bound_to 11000

$$$$
