AV-unprocessed.smi:2061|AV-procd|sdf|8379|dock4
  -GOLD-   2272011 53D 1   1.00000     0.00000
 Structure written by MMmdl.
 44 45  0  0  0  0  0  0  0  0  2 V2000
  160.5551  140.7898  164.5336 C   0  0  0  0  0  0  0  0  0  0  0  0
  159.7423  140.5055  163.3171 C   0  0  0  0  0  0  0  0  0  0  0  0
  159.2227  139.3540  162.7975 C   0  0  0  0  0  0  0  0  0  0  0  0
  158.5520  139.8001  161.6259 C   0  0  0  0  0  0  0  0  0  0  0  0
  157.8864  139.0251  160.7559 N   0  5  0  0  0  0  0  0  0  0  0  0
  156.9975  139.5744  159.8960 C   0  0  0  0  0  0  0  0  0  0  0  0
  156.9548  139.3943  158.6770 O   0  0  0  0  0  0  0  0  0  0  0  0
  156.1112  140.3888  160.4879 N   0  0  0  0  0  0  0  0  0  0  0  0
  155.0320  141.1263  159.8326 C   0  0  0  0  0  0  0  0  0  0  0  0
  153.6538  140.9399  160.5300 C   0  0  1  0  0  0  0  0  0  0  0  0
  153.8179  141.1884  162.0513 C   0  0  0  0  0  0  0  0  0  0  0  0
  152.5768  141.7650  159.9308 N   0  0  0  0  0  0  0  0  0  0  0  0
  152.4648  141.5749  158.4797 C   0  0  0  0  0  0  0  0  0  0  0  0
  151.3691  142.4386  157.8235 C   0  0  1  0  0  0  0  0  0  0  0  0
  149.9433  141.9402  158.1160 C   0  0  0  0  0  0  0  0  0  0  0  0
  151.5378  143.8090  158.1780 O   0  0  0  0  0  0  0  0  0  0  0  0
  151.6221  144.0543  159.5773 C   0  0  2  0  0  0  0  0  0  0  0  0
  151.8651  145.5535  159.7816 C   0  0  0  0  0  0  0  0  0  0  0  0
  152.7478  143.1984  160.1853 C   0  0  0  0  0  0  0  0  0  0  0  0
  158.6703  141.1041  161.4409 N   0  0  0  0  0  0  0  0  0  0  0  0
  159.4271  141.5652  162.5248 O   0  0  0  0  0  0  0  0  0  0  0  0
  161.5706  140.4124  164.4148 H   0  0  0  0  0  0  0  0  0  0  0  0
  160.1168  140.3124  165.4100 H   0  0  0  0  0  0  0  0  0  0  0  0
  160.6126  141.8612  164.7270 H   0  0  0  0  0  0  0  0  0  0  0  0
  159.3039  138.3527  163.1932 H   0  0  0  0  0  0  0  0  0  0  0  0
  156.1930  140.5034  161.4873 H   0  0  0  0  0  0  0  0  0  0  0  0
  155.2650  142.1881  159.7393 H   0  0  0  0  0  0  0  0  0  0  0  0
  155.0178  140.7279  158.8202 H   0  0  0  0  0  0  0  0  0  0  0  0
  153.3790  139.8910  160.4084 H   0  0  0  0  0  0  0  0  0  0  0  0
  154.6266  140.6009  162.4835 H   0  0  0  0  0  0  0  0  0  0  0  0
  152.9345  140.9026  162.6194 H   0  0  0  0  0  0  0  0  0  0  0  0
  154.0293  142.2379  162.2581 H   0  0  0  0  0  0  0  0  0  0  0  0
  153.4231  141.8054  158.0118 H   0  0  0  0  0  0  0  0  0  0  0  0
  152.2429  140.5372  158.2384 H   0  0  0  0  0  0  0  0  0  0  0  0
  151.5062  142.3862  156.7431 H   0  0  0  0  0  0  0  0  0  0  0  0
  149.7951  140.9366  157.7171 H   0  0  0  0  0  0  0  0  0  0  0  0
  149.2011  142.5919  157.6550 H   0  0  0  0  0  0  0  0  0  0  0  0
  149.7347  141.8979  159.1849 H   0  0  0  0  0  0  0  0  0  0  0  0
  150.6740  143.7959  160.0498 H   0  0  0  0  0  0  0  0  0  0  0  0
  151.9247  145.8007  160.8419 H   0  0  0  0  0  0  0  0  0  0  0  0
  151.0555  146.1418  159.3488 H   0  0  0  0  0  0  0  0  0  0  0  0
  152.7961  145.8705  159.3108 H   0  0  0  0  0  0  0  0  0  0  0  0
  152.7466  143.4015  161.2541 H   0  0  0  0  0  0  0  0  0  0  0  0
  153.7130  143.5291  159.7988 H   0  0  0  0  0  0  0  0  0  0  0  0
  1  2  1  0  0  0  0
  1 22  1  0  0  0  0
  1 23  1  0  0  0  0
  1 24  1  0  0  0  0
  2 21  1  0  0  0  0
  2  3  2  0  0  0  0
  3  4  1  0  0  0  0
  3 25  1  0  0  0  0
  4  5  1  0  0  0  0
  4 20  2  0  0  0  0
  5  6  1  0  0  0  0
  6  7  2  0  0  0  0
  6  8  1  0  0  0  0
  8  9  1  0  0  0  0
  8 26  1  0  0  0  0
  9 10  1  0  0  0  0
  9 27  1  0  0  0  0
  9 28  1  0  0  0  0
 10 11  1  0  0  0  0
 10 12  1  0  0  0  0
 10 29  1  0  0  0  0
 11 30  1  0  0  0  0
 11 31  1  0  0  0  0
 11 32  1  0  0  0  0
 12 19  1  0  0  0  0
 12 13  1  0  0  0  0
 13 14  1  0  0  0  0
 13 33  1  0  0  0  0
 13 34  1  0  0  0  0
 14 15  1  0  0  0  0
 14 16  1  0  0  0  0
 14 35  1  0  0  0  0
 15 36  1  0  0  0  0
 15 37  1  0  0  0  0
 15 38  1  0  0  0  0
 16 17  1  0  0  0  0
 17 18  1  0  0  0  0
 17 19  1  0  0  0  0
 17 39  1  0  0  0  0
 18 40  1  0  0  0  0
 18 41  1  0  0  0  0
 18 42  1  0  0  0  0
 19 43  1  0  0  0  0
 19 44  1  0  0  0  0
 20 21  1  0  0  0  0
M  CHG  1   5  -1
M  END
> <s_m_source_file>
AV-unprocessed.smi

> <i_m_source_file_index>
2061

> <i_lp_mmshare_version>
43012

> <i_f3d_flags>
0

> <s_epik_input>
W0NIM11jMVtjSF1jKG5vMSlbTkhdQyg9TylbTkhdW0NIMl1bQ0BIXShbQ0gzXSlOMltDSDJdW0NAQEhdKFtDSDNdKU9bQ0BASF0oW0NIM10pW0NIMl0y

> <s_epik_cmdline>
J2VwaWtfcHl0aG9uJywgJy1waCcsICc3LjAnLCAnLXRuJywgJzgnLCAnLW1hJywgJzIwMCcsICctbWV0YWxfYmluZGluZycsICctaW1hZScsICc8aW5maWxlLm1hZT4nLCAnLW9tYWUnLCAnPG91dGZpbGUubWFlPic=

> <r_epik_Ionization_Penalty>
6.88367

> <r_epik_Ionization_Penalty_Charging>
6.57198

> <r_epik_Ionization_Penalty_Neutral>
0.311681

> <r_epik_State_Penalty>
6.77619

> <r_epik_Charging_Adjusted_Penalty>
13.3482

> <i_epik_Tot_Q>
-1

> <i_epik_Tot_abs_Q>
1

> <r_epik_Metal_State_Penalty>
2.70524

> <b_epik_Metal_Only>
1

> <s_lp_Force_Field>
OPLS_2005

> <r_lp_Energy>
24.642

> <b_lp_Chiralities_Consistent>
1

> <s_lp_Variant>
AV-unprocessed.smi:2061-20

> <Gold.Version>
5.8.1

> <Gold.Id.Protein>
6NUR|6NUR_protein|mol2

> <Gold.PLP.Fitness>
36.1470

> <Gold.PLP.PLP>
-34.3221

> <Gold.PLP.part.hbond>
-4.0000

> <Gold.PLP.part.metal>
0.0000

> <Gold.PLP.part.buried>
-5.2478

> <Gold.PLP.part.nonpolar>
-24.8178

> <Gold.PLP.part.repulsive>
0.2976

> <Gold.PLP.ligand.clash>
0.0000

> <Gold.PLP.ligand.torsion>
0.6440

> <Gold.PLP.Chemscore.Hbond>
1.0000

> <Gold.PLP.Chemscore.CHOScore>
0.0000

> <Gold.PLP.Chemscore.Metal>
0.0000

> <Gold.Chemscore.Hbonds>
donor molecule, donor type, donor heavy atom, donor atom, acceptor molecule, acceptor atom, score
      P1  H  7997  8008       L1     7  1.00

> <Gold.PLP.Chemscore.Internal.Correction>
0.1128

> <Gold.Rescore>
     Score         DG    S(hbond)    S(metal)    S(lipo)     H(rot)  DE(clash)    DE(int)     intcor
     14.44     -15.35       1.00        0.00      89.03       1.52       0.02       0.89       ----

> <Gold.Chemscore.Fitness>
14.4399

> <Gold.Chemscore.DG>
-15.3479

> <Gold.Chemscore.ZeroCoef>
-5.4800

> <Gold.Chemscore.Hbond>
1.0000

> <Gold.Chemscore.Metal>
0.0000

> <Gold.Chemscore.Lipo>
89.0303

> <Gold.Chemscore.Internal_Hbond>
0.0000

> <Gold.Chemscore.DEClash>
0.0152

> <Gold.Chemscore.DEInternal>
0.8928

> <Gold.Chemscore.Rot>
1.5190

> <Gold.Chemscore.Internal.Correction>
   9.000000E+99

> <Gold.Chemscore.Hbonds>
donor molecule, donor type, donor heavy atom, donor atom, acceptor molecule, acceptor atom, score
      P1  H  7997  8008       L1     7  1.00

> <Gold.Chemscore.Hbond.Weighted>
-3.3400

> <Gold.Chemscore.Metal.Weighted>
-0.0000

> <Gold.Chemscore.Lipo.Weighted>
-10.4165

> <Gold.Chemscore.Internal_Hbond.Weighted>
0.0000

> <Gold.Chemscore.DEClash.Weighted>
0.0152

> <Gold.Chemscore.DEInternal.Weighted>
0.8928

> <Gold.Chemscore.Rot.Weighted>
3.8886

> <Gold.Chemscore.Internal.Correction.Weighted>
   9.000000E+99

> <Gold.Protein.RotatedTorsions>
[ 6907 6896 6895 6894 ] final  140.21 input  -60.11 | X-H torsion
[ 7974 7965 7964 7962 ] final    5.38 input  175.53 | X-H torsion
[ 8008 7997 7996 7995 ] final -165.49 input   59.86 | X-H torsion
[ 10167 10162 10161 10158 ] final   40.46 input  -65.29 | X-H torsion
[ 10718 10713 10712 10709 ] final    0.19 input   66.30 | X-H torsion
[ 10763 10752 10751 10750 ] final -175.07 input  -60.55 | X-H torsion
[ 11005 11000 10999 10996 ] final  -23.94 input  -57.11 | X-H torsion

> <Gold.Protein.ActiveResidues>
 VAL166  LYS551  ARG553  GLY616  TRP617  ASP618  TYR619  PRO620  LYS621  CYS622 
 ASP623  PHE694  ASN695  SER759  ASP760  ASP761  ALA762  ILE779  LEU786  VAL792 
 PHE793  MET794  SER795  GLU796  ALA797  LYS798  CYS799  TRP800  GLU811  SER814 

> <Gold.Protein.RotatedAtoms>
  152.2457  133.5173  159.5295 H   0  0  0  0  0  0  0  0  0  0  0  0  # atno 6907 bound_to 6896
  150.7078  134.1028  159.3981 H   0  0  0  0  0  0  0  0  0  0  0  0  # atno 6908 bound_to 6896
  151.8948  135.0402  160.0552 H   0  0  0  0  0  0  0  0  0  0  0  0  # atno 6909 bound_to 6896
  146.2441  140.0393  142.8383 H   0  0  0  0  0  0  0  0  0  0  0  0  # atno 7974 bound_to 7965
  155.8505  140.0962  157.1678 H   0  0  0  0  0  0  0  0  0  0  0  0  # atno 8008 bound_to 7997
  154.3985  140.1384  156.3900 H   0  0  0  0  0  0  0  0  0  0  0  0  # atno 8009 bound_to 7997
  155.7966  140.3454  155.5382 H   0  0  0  0  0  0  0  0  0  0  0  0  # atno 8010 bound_to 7997
  140.3739  144.2068  150.6132 H   0  0  0  0  0  0  0  0  0  0  0  0  # atno 10167 bound_to 10162
  156.8297  130.5484  149.5688 H   0  0  0  0  0  0  0  0  0  0  0  0  # atno 10718 bound_to 10713
  154.5888  135.2843  155.0657 H   0  0  0  0  0  0  0  0  0  0  0  0  # atno 10763 bound_to 10752
  154.1965  135.6432  153.5078 H   0  0  0  0  0  0  0  0  0  0  0  0  # atno 10764 bound_to 10752
  153.0114  135.5459  154.6567 H   0  0  0  0  0  0  0  0  0  0  0  0  # atno 10765 bound_to 10752
  140.8798  133.7661  156.0288 H   0  0  0  0  0  0  0  0  0  0  0  0  # atno 11005 bound_to 11000
  145.1084  140.9389  143.4671 LP  0  0  0  0  0  0  0  0  0  0  0  0  # atno 17320 bound_to 7965
  145.0601  139.3112  143.5884 LP  0  0  0  0  0  0  0  0  0  0  0  0  # atno 17321 bound_to 7965
  140.5005  143.2319  151.8685 LP  0  0  0  0  0  0  0  0  0  0  0  0  # atno 17342 bound_to 10162
  139.4801  144.5064  151.8991 LP  0  0  0  0  0  0  0  0  0  0  0  0  # atno 17343 bound_to 10162
  156.0941  130.5918  150.9783 LP  0  0  0  0  0  0  0  0  0  0  0  0  # atno 17370 bound_to 10713
  157.6413  131.0910  150.8245 LP  0  0  0  0  0  0  0  0  0  0  0  0  # atno 17371 bound_to 10713
  140.8474  134.2994  157.5289 LP  0  0  0  0  0  0  0  0  0  0  0  0  # atno 17394 bound_to 11000
  139.8719  134.9449  156.3895 LP  0  0  0  0  0  0  0  0  0  0  0  0  # atno 17395 bound_to 11000

$$$$
