AV-unprocessed.smi:2136|AV-procd|sdf|8705|dock3
  -GOLD-   2272011463D 1   1.00000     0.00000
 Structure written by MMmdl.
 43 44  0  0  0  0  0  0  0  0  2 V2000
  149.9999  141.0258  156.4300 C   0  0  0  0  0  0  0  0  0  0  0  0
  151.5238  140.3334  157.1950 S   0  0  0  0  0  0  0  0  0  0  0  0
  151.1251  139.2460  158.1010 O   0  0  0  0  0  0  0  0  0  0  0  0
  152.4855  140.0478  156.1192 O   0  0  0  0  0  0  0  0  0  0  0  0
  152.1444  141.6844  158.1273 N   0  0  0  0  0  0  0  0  0  0  0  0
  151.3487  142.9300  157.9910 C   0  0  0  0  0  0  0  0  0  0  0  0
  152.0336  144.1610  158.5962 C   0  0  0  0  0  0  0  0  0  0  0  0
  152.3788  143.9158  160.0594 C   0  0  0  0  0  0  0  0  0  0  0  0
  153.3176  142.7161  160.1272 C   0  0  0  0  0  0  0  0  0  0  0  0
  152.7034  141.4410  159.4982 C   0  0  2  0  0  0  0  0  0  0  0  0
  153.7425  140.3173  159.6271 C   0  0  0  0  0  0  0  0  0  0  0  0
  154.8787  140.5754  160.0240 O   0  0  0  0  0  0  0  0  0  0  0  0
  153.3445  139.0792  159.2910 N   0  0  0  0  0  0  0  0  0  0  0  0
  154.1718  137.8830  159.3790 C   0  0  0  0  0  0  0  0  0  0  0  0
  153.5794  136.8534  160.3550 C   0  0  0  0  0  0  0  0  0  0  0  0
  154.1209  137.0238  161.7607 C   0  0  0  0  0  0  0  0  0  0  0  0
  155.0622  138.0353  162.0542 C   0  0  0  0  0  0  0  0  0  0  0  0
  155.5488  138.1651  163.3718 C   0  0  0  0  0  0  0  0  0  0  0  0
  155.0843  137.2793  164.3657 C   0  0  0  0  0  0  0  0  0  0  0  0
  154.1845  136.3228  164.0468 N   0  3  0  0  0  0  0  0  0  0  0  0
  153.6936  136.1664  162.7978 C   0  0  0  0  0  0  0  0  0  0  0  0
  149.5453  140.2705  155.7894 H   0  0  0  0  0  0  0  0  0  0  0  0
  150.2504  141.9003  155.8310 H   0  0  0  0  0  0  0  0  0  0  0  0
  149.2917  141.3059  157.2091 H   0  0  0  0  0  0  0  0  0  0  0  0
  151.1543  143.1298  156.9377 H   0  0  0  0  0  0  0  0  0  0  0  0
  150.3784  142.7807  158.4652 H   0  0  0  0  0  0  0  0  0  0  0  0
  152.9364  144.3999  158.0321 H   0  0  0  0  0  0  0  0  0  0  0  0
  151.3771  145.0273  158.5108 H   0  0  0  0  0  0  0  0  0  0  0  0
  152.8574  144.7958  160.4897 H   0  0  0  0  0  0  0  0  0  0  0  0
  151.4747  143.7268  160.6396 H   0  0  0  0  0  0  0  0  0  0  0  0
  154.2501  142.9737  159.6218 H   0  0  0  0  0  0  0  0  0  0  0  0
  153.5810  142.5291  161.1695 H   0  0  0  0  0  0  0  0  0  0  0  0
  151.8587  141.1554  160.1269 H   0  0  0  0  0  0  0  0  0  0  0  0
  152.3903  138.9569  158.9831 H   0  0  0  0  0  0  0  0  0  0  0  0
  154.2940  137.4466  158.3860 H   0  0  0  0  0  0  0  0  0  0  0  0
  155.1664  138.1825  159.7106 H   0  0  0  0  0  0  0  0  0  0  0  0
  152.4919  136.9385  160.3748 H   0  0  0  0  0  0  0  0  0  0  0  0
  153.8012  135.8396  160.0190 H   0  0  0  0  0  0  0  0  0  0  0  0
  155.4094  138.7039  161.2799 H   0  0  0  0  0  0  0  0  0  0  0  0
  156.2686  138.9326  163.6156 H   0  0  0  0  0  0  0  0  0  0  0  0
  155.4028  137.3061  165.3976 H   0  0  0  0  0  0  0  0  0  0  0  0
  152.9809  135.3648  162.6665 H   0  0  0  0  0  0  0  0  0  0  0  0
  153.8624  135.6908  164.7804 H   0  0  0  0  0  0  0  0  0  0  0  0
  1  2  1  0  0  0  0
  1 22  1  0  0  0  0
  1 23  1  0  0  0  0
  1 24  1  0  0  0  0
  2  3  2  0  0  0  0
  2  4  2  0  0  0  0
  2  5  1  0  0  0  0
  5 10  1  0  0  0  0
  5  6  1  0  0  0  0
  6  7  1  0  0  0  0
  6 25  1  0  0  0  0
  6 26  1  0  0  0  0
  7  8  1  0  0  0  0
  7 27  1  0  0  0  0
  7 28  1  0  0  0  0
  8  9  1  0  0  0  0
  8 29  1  0  0  0  0
  8 30  1  0  0  0  0
  9 10  1  0  0  0  0
  9 31  1  0  0  0  0
  9 32  1  0  0  0  0
 10 11  1  0  0  0  0
 10 33  1  0  0  0  0
 11 12  2  0  0  0  0
 11 13  1  0  0  0  0
 13 14  1  0  0  0  0
 13 34  1  0  0  0  0
 14 15  1  0  0  0  0
 14 35  1  0  0  0  0
 14 36  1  0  0  0  0
 15 16  1  0  0  0  0
 15 37  1  0  0  0  0
 15 38  1  0  0  0  0
 16 21  1  0  0  0  0
 16 17  2  0  0  0  0
 17 18  1  0  0  0  0
 17 39  1  0  0  0  0
 18 19  2  0  0  0  0
 18 40  1  0  0  0  0
 19 20  1  0  0  0  0
 19 41  1  0  0  0  0
 20 21  2  0  0  0  0
 20 43  1  0  0  0  0
 21 42  1  0  0  0  0
M  CHG  1  20   1
M  END
> <s_m_source_file>
AV-unprocessed.smi

> <i_m_source_file_index>
2136

> <i_lp_mmshare_version>
43012

> <i_f3d_flags>
0

> <s_epik_input>
W0NIM11TKD1PKSg9TylOMVtDSDJdW0NIMl1bQ0gyXVtDSDJdW0NASF0xQyg9TylbTkhdW0NIMl1bQ0gyXWMyW2NIXVtjSF1bY0hdbltjSF0y

> <s_epik_cmdline>
J2VwaWtfcHl0aG9uJywgJy1waCcsICc3LjAnLCAnLXRuJywgJzgnLCAnLW1hJywgJzIwMCcsICctbWV0YWxfYmluZGluZycsICctaW1hZScsICc8aW5maWxlLm1hZT4nLCAnLW9tYWUnLCAnPG91dGZpbGUubWFlPic=

> <r_epik_Ionization_Penalty>
2.2835

> <r_epik_Ionization_Penalty_Charging>
2.2835

> <r_epik_Ionization_Penalty_Neutral>
1.35461e-07

> <r_epik_State_Penalty>
2.43297

> <r_epik_Charging_Adjusted_Penalty>
4.71647

> <i_epik_Tot_Q>
1

> <i_epik_Tot_abs_Q>
1

> <r_epik_Metal_State_Penalty>
2.44557

> <b_epik_Metal_Only>
0

> <s_lp_Force_Field>
OPLS_2005

> <r_lp_Energy>
10.903

> <b_lp_Chiralities_Consistent>
1

> <s_lp_Variant>
AV-unprocessed.smi:2136-4

> <Gold.Version>
5.8.1

> <Gold.Id.Protein>
6NUR|6NUR_protein|mol2

> <Gold.PLP.Fitness>
45.7141

> <Gold.PLP.PLP>
-43.3373

> <Gold.PLP.part.hbond>
-2.0047

> <Gold.PLP.part.metal>
0.0000

> <Gold.PLP.part.buried>
-7.1772

> <Gold.PLP.part.nonpolar>
-34.3341

> <Gold.PLP.part.repulsive>
0.2597

> <Gold.PLP.ligand.clash>
0.0000

> <Gold.PLP.ligand.torsion>
0.6885

> <Gold.PLP.Chemscore.Hbond>
1.0000

> <Gold.PLP.Chemscore.CHOScore>
0.0000

> <Gold.PLP.Chemscore.Metal>
0.0000

> <Gold.Chemscore.Hbonds>
donor molecule, donor type, donor heavy atom, donor atom, acceptor molecule, acceptor atom, score
      P1  H  7997  8010       L1     4  1.00

> <Gold.PLP.Chemscore.Internal.Correction>
0.7538

> <Gold.Rescore>
     Score         DG    S(hbond)    S(metal)    S(lipo)     H(rot)  DE(clash)    DE(int)     intcor
     14.97     -16.56       0.98        0.00     109.22       1.95       0.18       1.41       ----

> <Gold.Chemscore.Fitness>
14.9681

> <Gold.Chemscore.DG>
-16.5594

> <Gold.Chemscore.ZeroCoef>
-5.4800

> <Gold.Chemscore.Hbond>
0.9833

> <Gold.Chemscore.Metal>
0.0000

> <Gold.Chemscore.Lipo>
109.2157

> <Gold.Chemscore.Internal_Hbond>
0.0000

> <Gold.Chemscore.DEClash>
0.1790

> <Gold.Chemscore.DEInternal>
1.4123

> <Gold.Chemscore.Rot>
1.9466

> <Gold.Chemscore.Internal.Correction>
   9.000000E+99

> <Gold.Chemscore.Hbonds>
donor molecule, donor type, donor heavy atom, donor atom, acceptor molecule, acceptor atom, score
      P1  H  7997  8010       L1     4  1.00

> <Gold.Chemscore.Hbond.Weighted>
-3.2844

> <Gold.Chemscore.Metal.Weighted>
-0.0000

> <Gold.Chemscore.Lipo.Weighted>
-12.7782

> <Gold.Chemscore.Internal_Hbond.Weighted>
0.0000

> <Gold.Chemscore.DEClash.Weighted>
0.1790

> <Gold.Chemscore.DEInternal.Weighted>
1.4123

> <Gold.Chemscore.Rot.Weighted>
4.9832

> <Gold.Chemscore.Internal.Correction.Weighted>
   9.000000E+99

> <Gold.Protein.RotatedTorsions>
[ 6907 6896 6895 6894 ] final   10.21 input  -60.11 | X-H torsion
[ 7974 7965 7964 7962 ] final  -32.24 input  175.53 | X-H torsion
[ 8008 7997 7996 7995 ] final   83.31 input   59.86 | X-H torsion
[ 10167 10162 10161 10158 ] final  167.58 input  -65.29 | X-H torsion
[ 10718 10713 10712 10709 ] final  138.15 input   66.30 | X-H torsion
[ 10763 10752 10751 10750 ] final  -71.85 input  -60.55 | X-H torsion
[ 11005 11000 10999 10996 ] final   82.00 input  -57.11 | X-H torsion

> <Gold.Protein.ActiveResidues>
 VAL166  LYS551  ARG553  GLY616  TRP617  ASP618  TYR619  PRO620  LYS621  CYS622 
 ASP623  PHE694  ASN695  SER759  ASP760  ASP761  ALA762  ILE779  LEU786  VAL792 
 PHE793  MET794  SER795  GLU796  ALA797  LYS798  CYS799  TRP800  GLU811  SER814 

> <Gold.Protein.RotatedAtoms>
  151.7346  135.0867  160.0305 H   0  0  0  0  0  0  0  0  0  0  0  0  # atno 6907 bound_to 6896
  152.3519  133.6185  159.5959 H   0  0  0  0  0  0  0  0  0  0  0  0  # atno 6908 bound_to 6896
  150.7545  133.9477  159.3517 H   0  0  0  0  0  0  0  0  0  0  0  0  # atno 6909 bound_to 6896
  146.1005  140.5768  142.8823 H   0  0  0  0  0  0  0  0  0  0  0  0  # atno 7974 bound_to 7965
  155.9222  140.3420  155.6182 H   0  0  0  0  0  0  0  0  0  0  0  0  # atno 8008 bound_to 7997
  155.7260  140.0789  157.2328 H   0  0  0  0  0  0  0  0  0  0  0  0  # atno 8009 bound_to 7997
  154.4071  140.1597  156.2442 H   0  0  0  0  0  0  0  0  0  0  0  0  # atno 8010 bound_to 7997
  139.4948  144.3906  151.9521 H   0  0  0  0  0  0  0  0  0  0  0  0  # atno 10167 bound_to 10162
  157.4284  131.1046  151.0277 H   0  0  0  0  0  0  0  0  0  0  0  0  # atno 10718 bound_to 10713
  154.4376  135.5949  153.6108 H   0  0  0  0  0  0  0  0  0  0  0  0  # atno 10763 bound_to 10752
  152.9803  135.5990  154.3762 H   0  0  0  0  0  0  0  0  0  0  0  0  # atno 10764 bound_to 10752
  154.3608  135.2841  155.2299 H   0  0  0  0  0  0  0  0  0  0  0  0  # atno 10765 bound_to 10752
  139.9078  134.8039  156.2116 H   0  0  0  0  0  0  0  0  0  0  0  0  # atno 11005 bound_to 11000
  144.7429  140.4990  143.6856 LP  0  0  0  0  0  0  0  0  0  0  0  0  # atno 17320 bound_to 7965
  145.5864  139.1492  143.3207 LP  0  0  0  0  0  0  0  0  0  0  0  0  # atno 17321 bound_to 7965
  140.3344  144.3278  150.5980 LP  0  0  0  0  0  0  0  0  0  0  0  0  # atno 17342 bound_to 10162
  140.5618  143.2191  151.7751 LP  0  0  0  0  0  0  0  0  0  0  0  0  # atno 17343 bound_to 10162
  157.1182  130.6050  149.5498 LP  0  0  0  0  0  0  0  0  0  0  0  0  # atno 17370 bound_to 10713
  155.9904  130.4955  150.7257 LP  0  0  0  0  0  0  0  0  0  0  0  0  # atno 17371 bound_to 10713
  141.0462  133.6912  156.1687 LP  0  0  0  0  0  0  0  0  0  0  0  0  # atno 17394 bound_to 11000
  140.6881  134.4695  157.5589 LP  0  0  0  0  0  0  0  0  0  0  0  0  # atno 17395 bound_to 11000

$$$$
