AV-unprocessed.smi:2784|AV-procd|sdf|10735|dock10
  -GOLD-   2272015173D 1   1.00000     0.00000
 Structure written by MMmdl.
 31 32  0  0  0  0  0  0  0  0  1 V2000
  151.3394  145.3374  159.5122 C   0  0  0  0  0  0  0  0  0  0  0  0
  151.1173  144.1347  158.7940 O   0  0  0  0  0  0  0  0  0  0  0  0
  152.3148  143.4528  158.4303 C   0  0  1  0  0  0  0  0  0  0  0  0
  153.1070  143.2397  159.7215 C   0  0  0  0  0  0  0  0  0  0  0  0
  152.4932  141.9859  160.3374 C   0  0  0  0  0  0  0  0  0  0  0  0
  152.1693  141.0888  159.1405 C   0  0  0  0  0  0  0  0  0  0  0  0
  152.0157  142.0218  157.9229 C   0  0  1  0  0  0  0  0  0  0  0  0
  150.6868  141.8899  157.3277 N   0  0  0  0  0  0  0  0  0  0  0  0
  150.4062  141.2609  156.1770 C   0  0  0  0  0  0  0  0  0  0  0  0
  151.2901  140.7197  155.5052 O   0  0  0  0  0  0  0  0  0  0  0  0
  149.0468  141.3452  155.9104 N   0  0  0  0  0  0  0  0  0  0  0  0
  148.5312  140.6660  154.9318 C   0  0  0  0  0  0  0  0  0  0  0  0
  149.0716  139.7865  153.9973 N   0  0  0  0  0  0  0  0  0  0  0  0
  148.0610  139.3516  153.1865 C   0  0  0  0  0  0  0  0  0  0  0  0
  146.9333  139.9301  153.5877 C   0  0  0  0  0  0  0  0  0  0  0  0
  147.1895  140.7397  154.6534 O   0  0  0  0  0  0  0  0  0  0  0  0
  150.3850  145.8201  159.7221 H   0  0  0  0  0  0  0  0  0  0  0  0
  151.9519  146.0358  158.9416 H   0  0  0  0  0  0  0  0  0  0  0  0
  151.8324  145.1374  160.4643 H   0  0  0  0  0  0  0  0  0  0  0  0
  152.9023  144.0222  157.7071 H   0  0  0  0  0  0  0  0  0  0  0  0
  154.1541  143.0511  159.4812 H   0  0  0  0  0  0  0  0  0  0  0  0
  153.0712  144.1008  160.3899 H   0  0  0  0  0  0  0  0  0  0  0  0
  153.1550  141.5036  161.0569 H   0  0  0  0  0  0  0  0  0  0  0  0
  151.5717  142.2490  160.8584 H   0  0  0  0  0  0  0  0  0  0  0  0
  152.9941  140.3971  158.9657 H   0  0  0  0  0  0  0  0  0  0  0  0
  151.2818  140.4836  159.3317 H   0  0  0  0  0  0  0  0  0  0  0  0
  152.7770  141.7378  157.1938 H   0  0  0  0  0  0  0  0  0  0  0  0
  149.9226  142.3237  157.8252 H   0  0  0  0  0  0  0  0  0  0  0  0
  150.0327  139.4906  153.9018 H   0  0  0  0  0  0  0  0  0  0  0  0
  148.2630  138.6544  152.3867 H   0  0  0  0  0  0  0  0  0  0  0  0
  145.9135  139.8715  153.2370 H   0  0  0  0  0  0  0  0  0  0  0  0
  1  2  1  0  0  0  0
  1 17  1  0  0  0  0
  1 18  1  0  0  0  0
  1 19  1  0  0  0  0
  2  3  1  0  0  0  0
  3  7  1  0  0  0  0
  3  4  1  0  0  0  0
  3 20  1  0  0  0  0
  4  5  1  0  0  0  0
  4 21  1  0  0  0  0
  4 22  1  0  0  0  0
  5  6  1  0  0  0  0
  5 23  1  0  0  0  0
  5 24  1  0  0  0  0
  6  7  1  0  0  0  0
  6 25  1  0  0  0  0
  6 26  1  0  0  0  0
  7  8  1  0  0  0  0
  7 27  1  0  0  0  0
  8 28  1  0  0  0  0
  8  9  1  0  0  0  0
  9 11  1  0  0  0  0
  9 10  2  0  0  0  0
 11 12  2  0  0  0  0
 12 16  1  0  0  0  0
 12 13  1  0  0  0  0
 13 29  1  0  0  0  0
 13 14  1  0  0  0  0
 14 30  1  0  0  0  0
 14 15  2  0  0  0  0
 15 31  1  0  0  0  0
 15 16  1  0  0  0  0
M  END
> <s_m_source_file>
AV-unprocessed.smi

> <i_m_source_file_index>
2784

> <i_lp_mmshare_version>
43012

> <i_f3d_flags>
0

> <s_epik_input>
W0NIM11PW0NAQEhdMVtDSDJdW0NIMl1bQ0gyXVtDQEhdMVtOSF1DKD1PKVtOSF1jMm5bY0hdW2NIXW8y

> <s_epik_cmdline>
J2VwaWtfcHl0aG9uJywgJy1waCcsICc3LjAnLCAnLXRuJywgJzgnLCAnLW1hJywgJzIwMCcsICctbWV0YWxfYmluZGluZycsICctaW1hZScsICc8aW5maWxlLm1hZT4nLCAnLW9tYWUnLCAnPG91dGZpbGUubWFlPic=

> <r_lp_tautomer_probability>
0.107061

> <r_epik_Ionization_Penalty>
1.29244

> <r_epik_Ionization_Penalty_Charging>
1.29208

> <r_epik_Ionization_Penalty_Neutral>
0.000359742

> <r_epik_State_Penalty>
2.59896

> <r_epik_Charging_Adjusted_Penalty>
3.89105

> <i_epik_Tot_Q>
0

> <i_epik_Tot_abs_Q>
0

> <r_epik_Metal_State_Penalty>
3.62496

> <b_epik_Metal_Only>
0

> <s_lp_Force_Field>
OPLS_2005

> <r_lp_Energy>
46.0915

> <b_lp_Chiralities_Consistent>
1

> <s_lp_Variant>
AV-unprocessed.smi:2784-10

> <Gold.Version>
5.8.1

> <Gold.Id.Protein>
6NUR|6NUR_protein|mol2

> <Gold.PLP.Fitness>
35.9700

> <Gold.PLP.PLP>
-27.0380

> <Gold.PLP.part.hbond>
-2.0000

> <Gold.PLP.part.metal>
0.0000

> <Gold.PLP.part.buried>
-2.2934

> <Gold.PLP.part.nonpolar>
-23.5836

> <Gold.PLP.part.repulsive>
0.4786

> <Gold.PLP.ligand.clash>
0.0000

> <Gold.PLP.ligand.torsion>
0.2361

> <Gold.PLP.Chemscore.Hbond>
0.7771

> <Gold.PLP.Chemscore.CHOScore>
2.3535

> <Gold.PLP.Chemscore.Metal>
0.0000

> <Gold.Chemscore.Hbonds>
donor molecule, donor type, donor heavy atom, donor atom, acceptor molecule, acceptor atom, score
      P1  H  7989  7998       L1    10  0.77
      L1  C    14    30       P1  7948  0.97
      L1  C    14    30       P1  7957  0.36
      L1  C    15    31       P1 10175  1.00

> <Gold.PLP.Chemscore.Internal.Correction>
0.0122

> <Gold.Rescore>
     Score         DG    S(hbond)    S(metal)    S(lipo)     H(rot)  DE(clash)    DE(int)     intcor
     13.16     -13.60       0.87        0.00      73.46       1.32       0.17       0.27       ----

> <Gold.Chemscore.Fitness>
13.1578

> <Gold.Chemscore.DG>
-13.5968

> <Gold.Chemscore.ZeroCoef>
-5.4800

> <Gold.Chemscore.Hbond>
0.8713

> <Gold.Chemscore.Metal>
0.0000

> <Gold.Chemscore.Lipo>
73.4601

> <Gold.Chemscore.Internal_Hbond>
0.0000

> <Gold.Chemscore.DEClash>
0.1707

> <Gold.Chemscore.DEInternal>
0.2682

> <Gold.Chemscore.Rot>
1.3235

> <Gold.Chemscore.Internal.Correction>
   9.000000E+99

> <Gold.Chemscore.Hbonds>
donor molecule, donor type, donor heavy atom, donor atom, acceptor molecule, acceptor atom, score
      P1  H  7989  7998       L1    10  0.73

> <Gold.Chemscore.Hbond.Weighted>
-2.9101

> <Gold.Chemscore.Metal.Weighted>
-0.0000

> <Gold.Chemscore.Lipo.Weighted>
-8.5948

> <Gold.Chemscore.Internal_Hbond.Weighted>
0.0000

> <Gold.Chemscore.DEClash.Weighted>
0.1707

> <Gold.Chemscore.DEInternal.Weighted>
0.2682

> <Gold.Chemscore.Rot.Weighted>
3.3882

> <Gold.Chemscore.Internal.Correction.Weighted>
   9.000000E+99

> <Gold.Protein.RotatedTorsions>
[ 6907 6896 6895 6894 ] final    7.84 input  -60.11 | X-H torsion
[ 7974 7965 7964 7962 ] final  -98.96 input  175.53 | X-H torsion
[ 8008 7997 7996 7995 ] final -100.72 input   59.86 | X-H torsion
[ 10167 10162 10161 10158 ] final  135.95 input  -65.29 | X-H torsion
[ 10718 10713 10712 10709 ] final   66.03 input   66.30 | X-H torsion
[ 10763 10752 10751 10750 ] final   91.98 input  -60.55 | X-H torsion
[ 11005 11000 10999 10996 ] final   -4.42 input  -57.11 | X-H torsion

> <Gold.Protein.ActiveResidues>
 VAL166  LYS551  ARG553  GLY616  TRP617  ASP618  TYR619  PRO620  LYS621  CYS622 
 ASP623  PHE694  ASN695  SER759  ASP760  ASP761  ALA762  ILE779  LEU786  VAL792 
 PHE793  MET794  SER795  GLU796  ALA797  LYS798  CYS799  TRP800  GLU811  SER814 

> <Gold.Protein.RotatedAtoms>
  151.6963  135.0938  160.0242 H   0  0  0  0  0  0  0  0  0  0  0  0  # atno 6907 bound_to 6896
  152.3748  133.6462  159.6123 H   0  0  0  0  0  0  0  0  0  0  0  0  # atno 6908 bound_to 6896
  150.7700  133.9128  159.3416 H   0  0  0  0  0  0  0  0  0  0  0  0  # atno 6909 bound_to 6896
  145.3139  140.9406  143.2754 H   0  0  0  0  0  0  0  0  0  0  0  0  # atno 7974 bound_to 7965
  154.8325  140.0439  157.1487 H   0  0  0  0  0  0  0  0  0  0  0  0  # atno 8008 bound_to 7997
  154.9136  140.3017  155.5233 H   0  0  0  0  0  0  0  0  0  0  0  0  # atno 8009 bound_to 7997
  156.2988  140.2353  156.4178 H   0  0  0  0  0  0  0  0  0  0  0  0  # atno 8010 bound_to 7997
  139.5198  144.6490  151.5357 H   0  0  0  0  0  0  0  0  0  0  0  0  # atno 10167 bound_to 10162
  157.6143  130.9246  150.0054 H   0  0  0  0  0  0  0  0  0  0  0  0  # atno 10718 bound_to 10713
  153.2142  135.4378  155.0415 H   0  0  0  0  0  0  0  0  0  0  0  0  # atno 10763 bound_to 10752
  154.8216  135.3340  154.7023 H   0  0  0  0  0  0  0  0  0  0  0  0  # atno 10764 bound_to 10752
  153.7459  135.7001  153.5012 H   0  0  0  0  0  0  0  0  0  0  0  0  # atno 10765 bound_to 10752
  140.6800  133.9162  155.8549 H   0  0  0  0  0  0  0  0  0  0  0  0  # atno 11005 bound_to 11000
  144.8994  139.4670  143.6640 LP  0  0  0  0  0  0  0  0  0  0  0  0  # atno 17320 bound_to 7965
  146.3108  139.7739  142.9021 LP  0  0  0  0  0  0  0  0  0  0  0  0  # atno 17321 bound_to 7965
  140.6287  143.9118  150.6587 LP  0  0  0  0  0  0  0  0  0  0  0  0  # atno 17342 bound_to 10162
  140.2415  143.3660  152.1482 LP  0  0  0  0  0  0  0  0  0  0  0  0  # atno 17343 bound_to 10162
  156.1258  130.3644  149.9811 LP  0  0  0  0  0  0  0  0  0  0  0  0  # atno 17370 bound_to 10713
  156.7882  130.9246  151.3646 LP  0  0  0  0  0  0  0  0  0  0  0  0  # atno 17371 bound_to 10713
  141.0325  134.0736  157.3998 LP  0  0  0  0  0  0  0  0  0  0  0  0  # atno 17394 bound_to 11000
  139.8955  135.0141  156.7003 LP  0  0  0  0  0  0  0  0  0  0  0  0  # atno 17395 bound_to 11000

$$$$
