AV-unprocessed.smi:589|AV-procd|sdf|3005|dock7
  -GOLD-   2262023513D 1   1.00000     0.00000
 Structure written by MMmdl.
 40 41  0  0  0  0  0  0  0  0  1 V2000
  151.7401  145.1236  158.8077 C   0  0  0  0  0  0  0  0  0  0  0  0
  152.0939  143.6525  158.8669 C   0  0  0  0  0  0  0  0  0  0  0  0
  152.9534  143.1528  159.8612 C   0  0  0  0  0  0  0  0  0  0  0  0
  153.2472  141.7741  159.8778 C   0  0  0  0  0  0  0  0  0  0  0  0
  154.1445  141.2426  160.9861 C   0  0  0  0  0  0  0  0  0  0  0  0
  152.6751  140.9381  158.8765 C   0  0  0  0  0  0  0  0  0  0  0  0
  152.9422  139.4536  158.8420 C   0  0  0  0  0  0  0  0  0  0  0  0
  151.8898  138.6636  159.0725 N   0  0  0  0  0  0  0  0  0  0  0  0
  154.0720  139.0092  158.6460 O   0  0  0  0  0  0  0  0  0  0  0  0
  151.8071  141.5459  157.9232 C   0  0  0  0  0  0  0  0  0  0  0  0
  151.2032  140.7877  156.9045 N   0  0  0  0  0  0  0  0  0  0  0  0
  152.1514  140.1088  156.0324 C   0  0  0  0  0  0  0  0  0  0  0  0
  151.3990  139.1684  155.0714 C   0  0  2  0  0  0  0  0  0  0  0  0
  152.3386  138.5084  154.0570 C   0  0  0  0  0  0  0  0  0  0  0  0
  150.4207  139.9180  154.3532 O   0  0  0  0  0  0  0  0  0  0  0  0
  149.4512  140.5206  155.2087 C   0  0  2  0  0  0  0  0  0  0  0  0
  148.4120  141.2313  154.3360 C   0  0  0  0  0  0  0  0  0  0  0  0
  150.1639  141.4928  156.1666 C   0  0  0  0  0  0  0  0  0  0  0  0
  151.5332  142.8724  157.9232 N   0  0  0  0  0  0  0  0  0  0  0  0
  152.2032  145.6760  159.6259 H   0  0  0  0  0  0  0  0  0  0  0  0
  150.6602  145.2567  158.8770 H   0  0  0  0  0  0  0  0  0  0  0  0
  152.0807  145.5581  157.8674 H   0  0  0  0  0  0  0  0  0  0  0  0
  153.3723  143.8149  160.6048 H   0  0  0  0  0  0  0  0  0  0  0  0
  153.7216  140.3443  161.4367 H   0  0  0  0  0  0  0  0  0  0  0  0
  154.2657  141.9799  161.7803 H   0  0  0  0  0  0  0  0  0  0  0  0
  155.1350  141.0076  160.5965 H   0  0  0  0  0  0  0  0  0  0  0  0
  152.0007  137.6604  159.0586 H   0  0  0  0  0  0  0  0  0  0  0  0
  150.9857  139.0746  159.2551 H   0  0  0  0  0  0  0  0  0  0  0  0
  152.7208  140.8475  155.4664 H   0  0  0  0  0  0  0  0  0  0  0  0
  152.8635  139.5418  156.6335 H   0  0  0  0  0  0  0  0  0  0  0  0
  150.8986  138.3847  155.6431 H   0  0  0  0  0  0  0  0  0  0  0  0
  153.1025  137.9141  154.5587 H   0  0  0  0  0  0  0  0  0  0  0  0
  152.8436  139.2549  153.4435 H   0  0  0  0  0  0  0  0  0  0  0  0
  151.7874  137.8460  153.3891 H   0  0  0  0  0  0  0  0  0  0  0  0
  148.9481  139.7412  155.7843 H   0  0  0  0  0  0  0  0  0  0  0  0
  147.6432  141.7031  154.9484 H   0  0  0  0  0  0  0  0  0  0  0  0
  147.9179  140.5271  153.6662 H   0  0  0  0  0  0  0  0  0  0  0  0
  148.8747  142.0058  153.7236 H   0  0  0  0  0  0  0  0  0  0  0  0
  149.4477  141.9259  156.8660 H   0  0  0  0  0  0  0  0  0  0  0  0
  150.6056  142.3154  155.6025 H   0  0  0  0  0  0  0  0  0  0  0  0
  1  2  1  0  0  0  0
  1 20  1  0  0  0  0
  1 21  1  0  0  0  0
  1 22  1  0  0  0  0
  2 19  1  0  0  0  0
  2  3  2  0  0  0  0
  3  4  1  0  0  0  0
  3 23  1  0  0  0  0
  4  5  1  0  0  0  0
  4  6  2  0  0  0  0
  5 24  1  0  0  0  0
  5 25  1  0  0  0  0
  5 26  1  0  0  0  0
  6  7  1  0  0  0  0
  6 10  1  0  0  0  0
  7  8  1  0  0  0  0
  7  9  2  0  0  0  0
  8 27  1  0  0  0  0
  8 28  1  0  0  0  0
 10 11  1  0  0  0  0
 10 19  2  0  0  0  0
 11 18  1  0  0  0  0
 11 12  1  0  0  0  0
 12 13  1  0  0  0  0
 12 29  1  0  0  0  0
 12 30  1  0  0  0  0
 13 14  1  0  0  0  0
 13 15  1  0  0  0  0
 13 31  1  0  0  0  0
 14 32  1  0  0  0  0
 14 33  1  0  0  0  0
 14 34  1  0  0  0  0
 15 16  1  0  0  0  0
 16 17  1  0  0  0  0
 16 18  1  0  0  0  0
 16 35  1  0  0  0  0
 17 36  1  0  0  0  0
 17 37  1  0  0  0  0
 17 38  1  0  0  0  0
 18 39  1  0  0  0  0
 18 40  1  0  0  0  0
M  END
> <s_m_source_file>
AV-unprocessed.smi

> <i_m_source_file_index>
589

> <i_lp_mmshare_version>
43012

> <i_f3d_flags>
0

> <s_epik_input>
W0NIM11jMVtjSF1jKFtDSDNdKWMoQyg9TylbTkgyXSljKG4xKU4yW0NIMl1bQ0BASF0oW0NIM10pT1tDQEBIXShbQ0gzXSlbQ0gyXTI=

> <s_epik_cmdline>
J2VwaWtfcHl0aG9uJywgJy1waCcsICc3LjAnLCAnLXRuJywgJzgnLCAnLW1hJywgJzIwMCcsICctbWV0YWxfYmluZGluZycsICctaW1hZScsICc8aW5maWxlLm1hZT4nLCAnLW9tYWUnLCAnPG91dGZpbGUubWFlPic=

> <r_lp_tautomer_probability>
1

> <r_epik_Ionization_Penalty>
0.000626871

> <r_epik_Ionization_Penalty_Charging>
0

> <r_epik_Ionization_Penalty_Neutral>
0.000626871

> <r_epik_State_Penalty>
0.000395665

> <r_epik_Charging_Adjusted_Penalty>
0.000395665

> <i_epik_Tot_Q>
0

> <i_epik_Tot_abs_Q>
0

> <r_epik_Metal_State_Penalty>
-0

> <b_epik_Metal_Only>
0

> <s_lp_Force_Field>
OPLS_2005

> <r_lp_Energy>
24.7039

> <b_lp_Chiralities_Consistent>
1

> <s_lp_Variant>
AV-unprocessed.smi:589-1

> <Gold.Version>
5.8.1

> <Gold.Id.Protein>
6NUR|6NUR_protein|mol2

> <Gold.PLP.Fitness>
45.3417

> <Gold.PLP.PLP>
-42.1354

> <Gold.PLP.part.hbond>
-1.9506

> <Gold.PLP.part.metal>
0.0000

> <Gold.PLP.part.buried>
-4.8494

> <Gold.PLP.part.nonpolar>
-34.3265

> <Gold.PLP.part.repulsive>
0.3146

> <Gold.PLP.ligand.clash>
0.2873

> <Gold.PLP.ligand.torsion>
1.3321

> <Gold.PLP.Chemscore.Hbond>
1.9413

> <Gold.PLP.Chemscore.CHOScore>
0.0000

> <Gold.PLP.Chemscore.Metal>
0.0000

> <Gold.Chemscore.Hbonds>
donor molecule, donor type, donor heavy atom, donor atom, acceptor molecule, acceptor atom, score
      P1  H  7989  7998       L1    15  0.70
      P1  H  7997  8008       L1     9  1.00

> <Gold.PLP.Chemscore.Internal.Correction>
0.3340

> <Gold.Rescore>
     Score         DG    S(hbond)    S(metal)    S(lipo)     H(rot)  DE(clash)    DE(int)     intcor
     17.92     -20.87       1.45        0.00     112.07       1.00       0.28       2.67       ----

> <Gold.Chemscore.Fitness>
17.9236

> <Gold.Chemscore.DG>
-20.8660

> <Gold.Chemscore.ZeroCoef>
-5.4800

> <Gold.Chemscore.Hbond>
1.4473

> <Gold.Chemscore.Metal>
0.0000

> <Gold.Chemscore.Lipo>
112.0696

> <Gold.Chemscore.Internal_Hbond>
0.0000

> <Gold.Chemscore.DEClash>
0.2770

> <Gold.Chemscore.DEInternal>
2.6653

> <Gold.Chemscore.Rot>
1.0000

> <Gold.Chemscore.Internal.Correction>
   9.000000E+99

> <Gold.Chemscore.Hbonds>
donor molecule, donor type, donor heavy atom, donor atom, acceptor molecule, acceptor atom, score
      P1  H  7989  7998       L1    15  0.07
      P1  H  7997  8008       L1     9  0.65

> <Gold.Chemscore.Hbond.Weighted>
-4.8338

> <Gold.Chemscore.Metal.Weighted>
-0.0000

> <Gold.Chemscore.Lipo.Weighted>
-13.1121

> <Gold.Chemscore.Internal_Hbond.Weighted>
0.0000

> <Gold.Chemscore.DEClash.Weighted>
0.2770

> <Gold.Chemscore.DEInternal.Weighted>
2.6653

> <Gold.Chemscore.Rot.Weighted>
2.5600

> <Gold.Chemscore.Internal.Correction.Weighted>
   9.000000E+99

> <Gold.Protein.RotatedTorsions>
[ 6907 6896 6895 6894 ] final -107.69 input  -60.11 | X-H torsion
[ 7974 7965 7964 7962 ] final   71.35 input  175.53 | X-H torsion
[ 8008 7997 7996 7995 ] final -104.61 input   59.86 | X-H torsion
[ 10167 10162 10161 10158 ] final  146.13 input  -65.29 | X-H torsion
[ 10718 10713 10712 10709 ] final  -51.70 input   66.30 | X-H torsion
[ 10763 10752 10751 10750 ] final  137.10 input  -60.55 | X-H torsion
[ 11005 11000 10999 10996 ] final  -15.21 input  -57.11 | X-H torsion

> <Gold.Protein.ActiveResidues>
 VAL166  LYS551  ARG553  GLY616  TRP617  ASP618  TYR619  PRO620  LYS621  CYS622 
 ASP623  PHE694  ASN695  SER759  ASP760  ASP761  ALA762  ILE779  LEU786  VAL792 
 PHE793  MET794  SER795  GLU796  ALA797  LYS798  CYS799  TRP800  GLU811  SER814 

> <Gold.Protein.RotatedAtoms>
  150.7458  133.9789  159.3569 H   0  0  0  0  0  0  0  0  0  0  0  0  # atno 6907 bound_to 6896
  151.7729  135.0779  160.0372 H   0  0  0  0  0  0  0  0  0  0  0  0  # atno 6908 bound_to 6896
  152.3327  133.5939  159.5857 H   0  0  0  0  0  0  0  0  0  0  0  0  # atno 6909 bound_to 6896
  145.7669  139.2825  143.1343 H   0  0  0  0  0  0  0  0  0  0  0  0  # atno 7974 bound_to 7965
  154.8879  140.0417  157.1821 H   0  0  0  0  0  0  0  0  0  0  0  0  # atno 8008 bound_to 7997
  154.8571  140.2938  155.5541 H   0  0  0  0  0  0  0  0  0  0  0  0  # atno 8009 bound_to 7997
  156.2997  140.2454  156.3540 H   0  0  0  0  0  0  0  0  0  0  0  0  # atno 8010 bound_to 7997
  139.4913  144.5852  151.6793 H   0  0  0  0  0  0  0  0  0  0  0  0  # atno 10167 bound_to 10162
  156.1686  130.4149  149.9681 H   0  0  0  0  0  0  0  0  0  0  0  0  # atno 10718 bound_to 10713
  153.8675  135.3060  155.3440 H   0  0  0  0  0  0  0  0  0  0  0  0  # atno 10763 bound_to 10752
  154.7821  135.4830  153.9869 H   0  0  0  0  0  0  0  0  0  0  0  0  # atno 10764 bound_to 10752
  153.1425  135.6827  153.9100 H   0  0  0  0  0  0  0  0  0  0  0  0  # atno 10765 bound_to 10752
  140.7943  133.8263  155.9409 H   0  0  0  0  0  0  0  0  0  0  0  0  # atno 11005 bound_to 11000
  146.0208  140.8349  142.9924 LP  0  0  0  0  0  0  0  0  0  0  0  0  # atno 17320 bound_to 7965
  144.6820  140.2626  143.7317 LP  0  0  0  0  0  0  0  0  0  0  0  0  # atno 17321 bound_to 7965
  140.5466  144.0493  150.6109 LP  0  0  0  0  0  0  0  0  0  0  0  0  # atno 17342 bound_to 10162
  140.3533  143.2950  152.0463 LP  0  0  0  0  0  0  0  0  0  0  0  0  # atno 17343 bound_to 10162
  156.7488  130.9107  151.3636 LP  0  0  0  0  0  0  0  0  0  0  0  0  # atno 17370 bound_to 10713
  157.6786  130.9118  150.0212 LP  0  0  0  0  0  0  0  0  0  0  0  0  # atno 17371 bound_to 10713
  140.9358  134.1963  157.4832 LP  0  0  0  0  0  0  0  0  0  0  0  0  # atno 17394 bound_to 11000
  139.8728  134.9852  156.5270 LP  0  0  0  0  0  0  0  0  0  0  0  0  # atno 17395 bound_to 11000

$$$$
