AV-unprocessed.smi:1610|AV-procd|sdf|6472|dock7
  -GOLD-   22720 7133D 1   1.00000     0.00000
 Structure written by MMmdl.
 43 44  0  0  0  0  0  0  0  0  2 V2000
  153.4296  137.9966  159.0389 C   0  0  0  0  0  0  0  0  0  0  0  0
  152.1756  137.9014  157.7004 S   0  0  0  0  0  0  0  0  0  0  0  0
  152.3827  136.5978  157.0494 O   0  0  0  0  0  0  0  0  0  0  0  0
  150.8767  138.1295  158.3534 O   0  0  0  0  0  0  0  0  0  0  0  0
  152.6417  139.1465  156.7728 N   0  5  0  0  0  0  0  0  0  0  0  0
  152.0228  139.3637  155.4729 C   0  0  0  0  0  0  0  0  0  0  0  0
  151.0022  140.5313  155.5680 C   0  0  0  0  0  0  0  0  0  0  0  0
  150.0845  140.6618  154.3205 C   0  0  0  0  0  0  0  0  0  0  0  0
  149.3713  139.3904  154.0792 N   0  0  0  0  0  0  0  0  0  0  0  0
  148.0926  139.1007  154.4245 C   0  0  0  0  0  0  0  0  0  0  0  0
  147.3906  139.8585  155.0957 O   0  0  0  0  0  0  0  0  0  0  0  0
  147.6279  137.9419  153.9247 N   0  0  0  0  0  0  0  0  0  0  0  0
  146.2255  137.5305  153.9002 C   0  0  0  0  0  0  0  0  0  0  0  0
  145.7082  137.3594  152.4566 C   0  0  0  0  0  0  0  0  0  0  0  0
  145.2371  135.9516  152.1162 C   0  0  0  0  0  0  0  0  0  0  0  0
  145.5066  134.8609  152.9703 C   0  0  0  0  0  0  0  0  0  0  0  0
  145.0076  133.5893  152.6286 C   0  0  0  0  0  0  0  0  0  0  0  0
  144.2704  133.4558  151.4356 C   0  0  0  0  0  0  0  0  0  0  0  0
  144.0272  134.4855  150.5971 N   0  0  0  0  0  0  0  0  0  0  0  0
  144.4996  135.7036  150.9383 C   0  0  0  0  0  0  0  0  0  0  0  0
  150.3521  138.3382  153.7610 C   0  0  0  0  0  0  0  0  0  0  0  0
  151.2790  138.0869  154.9850 C   0  0  0  0  0  0  0  0  0  0  0  0
  153.2525  137.1964  159.7566 H   0  0  0  0  0  0  0  0  0  0  0  0
  153.3512  138.9602  159.5415 H   0  0  0  0  0  0  0  0  0  0  0  0
  154.4260  137.8881  158.6115 H   0  0  0  0  0  0  0  0  0  0  0  0
  152.7595  139.6358  154.7161 H   0  0  0  0  0  0  0  0  0  0  0  0
  150.3659  140.3866  156.4405 H   0  0  0  0  0  0  0  0  0  0  0  0
  151.5320  141.4700  155.7335 H   0  0  0  0  0  0  0  0  0  0  0  0
  149.4111  141.5091  154.4487 H   0  0  0  0  0  0  0  0  0  0  0  0
  150.6736  140.9132  153.4360 H   0  0  0  0  0  0  0  0  0  0  0  0
  148.2737  137.3721  153.3978 H   0  0  0  0  0  0  0  0  0  0  0  0
  146.1181  136.5943  154.4485 H   0  0  0  0  0  0  0  0  0  0  0  0
  145.5983  138.2559  154.4201 H   0  0  0  0  0  0  0  0  0  0  0  0
  144.8797  138.0505  152.2973 H   0  0  0  0  0  0  0  0  0  0  0  0
  146.4846  137.6507  151.7488 H   0  0  0  0  0  0  0  0  0  0  0  0
  146.0668  134.9980  153.8832 H   0  0  0  0  0  0  0  0  0  0  0  0
  145.1785  132.7373  153.2695 H   0  0  0  0  0  0  0  0  0  0  0  0
  143.8681  132.4964  151.1457 H   0  0  0  0  0  0  0  0  0  0  0  0
  144.2707  136.5059  150.2527 H   0  0  0  0  0  0  0  0  0  0  0  0
  149.8702  137.4030  153.4729 H   0  0  0  0  0  0  0  0  0  0  0  0
  150.9345  138.6359  152.8864 H   0  0  0  0  0  0  0  0  0  0  0  0
  152.0012  137.3103  154.7330 H   0  0  0  0  0  0  0  0  0  0  0  0
  150.6734  137.6842  155.7989 H   0  0  0  0  0  0  0  0  0  0  0  0
  1  2  1  0  0  0  0
  1 23  1  0  0  0  0
  1 24  1  0  0  0  0
  1 25  1  0  0  0  0
  2  3  2  0  0  0  0
  2  4  2  0  0  0  0
  2  5  1  0  0  0  0
  5  6  1  0  0  0  0
  6 22  1  0  0  0  0
  6  7  1  0  0  0  0
  6 26  1  0  0  0  0
  7  8  1  0  0  0  0
  7 27  1  0  0  0  0
  7 28  1  0  0  0  0
  8  9  1  0  0  0  0
  8 29  1  0  0  0  0
  8 30  1  0  0  0  0
  9 10  1  0  0  0  0
  9 21  1  0  0  0  0
 10 11  2  0  0  0  0
 10 12  1  0  0  0  0
 12 13  1  0  0  0  0
 12 31  1  0  0  0  0
 13 14  1  0  0  0  0
 13 32  1  0  0  0  0
 13 33  1  0  0  0  0
 14 15  1  0  0  0  0
 14 34  1  0  0  0  0
 14 35  1  0  0  0  0
 15 20  1  0  0  0  0
 15 16  2  0  0  0  0
 16 17  1  0  0  0  0
 16 36  1  0  0  0  0
 17 18  2  0  0  0  0
 17 37  1  0  0  0  0
 18 19  1  0  0  0  0
 18 38  1  0  0  0  0
 19 20  2  0  0  0  0
 20 39  1  0  0  0  0
 21 22  1  0  0  0  0
 21 40  1  0  0  0  0
 21 41  1  0  0  0  0
 22 42  1  0  0  0  0
 22 43  1  0  0  0  0
M  CHG  1   5  -1
M  END
> <s_m_source_file>
AV-unprocessed.smi

> <i_m_source_file_index>
1610

> <i_lp_mmshare_version>
43012

> <i_f3d_flags>
0

> <s_epik_input>
W0NIM11TKD1PKSg9TylbTkhdW0NIXTFbQ0gyXVtDSDJdTihbQ0gyXVtDSDJdMSlDKD1PKVtOSF1bQ0gyXVtDSDJdYzJbY0hdW2NIXVtjSF1uW2NIXTI=

> <s_epik_cmdline>
J2VwaWtfcHl0aG9uJywgJy1waCcsICc3LjAnLCAnLXRuJywgJzgnLCAnLW1hJywgJzIwMCcsICctbWV0YWxfYmluZGluZycsICctaW1hZScsICc8aW5maWxlLm1hZT4nLCAnLW9tYWUnLCAnPG91dGZpbGUubWFlPic=

> <r_epik_Ionization_Penalty>
6.72257

> <r_epik_Ionization_Penalty_Charging>
6.70803

> <r_epik_Ionization_Penalty_Neutral>
0.0145361

> <r_epik_State_Penalty>
6.71933

> <r_epik_Charging_Adjusted_Penalty>
13.4274

> <i_epik_Tot_Q>
-1

> <i_epik_Tot_abs_Q>
1

> <r_epik_Metal_State_Penalty>
2.65475

> <b_epik_Metal_Only>
1

> <s_lp_Force_Field>
OPLS_2005

> <r_lp_Energy>
25.1746

> <b_lp_Chiralities_Consistent>
1

> <s_lp_Variant>
AV-unprocessed.smi:1610-3

> <Gold.Version>
5.8.1

> <Gold.Id.Protein>
6NUR|6NUR_protein|mol2

> <Gold.PLP.Fitness>
45.5659

> <Gold.PLP.PLP>
-32.6767

> <Gold.PLP.part.hbond>
-3.0000

> <Gold.PLP.part.metal>
0.0000

> <Gold.PLP.part.buried>
-2.5176

> <Gold.PLP.part.nonpolar>
-26.8256

> <Gold.PLP.part.repulsive>
0.9025

> <Gold.PLP.ligand.clash>
0.0000

> <Gold.PLP.ligand.torsion>
1.5382

> <Gold.PLP.Chemscore.Hbond>
3.9680

> <Gold.PLP.Chemscore.CHOScore>
1.0000

> <Gold.PLP.Chemscore.Metal>
0.0000

> <Gold.Chemscore.Hbonds>
donor molecule, donor type, donor heavy atom, donor atom, acceptor molecule, acceptor atom, score
      L1  H    12    31       P1  7948  1.00
      P1  H  7997  8008       L1     5  2.00
      P1  H 10752 10765       L1     3  0.15
      L1  C    20    39       P1 10171  1.00

> <Gold.PLP.Chemscore.Internal.Correction>
1.0616

> <Gold.Rescore>
     Score         DG    S(hbond)    S(metal)    S(lipo)     H(rot)  DE(clash)    DE(int)     intcor
     15.26     -18.50       2.62        0.00      73.36       1.68       0.52       2.73       ----

> <Gold.Chemscore.Fitness>
15.2568

> <Gold.Chemscore.DG>
-18.5003

> <Gold.Chemscore.ZeroCoef>
-5.4800

> <Gold.Chemscore.Hbond>
2.6171

> <Gold.Chemscore.Metal>
0.0000

> <Gold.Chemscore.Lipo>
73.3627

> <Gold.Chemscore.Internal_Hbond>
0.0000

> <Gold.Chemscore.DEClash>
0.5154

> <Gold.Chemscore.DEInternal>
2.7281

> <Gold.Chemscore.Rot>
1.6813

> <Gold.Chemscore.Internal.Correction>
   9.000000E+99

> <Gold.Chemscore.Hbonds>
donor molecule, donor type, donor heavy atom, donor atom, acceptor molecule, acceptor atom, score
      L1  H    12    31       P1  7948  0.93
      P1  H  7997  8008       L1     5  0.44
      P1  H 10752 10765       L1     3  0.18

> <Gold.Chemscore.Hbond.Weighted>
-8.7411

> <Gold.Chemscore.Metal.Weighted>
-0.0000

> <Gold.Chemscore.Lipo.Weighted>
-8.5834

> <Gold.Chemscore.Internal_Hbond.Weighted>
0.0000

> <Gold.Chemscore.DEClash.Weighted>
0.5154

> <Gold.Chemscore.DEInternal.Weighted>
2.7281

> <Gold.Chemscore.Rot.Weighted>
4.3042

> <Gold.Chemscore.Internal.Correction.Weighted>
   9.000000E+99

> <Gold.Protein.RotatedTorsions>
[ 6907 6896 6895 6894 ] final  162.38 input  -60.11 | X-H torsion
[ 7974 7965 7964 7962 ] final   81.11 input  175.53 | X-H torsion
[ 8008 7997 7996 7995 ] final  -59.68 input   59.86 | X-H torsion
[ 10167 10162 10161 10158 ] final  -13.19 input  -65.29 | X-H torsion
[ 10718 10713 10712 10709 ] final   57.62 input   66.30 | X-H torsion
[ 10763 10752 10751 10750 ] final -128.91 input  -60.55 | X-H torsion
[ 11005 11000 10999 10996 ] final   61.38 input  -57.11 | X-H torsion

> <Gold.Protein.ActiveResidues>
 VAL166  LYS551  ARG553  GLY616  TRP617  ASP618  TYR619  PRO620  LYS621  CYS622 
 ASP623  PHE694  ASN695  SER759  ASP760  ASP761  ALA762  ILE779  LEU786  VAL792 
 PHE793  MET794  SER795  GLU796  ALA797  LYS798  CYS799  TRP800  GLU811  SER814 

> <Gold.Protein.RotatedAtoms>
  151.9414  133.3639  159.3966 H   0  0  0  0  0  0  0  0  0  0  0  0  # atno 6907 bound_to 6896
  150.6998  134.4436  159.5312 H   0  0  0  0  0  0  0  0  0  0  0  0  # atno 6908 bound_to 6896
  152.2093  134.8516  160.0550 H   0  0  0  0  0  0  0  0  0  0  0  0  # atno 6909 bound_to 6896
  145.6425  139.2429  143.2022 H   0  0  0  0  0  0  0  0  0  0  0  0  # atno 7974 bound_to 7965
  154.4363  140.1056  156.6154 H   0  0  0  0  0  0  0  0  0  0  0  0  # atno 8008 bound_to 7997
  155.5764  140.3490  155.4510 H   0  0  0  0  0  0  0  0  0  0  0  0  # atno 8009 bound_to 7997
  156.0351  140.1269  157.0206 H   0  0  0  0  0  0  0  0  0  0  0  0  # atno 8010 bound_to 7997
  140.7177  143.5452  150.9363 H   0  0  0  0  0  0  0  0  0  0  0  0  # atno 10167 bound_to 10162
  157.5530  130.8779  149.8992 H   0  0  0  0  0  0  0  0  0  0  0  0  # atno 10718 bound_to 10713
  154.8757  135.3913  154.3833 H   0  0  0  0  0  0  0  0  0  0  0  0  # atno 10763 bound_to 10752
  153.4578  135.7029  153.6074 H   0  0  0  0  0  0  0  0  0  0  0  0  # atno 10764 bound_to 10752
  153.4586  135.3817  155.2294 H   0  0  0  0  0  0  0  0  0  0  0  0  # atno 10765 bound_to 10752
  140.0165  134.6217  155.9702 H   0  0  0  0  0  0  0  0  0  0  0  0  # atno 11005 bound_to 11000
  146.1269  140.7236  142.9430 LP  0  0  0  0  0  0  0  0  0  0  0  0  # atno 17320 bound_to 7965
  144.7152  140.4184  143.7050 LP  0  0  0  0  0  0  0  0  0  0  0  0  # atno 17321 bound_to 7965
  139.9175  143.6645  152.3103 LP  0  0  0  0  0  0  0  0  0  0  0  0  # atno 17342 bound_to 10162
  139.7050  144.7629  151.1208 LP  0  0  0  0  0  0  0  0  0  0  0  0  # atno 17343 bound_to 10162
  156.0593  130.3702  150.1018 LP  0  0  0  0  0  0  0  0  0  0  0  0  # atno 17370 bound_to 10713
  156.9190  130.9676  151.3551 LP  0  0  0  0  0  0  0  0  0  0  0  0  # atno 17371 bound_to 10713
  141.1746  133.6539  156.4779 LP  0  0  0  0  0  0  0  0  0  0  0  0  # atno 17394 bound_to 11000
  140.4462  134.6970  157.5017 LP  0  0  0  0  0  0  0  0  0  0  0  0  # atno 17395 bound_to 11000

$$$$
