AV-unprocessed.smi:1866|AV-procd|sdf|7557|dock2
  -GOLD-   22720 9273D 1   1.00000     0.00000
 Structure written by MMmdl.
 30 31  0  0  0  0  0  0  0  0  1 V2000
  146.7115  142.4310  154.7148 C   0  0  0  0  0  0  0  0  0  0  0  0
  146.5192  140.9830  154.4182 C   0  0  0  0  0  0  0  0  0  0  0  0
  145.5877  140.2352  155.0227 N   0  0  0  0  0  0  0  0  0  0  0  0
  145.6025  138.9190  154.5822 N   0  0  0  0  0  0  0  0  0  0  0  0
  146.5477  138.7129  153.6546 C   0  0  0  0  0  0  0  0  0  0  0  0
  146.7836  137.4584  153.0327 N   0  0  0  0  0  0  0  0  0  0  0  0
  145.9064  136.4675  152.7949 C   0  0  0  0  0  0  0  0  0  0  0  0
  144.7121  136.4859  153.0939 O   0  0  0  0  0  0  0  0  0  0  0  0
  146.4994  135.4338  152.1807 N   0  0  0  0  0  0  0  0  0  0  0  0
  145.8485  134.1785  151.8109 C   0  0  1  0  0  0  0  0  0  0  0  0
  144.8649  134.3886  150.6437 C   0  0  0  0  0  0  0  0  0  0  0  0
  144.3513  133.0405  150.1297 C   0  0  0  0  0  0  0  0  0  0  0  0
  145.5248  132.1527  149.6856 C   0  0  0  0  0  0  0  0  0  0  0  0
  146.6281  132.1317  150.6470 N   0  0  0  0  0  0  0  0  0  0  0  0
  146.8794  133.0568  151.5901 C   0  0  0  0  0  0  0  0  0  0  0  0
  147.8874  132.9958  152.2926 O   0  0  0  0  0  0  0  0  0  0  0  0
  147.5031  140.1255  153.2383 S   0  0  0  0  0  0  0  0  0  0  0  0
  146.1112  142.7316  155.5742 H   0  0  0  0  0  0  0  0  0  0  0  0
  146.4147  143.0297  153.8537 H   0  0  0  0  0  0  0  0  0  0  0  0
  147.7602  142.6302  154.9359 H   0  0  0  0  0  0  0  0  0  0  0  0
  147.7342  137.2951  152.7358 H   0  0  0  0  0  0  0  0  0  0  0  0
  147.4859  135.5035  151.9782 H   0  0  0  0  0  0  0  0  0  0  0  0
  145.2650  133.8394  152.6693 H   0  0  0  0  0  0  0  0  0  0  0  0
  144.0258  135.0084  150.9615 H   0  0  0  0  0  0  0  0  0  0  0  0
  145.3573  134.9236  149.8303 H   0  0  0  0  0  0  0  0  0  0  0  0
  143.7917  132.5402  150.9212 H   0  0  0  0  0  0  0  0  0  0  0  0
  143.6564  133.1870  149.3025 H   0  0  0  0  0  0  0  0  0  0  0  0
  145.1812  131.1329  149.5122 H   0  0  0  0  0  0  0  0  0  0  0  0
  145.9193  132.5157  148.7359 H   0  0  0  0  0  0  0  0  0  0  0  0
  147.2969  131.3819  150.5455 H   0  0  0  0  0  0  0  0  0  0  0  0
  1  2  1  0  0  0  0
  1 18  1  0  0  0  0
  1 19  1  0  0  0  0
  1 20  1  0  0  0  0
  2 17  1  0  0  0  0
  2  3  2  0  0  0  0
  3  4  1  0  0  0  0
  4  5  2  0  0  0  0
  5  6  1  0  0  0  0
  5 17  1  0  0  0  0
  6  7  1  0  0  0  0
  6 21  1  0  0  0  0
  7  8  2  0  0  0  0
  7  9  1  0  0  0  0
  9 10  1  0  0  0  0
  9 22  1  0  0  0  0
 10 15  1  0  0  0  0
 10 11  1  0  0  0  0
 10 23  1  0  0  0  0
 11 12  1  0  0  0  0
 11 24  1  0  0  0  0
 11 25  1  0  0  0  0
 12 13  1  0  0  0  0
 12 26  1  0  0  0  0
 12 27  1  0  0  0  0
 13 14  1  0  0  0  0
 13 28  1  0  0  0  0
 13 29  1  0  0  0  0
 14 15  1  0  0  0  0
 14 30  1  0  0  0  0
 15 16  2  0  0  0  0
M  END
> <s_m_source_file>
AV-unprocessed.smi

> <i_m_source_file_index>
1866

> <i_lp_mmshare_version>
43012

> <i_f3d_flags>
0

> <s_epik_input>
W0NIM11jMW5uYyhzMSlbTkhdQyg9TylbTkhdW0NAQEhdMltDSDJdW0NIMl1bQ0gyXVtOSF1DMj1P

> <s_epik_cmdline>
J2VwaWtfcHl0aG9uJywgJy1waCcsICc3LjAnLCAnLXRuJywgJzgnLCAnLW1hJywgJzIwMCcsICctbWV0YWxfYmluZGluZycsICctaW1hZScsICc8aW5maWxlLm1hZT4nLCAnLW9tYWUnLCAnPG91dGZpbGUubWFlPic=

> <r_lp_tautomer_probability>
1

> <r_epik_Ionization_Penalty>
0.00093002

> <r_epik_Ionization_Penalty_Charging>
0

> <r_epik_Ionization_Penalty_Neutral>
0.00093002

> <r_epik_State_Penalty>
-0

> <r_epik_Charging_Adjusted_Penalty>
0

> <i_epik_Tot_Q>
0

> <i_epik_Tot_abs_Q>
0

> <r_epik_Metal_State_Penalty>
0.280775

> <b_epik_Metal_Only>
0

> <s_lp_Force_Field>
OPLS_2005

> <r_lp_Energy>
8.18439

> <b_lp_Chiralities_Consistent>
1

> <s_lp_Variant>
AV-unprocessed.smi:1866-2

> <Gold.Version>
5.8.1

> <Gold.Id.Protein>
6NUR|6NUR_protein|mol2

> <Gold.PLP.Fitness>
33.8149

> <Gold.PLP.PLP>
-25.5669

> <Gold.PLP.part.hbond>
-3.0000

> <Gold.PLP.part.metal>
0.0000

> <Gold.PLP.part.buried>
-3.1588

> <Gold.PLP.part.nonpolar>
-20.2736

> <Gold.PLP.part.repulsive>
0.6829

> <Gold.PLP.ligand.clash>
0.0000

> <Gold.PLP.ligand.torsion>
0.3732

> <Gold.PLP.Chemscore.Hbond>
2.9840

> <Gold.PLP.Chemscore.CHOScore>
0.0000

> <Gold.PLP.Chemscore.Metal>
0.0000

> <Gold.Chemscore.Hbonds>
donor molecule, donor type, donor heavy atom, donor atom, acceptor molecule, acceptor atom, score
      L1  H     6    21       P1  7948  0.99
      L1  H     9    22       P1  7948  1.00
      L1  H    14    30       P1 10747  0.99

> <Gold.PLP.Chemscore.Internal.Correction>
0.0425

> <Gold.Rescore>
     Score         DG    S(hbond)    S(metal)    S(lipo)     H(rot)  DE(clash)    DE(int)     intcor
     16.56     -18.13       2.90        0.00      47.29       1.00       0.10       1.48       ----

> <Gold.Chemscore.Fitness>
16.5591

> <Gold.Chemscore.DG>
-18.1321

> <Gold.Chemscore.ZeroCoef>
-5.4800

> <Gold.Chemscore.Hbond>
2.8981

> <Gold.Chemscore.Metal>
0.0000

> <Gold.Chemscore.Lipo>
47.2863

> <Gold.Chemscore.Internal_Hbond>
0.0000

> <Gold.Chemscore.DEClash>
0.0967

> <Gold.Chemscore.DEInternal>
1.4763

> <Gold.Chemscore.Rot>
1.0000

> <Gold.Chemscore.Internal.Correction>
   9.000000E+99

> <Gold.Chemscore.Hbonds>
donor molecule, donor type, donor heavy atom, donor atom, acceptor molecule, acceptor atom, score
      L1  H     6    21       P1  7948  0.93
      L1  H     9    22       P1  7948  0.98
      L1  H    14    30       P1 10747  0.93

> <Gold.Chemscore.Hbond.Weighted>
-9.6796

> <Gold.Chemscore.Metal.Weighted>
-0.0000

> <Gold.Chemscore.Lipo.Weighted>
-5.5325

> <Gold.Chemscore.Internal_Hbond.Weighted>
0.0000

> <Gold.Chemscore.DEClash.Weighted>
0.0967

> <Gold.Chemscore.DEInternal.Weighted>
1.4763

> <Gold.Chemscore.Rot.Weighted>
2.5600

> <Gold.Chemscore.Internal.Correction.Weighted>
   9.000000E+99

> <Gold.Protein.RotatedTorsions>
[ 6907 6896 6895 6894 ] final    9.79 input  -60.11 | X-H torsion
[ 7974 7965 7964 7962 ] final -123.58 input  175.53 | X-H torsion
[ 8008 7997 7996 7995 ] final -150.53 input   59.86 | X-H torsion
[ 10167 10162 10161 10158 ] final  -60.57 input  -65.29 | X-H torsion
[ 10718 10713 10712 10709 ] final   23.63 input   66.30 | X-H torsion
[ 10763 10752 10751 10750 ] final  156.86 input  -60.55 | X-H torsion
[ 11005 11000 10999 10996 ] final   10.78 input  -57.11 | X-H torsion

> <Gold.Protein.ActiveResidues>
 VAL166  LYS551  ARG553  GLY616  TRP617  ASP618  TYR619  PRO620  LYS621  CYS622 
 ASP623  PHE694  ASN695  SER759  ASP760  ASP761  ALA762  ILE779  LEU786  VAL792 
 PHE793  MET794  SER795  GLU796  ALA797  LYS798  CYS799  TRP800  GLU811  SER814 

> <Gold.Protein.RotatedAtoms>
  151.7278  135.0881  160.0294 H   0  0  0  0  0  0  0  0  0  0  0  0  # atno 6907 bound_to 6896
  152.3561  133.6234  159.5988 H   0  0  0  0  0  0  0  0  0  0  0  0  # atno 6908 bound_to 6896
  150.7572  133.9414  159.3499 H   0  0  0  0  0  0  0  0  0  0  0  0  # atno 6909 bound_to 6896
  145.0172  140.7957  143.4403 H   0  0  0  0  0  0  0  0  0  0  0  0  # atno 7974 bound_to 7965
  155.6251  140.0685  157.2666 H   0  0  0  0  0  0  0  0  0  0  0  0  # atno 8008 bound_to 7997
  154.4219  140.1777  156.1461 H   0  0  0  0  0  0  0  0  0  0  0  0  # atno 8009 bound_to 7997
  155.9978  140.3339  155.6819 H   0  0  0  0  0  0  0  0  0  0  0  0  # atno 8010 bound_to 7997
  140.6062  143.2374  151.5815 H   0  0  0  0  0  0  0  0  0  0  0  0  # atno 10167 bound_to 10162
  157.1687  130.6750  149.6070 H   0  0  0  0  0  0  0  0  0  0  0  0  # atno 10718 bound_to 10713
  154.1910  135.2795  155.3022 H   0  0  0  0  0  0  0  0  0  0  0  0  # atno 10763 bound_to 10752
  154.5928  135.5554  153.7299 H   0  0  0  0  0  0  0  0  0  0  0  0  # atno 10764 bound_to 10752
  153.0112  135.6372  154.2049 H   0  0  0  0  0  0  0  0  0  0  0  0  # atno 10765 bound_to 10752
  140.5106  134.0655  155.7817 H   0  0  0  0  0  0  0  0  0  0  0  0  # atno 11005 bound_to 11000
  145.1944  139.2284  143.5225 LP  0  0  0  0  0  0  0  0  0  0  0  0  # atno 17320 bound_to 7965
  146.3479  140.1748  142.8589 LP  0  0  0  0  0  0  0  0  0  0  0  0  # atno 17321 bound_to 7965
  139.5327  144.2870  152.1183 LP  0  0  0  0  0  0  0  0  0  0  0  0  # atno 17342 bound_to 10162
  140.2060  144.4611  150.6408 LP  0  0  0  0  0  0  0  0  0  0  0  0  # atno 17343 bound_to 10162
  155.9742  130.4686  150.6367 LP  0  0  0  0  0  0  0  0  0  0  0  0  # atno 17370 bound_to 10713
  157.4063  131.0817  151.1262 LP  0  0  0  0  0  0  0  0  0  0  0  0  # atno 17371 bound_to 10713
  141.1387  133.9176  157.2375 LP  0  0  0  0  0  0  0  0  0  0  0  0  # atno 17394 bound_to 11000
  139.9661  135.0141  156.9390 LP  0  0  0  0  0  0  0  0  0  0  0  0  # atno 17395 bound_to 11000

$$$$
