AV-unprocessed.smi:2671|AV-procd|sdf|10349|dock9
  -GOLD-   2272014373D 1   1.00000     0.00000
 Structure written by MMmdl.
 29 30  0  0  0  0  0  0  0  0  1 V2000
  148.4836  141.8714  153.6710 O   0  0  0  0  0  0  0  0  0  0  0  0
  149.2662  141.3255  154.4452 C   0  0  0  0  0  0  0  0  0  0  0  0
  149.6608  139.9204  154.3563 C   0  0  0  0  0  0  0  0  0  0  0  0
  150.5305  139.3922  155.2515 C   0  0  0  0  0  0  0  0  0  0  0  0
  150.9525  137.9337  155.1743 C   0  0  0  0  0  0  0  0  0  0  0  0
  151.7530  137.6316  156.1960 F   0  0  0  0  0  0  0  0  0  0  0  0
  149.8834  137.1402  155.2366 F   0  0  0  0  0  0  0  0  0  0  0  0
  151.6038  137.6690  154.0406 F   0  0  0  0  0  0  0  0  0  0  0  0
  151.0691  140.1836  156.2774 N   0  0  0  0  0  0  0  0  0  0  0  0
  150.7339  141.4321  156.3771 C   0  0  0  0  0  0  0  0  0  0  0  0
  151.2694  142.6703  157.5924 S   0  0  0  0  0  0  0  0  0  0  0  0
  152.0824  141.6221  158.8325 C   0  0  0  0  0  0  0  0  0  0  0  0
  152.5696  142.4364  160.0388 C   0  0  1  0  0  0  0  0  0  0  0  0
  151.6863  143.6320  160.4018 C   0  0  0  0  0  0  0  0  0  0  0  0
  151.8881  143.7943  161.9019 C   0  0  0  0  0  0  0  0  0  0  0  0
  152.6570  142.5376  162.3169 C   0  0  0  0  0  0  0  0  0  0  0  0
  152.5199  141.6495  161.2176 O   0  0  0  0  0  0  0  0  0  0  0  0
  149.8373  142.0031  155.4673 N   0  0  0  0  0  0  0  0  0  0  0  0
  149.5986  142.9783  155.5736 H   0  0  0  0  0  0  0  0  0  0  0  0
  149.2535  139.3018  153.5697 H   0  0  0  0  0  0  0  0  0  0  0  0
  152.9297  141.1236  158.3609 H   0  0  0  0  0  0  0  0  0  0  0  0
  151.3923  140.8416  159.1554 H   0  0  0  0  0  0  0  0  0  0  0  0
  153.5999  142.7626  159.8842 H   0  0  0  0  0  0  0  0  0  0  0  0
  151.9502  144.5286  159.8404 H   0  0  0  0  0  0  0  0  0  0  0  0
  150.6383  143.4072  160.1988 H   0  0  0  0  0  0  0  0  0  0  0  0
  152.4537  144.6952  162.1424 H   0  0  0  0  0  0  0  0  0  0  0  0
  150.9259  143.8563  162.4115 H   0  0  0  0  0  0  0  0  0  0  0  0
  153.7140  142.7653  162.4631 H   0  0  0  0  0  0  0  0  0  0  0  0
  152.2742  142.0935  163.2360 H   0  0  0  0  0  0  0  0  0  0  0  0
  1  2  2  0  0  0  0
  2 18  1  0  0  0  0
  2  3  1  0  0  0  0
  3 20  1  0  0  0  0
  3  4  2  0  0  0  0
  4  5  1  0  0  0  0
  4  9  1  0  0  0  0
  5  6  1  0  0  0  0
  5  7  1  0  0  0  0
  5  8  1  0  0  0  0
  9 10  2  0  0  0  0
 10 11  1  0  0  0  0
 10 18  1  0  0  0  0
 11 12  1  0  0  0  0
 12 13  1  0  0  0  0
 12 21  1  0  0  0  0
 12 22  1  0  0  0  0
 13 17  1  0  0  0  0
 13 14  1  0  0  0  0
 13 23  1  0  0  0  0
 14 15  1  0  0  0  0
 14 24  1  0  0  0  0
 14 25  1  0  0  0  0
 15 16  1  0  0  0  0
 15 26  1  0  0  0  0
 15 27  1  0  0  0  0
 16 17  1  0  0  0  0
 16 28  1  0  0  0  0
 16 29  1  0  0  0  0
 18 19  1  0  0  0  0
M  END
> <s_m_source_file>
AV-unprocessed.smi

> <i_m_source_file_index>
2671

> <i_lp_mmshare_version>
43012

> <i_f3d_flags>
0

> <s_epik_input>
W09IXWMxW2NIXWMoQyhGKShGKUYpbmMobjEpU1tDSDJdW0NAQEhdMltDSDJdW0NIMl1bQ0gyXU8y

> <s_epik_cmdline>
J2VwaWtfcHl0aG9uJywgJy1waCcsICc3LjAnLCAnLXRuJywgJzgnLCAnLW1hJywgJzIwMCcsICctbWV0YWxfYmluZGluZycsICctaW1hZScsICc8aW5maWxlLm1hZT4nLCAnLW9tYWUnLCAnPG91dGZpbGUubWFlPic=

> <r_lp_tautomer_probability>
0.660323

> <r_epik_Ionization_Penalty>
0.14469

> <r_epik_Ionization_Penalty_Charging>
0.14469

> <r_epik_Ionization_Penalty_Neutral>
3.1007e-10

> <r_epik_State_Penalty>
0.804349

> <r_epik_Charging_Adjusted_Penalty>
0.949039

> <i_epik_Tot_Q>
0

> <i_epik_Tot_abs_Q>
0

> <r_epik_Metal_State_Penalty>
1.52783

> <b_epik_Metal_Only>
0

> <s_lp_Force_Field>
OPLS_2005

> <r_lp_Energy>
21.2292

> <b_lp_Chiralities_Consistent>
1

> <s_lp_Variant>
AV-unprocessed.smi:2671-4

> <Gold.Version>
5.8.1

> <Gold.Id.Protein>
6NUR|6NUR_protein|mol2

> <Gold.PLP.Fitness>
43.5876

> <Gold.PLP.PLP>
-40.9595

> <Gold.PLP.part.hbond>
-2.0000

> <Gold.PLP.part.metal>
0.0000

> <Gold.PLP.part.buried>
-3.8355

> <Gold.PLP.part.nonpolar>
-33.6356

> <Gold.PLP.part.repulsive>
0.3649

> <Gold.PLP.ligand.clash>
0.0000

> <Gold.PLP.ligand.torsion>
0.5187

> <Gold.PLP.Chemscore.Hbond>
1.2162

> <Gold.PLP.Chemscore.CHOScore>
0.0000

> <Gold.PLP.Chemscore.Metal>
0.0000

> <Gold.Chemscore.Hbonds>
donor molecule, donor type, donor heavy atom, donor atom, acceptor molecule, acceptor atom, score
      L1  H    18    19       P1  8028  1.00
      P1  H  8011  8017       L1     1  0.46

> <Gold.PLP.Chemscore.Internal.Correction>
0.0168

> <Gold.Rescore>
     Score         DG    S(hbond)    S(metal)    S(lipo)     H(rot)  DE(clash)    DE(int)     intcor
     14.80     -15.06       1.19        0.00      85.00       1.69       0.06       0.21       ----

> <Gold.Chemscore.Fitness>
14.8009

> <Gold.Chemscore.DG>
-15.0649

> <Gold.Chemscore.ZeroCoef>
-5.4800

> <Gold.Chemscore.Hbond>
1.1892

> <Gold.Chemscore.Metal>
0.0000

> <Gold.Chemscore.Lipo>
85.0032

> <Gold.Chemscore.Internal_Hbond>
0.0000

> <Gold.Chemscore.DEClash>
0.0558

> <Gold.Chemscore.DEInternal>
0.2082

> <Gold.Chemscore.Rot>
1.6924

> <Gold.Chemscore.Internal.Correction>
   9.000000E+99

> <Gold.Chemscore.Hbonds>
donor molecule, donor type, donor heavy atom, donor atom, acceptor molecule, acceptor atom, score
      L1  H    18    19       P1  8028  1.00
      P1  H  8011  8017       L1     1  0.09

> <Gold.Chemscore.Hbond.Weighted>
-3.9720

> <Gold.Chemscore.Metal.Weighted>
-0.0000

> <Gold.Chemscore.Lipo.Weighted>
-9.9454

> <Gold.Chemscore.Internal_Hbond.Weighted>
0.0000

> <Gold.Chemscore.DEClash.Weighted>
0.0558

> <Gold.Chemscore.DEInternal.Weighted>
0.2082

> <Gold.Chemscore.Rot.Weighted>
4.3324

> <Gold.Chemscore.Internal.Correction.Weighted>
   9.000000E+99

> <Gold.Protein.RotatedTorsions>
[ 6907 6896 6895 6894 ] final -110.58 input  -60.11 | X-H torsion
[ 7974 7965 7964 7962 ] final   38.24 input  175.53 | X-H torsion
[ 8008 7997 7996 7995 ] final   23.16 input   59.86 | X-H torsion
[ 10167 10162 10161 10158 ] final  -42.05 input  -65.29 | X-H torsion
[ 10718 10713 10712 10709 ] final -115.53 input   66.30 | X-H torsion
[ 10763 10752 10751 10750 ] final   27.00 input  -60.55 | X-H torsion
[ 11005 11000 10999 10996 ] final  157.35 input  -57.11 | X-H torsion

> <Gold.Protein.ActiveResidues>
 VAL166  LYS551  ARG553  GLY616  TRP617  ASP618  TYR619  PRO620  LYS621  CYS622 
 ASP623  PHE694  ASN695  SER759  ASP760  ASP761  ALA762  ILE779  LEU786  VAL792 
 PHE793  MET794  SER795  GLU796  ALA797  LYS798  CYS799  TRP800  GLU811  SER814 

> <Gold.Protein.RotatedAtoms>
  150.7634  133.9361  159.3441 H   0  0  0  0  0  0  0  0  0  0  0  0  # atno 6907 bound_to 6896
  151.7265  135.0882  160.0302 H   0  0  0  0  0  0  0  0  0  0  0  0  # atno 6908 bound_to 6896
  152.3617  133.6268  159.6056 H   0  0  0  0  0  0  0  0  0  0  0  0  # atno 6909 bound_to 6896
  146.1077  139.5796  142.9373 H   0  0  0  0  0  0  0  0  0  0  0  0  # atno 7974 bound_to 7965
  154.9767  140.3097  155.4964 H   0  0  0  0  0  0  0  0  0  0  0  0  # atno 8008 bound_to 7997
  156.2959  140.2274  156.4802 H   0  0  0  0  0  0  0  0  0  0  0  0  # atno 8009 bound_to 7997
  154.7827  140.0445  157.1128 H   0  0  0  0  0  0  0  0  0  0  0  0  # atno 8010 bound_to 7997
  140.6982  143.3059  151.3154 H   0  0  0  0  0  0  0  0  0  0  0  0  # atno 10167 bound_to 10162
  156.0901  130.6085  150.8917 H   0  0  0  0  0  0  0  0  0  0  0  0  # atno 10718 bound_to 10713
  153.0585  135.6547  154.0519 H   0  0  0  0  0  0  0  0  0  0  0  0  # atno 10763 bound_to 10752
  154.0192  135.2921  155.3384 H   0  0  0  0  0  0  0  0  0  0  0  0  # atno 10764 bound_to 10752
  154.6912  135.5282  153.8463 H   0  0  0  0  0  0  0  0  0  0  0  0  # atno 10765 bound_to 10752
  140.1761  134.8509  157.2748 H   0  0  0  0  0  0  0  0  0  0  0  0  # atno 11005 bound_to 11000
  145.5728  141.0392  143.2165 LP  0  0  0  0  0  0  0  0  0  0  0  0  # atno 17320 bound_to 7965
  144.7484  139.7257  143.7283 LP  0  0  0  0  0  0  0  0  0  0  0  0  # atno 17321 bound_to 7965
  139.6465  144.0441  152.2594 LP  0  0  0  0  0  0  0  0  0  0  0  0  # atno 17342 bound_to 10162
  139.9964  144.6325  150.7769 LP  0  0  0  0  0  0  0  0  0  0  0  0  # atno 17343 bound_to 10162
  157.6048  131.0939  150.8898 LP  0  0  0  0  0  0  0  0  0  0  0  0  # atno 17370 bound_to 10713
  156.9048  130.5259  149.5281 LP  0  0  0  0  0  0  0  0  0  0  0  0  # atno 17371 bound_to 10713
  140.2321  134.3897  155.7517 LP  0  0  0  0  0  0  0  0  0  0  0  0  # atno 17394 bound_to 11000
  141.2220  133.7220  156.8657 LP  0  0  0  0  0  0  0  0  0  0  0  0  # atno 17395 bound_to 11000

$$$$
