AV-unprocessed.smi:1726|AV-procd|sdf|6963|dock2
  -GOLD-   22720 8173D 1   1.00000     0.00000
 Structure written by MMmdl.
 42 43  0  0  0  0  0  0  0  0  3 V2000
  145.1320  135.7163  150.2757 C   0  0  0  0  0  0  0  0  0  0  0  0
  145.6138  137.1539  150.5194 C   0  0  0  0  0  0  0  0  0  0  0  0
  146.2855  137.3082  151.8336 N   0  3  1  0  0  0  0  0  0  0  0  0
  146.7034  138.7096  152.0989 C   0  0  0  0  0  0  0  0  0  0  0  0
  147.5308  138.8105  153.3932 C   0  0  0  0  0  0  0  0  0  0  0  0
  146.7846  138.1957  154.5901 C   0  0  0  0  0  0  0  0  0  0  0  0
  146.3213  136.7625  154.2725 C   0  0  2  0  0  0  0  0  0  0  0  0
  147.4819  135.8770  154.1726 N   0  0  0  0  0  0  0  0  0  0  0  0
  147.9223  135.0571  155.1373 C   0  0  0  0  0  0  0  0  0  0  0  0
  147.3958  134.9802  156.2470 O   0  0  0  0  0  0  0  0  0  0  0  0
  148.9671  134.3301  154.7036 N   0  0  0  0  0  0  0  0  0  0  0  0
  149.7003  133.3381  155.3756 C   0  0  0  0  0  0  0  0  0  0  0  0
  149.8911  132.0693  154.9194 C   0  0  0  0  0  0  0  0  0  0  0  0
  150.6575  131.0799  155.6665 C   0  0  0  0  0  0  0  0  0  0  0  0
  150.8282  129.6369  155.2256 C   0  0  0  0  0  0  0  0  0  0  0  0
  152.1156  129.3823  154.9959 F   0  0  0  0  0  0  0  0  0  0  0  0
  150.3989  128.7945  156.1656 F   0  0  0  0  0  0  0  0  0  0  0  0
  150.1497  129.3960  154.1035 F   0  0  0  0  0  0  0  0  0  0  0  0
  151.1196  131.5743  156.8709 C   0  0  0  0  0  0  0  0  0  0  0  0
  150.9819  132.8138  157.3906 N   0  5  0  0  0  0  0  0  0  0  0  0
  150.2713  133.7338  156.6794 C   0  0  0  0  0  0  0  0  0  0  0  0
  150.0997  134.8798  157.0971 O   0  0  0  0  0  0  0  0  0  0  0  0
  145.4931  136.7647  152.9684 C   0  0  0  0  0  0  0  0  0  0  0  0
  144.7284  135.6129  149.2682 H   0  0  0  0  0  0  0  0  0  0  0  0
  144.3448  135.4223  150.9693 H   0  0  0  0  0  0  0  0  0  0  0  0
  145.9517  135.0042  150.3768 H   0  0  0  0  0  0  0  0  0  0  0  0
  146.3180  137.4051  149.7250 H   0  0  0  0  0  0  0  0  0  0  0  0
  144.7867  137.8603  150.4340 H   0  0  0  0  0  0  0  0  0  0  0  0
  147.3002  139.0824  151.2655 H   0  0  0  0  0  0  0  0  0  0  0  0
  145.8196  139.3463  152.1661 H   0  0  0  0  0  0  0  0  0  0  0  0
  148.4862  138.3031  153.2543 H   0  0  0  0  0  0  0  0  0  0  0  0
  147.7687  139.8540  153.6011 H   0  0  0  0  0  0  0  0  0  0  0  0
  147.4180  138.2063  155.4781 H   0  0  0  0  0  0  0  0  0  0  0  0
  145.9159  138.8115  154.8270 H   0  0  0  0  0  0  0  0  0  0  0  0
  145.6950  136.4111  155.0943 H   0  0  0  0  0  0  0  0  0  0  0  0
  147.9815  135.8803  153.2951 H   0  0  0  0  0  0  0  0  0  0  0  0
  149.2415  134.4640  153.7413 H   0  0  0  0  0  0  0  0  0  0  0  0
  149.4618  131.7476  153.9849 H   0  0  0  0  0  0  0  0  0  0  0  0
  151.6824  130.8659  157.5154 H   0  0  0  0  0  0  0  0  0  0  0  0
  144.5911  137.3646  153.0998 H   0  0  0  0  0  0  0  0  0  0  0  0
  145.1527  135.7539  152.7482 H   0  0  0  0  0  0  0  0  0  0  0  0
  147.1350  136.7639  151.7828 H   0  0  0  0  0  0  0  0  0  0  0  0
  1  2  1  0  0  0  0
  1 24  1  0  0  0  0
  1 25  1  0  0  0  0
  1 26  1  0  0  0  0
  2  3  1  0  0  0  0
  2 27  1  0  0  0  0
  2 28  1  0  0  0  0
  3 23  1  0  0  0  0
  3  4  1  0  0  0  0
  3 42  1  0  0  0  0
  4  5  1  0  0  0  0
  4 29  1  0  0  0  0
  4 30  1  0  0  0  0
  5  6  1  0  0  0  0
  5 31  1  0  0  0  0
  5 32  1  0  0  0  0
  6  7  1  0  0  0  0
  6 33  1  0  0  0  0
  6 34  1  0  0  0  0
  7  8  1  0  0  0  0
  7 23  1  0  0  0  0
  7 35  1  0  0  0  0
  8  9  1  0  0  0  0
  8 36  1  0  0  0  0
  9 10  2  0  0  0  0
  9 11  1  0  0  0  0
 11 12  1  0  0  0  0
 11 37  1  0  0  0  0
 12 21  1  0  0  0  0
 12 13  2  0  0  0  0
 13 14  1  0  0  0  0
 13 38  1  0  0  0  0
 14 15  1  0  0  0  0
 14 19  2  0  0  0  0
 15 16  1  0  0  0  0
 15 17  1  0  0  0  0
 15 18  1  0  0  0  0
 19 20  1  0  0  0  0
 19 39  1  0  0  0  0
 20 21  1  0  0  0  0
 21 22  2  0  0  0  0
 23 40  1  0  0  0  0
 23 41  1  0  0  0  0
M  CHG  1   3   1
M  CHG  1  20  -1
M  END
> <s_m_source_file>
AV-unprocessed.smi

> <i_m_source_file_index>
1726

> <i_lp_mmshare_version>
43012

> <i_f3d_flags>
0

> <s_epik_input>
W0NIM11bQ0gyXU4xW0NIMl1bQ0gyXVtDSDJdW0NASF0oW0NIMl0xKVtOSF1DKD1PKVtOSF1jMltjSF1jKEMoRikoRilGKVtjSF1bbkhdYzI9Tw==

> <s_epik_cmdline>
J2VwaWtfcHl0aG9uJywgJy1waCcsICc3LjAnLCAnLXRuJywgJzgnLCAnLW1hJywgJzIwMCcsICctbWV0YWxfYmluZGluZycsICctaW1hZScsICc8aW5maWxlLm1hZT4nLCAnLW9tYWUnLCAnPG91dGZpbGUubWFlPic=

> <r_lp_tautomer_probability>
1

> <r_epik_Ionization_Penalty>
3.01007

> <r_epik_Ionization_Penalty_Charging>
0.14897

> <r_epik_Ionization_Penalty_Neutral>
2.8611

> <r_epik_State_Penalty>
2.85632

> <r_epik_Charging_Adjusted_Penalty>
3.00529

> <i_epik_Tot_Q>
0

> <i_epik_Tot_abs_Q>
2

> <r_epik_Metal_State_Penalty>
0.443826

> <b_epik_Metal_Only>
1

> <s_lp_Force_Field>
OPLS_2005

> <r_lp_Energy>
34.1377

> <b_lp_Chiralities_Consistent>
1

> <s_lp_Variant>
AV-unprocessed.smi:1726-7

> <Gold.Version>
5.8.1

> <Gold.Id.Protein>
6NUR|6NUR_protein|mol2

> <Gold.PLP.Fitness>
42.8916

> <Gold.PLP.PLP>
-30.5386

> <Gold.PLP.part.hbond>
-3.8007

> <Gold.PLP.part.metal>
0.0000

> <Gold.PLP.part.buried>
0.3232

> <Gold.PLP.part.nonpolar>
-28.3095

> <Gold.PLP.part.repulsive>
0.0821

> <Gold.PLP.ligand.clash>
0.0000

> <Gold.PLP.ligand.torsion>
0.9067

> <Gold.PLP.Chemscore.Hbond>
4.6960

> <Gold.PLP.Chemscore.CHOScore>
0.0000

> <Gold.PLP.Chemscore.Metal>
0.0000

> <Gold.Chemscore.Hbonds>
donor molecule, donor type, donor heavy atom, donor atom, acceptor molecule, acceptor atom, score
      L1  H     3    42       P1  7948  2.00
      L1  H     8    36       P1  7948  1.00
      P1  H  6896  6909       L1    20  1.79

> <Gold.PLP.Chemscore.Internal.Correction>
0.0784

> <Gold.Rescore>
     Score         DG    S(hbond)    S(metal)    S(lipo)     H(rot)  DE(clash)    DE(int)     intcor
     14.57     -17.67       2.55        0.00      59.38       1.28       1.50       1.60       ----

> <Gold.Chemscore.Fitness>
14.5682

> <Gold.Chemscore.DG>
-17.6681

> <Gold.Chemscore.ZeroCoef>
-5.4800

> <Gold.Chemscore.Hbond>
2.5498

> <Gold.Chemscore.Metal>
0.0000

> <Gold.Chemscore.Lipo>
59.3821

> <Gold.Chemscore.Internal_Hbond>
0.0000

> <Gold.Chemscore.DEClash>
1.5005

> <Gold.Chemscore.DEInternal>
1.5994

> <Gold.Chemscore.Rot>
1.2796

> <Gold.Chemscore.Internal.Correction>
   9.000000E+99

> <Gold.Chemscore.Hbonds>
donor molecule, donor type, donor heavy atom, donor atom, acceptor molecule, acceptor atom, score
      L1  H     3    42       P1  7948  1.00
      L1  H     8    36       P1  7948  1.00
      P1  H  6896  6909       L1    20  0.81

> <Gold.Chemscore.Hbond.Weighted>
-8.5163

> <Gold.Chemscore.Metal.Weighted>
-0.0000

> <Gold.Chemscore.Lipo.Weighted>
-6.9477

> <Gold.Chemscore.Internal_Hbond.Weighted>
0.0000

> <Gold.Chemscore.DEClash.Weighted>
1.5005

> <Gold.Chemscore.DEInternal.Weighted>
1.5994

> <Gold.Chemscore.Rot.Weighted>
3.2759

> <Gold.Chemscore.Internal.Correction.Weighted>
   9.000000E+99

> <Gold.Protein.RotatedTorsions>
[ 6907 6896 6895 6894 ] final  -51.75 input  -60.11 | X-H torsion
[ 7974 7965 7964 7962 ] final  115.91 input  175.53 | X-H torsion
[ 8008 7997 7996 7995 ] final -111.42 input   59.86 | X-H torsion
[ 10167 10162 10161 10158 ] final  177.44 input  -65.29 | X-H torsion
[ 10718 10713 10712 10709 ] final  -62.97 input   66.30 | X-H torsion
[ 10763 10752 10751 10750 ] final   23.30 input  -60.55 | X-H torsion
[ 11005 11000 10999 10996 ] final -101.14 input  -57.11 | X-H torsion

> <Gold.Protein.ActiveResidues>
 VAL166  LYS551  ARG553  GLY616  TRP617  ASP618  TYR619  PRO620  LYS621  CYS622 
 ASP623  PHE694  ASN695  SER759  ASP760  ASP761  ALA762  ILE779  LEU786  VAL792 
 PHE793  MET794  SER795  GLU796  ALA797  LYS798  CYS799  TRP800  GLU811  SER814 

> <Gold.Protein.RotatedAtoms>
  150.8582  134.7927  159.7062 H   0  0  0  0  0  0  0  0  0  0  0  0  # atno 6907 bound_to 6896
  152.4627  134.5143  159.9773 H   0  0  0  0  0  0  0  0  0  0  0  0  # atno 6908 bound_to 6896
  151.5252  133.3421  159.2944 H   0  0  0  0  0  0  0  0  0  0  0  0  # atno 6909 bound_to 6896
  145.1862  139.3024  143.4392 H   0  0  0  0  0  0  0  0  0  0  0  0  # atno 7974 bound_to 7965
  154.9895  140.0395  157.2313 H   0  0  0  0  0  0  0  0  0  0  0  0  # atno 8008 bound_to 7997
  154.7641  140.2790  155.6167 H   0  0  0  0  0  0  0  0  0  0  0  0  # atno 8009 bound_to 7997
  156.2909  140.2622  156.2427 H   0  0  0  0  0  0  0  0  0  0  0  0  # atno 8010 bound_to 7997
  139.5253  144.2797  152.0557 H   0  0  0  0  0  0  0  0  0  0  0  0  # atno 10167 bound_to 10162
  156.0821  130.4215  150.1210 H   0  0  0  0  0  0  0  0  0  0  0  0  # atno 10718 bound_to 10713
  153.0849  135.6630  153.9970 H   0  0  0  0  0  0  0  0  0  0  0  0  # atno 10763 bound_to 10752
  153.9582  135.2977  155.3436 H   0  0  0  0  0  0  0  0  0  0  0  0  # atno 10764 bound_to 10752
  154.7255  135.5146  153.8952 H   0  0  0  0  0  0  0  0  0  0  0  0  # atno 10765 bound_to 10752
  141.1243  133.8454  157.1194 H   0  0  0  0  0  0  0  0  0  0  0  0  # atno 11005 bound_to 11000
  146.3444  140.2058  142.8589 LP  0  0  0  0  0  0  0  0  0  0  0  0  # atno 17320 bound_to 7965
  145.0087  140.8695  143.5237 LP  0  0  0  0  0  0  0  0  0  0  0  0  # atno 17321 bound_to 7965
  140.2253  144.4424  150.6324 LP  0  0  0  0  0  0  0  0  0  0  0  0  # atno 17342 bound_to 10162
  140.6391  143.2200  151.6329 LP  0  0  0  0  0  0  0  0  0  0  0  0  # atno 17343 bound_to 10162
  156.9239  130.9692  151.3544 LP  0  0  0  0  0  0  0  0  0  0  0  0  # atno 17370 bound_to 10713
  157.5941  130.8465  149.8703 LP  0  0  0  0  0  0  0  0  0  0  0  0  # atno 17371 bound_to 10713
  140.0226  134.9938  157.0623 LP  0  0  0  0  0  0  0  0  0  0  0  0  # atno 17394 bound_to 11000
  140.4414  134.1677  155.7174 LP  0  0  0  0  0  0  0  0  0  0  0  0  # atno 17395 bound_to 11000

$$$$
