AV-unprocessed.smi:473|AV-procd|sdf|2662|dock3
  -GOLD-   2262023 73D 1   1.00000     0.00000
 Structure written by MMmdl.
 42 44  0  0  0  0  0  0  0  0  1 V2000
  151.9627  144.5752  159.3519 C   0  0  0  0  0  0  0  0  0  0  0  0
  151.9263  143.2059  158.6961 C   0  0  0  0  0  0  0  0  0  0  0  0
  151.2649  143.0546  157.4562 C   0  0  0  0  0  0  0  0  0  0  0  0
  151.2136  141.7994  156.8113 C   0  0  0  0  0  0  0  0  0  0  0  0
  150.6354  141.4283  155.6092 N   0  0  0  0  0  0  0  0  0  0  0  0
  150.9292  140.1321  155.5588 C   0  0  0  0  0  0  0  0  0  0  0  0
  151.6310  139.6189  156.5875 N   0  0  0  0  0  0  0  0  0  0  0  0
  152.0669  138.2439  156.7514 C   0  0  0  0  0  0  0  0  0  0  0  0
  150.9680  137.3464  157.3550 C   0  0  1  0  0  0  0  0  0  0  0  0
  151.3365  135.9816  157.3266 O   0  0  0  0  0  0  0  0  0  0  0  0
  150.5784  137.7318  158.7916 C   0  0  0  0  0  0  0  0  0  0  0  0
  149.8840  136.6600  159.4089 O   0  0  0  0  0  0  0  0  0  0  0  0
  148.4772  136.7472  159.2530 C   0  0  0  0  0  0  0  0  0  0  0  0
  147.8440  136.2088  160.4969 C   0  0  0  0  0  0  0  0  0  0  0  0
  147.7082  134.9431  160.9968 C   0  0  0  0  0  0  0  0  0  0  0  0
  147.0137  135.0683  162.2317 C   0  0  0  0  0  0  0  0  0  0  0  0
  146.7807  136.4034  162.3987 C   0  0  0  0  0  0  0  0  0  0  0  0
  147.2815  137.1132  161.3515 O   0  0  0  0  0  0  0  0  0  0  0  0
  151.8441  140.6906  157.4476 C   0  0  0  0  0  0  0  0  0  0  0  0
  152.5033  140.8279  158.6816 C   0  0  0  0  0  0  0  0  0  0  0  0
  152.5475  142.0893  159.3109 C   0  0  0  0  0  0  0  0  0  0  0  0
  153.2667  142.2275  160.6410 C   0  0  0  0  0  0  0  0  0  0  0  0
  151.4357  145.3183  158.7528 H   0  0  0  0  0  0  0  0  0  0  0  0
  152.9925  144.9126  159.4725 H   0  0  0  0  0  0  0  0  0  0  0  0
  151.4916  144.5423  160.3344 H   0  0  0  0  0  0  0  0  0  0  0  0
  150.7920  143.9048  156.9871 H   0  0  0  0  0  0  0  0  0  0  0  0
  150.6191  139.5198  154.7248 H   0  0  0  0  0  0  0  0  0  0  0  0
  152.3844  137.8672  155.7782 H   0  0  0  0  0  0  0  0  0  0  0  0
  152.9510  138.2368  157.3901 H   0  0  0  0  0  0  0  0  0  0  0  0
  150.0747  137.4295  156.7347 H   0  0  0  0  0  0  0  0  0  0  0  0
  150.8923  135.5368  158.0323 H   0  0  0  0  0  0  0  0  0  0  0  0
  151.4827  137.9409  159.3650 H   0  0  0  0  0  0  0  0  0  0  0  0
  149.9759  138.6419  158.7977 H   0  0  0  0  0  0  0  0  0  0  0  0
  148.1743  137.7837  159.0975 H   0  0  0  0  0  0  0  0  0  0  0  0
  148.1528  136.1678  158.3877 H   0  0  0  0  0  0  0  0  0  0  0  0
  148.0643  134.0372  160.5290 H   0  0  0  0  0  0  0  0  0  0  0  0
  146.7227  134.2816  162.9121 H   0  0  0  0  0  0  0  0  0  0  0  0
  146.2974  136.9910  163.1655 H   0  0  0  0  0  0  0  0  0  0  0  0
  152.9746  139.9690  159.1367 H   0  0  0  0  0  0  0  0  0  0  0  0
  153.6749  141.2724  160.9731 H   0  0  0  0  0  0  0  0  0  0  0  0
  152.5824  142.5838  161.4114 H   0  0  0  0  0  0  0  0  0  0  0  0
  154.0933  142.9332  160.5561 H   0  0  0  0  0  0  0  0  0  0  0  0
  1  2  1  0  0  0  0
  1 23  1  0  0  0  0
  1 24  1  0  0  0  0
  1 25  1  0  0  0  0
  2 21  1  0  0  0  0
  2  3  2  0  0  0  0
  3  4  1  0  0  0  0
  3 26  1  0  0  0  0
  4 19  2  0  0  0  0
  4  5  1  0  0  0  0
  5  6  2  0  0  0  0
  6  7  1  0  0  0  0
  6 27  1  0  0  0  0
  7  8  1  0  0  0  0
  7 19  1  0  0  0  0
  8  9  1  0  0  0  0
  8 28  1  0  0  0  0
  8 29  1  0  0  0  0
  9 10  1  0  0  0  0
  9 11  1  0  0  0  0
  9 30  1  0  0  0  0
 10 31  1  0  0  0  0
 11 12  1  0  0  0  0
 11 32  1  0  0  0  0
 11 33  1  0  0  0  0
 12 13  1  0  0  0  0
 13 14  1  0  0  0  0
 13 34  1  0  0  0  0
 13 35  1  0  0  0  0
 14 18  1  0  0  0  0
 14 15  2  0  0  0  0
 15 16  1  0  0  0  0
 15 36  1  0  0  0  0
 16 17  2  0  0  0  0
 16 37  1  0  0  0  0
 17 18  1  0  0  0  0
 17 38  1  0  0  0  0
 19 20  1  0  0  0  0
 20 21  2  0  0  0  0
 20 39  1  0  0  0  0
 21 22  1  0  0  0  0
 22 40  1  0  0  0  0
 22 41  1  0  0  0  0
 22 42  1  0  0  0  0
M  END
> <s_m_source_file>
AV-unprocessed.smi

> <i_m_source_file_index>
473

> <i_lp_mmshare_version>
43012

> <i_f3d_flags>
0

> <s_epik_input>
W0NIM11jKFtjSF0xKWMoW0NIM10pW2NIXWMoYzEyKW4oW2NIXW4yKVtDSDJdW0NASF0oW09IXSlbQ0gyXU9bQ0gyXWMzW2NIXVtjSF1bY0hdbzM=

> <s_epik_cmdline>
J2VwaWtfcHl0aG9uJywgJy1waCcsICc3LjAnLCAnLXRuJywgJzgnLCAnLW1hJywgJzIwMCcsICctbWV0YWxfYmluZGluZycsICctaW1hZScsICc8aW5maWxlLm1hZT4nLCAnLW9tYWUnLCAnPG91dGZpbGUubWFlPic=

> <r_epik_Ionization_Penalty>
0.112477

> <r_epik_Ionization_Penalty_Charging>
0

> <r_epik_Ionization_Penalty_Neutral>
0.112477

> <r_epik_State_Penalty>
0.102177

> <r_epik_Charging_Adjusted_Penalty>
0.102177

> <i_epik_Tot_Q>
0

> <i_epik_Tot_abs_Q>
0

> <r_epik_Metal_State_Penalty>
0.000111506

> <b_epik_Metal_Only>
0

> <s_lp_Force_Field>
OPLS_2005

> <r_lp_Energy>
9.30743

> <b_lp_Chiralities_Consistent>
1

> <s_lp_Variant>
AV-unprocessed.smi:473-2

> <Gold.Version>
5.8.1

> <Gold.Id.Protein>
6NUR|6NUR_protein|mol2

> <Gold.PLP.Fitness>
56.3716

> <Gold.PLP.PLP>
-50.2512

> <Gold.PLP.part.hbond>
-4.4217

> <Gold.PLP.part.metal>
0.0000

> <Gold.PLP.part.buried>
-5.3665

> <Gold.PLP.part.nonpolar>
-39.0374

> <Gold.PLP.part.repulsive>
0.0764

> <Gold.PLP.ligand.clash>
0.0000

> <Gold.PLP.ligand.torsion>
1.1356

> <Gold.PLP.Chemscore.Hbond>
2.7760

> <Gold.PLP.Chemscore.CHOScore>
0.0000

> <Gold.PLP.Chemscore.Metal>
0.0000

> <Gold.Chemscore.Hbonds>
donor molecule, donor type, donor heavy atom, donor atom, acceptor molecule, acceptor atom, score
      P1  H  6896  6909       L1    12  0.96
      P1  H  6931  6943       L1    18  0.61
      P1  H  6934  6947       L1    18  1.00

> <Gold.PLP.Chemscore.Internal.Correction>
0.0636

> <Gold.Rescore>
     Score         DG    S(hbond)    S(metal)    S(lipo)     H(rot)  DE(clash)    DE(int)     intcor
     20.25     -21.47       2.25        0.00     125.10       2.41       0.02       1.20       ----

> <Gold.Chemscore.Fitness>
20.2460

> <Gold.Chemscore.DG>
-21.4698

> <Gold.Chemscore.ZeroCoef>
-5.4800

> <Gold.Chemscore.Hbond>
2.2509

> <Gold.Chemscore.Metal>
0.0000

> <Gold.Chemscore.Lipo>
125.1046

> <Gold.Chemscore.Internal_Hbond>
0.0000

> <Gold.Chemscore.DEClash>
0.0200

> <Gold.Chemscore.DEInternal>
1.2038

> <Gold.Chemscore.Rot>
2.4083

> <Gold.Chemscore.Internal.Correction>
   9.000000E+99

> <Gold.Chemscore.Hbonds>
donor molecule, donor type, donor heavy atom, donor atom, acceptor molecule, acceptor atom, score
      P1  H  6896  6909       L1    12  0.88
      P1  H  6931  6943       L1    18  0.15
      P1  H  6934  6947       L1    18  0.94

> <Gold.Chemscore.Hbond.Weighted>
-7.5179

> <Gold.Chemscore.Metal.Weighted>
-0.0000

> <Gold.Chemscore.Lipo.Weighted>
-14.6372

> <Gold.Chemscore.Internal_Hbond.Weighted>
0.0000

> <Gold.Chemscore.DEClash.Weighted>
0.0200

> <Gold.Chemscore.DEInternal.Weighted>
1.2038

> <Gold.Chemscore.Rot.Weighted>
6.1653

> <Gold.Chemscore.Internal.Correction.Weighted>
   9.000000E+99

> <Gold.Protein.RotatedTorsions>
[ 6907 6896 6895 6894 ] final   71.05 input  -60.11 | X-H torsion
[ 7974 7965 7964 7962 ] final   -3.75 input  175.53 | X-H torsion
[ 8008 7997 7996 7995 ] final   37.20 input   59.86 | X-H torsion
[ 10167 10162 10161 10158 ] final -112.78 input  -65.29 | X-H torsion
[ 10718 10713 10712 10709 ] final   78.42 input   66.30 | X-H torsion
[ 10763 10752 10751 10750 ] final   35.77 input  -60.55 | X-H torsion
[ 11005 11000 10999 10996 ] final  -36.60 input  -57.11 | X-H torsion

> <Gold.Protein.ActiveResidues>
 VAL166  LYS551  ARG553  GLY616  TRP617  ASP618  TYR619  PRO620  LYS621  CYS622 
 ASP623  PHE694  ASN695  SER759  ASP760  ASP761  ALA762  ILE779  LEU786  VAL792 
 PHE793  MET794  SER795  GLU796  ALA797  LYS798  CYS799  TRP800  GLU811  SER814 

> <Gold.Protein.RotatedAtoms>
  152.4787  134.4778  159.9655 H   0  0  0  0  0  0  0  0  0  0  0  0  # atno 6907 bound_to 6896
  151.4788  133.3545  159.2843 H   0  0  0  0  0  0  0  0  0  0  0  0  # atno 6908 bound_to 6896
  150.8843  134.8265  159.7308 H   0  0  0  0  0  0  0  0  0  0  0  0  # atno 6909 bound_to 6896
  146.2384  140.1767  142.8332 H   0  0  0  0  0  0  0  0  0  0  0  0  # atno 7974 bound_to 7965
  155.1999  140.3315  155.4345 H   0  0  0  0  0  0  0  0  0  0  0  0  # atno 8008 bound_to 7997
  156.2411  140.1895  156.7036 H   0  0  0  0  0  0  0  0  0  0  0  0  # atno 8009 bound_to 7997
  154.6148  140.0603  156.9526 H   0  0  0  0  0  0  0  0  0  0  0  0  # atno 8010 bound_to 7997
  140.1190  143.4460  152.1703 H   0  0  0  0  0  0  0  0  0  0  0  0  # atno 10167 bound_to 10162
  157.6744  130.9867  150.1783 H   0  0  0  0  0  0  0  0  0  0  0  0  # atno 10718 bound_to 10713
  153.0105  135.6324  154.1879 H   0  0  0  0  0  0  0  0  0  0  0  0  # atno 10763 bound_to 10752
  154.1622  135.2823  155.3107 H   0  0  0  0  0  0  0  0  0  0  0  0  # atno 10764 bound_to 10752
  154.5973  135.5598  153.7399 H   0  0  0  0  0  0  0  0  0  0  0  0  # atno 10765 bound_to 10752
  140.9887  133.7016  156.1812 H   0  0  0  0  0  0  0  0  0  0  0  0  # atno 11005 bound_to 11000
  144.9967  140.8596  143.5306 LP  0  0  0  0  0  0  0  0  0  0  0  0  # atno 17320 bound_to 7965
  145.1781  139.2367  143.5307 LP  0  0  0  0  0  0  0  0  0  0  0  0  # atno 17321 bound_to 7965
  139.5578  144.7385  151.4242 LP  0  0  0  0  0  0  0  0  0  0  0  0  # atno 17342 bound_to 10162
  140.6882  143.7923  150.7217 LP  0  0  0  0  0  0  0  0  0  0  0  0  # atno 17343 bound_to 10162
  156.2521  130.3701  149.8220 LP  0  0  0  0  0  0  0  0  0  0  0  0  # atno 17370 bound_to 10713
  156.5990  130.8538  151.3427 LP  0  0  0  0  0  0  0  0  0  0  0  0  # atno 17371 bound_to 10713
  140.7074  134.4499  157.5583 LP  0  0  0  0  0  0  0  0  0  0  0  0  # atno 17394 bound_to 11000
  139.8982  134.8618  156.2010 LP  0  0  0  0  0  0  0  0  0  0  0  0  # atno 17395 bound_to 11000

$$$$
