AV-unprocessed.smi:2037|AV-procd|sdf|8278|dock5
  -GOLD-   2272010543D 1   1.00000     0.00000
 Structure written by MMmdl.
 38 39  0  0  0  0  0  0  0  0  3 V2000
  143.8504  131.9249  150.1828 C   0  0  0  0  0  0  0  0  0  0  0  0
  144.8996  132.2978  151.2393 C   0  0  2  0  0  0  0  0  0  0  0  0
  146.1173  132.9964  150.6126 C   0  0  0  0  0  0  0  0  0  0  0  0
  147.1692  133.3449  151.6790 C   0  0  0  0  0  0  0  0  0  0  0  0
  147.5998  132.1377  152.4314 N   0  3  1  0  0  0  0  0  0  0  0  0
  148.7006  132.4405  153.3807 C   0  0  0  0  0  0  0  0  0  0  0  0
  148.2709  133.4041  154.4980 C   0  0  0  0  0  0  0  0  0  0  0  0
  148.8234  134.7297  154.2582 N   0  0  0  0  0  0  0  0  0  0  0  0
  149.5449  135.4363  155.1375 C   0  0  0  0  0  0  0  0  0  0  0  0
  149.7861  134.9662  156.2516 O   0  0  0  0  0  0  0  0  0  0  0  0
  149.9402  136.6412  154.6691 N   0  5  0  0  0  0  0  0  0  0  0  0
  150.9485  137.2978  155.2658 C   0  0  0  0  0  0  0  0  0  0  0  0
  151.7880  136.7129  156.1276 N   0  0  0  0  0  0  0  0  0  0  0  0
  152.7557  137.5811  156.6365 C   0  0  0  0  0  0  0  0  0  0  0  0
  152.6460  138.8589  156.1560 C   0  0  0  0  0  0  0  0  0  0  0  0
  151.3148  139.0114  155.0448 S   0  0  0  0  0  0  0  0  0  0  0  0
  146.4439  131.4523  153.0695 C   0  0  0  0  0  0  0  0  0  0  0  0
  145.3779  131.0684  152.0289 C   0  0  0  0  0  0  0  0  0  0  0  0
  144.2577  131.2347  149.4433 H   0  0  0  0  0  0  0  0  0  0  0  0
  143.4962  132.8096  149.6527 H   0  0  0  0  0  0  0  0  0  0  0  0
  142.9835  131.4484  150.6416 H   0  0  0  0  0  0  0  0  0  0  0  0
  144.4318  132.9913  151.9399 H   0  0  0  0  0  0  0  0  0  0  0  0
  146.5662  132.3519  149.8551 H   0  0  0  0  0  0  0  0  0  0  0  0
  145.8029  133.9051  150.0979 H   0  0  0  0  0  0  0  0  0  0  0  0
  148.0311  133.8025  151.1913 H   0  0  0  0  0  0  0  0  0  0  0  0
  146.7691  134.0843  152.3745 H   0  0  0  0  0  0  0  0  0  0  0  0
  149.0344  131.5128  153.8483 H   0  0  0  0  0  0  0  0  0  0  0  0
  149.5593  132.8372  152.8362 H   0  0  0  0  0  0  0  0  0  0  0  0
  147.1849  133.4822  154.5509 H   0  0  0  0  0  0  0  0  0  0  0  0
  148.6191  133.0408  155.4660 H   0  0  0  0  0  0  0  0  0  0  0  0
  148.6487  135.1503  153.3571 H   0  0  0  0  0  0  0  0  0  0  0  0
  153.4845  137.2033  157.3378 H   0  0  0  0  0  0  0  0  0  0  0  0
  153.2615  139.7150  156.3871 H   0  0  0  0  0  0  0  0  0  0  0  0
  146.7712  130.5481  153.5807 H   0  0  0  0  0  0  0  0  0  0  0  0
  146.0078  132.1031  153.8291 H   0  0  0  0  0  0  0  0  0  0  0  0
  144.5330  130.5941  152.5292 H   0  0  0  0  0  0  0  0  0  0  0  0
  145.7882  130.3241  151.3446 H   0  0  0  0  0  0  0  0  0  0  0  0
  147.9813  131.4997  151.7476 H   0  0  0  0  0  0  0  0  0  0  0  0
  1  2  1  0  0  0  0
  1 19  1  0  0  0  0
  1 20  1  0  0  0  0
  1 21  1  0  0  0  0
  2 18  1  0  0  0  0
  2  3  1  0  0  0  0
  2 22  1  0  0  0  0
  3  4  1  0  0  0  0
  3 23  1  0  0  0  0
  3 24  1  0  0  0  0
  4  5  1  0  0  0  0
  4 25  1  0  0  0  0
  4 26  1  0  0  0  0
  5  6  1  0  0  0  0
  5 17  1  0  0  0  0
  5 38  1  0  0  0  0
  6  7  1  0  0  0  0
  6 27  1  0  0  0  0
  6 28  1  0  0  0  0
  7  8  1  0  0  0  0
  7 29  1  0  0  0  0
  7 30  1  0  0  0  0
  8  9  1  0  0  0  0
  8 31  1  0  0  0  0
  9 10  2  0  0  0  0
  9 11  1  0  0  0  0
 11 12  1  0  0  0  0
 12 16  1  0  0  0  0
 12 13  2  0  0  0  0
 13 14  1  0  0  0  0
 14 15  2  0  0  0  0
 14 32  1  0  0  0  0
 15 16  1  0  0  0  0
 15 33  1  0  0  0  0
 17 18  1  0  0  0  0
 17 34  1  0  0  0  0
 17 35  1  0  0  0  0
 18 36  1  0  0  0  0
 18 37  1  0  0  0  0
M  CHG  1   5   1
M  CHG  1  11  -1
M  END
> <s_m_source_file>
AV-unprocessed.smi

> <i_m_source_file_index>
2037

> <i_lp_mmshare_version>
43012

> <i_f3d_flags>
0

> <s_epik_input>
W0NIM11bQ0hdMVtDSDJdW0NIMl1OKFtDSDJdW0NIMl0xKVtDSDJdW0NIMl1bTkhdQyg9TylbTkhdYzJuW2NIXVtjSF1zMg==

> <s_epik_cmdline>
J2VwaWtfcHl0aG9uJywgJy1waCcsICc3LjAnLCAnLXRuJywgJzgnLCAnLW1hJywgJzIwMCcsICctbWV0YWxfYmluZGluZycsICctaW1hZScsICc8aW5maWxlLm1hZT4nLCAnLW9tYWUnLCAnPG91dGZpbGUubWFlPic=

> <r_lp_tautomer_probability>
0.999

> <r_epik_Ionization_Penalty>
6.22113

> <r_epik_Ionization_Penalty_Charging>
5.39005

> <r_epik_Ionization_Penalty_Neutral>
0.831074

> <r_epik_State_Penalty>
5.38997

> <r_epik_Charging_Adjusted_Penalty>
10.78

> <i_epik_Tot_Q>
0

> <i_epik_Tot_abs_Q>
2

> <r_epik_Metal_State_Penalty>
1.41601

> <b_epik_Metal_Only>
1

> <s_lp_Force_Field>
OPLS_2005

> <r_lp_Energy>
7.40316

> <b_lp_Chiralities_Consistent>
1

> <s_lp_Variant>
AV-unprocessed.smi:2037-3

> <Gold.Version>
5.8.1

> <Gold.Id.Protein>
6NUR|6NUR_protein|mol2

> <Gold.PLP.Fitness>
39.7068

> <Gold.PLP.PLP>
-31.5956

> <Gold.PLP.part.hbond>
-3.0000

> <Gold.PLP.part.metal>
0.0000

> <Gold.PLP.part.buried>
-3.7649

> <Gold.PLP.part.nonpolar>
-26.1805

> <Gold.PLP.part.repulsive>
1.3892

> <Gold.PLP.ligand.clash>
0.0000

> <Gold.PLP.ligand.torsion>
0.4784

> <Gold.PLP.Chemscore.Hbond>
3.0000

> <Gold.PLP.Chemscore.CHOScore>
0.0000

> <Gold.PLP.Chemscore.Metal>
0.0000

> <Gold.Chemscore.Hbonds>
donor molecule, donor type, donor heavy atom, donor atom, acceptor molecule, acceptor atom, score
      L1  H     5    38       P1 10747  1.00
      L1  H     8    31       P1  7948  1.00
      P1  H 10752 10763       L1    13  0.66

> <Gold.PLP.Chemscore.Internal.Correction>
0.0680

> <Gold.Rescore>
     Score         DG    S(hbond)    S(metal)    S(lipo)     H(rot)  DE(clash)    DE(int)     intcor
     16.56     -18.76       2.52        0.00      75.85       1.57       0.12       2.09       ----

> <Gold.Chemscore.Fitness>
16.5577

> <Gold.Chemscore.DG>
-18.7598

> <Gold.Chemscore.ZeroCoef>
-5.4800

> <Gold.Chemscore.Hbond>
2.5206

> <Gold.Chemscore.Metal>
0.0000

> <Gold.Chemscore.Lipo>
75.8453

> <Gold.Chemscore.Internal_Hbond>
0.0000

> <Gold.Chemscore.DEClash>
0.1160

> <Gold.Chemscore.DEInternal>
2.0861

> <Gold.Chemscore.Rot>
1.5676

> <Gold.Chemscore.Internal.Correction>
   9.000000E+99

> <Gold.Chemscore.Hbonds>
donor molecule, donor type, donor heavy atom, donor atom, acceptor molecule, acceptor atom, score
      L1  H     5    38       P1 10747  0.99
      L1  H     8    31       P1  7948  0.78
      P1  H 10752 10763       L1    13  0.07

> <Gold.Chemscore.Hbond.Weighted>
-8.4190

> <Gold.Chemscore.Metal.Weighted>
-0.0000

> <Gold.Chemscore.Lipo.Weighted>
-8.8739

> <Gold.Chemscore.Internal_Hbond.Weighted>
0.0000

> <Gold.Chemscore.DEClash.Weighted>
0.1160

> <Gold.Chemscore.DEInternal.Weighted>
2.0861

> <Gold.Chemscore.Rot.Weighted>
4.0130

> <Gold.Chemscore.Internal.Correction.Weighted>
   9.000000E+99

> <Gold.Protein.RotatedTorsions>
[ 6907 6896 6895 6894 ] final  147.27 input  -60.11 | X-H torsion
[ 7974 7965 7964 7962 ] final -111.17 input  175.53 | X-H torsion
[ 8008 7997 7996 7995 ] final   -1.74 input   59.86 | X-H torsion
[ 10167 10162 10161 10158 ] final -109.89 input  -65.29 | X-H torsion
[ 10718 10713 10712 10709 ] final  -71.34 input   66.30 | X-H torsion
[ 10763 10752 10751 10750 ] final   84.59 input  -60.55 | X-H torsion
[ 11005 11000 10999 10996 ] final  161.16 input  -57.11 | X-H torsion

> <Gold.Protein.ActiveResidues>
 VAL166  LYS551  ARG553  GLY616  TRP617  ASP618  TYR619  PRO620  LYS621  CYS622 
 ASP623  PHE694  ASN695  SER759  ASP760  ASP761  ALA762  ILE779  LEU786  VAL792 
 PHE793  MET794  SER795  GLU796  ALA797  LYS798  CYS799  TRP800  GLU811  SER814 

> <Gold.Protein.RotatedAtoms>
  152.1570  133.4557  159.4841 H   0  0  0  0  0  0  0  0  0  0  0  0  # atno 6907 bound_to 6896
  150.6902  134.2119  159.4371 H   0  0  0  0  0  0  0  0  0  0  0  0  # atno 6908 bound_to 6896
  152.0019  134.9923  160.0616 H   0  0  0  0  0  0  0  0  0  0  0  0  # atno 6909 bound_to 6896
  145.1593  140.8870  143.3600 H   0  0  0  0  0  0  0  0  0  0  0  0  # atno 7974 bound_to 7965
  154.6435  140.2552  155.7295 H   0  0  0  0  0  0  0  0  0  0  0  0  # atno 8008 bound_to 7997
  156.2540  140.2882  156.0759 H   0  0  0  0  0  0  0  0  0  0  0  0  # atno 8009 bound_to 7997
  155.1560  140.0383  157.2822 H   0  0  0  0  0  0  0  0  0  0  0  0  # atno 8010 bound_to 7997
  140.1504  143.4204  152.1499 H   0  0  0  0  0  0  0  0  0  0  0  0  # atno 10167 bound_to 10162
  156.0367  130.4349  150.2430 H   0  0  0  0  0  0  0  0  0  0  0  0  # atno 10718 bound_to 10713
  153.1396  135.4648  154.9475 H   0  0  0  0  0  0  0  0  0  0  0  0  # atno 10763 bound_to 10752
  154.7736  135.3166  154.8142 H   0  0  0  0  0  0  0  0  0  0  0  0  # atno 10764 bound_to 10752
  153.8667  135.6907  153.4832 H   0  0  0  0  0  0  0  0  0  0  0  0  # atno 10765 bound_to 10752
  140.2130  134.8253  157.3141 H   0  0  0  0  0  0  0  0  0  0  0  0  # atno 11005 bound_to 11000
  145.0348  139.3310  143.6006 LP  0  0  0  0  0  0  0  0  0  0  0  0  # atno 17320 bound_to 7965
  146.3484  139.9699  142.8707 LP  0  0  0  0  0  0  0  0  0  0  0  0  # atno 17321 bound_to 7965
  139.5428  144.7272  151.4677 LP  0  0  0  0  0  0  0  0  0  0  0  0  # atno 17342 bound_to 10162
  140.6706  143.8302  150.6994 LP  0  0  0  0  0  0  0  0  0  0  0  0  # atno 17343 bound_to 10162
  157.0528  131.0067  151.3248 LP  0  0  0  0  0  0  0  0  0  0  0  0  # atno 17370 bound_to 10713
  157.5128  130.7949  149.7723 LP  0  0  0  0  0  0  0  0  0  0  0  0  # atno 17371 bound_to 10713
  140.1930  134.4348  155.7705 LP  0  0  0  0  0  0  0  0  0  0  0  0  # atno 17394 bound_to 11000
  141.2225  133.7036  156.8059 LP  0  0  0  0  0  0  0  0  0  0  0  0  # atno 17395 bound_to 11000

$$$$
