AV-unprocessed.smi:1720|AV-procd|sdf|6932|dock2
  -GOLD-   22720 8143D 1   1.00000     0.00000
 Structure written by MMmdl.
 32 33  0  0  0  0  0  0  0  0  1 V2000
  147.0213  140.2237  153.2570 C   0  0  0  0  0  0  0  0  0  0  0  0
  147.7853  139.0446  153.8770 C   0  0  1  0  0  0  0  0  0  0  0  0
  147.5568  137.8544  153.0590 N   0  0  0  0  0  0  0  0  0  0  0  0
  146.3623  137.3220  152.7623 C   0  0  0  0  0  0  0  0  0  0  0  0
  145.2909  137.7792  153.1604 O   0  0  0  0  0  0  0  0  0  0  0  0
  146.4954  136.2335  151.9870 N   0  0  0  0  0  0  0  0  0  0  0  0
  145.4613  135.4085  151.4765 C   0  0  0  0  0  0  0  0  0  0  0  0
  145.5729  134.0072  151.2670 C   0  0  0  0  0  0  0  0  0  0  0  0
  144.4490  133.4996  150.7818 N   0  0  0  0  0  0  0  0  0  0  0  0
  143.6213  134.5640  150.6777 N   0  0  0  0  0  0  0  0  0  0  0  0
  144.1952  135.7469  151.0883 C   0  0  0  0  0  0  0  0  0  0  0  0
  149.2955  139.3370  153.9964 C   0  0  2  0  0  0  0  0  0  0  0  0
  150.1246  138.2153  154.6276 C   0  0  0  0  0  0  0  0  0  0  0  0
  151.3174  138.9764  155.1573 C   0  0  0  0  0  0  0  0  0  0  0  0
  150.6627  140.2571  155.6639 C   0  0  0  0  0  0  0  0  0  0  0  0
  149.5208  140.4672  154.8373 O   0  0  0  0  0  0  0  0  0  0  0  0
  142.6780  134.4680  150.3293 H   0  0  0  0  0  0  0  0  0  0  0  0
  147.1250  141.1232  153.8647 H   0  0  0  0  0  0  0  0  0  0  0  0
  145.9560  140.0039  153.1795 H   0  0  0  0  0  0  0  0  0  0  0  0
  147.3882  140.4546  152.2562 H   0  0  0  0  0  0  0  0  0  0  0  0
  147.3856  138.8883  154.8806 H   0  0  0  0  0  0  0  0  0  0  0  0
  148.3789  137.4031  152.6854 H   0  0  0  0  0  0  0  0  0  0  0  0
  147.4358  135.9638  151.7384 H   0  0  0  0  0  0  0  0  0  0  0  0
  146.4145  133.3546  151.4479 H   0  0  0  0  0  0  0  0  0  0  0  0
  143.6631  136.6863  151.0646 H   0  0  0  0  0  0  0  0  0  0  0  0
  149.7108  139.5707  153.0145 H   0  0  0  0  0  0  0  0  0  0  0  0
  149.5828  137.7528  155.4541 H   0  0  0  0  0  0  0  0  0  0  0  0
  150.3971  137.4342  153.9173 H   0  0  0  0  0  0  0  0  0  0  0  0
  151.8624  138.4391  155.9340 H   0  0  0  0  0  0  0  0  0  0  0  0
  152.0091  139.2015  154.3443 H   0  0  0  0  0  0  0  0  0  0  0  0
  150.3241  140.1302  156.6928 H   0  0  0  0  0  0  0  0  0  0  0  0
  151.3400  141.1107  155.6339 H   0  0  0  0  0  0  0  0  0  0  0  0
  1  2  1  0  0  0  0
  1 18  1  0  0  0  0
  1 19  1  0  0  0  0
  1 20  1  0  0  0  0
  2  3  1  0  0  0  0
  2 12  1  0  0  0  0
  2 21  1  0  0  0  0
  3  4  1  0  0  0  0
  3 22  1  0  0  0  0
  4  5  2  0  0  0  0
  4  6  1  0  0  0  0
  6  7  1  0  0  0  0
  6 23  1  0  0  0  0
  7 11  2  0  0  0  0
  7  8  1  0  0  0  0
  8  9  2  0  0  0  0
  8 24  1  0  0  0  0
  9 10  1  0  0  0  0
 10 17  1  0  0  0  0
 10 11  1  0  0  0  0
 11 25  1  0  0  0  0
 12 16  1  0  0  0  0
 12 13  1  0  0  0  0
 12 26  1  0  0  0  0
 13 14  1  0  0  0  0
 13 27  1  0  0  0  0
 13 28  1  0  0  0  0
 14 15  1  0  0  0  0
 14 29  1  0  0  0  0
 14 30  1  0  0  0  0
 15 16  1  0  0  0  0
 15 31  1  0  0  0  0
 15 32  1  0  0  0  0
M  END
> <s_m_source_file>
AV-unprocessed.smi

> <i_m_source_file_index>
1720

> <i_lp_mmshare_version>
43012

> <i_f3d_flags>
0

> <s_epik_input>
TzFbQ0gyXVtDSDJdW0NIMl1bQ0BIXTFbQ0BIXShbQ0gzXSlbTkhdQyg9TylbTkhdYzJbY0hdbltuSF1bY0hdMg==

> <s_epik_cmdline>
J2VwaWtfcHl0aG9uJywgJy1waCcsICc3LjAnLCAnLXRuJywgJzgnLCAnLW1hJywgJzIwMCcsICctbWV0YWxfYmluZGluZycsICctaW1hZScsICc8aW5maWxlLm1hZT4nLCAnLW9tYWUnLCAnPG91dGZpbGUubWFlPic=

> <r_lp_tautomer_probability>
1

> <r_epik_Ionization_Penalty>
4.95841e-05

> <r_epik_Ionization_Penalty_Charging>
0

> <r_epik_Ionization_Penalty_Neutral>
4.95841e-05

> <r_epik_State_Penalty>
-0

> <r_epik_Charging_Adjusted_Penalty>
0

> <i_epik_Tot_Q>
0

> <i_epik_Tot_abs_Q>
0

> <r_epik_Metal_State_Penalty>
-0

> <b_epik_Metal_Only>
0

> <s_lp_Force_Field>
OPLS_2005

> <r_lp_Energy>
20.0519

> <b_lp_Chiralities_Consistent>
1

> <s_lp_Variant>
AV-unprocessed.smi:1720-2

> <Gold.Version>
5.8.1

> <Gold.Id.Protein>
6NUR|6NUR_protein|mol2

> <Gold.PLP.Fitness>
35.0099

> <Gold.PLP.PLP>
-23.4975

> <Gold.PLP.part.hbond>
-2.8463

> <Gold.PLP.part.metal>
0.0000

> <Gold.PLP.part.buried>
-0.6440

> <Gold.PLP.part.nonpolar>
-21.3679

> <Gold.PLP.part.repulsive>
0.5293

> <Gold.PLP.ligand.clash>
0.0000

> <Gold.PLP.ligand.torsion>
0.2312

> <Gold.PLP.Chemscore.Hbond>
2.9920

> <Gold.PLP.Chemscore.CHOScore>
0.9966

> <Gold.PLP.Chemscore.Metal>
0.0000

> <Gold.Chemscore.Hbonds>
donor molecule, donor type, donor heavy atom, donor atom, acceptor molecule, acceptor atom, score
      L1  H     3    22       P1  7948  0.95
      L1  H     6    23       P1  7948  0.95
      L1  H    10    17       P1 10186  1.00
      L1  C    11    25       P1 10171  1.00

> <Gold.PLP.Chemscore.Internal.Correction>
0.0089

> <Gold.Rescore>
     Score         DG    S(hbond)    S(metal)    S(lipo)     H(rot)  DE(clash)    DE(int)     intcor
     15.72     -17.54       2.79        0.00      52.17       1.31       0.42       1.40       ----

> <Gold.Chemscore.Fitness>
15.7187

> <Gold.Chemscore.DG>
-17.5378

> <Gold.Chemscore.ZeroCoef>
-5.4800

> <Gold.Chemscore.Hbond>
2.7852

> <Gold.Chemscore.Metal>
0.0000

> <Gold.Chemscore.Lipo>
52.1656

> <Gold.Chemscore.Internal_Hbond>
0.0000

> <Gold.Chemscore.DEClash>
0.4164

> <Gold.Chemscore.DEInternal>
1.4027

> <Gold.Chemscore.Rot>
1.3079

> <Gold.Chemscore.Internal.Correction>
   9.000000E+99

> <Gold.Chemscore.Hbonds>
donor molecule, donor type, donor heavy atom, donor atom, acceptor molecule, acceptor atom, score
      L1  H     3    22       P1  7948  0.86
      L1  H     6    23       P1  7948  0.85
      L1  H    10    17       P1 10186  0.60

> <Gold.Chemscore.Hbond.Weighted>
-9.3027

> <Gold.Chemscore.Metal.Weighted>
-0.0000

> <Gold.Chemscore.Lipo.Weighted>
-6.1034

> <Gold.Chemscore.Internal_Hbond.Weighted>
0.0000

> <Gold.Chemscore.DEClash.Weighted>
0.4164

> <Gold.Chemscore.DEInternal.Weighted>
1.4027

> <Gold.Chemscore.Rot.Weighted>
3.3483

> <Gold.Chemscore.Internal.Correction.Weighted>
   9.000000E+99

> <Gold.Protein.RotatedTorsions>
[ 6907 6896 6895 6894 ] final  -29.47 input  -60.11 | X-H torsion
[ 7974 7965 7964 7962 ] final -146.88 input  175.53 | X-H torsion
[ 8008 7997 7996 7995 ] final   37.02 input   59.86 | X-H torsion
[ 10167 10162 10161 10158 ] final  176.97 input  -65.29 | X-H torsion
[ 10718 10713 10712 10709 ] final  102.09 input   66.30 | X-H torsion
[ 10763 10752 10751 10750 ] final   96.12 input  -60.55 | X-H torsion
[ 11005 11000 10999 10996 ] final  149.22 input  -57.11 | X-H torsion

> <Gold.Protein.ActiveResidues>
 VAL166  LYS551  ARG553  GLY616  TRP617  ASP618  TYR619  PRO620  LYS621  CYS622 
 ASP623  PHE694  ASN695  SER759  ASP760  ASP761  ALA762  ILE779  LEU786  VAL792 
 PHE793  MET794  SER795  GLU796  ALA797  LYS798  CYS799  TRP800  GLU811  SER814 

> <Gold.Protein.RotatedAtoms>
  151.1188  135.0067  159.8528 H   0  0  0  0  0  0  0  0  0  0  0  0  # atno 6907 bound_to 6896
  152.5447  134.1748  159.8621 H   0  0  0  0  0  0  0  0  0  0  0  0  # atno 6908 bound_to 6896
  151.1804  133.4684  159.2627 H   0  0  0  0  0  0  0  0  0  0  0  0  # atno 6909 bound_to 6896
  144.8130  140.5399  143.5629 H   0  0  0  0  0  0  0  0  0  0  0  0  # atno 7974 bound_to 7965
  155.1970  140.3312  155.4349 H   0  0  0  0  0  0  0  0  0  0  0  0  # atno 8008 bound_to 7997
  156.2421  140.1900  156.7009 H   0  0  0  0  0  0  0  0  0  0  0  0  # atno 8009 bound_to 7997
  154.6167  140.0601  156.9549 H   0  0  0  0  0  0  0  0  0  0  0  0  # atno 8010 bound_to 7997
  139.5235  144.2853  152.0511 H   0  0  0  0  0  0  0  0  0  0  0  0  # atno 10167 bound_to 10162
  157.6812  131.0743  150.5350 H   0  0  0  0  0  0  0  0  0  0  0  0  # atno 10718 bound_to 10713
  153.2612  135.4229  155.0896 H   0  0  0  0  0  0  0  0  0  0  0  0  # atno 10763 bound_to 10752
  154.8421  135.3449  154.6375 H   0  0  0  0  0  0  0  0  0  0  0  0  # atno 10764 bound_to 10752
  153.6795  135.7039  153.5179 H   0  0  0  0  0  0  0  0  0  0  0  0  # atno 10765 bound_to 10752
  140.1026  134.8974  157.1819 H   0  0  0  0  0  0  0  0  0  0  0  0  # atno 11005 bound_to 11000
  145.5279  139.1475  143.3516 LP  0  0  0  0  0  0  0  0  0  0  0  0  # atno 17320 bound_to 7965
  146.2431  140.5420  142.8925 LP  0  0  0  0  0  0  0  0  0  0  0  0  # atno 17321 bound_to 7965
  140.2307  144.4371  150.6301 LP  0  0  0  0  0  0  0  0  0  0  0  0  # atno 17342 bound_to 10162
  140.6357  143.2194  151.6399 LP  0  0  0  0  0  0  0  0  0  0  0  0  # atno 17343 bound_to 10162
  156.5659  130.4267  149.6041 LP  0  0  0  0  0  0  0  0  0  0  0  0  # atno 17370 bound_to 10713
  156.2781  130.7055  151.1872 LP  0  0  0  0  0  0  0  0  0  0  0  0  # atno 17371 bound_to 10713
  140.3199  134.2928  155.7248 LP  0  0  0  0  0  0  0  0  0  0  0  0  # atno 17394 bound_to 11000
  141.2110  133.7703  156.9896 LP  0  0  0  0  0  0  0  0  0  0  0  0  # atno 17395 bound_to 11000

$$$$
