AV-unprocessed.smi:1564|AV-procd|sdf|6296|dock2
  -GOLD-   22720 6493D 1   1.00000     0.00000
 Structure written by MMmdl.
 43 44  0  0  0  0  0  0  0  0  2 V2000
  155.0155  140.0844  161.9990 C   0  0  0  0  0  0  0  0  0  0  0  0
  154.4886  141.3909  161.7950 O   0  0  0  0  0  0  0  0  0  0  0  0
  153.6111  141.5864  160.7483 C   0  0  0  0  0  0  0  0  0  0  0  0
  153.0889  142.8777  160.5376 C   0  0  0  0  0  0  0  0  0  0  0  0
  152.1898  143.0797  159.4738 C   0  0  0  0  0  0  0  0  0  0  0  0
  151.8327  141.9890  158.6554 C   0  0  0  0  0  0  0  0  0  0  0  0
  150.9312  142.2322  157.5830 N   0  0  0  0  0  0  0  0  0  0  0  0
  150.0120  141.4082  157.0508 C   0  0  0  0  0  0  0  0  0  0  0  0
  149.7782  140.2593  157.4239 O   0  0  0  0  0  0  0  0  0  0  0  0
  149.3496  142.0041  156.0496 N   0  0  0  0  0  0  0  0  0  0  0  0
  148.2883  141.3788  155.2674 C   0  0  1  0  0  0  0  0  0  0  0  0
  147.6605  142.2679  154.2013 C   0  0  0  0  0  0  0  0  0  0  0  0
  146.9899  141.2297  153.3023 C   0  0  0  0  0  0  0  0  0  0  0  0
  147.8946  140.0525  153.2846 N   0  3  2  0  0  0  0  0  0  0  0  0
  147.2315  138.7265  153.1242 C   0  0  0  0  0  0  0  0  0  0  0  0
  146.4680  138.6470  151.7877 C   0  0  0  0  0  0  0  0  0  0  0  0
  146.2528  138.4311  154.2789 C   0  0  0  0  0  0  0  0  0  0  0  0
  148.7967  140.1820  154.4588 C   0  0  0  0  0  0  0  0  0  0  0  0
  152.4231  140.7330  158.9406 C   0  0  0  0  0  0  0  0  0  0  0  0
  153.2858  140.5328  159.9593 N   0  0  0  0  0  0  0  0  0  0  0  0
  155.6873  140.0966  162.8572 H   0  0  0  0  0  0  0  0  0  0  0  0
  155.5889  139.7449  161.1354 H   0  0  0  0  0  0  0  0  0  0  0  0
  154.2234  139.3641  162.2089 H   0  0  0  0  0  0  0  0  0  0  0  0
  153.3719  143.6973  161.1814 H   0  0  0  0  0  0  0  0  0  0  0  0
  151.7776  144.0622  159.2938 H   0  0  0  0  0  0  0  0  0  0  0  0
  150.9579  143.1679  157.2052 H   0  0  0  0  0  0  0  0  0  0  0  0
  149.6015  142.9518  155.8093 H   0  0  0  0  0  0  0  0  0  0  0  0
  147.5044  141.0317  155.9442 H   0  0  0  0  0  0  0  0  0  0  0  0
  146.9546  142.9926  154.6084 H   0  0  0  0  0  0  0  0  0  0  0  0
  148.4293  142.8100  153.6482 H   0  0  0  0  0  0  0  0  0  0  0  0
  146.0315  140.9539  153.7458 H   0  0  0  0  0  0  0  0  0  0  0  0
  146.8010  141.6083  152.2974 H   0  0  0  0  0  0  0  0  0  0  0  0
  148.0055  137.9574  153.1295 H   0  0  0  0  0  0  0  0  0  0  0  0
  145.9754  137.6803  151.6784 H   0  0  0  0  0  0  0  0  0  0  0  0
  147.1208  138.7651  150.9238 H   0  0  0  0  0  0  0  0  0  0  0  0
  145.6972  139.4159  151.7280 H   0  0  0  0  0  0  0  0  0  0  0  0
  145.7312  137.4871  154.1164 H   0  0  0  0  0  0  0  0  0  0  0  0
  145.4969  139.2124  154.3675 H   0  0  0  0  0  0  0  0  0  0  0  0
  146.7595  138.3448  155.2398 H   0  0  0  0  0  0  0  0  0  0  0  0
  149.8075  140.3580  154.0878 H   0  0  0  0  0  0  0  0  0  0  0  0
  148.8237  139.2894  155.0842 H   0  0  0  0  0  0  0  0  0  0  0  0
  152.2298  139.8568  158.3426 H   0  0  0  0  0  0  0  0  0  0  0  0
  148.4846  140.1724  152.4734 H   0  0  0  0  0  0  0  0  0  0  0  0
  1  2  1  0  0  0  0
  1 21  1  0  0  0  0
  1 22  1  0  0  0  0
  1 23  1  0  0  0  0
  2  3  1  0  0  0  0
  3 20  1  0  0  0  0
  3  4  2  0  0  0  0
  4  5  1  0  0  0  0
  4 24  1  0  0  0  0
  5  6  2  0  0  0  0
  5 25  1  0  0  0  0
  6  7  1  0  0  0  0
  6 19  1  0  0  0  0
  7  8  1  0  0  0  0
  7 26  1  0  0  0  0
  8  9  2  0  0  0  0
  8 10  1  0  0  0  0
 10 11  1  0  0  0  0
 10 27  1  0  0  0  0
 11 18  1  0  0  0  0
 11 12  1  0  0  0  0
 11 28  1  0  0  0  0
 12 13  1  0  0  0  0
 12 29  1  0  0  0  0
 12 30  1  0  0  0  0
 13 14  1  0  0  0  0
 13 31  1  0  0  0  0
 13 32  1  0  0  0  0
 14 15  1  0  0  0  0
 14 18  1  0  0  0  0
 14 43  1  0  0  0  0
 15 16  1  0  0  0  0
 15 17  1  0  0  0  0
 15 33  1  0  0  0  0
 16 34  1  0  0  0  0
 16 35  1  0  0  0  0
 16 36  1  0  0  0  0
 17 37  1  0  0  0  0
 17 38  1  0  0  0  0
 17 39  1  0  0  0  0
 18 40  1  0  0  0  0
 18 41  1  0  0  0  0
 19 20  2  0  0  0  0
 19 42  1  0  0  0  0
M  CHG  1  14   1
M  END
> <s_m_source_file>
AV-unprocessed.smi

> <i_m_source_file_index>
1564

> <i_lp_mmshare_version>
43012

> <i_f3d_flags>
0

> <s_epik_input>
W0NIM11PYzFbY0hdW2NIXWMoW2NIXW4xKVtOSF1DKD1PKVtOSF1bQ0BASF0yW0NIMl1bQ0gyXU4oW0NIMl0yKVtDSF0oW0NIM10pW0NIM10=

> <s_epik_cmdline>
J2VwaWtfcHl0aG9uJywgJy1waCcsICc3LjAnLCAnLXRuJywgJzgnLCAnLW1hJywgJzIwMCcsICctbWV0YWxfYmluZGluZycsICctaW1hZScsICc8aW5maWxlLm1hZT4nLCAnLW9tYWUnLCAnPG91dGZpbGUubWFlPic=

> <r_lp_tautomer_probability>
1

> <r_epik_Ionization_Penalty>
0.000679474

> <r_epik_Ionization_Penalty_Charging>
0.000606352

> <r_epik_Ionization_Penalty_Neutral>
7.31222e-05

> <r_epik_State_Penalty>
0.000382168

> <r_epik_Charging_Adjusted_Penalty>
0.00098852

> <i_epik_Tot_Q>
1

> <i_epik_Tot_abs_Q>
1

> <r_epik_Metal_State_Penalty>
-0

> <b_epik_Metal_Only>
0

> <s_lp_Force_Field>
OPLS_2005

> <r_lp_Energy>
33.6805

> <b_lp_Chiralities_Consistent>
1

> <s_lp_Variant>
AV-unprocessed.smi:1564-4

> <Gold.Version>
5.8.1

> <Gold.Id.Protein>
6NUR|6NUR_protein|mol2

> <Gold.PLP.Fitness>
44.9088

> <Gold.PLP.PLP>
-39.5343

> <Gold.PLP.part.hbond>
-3.0000

> <Gold.PLP.part.metal>
0.0000

> <Gold.PLP.part.buried>
-3.6615

> <Gold.PLP.part.nonpolar>
-33.1250

> <Gold.PLP.part.repulsive>
0.2124

> <Gold.PLP.ligand.clash>
0.0000

> <Gold.PLP.ligand.torsion>
0.2498

> <Gold.PLP.Chemscore.Hbond>
1.9440

> <Gold.PLP.Chemscore.CHOScore>
0.0000

> <Gold.PLP.Chemscore.Metal>
0.0000

> <Gold.Chemscore.Hbonds>
donor molecule, donor type, donor heavy atom, donor atom, acceptor molecule, acceptor atom, score
      L1  H    10    27       P1  8028  0.85
      L1  H    14    43       P1  7957  1.00

> <Gold.PLP.Chemscore.Internal.Correction>
0.0420

> <Gold.Rescore>
     Score         DG    S(hbond)    S(metal)    S(lipo)     H(rot)  DE(clash)    DE(int)     intcor
     18.26     -18.63       1.96        0.00      88.04       1.44       0.06       0.31       ----

> <Gold.Chemscore.Fitness>
18.2609

> <Gold.Chemscore.DG>
-18.6294

> <Gold.Chemscore.ZeroCoef>
-5.4800

> <Gold.Chemscore.Hbond>
1.9600

> <Gold.Chemscore.Metal>
0.0000

> <Gold.Chemscore.Lipo>
88.0426

> <Gold.Chemscore.Internal_Hbond>
0.0000

> <Gold.Chemscore.DEClash>
0.0613

> <Gold.Chemscore.DEInternal>
0.3072

> <Gold.Chemscore.Rot>
1.4445

> <Gold.Chemscore.Internal.Correction>
   9.000000E+99

> <Gold.Chemscore.Hbonds>
donor molecule, donor type, donor heavy atom, donor atom, acceptor molecule, acceptor atom, score
      L1  H    10    27       P1  8028  0.85
      L1  H    14    43       P1  7957  1.00

> <Gold.Chemscore.Hbond.Weighted>
-6.5463

> <Gold.Chemscore.Metal.Weighted>
-0.0000

> <Gold.Chemscore.Lipo.Weighted>
-10.3010

> <Gold.Chemscore.Internal_Hbond.Weighted>
0.0000

> <Gold.Chemscore.DEClash.Weighted>
0.0613

> <Gold.Chemscore.DEInternal.Weighted>
0.3072

> <Gold.Chemscore.Rot.Weighted>
3.6979

> <Gold.Chemscore.Internal.Correction.Weighted>
   9.000000E+99

> <Gold.Protein.RotatedTorsions>
[ 6907 6896 6895 6894 ] final  133.97 input  -60.11 | X-H torsion
[ 7974 7965 7964 7962 ] final  -54.82 input  175.53 | X-H torsion
[ 8008 7997 7996 7995 ] final  -94.25 input   59.86 | X-H torsion
[ 10167 10162 10161 10158 ] final   93.94 input  -65.29 | X-H torsion
[ 10718 10713 10712 10709 ] final  153.90 input   66.30 | X-H torsion
[ 10763 10752 10751 10750 ] final    6.60 input  -60.55 | X-H torsion
[ 11005 11000 10999 10996 ] final -128.41 input  -57.11 | X-H torsion

> <Gold.Protein.ActiveResidues>
 VAL166  LYS551  ARG553  GLY616  TRP617  ASP618  TYR619  PRO620  LYS621  CYS622 
 ASP623  PHE694  ASN695  SER759  ASP760  ASP761  ALA762  ILE779  LEU786  VAL792 
 PHE793  MET794  SER795  GLU796  ALA797  LYS798  CYS799  TRP800  GLU811  SER814 

> <Gold.Protein.RotatedAtoms>
  152.3163  133.5806  159.5713 H   0  0  0  0  0  0  0  0  0  0  0  0  # atno 6907 bound_to 6896
  150.7348  134.0078  159.3668 H   0  0  0  0  0  0  0  0  0  0  0  0  # atno 6908 bound_to 6896
  151.7966  135.0721  160.0445 H   0  0  0  0  0  0  0  0  0  0  0  0  # atno 6909 bound_to 6896
  145.8812  140.8143  142.9839 H   0  0  0  0  0  0  0  0  0  0  0  0  # atno 7974 bound_to 7965
  154.7460  140.0491  157.0852 H   0  0  0  0  0  0  0  0  0  0  0  0  # atno 8008 bound_to 7997
  155.0118  140.3137  155.4808 H   0  0  0  0  0  0  0  0  0  0  0  0  # atno 8009 bound_to 7997
  156.2875  140.2183  156.5232 H   0  0  0  0  0  0  0  0  0  0  0  0  # atno 8010 bound_to 7997
  139.8132  144.6764  150.9614 H   0  0  0  0  0  0  0  0  0  0  0  0  # atno 10167 bound_to 10162
  157.2386  131.0754  151.1807 H   0  0  0  0  0  0  0  0  0  0  0  0  # atno 10718 bound_to 10713
  153.2459  135.6908  153.7732 H   0  0  0  0  0  0  0  0  0  0  0  0  # atno 10763 bound_to 10752
  153.6844  135.3323  155.3187 H   0  0  0  0  0  0  0  0  0  0  0  0  # atno 10764 bound_to 10752
  154.8374  135.4530  154.1398 H   0  0  0  0  0  0  0  0  0  0  0  0  # atno 10765 bound_to 10752
  140.9518  134.1055  157.4055 H   0  0  0  0  0  0  0  0  0  0  0  0  # atno 11005 bound_to 11000
  144.6727  140.1386  143.7438 LP  0  0  0  0  0  0  0  0  0  0  0  0  # atno 17320 bound_to 7965
  145.9021  139.2437  143.1487 LP  0  0  0  0  0  0  0  0  0  0  0  0  # atno 17321 bound_to 7965
  140.7817  143.4165  151.0910 LP  0  0  0  0  0  0  0  0  0  0  0  0  # atno 17342 bound_to 10162
  139.7830  143.8328  152.3140 LP  0  0  0  0  0  0  0  0  0  0  0  0  # atno 17343 bound_to 10162
  157.3402  130.7029  149.6377 LP  0  0  0  0  0  0  0  0  0  0  0  0  # atno 17370 bound_to 10713
  155.9671  130.4282  150.4777 LP  0  0  0  0  0  0  0  0  0  0  0  0  # atno 17371 bound_to 10713
  139.8850  135.0068  156.6404 LP  0  0  0  0  0  0  0  0  0  0  0  0  # atno 17394 bound_to 11000
  140.7592  133.8832  155.8405 LP  0  0  0  0  0  0  0  0  0  0  0  0  # atno 17395 bound_to 11000

$$$$
