AV-unprocessed.smi:2467|AV-procd|sdf|9728|dock8
  -GOLD-   2272013373D 1   1.00000     0.00000
 Structure written by MMmdl.
 46 47  0  0  0  0  0  0  0  0  1 V2000
  153.0654  138.6029  154.6130 C   0  0  0  0  0  0  0  0  0  0  0  0
  151.5884  138.2331  154.4064 C   0  0  0  0  0  0  0  0  0  0  0  0
  150.6033  139.4322  154.4042 C   0  0  0  0  0  0  0  0  0  0  0  0
  150.6799  140.1917  155.7567 C   0  0  0  0  0  0  0  0  0  0  0  0
  149.7832  141.4301  155.8860 C   0  0  0  0  0  0  0  0  0  0  0  0
  149.1459  138.9906  154.0737 C   0  0  1  0  0  0  0  0  0  0  0  0
  148.5373  138.0523  155.1467 C   0  0  0  0  0  0  0  0  0  0  0  0
  147.1175  137.6054  154.7650 C   0  0  2  0  0  0  0  0  0  0  0  0
  147.1822  136.6952  153.6253 N   0  0  0  0  0  0  0  0  0  0  0  0
  146.2326  135.8328  153.2326 C   0  0  0  0  0  0  0  0  0  0  0  0
  145.1540  135.7210  153.8128 O   0  0  0  0  0  0  0  0  0  0  0  0
  146.5259  135.0836  152.1475 N   0  0  0  0  0  0  0  0  0  0  0  0
  145.7749  134.0832  151.4587 C   0  0  0  0  0  0  0  0  0  0  0  0
  146.5577  133.1699  150.7162 C   0  0  0  0  0  0  0  0  0  0  0  0
  145.9270  132.1393  149.9924 C   0  0  0  0  0  0  0  0  0  0  0  0
  144.5245  132.0456  150.0276 C   0  0  0  0  0  0  0  0  0  0  0  0
  143.8170  132.9925  150.7895 C   0  0  0  0  0  0  0  0  0  0  0  0
  144.4209  133.9800  151.4833 N   0  0  0  0  0  0  0  0  0  0  0  0
  146.2593  138.8440  154.4561 C   0  0  0  0  0  0  0  0  0  0  0  0
  146.9746  139.7860  153.4742 C   0  0  0  0  0  0  0  0  0  0  0  0
  148.2689  140.1135  153.9712 O   0  0  0  0  0  0  0  0  0  0  0  0
  153.7022  137.7327  154.4530 H   0  0  0  0  0  0  0  0  0  0  0  0
  153.2616  138.9585  155.6239 H   0  0  0  0  0  0  0  0  0  0  0  0
  153.3817  139.3754  153.9117 H   0  0  0  0  0  0  0  0  0  0  0  0
  151.5362  137.7186  153.4467 H   0  0  0  0  0  0  0  0  0  0  0  0
  151.2860  137.5037  155.1590 H   0  0  0  0  0  0  0  0  0  0  0  0
  150.9387  140.1063  153.6146 H   0  0  0  0  0  0  0  0  0  0  0  0
  150.4536  139.5060  156.5743 H   0  0  0  0  0  0  0  0  0  0  0  0
  151.7009  140.5303  155.9250 H   0  0  0  0  0  0  0  0  0  0  0  0
  149.9946  141.9590  156.8155 H   0  0  0  0  0  0  0  0  0  0  0  0
  148.7270  141.1628  155.9062 H   0  0  0  0  0  0  0  0  0  0  0  0
  149.9495  142.1279  155.0652 H   0  0  0  0  0  0  0  0  0  0  0  0
  149.1581  138.4968  153.1004 H   0  0  0  0  0  0  0  0  0  0  0  0
  149.1586  137.1760  155.3200 H   0  0  0  0  0  0  0  0  0  0  0  0
  148.4994  138.5803  156.1004 H   0  0  0  0  0  0  0  0  0  0  0  0
  146.6821  137.0677  155.6090 H   0  0  0  0  0  0  0  0  0  0  0  0
  148.0348  136.7169  153.0832 H   0  0  0  0  0  0  0  0  0  0  0  0
  147.4351  135.2682  151.7488 H   0  0  0  0  0  0  0  0  0  0  0  0
  147.6348  133.2544  150.6985 H   0  0  0  0  0  0  0  0  0  0  0  0
  146.5102  131.4330  149.4203 H   0  0  0  0  0  0  0  0  0  0  0  0
  144.0049  131.2692  149.4860 H   0  0  0  0  0  0  0  0  0  0  0  0
  142.7389  132.9583  150.8446 H   0  0  0  0  0  0  0  0  0  0  0  0
  145.2825  138.5564  154.0655 H   0  0  0  0  0  0  0  0  0  0  0  0
  146.0690  139.3837  155.3845 H   0  0  0  0  0  0  0  0  0  0  0  0
  147.0535  139.3350  152.4838 H   0  0  0  0  0  0  0  0  0  0  0  0
  146.4011  140.7054  153.3565 H   0  0  0  0  0  0  0  0  0  0  0  0
  1  2  1  0  0  0  0
  1 22  1  0  0  0  0
  1 23  1  0  0  0  0
  1 24  1  0  0  0  0
  2  3  1  0  0  0  0
  2 25  1  0  0  0  0
  2 26  1  0  0  0  0
  3  4  1  0  0  0  0
  3  6  1  0  0  0  0
  3 27  1  0  0  0  0
  4  5  1  0  0  0  0
  4 28  1  0  0  0  0
  4 29  1  0  0  0  0
  5 30  1  0  0  0  0
  5 31  1  0  0  0  0
  5 32  1  0  0  0  0
  6 21  1  0  0  0  0
  6  7  1  0  0  0  0
  6 33  1  0  0  0  0
  7  8  1  0  0  0  0
  7 34  1  0  0  0  0
  7 35  1  0  0  0  0
  8  9  1  0  0  0  0
  8 19  1  0  0  0  0
  8 36  1  0  0  0  0
  9 10  1  0  0  0  0
  9 37  1  0  0  0  0
 10 11  2  0  0  0  0
 10 12  1  0  0  0  0
 12 13  1  0  0  0  0
 12 38  1  0  0  0  0
 13 18  1  0  0  0  0
 13 14  2  0  0  0  0
 14 15  1  0  0  0  0
 14 39  1  0  0  0  0
 15 16  2  0  0  0  0
 15 40  1  0  0  0  0
 16 17  1  0  0  0  0
 16 41  1  0  0  0  0
 17 18  2  0  0  0  0
 17 42  1  0  0  0  0
 19 20  1  0  0  0  0
 19 43  1  0  0  0  0
 19 44  1  0  0  0  0
 20 21  1  0  0  0  0
 20 45  1  0  0  0  0
 20 46  1  0  0  0  0
M  END
> <s_m_source_file>
AV-unprocessed.smi

> <i_m_source_file_index>
2467

> <i_lp_mmshare_version>
43012

> <i_f3d_flags>
0

> <s_epik_input>
W0NIM11bQ0gyXVtDSF0oW0NIMl1bQ0gzXSlbQ0BASF0xW0NIMl1bQ0BIXShbQ0gyXVtDSDJdTzEpW05IXUMoPU8pW05IXWMyW2NIXVtjSF1bY0hdW2NIXW4y

> <s_epik_cmdline>
J2VwaWtfcHl0aG9uJywgJy1waCcsICc3LjAnLCAnLXRuJywgJzgnLCAnLW1hJywgJzIwMCcsICctbWV0YWxfYmluZGluZycsICctaW1hZScsICc8aW5maWxlLm1hZT4nLCAnLW9tYWUnLCAnPG91dGZpbGUubWFlPic=

> <r_lp_tautomer_probability>
1

> <r_epik_Ionization_Penalty>
4.80427e-05

> <r_epik_Ionization_Penalty_Charging>
0

> <r_epik_Ionization_Penalty_Neutral>
4.80427e-05

> <r_epik_State_Penalty>
-0

> <r_epik_Charging_Adjusted_Penalty>
0

> <i_epik_Tot_Q>
0

> <i_epik_Tot_abs_Q>
0

> <r_epik_Metal_State_Penalty>
-0

> <b_epik_Metal_Only>
0

> <s_lp_Force_Field>
OPLS_2005

> <r_lp_Energy>
20.8854

> <b_lp_Chiralities_Consistent>
1

> <s_lp_Variant>
AV-unprocessed.smi:2467-4

> <Gold.Version>
5.8.1

> <Gold.Id.Protein>
6NUR|6NUR_protein|mol2

> <Gold.PLP.Fitness>
45.1024

> <Gold.PLP.PLP>
-36.9170

> <Gold.PLP.part.hbond>
-2.0000

> <Gold.PLP.part.metal>
0.0000

> <Gold.PLP.part.buried>
-3.2035

> <Gold.PLP.part.nonpolar>
-32.4706

> <Gold.PLP.part.repulsive>
0.4088

> <Gold.PLP.ligand.clash>
0.0000

> <Gold.PLP.ligand.torsion>
0.3931

> <Gold.PLP.Chemscore.Hbond>
1.9760

> <Gold.PLP.Chemscore.CHOScore>
1.0000

> <Gold.PLP.Chemscore.Metal>
0.0000

> <Gold.Chemscore.Hbonds>
donor molecule, donor type, donor heavy atom, donor atom, acceptor molecule, acceptor atom, score
      L1  H     9    37       P1  7948  1.00
      L1  H    12    38       P1  7948  0.96
      L1  C    17    42       P1 10186  0.79

> <Gold.PLP.Chemscore.Internal.Correction>
0.0435

> <Gold.Rescore>
     Score         DG    S(hbond)    S(metal)    S(lipo)     H(rot)  DE(clash)    DE(int)     intcor
     15.77     -18.46       1.88        0.00      89.84       1.49       0.10       2.59       ----

> <Gold.Chemscore.Fitness>
15.7698

> <Gold.Chemscore.DG>
-18.4600

> <Gold.Chemscore.ZeroCoef>
-5.4800

> <Gold.Chemscore.Hbond>
1.8779

> <Gold.Chemscore.Metal>
0.0000

> <Gold.Chemscore.Lipo>
89.8371

> <Gold.Chemscore.Internal_Hbond>
0.0000

> <Gold.Chemscore.DEClash>
0.0980

> <Gold.Chemscore.DEInternal>
2.5922

> <Gold.Chemscore.Rot>
1.4856

> <Gold.Chemscore.Internal.Correction>
   9.000000E+99

> <Gold.Chemscore.Hbonds>
donor molecule, donor type, donor heavy atom, donor atom, acceptor molecule, acceptor atom, score
      L1  H     9    37       P1  7948  0.95
      L1  H    12    38       P1  7948  0.87

> <Gold.Chemscore.Hbond.Weighted>
-6.2721

> <Gold.Chemscore.Metal.Weighted>
-0.0000

> <Gold.Chemscore.Lipo.Weighted>
-10.5109

> <Gold.Chemscore.Internal_Hbond.Weighted>
0.0000

> <Gold.Chemscore.DEClash.Weighted>
0.0980

> <Gold.Chemscore.DEInternal.Weighted>
2.5922

> <Gold.Chemscore.Rot.Weighted>
3.8031

> <Gold.Chemscore.Internal.Correction.Weighted>
   9.000000E+99

> <Gold.Protein.RotatedTorsions>
[ 6907 6896 6895 6894 ] final    3.60 input  -60.11 | X-H torsion
[ 7974 7965 7964 7962 ] final  110.57 input  175.53 | X-H torsion
[ 8008 7997 7996 7995 ] final -174.14 input   59.86 | X-H torsion
[ 10167 10162 10161 10158 ] final   50.99 input  -65.29 | X-H torsion
[ 10718 10713 10712 10709 ] final   56.35 input   66.30 | X-H torsion
[ 10763 10752 10751 10750 ] final  150.22 input  -60.55 | X-H torsion
[ 11005 11000 10999 10996 ] final  113.31 input  -57.11 | X-H torsion

> <Gold.Protein.ActiveResidues>
 VAL166  LYS551  ARG553  GLY616  TRP617  ASP618  TYR619  PRO620  LYS621  CYS622 
 ASP623  PHE694  ASN695  SER759  ASP760  ASP761  ALA762  ILE779  LEU786  VAL792 
 PHE793  MET794  SER795  GLU796  ALA797  LYS798  CYS799  TRP800  GLU811  SER814 

> <Gold.Protein.RotatedAtoms>
  151.6277  135.1026  160.0114 H   0  0  0  0  0  0  0  0  0  0  0  0  # atno 6907 bound_to 6896
  152.4123  133.6979  159.6417 H   0  0  0  0  0  0  0  0  0  0  0  0  # atno 6908 bound_to 6896
  150.8013  133.8518  159.3248 H   0  0  0  0  0  0  0  0  0  0  0  0  # atno 6909 bound_to 6896
  145.2532  139.2731  143.4056 H   0  0  0  0  0  0  0  0  0  0  0  0  # atno 7974 bound_to 7965
  155.9663  140.1154  157.0851 H   0  0  0  0  0  0  0  0  0  0  0  0  # atno 8008 bound_to 7997
  154.4145  140.1172  156.5314 H   0  0  0  0  0  0  0  0  0  0  0  0  # atno 8009 bound_to 7997
  155.6655  140.3473  155.4800 H   0  0  0  0  0  0  0  0  0  0  0  0  # atno 8010 bound_to 7997
  140.2666  144.3313  150.6302 H   0  0  0  0  0  0  0  0  0  0  0  0  # atno 10167 bound_to 10162
  157.5423  130.8706  149.8841 H   0  0  0  0  0  0  0  0  0  0  0  0  # atno 10718 bound_to 10713
  154.0840  135.2857  155.3285 H   0  0  0  0  0  0  0  0  0  0  0  0  # atno 10763 bound_to 10752
  154.6665  135.5315  153.8086 H   0  0  0  0  0  0  0  0  0  0  0  0  # atno 10764 bound_to 10752
  153.0438  135.6547  154.1013 H   0  0  0  0  0  0  0  0  0  0  0  0  # atno 10765 bound_to 10752
  139.8950  134.9547  156.6719 H   0  0  0  0  0  0  0  0  0  0  0  0  # atno 11005 bound_to 11000
  146.3296  140.2929  142.8616 LP  0  0  0  0  0  0  0  0  0  0  0  0  # atno 17320 bound_to 7965
  144.9484  140.8152  143.5587 LP  0  0  0  0  0  0  0  0  0  0  0  0  # atno 17321 bound_to 7965
  140.5923  143.2167  151.7229 LP  0  0  0  0  0  0  0  0  0  0  0  0  # atno 17342 bound_to 10162
  139.5001  144.3920  152.0270 LP  0  0  0  0  0  0  0  0  0  0  0  0  # atno 17343 bound_to 10162
  156.0507  130.3718  150.1208 LP  0  0  0  0  0  0  0  0  0  0  0  0  # atno 17370 bound_to 10713
  156.9387  130.9737  151.3520 LP  0  0  0  0  0  0  0  0  0  0  0  0  # atno 17371 bound_to 10713
  140.7366  133.9013  155.8248 LP  0  0  0  0  0  0  0  0  0  0  0  0  # atno 17394 bound_to 11000
  141.0111  134.1019  157.4220 LP  0  0  0  0  0  0  0  0  0  0  0  0  # atno 17395 bound_to 11000

$$$$
