AV-unprocessed.smi:1639|AV-procd|sdf|6550|dock4
  -GOLD-   22720 7233D 1   1.00000     0.00000
 Structure written by MMmdl.
 38 39  0  0  0  0  0  0  0  0  2 V2000
  146.4824  142.5532  153.8546 C   0  0  0  0  0  0  0  0  0  0  0  0
  146.5090  141.5895  155.0429 C   0  0  0  0  0  0  0  0  0  0  0  0
  147.2772  140.4497  154.6932 O   0  0  0  0  0  0  0  0  0  0  0  0
  148.6768  140.6888  154.6551 C   0  0  2  0  0  0  0  0  0  0  0  0
  149.4015  139.3598  154.3847 C   0  0  0  0  0  0  0  0  0  0  0  0
  150.9228  139.5539  154.4942 C   0  0  0  0  0  0  0  0  0  0  0  0
  151.3031  140.1781  155.8486 C   0  0  0  0  0  0  0  0  0  0  0  0
  150.5577  141.4133  156.0799 N   0  0  0  0  0  0  0  0  0  0  0  0
  150.9902  142.1128  157.2133 C   0  0  0  0  0  0  0  0  0  0  0  0
  151.9446  141.5551  158.0847 C   0  0  0  0  0  0  0  0  0  0  0  0
  152.3250  142.3332  159.1917 C   0  0  0  0  0  0  0  0  0  0  0  0
  153.3483  141.8411  160.1933 C   0  0  0  0  0  0  0  0  0  0  0  0
  151.7971  143.5550  159.4101 N   0  0  0  0  0  0  0  0  0  0  0  0
  150.8917  144.0289  158.5467 C   0  0  0  0  0  0  0  0  0  0  0  0
  150.3592  145.2748  158.7775 N   0  0  0  0  0  0  0  0  0  0  0  0
  150.4806  143.3469  157.4676 N   0  3  0  0  0  0  0  0  0  0  0  0
  149.1058  141.2693  156.0131 C   0  0  0  0  0  0  0  0  0  0  0  0
  145.8994  143.4442  154.0881 H   0  0  0  0  0  0  0  0  0  0  0  0
  146.0356  142.0817  152.9789 H   0  0  0  0  0  0  0  0  0  0  0  0
  147.4897  142.8728  153.5865 H   0  0  0  0  0  0  0  0  0  0  0  0
  146.9440  142.0812  155.9144 H   0  0  0  0  0  0  0  0  0  0  0  0
  145.4917  141.2913  155.3008 H   0  0  0  0  0  0  0  0  0  0  0  0
  148.9428  141.4011  153.8706 H   0  0  0  0  0  0  0  0  0  0  0  0
  149.0767  138.6090  155.1063 H   0  0  0  0  0  0  0  0  0  0  0  0
  149.1382  138.9797  153.3972 H   0  0  0  0  0  0  0  0  0  0  0  0
  151.4325  138.5984  154.3662 H   0  0  0  0  0  0  0  0  0  0  0  0
  151.2668  140.2001  153.6854 H   0  0  0  0  0  0  0  0  0  0  0  0
  151.0946  139.4711  156.6529 H   0  0  0  0  0  0  0  0  0  0  0  0
  152.3742  140.3837  155.8736 H   0  0  0  0  0  0  0  0  0  0  0  0
  152.3662  140.5765  157.9054 H   0  0  0  0  0  0  0  0  0  0  0  0
  153.7153  140.8497  159.9257 H   0  0  0  0  0  0  0  0  0  0  0  0
  152.9086  141.7838  161.1894 H   0  0  0  0  0  0  0  0  0  0  0  0
  154.2007  142.5199  160.2311 H   0  0  0  0  0  0  0  0  0  0  0  0
  150.6489  145.8134  159.5810 H   0  0  0  0  0  0  0  0  0  0  0  0
  149.6697  145.6639  158.1507 H   0  0  0  0  0  0  0  0  0  0  0  0
  148.6317  142.2395  156.1682 H   0  0  0  0  0  0  0  0  0  0  0  0
  148.7673  140.6145  156.8177 H   0  0  0  0  0  0  0  0  0  0  0  0
  149.7894  143.7427  156.8304 H   0  0  0  0  0  0  0  0  0  0  0  0
  1  2  1  0  0  0  0
  1 18  1  0  0  0  0
  1 19  1  0  0  0  0
  1 20  1  0  0  0  0
  2  3  1  0  0  0  0
  2 21  1  0  0  0  0
  2 22  1  0  0  0  0
  3  4  1  0  0  0  0
  4 17  1  0  0  0  0
  4  5  1  0  0  0  0
  4 23  1  0  0  0  0
  5  6  1  0  0  0  0
  5 24  1  0  0  0  0
  5 25  1  0  0  0  0
  6  7  1  0  0  0  0
  6 26  1  0  0  0  0
  6 27  1  0  0  0  0
  7  8  1  0  0  0  0
  7 28  1  0  0  0  0
  7 29  1  0  0  0  0
  8  9  1  0  0  0  0
  8 17  1  0  0  0  0
  9 16  1  0  0  0  0
  9 10  2  0  0  0  0
 10 11  1  0  0  0  0
 10 30  1  0  0  0  0
 11 12  1  0  0  0  0
 11 13  2  0  0  0  0
 12 31  1  0  0  0  0
 12 32  1  0  0  0  0
 12 33  1  0  0  0  0
 13 14  1  0  0  0  0
 14 15  1  0  0  0  0
 14 16  2  0  0  0  0
 15 34  1  0  0  0  0
 15 35  1  0  0  0  0
 16 38  1  0  0  0  0
 17 36  1  0  0  0  0
 17 37  1  0  0  0  0
M  CHG  1  16   1
M  END
> <s_m_source_file>
AV-unprocessed.smi

> <i_m_source_file_index>
1639

> <i_lp_mmshare_version>
43012

> <i_f3d_flags>
0

> <s_epik_input>
W0NIM11bQ0gyXU9bQ0BASF0xW0NIMl1bQ0gyXVtDSDJdTihbQ0gyXTEpYzJbY0hdYyhbQ0gzXSluYyhuMilbTkgyXQ==

> <s_epik_cmdline>
J2VwaWtfcHl0aG9uJywgJy1waCcsICc3LjAnLCAnLXRuJywgJzgnLCAnLW1hJywgJzIwMCcsICctbWV0YWxfYmluZGluZycsICctaW1hZScsICc8aW5maWxlLm1hZT4nLCAnLW9tYWUnLCAnPG91dGZpbGUubWFlPic=

> <r_lp_tautomer_probability>
0.424989

> <r_epik_Ionization_Penalty>
0.443088

> <r_epik_Ionization_Penalty_Charging>
0.443085

> <r_epik_Ionization_Penalty_Neutral>
3.21819e-06

> <r_epik_State_Penalty>
1.26241

> <r_epik_Charging_Adjusted_Penalty>
1.70549

> <i_epik_Tot_Q>
1

> <i_epik_Tot_abs_Q>
1

> <r_epik_Metal_State_Penalty>
1.59997

> <b_epik_Metal_Only>
0

> <s_lp_Force_Field>
OPLS_2005

> <r_lp_Energy>
14.3037

> <b_lp_Chiralities_Consistent>
1

> <s_lp_Variant>
AV-unprocessed.smi:1639-3

> <Gold.Version>
5.8.1

> <Gold.Id.Protein>
6NUR|6NUR_protein|mol2

> <Gold.PLP.Fitness>
43.9336

> <Gold.PLP.PLP>
-33.7401

> <Gold.PLP.part.hbond>
-2.0000

> <Gold.PLP.part.metal>
0.0000

> <Gold.PLP.part.buried>
-4.4167

> <Gold.PLP.part.nonpolar>
-28.0766

> <Gold.PLP.part.repulsive>
0.4043

> <Gold.PLP.ligand.clash>
1.6880

> <Gold.PLP.ligand.torsion>
0.1372

> <Gold.PLP.Chemscore.Hbond>
4.0000

> <Gold.PLP.Chemscore.CHOScore>
0.0000

> <Gold.PLP.Chemscore.Metal>
0.0000

> <Gold.Chemscore.Hbonds>
donor molecule, donor type, donor heavy atom, donor atom, acceptor molecule, acceptor atom, score
      L1  H    15    35       P1  8029  2.00
      L1  H    16    38       P1  8028  2.00

> <Gold.PLP.Chemscore.Internal.Correction>
0.1560

> <Gold.Rescore>
     Score         DG    S(hbond)    S(metal)    S(lipo)     H(rot)  DE(clash)    DE(int)     intcor
     15.95     -16.18       1.78        0.00      72.52       1.46       0.07       0.17       ----

> <Gold.Chemscore.Fitness>
15.9466

> <Gold.Chemscore.DG>
-16.1814

> <Gold.Chemscore.ZeroCoef>
-5.4800

> <Gold.Chemscore.Hbond>
1.7796

> <Gold.Chemscore.Metal>
0.0000

> <Gold.Chemscore.Lipo>
72.5207

> <Gold.Chemscore.Internal_Hbond>
0.0000

> <Gold.Chemscore.DEClash>
0.0650

> <Gold.Chemscore.DEInternal>
0.1698

> <Gold.Chemscore.Rot>
1.4560

> <Gold.Chemscore.Internal.Correction>
   9.000000E+99

> <Gold.Chemscore.Hbonds>
donor molecule, donor type, donor heavy atom, donor atom, acceptor molecule, acceptor atom, score
      L1  H    15    35       P1  8029  0.49
      L1  H    16    38       P1  8028  0.99

> <Gold.Chemscore.Hbond.Weighted>
-5.9438

> <Gold.Chemscore.Metal.Weighted>
-0.0000

> <Gold.Chemscore.Lipo.Weighted>
-8.4849

> <Gold.Chemscore.Internal_Hbond.Weighted>
0.0000

> <Gold.Chemscore.DEClash.Weighted>
0.0650

> <Gold.Chemscore.DEInternal.Weighted>
0.1698

> <Gold.Chemscore.Rot.Weighted>
3.7272

> <Gold.Chemscore.Internal.Correction.Weighted>
   9.000000E+99

> <Gold.Protein.RotatedTorsions>
[ 6907 6896 6895 6894 ] final  129.49 input  -60.11 | X-H torsion
[ 7974 7965 7964 7962 ] final  113.33 input  175.53 | X-H torsion
[ 8008 7997 7996 7995 ] final  163.03 input   59.86 | X-H torsion
[ 10167 10162 10161 10158 ] final   62.26 input  -65.29 | X-H torsion
[ 10718 10713 10712 10709 ] final  121.39 input   66.30 | X-H torsion
[ 10763 10752 10751 10750 ] final  140.04 input  -60.55 | X-H torsion
[ 11005 11000 10999 10996 ] final  138.75 input  -57.11 | X-H torsion

> <Gold.Protein.ActiveResidues>
 VAL166  LYS551  ARG553  GLY616  TRP617  ASP618  TYR619  PRO620  LYS621  CYS622 
 ASP623  PHE694  ASN695  SER759  ASP760  ASP761  ALA762  ILE779  LEU786  VAL792 
 PHE793  MET794  SER795  GLU796  ALA797  LYS798  CYS799  TRP800  GLU811  SER814 

> <Gold.Protein.RotatedAtoms>
  152.3619  133.6307  159.6021 H   0  0  0  0  0  0  0  0  0  0  0  0  # atno 6907 bound_to 6896
  150.7607  133.9410  159.3465 H   0  0  0  0  0  0  0  0  0  0  0  0  # atno 6908 bound_to 6896
  151.7247  135.0888  160.0341 H   0  0  0  0  0  0  0  0  0  0  0  0  # atno 6909 bound_to 6896
  145.2182  139.2874  143.4232 H   0  0  0  0  0  0  0  0  0  0  0  0  # atno 7974 bound_to 7965
  156.1987  140.1734  156.7944 H   0  0  0  0  0  0  0  0  0  0  0  0  # atno 8008 bound_to 7997
  154.5564  140.0708  156.8780 H   0  0  0  0  0  0  0  0  0  0  0  0  # atno 8009 bound_to 7997
  155.2931  140.3356  155.4254 H   0  0  0  0  0  0  0  0  0  0  0  0  # atno 8010 bound_to 7997
  140.1459  144.4509  150.6786 H   0  0  0  0  0  0  0  0  0  0  0  0  # atno 10167 bound_to 10162
  157.5821  131.1074  150.8166 H   0  0  0  0  0  0  0  0  0  0  0  0  # atno 10718 bound_to 10713
  153.9161  135.3006  155.3448 H   0  0  0  0  0  0  0  0  0  0  0  0  # atno 10763 bound_to 10752
  154.7599  135.4939  153.9447 H   0  0  0  0  0  0  0  0  0  0  0  0  # atno 10764 bound_to 10752
  153.1166  135.6772  153.9509 H   0  0  0  0  0  0  0  0  0  0  0  0  # atno 10765 bound_to 10752
  140.0206  134.9398  157.0466 H   0  0  0  0  0  0  0  0  0  0  0  0  # atno 11005 bound_to 11000
  146.3382  140.2480  142.8597 LP  0  0  0  0  0  0  0  0  0  0  0  0  # atno 17320 bound_to 7965
  144.9790  140.8441  143.5409 LP  0  0  0  0  0  0  0  0  0  0  0  0  # atno 17321 bound_to 7965
  140.6732  143.2294  151.5572 LP  0  0  0  0  0  0  0  0  0  0  0  0  # atno 17342 bound_to 10162
  139.5449  144.2547  152.1423 LP  0  0  0  0  0  0  0  0  0  0  0  0  # atno 17343 bound_to 10162
  156.8610  130.5113  149.5304 LP  0  0  0  0  0  0  0  0  0  0  0  0  # atno 17370 bound_to 10713
  156.0868  130.5864  150.9662 LP  0  0  0  0  0  0  0  0  0  0  0  0  # atno 17371 bound_to 10713
  140.4394  134.1697  155.7173 LP  0  0  0  0  0  0  0  0  0  0  0  0  # atno 17394 bound_to 11000
  141.1771  133.8491  157.1384 LP  0  0  0  0  0  0  0  0  0  0  0  0  # atno 17395 bound_to 11000

$$$$
