AV-unprocessed.smi:1029|AV-procd|sdf|4474|dock5
  -GOLD-   22720 2453D 1   1.00000     0.00000
 Structure written by MMmdl.
 46 47  0  0  0  0  0  0  0  0  2 V2000
  151.7897  139.8192  158.3282 C   0  0  0  0  0  0  0  0  0  0  0  0
  151.4426  139.6942  156.8740 C   0  0  0  0  0  0  0  0  0  0  0  0
  150.1692  139.4519  156.2879 C   0  0  0  0  0  0  0  0  0  0  0  0
  150.4499  139.4387  154.9475 C   0  0  0  0  0  0  0  0  0  0  0  0
  149.5957  139.2541  153.9073 N   0  0  0  0  0  0  0  0  0  0  0  0
  148.3057  138.8753  153.9326 C   0  0  0  0  0  0  0  0  0  0  0  0
  147.6580  138.6034  154.9435 O   0  0  0  0  0  0  0  0  0  0  0  0
  147.7896  138.8226  152.6975 N   0  0  0  0  0  0  0  0  0  0  0  0
  146.4084  138.4620  152.4039 C   0  0  0  0  0  0  0  0  0  0  0  0
  146.3365  137.1774  151.5605 C   0  0  2  0  0  0  0  0  0  0  0  0
  146.2094  137.5475  150.2010 O   0  0  0  0  0  0  0  0  0  0  0  0
  145.1059  136.3262  151.9349 C   0  0  0  0  0  0  0  0  0  0  0  0
  145.2543  134.9002  151.5443 N   0  3  2  0  0  0  0  0  0  0  0  0
  143.9455  134.2026  151.4569 C   0  0  0  0  0  0  0  0  0  0  0  0
  144.1108  132.7704  150.9211 C   0  0  0  0  0  0  0  0  0  0  0  0
  145.0910  131.9607  151.7857 C   0  0  1  0  0  0  0  0  0  0  0  0
  145.2838  130.5365  151.2466 C   0  0  0  0  0  0  0  0  0  0  0  0
  146.4242  132.7208  151.8815 C   0  0  0  0  0  0  0  0  0  0  0  0
  146.2137  134.1530  152.4010 C   0  0  0  0  0  0  0  0  0  0  0  0
  151.7678  139.6559  154.7196 O   0  0  0  0  0  0  0  0  0  0  0  0
  152.3951  139.8159  155.9608 N   0  0  0  0  0  0  0  0  0  0  0  0
  150.9022  139.7270  158.9545 H   0  0  0  0  0  0  0  0  0  0  0  0
  152.2464  140.7861  158.5416 H   0  0  0  0  0  0  0  0  0  0  0  0
  152.4922  139.0428  158.6325 H   0  0  0  0  0  0  0  0  0  0  0  0
  149.2213  139.3157  156.7864 H   0  0  0  0  0  0  0  0  0  0  0  0
  149.9907  139.4266  152.9946 H   0  0  0  0  0  0  0  0  0  0  0  0
  148.3808  139.0633  151.9150 H   0  0  0  0  0  0  0  0  0  0  0  0
  145.8974  138.3013  153.3547 H   0  0  0  0  0  0  0  0  0  0  0  0
  145.8966  139.2880  151.9064 H   0  0  0  0  0  0  0  0  0  0  0  0
  147.2539  136.6042  151.6937 H   0  0  0  0  0  0  0  0  0  0  0  0
  145.4202  138.0578  150.0979 H   0  0  0  0  0  0  0  0  0  0  0  0
  144.9113  136.3820  153.0071 H   0  0  0  0  0  0  0  0  0  0  0  0
  144.2286  136.7561  151.4482 H   0  0  0  0  0  0  0  0  0  0  0  0
  143.4741  134.1855  152.4410 H   0  0  0  0  0  0  0  0  0  0  0  0
  143.2774  134.7539  150.7940 H   0  0  0  0  0  0  0  0  0  0  0  0
  143.1393  132.2752  150.8945 H   0  0  0  0  0  0  0  0  0  0  0  0
  144.4672  132.8060  149.8905 H   0  0  0  0  0  0  0  0  0  0  0  0
  144.6719  131.8805  152.7898 H   0  0  0  0  0  0  0  0  0  0  0  0
  145.7028  130.5451  150.2397 H   0  0  0  0  0  0  0  0  0  0  0  0
  144.3354  129.9998  151.2078 H   0  0  0  0  0  0  0  0  0  0  0  0
  145.9590  129.9639  151.8833 H   0  0  0  0  0  0  0  0  0  0  0  0
  147.1100  132.1888  152.5422 H   0  0  0  0  0  0  0  0  0  0  0  0
  146.9038  132.7554  150.9022 H   0  0  0  0  0  0  0  0  0  0  0  0
  147.1762  134.6622  152.4283 H   0  0  0  0  0  0  0  0  0  0  0  0
  145.8431  134.1267  153.4270 H   0  0  0  0  0  0  0  0  0  0  0  0
  145.6330  134.9028  150.6076 H   0  0  0  0  0  0  0  0  0  0  0  0
  1  2  1  0  0  0  0
  1 22  1  0  0  0  0
  1 23  1  0  0  0  0
  1 24  1  0  0  0  0
  2 21  2  0  0  0  0
  2  3  1  0  0  0  0
  3  4  2  0  0  0  0
  3 25  1  0  0  0  0
  4  5  1  0  0  0  0
  4 20  1  0  0  0  0
  5  6  1  0  0  0  0
  5 26  1  0  0  0  0
  6  7  2  0  0  0  0
  6  8  1  0  0  0  0
  8  9  1  0  0  0  0
  8 27  1  0  0  0  0
  9 10  1  0  0  0  0
  9 28  1  0  0  0  0
  9 29  1  0  0  0  0
 10 11  1  0  0  0  0
 10 12  1  0  0  0  0
 10 30  1  0  0  0  0
 11 31  1  0  0  0  0
 12 13  1  0  0  0  0
 12 32  1  0  0  0  0
 12 33  1  0  0  0  0
 13 19  1  0  0  0  0
 13 14  1  0  0  0  0
 13 46  1  0  0  0  0
 14 15  1  0  0  0  0
 14 34  1  0  0  0  0
 14 35  1  0  0  0  0
 15 16  1  0  0  0  0
 15 36  1  0  0  0  0
 15 37  1  0  0  0  0
 16 17  1  0  0  0  0
 16 18  1  0  0  0  0
 16 38  1  0  0  0  0
 17 39  1  0  0  0  0
 17 40  1  0  0  0  0
 17 41  1  0  0  0  0
 18 19  1  0  0  0  0
 18 42  1  0  0  0  0
 18 43  1  0  0  0  0
 19 44  1  0  0  0  0
 19 45  1  0  0  0  0
 20 21  1  0  0  0  0
M  CHG  1  13   1
M  END
> <s_m_source_file>
AV-unprocessed.smi

> <i_m_source_file_index>
1029

> <i_lp_mmshare_version>
43012

> <i_f3d_flags>
0

> <s_epik_input>
W0NIM11jMVtjSF1jKG9uMSlbTkhdQyg9TylbTkhdW0NIMl1bQ0BIXShbT0hdKVtDSDJdTjJbQ0gyXVtDSDJdW0NIXShbQ0gzXSlbQ0gyXVtDSDJdMg==

> <s_epik_cmdline>
J2VwaWtfcHl0aG9uJywgJy1waCcsICc3LjAnLCAnLXRuJywgJzgnLCAnLW1hJywgJzIwMCcsICctbWV0YWxfYmluZGluZycsICctaW1hZScsICc8aW5maWxlLm1hZT4nLCAnLW9tYWUnLCAnPG91dGZpbGUubWFlPic=

> <r_lp_tautomer_probability>
1

> <r_epik_Ionization_Penalty>
0.00211787

> <r_epik_Ionization_Penalty_Charging>
0.00153238

> <r_epik_Ionization_Penalty_Neutral>
0.000585488

> <r_epik_State_Penalty>
-0

> <r_epik_Charging_Adjusted_Penalty>
0.00153238

> <i_epik_Tot_Q>
1

> <i_epik_Tot_abs_Q>
1

> <r_epik_Metal_State_Penalty>
-0

> <b_epik_Metal_Only>
0

> <s_lp_Force_Field>
OPLS_2005

> <r_lp_Energy>
21.4534

> <b_lp_Chiralities_Consistent>
1

> <s_lp_Variant>
AV-unprocessed.smi:1029-1

> <Gold.Version>
5.8.1

> <Gold.Id.Protein>
6NUR|6NUR_protein|mol2

> <Gold.PLP.Fitness>
51.7521

> <Gold.PLP.PLP>
-36.6681

> <Gold.PLP.part.hbond>
-7.0000

> <Gold.PLP.part.metal>
0.0000

> <Gold.PLP.part.buried>
-4.7513

> <Gold.PLP.part.nonpolar>
-26.5559

> <Gold.PLP.part.repulsive>
0.3092

> <Gold.PLP.ligand.clash>
0.0000

> <Gold.PLP.ligand.torsion>
0.8642

> <Gold.PLP.Chemscore.Hbond>
5.5888

> <Gold.PLP.Chemscore.CHOScore>
0.0000

> <Gold.PLP.Chemscore.Metal>
0.0000

> <Gold.Chemscore.Hbonds>
donor molecule, donor type, donor heavy atom, donor atom, acceptor molecule, acceptor atom, score
      L1  H     5    26       P1  7957  0.91
      L1  H     8    27       P1  7957  1.00
      L1  H    11    31       P1 10171  1.00
      P1  H  7954  7966       L1    11  0.63
      P1  H  7989  7998       L1    20  1.00
      P1  H  7997  8009       L1    21  1.00

> <Gold.PLP.Chemscore.Internal.Correction>
0.0461

> <Gold.Rescore>
     Score         DG    S(hbond)    S(metal)    S(lipo)     H(rot)  DE(clash)    DE(int)     intcor
     20.62     -24.00       4.81        0.00      74.82       2.46       1.26       2.12       ----

> <Gold.Chemscore.Fitness>
20.6215

> <Gold.Chemscore.DG>
-24.0029

> <Gold.Chemscore.ZeroCoef>
-5.4800

> <Gold.Chemscore.Hbond>
4.8123

> <Gold.Chemscore.Metal>
0.0000

> <Gold.Chemscore.Lipo>
74.8176

> <Gold.Chemscore.Internal_Hbond>
0.0000

> <Gold.Chemscore.DEClash>
1.2601

> <Gold.Chemscore.DEInternal>
2.1214

> <Gold.Chemscore.Rot>
2.4624

> <Gold.Chemscore.Internal.Correction>
   9.000000E+99

> <Gold.Chemscore.Hbonds>
donor molecule, donor type, donor heavy atom, donor atom, acceptor molecule, acceptor atom, score
      L1  H     5    26       P1  7957  0.87
      L1  H     8    27       P1  7957  0.94
      L1  H    11    31       P1 10171  1.00
      P1  H  7954  7966       L1    11  0.10
      P1  H  7989  7998       L1    20  0.25
      P1  H  7997  8009       L1    21  0.96

> <Gold.Chemscore.Hbond.Weighted>
-16.0730

> <Gold.Chemscore.Metal.Weighted>
-0.0000

> <Gold.Chemscore.Lipo.Weighted>
-8.7537

> <Gold.Chemscore.Internal_Hbond.Weighted>
0.0000

> <Gold.Chemscore.DEClash.Weighted>
1.2601

> <Gold.Chemscore.DEInternal.Weighted>
2.1214

> <Gold.Chemscore.Rot.Weighted>
6.3037

> <Gold.Chemscore.Internal.Correction.Weighted>
   9.000000E+99

> <Gold.Protein.RotatedTorsions>
[ 6907 6896 6895 6894 ] final  142.50 input  -60.11 | X-H torsion
[ 7974 7965 7964 7962 ] final  116.31 input  175.53 | X-H torsion
[ 8008 7997 7996 7995 ] final -152.87 input   59.86 | X-H torsion
[ 10167 10162 10161 10158 ] final   -8.12 input  -65.29 | X-H torsion
[ 10718 10713 10712 10709 ] final  167.98 input   66.30 | X-H torsion
[ 10763 10752 10751 10750 ] final -158.62 input  -60.55 | X-H torsion
[ 11005 11000 10999 10996 ] final   52.58 input  -57.11 | X-H torsion

> <Gold.Protein.ActiveResidues>
 VAL166  LYS551  ARG553  GLY616  TRP617  ASP618  TYR619  PRO620  LYS621  CYS622 
 ASP623  PHE694  ASN695  SER759  ASP760  ASP761  ALA762  ILE779  LEU786  VAL792 
 PHE793  MET794  SER795  GLU796  ALA797  LYS798  CYS799  TRP800  GLU811  SER814 

> <Gold.Protein.RotatedAtoms>
  152.2180  133.4961  159.5146 H   0  0  0  0  0  0  0  0  0  0  0  0  # atno 6907 bound_to 6896
  150.7006  134.1380  159.4103 H   0  0  0  0  0  0  0  0  0  0  0  0  # atno 6908 bound_to 6896
  151.9301  135.0260  160.0579 H   0  0  0  0  0  0  0  0  0  0  0  0  # atno 6909 bound_to 6896
  145.1812  139.3049  143.4417 H   0  0  0  0  0  0  0  0  0  0  0  0  # atno 7974 bound_to 7965
  155.6619  140.0723  157.2551 H   0  0  0  0  0  0  0  0  0  0  0  0  # atno 8008 bound_to 7997
  154.4141  140.1714  156.1836 H   0  0  0  0  0  0  0  0  0  0  0  0  # atno 8009 bound_to 7997
  155.9690  140.3363  155.6561 H   0  0  0  0  0  0  0  0  0  0  0  0  # atno 8010 bound_to 7997
  140.7049  143.6004  150.8803 H   0  0  0  0  0  0  0  0  0  0  0  0  # atno 10167 bound_to 10162
  157.0437  131.0294  151.2704 H   0  0  0  0  0  0  0  0  0  0  0  0  # atno 10718 bound_to 10713
  154.7541  135.3100  154.8502 H   0  0  0  0  0  0  0  0  0  0  0  0  # atno 10763 bound_to 10752
  153.9281  135.6788  153.4750 H   0  0  0  0  0  0  0  0  0  0  0  0  # atno 10764 bound_to 10752
  153.1138  135.4854  154.9010 H   0  0  0  0  0  0  0  0  0  0  0  0  # atno 10765 bound_to 10752
  140.0837  134.5303  155.8920 H   0  0  0  0  0  0  0  0  0  0  0  0  # atno 11005 bound_to 11000
  146.3453  140.1993  142.8589 LP  0  0  0  0  0  0  0  0  0  0  0  0  # atno 17320 bound_to 7965
  145.0134  140.8733  143.5210 LP  0  0  0  0  0  0  0  0  0  0  0  0  # atno 17321 bound_to 7965
  139.9729  143.6037  152.2968 LP  0  0  0  0  0  0  0  0  0  0  0  0  # atno 17342 bound_to 10162
  139.6630  144.7662  151.1927 LP  0  0  0  0  0  0  0  0  0  0  0  0  # atno 17343 bound_to 10162
  157.5084  130.7923  149.7679 LP  0  0  0  0  0  0  0  0  0  0  0  0  # atno 17370 bound_to 10713
  156.0030  130.3870  150.2536 LP  0  0  0  0  0  0  0  0  0  0  0  0  # atno 17371 bound_to 10713
  141.2055  133.6648  156.6187 LP  0  0  0  0  0  0  0  0  0  0  0  0  # atno 17394 bound_to 11000
  140.3450  134.7817  157.4426 LP  0  0  0  0  0  0  0  0  0  0  0  0  # atno 17395 bound_to 11000

$$$$
