AV-unprocessed.smi:69|AV-procd|sdf|658|dock2
  -GOLD-   2262016563D 1   1.00000     0.00000
 Structure written by MMmdl.
 32 34  0  0  0  0  0  0  0  0  1 V2000
  146.2020  139.2870  152.6909 N   0  0  0  0  0  0  0  0  0  0  0  0
  147.0984  140.0718  153.3046 C   0  0  0  0  0  0  0  0  0  0  0  0
  146.8425  141.3986  153.3854 N   0  0  0  0  0  0  0  0  0  0  0  0
  147.7221  142.2030  153.9911 C   0  0  0  0  0  0  0  0  0  0  0  0
  148.8853  141.8867  154.5663 N   0  0  0  0  0  0  0  0  0  0  0  0
  149.1413  140.5480  154.4850 C   0  0  0  0  0  0  0  0  0  0  0  0
  148.3008  139.5782  153.8715 C   0  0  0  0  0  0  0  0  0  0  0  0
  148.8775  138.3196  153.9739 N   0  0  0  0  0  0  0  0  0  0  0  0
  149.9962  138.5380  154.6120 C   0  0  0  0  0  0  0  0  0  0  0  0
  150.2330  139.8501  154.9612 N   0  0  0  0  0  0  0  0  0  0  0  0
  151.4171  140.4029  155.6879 C   0  0  1  0  0  0  0  0  0  0  0  0
  151.0471  141.6267  156.2437 O   0  0  0  0  0  0  0  0  0  0  0  0
  151.5818  141.7395  157.5569 C   0  0  1  0  0  0  0  0  0  0  0  0
  150.7411  142.7320  158.3746 C   0  0  0  0  0  0  0  0  0  0  0  0
  150.7092  143.9871  157.7292 O   0  0  0  0  0  0  0  0  0  0  0  0
  151.5023  140.3012  158.0717 C   0  0  2  0  0  0  0  0  0  0  0  0
  152.3658  140.0636  159.1683 O   0  0  0  0  0  0  0  0  0  0  0  0
  151.8450  139.4710  156.8354 C   0  0  2  0  0  0  0  0  0  0  0  0
  153.2276  139.1726  156.7576 O   0  0  0  0  0  0  0  0  0  0  0  0
  152.1804  140.5418  154.9201 H   0  0  0  0  0  0  0  0  0  0  0  0
  152.6261  142.0533  157.4975 H   0  0  0  0  0  0  0  0  0  0  0  0
  150.4814  140.0785  158.3822 H   0  0  0  0  0  0  0  0  0  0  0  0
  151.2855  138.5345  156.8124 H   0  0  0  0  0  0  0  0  0  0  0  0
  146.3703  138.2939  152.6171 H   0  0  0  0  0  0  0  0  0  0  0  0
  145.3622  139.6899  152.3012 H   0  0  0  0  0  0  0  0  0  0  0  0
  147.4560  143.2493  154.0200 H   0  0  0  0  0  0  0  0  0  0  0  0
  150.6842  137.7395  154.8493 H   0  0  0  0  0  0  0  0  0  0  0  0
  149.7288  142.3580  158.5330 H   0  0  0  0  0  0  0  0  0  0  0  0
  151.1881  142.8820  159.3577 H   0  0  0  0  0  0  0  0  0  0  0  0
  149.9605  144.0098  157.1531 H   0  0  0  0  0  0  0  0  0  0  0  0
  152.9486  139.3547  158.9418 H   0  0  0  0  0  0  0  0  0  0  0  0
  153.4580  138.6313  157.4973 H   0  0  0  0  0  0  0  0  0  0  0  0
  1  2  1  0  0  0  0
  1 24  1  0  0  0  0
  1 25  1  0  0  0  0
  2  7  1  0  0  0  0
  2  3  2  0  0  0  0
  3  4  1  0  0  0  0
  4  5  2  0  0  0  0
  4 26  1  0  0  0  0
  5  6  1  0  0  0  0
  6 10  1  0  0  0  0
  6  7  2  0  0  0  0
  7  8  1  0  0  0  0
  8  9  2  0  0  0  0
  9 10  1  0  0  0  0
  9 27  1  0  0  0  0
 10 11  1  0  0  0  0
 11 20  1  0  0  0  0
 11 18  1  0  0  0  0
 11 12  1  0  0  0  0
 12 13  1  0  0  0  0
 13 21  1  0  0  0  0
 13 14  1  0  0  0  0
 13 16  1  0  0  0  0
 14 15  1  0  0  0  0
 14 28  1  0  0  0  0
 14 29  1  0  0  0  0
 15 30  1  0  0  0  0
 16 22  1  0  0  0  0
 16 17  1  0  0  0  0
 16 18  1  0  0  0  0
 17 31  1  0  0  0  0
 18 23  1  0  0  0  0
 18 19  1  0  0  0  0
 19 32  1  0  0  0  0
M  END
> <s_m_source_file>
AV-unprocessed.smi

> <i_m_source_file_index>
69

> <i_lp_mmshare_version>
43012

> <i_f3d_flags>
0

> <s_epik_input>
bjFbY0hdbmMoW05IMl0pYyhjMTIpbltjSF1uMltDQEBIXTNPW0NASF0oW0NIMl1bT0hdKVtDQEBIXShbT0hdKVtDQEhdM1tPSF0=

> <s_epik_cmdline>
J2VwaWtfcHl0aG9uJywgJy1waCcsICc3LjAnLCAnLXRuJywgJzgnLCAnLW1hJywgJzIwMCcsICctbWV0YWxfYmluZGluZycsICctaW1hZScsICc8aW5maWxlLm1hZT4nLCAnLW9tYWUnLCAnPG91dGZpbGUubWFlPic=

> <r_lp_tautomer_probability>
1

> <r_epik_Ionization_Penalty>
0.000428445

> <r_epik_Ionization_Penalty_Charging>
0

> <r_epik_Ionization_Penalty_Neutral>
0.000428445

> <r_epik_State_Penalty>
-0

> <r_epik_Charging_Adjusted_Penalty>
0

> <i_epik_Tot_Q>
0

> <i_epik_Tot_abs_Q>
0

> <r_epik_Metal_State_Penalty>
-0

> <b_epik_Metal_Only>
0

> <s_epik_Chemistry_Notes>
This compound contains an acetal/aminal-like group ( X-CH(R)-Y where X, Y are N, S, or O) that may be acid/base labile, releasing an aldehyde.

> <s_lp_Force_Field>
OPLS_2005

> <r_lp_Energy>
38.6546

> <b_lp_Chiralities_Consistent>
1

> <s_lp_Variant>
AV-unprocessed.smi:69-16

> <Gold.Version>
5.8.1

> <Gold.Id.Protein>
6NUR|6NUR_protein|mol2

> <Gold.PLP.Fitness>
38.0699

> <Gold.PLP.PLP>
-28.0253

> <Gold.PLP.part.hbond>
-3.3271

> <Gold.PLP.part.metal>
0.0000

> <Gold.PLP.part.buried>
-4.5108

> <Gold.PLP.part.nonpolar>
-22.0943

> <Gold.PLP.part.repulsive>
2.1661

> <Gold.PLP.ligand.clash>
0.0000

> <Gold.PLP.ligand.torsion>
0.5951

> <Gold.PLP.Chemscore.Hbond>
3.0000

> <Gold.PLP.Chemscore.CHOScore>
0.7406

> <Gold.PLP.Chemscore.Metal>
0.0000

> <Gold.Chemscore.Hbonds>
donor molecule, donor type, donor heavy atom, donor atom, acceptor molecule, acceptor atom, score
      L1  H     1    25       P1 10175  1.00
      L1  H    15    30       P1  8028  1.00
      P1  H  7997  8009       L1    19  0.98
      L1  C     4    26       P1  8028  0.66

> <Gold.PLP.Chemscore.Internal.Correction>
0.0131

> <Gold.Rescore>
     Score         DG    S(hbond)    S(metal)    S(lipo)     H(rot)  DE(clash)    DE(int)     intcor
      6.46      -8.50       2.89        0.00      31.37       4.03       0.01       2.03       ----

> <Gold.Chemscore.Fitness>
6.4647

> <Gold.Chemscore.DG>
-8.5002

> <Gold.Chemscore.ZeroCoef>
-5.4800

> <Gold.Chemscore.Hbond>
2.8925

> <Gold.Chemscore.Metal>
0.0000

> <Gold.Chemscore.Lipo>
31.3681

> <Gold.Chemscore.Internal_Hbond>
0.0000

> <Gold.Chemscore.DEClash>
0.0071

> <Gold.Chemscore.DEInternal>
2.0284

> <Gold.Chemscore.Rot>
4.0277

> <Gold.Chemscore.Internal.Correction>
   9.000000E+99

> <Gold.Chemscore.Hbonds>
donor molecule, donor type, donor heavy atom, donor atom, acceptor molecule, acceptor atom, score
      L1  H     1    25       P1 10175  0.95
      L1  H    15    30       P1  8028  0.82
      P1  H  7997  8009       L1    19  0.75

> <Gold.Chemscore.Hbond.Weighted>
-9.6611

> <Gold.Chemscore.Metal.Weighted>
-0.0000

> <Gold.Chemscore.Lipo.Weighted>
-3.6701

> <Gold.Chemscore.Internal_Hbond.Weighted>
0.0000

> <Gold.Chemscore.DEClash.Weighted>
0.0071

> <Gold.Chemscore.DEInternal.Weighted>
2.0284

> <Gold.Chemscore.Rot.Weighted>
10.3110

> <Gold.Chemscore.Internal.Correction.Weighted>
   9.000000E+99

> <Gold.Protein.RotatedTorsions>
[ 6907 6896 6895 6894 ] final  -16.04 input  -60.11 | X-H torsion
[ 7974 7965 7964 7962 ] final   39.83 input  175.53 | X-H torsion
[ 8008 7997 7996 7995 ] final -160.86 input   59.86 | X-H torsion
[ 10167 10162 10161 10158 ] final   23.38 input  -65.29 | X-H torsion
[ 10718 10713 10712 10709 ] final   99.18 input   66.30 | X-H torsion
[ 10763 10752 10751 10750 ] final  137.28 input  -60.55 | X-H torsion
[ 11005 11000 10999 10996 ] final  103.00 input  -57.11 | X-H torsion

> <Gold.Protein.ActiveResidues>
 VAL166  LYS551  ARG553  GLY616  TRP617  ASP618  TYR619  PRO620  LYS621  CYS622 
 ASP623  PHE694  ASN695  SER759  ASP760  ASP761  ALA762  ILE779  LEU786  VAL792 
 PHE793  MET794  SER795  GLU796  ALA797  LYS798  CYS799  TRP800  GLU811  SER814 

> <Gold.Protein.RotatedAtoms>
  151.3148  135.0803  159.9284 H   0  0  0  0  0  0  0  0  0  0  0  0  # atno 6907 bound_to 6896
  152.5270  133.9699  159.7767 H   0  0  0  0  0  0  0  0  0  0  0  0  # atno 6908 bound_to 6896
  151.0009  133.6005  159.2725 H   0  0  0  0  0  0  0  0  0  0  0  0  # atno 6909 bound_to 6896
  146.0953  139.5605  142.9449 H   0  0  0  0  0  0  0  0  0  0  0  0  # atno 7974 bound_to 7965
  155.7837  140.0868  157.2046 H   0  0  0  0  0  0  0  0  0  0  0  0  # atno 8008 bound_to 7997
  154.3989  140.1503  156.3139 H   0  0  0  0  0  0  0  0  0  0  0  0  # atno 8009 bound_to 7997
  155.8628  140.3429  155.5771 H   0  0  0  0  0  0  0  0  0  0  0  0  # atno 8010 bound_to 7997
  140.5273  143.9901  150.6447 H   0  0  0  0  0  0  0  0  0  0  0  0  # atno 10167 bound_to 10162
  157.6881  131.0662  150.4909 H   0  0  0  0  0  0  0  0  0  0  0  0  # atno 10718 bound_to 10713
  153.8704  135.3056  155.3442 H   0  0  0  0  0  0  0  0  0  0  0  0  # atno 10763 bound_to 10752
  154.7808  135.4836  153.9843 H   0  0  0  0  0  0  0  0  0  0  0  0  # atno 10764 bound_to 10752
  153.1409  135.6824  153.9124 H   0  0  0  0  0  0  0  0  0  0  0  0  # atno 10765 bound_to 10752
  139.8781  134.9246  156.5143 H   0  0  0  0  0  0  0  0  0  0  0  0  # atno 11005 bound_to 11000
  145.5960  141.0362  143.2044 LP  0  0  0  0  0  0  0  0  0  0  0  0  # atno 17320 bound_to 7965
  144.7391  139.7501  143.7318 LP  0  0  0  0  0  0  0  0  0  0  0  0  # atno 17321 bound_to 7965
  140.3266  143.3103  152.0730 LP  0  0  0  0  0  0  0  0  0  0  0  0  # atno 17342 bound_to 10162
  139.4942  144.6538  151.6618 LP  0  0  0  0  0  0  0  0  0  0  0  0  # atno 17343 bound_to 10162
  156.5236  130.4168  149.6238 LP  0  0  0  0  0  0  0  0  0  0  0  0  # atno 17370 bound_to 10713
  156.3132  130.7240  151.2137 LP  0  0  0  0  0  0  0  0  0  0  0  0  # atno 17371 bound_to 10713
  140.8497  133.8141  155.9156 LP  0  0  0  0  0  0  0  0  0  0  0  0  # atno 17394 bound_to 11000
  140.9156  134.2206  157.4958 LP  0  0  0  0  0  0  0  0  0  0  0  0  # atno 17395 bound_to 11000

$$$$
