AV-unprocessed.smi:1014|AV-procd|sdf|4431|dock8
  -GOLD-   22720 2393D 1   1.00000     0.00000
 Structure written by MMmdl.
 34 34  0  0  0  0  0  0  0  0  2 V2000
  149.7482  138.9225  154.6661 C   0  0  0  0  0  0  0  0  0  0  0  0
  150.4134  140.1672  155.2750 C   0  0  0  0  0  0  0  0  0  0  0  0
  149.4429  141.3222  155.6072 C   0  0  1  0  0  0  0  0  0  0  0  0
  150.2227  142.4935  156.0706 N   0  3  0  0  0  0  0  0  0  0  0  0
  150.5733  142.4924  157.5071 C   0  0  0  0  0  0  0  0  0  0  0  0
  151.6121  143.5800  157.8170 C   0  0  0  0  0  0  0  0  0  0  0  0
  151.9203  143.6489  159.2325 N   0  0  0  0  0  0  0  0  0  0  0  0
  152.5421  142.7063  160.0237 C   0  0  0  0  0  0  0  0  0  0  0  0
  152.6274  143.2212  161.2863 C   0  0  0  0  0  0  0  0  0  0  0  0
  153.2178  142.5946  162.5165 C   0  0  0  0  0  0  0  0  0  0  0  0
  152.0243  144.5052  161.1616 C   0  0  0  0  0  0  0  0  0  0  0  0
  151.6050  144.7589  159.9327 N   0  0  0  0  0  0  0  0  0  0  0  0
  148.5699  141.6868  154.3949 C   0  0  0  0  0  0  0  0  0  0  0  0
  147.6726  142.6625  154.5574 N   0  0  0  0  0  0  0  0  0  0  0  0
  148.6989  141.0883  153.3284 O   0  0  0  0  0  0  0  0  0  0  0  0
  150.4791  138.1254  154.5284 H   0  0  0  0  0  0  0  0  0  0  0  0
  149.3114  139.1329  153.6898 H   0  0  0  0  0  0  0  0  0  0  0  0
  148.9593  138.5392  155.3135 H   0  0  0  0  0  0  0  0  0  0  0  0
  150.9217  139.8609  156.1904 H   0  0  0  0  0  0  0  0  0  0  0  0
  151.1980  140.5194  154.6034 H   0  0  0  0  0  0  0  0  0  0  0  0
  148.8008  141.0012  156.4296 H   0  0  0  0  0  0  0  0  0  0  0  0
  151.0856  142.5185  155.5469 H   0  0  0  0  0  0  0  0  0  0  0  0
  149.6737  142.6567  158.1015 H   0  0  0  0  0  0  0  0  0  0  0  0
  150.9677  141.5132  157.7823 H   0  0  0  0  0  0  0  0  0  0  0  0
  152.5362  143.3884  157.2698 H   0  0  0  0  0  0  0  0  0  0  0  0
  151.2500  144.5581  157.4966 H   0  0  0  0  0  0  0  0  0  0  0  0
  152.8707  141.7565  159.6280 H   0  0  0  0  0  0  0  0  0  0  0  0
  153.0265  143.1923  163.4079 H   0  0  0  0  0  0  0  0  0  0  0  0
  154.2988  142.4830  162.4310 H   0  0  0  0  0  0  0  0  0  0  0  0
  152.8050  141.6027  162.7010 H   0  0  0  0  0  0  0  0  0  0  0  0
  151.8814  145.2571  161.9238 H   0  0  0  0  0  0  0  0  0  0  0  0
  147.0810  142.9435  153.7888 H   0  0  0  0  0  0  0  0  0  0  0  0
  147.5932  143.1245  155.4523 H   0  0  0  0  0  0  0  0  0  0  0  0
  149.6942  143.3288  155.8612 H   0  0  0  0  0  0  0  0  0  0  0  0
  1  2  1  0  0  0  0
  1 16  1  0  0  0  0
  1 17  1  0  0  0  0
  1 18  1  0  0  0  0
  2  3  1  0  0  0  0
  2 19  1  0  0  0  0
  2 20  1  0  0  0  0
  3  4  1  0  0  0  0
  3 13  1  0  0  0  0
  3 21  1  0  0  0  0
  4  5  1  0  0  0  0
  4 22  1  0  0  0  0
  4 34  1  0  0  0  0
  5  6  1  0  0  0  0
  5 23  1  0  0  0  0
  5 24  1  0  0  0  0
  6  7  1  0  0  0  0
  6 25  1  0  0  0  0
  6 26  1  0  0  0  0
  7 12  1  0  0  0  0
  7  8  1  0  0  0  0
  8  9  2  0  0  0  0
  8 27  1  0  0  0  0
  9 10  1  0  0  0  0
  9 11  1  0  0  0  0
 10 28  1  0  0  0  0
 10 29  1  0  0  0  0
 10 30  1  0  0  0  0
 11 12  2  0  0  0  0
 11 31  1  0  0  0  0
 13 14  1  0  0  0  0
 13 15  2  0  0  0  0
 14 32  1  0  0  0  0
 14 33  1  0  0  0  0
M  CHG  1   4   1
M  END
> <s_m_source_file>
AV-unprocessed.smi

> <i_m_source_file_index>
1014

> <i_lp_mmshare_version>
43012

> <i_f3d_flags>
0

> <s_epik_input>
W0NIM11bQ0gyXVtDQEBIXShDKD1PKVtOSDJdKVtOSF1bQ0gyXVtDSDJdbjFbY0hdYyhbQ0gzXSlbY0hdbjE=

> <s_epik_cmdline>
J2VwaWtfcHl0aG9uJywgJy1waCcsICc3LjAnLCAnLXRuJywgJzgnLCAnLW1hJywgJzIwMCcsICctbWV0YWxfYmluZGluZycsICctaW1hZScsICc8aW5maWxlLm1hZT4nLCAnLW9tYWUnLCAnPG91dGZpbGUubWFlPic=

> <r_lp_tautomer_probability>
1

> <r_epik_Ionization_Penalty>
0.19042

> <r_epik_Ionization_Penalty_Charging>
0.190412

> <r_epik_Ionization_Penalty_Neutral>
7.5834e-06

> <r_epik_State_Penalty>
0.180404

> <r_epik_Charging_Adjusted_Penalty>
0.370816

> <i_epik_Tot_Q>
1

> <i_epik_Tot_abs_Q>
1

> <r_epik_Metal_State_Penalty>
0.180563

> <b_epik_Metal_Only>
0

> <s_lp_Force_Field>
OPLS_2005

> <r_lp_Energy>
2.60817

> <b_lp_Chiralities_Consistent>
1

> <s_lp_Variant>
AV-unprocessed.smi:1014-2

> <Gold.Version>
5.8.1

> <Gold.Id.Protein>
6NUR|6NUR_protein|mol2

> <Gold.PLP.Fitness>
45.6786

> <Gold.PLP.PLP>
-36.5637

> <Gold.PLP.part.hbond>
-3.0000

> <Gold.PLP.part.metal>
0.0000

> <Gold.PLP.part.buried>
-4.4366

> <Gold.PLP.part.nonpolar>
-33.2119

> <Gold.PLP.part.repulsive>
4.0221

> <Gold.PLP.ligand.clash>
0.0000

> <Gold.PLP.ligand.torsion>
0.3879

> <Gold.PLP.Chemscore.Hbond>
3.2720

> <Gold.PLP.Chemscore.CHOScore>
0.0000

> <Gold.PLP.Chemscore.Metal>
0.0000

> <Gold.Chemscore.Hbonds>
donor molecule, donor type, donor heavy atom, donor atom, acceptor molecule, acceptor atom, score
      L1  H     4    34       P1  8028  2.00
      L1  H    14    33       P1  8028  0.27
      P1  H  8011  8017       L1    15  1.00

> <Gold.PLP.Chemscore.Internal.Correction>
0.0746

> <Gold.Rescore>
     Score         DG    S(hbond)    S(metal)    S(lipo)     H(rot)  DE(clash)    DE(int)     intcor
     12.78     -15.16       1.87        0.00      85.83       2.59       1.55       0.83       ----

> <Gold.Chemscore.Fitness>
12.7819

> <Gold.Chemscore.DG>
-15.1579

> <Gold.Chemscore.ZeroCoef>
-5.4800

> <Gold.Chemscore.Hbond>
1.8745

> <Gold.Chemscore.Metal>
0.0000

> <Gold.Chemscore.Lipo>
85.8264

> <Gold.Chemscore.Internal_Hbond>
0.0000

> <Gold.Chemscore.DEClash>
1.5467

> <Gold.Chemscore.DEInternal>
0.8293

> <Gold.Chemscore.Rot>
2.5878

> <Gold.Chemscore.Internal.Correction>
   9.000000E+99

> <Gold.Chemscore.Hbonds>
donor molecule, donor type, donor heavy atom, donor atom, acceptor molecule, acceptor atom, score
      L1  H     4    34       P1  8028  0.99
      L1  H    14    33       P1  8028  0.07
      P1  H  8011  8017       L1    15  0.24

> <Gold.Chemscore.Hbond.Weighted>
-6.2609

> <Gold.Chemscore.Metal.Weighted>
-0.0000

> <Gold.Chemscore.Lipo.Weighted>
-10.0417

> <Gold.Chemscore.Internal_Hbond.Weighted>
0.0000

> <Gold.Chemscore.DEClash.Weighted>
1.5467

> <Gold.Chemscore.DEInternal.Weighted>
0.8293

> <Gold.Chemscore.Rot.Weighted>
6.6247

> <Gold.Chemscore.Internal.Correction.Weighted>
   9.000000E+99

> <Gold.Protein.RotatedTorsions>
[ 6907 6896 6895 6894 ] final  -81.51 input  -60.11 | X-H torsion
[ 7974 7965 7964 7962 ] final -124.20 input  175.53 | X-H torsion
[ 8008 7997 7996 7995 ] final  -50.62 input   59.86 | X-H torsion
[ 10167 10162 10161 10158 ] final  -60.53 input  -65.29 | X-H torsion
[ 10718 10713 10712 10709 ] final -126.15 input   66.30 | X-H torsion
[ 10763 10752 10751 10750 ] final   -9.01 input  -60.55 | X-H torsion
[ 11005 11000 10999 10996 ] final   36.25 input  -57.11 | X-H torsion

> <Gold.Protein.ActiveResidues>
 VAL166  LYS551  ARG553  GLY616  TRP617  ASP618  TYR619  PRO620  LYS621  CYS622 
 ASP623  PHE694  ASN695  SER759  ASP760  ASP761  ALA762  ILE779  LEU786  VAL792 
 PHE793  MET794  SER795  GLU796  ALA797  LYS798  CYS799  TRP800  GLU811  SER814 

> <Gold.Protein.RotatedAtoms>
  150.6911  134.3806  159.5032 H   0  0  0  0  0  0  0  0  0  0  0  0  # atno 6907 bound_to 6896
  152.1609  134.8910  160.0551 H   0  0  0  0  0  0  0  0  0  0  0  0  # atno 6908 bound_to 6896
  151.9972  133.3777  159.4204 H   0  0  0  0  0  0  0  0  0  0  0  0  # atno 6909 bound_to 6896
  145.0106  140.7902  143.4441 H   0  0  0  0  0  0  0  0  0  0  0  0  # atno 7974 bound_to 7965
  154.4065  140.1268  156.4695 H   0  0  0  0  0  0  0  0  0  0  0  0  # atno 8008 bound_to 7997
  155.7193  140.3493  155.4989 H   0  0  0  0  0  0  0  0  0  0  0  0  # atno 8009 bound_to 7997
  155.9229  140.1056  157.1183 H   0  0  0  0  0  0  0  0  0  0  0  0  # atno 8010 bound_to 7997
  140.6065  143.2375  151.5809 H   0  0  0  0  0  0  0  0  0  0  0  0  # atno 10167 bound_to 10162
  156.1740  130.6686  151.0217 H   0  0  0  0  0  0  0  0  0  0  0  0  # atno 10718 bound_to 10713
  153.4487  135.7015  153.6122 H   0  0  0  0  0  0  0  0  0  0  0  0  # atno 10763 bound_to 10752
  153.4466  135.3767  155.2260 H   0  0  0  0  0  0  0  0  0  0  0  0  # atno 10764 bound_to 10752
  154.8728  135.3987  154.3896 H   0  0  0  0  0  0  0  0  0  0  0  0  # atno 10765 bound_to 10752
  140.2345  134.3488  155.7950 H   0  0  0  0  0  0  0  0  0  0  0  0  # atno 11005 bound_to 11000
  145.2028  139.2243  143.5184 LP  0  0  0  0  0  0  0  0  0  0  0  0  # atno 17320 bound_to 7965
  146.3469  140.1850  142.8589 LP  0  0  0  0  0  0  0  0  0  0  0  0  # atno 17321 bound_to 7965
  139.5329  144.2865  152.1187 LP  0  0  0  0  0  0  0  0  0  0  0  0  # atno 17342 bound_to 10162
  140.2055  144.4615  150.6410 LP  0  0  0  0  0  0  0  0  0  0  0  0  # atno 17343 bound_to 10162
  157.6822  131.0835  150.7338 LP  0  0  0  0  0  0  0  0  0  0  0  0  # atno 17370 bound_to 10713
  156.7397  130.4735  149.5480 LP  0  0  0  0  0  0  0  0  0  0  0  0  # atno 17371 bound_to 10713
  141.2215  133.7264  156.8785 LP  0  0  0  0  0  0  0  0  0  0  0  0  # atno 17394 bound_to 11000
  140.1717  134.9095  157.2841 LP  0  0  0  0  0  0  0  0  0  0  0  0  # atno 17395 bound_to 11000

$$$$
