AV-unprocessed.smi:2089|AV-procd|sdf|8529|dock3
  -GOLD-   2272011243D 1   1.00000     0.00000
 Structure written by MMmdl.
 39 40  0  0  0  0  0  0  0  0  1 V2000
  150.7010  139.2265  154.6964 C   0  0  0  0  0  0  0  0  0  0  0  0
  149.2648  138.6904  155.7127 S   0  0  0  0  0  0  0  0  0  0  0  0
  148.9678  137.2789  155.4251 O   0  0  0  0  0  0  0  0  0  0  0  0
  149.4995  139.1216  157.0994 O   0  0  0  0  0  0  0  0  0  0  0  0
  147.9648  139.6425  155.0760 N   0  0  0  0  0  0  0  0  0  0  0  0
  147.9850  141.0928  155.3124 C   0  0  0  0  0  0  0  0  0  0  0  0
  147.9292  141.7353  153.9304 C   0  0  0  0  0  0  0  0  0  0  0  0
  147.1055  140.7423  153.1257 C   0  0  0  0  0  0  0  0  0  0  0  0
  147.5325  139.3776  153.6921 C   0  0  2  0  0  0  0  0  0  0  0  0
  146.4325  138.3138  153.5875 C   0  0  0  0  0  0  0  0  0  0  0  0
  145.3289  138.5057  154.0994 O   0  0  0  0  0  0  0  0  0  0  0  0
  146.7532  137.1847  152.9398 N   0  0  0  0  0  0  0  0  0  0  0  0
  145.8528  136.0540  152.7656 C   0  0  0  0  0  0  0  0  0  0  0  0
  145.6034  135.7812  151.2760 C   0  0  0  0  0  0  0  0  0  0  0  0
  145.1557  134.3539  151.0239 C   0  0  0  0  0  0  0  0  0  0  0  0
  143.8235  133.9612  151.2739 C   0  0  0  0  0  0  0  0  0  0  0  0
  143.4567  132.6273  151.0098 C   0  0  0  0  0  0  0  0  0  0  0  0
  144.4304  131.7427  150.5076 C   0  0  0  0  0  0  0  0  0  0  0  0
  145.7337  132.2330  150.2919 C   0  0  0  0  0  0  0  0  0  0  0  0
  146.0959  133.5099  150.5422 N   0  0  0  0  0  0  0  0  0  0  0  0
  151.5984  138.7126  155.0405 H   0  0  0  0  0  0  0  0  0  0  0  0
  150.8382  140.3026  154.8003 H   0  0  0  0  0  0  0  0  0  0  0  0
  150.5259  138.9819  153.6492 H   0  0  0  0  0  0  0  0  0  0  0  0
  147.1050  141.3622  155.8973 H   0  0  0  0  0  0  0  0  0  0  0  0
  148.8695  141.4026  155.8693 H   0  0  0  0  0  0  0  0  0  0  0  0
  147.4948  142.7351  153.9449 H   0  0  0  0  0  0  0  0  0  0  0  0
  148.9347  141.8080  153.5142 H   0  0  0  0  0  0  0  0  0  0  0  0
  146.0438  140.9353  153.2876 H   0  0  0  0  0  0  0  0  0  0  0  0
  147.2983  140.8259  152.0556 H   0  0  0  0  0  0  0  0  0  0  0  0
  148.4079  139.0456  153.1300 H   0  0  0  0  0  0  0  0  0  0  0  0
  147.6850  137.0966  152.5611 H   0  0  0  0  0  0  0  0  0  0  0  0
  146.2882  135.1727  153.2394 H   0  0  0  0  0  0  0  0  0  0  0  0
  144.9082  136.2604  153.2717 H   0  0  0  0  0  0  0  0  0  0  0  0
  144.8428  136.4629  150.8923 H   0  0  0  0  0  0  0  0  0  0  0  0
  146.5104  135.9794  150.7031 H   0  0  0  0  0  0  0  0  0  0  0  0
  143.0979  134.6647  151.6552 H   0  0  0  0  0  0  0  0  0  0  0  0
  142.4466  132.2893  151.1876 H   0  0  0  0  0  0  0  0  0  0  0  0
  144.1847  130.7135  150.2918 H   0  0  0  0  0  0  0  0  0  0  0  0
  146.5055  131.5829  149.9072 H   0  0  0  0  0  0  0  0  0  0  0  0
  1  2  1  0  0  0  0
  1 21  1  0  0  0  0
  1 22  1  0  0  0  0
  1 23  1  0  0  0  0
  2  3  2  0  0  0  0
  2  4  2  0  0  0  0
  2  5  1  0  0  0  0
  5  9  1  0  0  0  0
  5  6  1  0  0  0  0
  6  7  1  0  0  0  0
  6 24  1  0  0  0  0
  6 25  1  0  0  0  0
  7  8  1  0  0  0  0
  7 26  1  0  0  0  0
  7 27  1  0  0  0  0
  8  9  1  0  0  0  0
  8 28  1  0  0  0  0
  8 29  1  0  0  0  0
  9 10  1  0  0  0  0
  9 30  1  0  0  0  0
 10 11  2  0  0  0  0
 10 12  1  0  0  0  0
 12 13  1  0  0  0  0
 12 31  1  0  0  0  0
 13 14  1  0  0  0  0
 13 32  1  0  0  0  0
 13 33  1  0  0  0  0
 14 15  1  0  0  0  0
 14 34  1  0  0  0  0
 14 35  1  0  0  0  0
 15 20  1  0  0  0  0
 15 16  2  0  0  0  0
 16 17  1  0  0  0  0
 16 36  1  0  0  0  0
 17 18  2  0  0  0  0
 17 37  1  0  0  0  0
 18 19  1  0  0  0  0
 18 38  1  0  0  0  0
 19 20  2  0  0  0  0
 19 39  1  0  0  0  0
M  END
> <s_m_source_file>
AV-unprocessed.smi

> <i_m_source_file_index>
2089

> <i_lp_mmshare_version>
43012

> <i_f3d_flags>
0

> <s_epik_input>
W0NIM11TKD1PKSg9TylOMVtDSDJdW0NIMl1bQ0gyXVtDQEhdMUMoPU8pW05IXVtDSDJdW0NIMl1jMltjSF1bY0hdW2NIXVtjSF1uMg==

> <s_epik_cmdline>
J2VwaWtfcHl0aG9uJywgJy1waCcsICc3LjAnLCAnLXRuJywgJzgnLCAnLW1hJywgJzIwMCcsICctbWV0YWxfYmluZGluZycsICctaW1hZScsICc8aW5maWxlLm1hZT4nLCAnLW9tYWUnLCAnPG91dGZpbGUubWFlPic=

> <r_epik_Ionization_Penalty>
0.0244371

> <r_epik_Ionization_Penalty_Charging>
0

> <r_epik_Ionization_Penalty_Neutral>
0.0244371

> <r_epik_State_Penalty>
0.0198365

> <r_epik_Charging_Adjusted_Penalty>
0.0198365

> <i_epik_Tot_Q>
0

> <i_epik_Tot_abs_Q>
0

> <r_epik_Metal_State_Penalty>
0.0190441

> <b_epik_Metal_Only>
0

> <s_lp_Force_Field>
OPLS_2005

> <r_lp_Energy>
5.6995

> <b_lp_Chiralities_Consistent>
1

> <s_lp_Variant>
AV-unprocessed.smi:2089-2

> <Gold.Version>
5.8.1

> <Gold.Id.Protein>
6NUR|6NUR_protein|mol2

> <Gold.PLP.Fitness>
37.4665

> <Gold.PLP.PLP>
-32.2453

> <Gold.PLP.part.hbond>
-1.0000

> <Gold.PLP.part.metal>
0.0000

> <Gold.PLP.part.buried>
-5.0813

> <Gold.PLP.part.nonpolar>
-27.2136

> <Gold.PLP.part.repulsive>
0.5719

> <Gold.PLP.ligand.clash>
0.0000

> <Gold.PLP.ligand.torsion>
0.6004

> <Gold.PLP.Chemscore.Hbond>
1.0000

> <Gold.PLP.Chemscore.CHOScore>
0.9965

> <Gold.PLP.Chemscore.Metal>
0.0000

> <Gold.Chemscore.Hbonds>
donor molecule, donor type, donor heavy atom, donor atom, acceptor molecule, acceptor atom, score
      L1  H    12    31       P1  7948  1.00
      L1  C    19    39       P1 10747  0.86

> <Gold.PLP.Chemscore.Internal.Correction>
0.4324

> <Gold.Rescore>
     Score         DG    S(hbond)    S(metal)    S(lipo)     H(rot)  DE(clash)    DE(int)     intcor
     13.12     -13.78       0.98        0.00      84.51       1.90       0.05       0.60       ----

> <Gold.Chemscore.Fitness>
13.1227

> <Gold.Chemscore.DG>
-13.7760

> <Gold.Chemscore.ZeroCoef>
-5.4800

> <Gold.Chemscore.Hbond>
0.9790

> <Gold.Chemscore.Metal>
0.0000

> <Gold.Chemscore.Lipo>
84.5089

> <Gold.Chemscore.Internal_Hbond>
0.0000

> <Gold.Chemscore.DEClash>
0.0506

> <Gold.Chemscore.DEInternal>
0.6027

> <Gold.Chemscore.Rot>
1.8990

> <Gold.Chemscore.Internal.Correction>
   9.000000E+99

> <Gold.Chemscore.Hbonds>
donor molecule, donor type, donor heavy atom, donor atom, acceptor molecule, acceptor atom, score
      L1  H    12    31       P1  7948  0.97

> <Gold.Chemscore.Hbond.Weighted>
-3.2698

> <Gold.Chemscore.Metal.Weighted>
-0.0000

> <Gold.Chemscore.Lipo.Weighted>
-9.8875

> <Gold.Chemscore.Internal_Hbond.Weighted>
0.0000

> <Gold.Chemscore.DEClash.Weighted>
0.0506

> <Gold.Chemscore.DEInternal.Weighted>
0.6027

> <Gold.Chemscore.Rot.Weighted>
4.8613

> <Gold.Chemscore.Internal.Correction.Weighted>
   9.000000E+99

> <Gold.Protein.RotatedTorsions>
[ 6907 6896 6895 6894 ] final -145.19 input  -60.11 | X-H torsion
[ 7974 7965 7964 7962 ] final -111.55 input  175.53 | X-H torsion
[ 8008 7997 7996 7995 ] final -107.61 input   59.86 | X-H torsion
[ 10167 10162 10161 10158 ] final  142.25 input  -65.29 | X-H torsion
[ 10718 10713 10712 10709 ] final -174.39 input   66.30 | X-H torsion
[ 10763 10752 10751 10750 ] final   89.50 input  -60.55 | X-H torsion
[ 11005 11000 10999 10996 ] final  161.35 input  -57.11 | X-H torsion

> <Gold.Protein.ActiveResidues>
 VAL166  LYS551  ARG553  GLY616  TRP617  ASP618  TYR619  PRO620  LYS621  CYS622 
 ASP623  PHE694  ASN695  SER759  ASP760  ASP761  ALA762  ILE779  LEU786  VAL792 
 PHE793  MET794  SER795  GLU796  ALA797  LYS798  CYS799  TRP800  GLU811  SER814 

> <Gold.Protein.RotatedAtoms>
  151.1244  133.5081  159.2600 H   0  0  0  0  0  0  0  0  0  0  0  0  # atno 6907 bound_to 6896
  151.1826  135.0367  159.8809 H   0  0  0  0  0  0  0  0  0  0  0  0  # atno 6908 bound_to 6896
  152.5457  134.1094  159.8405 H   0  0  0  0  0  0  0  0  0  0  0  0  # atno 6909 bound_to 6896
  145.1547  140.8847  143.3626 H   0  0  0  0  0  0  0  0  0  0  0  0  # atno 7974 bound_to 7965
  154.9319  140.0405  157.2052 H   0  0  0  0  0  0  0  0  0  0  0  0  # atno 8008 bound_to 7997
  154.8153  140.2874  155.5803 H   0  0  0  0  0  0  0  0  0  0  0  0  # atno 8009 bound_to 7997
  156.2975  140.2529  156.3049 H   0  0  0  0  0  0  0  0  0  0  0  0  # atno 8010 bound_to 7997
  139.4999  144.6119  151.6251 H   0  0  0  0  0  0  0  0  0  0  0  0  # atno 10167 bound_to 10162
  156.7844  130.9495  151.3120 H   0  0  0  0  0  0  0  0  0  0  0  0  # atno 10718 bound_to 10713
  153.1877  135.4468  155.0109 H   0  0  0  0  0  0  0  0  0  0  0  0  # atno 10763 bound_to 10752
  154.8071  135.3279  154.7406 H   0  0  0  0  0  0  0  0  0  0  0  0  # atno 10764 bound_to 10752
  153.7863  135.6973  153.4934 H   0  0  0  0  0  0  0  0  0  0  0  0  # atno 10765 bound_to 10752
  140.2149  134.8240  157.3159 H   0  0  0  0  0  0  0  0  0  0  0  0  # atno 11005 bound_to 11000
  145.0394  139.3273  143.5984 LP  0  0  0  0  0  0  0  0  0  0  0  0  # atno 17320 bound_to 7965
  146.3490  139.9762  142.8701 LP  0  0  0  0  0  0  0  0  0  0  0  0  # atno 17321 bound_to 7965
  140.5796  143.9968  150.6261 LP  0  0  0  0  0  0  0  0  0  0  0  0  # atno 17342 bound_to 10162
  140.3113  143.3196  152.0876 LP  0  0  0  0  0  0  0  0  0  0  0  0  # atno 17343 bound_to 10162
  157.6631  130.8983  149.9872 LP  0  0  0  0  0  0  0  0  0  0  0  0  # atno 17370 bound_to 10713
  156.1198  130.3646  149.9907 LP  0  0  0  0  0  0  0  0  0  0  0  0  # atno 17371 bound_to 10713
  140.1911  134.4370  155.7715 LP  0  0  0  0  0  0  0  0  0  0  0  0  # atno 17394 bound_to 11000
  141.2225  133.7028  156.8029 LP  0  0  0  0  0  0  0  0  0  0  0  0  # atno 17395 bound_to 11000

$$$$
