AV-unprocessed.smi:1889|AV-procd|sdf|7661|dock6
  -GOLD-   22720 9393D 1   1.00000     0.00000
 Structure written by MMmdl.
 35 36  0  0  0  0  0  0  0  0  2 V2000
  151.8067  145.1421  159.0686 C   0  0  0  0  0  0  0  0  0  0  0  0
  151.0810  144.8011  160.3747 C   0  0  0  0  0  0  0  0  0  0  0  0
  151.9752  144.0403  161.3639 C   0  0  0  0  0  0  0  0  0  0  0  0
  152.5647  142.8042  160.7709 C   0  0  0  0  0  0  0  0  0  0  0  0
  152.2919  142.3938  159.5294 N   0  0  0  0  0  0  0  0  0  0  0  0
  152.9386  141.2067  159.2172 N   0  0  0  0  0  0  0  0  0  0  0  0
  153.6826  140.7321  160.2262 C   0  0  0  0  0  0  0  0  0  0  0  0
  154.3828  139.5898  160.1307 N   0  5  0  0  0  0  0  0  0  0  0  0
  154.4779  138.9532  158.9411 C   0  0  0  0  0  0  0  0  0  0  0  0
  155.5130  138.7538  158.3011 O   0  0  0  0  0  0  0  0  0  0  0  0
  153.3018  138.5145  158.4691 N   0  0  0  0  0  0  0  0  0  0  0  0
  153.0874  137.7844  157.2225 C   0  0  0  0  0  0  0  0  0  0  0  0
  151.9075  138.3590  156.4157 C   0  0  2  0  0  0  0  0  0  0  0  0
  151.5584  137.6025  155.1483 C   0  0  0  0  0  0  0  0  0  0  0  0
  150.7526  138.6381  154.3692 C   0  0  0  0  0  0  0  0  0  0  0  0
  151.2531  139.9104  154.7717 O   0  0  0  0  0  0  0  0  0  0  0  0
  152.1684  139.7546  155.8516 C   0  0  0  0  0  0  0  0  0  0  0  0
  153.6215  141.7339  161.6762 S   0  0  0  0  0  0  0  0  0  0  0  0
  151.1474  145.6804  158.3876 H   0  0  0  0  0  0  0  0  0  0  0  0
  152.1459  144.2394  158.5597 H   0  0  0  0  0  0  0  0  0  0  0  0
  152.6779  145.7707  159.2549 H   0  0  0  0  0  0  0  0  0  0  0  0
  150.7259  145.7222  160.8384 H   0  0  0  0  0  0  0  0  0  0  0  0
  150.1950  144.2062  160.1499 H   0  0  0  0  0  0  0  0  0  0  0  0
  152.7852  144.6839  161.7096 H   0  0  0  0  0  0  0  0  0  0  0  0
  151.4014  143.7594  162.2475 H   0  0  0  0  0  0  0  0  0  0  0  0
  152.4835  138.7033  159.0295 H   0  0  0  0  0  0  0  0  0  0  0  0
  154.0014  137.8663  156.6339 H   0  0  0  0  0  0  0  0  0  0  0  0
  152.9451  136.7192  157.4126 H   0  0  0  0  0  0  0  0  0  0  0  0
  151.0212  138.4028  157.0513 H   0  0  0  0  0  0  0  0  0  0  0  0
  152.4647  137.3450  154.5982 H   0  0  0  0  0  0  0  0  0  0  0  0
  151.0002  136.6843  155.3340 H   0  0  0  0  0  0  0  0  0  0  0  0
  150.8349  138.5010  153.2908 H   0  0  0  0  0  0  0  0  0  0  0  0
  149.6971  138.5807  154.6383 H   0  0  0  0  0  0  0  0  0  0  0  0
  152.0402  140.5386  156.5983 H   0  0  0  0  0  0  0  0  0  0  0  0
  153.1825  139.8278  155.4560 H   0  0  0  0  0  0  0  0  0  0  0  0
  1  2  1  0  0  0  0
  1 19  1  0  0  0  0
  1 20  1  0  0  0  0
  1 21  1  0  0  0  0
  2  3  1  0  0  0  0
  2 22  1  0  0  0  0
  2 23  1  0  0  0  0
  3  4  1  0  0  0  0
  3 24  1  0  0  0  0
  3 25  1  0  0  0  0
  4 18  1  0  0  0  0
  4  5  2  0  0  0  0
  5  6  1  0  0  0  0
  6  7  2  0  0  0  0
  7  8  1  0  0  0  0
  7 18  1  0  0  0  0
  8  9  1  0  0  0  0
  9 10  2  0  0  0  0
  9 11  1  0  0  0  0
 11 12  1  0  0  0  0
 11 26  1  0  0  0  0
 12 13  1  0  0  0  0
 12 27  1  0  0  0  0
 12 28  1  0  0  0  0
 13 17  1  0  0  0  0
 13 14  1  0  0  0  0
 13 29  1  0  0  0  0
 14 15  1  0  0  0  0
 14 30  1  0  0  0  0
 14 31  1  0  0  0  0
 15 16  1  0  0  0  0
 15 32  1  0  0  0  0
 15 33  1  0  0  0  0
 16 17  1  0  0  0  0
 17 34  1  0  0  0  0
 17 35  1  0  0  0  0
M  CHG  1   8  -1
M  END
> <s_m_source_file>
AV-unprocessed.smi

> <i_m_source_file_index>
1889

> <i_lp_mmshare_version>
43012

> <i_f3d_flags>
0

> <s_epik_input>
W0NIM11bQ0gyXVtDSDJdYzFubmMoczEpW05IXUMoPU8pW05IXVtDSDJdW0NAQEhdMltDSDJdW0NIMl1PW0NIMl0y

> <s_epik_cmdline>
J2VwaWtfcHl0aG9uJywgJy1waCcsICc3LjAnLCAnLXRuJywgJzgnLCAnLW1hJywgJzIwMCcsICctbWV0YWxfYmluZGluZycsICctaW1hZScsICc8aW5maWxlLm1hZT4nLCAnLW9tYWUnLCAnPG91dGZpbGUubWFlPic=

> <r_lp_tautomer_probability>
1

> <r_epik_Ionization_Penalty>
4.29669

> <r_epik_Ionization_Penalty_Charging>
4.28522

> <r_epik_Ionization_Penalty_Neutral>
0.0114689

> <r_epik_State_Penalty>
4.28479

> <r_epik_Charging_Adjusted_Penalty>
8.57002

> <i_epik_Tot_Q>
-1

> <i_epik_Tot_abs_Q>
1

> <r_epik_Metal_State_Penalty>
0.72177

> <b_epik_Metal_Only>
1

> <s_lp_Force_Field>
OPLS_2005

> <r_lp_Energy>
11.5011

> <b_lp_Chiralities_Consistent>
1

> <s_lp_Variant>
AV-unprocessed.smi:1889-3

> <Gold.Version>
5.8.1

> <Gold.Id.Protein>
6NUR|6NUR_protein|mol2

> <Gold.PLP.Fitness>
42.5881

> <Gold.PLP.PLP>
-38.0032

> <Gold.PLP.part.hbond>
-2.0000

> <Gold.PLP.part.metal>
0.0000

> <Gold.PLP.part.buried>
-6.2279

> <Gold.PLP.part.nonpolar>
-29.7536

> <Gold.PLP.part.repulsive>
0.1548

> <Gold.PLP.ligand.clash>
0.0000

> <Gold.PLP.ligand.torsion>
0.7165

> <Gold.PLP.Chemscore.Hbond>
1.9760

> <Gold.PLP.Chemscore.CHOScore>
0.0000

> <Gold.PLP.Chemscore.Metal>
0.0000

> <Gold.Chemscore.Hbonds>
donor molecule, donor type, donor heavy atom, donor atom, acceptor molecule, acceptor atom, score
      P1  H  7989  7998       L1    16  1.00
      P1  H  7997  8010       L1    10  1.00

> <Gold.PLP.Chemscore.Internal.Correction>
0.0898

> <Gold.Rescore>
     Score         DG    S(hbond)    S(metal)    S(lipo)     H(rot)  DE(clash)    DE(int)     intcor
     16.17     -17.01       1.61        0.00      87.45       1.59       0.09       0.76       ----

> <Gold.Chemscore.Fitness>
16.1711

> <Gold.Chemscore.DG>
-17.0139

> <Gold.Chemscore.ZeroCoef>
-5.4800

> <Gold.Chemscore.Hbond>
1.6104

> <Gold.Chemscore.Metal>
0.0000

> <Gold.Chemscore.Lipo>
87.4456

> <Gold.Chemscore.Internal_Hbond>
0.0000

> <Gold.Chemscore.DEClash>
0.0852

> <Gold.Chemscore.DEInternal>
0.7576

> <Gold.Chemscore.Rot>
1.5922

> <Gold.Chemscore.Internal.Correction>
   9.000000E+99

> <Gold.Chemscore.Hbonds>
donor molecule, donor type, donor heavy atom, donor atom, acceptor molecule, acceptor atom, score
      P1  H  7989  7998       L1    16  0.83
      P1  H  7997  8010       L1    10  0.28

> <Gold.Chemscore.Hbond.Weighted>
-5.3789

> <Gold.Chemscore.Metal.Weighted>
-0.0000

> <Gold.Chemscore.Lipo.Weighted>
-10.2311

> <Gold.Chemscore.Internal_Hbond.Weighted>
0.0000

> <Gold.Chemscore.DEClash.Weighted>
0.0852

> <Gold.Chemscore.DEInternal.Weighted>
0.7576

> <Gold.Chemscore.Rot.Weighted>
4.0761

> <Gold.Chemscore.Internal.Correction.Weighted>
   9.000000E+99

> <Gold.Protein.RotatedTorsions>
[ 6907 6896 6895 6894 ] final -136.44 input  -60.11 | X-H torsion
[ 7974 7965 7964 7962 ] final -143.86 input  175.53 | X-H torsion
[ 8008 7997 7996 7995 ] final  -22.91 input   59.86 | X-H torsion
[ 10167 10162 10161 10158 ] final   44.77 input  -65.29 | X-H torsion
[ 10718 10713 10712 10709 ] final   62.72 input   66.30 | X-H torsion
[ 10763 10752 10751 10750 ] final -129.18 input  -60.55 | X-H torsion
[ 11005 11000 10999 10996 ] final  -64.58 input  -57.11 | X-H torsion

> <Gold.Protein.ActiveResidues>
 VAL166  LYS551  ARG553  GLY616  TRP617  ASP618  TYR619  PRO620  LYS621  CYS622 
 ASP623  PHE694  ASN695  SER759  ASP760  ASP761  ALA762  ILE779  LEU786  VAL792 
 PHE793  MET794  SER795  GLU796  ALA797  LYS798  CYS799  TRP800  GLU811  SER814 

> <Gold.Protein.RotatedAtoms>
  151.0102  133.5973  159.2683 H   0  0  0  0  0  0  0  0  0  0  0  0  # atno 6907 bound_to 6896
  151.3127  135.0797  159.9288 H   0  0  0  0  0  0  0  0  0  0  0  0  # atno 6908 bound_to 6896
  152.5297  133.9763  159.7840 H   0  0  0  0  0  0  0  0  0  0  0  0  # atno 6909 bound_to 6896
  144.8339  140.5781  143.5497 H   0  0  0  0  0  0  0  0  0  0  0  0  # atno 7974 bound_to 7965
  154.4616  140.1995  156.0230 H   0  0  0  0  0  0  0  0  0  0  0  0  # atno 8008 bound_to 7997
  156.0850  140.3266  155.7714 H   0  0  0  0  0  0  0  0  0  0  0  0  # atno 8009 bound_to 7997
  155.5049  140.0557  157.2924 H   0  0  0  0  0  0  0  0  0  0  0  0  # atno 8010 bound_to 7997
  140.3309  144.2589  150.6168 H   0  0  0  0  0  0  0  0  0  0  0  0  # atno 10167 bound_to 10162
  157.5921  130.9066  149.9624 H   0  0  0  0  0  0  0  0  0  0  0  0  # atno 10718 bound_to 10713
  154.8757  135.3904  154.3878 H   0  0  0  0  0  0  0  0  0  0  0  0  # atno 10763 bound_to 10752
  153.4618  135.7029  153.6051 H   0  0  0  0  0  0  0  0  0  0  0  0  # atno 10764 bound_to 10752
  153.4546  135.3826  155.2272 H   0  0  0  0  0  0  0  0  0  0  0  0  # atno 10765 bound_to 10752
  141.1429  133.6668  156.5855 H   0  0  0  0  0  0  0  0  0  0  0  0  # atno 11005 bound_to 11000
  145.4837  139.1493  143.3747 LP  0  0  0  0  0  0  0  0  0  0  0  0  # atno 17320 bound_to 7965
  146.2639  140.4974  142.8842 LP  0  0  0  0  0  0  0  0  0  0  0  0  # atno 17321 bound_to 7965
  140.5398  143.2226  151.8104 LP  0  0  0  0  0  0  0  0  0  0  0  0  # atno 17342 bound_to 10162
  139.4856  144.4615  151.9535 LP  0  0  0  0  0  0  0  0  0  0  0  0  # atno 17343 bound_to 10162
  156.0977  130.3658  150.0275 LP  0  0  0  0  0  0  0  0  0  0  0  0  # atno 17370 bound_to 10713
  156.8396  130.9421  151.3632 LP  0  0  0  0  0  0  0  0  0  0  0  0  # atno 17371 bound_to 10713
  140.3804  134.7528  157.4657 LP  0  0  0  0  0  0  0  0  0  0  0  0  # atno 17394 bound_to 11000
  140.0642  134.5953  155.8714 LP  0  0  0  0  0  0  0  0  0  0  0  0  # atno 17395 bound_to 11000

$$$$
