AV-unprocessed.smi:741|AV-procd|sdf|3555|dock9
  -GOLD-   22720 0553D 1   1.00000     0.00000
 Structure written by MMmdl.
 42 43  0  0  0  0  0  0  0  0  2 V2000
  145.6176  139.0738  155.8480 C   0  0  0  0  0  0  0  0  0  0  0  0
  145.9658  137.9413  154.8711 C   0  0  0  0  0  0  0  0  0  0  0  0
  146.5819  138.4304  153.5462 C   0  0  1  0  0  0  0  0  0  0  0  0
  147.8979  139.2006  153.7954 C   0  0  0  0  0  0  0  0  0  0  0  0
  149.0723  138.3064  153.9420 N   0  3  0  0  0  0  0  0  0  0  0  0
  150.3655  138.9952  154.1312 C   0  0  0  0  0  0  0  0  0  0  0  0
  151.2770  137.9391  154.7454 C   0  0  0  0  0  0  0  0  0  0  0  0
  150.3372  137.1689  155.6689 C   0  0  0  0  0  0  0  0  0  0  0  0
  148.9509  137.2990  155.0213 C   0  0  0  0  0  0  0  0  0  0  0  0
  146.8079  137.2888  152.6562 N   0  0  0  0  0  0  0  0  0  0  0  0
  145.8804  136.4144  152.2394 C   0  0  0  0  0  0  0  0  0  0  0  0
  144.6890  136.5004  152.5340 O   0  0  0  0  0  0  0  0  0  0  0  0
  146.4222  135.4720  151.4487 N   0  0  0  0  0  0  0  0  0  0  0  0
  145.7843  134.3758  150.8070 C   0  0  0  0  0  0  0  0  0  0  0  0
  146.5462  133.2087  150.5913 C   0  0  0  0  0  0  0  0  0  0  0  0
  145.9329  132.1017  149.9713 C   0  0  0  0  0  0  0  0  0  0  0  0
  144.6424  132.0942  149.5763 N   0  0  0  0  0  0  0  0  0  0  0  0
  143.9102  133.2065  149.7967 C   0  0  0  0  0  0  0  0  0  0  0  0
  144.4260  134.3673  150.4076 C   0  0  0  0  0  0  0  0  0  0  0  0
  145.2321  138.6705  156.7845 H   0  0  0  0  0  0  0  0  0  0  0  0
  144.8561  139.7384  155.4394 H   0  0  0  0  0  0  0  0  0  0  0  0
  146.4964  139.6749  156.0833 H   0  0  0  0  0  0  0  0  0  0  0  0
  146.6661  137.2657  155.3637 H   0  0  0  0  0  0  0  0  0  0  0  0
  145.0702  137.3523  154.6687 H   0  0  0  0  0  0  0  0  0  0  0  0
  145.8596  139.1099  153.0903 H   0  0  0  0  0  0  0  0  0  0  0  0
  148.0861  139.9163  152.9937 H   0  0  0  0  0  0  0  0  0  0  0  0
  147.7880  139.7878  154.7087 H   0  0  0  0  0  0  0  0  0  0  0  0
  150.7623  139.3932  153.1974 H   0  0  0  0  0  0  0  0  0  0  0  0
  150.2464  139.8262  154.8284 H   0  0  0  0  0  0  0  0  0  0  0  0
  151.6561  137.2780  153.9648 H   0  0  0  0  0  0  0  0  0  0  0  0
  152.1319  138.3677  155.2695 H   0  0  0  0  0  0  0  0  0  0  0  0
  150.6433  136.1304  155.7998 H   0  0  0  0  0  0  0  0  0  0  0  0
  150.3267  137.6370  156.6542 H   0  0  0  0  0  0  0  0  0  0  0  0
  148.2153  137.5977  155.7696 H   0  0  0  0  0  0  0  0  0  0  0  0
  148.6210  136.3535  154.5901 H   0  0  0  0  0  0  0  0  0  0  0  0
  147.7608  137.1371  152.3575 H   0  0  0  0  0  0  0  0  0  0  0  0
  147.4034  135.5809  151.2371 H   0  0  0  0  0  0  0  0  0  0  0  0
  147.5835  133.1579  150.8891 H   0  0  0  0  0  0  0  0  0  0  0  0
  146.4946  131.1972  149.7892 H   0  0  0  0  0  0  0  0  0  0  0  0
  142.8780  133.1700  149.4812 H   0  0  0  0  0  0  0  0  0  0  0  0
  143.7712  135.2098  150.5665 H   0  0  0  0  0  0  0  0  0  0  0  0
  149.1557  137.7797  153.0840 H   0  0  0  0  0  0  0  0  0  0  0  0
  1  2  1  0  0  0  0
  1 20  1  0  0  0  0
  1 21  1  0  0  0  0
  1 22  1  0  0  0  0
  2  3  1  0  0  0  0
  2 23  1  0  0  0  0
  2 24  1  0  0  0  0
  3  4  1  0  0  0  0
  3 10  1  0  0  0  0
  3 25  1  0  0  0  0
  4  5  1  0  0  0  0
  4 26  1  0  0  0  0
  4 27  1  0  0  0  0
  5  9  1  0  0  0  0
  5  6  1  0  0  0  0
  5 42  1  0  0  0  0
  6  7  1  0  0  0  0
  6 28  1  0  0  0  0
  6 29  1  0  0  0  0
  7  8  1  0  0  0  0
  7 30  1  0  0  0  0
  7 31  1  0  0  0  0
  8  9  1  0  0  0  0
  8 32  1  0  0  0  0
  8 33  1  0  0  0  0
  9 34  1  0  0  0  0
  9 35  1  0  0  0  0
 10 11  1  0  0  0  0
 10 36  1  0  0  0  0
 11 12  2  0  0  0  0
 11 13  1  0  0  0  0
 13 14  1  0  0  0  0
 13 37  1  0  0  0  0
 14 19  1  0  0  0  0
 14 15  2  0  0  0  0
 15 16  1  0  0  0  0
 15 38  1  0  0  0  0
 16 17  2  0  0  0  0
 16 39  1  0  0  0  0
 17 18  1  0  0  0  0
 18 19  2  0  0  0  0
 18 40  1  0  0  0  0
 19 41  1  0  0  0  0
M  CHG  1   5   1
M  END
> <s_m_source_file>
AV-unprocessed.smi

> <i_m_source_file_index>
741

> <i_lp_mmshare_version>
43012

> <i_f3d_flags>
0

> <s_epik_input>
W0NIMl0xW0NIMl1bQ0gyXVtDSDJdTjFbQ0gyXVtDQEBIXShbQ0gyXVtDSDNdKVtOSF1DKD1PKVtOSF1jMltjSF1bY0hdbltjSF1bY0hdMg==

> <s_epik_cmdline>
J2VwaWtfcHl0aG9uJywgJy1waCcsICc3LjAnLCAnLXRuJywgJzgnLCAnLW1hJywgJzIwMCcsICctbWV0YWxfYmluZGluZycsICctaW1hZScsICc8aW5maWxlLm1hZT4nLCAnLW9tYWUnLCAnPG91dGZpbGUubWFlPic=

> <r_epik_Ionization_Penalty>
0.101421

> <r_epik_Ionization_Penalty_Charging>
0.00180027

> <r_epik_Ionization_Penalty_Neutral>
0.0996204

> <r_epik_State_Penalty>
0.0910414

> <r_epik_Charging_Adjusted_Penalty>
0.0928416

> <i_epik_Tot_Q>
1

> <i_epik_Tot_abs_Q>
1

> <r_epik_Metal_State_Penalty>
0.076772

> <b_epik_Metal_Only>
0

> <s_lp_Force_Field>
OPLS_2005

> <r_lp_Energy>
40.7955

> <b_lp_Chiralities_Consistent>
1

> <s_lp_Variant>
AV-unprocessed.smi:741-2

> <Gold.Version>
5.8.1

> <Gold.Id.Protein>
6NUR|6NUR_protein|mol2

> <Gold.PLP.Fitness>
45.9442

> <Gold.PLP.PLP>
-29.2093

> <Gold.PLP.part.hbond>
-3.3119

> <Gold.PLP.part.metal>
0.0000

> <Gold.PLP.part.buried>
-1.7690

> <Gold.PLP.part.nonpolar>
-22.5460

> <Gold.PLP.part.repulsive>
0.4859

> <Gold.PLP.ligand.clash>
0.0000

> <Gold.PLP.ligand.torsion>
0.4144

> <Gold.PLP.Chemscore.Hbond>
3.9120

> <Gold.PLP.Chemscore.CHOScore>
1.9308

> <Gold.PLP.Chemscore.Metal>
0.0000

> <Gold.Chemscore.Hbonds>
donor molecule, donor type, donor heavy atom, donor atom, acceptor molecule, acceptor atom, score
      L1  H     5    42       P1  7948  2.00
      L1  H    10    36       P1  7948  1.00
      L1  H    13    37       P1  7948  0.91
      L1  C    16    39       P1 10747  0.92
      L1  C    18    40       P1 10186  1.00

> <Gold.PLP.Chemscore.Internal.Correction>
0.0353

> <Gold.Rescore>
     Score         DG    S(hbond)    S(metal)    S(lipo)     H(rot)  DE(clash)    DE(int)     intcor
     19.57     -20.33       3.03        0.00      75.10       1.59       0.12       0.65       ----

> <Gold.Chemscore.Fitness>
19.5721

> <Gold.Chemscore.DG>
-20.3342

> <Gold.Chemscore.ZeroCoef>
-5.4800

> <Gold.Chemscore.Hbond>
3.0322

> <Gold.Chemscore.Metal>
0.0000

> <Gold.Chemscore.Lipo>
75.0966

> <Gold.Chemscore.Internal_Hbond>
0.0000

> <Gold.Chemscore.DEClash>
0.1166

> <Gold.Chemscore.DEInternal>
0.6455

> <Gold.Chemscore.Rot>
1.5858

> <Gold.Chemscore.Internal.Correction>
   9.000000E+99

> <Gold.Chemscore.Hbonds>
donor molecule, donor type, donor heavy atom, donor atom, acceptor molecule, acceptor atom, score
      L1  H     5    42       P1  7948  0.98
      L1  H    10    36       P1  7948  0.94
      L1  H    13    37       P1  7948  0.76

> <Gold.Chemscore.Hbond.Weighted>
-10.1275

> <Gold.Chemscore.Metal.Weighted>
-0.0000

> <Gold.Chemscore.Lipo.Weighted>
-8.7863

> <Gold.Chemscore.Internal_Hbond.Weighted>
0.0000

> <Gold.Chemscore.DEClash.Weighted>
0.1166

> <Gold.Chemscore.DEInternal.Weighted>
0.6455

> <Gold.Chemscore.Rot.Weighted>
4.0596

> <Gold.Chemscore.Internal.Correction.Weighted>
   9.000000E+99

> <Gold.Protein.RotatedTorsions>
[ 6907 6896 6895 6894 ] final  -15.11 input  -60.11 | X-H torsion
[ 7974 7965 7964 7962 ] final   -1.33 input  175.53 | X-H torsion
[ 8008 7997 7996 7995 ] final -115.22 input   59.86 | X-H torsion
[ 10167 10162 10161 10158 ] final  -67.91 input  -65.29 | X-H torsion
[ 10718 10713 10712 10709 ] final -172.36 input   66.30 | X-H torsion
[ 10763 10752 10751 10750 ] final  -35.96 input  -60.55 | X-H torsion
[ 11005 11000 10999 10996 ] final  156.75 input  -57.11 | X-H torsion

> <Gold.Protein.ActiveResidues>
 VAL166  LYS551  ARG553  GLY616  TRP617  ASP618  TYR619  PRO620  LYS621  CYS622 
 ASP623  PHE694  ASN695  SER759  ASP760  ASP761  ALA762  ILE779  LEU786  VAL792 
 PHE793  MET794  SER795  GLU796  ALA797  LYS798  CYS799  TRP800  GLU811  SER814 

> <Gold.Protein.RotatedAtoms>
  151.3291  135.0837  159.9331 H   0  0  0  0  0  0  0  0  0  0  0  0  # atno 6907 bound_to 6896
  152.5239  133.9561  159.7705 H   0  0  0  0  0  0  0  0  0  0  0  0  # atno 6908 bound_to 6896
  150.9896  133.6110  159.2740 H   0  0  0  0  0  0  0  0  0  0  0  0  # atno 6909 bound_to 6896
  146.2418  140.1403  142.8335 H   0  0  0  0  0  0  0  0  0  0  0  0  # atno 7974 bound_to 7965
  155.0486  140.0393  157.2535 H   0  0  0  0  0  0  0  0  0  0  0  0  # atno 8008 bound_to 7997
  154.7157  140.2701  155.6564 H   0  0  0  0  0  0  0  0  0  0  0  0  # atno 8009 bound_to 7997
  156.2802  140.2713  156.1812 H   0  0  0  0  0  0  0  0  0  0  0  0  # atno 8010 bound_to 7997
  140.5547  143.2312  151.6844 H   0  0  0  0  0  0  0  0  0  0  0  0  # atno 10167 bound_to 10162
  156.7545  130.9390  151.3116 H   0  0  0  0  0  0  0  0  0  0  0  0  # atno 10718 bound_to 10713
  153.8718  135.6830  153.4774 H   0  0  0  0  0  0  0  0  0  0  0  0  # atno 10763 bound_to 10752
  153.1283  135.4709  154.9306 H   0  0  0  0  0  0  0  0  0  0  0  0  # atno 10764 bound_to 10752
  154.7711  135.3239  154.8139 H   0  0  0  0  0  0  0  0  0  0  0  0  # atno 10765 bound_to 10752
  140.1705  134.8546  157.2684 H   0  0  0  0  0  0  0  0  0  0  0  0  # atno 11005 bound_to 11000
  145.0252  140.8826  143.5143 LP  0  0  0  0  0  0  0  0  0  0  0  0  # atno 17320 bound_to 7965
  145.1458  139.2544  143.5466 LP  0  0  0  0  0  0  0  0  0  0  0  0  # atno 17321 bound_to 7965
  139.5042  144.3761  152.0422 LP  0  0  0  0  0  0  0  0  0  0  0  0  # atno 17342 bound_to 10162
  140.2881  144.3784  150.6097 LP  0  0  0  0  0  0  0  0  0  0  0  0  # atno 17343 bound_to 10162
  157.6762  130.9097  150.0157 LP  0  0  0  0  0  0  0  0  0  0  0  0  # atno 17370 bound_to 10713
  156.1379  130.3642  149.9627 LP  0  0  0  0  0  0  0  0  0  0  0  0  # atno 17371 bound_to 10713
  140.2383  134.3826  155.7491 LP  0  0  0  0  0  0  0  0  0  0  0  0  # atno 17394 bound_to 11000
  141.2217  133.7251  156.8749 LP  0  0  0  0  0  0  0  0  0  0  0  0  # atno 17395 bound_to 11000

$$$$
