AV-unprocessed.smi:2741|AV-procd|sdf|10560|dock10
  -GOLD-   2272015 13D 1   1.00000     0.00000
 Structure written by MMmdl.
 39 40  0  0  0  0  0  0  0  0  1 V2000
  146.2450  127.7428  152.2143 O   0  0  0  0  0  0  0  0  0  0  0  0
  147.2022  128.3475  151.7289 C   0  0  0  0  0  0  0  0  0  0  0  0
  148.3250  127.5942  151.0009 C   0  0  0  0  0  0  0  0  0  0  0  0
  148.2899  126.1385  151.2216 N   0  0  0  0  0  0  0  0  0  0  0  0
  147.9337  125.3314  150.1231 C   0  0  0  0  0  0  0  0  0  0  0  0
  147.8436  123.9897  150.1980 C   0  0  0  0  0  0  0  0  0  0  0  0
  147.5043  123.1442  148.9803 C   0  0  0  0  0  0  0  0  0  0  0  0
  147.5631  121.8431  149.2651 F   0  0  0  0  0  0  0  0  0  0  0  0
  146.2698  123.4234  148.5647 F   0  0  0  0  0  0  0  0  0  0  0  0
  148.3458  123.3916  147.9758 F   0  0  0  0  0  0  0  0  0  0  0  0
  148.1685  123.3916  151.4779 C   0  0  0  0  0  0  0  0  0  0  0  0
  148.5174  124.1485  152.5367 C   0  0  0  0  0  0  0  0  0  0  0  0
  148.5877  125.6087  152.4458 C   0  0  0  0  0  0  0  0  0  0  0  0
  148.8952  126.3114  153.4090 O   0  0  0  0  0  0  0  0  0  0  0  0
  147.3283  129.6822  151.7795 N   0  0  0  0  0  0  0  0  0  0  0  0
  146.3789  130.5912  152.4126 C   0  0  0  0  0  0  0  0  0  0  0  0
  145.8564  131.6601  151.4335 C   0  0  2  0  0  0  0  0  0  0  0  0
  145.6565  133.0563  152.0539 C   0  0  0  0  0  0  0  0  0  0  0  0
  144.3965  133.6501  151.4032 C   0  0  0  0  0  0  0  0  0  0  0  0
  143.9870  132.6586  150.3101 C   0  0  2  0  0  0  0  0  0  0  0  0
  142.5923  132.6505  150.0910 O   0  0  0  0  0  0  0  0  0  0  0  0
  144.5002  131.3119  150.8148 C   0  0  0  0  0  0  0  0  0  0  0  0
  148.2512  127.8216  149.9366 H   0  0  0  0  0  0  0  0  0  0  0  0
  149.2905  127.9982  151.3115 H   0  0  0  0  0  0  0  0  0  0  0  0
  147.7320  125.8754  149.2118 H   0  0  0  0  0  0  0  0  0  0  0  0
  148.1266  122.3186  151.5927 H   0  0  0  0  0  0  0  0  0  0  0  0
  148.7498  123.6691  153.4763 H   0  0  0  0  0  0  0  0  0  0  0  0
  148.1427  130.0991  151.3519 H   0  0  0  0  0  0  0  0  0  0  0  0
  145.5466  130.0242  152.8333 H   0  0  0  0  0  0  0  0  0  0  0  0
  146.8807  131.0690  153.2545 H   0  0  0  0  0  0  0  0  0  0  0  0
  146.5668  131.7615  150.6112 H   0  0  0  0  0  0  0  0  0  0  0  0
  145.5147  132.9928  153.1334 H   0  0  0  0  0  0  0  0  0  0  0  0
  146.5310  133.6842  151.8800 H   0  0  0  0  0  0  0  0  0  0  0  0
  143.6109  133.7291  152.1563 H   0  0  0  0  0  0  0  0  0  0  0  0
  144.5659  134.6503  151.0033 H   0  0  0  0  0  0  0  0  0  0  0  0
  144.4934  132.9142  149.3781 H   0  0  0  0  0  0  0  0  0  0  0  0
  142.3040  131.7531  150.0233 H   0  0  0  0  0  0  0  0  0  0  0  0
  144.5794  130.5679  150.0217 H   0  0  0  0  0  0  0  0  0  0  0  0
  143.8301  130.9165  151.5804 H   0  0  0  0  0  0  0  0  0  0  0  0
  1  2  2  0  0  0  0
  2  3  1  0  0  0  0
  2 15  1  0  0  0  0
  3  4  1  0  0  0  0
  3 23  1  0  0  0  0
  3 24  1  0  0  0  0
  4 13  1  0  0  0  0
  4  5  1  0  0  0  0
  5  6  2  0  0  0  0
  5 25  1  0  0  0  0
  6  7  1  0  0  0  0
  6 11  1  0  0  0  0
  7  8  1  0  0  0  0
  7  9  1  0  0  0  0
  7 10  1  0  0  0  0
 11 12  2  0  0  0  0
 11 26  1  0  0  0  0
 12 13  1  0  0  0  0
 12 27  1  0  0  0  0
 13 14  2  0  0  0  0
 15 16  1  0  0  0  0
 15 28  1  0  0  0  0
 16 17  1  0  0  0  0
 16 29  1  0  0  0  0
 16 30  1  0  0  0  0
 17 22  1  0  0  0  0
 17 18  1  0  0  0  0
 17 31  1  0  0  0  0
 18 19  1  0  0  0  0
 18 32  1  0  0  0  0
 18 33  1  0  0  0  0
 19 20  1  0  0  0  0
 19 34  1  0  0  0  0
 19 35  1  0  0  0  0
 20 21  1  0  0  0  0
 20 22  1  0  0  0  0
 20 36  1  0  0  0  0
 21 37  1  0  0  0  0
 22 38  1  0  0  0  0
 22 39  1  0  0  0  0
M  END
> <s_m_source_file>
AV-unprocessed.smi

> <i_m_source_file_index>
2741

> <i_lp_mmshare_version>
43012

> <i_f3d_flags>
0

> <s_epik_input>
W09IXVtDQEBIXShbQ0gyXTEpW0NIMl1bQ0gyXVtDQEhdMVtDSDJdW05IXUMoPU8pW0NIMl1uMltjSF1jKEMoRikoRilGKVtjSF1bY0hdYzI9Tw==

> <s_epik_cmdline>
J2VwaWtfcHl0aG9uJywgJy1waCcsICc3LjAnLCAnLXRuJywgJzgnLCAnLW1hJywgJzIwMCcsICctbWV0YWxfYmluZGluZycsICctaW1hZScsICc8aW5maWxlLm1hZT4nLCAnLW9tYWUnLCAnPG91dGZpbGUubWFlPic=

> <r_lp_tautomer_probability>
1

> <r_epik_Ionization_Penalty>
1.17551e-06

> <r_epik_Ionization_Penalty_Charging>
1.78841e-08

> <r_epik_Ionization_Penalty_Neutral>
1.15762e-06

> <r_epik_State_Penalty>
-0

> <r_epik_Charging_Adjusted_Penalty>
1.78841e-08

> <i_epik_Tot_Q>
0

> <i_epik_Tot_abs_Q>
0

> <r_epik_Metal_State_Penalty>
-0

> <b_epik_Metal_Only>
0

> <s_lp_Force_Field>
OPLS_2005

> <r_lp_Energy>
33.0279

> <b_lp_Chiralities_Consistent>
1

> <s_lp_Variant>
AV-unprocessed.smi:2741-3

> <Gold.Version>
5.8.1

> <Gold.Id.Protein>
6NUR|6NUR_protein|mol2

> <Gold.PLP.Fitness>
49.9349

> <Gold.PLP.PLP>
-45.5954

> <Gold.PLP.part.hbond>
-2.8887

> <Gold.PLP.part.metal>
0.0000

> <Gold.PLP.part.buried>
-6.6151

> <Gold.PLP.part.nonpolar>
-36.7259

> <Gold.PLP.part.repulsive>
0.1654

> <Gold.PLP.ligand.clash>
0.0000

> <Gold.PLP.ligand.torsion>
0.7882

> <Gold.PLP.Chemscore.Hbond>
1.9513

> <Gold.PLP.Chemscore.CHOScore>
0.0000

> <Gold.PLP.Chemscore.Metal>
0.0000

> <Gold.Chemscore.Hbonds>
donor molecule, donor type, donor heavy atom, donor atom, acceptor molecule, acceptor atom, score
      L1  H    15    28       P1 10747  1.00
      L1  H    21    37       P1 10952  0.85

> <Gold.PLP.Chemscore.Internal.Correction>
0.0620

> <Gold.Rescore>
     Score         DG    S(hbond)    S(metal)    S(lipo)     H(rot)  DE(clash)    DE(int)     intcor
     13.74     -15.66       1.96        0.00      85.51       2.48       1.08       0.84       ----

> <Gold.Chemscore.Fitness>
13.7425

> <Gold.Chemscore.DG>
-15.6636

> <Gold.Chemscore.ZeroCoef>
-5.4800

> <Gold.Chemscore.Hbond>
1.9551

> <Gold.Chemscore.Metal>
0.0000

> <Gold.Chemscore.Lipo>
85.5071

> <Gold.Chemscore.Internal_Hbond>
0.0000

> <Gold.Chemscore.DEClash>
1.0811

> <Gold.Chemscore.DEInternal>
0.8399

> <Gold.Chemscore.Rot>
2.4807

> <Gold.Chemscore.Internal.Correction>
   9.000000E+99

> <Gold.Chemscore.Hbonds>
donor molecule, donor type, donor heavy atom, donor atom, acceptor molecule, acceptor atom, score
      L1  H    15    28       P1 10747  0.89
      L1  H    21    37       P1 10952  0.73

> <Gold.Chemscore.Hbond.Weighted>
-6.5299

> <Gold.Chemscore.Metal.Weighted>
-0.0000

> <Gold.Chemscore.Lipo.Weighted>
-10.0043

> <Gold.Chemscore.Internal_Hbond.Weighted>
0.0000

> <Gold.Chemscore.DEClash.Weighted>
1.0811

> <Gold.Chemscore.DEInternal.Weighted>
0.8399

> <Gold.Chemscore.Rot.Weighted>
6.3507

> <Gold.Chemscore.Internal.Correction.Weighted>
   9.000000E+99

> <Gold.Protein.RotatedTorsions>
[ 6907 6896 6895 6894 ] final  -12.63 input  -60.11 | X-H torsion
[ 7974 7965 7964 7962 ] final -131.39 input  175.53 | X-H torsion
[ 8008 7997 7996 7995 ] final  -98.17 input   59.86 | X-H torsion
[ 10167 10162 10161 10158 ] final  -69.55 input  -65.29 | X-H torsion
[ 10718 10713 10712 10709 ] final -106.35 input   66.30 | X-H torsion
[ 10763 10752 10751 10750 ] final   53.63 input  -60.55 | X-H torsion
[ 11005 11000 10999 10996 ] final   17.81 input  -57.11 | X-H torsion

> <Gold.Protein.ActiveResidues>
 VAL166  LYS551  ARG553  GLY616  TRP617  ASP618  TYR619  PRO620  LYS621  CYS622 
 ASP623  PHE694  ASN695  SER759  ASP760  ASP761  ALA762  ILE779  LEU786  VAL792 
 PHE793  MET794  SER795  GLU796  ALA797  LYS798  CYS799  TRP800  GLU811  SER814 

> <Gold.Protein.RotatedAtoms>
  151.3675  135.0916  159.9454 H   0  0  0  0  0  0  0  0  0  0  0  0  # atno 6907 bound_to 6896
  152.5145  133.9197  159.7539 H   0  0  0  0  0  0  0  0  0  0  0  0  # atno 6908 bound_to 6896
  150.9604  133.6397  159.2784 H   0  0  0  0  0  0  0  0  0  0  0  0  # atno 6909 bound_to 6896
  144.9384  140.7210  143.4862 H   0  0  0  0  0  0  0  0  0  0  0  0  # atno 7974 bound_to 7965
  154.7976  140.0457  157.1248 H   0  0  0  0  0  0  0  0  0  0  0  0  # atno 8008 bound_to 7997
  154.9517  140.3066  155.5052 H   0  0  0  0  0  0  0  0  0  0  0  0  # atno 8009 bound_to 7997
  156.2958  140.2287  156.4595 H   0  0  0  0  0  0  0  0  0  0  0  0  # atno 8010 bound_to 7997
  140.5422  143.2314  151.7068 H   0  0  0  0  0  0  0  0  0  0  0  0  # atno 10167 bound_to 10162
  156.0386  130.5609  150.7669 H   0  0  0  0  0  0  0  0  0  0  0  0  # atno 10718 bound_to 10713
  152.9797  135.5772  154.4773 H   0  0  0  0  0  0  0  0  0  0  0  0  # atno 10763 bound_to 10752
  154.4327  135.2774  155.1903 H   0  0  0  0  0  0  0  0  0  0  0  0  # atno 10764 bound_to 10752
  154.3605  135.6190  153.5742 H   0  0  0  0  0  0  0  0  0  0  0  0  # atno 10765 bound_to 10752
  140.4318  134.1412  155.7681 H   0  0  0  0  0  0  0  0  0  0  0  0  # atno 11005 bound_to 11000
  145.3030  139.1844  143.4679 LP  0  0  0  0  0  0  0  0  0  0  0  0  # atno 17320 bound_to 7965
  146.3276  140.3024  142.8621 LP  0  0  0  0  0  0  0  0  0  0  0  0  # atno 17321 bound_to 7965
  139.4993  144.3951  152.0240 LP  0  0  0  0  0  0  0  0  0  0  0  0  # atno 17342 bound_to 10162
  140.3060  144.3592  150.6047 LP  0  0  0  0  0  0  0  0  0  0  0  0  # atno 17343 bound_to 10162
  157.5173  131.0929  151.0123 LP  0  0  0  0  0  0  0  0  0  0  0  0  # atno 17370 bound_to 10713
  157.0462  130.5769  149.5363 LP  0  0  0  0  0  0  0  0  0  0  0  0  # atno 17371 bound_to 10713
  141.1742  133.8547  157.1473 LP  0  0  0  0  0  0  0  0  0  0  0  0  # atno 17394 bound_to 11000
  140.0129  134.9980  157.0433 LP  0  0  0  0  0  0  0  0  0  0  0  0  # atno 17395 bound_to 11000

$$$$
