AV-unprocessed.smi:3116|AV-procd|sdf|11866|dock1
  -GOLD-   2272017243D 1   1.00000     0.00000
 Structure written by MMmdl.
 34 34  0  0  0  0  0  0  0  0  2 V2000
  148.3734  142.0040  154.4761 C   0  0  0  0  0  0  0  0  0  0  0  0
  149.3462  141.2689  155.4144 C   0  0  2  0  0  0  0  0  0  0  0  0
  150.3517  142.2050  155.9687 N   0  3  0  0  0  0  0  0  0  0  0  0
  150.8661  141.8822  157.3214 C   0  0  2  0  0  0  0  0  0  0  0  0
  149.6684  141.7642  158.2787 C   0  0  0  0  0  0  0  0  0  0  0  0
  151.8955  142.9515  157.7815 C   0  0  1  0  0  0  0  0  0  0  0  0
  151.3157  144.3794  157.8176 C   0  0  0  0  0  0  0  0  0  0  0  0
  152.4744  142.6168  159.0781 N   0  0  0  0  0  0  0  0  0  0  0  0
  152.4214  143.3453  160.2490 C   0  0  0  0  0  0  0  0  0  0  0  0
  153.1249  142.6542  161.1932 C   0  0  0  0  0  0  0  0  0  0  0  0
  153.5752  141.4967  160.5000 C   0  0  0  0  0  0  0  0  0  0  0  0
  153.1900  141.4797  159.2343 N   0  0  0  0  0  0  0  0  0  0  0  0
  150.0392  140.1190  154.6741 C   0  0  0  0  0  0  0  0  0  0  0  0
  149.2574  139.2696  154.0023 N   0  0  0  0  0  0  0  0  0  0  0  0
  151.2629  139.9994  154.6990 O   0  0  0  0  0  0  0  0  0  0  0  0
  147.6279  141.3220  154.0655 H   0  0  0  0  0  0  0  0  0  0  0  0
  148.8980  142.4665  153.6388 H   0  0  0  0  0  0  0  0  0  0  0  0
  147.8327  142.7913  155.0015 H   0  0  0  0  0  0  0  0  0  0  0  0
  148.7817  140.8308  156.2377 H   0  0  0  0  0  0  0  0  0  0  0  0
  151.1412  142.2206  155.3391 H   0  0  0  0  0  0  0  0  0  0  0  0
  151.3574  140.9082  157.2980 H   0  0  0  0  0  0  0  0  0  0  0  0
  149.9717  141.4184  159.2665 H   0  0  0  0  0  0  0  0  0  0  0  0
  148.9389  141.0457  157.9033 H   0  0  0  0  0  0  0  0  0  0  0  0
  149.1591  142.7210  158.3989 H   0  0  0  0  0  0  0  0  0  0  0  0
  152.7180  142.9569  157.0643 H   0  0  0  0  0  0  0  0  0  0  0  0
  151.0533  144.7336  156.8211 H   0  0  0  0  0  0  0  0  0  0  0  0
  152.0419  145.0852  158.2225 H   0  0  0  0  0  0  0  0  0  0  0  0
  150.4204  144.4343  158.4376 H   0  0  0  0  0  0  0  0  0  0  0  0
  151.8955  144.2867  160.3134 H   0  0  0  0  0  0  0  0  0  0  0  0
  153.2905  142.9316  162.2238 H   0  0  0  0  0  0  0  0  0  0  0  0
  154.1690  140.6761  160.8751 H   0  0  0  0  0  0  0  0  0  0  0  0
  149.6631  138.4924  153.5007 H   0  0  0  0  0  0  0  0  0  0  0  0
  148.2565  139.4059  154.0012 H   0  0  0  0  0  0  0  0  0  0  0  0
  149.9436  143.1287  155.9811 H   0  0  0  0  0  0  0  0  0  0  0  0
  1  2  1  0  0  0  0
  1 16  1  0  0  0  0
  1 17  1  0  0  0  0
  1 18  1  0  0  0  0
  2  3  1  0  0  0  0
  2 13  1  0  0  0  0
  2 19  1  0  0  0  0
  3  4  1  0  0  0  0
  3 20  1  0  0  0  0
  3 34  1  0  0  0  0
  4  5  1  0  0  0  0
  4  6  1  0  0  0  0
  4 21  1  0  0  0  0
  5 22  1  0  0  0  0
  5 23  1  0  0  0  0
  5 24  1  0  0  0  0
  6  7  1  0  0  0  0
  6  8  1  0  0  0  0
  6 25  1  0  0  0  0
  7 26  1  0  0  0  0
  7 27  1  0  0  0  0
  7 28  1  0  0  0  0
  8 12  1  0  0  0  0
  8  9  1  0  0  0  0
  9 10  2  0  0  0  0
  9 29  1  0  0  0  0
 10 11  1  0  0  0  0
 10 30  1  0  0  0  0
 11 12  2  0  0  0  0
 11 31  1  0  0  0  0
 13 14  1  0  0  0  0
 13 15  2  0  0  0  0
 14 32  1  0  0  0  0
 14 33  1  0  0  0  0
M  CHG  1   3   1
M  END
> <s_m_source_file>
AV-unprocessed.smi

> <i_m_source_file_index>
3116

> <i_lp_mmshare_version>
43012

> <i_f3d_flags>
0

> <s_epik_input>
W05IMl1DKD1PKVtDQEhdKFtDSDNdKVtOSF1bQ0BIXShbQ0gzXSlbQ0BIXShbQ0gzXSluMVtjSF1bY0hdW2NIXW4x

> <s_epik_cmdline>
J2VwaWtfcHl0aG9uJywgJy1waCcsICc3LjAnLCAnLXRuJywgJzgnLCAnLW1hJywgJzIwMCcsICctbWV0YWxfYmluZGluZycsICctaW1hZScsICc8aW5maWxlLm1hZT4nLCAnLW9tYWUnLCAnPG91dGZpbGUubWFlPic=

> <r_lp_tautomer_probability>
1

> <r_epik_Ionization_Penalty>
0.15658

> <r_epik_Ionization_Penalty_Charging>
0.156568

> <r_epik_Ionization_Penalty_Neutral>
1.19778e-05

> <r_epik_State_Penalty>
0.145866

> <r_epik_Charging_Adjusted_Penalty>
0.302434

> <i_epik_Tot_Q>
1

> <i_epik_Tot_abs_Q>
1

> <r_epik_Metal_State_Penalty>
0.146064

> <b_epik_Metal_Only>
0

> <s_lp_Force_Field>
OPLS_2005

> <r_lp_Energy>
9.52806

> <b_lp_Chiralities_Consistent>
1

> <s_lp_Variant>
AV-unprocessed.smi:3116-5

> <Gold.Version>
5.8.1

> <Gold.Id.Protein>
6NUR|6NUR_protein|mol2

> <Gold.PLP.Fitness>
42.2388

> <Gold.PLP.PLP>
-34.0885

> <Gold.PLP.part.hbond>
-3.0000

> <Gold.PLP.part.metal>
0.0000

> <Gold.PLP.part.buried>
-1.0434

> <Gold.PLP.part.nonpolar>
-29.3973

> <Gold.PLP.part.repulsive>
0.2844

> <Gold.PLP.ligand.clash>
0.0000

> <Gold.PLP.ligand.torsion>
0.5495

> <Gold.PLP.Chemscore.Hbond>
3.0000

> <Gold.PLP.Chemscore.CHOScore>
0.0000

> <Gold.PLP.Chemscore.Metal>
0.0000

> <Gold.Chemscore.Hbonds>
donor molecule, donor type, donor heavy atom, donor atom, acceptor molecule, acceptor atom, score
      L1  H     3    34       P1  8028  2.00
      P1  H  7989  7998       L1    15  0.99

> <Gold.PLP.Chemscore.Internal.Correction>
0.2492

> <Gold.Rescore>
     Score         DG    S(hbond)    S(metal)    S(lipo)     H(rot)  DE(clash)    DE(int)     intcor
     13.54     -14.74       1.89        0.00      78.81       2.45       0.25       0.95       ----

> <Gold.Chemscore.Fitness>
13.5428

> <Gold.Chemscore.DG>
-14.7405

> <Gold.Chemscore.ZeroCoef>
-5.4800

> <Gold.Chemscore.Hbond>
1.8872

> <Gold.Chemscore.Metal>
0.0000

> <Gold.Chemscore.Lipo>
78.8075

> <Gold.Chemscore.Internal_Hbond>
0.0000

> <Gold.Chemscore.DEClash>
0.2514

> <Gold.Chemscore.DEInternal>
0.9463

> <Gold.Chemscore.Rot>
2.4465

> <Gold.Chemscore.Internal.Correction>
   9.000000E+99

> <Gold.Chemscore.Hbonds>
donor molecule, donor type, donor heavy atom, donor atom, acceptor molecule, acceptor atom, score
      L1  H     3    34       P1  8028  0.99
      P1  H  7989  7998       L1    15  0.24

> <Gold.Chemscore.Hbond.Weighted>
-6.3032

> <Gold.Chemscore.Metal.Weighted>
-0.0000

> <Gold.Chemscore.Lipo.Weighted>
-9.2205

> <Gold.Chemscore.Internal_Hbond.Weighted>
0.0000

> <Gold.Chemscore.DEClash.Weighted>
0.2514

> <Gold.Chemscore.DEInternal.Weighted>
0.9463

> <Gold.Chemscore.Rot.Weighted>
6.2631

> <Gold.Chemscore.Internal.Correction.Weighted>
   9.000000E+99

> <Gold.Protein.RotatedTorsions>
[ 6907 6896 6895 6894 ] final   99.54 input  -60.11 | X-H torsion
[ 7974 7965 7964 7962 ] final   41.01 input  175.53 | X-H torsion
[ 8008 7997 7996 7995 ] final -176.88 input   59.86 | X-H torsion
[ 10167 10162 10161 10158 ] final  -17.88 input  -65.29 | X-H torsion
[ 10718 10713 10712 10709 ] final   54.14 input   66.30 | X-H torsion
[ 10763 10752 10751 10750 ] final  179.95 input  -60.55 | X-H torsion
[ 11005 11000 10999 10996 ] final  144.59 input  -57.11 | X-H torsion

> <Gold.Protein.ActiveResidues>
 VAL166  LYS551  ARG553  GLY616  TRP617  ASP618  TYR619  PRO620  LYS621  CYS622 
 ASP623  PHE694  ASN695  SER759  ASP760  ASP761  ALA762  ILE779  LEU786  VAL792 
 PHE793  MET794  SER795  GLU796  ALA797  LYS798  CYS799  TRP800  GLU811  SER814 

> <Gold.Protein.RotatedAtoms>
  152.5390  134.0413  159.8068 H   0  0  0  0  0  0  0  0  0  0  0  0  # atno 6907 bound_to 6896
  151.0568  133.5570  159.2645 H   0  0  0  0  0  0  0  0  0  0  0  0  # atno 6908 bound_to 6896
  151.2483  135.0621  159.9106 H   0  0  0  0  0  0  0  0  0  0  0  0  # atno 6909 bound_to 6896
  146.0859  139.5466  142.9507 H   0  0  0  0  0  0  0  0  0  0  0  0  # atno 7974 bound_to 7965
  156.0002  140.1219  157.0555 H   0  0  0  0  0  0  0  0  0  0  0  0  # atno 8008 bound_to 7997
  154.4240  140.1108  156.5755 H   0  0  0  0  0  0  0  0  0  0  0  0  # atno 8009 bound_to 7997
  155.6223  140.3472  155.4658 H   0  0  0  0  0  0  0  0  0  0  0  0  # atno 8010 bound_to 7997
  140.7252  143.4971  150.9916 H   0  0  0  0  0  0  0  0  0  0  0  0  # atno 10167 bound_to 10162
  157.5230  130.8578  149.8584 H   0  0  0  0  0  0  0  0  0  0  0  0  # atno 10718 bound_to 10713
  154.5272  135.2797  155.1212 H   0  0  0  0  0  0  0  0  0  0  0  0  # atno 10763 bound_to 10752
  154.2746  135.6297  153.5327 H   0  0  0  0  0  0  0  0  0  0  0  0  # atno 10764 bound_to 10752
  152.9949  135.5636  154.5776 H   0  0  0  0  0  0  0  0  0  0  0  0  # atno 10765 bound_to 10752
  140.0645  134.9186  157.1240 H   0  0  0  0  0  0  0  0  0  0  0  0  # atno 11005 bound_to 11000
  145.6131  141.0336  143.1955 LP  0  0  0  0  0  0  0  0  0  0  0  0  # atno 17320 bound_to 7965
  144.7325  139.7683  143.7342 LP  0  0  0  0  0  0  0  0  0  0  0  0  # atno 17321 bound_to 7965
  139.8679  143.7230  152.3169 LP  0  0  0  0  0  0  0  0  0  0  0  0  # atno 17342 bound_to 10162
  139.7469  144.7545  151.0566 LP  0  0  0  0  0  0  0  0  0  0  0  0  # atno 17343 bound_to 10162
  156.0367  130.3749  150.1542 LP  0  0  0  0  0  0  0  0  0  0  0  0  # atno 17370 bound_to 10713
  156.9729  130.9840  151.3455 LP  0  0  0  0  0  0  0  0  0  0  0  0  # atno 17371 bound_to 10713
  140.3720  134.2380  155.7177 LP  0  0  0  0  0  0  0  0  0  0  0  0  # atno 17394 bound_to 11000
  141.1987  133.8029  157.0571 LP  0  0  0  0  0  0  0  0  0  0  0  0  # atno 17395 bound_to 11000

$$$$
