AV-unprocessed.smi:833|AV-procd|sdf|3882|dock10
  -GOLD-   22720 1333D 1   1.00000     0.00000
 Structure written by MMmdl.
 40 41  0  0  0  0  0  0  0  0  2 V2000
  138.3303  141.1734  153.5183 C   0  0  0  0  0  0  0  0  0  0  0  0
  139.8004  140.7331  153.5209 C   0  0  2  0  0  0  0  0  0  0  0  0
  140.4782  141.5703  152.6068 O   0  0  0  0  0  0  0  0  0  0  0  0
  139.9661  139.2638  153.0814 C   0  0  0  0  0  0  0  0  0  0  0  0
  141.3538  138.9398  152.7672 N   0  0  0  0  0  0  0  0  0  0  0  0
  141.8747  137.7053  152.7614 C   0  0  0  0  0  0  0  0  0  0  0  0
  141.2291  136.6909  153.0239 O   0  0  0  0  0  0  0  0  0  0  0  0
  143.1720  137.7244  152.4132 N   0  0  0  0  0  0  0  0  0  0  0  0
  144.0371  136.6102  152.2235 C   0  0  0  0  0  0  0  0  0  0  0  0
  143.5261  135.3508  151.8166 C   0  0  0  0  0  0  0  0  0  0  0  0
  144.3894  134.2452  151.7019 C   0  0  0  0  0  0  0  0  0  0  0  0
  145.7498  134.4102  152.0126 C   0  0  0  0  0  0  0  0  0  0  0  0
  146.2030  135.6173  152.4096 N   0  3  0  0  0  0  0  0  0  0  0  0
  145.4258  136.7231  152.5246 C   0  0  0  0  0  0  0  0  0  0  0  0
  146.0464  137.9235  152.9411 N   0  0  0  0  0  0  0  0  0  0  0  0
  146.7877  137.9754  154.1962 C   0  0  0  0  0  0  0  0  0  0  0  0
  147.5972  139.2675  154.1273 C   0  0  0  0  0  0  0  0  0  0  0  0
  147.9391  139.3615  152.6434 C   0  0  0  0  0  0  0  0  0  0  0  0
  146.7106  138.7640  151.9498 C   0  0  0  0  0  0  0  0  0  0  0  0
  137.7438  140.5852  154.2244 H   0  0  0  0  0  0  0  0  0  0  0  0
  137.8805  141.0542  152.5320 H   0  0  0  0  0  0  0  0  0  0  0  0
  138.2324  142.2211  153.8051 H   0  0  0  0  0  0  0  0  0  0  0  0
  140.2132  140.8841  154.5194 H   0  0  0  0  0  0  0  0  0  0  0  0
  140.8106  141.0372  151.9003 H   0  0  0  0  0  0  0  0  0  0  0  0
  139.6876  138.6063  153.9056 H   0  0  0  0  0  0  0  0  0  0  0  0
  139.2982  139.0089  152.2561 H   0  0  0  0  0  0  0  0  0  0  0  0
  141.9575  139.7154  152.5369 H   0  0  0  0  0  0  0  0  0  0  0  0
  143.5461  138.6207  152.1378 H   0  0  0  0  0  0  0  0  0  0  0  0
  142.4756  135.2096  151.6114 H   0  0  0  0  0  0  0  0  0  0  0  0
  144.0098  133.2823  151.3926 H   0  0  0  0  0  0  0  0  0  0  0  0
  146.4840  133.6191  151.9613 H   0  0  0  0  0  0  0  0  0  0  0  0
  146.1178  137.9633  155.0563 H   0  0  0  0  0  0  0  0  0  0  0  0
  147.4654  137.1242  154.2745 H   0  0  0  0  0  0  0  0  0  0  0  0
  146.9764  140.1149  154.4211 H   0  0  0  0  0  0  0  0  0  0  0  0
  148.4781  139.2524  154.7697 H   0  0  0  0  0  0  0  0  0  0  0  0
  148.1558  140.3796  152.3188 H   0  0  0  0  0  0  0  0  0  0  0  0
  148.8156  138.7479  152.4307 H   0  0  0  0  0  0  0  0  0  0  0  0
  146.9926  138.2058  151.0561 H   0  0  0  0  0  0  0  0  0  0  0  0
  146.0274  139.5599  151.6525 H   0  0  0  0  0  0  0  0  0  0  0  0
  147.1952  135.7044  152.6295 H   0  0  0  0  0  0  0  0  0  0  0  0
  1  2  1  0  0  0  0
  1 20  1  0  0  0  0
  1 21  1  0  0  0  0
  1 22  1  0  0  0  0
  2  3  1  0  0  0  0
  2  4  1  0  0  0  0
  2 23  1  0  0  0  0
  3 24  1  0  0  0  0
  4  5  1  0  0  0  0
  4 25  1  0  0  0  0
  4 26  1  0  0  0  0
  5  6  1  0  0  0  0
  5 27  1  0  0  0  0
  6  7  2  0  0  0  0
  6  8  1  0  0  0  0
  8  9  1  0  0  0  0
  8 28  1  0  0  0  0
  9 14  1  0  0  0  0
  9 10  2  0  0  0  0
 10 11  1  0  0  0  0
 10 29  1  0  0  0  0
 11 12  2  0  0  0  0
 11 30  1  0  0  0  0
 12 13  1  0  0  0  0
 12 31  1  0  0  0  0
 13 14  2  0  0  0  0
 13 40  1  0  0  0  0
 14 15  1  0  0  0  0
 15 19  1  0  0  0  0
 15 16  1  0  0  0  0
 16 17  1  0  0  0  0
 16 32  1  0  0  0  0
 16 33  1  0  0  0  0
 17 18  1  0  0  0  0
 17 34  1  0  0  0  0
 17 35  1  0  0  0  0
 18 19  1  0  0  0  0
 18 36  1  0  0  0  0
 18 37  1  0  0  0  0
 19 38  1  0  0  0  0
 19 39  1  0  0  0  0
M  CHG  1  13   1
M  END
> <s_m_source_file>
AV-unprocessed.smi

> <i_m_source_file_index>
833

> <i_lp_mmshare_version>
43012

> <i_f3d_flags>
0

> <s_epik_input>
W0NIM11bQ0BIXShbT0hdKVtDSDJdW05IXUMoPU8pW05IXWMxW2NIXVtjSF1bY0hdbmMxTjJbQ0gyXVtDSDJdW0NIMl1bQ0gyXTI=

> <s_epik_cmdline>
J2VwaWtfcHl0aG9uJywgJy1waCcsICc3LjAnLCAnLXRuJywgJzgnLCAnLW1hJywgJzIwMCcsICctbWV0YWxfYmluZGluZycsICctaW1hZScsICc8aW5maWxlLm1hZT4nLCAnLW9tYWUnLCAnPG91dGZpbGUubWFlPic=

> <r_lp_tautomer_probability>
0.999994

> <r_epik_Ionization_Penalty>
1.11387

> <r_epik_Ionization_Penalty_Charging>
1.11385

> <r_epik_Ionization_Penalty_Neutral>
1.95796e-05

> <r_epik_State_Penalty>
1.17209

> <r_epik_Charging_Adjusted_Penalty>
2.28594

> <i_epik_Tot_Q>
1

> <i_epik_Tot_abs_Q>
1

> <r_epik_Metal_State_Penalty>
1.25763

> <b_epik_Metal_Only>
0

> <s_lp_Force_Field>
OPLS_2005

> <r_lp_Energy>
38.091

> <b_lp_Chiralities_Consistent>
1

> <s_lp_Variant>
AV-unprocessed.smi:833-3

> <Gold.Version>
5.8.1

> <Gold.Id.Protein>
6NUR|6NUR_protein|mol2

> <Gold.PLP.Fitness>
42.6555

> <Gold.PLP.PLP>
-27.5429

> <Gold.PLP.part.hbond>
-7.6326

> <Gold.PLP.part.metal>
0.0000

> <Gold.PLP.part.buried>
1.3471

> <Gold.PLP.part.nonpolar>
-22.7726

> <Gold.PLP.part.repulsive>
0.4441

> <Gold.PLP.ligand.clash>
0.0000

> <Gold.PLP.ligand.torsion>
0.7832

> <Gold.PLP.Chemscore.Hbond>
5.4267

> <Gold.PLP.Chemscore.CHOScore>
0.0000

> <Gold.PLP.Chemscore.Metal>
0.0000

> <Gold.Chemscore.Hbonds>
donor molecule, donor type, donor heavy atom, donor atom, acceptor molecule, acceptor atom, score
      L1  H     3    24       P1 10160  0.11
      L1  H     5    27       P1 10175  0.90
      L1  H     8    28       P1 10175  0.96
      L1  H    13    40       P1  7948  1.70
      P1  H 10162 10167       L1     3  0.66

> <Gold.PLP.Chemscore.Internal.Correction>
0.3989

> <Gold.Rescore>
     Score         DG    S(hbond)    S(metal)    S(lipo)     H(rot)  DE(clash)    DE(int)     intcor
     15.83     -19.68       3.77        0.00      58.89       2.06       1.96       1.89       ----

> <Gold.Chemscore.Fitness>
15.8295

> <Gold.Chemscore.DG>
-19.6818

> <Gold.Chemscore.ZeroCoef>
-5.4800

> <Gold.Chemscore.Hbond>
3.7711

> <Gold.Chemscore.Metal>
0.0000

> <Gold.Chemscore.Lipo>
58.8851

> <Gold.Chemscore.Internal_Hbond>
0.0000

> <Gold.Chemscore.DEClash>
1.9597

> <Gold.Chemscore.DEInternal>
1.8925

> <Gold.Chemscore.Rot>
2.0637

> <Gold.Chemscore.Internal.Correction>
   9.000000E+99

> <Gold.Chemscore.Hbonds>
donor molecule, donor type, donor heavy atom, donor atom, acceptor molecule, acceptor atom, score
      L1  H     3    24       P1 10160  0.11
      L1  H     5    27       P1 10175  0.17
      L1  H     8    28       P1 10175  0.92
      L1  H    13    40       P1  7948  0.81
      P1  H 10162 10167       L1     3  0.56

> <Gold.Chemscore.Hbond.Weighted>
-12.5954

> <Gold.Chemscore.Metal.Weighted>
-0.0000

> <Gold.Chemscore.Lipo.Weighted>
-6.8896

> <Gold.Chemscore.Internal_Hbond.Weighted>
0.0000

> <Gold.Chemscore.DEClash.Weighted>
1.9597

> <Gold.Chemscore.DEInternal.Weighted>
1.8925

> <Gold.Chemscore.Rot.Weighted>
5.2832

> <Gold.Chemscore.Internal.Correction.Weighted>
   9.000000E+99

> <Gold.Protein.RotatedTorsions>
[ 6907 6896 6895 6894 ] final  133.26 input  -60.11 | X-H torsion
[ 7974 7965 7964 7962 ] final  131.85 input  175.53 | X-H torsion
[ 8008 7997 7996 7995 ] final -157.93 input   59.86 | X-H torsion
[ 10167 10162 10161 10158 ] final -105.37 input  -65.29 | X-H torsion
[ 10718 10713 10712 10709 ] final  146.49 input   66.30 | X-H torsion
[ 10763 10752 10751 10750 ] final   86.62 input  -60.55 | X-H torsion
[ 11005 11000 10999 10996 ] final -173.19 input  -57.11 | X-H torsion

> <Gold.Protein.ActiveResidues>
 VAL166  LYS551  ARG553  GLY616  TRP617  ASP618  TYR619  PRO620  LYS621  CYS622 
 ASP623  PHE694  ASN695  SER759  ASP760  ASP761  ALA762  ILE779  LEU786  VAL792 
 PHE793  MET794  SER795  GLU796  ALA797  LYS798  CYS799  TRP800  GLU811  SER814 

> <Gold.Protein.RotatedAtoms>
  152.3239  133.5883  159.5762 H   0  0  0  0  0  0  0  0  0  0  0  0  # atno 6907 bound_to 6896
  150.7386  133.9970  159.3634 H   0  0  0  0  0  0  0  0  0  0  0  0  # atno 6908 bound_to 6896
  151.7852  135.0751  160.0430 H   0  0  0  0  0  0  0  0  0  0  0  0  # atno 6909 bound_to 6896
  145.0030  139.4293  143.5283 H   0  0  0  0  0  0  0  0  0  0  0  0  # atno 7974 bound_to 7965
  155.7399  140.0813  157.2250 H   0  0  0  0  0  0  0  0  0  0  0  0  # atno 8008 bound_to 7997
  154.4023  140.1580  156.2659 H   0  0  0  0  0  0  0  0  0  0  0  0  # atno 8009 bound_to 7997
  155.9030  140.3408  155.6044 H   0  0  0  0  0  0  0  0  0  0  0  0  # atno 8010 bound_to 7997
  140.1992  143.3831  152.1143 H   0  0  0  0  0  0  0  0  0  0  0  0  # atno 10167 bound_to 10162
  157.3326  131.0922  151.1150 H   0  0  0  0  0  0  0  0  0  0  0  0  # atno 10718 bound_to 10713
  153.1588  135.4574  154.9742 H   0  0  0  0  0  0  0  0  0  0  0  0  # atno 10763 bound_to 10752
  154.7882  135.3211  154.7841 H   0  0  0  0  0  0  0  0  0  0  0  0  # atno 10764 bound_to 10752
  153.8334  135.6936  153.4866 H   0  0  0  0  0  0  0  0  0  0  0  0  # atno 10765 bound_to 10752
  140.4886  134.6007  157.4946 H   0  0  0  0  0  0  0  0  0  0  0  0  # atno 11005 bound_to 11000
  146.3455  139.9429  142.8738 LP  0  0  0  0  0  0  0  0  0  0  0  0  # atno 17320 bound_to 7965
  145.2127  140.9902  143.4091 LP  0  0  0  0  0  0  0  0  0  0  0  0  # atno 17321 bound_to 7965
  139.5224  144.7058  151.5358 LP  0  0  0  0  0  0  0  0  0  0  0  0  # atno 17342 bound_to 10162
  140.6402  143.8904  150.6684 LP  0  0  0  0  0  0  0  0  0  0  0  0  # atno 17343 bound_to 10162
  157.2393  130.6562  149.5883 LP  0  0  0  0  0  0  0  0  0  0  0  0  # atno 17370 bound_to 10713
  155.9697  130.4573  150.5959 LP  0  0  0  0  0  0  0  0  0  0  0  0  # atno 17371 bound_to 10713
  139.9783  134.7179  155.9908 LP  0  0  0  0  0  0  0  0  0  0  0  0  # atno 17394 bound_to 11000
  141.1495  133.6550  156.3971 LP  0  0  0  0  0  0  0  0  0  0  0  0  # atno 17395 bound_to 11000

$$$$
