AV-unprocessed.smi:287|AV-procd|sdf|2181|dock2
  -GOLD-   2262021553D 1   1.00000     0.00000
 Structure written by MMmdl.
 55 58  0  0  0  0  0  0  0  0  1 V2000
  150.5685  143.3141  158.6307 C   0  0  0  0  0  0  0  0  0  0  0  0
  149.7398  142.4197  157.7738 C   0  0  0  0  0  0  0  0  0  0  0  0
  149.2372  142.5232  156.5096 C   0  0  0  0  0  0  0  0  0  0  0  0
  148.5083  141.3262  156.2410 C   0  0  0  0  0  0  0  0  0  0  0  0
  147.7703  141.0067  154.9480 C   0  0  1  0  0  0  0  0  0  0  0  0
  146.6053  141.9920  154.7515 C   0  0  0  0  0  0  0  0  0  0  0  0
  148.5795  141.1563  153.7975 O   0  0  0  0  0  0  0  0  0  0  0  0
  147.2471  139.5531  154.9221 C   0  0  0  0  0  0  0  0  0  0  0  0
  146.3377  139.2976  153.8123 N   0  0  0  0  0  0  0  0  0  0  0  0
  145.7126  138.1084  153.6837 C   0  0  0  0  0  0  0  0  0  0  0  0
  145.3604  137.5075  154.8456 N   0  0  0  0  0  0  0  0  0  0  0  0
  144.7349  136.3272  154.8297 C   0  0  0  0  0  0  0  0  0  0  0  0
  144.3704  135.5903  153.7789 N   0  0  0  0  0  0  0  0  0  0  0  0
  144.7208  136.1897  152.6045 C   0  0  0  0  0  0  0  0  0  0  0  0
  145.3926  137.4378  152.4654 C   0  0  0  0  0  0  0  0  0  0  0  0
  145.5799  137.7049  151.1130 N   0  0  0  0  0  0  0  0  0  0  0  0
  145.0519  136.6801  150.5006 C   0  0  0  0  0  0  0  0  0  0  0  0
  144.4972  135.7262  151.3265 N   0  0  0  0  0  0  0  0  0  0  0  0
  143.8228  134.4353  150.9760 C   0  0  2  0  0  0  0  0  0  0  0  0
  144.4380  133.4101  151.6974 O   0  0  0  0  0  0  0  0  0  0  0  0
  145.4330  132.7916  150.8880 C   0  0  1  0  0  0  0  0  0  0  0  0
  145.8470  131.4221  151.4543 C   0  0  0  0  0  0  0  0  0  0  0  0
  146.4011  131.5796  152.7433 O   0  0  0  0  0  0  0  0  0  0  0  0
  144.7464  132.7654  149.5172 C   0  0  1  0  0  0  0  0  0  0  0  0
  143.8454  131.6727  149.4322 O   0  0  0  0  0  0  0  0  0  0  0  0
  144.0365  134.1187  149.4828 C   0  0  1  0  0  0  0  0  0  0  0  0
  142.8336  134.0898  148.7374 O   0  0  0  0  0  0  0  0  0  0  0  0
  148.6345  140.5748  157.3853 C   0  0  0  0  0  0  0  0  0  0  0  0
  148.1382  139.2308  157.8065 C   0  0  0  0  0  0  0  0  0  0  0  0
  149.3793  141.2308  158.3185 O   0  0  0  0  0  0  0  0  0  0  0  0
  142.7832  134.5700  151.2774 H   0  0  0  0  0  0  0  0  0  0  0  0
  146.3042  133.4464  150.8217 H   0  0  0  0  0  0  0  0  0  0  0  0
  145.4684  132.6723  148.7052 H   0  0  0  0  0  0  0  0  0  0  0  0
  144.7041  134.8625  149.0445 H   0  0  0  0  0  0  0  0  0  0  0  0
  150.5958  144.3257  158.2249 H   0  0  0  0  0  0  0  0  0  0  0  0
  151.5929  142.9468  158.6939 H   0  0  0  0  0  0  0  0  0  0  0  0
  150.1642  143.3670  159.6417 H   0  0  0  0  0  0  0  0  0  0  0  0
  149.3727  143.3668  155.8492 H   0  0  0  0  0  0  0  0  0  0  0  0
  145.8870  141.9258  155.5695 H   0  0  0  0  0  0  0  0  0  0  0  0
  146.0635  141.7925  153.8260 H   0  0  0  0  0  0  0  0  0  0  0  0
  146.9608  143.0226  154.7108 H   0  0  0  0  0  0  0  0  0  0  0  0
  148.0229  141.1287  153.0343 H   0  0  0  0  0  0  0  0  0  0  0  0
  148.0994  138.8839  154.7980 H   0  0  0  0  0  0  0  0  0  0  0  0
  146.7736  139.2939  155.8703 H   0  0  0  0  0  0  0  0  0  0  0  0
  146.2259  140.0570  153.1558 H   0  0  0  0  0  0  0  0  0  0  0  0
  144.4925  135.9144  155.7979 H   0  0  0  0  0  0  0  0  0  0  0  0
  145.0548  136.5995  149.4233 H   0  0  0  0  0  0  0  0  0  0  0  0
  145.0032  130.7321  151.4883 H   0  0  0  0  0  0  0  0  0  0  0  0
  146.6128  130.9712  150.8225 H   0  0  0  0  0  0  0  0  0  0  0  0
  147.2365  131.1383  152.7665 H   0  0  0  0  0  0  0  0  0  0  0  0
  143.1907  131.7763  150.1063 H   0  0  0  0  0  0  0  0  0  0  0  0
  142.1100  134.1865  149.3380 H   0  0  0  0  0  0  0  0  0  0  0  0
  148.4907  138.4573  157.1241 H   0  0  0  0  0  0  0  0  0  0  0  0
  147.0483  139.2074  157.8138 H   0  0  0  0  0  0  0  0  0  0  0  0
  148.4856  138.9770  158.8085 H   0  0  0  0  0  0  0  0  0  0  0  0
  1  2  1  0  0  0  0
  1 35  1  0  0  0  0
  1 36  1  0  0  0  0
  1 37  1  0  0  0  0
  2 30  1  0  0  0  0
  2  3  2  0  0  0  0
  3  4  1  0  0  0  0
  3 38  1  0  0  0  0
  4  5  1  0  0  0  0
  4 28  2  0  0  0  0
  5  6  1  0  0  0  0
  5  7  1  0  0  0  0
  5  8  1  0  0  0  0
  6 39  1  0  0  0  0
  6 40  1  0  0  0  0
  6 41  1  0  0  0  0
  7 42  1  0  0  0  0
  8  9  1  0  0  0  0
  8 43  1  0  0  0  0
  8 44  1  0  0  0  0
  9 10  1  0  0  0  0
  9 45  1  0  0  0  0
 10 15  1  0  0  0  0
 10 11  2  0  0  0  0
 11 12  1  0  0  0  0
 12 13  2  0  0  0  0
 12 46  1  0  0  0  0
 13 14  1  0  0  0  0
 14 18  1  0  0  0  0
 14 15  2  0  0  0  0
 15 16  1  0  0  0  0
 16 17  2  0  0  0  0
 17 18  1  0  0  0  0
 17 47  1  0  0  0  0
 18 19  1  0  0  0  0
 19 31  1  0  0  0  0
 19 26  1  0  0  0  0
 19 20  1  0  0  0  0
 20 21  1  0  0  0  0
 21 32  1  0  0  0  0
 21 22  1  0  0  0  0
 21 24  1  0  0  0  0
 22 23  1  0  0  0  0
 22 48  1  0  0  0  0
 22 49  1  0  0  0  0
 23 50  1  0  0  0  0
 24 33  1  0  0  0  0
 24 25  1  0  0  0  0
 24 26  1  0  0  0  0
 25 51  1  0  0  0  0
 26 34  1  0  0  0  0
 26 27  1  0  0  0  0
 27 52  1  0  0  0  0
 28 29  1  0  0  0  0
 28 30  1  0  0  0  0
 29 53  1  0  0  0  0
 29 54  1  0  0  0  0
 29 55  1  0  0  0  0
M  END
> <s_m_source_file>
AV-unprocessed.smi

> <i_m_source_file_index>
287

> <i_lp_mmshare_version>
43012

> <i_f3d_flags>
0

> <s_epik_input>
W0NIM11jMVtjSF1jKGMobzEpW0NIM10pW0NAQF0oW0NIM10pKFtPSF0pW0NIMl1bTkhdYyhuW2NIXW4yKWMoYzIzKW5bY0hdbjNbQ0BASF00T1tDQEhdKFtDSDJdW09IXSlbQ0BASF0oW09IXSlbQ0BIXTRbT0hd

> <s_epik_cmdline>
J2VwaWtfcHl0aG9uJywgJy1waCcsICc3LjAnLCAnLXRuJywgJzgnLCAnLW1hJywgJzIwMCcsICctbWV0YWxfYmluZGluZycsICctaW1hZScsICc8aW5maWxlLm1hZT4nLCAnLW9tYWUnLCAnPG91dGZpbGUubWFlPic=

> <r_lp_tautomer_probability>
1

> <r_epik_Ionization_Penalty>
0.000992612

> <r_epik_Ionization_Penalty_Charging>
0

> <r_epik_Ionization_Penalty_Neutral>
0.000992612

> <r_epik_State_Penalty>
-0

> <r_epik_Charging_Adjusted_Penalty>
0

> <i_epik_Tot_Q>
0

> <i_epik_Tot_abs_Q>
0

> <r_epik_Metal_State_Penalty>
-0

> <b_epik_Metal_Only>
0

> <s_epik_Chemistry_Notes>
This compound contains an acetal/aminal-like group ( X-CH(R)-Y where X, Y are N, S, or O) that may be acid/base labile, releasing an aldehyde.

> <s_lp_Force_Field>
OPLS_2005

> <r_lp_Energy>
45.0467

> <b_lp_Chiralities_Consistent>
1

> <s_lp_Variant>
AV-unprocessed.smi:287-5

> <Gold.Version>
5.8.1

> <Gold.Id.Protein>
6NUR|6NUR_protein|mol2

> <Gold.PLP.Fitness>
54.3009

> <Gold.PLP.PLP>
-40.0657

> <Gold.PLP.part.hbond>
-7.1791

> <Gold.PLP.part.metal>
0.0000

> <Gold.PLP.part.buried>
0.4471

> <Gold.PLP.part.nonpolar>
-36.1672

> <Gold.PLP.part.repulsive>
2.7852

> <Gold.PLP.ligand.clash>
0.0000

> <Gold.PLP.ligand.torsion>
0.6548

> <Gold.PLP.Chemscore.Hbond>
4.1120

> <Gold.PLP.Chemscore.CHOScore>
1.0000

> <Gold.PLP.Chemscore.Metal>
0.0000

> <Gold.Chemscore.Hbonds>
donor molecule, donor type, donor heavy atom, donor atom, acceptor molecule, acceptor atom, score
      L1  H    27    52       P1 10186  0.03
      P1  H 10192 10197       L1    27  0.75
      P1  H 10785 10796       L1    25  0.67
      L1  C    17    47       P1  7921  0.51

> <Gold.PLP.Chemscore.Internal.Correction>
0.2088

> <Gold.Rescore>
     Score         DG    S(hbond)    S(metal)    S(lipo)     H(rot)  DE(clash)    DE(int)     intcor
      8.55     -15.48       3.70        0.00      95.06       5.27       5.55       1.39       ----

> <Gold.Chemscore.Fitness>
8.5464

> <Gold.Chemscore.DG>
-15.4846

> <Gold.Chemscore.ZeroCoef>
-5.4800

> <Gold.Chemscore.Hbond>
3.7025

> <Gold.Chemscore.Metal>
0.0000

> <Gold.Chemscore.Lipo>
95.0623

> <Gold.Chemscore.Internal_Hbond>
0.0000

> <Gold.Chemscore.DEClash>
5.5453

> <Gold.Chemscore.DEInternal>
1.3929

> <Gold.Chemscore.Rot>
5.2672

> <Gold.Chemscore.Internal.Correction>
   9.000000E+99

> <Gold.Chemscore.Hbonds>
donor molecule, donor type, donor heavy atom, donor atom, acceptor molecule, acceptor atom, score
      L1  H    27    52       P1 10186  0.08
      P1  H 10192 10197       L1    27  0.12
      P1  H 10785 10796       L1    25  0.11

> <Gold.Chemscore.Hbond.Weighted>
-12.3662

> <Gold.Chemscore.Metal.Weighted>
-0.0000

> <Gold.Chemscore.Lipo.Weighted>
-11.1223

> <Gold.Chemscore.Internal_Hbond.Weighted>
0.0000

> <Gold.Chemscore.DEClash.Weighted>
5.5453

> <Gold.Chemscore.DEInternal.Weighted>
1.3929

> <Gold.Chemscore.Rot.Weighted>
13.4839

> <Gold.Chemscore.Internal.Correction.Weighted>
   9.000000E+99

> <Gold.Protein.RotatedTorsions>
[ 6907 6896 6895 6894 ] final -162.50 input  -60.11 | X-H torsion
[ 7974 7965 7964 7962 ] final   37.75 input  175.53 | X-H torsion
[ 8008 7997 7996 7995 ] final   72.32 input   59.86 | X-H torsion
[ 10167 10162 10161 10158 ] final   43.06 input  -65.29 | X-H torsion
[ 10718 10713 10712 10709 ] final -133.68 input   66.30 | X-H torsion
[ 10763 10752 10751 10750 ] final -157.00 input  -60.55 | X-H torsion
[ 11005 11000 10999 10996 ] final  -77.33 input  -57.11 | X-H torsion

> <Gold.Protein.ActiveResidues>
 VAL166  LYS551  ARG553  GLY616  TRP617  ASP618  TYR619  PRO620  LYS621  CYS622 
 ASP623  PHE694  ASN695  SER759  ASP760  ASP761  ALA762  ILE779  LEU786  VAL792 
 PHE793  MET794  SER795  GLU796  ALA797  LYS798  CYS799  TRP800  GLU811  SER814 

> <Gold.Protein.RotatedAtoms>
  151.3813  133.3820  159.2710 H   0  0  0  0  0  0  0  0  0  0  0  0  # atno 6907 bound_to 6896
  150.9576  134.8969  159.7721 H   0  0  0  0  0  0  0  0  0  0  0  0  # atno 6908 bound_to 6896
  152.5136  134.3770  159.9390 H   0  0  0  0  0  0  0  0  0  0  0  0  # atno 6909 bound_to 6896
  146.1114  139.5856  142.9350 H   0  0  0  0  0  0  0  0  0  0  0  0  # atno 7974 bound_to 7965
  155.7671  140.3485  155.5228 H   0  0  0  0  0  0  0  0  0  0  0  0  # atno 8008 bound_to 7997
  155.8857  140.1009  157.1475 H   0  0  0  0  0  0  0  0  0  0  0  0  # atno 8009 bound_to 7997
  154.4029  140.1314  156.4240 H   0  0  0  0  0  0  0  0  0  0  0  0  # atno 8010 bound_to 7997
  140.3482  144.2384  150.6148 H   0  0  0  0  0  0  0  0  0  0  0  0  # atno 10167 bound_to 10162
  156.2475  130.7133  151.1019 H   0  0  0  0  0  0  0  0  0  0  0  0  # atno 10718 bound_to 10713
  154.7669  135.3134  154.8267 H   0  0  0  0  0  0  0  0  0  0  0  0  # atno 10763 bound_to 10752
  153.9013  135.6815  153.4759 H   0  0  0  0  0  0  0  0  0  0  0  0  # atno 10764 bound_to 10752
  153.1277  135.4794  154.9232 H   0  0  0  0  0  0  0  0  0  0  0  0  # atno 10765 bound_to 10752
  141.1659  133.7018  156.7805 H   0  0  0  0  0  0  0  0  0  0  0  0  # atno 11005 bound_to 11000
  145.5656  141.0400  143.2202 LP  0  0  0  0  0  0  0  0  0  0  0  0  # atno 17320 bound_to 7965
  144.7515  139.7183  143.7271 LP  0  0  0  0  0  0  0  0  0  0  0  0  # atno 17321 bound_to 7965
  140.5244  143.2258  151.8337 LP  0  0  0  0  0  0  0  0  0  0  0  0  # atno 17342 bound_to 10162
  139.4830  144.4797  151.9322 LP  0  0  0  0  0  0  0  0  0  0  0  0  # atno 17343 bound_to 10162
  157.7201  131.0687  150.6171 LP  0  0  0  0  0  0  0  0  0  0  0  0  # atno 17370 bound_to 10713
  156.6249  130.4416  149.5808 LP  0  0  0  0  0  0  0  0  0  0  0  0  # atno 17371 bound_to 10713
  140.2398  134.8622  157.3562 LP  0  0  0  0  0  0  0  0  0  0  0  0  # atno 17394 bound_to 11000
  140.1807  134.4493  155.7774 LP  0  0  0  0  0  0  0  0  0  0  0  0  # atno 17395 bound_to 11000

$$$$
