AV-unprocessed.smi:671|AV-procd|sdf|3274|dock6
  -GOLD-   22720 0233D 1   1.00000     0.00000
 Structure written by MMmdl.
 49 50  0  0  0  0  0  0  0  0  1 V2000
  148.3432  136.8288  159.5887 C   0  0  0  0  0  0  0  0  0  0  0  0
  149.0596  136.0464  158.5254 C   0  0  0  0  0  0  0  0  0  0  0  0
  149.1942  134.7378  158.6626 N   0  0  0  0  0  0  0  0  0  0  0  0
  149.8821  134.3460  157.5714 N   0  0  0  0  0  0  0  0  0  0  0  0
  150.2166  132.9448  157.4068 C   0  0  0  0  0  0  0  0  0  0  0  0
  150.1747  135.4083  156.7385 C   0  0  0  0  0  0  0  0  0  0  0  0
  150.9344  135.2375  155.4626 C   0  0  0  0  0  0  0  0  0  0  0  0
  149.6585  136.5319  157.3261 C   0  0  0  0  0  0  0  0  0  0  0  0
  149.7201  137.9593  156.8397 C   0  0  0  0  0  0  0  0  0  0  0  0
  151.1667  138.4775  156.7210 C   0  0  1  0  0  0  0  0  0  0  0  0
  151.6884  138.3991  155.2785 C   0  0  0  0  0  0  0  0  0  0  0  0
  151.2535  139.8557  157.2159 N   0  0  0  0  0  0  0  0  0  0  0  0
  152.1299  140.3798  158.0910 C   0  0  0  0  0  0  0  0  0  0  0  0
  153.0089  139.6984  158.6150 O   0  0  0  0  0  0  0  0  0  0  0  0
  151.9533  141.6858  158.3491 N   0  0  0  0  0  0  0  0  0  0  0  0
  152.7870  142.4903  159.2362 C   0  0  2  0  0  0  0  0  0  0  0  0
  152.8570  141.8897  160.6561 C   0  0  0  0  0  0  0  0  0  0  0  0
  152.2003  142.9098  161.5885 C   0  0  0  0  0  0  0  0  0  0  0  0
  152.3819  144.2471  160.8781 C   0  0  0  0  0  0  0  0  0  0  0  0
  152.1974  143.9062  159.3977 C   0  0  1  0  0  0  0  0  0  0  0  0
  152.8030  144.9439  158.4431 C   0  0  0  0  0  0  0  0  0  0  0  0
  148.9269  137.6980  159.8928 H   0  0  0  0  0  0  0  0  0  0  0  0
  148.1616  136.2276  160.4806 H   0  0  0  0  0  0  0  0  0  0  0  0
  147.3790  137.1857  159.2264 H   0  0  0  0  0  0  0  0  0  0  0  0
  151.2862  132.8424  157.2212 H   0  0  0  0  0  0  0  0  0  0  0  0
  149.6661  132.5343  156.5601 H   0  0  0  0  0  0  0  0  0  0  0  0
  149.9596  132.3789  158.3035 H   0  0  0  0  0  0  0  0  0  0  0  0
  150.8481  136.1217  154.8312 H   0  0  0  0  0  0  0  0  0  0  0  0
  150.5589  134.3869  154.8934 H   0  0  0  0  0  0  0  0  0  0  0  0
  151.9928  135.0714  155.6643 H   0  0  0  0  0  0  0  0  0  0  0  0
  149.2273  138.0514  155.8714 H   0  0  0  0  0  0  0  0  0  0  0  0
  149.1605  138.6134  157.5094 H   0  0  0  0  0  0  0  0  0  0  0  0
  151.7838  137.8251  157.3403 H   0  0  0  0  0  0  0  0  0  0  0  0
  151.6387  137.3782  154.8991 H   0  0  0  0  0  0  0  0  0  0  0  0
  152.7284  138.7213  155.2173 H   0  0  0  0  0  0  0  0  0  0  0  0
  151.1040  139.0317  154.6094 H   0  0  0  0  0  0  0  0  0  0  0  0
  150.5247  140.4765  156.8943 H   0  0  0  0  0  0  0  0  0  0  0  0
  151.1967  142.1620  157.8806 H   0  0  0  0  0  0  0  0  0  0  0  0
  153.7983  142.5553  158.8294 H   0  0  0  0  0  0  0  0  0  0  0  0
  152.3796  140.9119  160.7367 H   0  0  0  0  0  0  0  0  0  0  0  0
  153.9023  141.7568  160.9380 H   0  0  0  0  0  0  0  0  0  0  0  0
  151.1366  142.6882  161.6838 H   0  0  0  0  0  0  0  0  0  0  0  0
  152.6329  142.9036  162.5892 H   0  0  0  0  0  0  0  0  0  0  0  0
  151.6777  145.0035  161.2252 H   0  0  0  0  0  0  0  0  0  0  0  0
  153.3909  144.6217  161.0568 H   0  0  0  0  0  0  0  0  0  0  0  0
  151.1218  143.8633  159.2146 H   0  0  0  0  0  0  0  0  0  0  0  0
  153.8796  145.0376  158.5884 H   0  0  0  0  0  0  0  0  0  0  0  0
  152.3577  145.9262  158.6015 H   0  0  0  0  0  0  0  0  0  0  0  0
  152.6299  144.6645  157.4034 H   0  0  0  0  0  0  0  0  0  0  0  0
  1  2  1  0  0  0  0
  1 22  1  0  0  0  0
  1 23  1  0  0  0  0
  1 24  1  0  0  0  0
  2  8  1  0  0  0  0
  2  3  2  0  0  0  0
  3  4  1  0  0  0  0
  4  5  1  0  0  0  0
  4  6  1  0  0  0  0
  5 25  1  0  0  0  0
  5 26  1  0  0  0  0
  5 27  1  0  0  0  0
  6  7  1  0  0  0  0
  6  8  2  0  0  0  0
  7 28  1  0  0  0  0
  7 29  1  0  0  0  0
  7 30  1  0  0  0  0
  8  9  1  0  0  0  0
  9 10  1  0  0  0  0
  9 31  1  0  0  0  0
  9 32  1  0  0  0  0
 10 11  1  0  0  0  0
 10 12  1  0  0  0  0
 10 33  1  0  0  0  0
 11 34  1  0  0  0  0
 11 35  1  0  0  0  0
 11 36  1  0  0  0  0
 12 13  1  0  0  0  0
 12 37  1  0  0  0  0
 13 14  2  0  0  0  0
 13 15  1  0  0  0  0
 15 16  1  0  0  0  0
 15 38  1  0  0  0  0
 16 20  1  0  0  0  0
 16 17  1  0  0  0  0
 16 39  1  0  0  0  0
 17 18  1  0  0  0  0
 17 40  1  0  0  0  0
 17 41  1  0  0  0  0
 18 19  1  0  0  0  0
 18 42  1  0  0  0  0
 18 43  1  0  0  0  0
 19 20  1  0  0  0  0
 19 44  1  0  0  0  0
 19 45  1  0  0  0  0
 20 21  1  0  0  0  0
 20 46  1  0  0  0  0
 21 47  1  0  0  0  0
 21 48  1  0  0  0  0
 21 49  1  0  0  0  0
M  END
> <s_m_source_file>
AV-unprocessed.smi

> <i_m_source_file_index>
671

> <i_lp_mmshare_version>
43012

> <i_f3d_flags>
0

> <s_epik_input>
W0NIM11jMW5uKFtDSDNdKWMoW0NIM10pYzFbQ0gyXVtDQEhdKFtDSDNdKVtOSF1DKD1PKVtOSF1bQ0BASF0yW0NIMl1bQ0gyXVtDSDJdW0NASF0yW0NIM10=

> <s_epik_cmdline>
J2VwaWtfcHl0aG9uJywgJy1waCcsICc3LjAnLCAnLXRuJywgJzgnLCAnLW1hJywgJzIwMCcsICctbWV0YWxfYmluZGluZycsICctaW1hZScsICc8aW5maWxlLm1hZT4nLCAnLW9tYWUnLCAnPG91dGZpbGUubWFlPic=

> <r_lp_tautomer_probability>
1

> <r_epik_Ionization_Penalty>
0.0126855

> <r_epik_Ionization_Penalty_Charging>
0

> <r_epik_Ionization_Penalty_Neutral>
0.0126855

> <r_epik_State_Penalty>
0.00977547

> <r_epik_Charging_Adjusted_Penalty>
0.00977547

> <i_epik_Tot_Q>
0

> <i_epik_Tot_abs_Q>
0

> <r_epik_Metal_State_Penalty>
0.00957132

> <b_epik_Metal_Only>
0

> <s_lp_Force_Field>
OPLS_2005

> <r_lp_Energy>
23.179

> <b_lp_Chiralities_Consistent>
1

> <s_lp_Variant>
AV-unprocessed.smi:671-2

> <Gold.Version>
5.8.1

> <Gold.Id.Protein>
6NUR|6NUR_protein|mol2

> <Gold.PLP.Fitness>
43.3894

> <Gold.PLP.PLP>
-38.9308

> <Gold.PLP.part.hbond>
-2.0000

> <Gold.PLP.part.metal>
0.0000

> <Gold.PLP.part.buried>
-4.4919

> <Gold.PLP.part.nonpolar>
-32.0841

> <Gold.PLP.part.repulsive>
0.1317

> <Gold.PLP.ligand.clash>
0.0000

> <Gold.PLP.ligand.torsion>
0.7277

> <Gold.PLP.Chemscore.Hbond>
1.9600

> <Gold.PLP.Chemscore.CHOScore>
0.0000

> <Gold.PLP.Chemscore.Metal>
0.0000

> <Gold.Chemscore.Hbonds>
donor molecule, donor type, donor heavy atom, donor atom, acceptor molecule, acceptor atom, score
      P1  H  7997  8009       L1    14  0.05

> <Gold.PLP.Chemscore.Internal.Correction>
0.0341

> <Gold.Rescore>
     Score         DG    S(hbond)    S(metal)    S(lipo)     H(rot)  DE(clash)    DE(int)     intcor
     19.05     -21.22       1.83        0.00     113.86       1.45       1.46       0.71       ----

> <Gold.Chemscore.Fitness>
19.0452

> <Gold.Chemscore.DG>
-21.2152

> <Gold.Chemscore.ZeroCoef>
-5.4800

> <Gold.Chemscore.Hbond>
1.8341

> <Gold.Chemscore.Metal>
0.0000

> <Gold.Chemscore.Lipo>
113.8565

> <Gold.Chemscore.Internal_Hbond>
0.0000

> <Gold.Chemscore.DEClash>
1.4576

> <Gold.Chemscore.DEInternal>
0.7124

> <Gold.Chemscore.Rot>
1.4499

> <Gold.Chemscore.Internal.Correction>
   9.000000E+99

> <Gold.Chemscore.Hbond.Weighted>
-6.1259

> <Gold.Chemscore.Metal.Weighted>
-0.0000

> <Gold.Chemscore.Lipo.Weighted>
-13.3212

> <Gold.Chemscore.Internal_Hbond.Weighted>
0.0000

> <Gold.Chemscore.DEClash.Weighted>
1.4576

> <Gold.Chemscore.DEInternal.Weighted>
0.7124

> <Gold.Chemscore.Rot.Weighted>
3.7118

> <Gold.Chemscore.Internal.Correction.Weighted>
   9.000000E+99

> <Gold.Protein.RotatedTorsions>
[ 6907 6896 6895 6894 ] final   24.71 input  -60.11 | X-H torsion
[ 7974 7965 7964 7962 ] final  -37.53 input  175.53 | X-H torsion
[ 8008 7997 7996 7995 ] final  177.29 input   59.86 | X-H torsion
[ 10167 10162 10161 10158 ] final -165.36 input  -65.29 | X-H torsion
[ 10718 10713 10712 10709 ] final -105.06 input   66.30 | X-H torsion
[ 10763 10752 10751 10750 ] final  105.11 input  -60.55 | X-H torsion
[ 11005 11000 10999 10996 ] final   50.27 input  -57.11 | X-H torsion

> <Gold.Protein.ActiveResidues>
 VAL166  LYS551  ARG553  GLY616  TRP617  ASP618  TYR619  PRO620  LYS621  CYS622 
 ASP623  PHE694  ASN695  SER759  ASP760  ASP761  ALA762  ILE779  LEU786  VAL792 
 PHE793  MET794  SER795  GLU796  ALA797  LYS798  CYS799  TRP800  GLU811  SER814 

> <Gold.Protein.RotatedAtoms>
  151.9616  135.0120  160.0547 H   0  0  0  0  0  0  0  0  0  0  0  0  # atno 6907 bound_to 6896
  152.1863  133.4737  159.4993 H   0  0  0  0  0  0  0  0  0  0  0  0  # atno 6908 bound_to 6896
  150.6926  134.1686  159.4246 H   0  0  0  0  0  0  0  0  0  0  0  0  # atno 6909 bound_to 6896
  146.0566  140.6407  142.9016 H   0  0  0  0  0  0  0  0  0  0  0  0  # atno 7974 bound_to 7965
  156.0673  140.1362  156.9871 H   0  0  0  0  0  0  0  0  0  0  0  0  # atno 8008 bound_to 7997
  154.4513  140.0979  156.6677 H   0  0  0  0  0  0  0  0  0  0  0  0  # atno 8009 bound_to 7997
  155.5284  140.3458  155.4423 H   0  0  0  0  0  0  0  0  0  0  0  0  # atno 8010 bound_to 7997
  139.6187  144.0667  152.1912 H   0  0  0  0  0  0  0  0  0  0  0  0  # atno 10167 bound_to 10162
  156.0330  130.5545  150.7485 H   0  0  0  0  0  0  0  0  0  0  0  0  # atno 10718 bound_to 10713
  153.3749  135.3921  155.1815 H   0  0  0  0  0  0  0  0  0  0  0  0  # atno 10763 bound_to 10752
  154.8699  135.3711  154.4930 H   0  0  0  0  0  0  0  0  0  0  0  0  # atno 10764 bound_to 10752
  153.5401  135.7084  153.5701 H   0  0  0  0  0  0  0  0  0  0  0  0  # atno 10765 bound_to 10752
  140.1032  134.5054  155.8744 H   0  0  0  0  0  0  0  0  0  0  0  0  # atno 11005 bound_to 11000
  144.7151  140.4182  143.7050 LP  0  0  0  0  0  0  0  0  0  0  0  0  # atno 17320 bound_to 7965
  145.6632  139.1585  143.2796 LP  0  0  0  0  0  0  0  0  0  0  0  0  # atno 17321 bound_to 7965
  140.0304  144.6085  150.7493 LP  0  0  0  0  0  0  0  0  0  0  0  0  # atno 17342 bound_to 10162
  140.7368  143.2757  151.3748 LP  0  0  0  0  0  0  0  0  0  0  0  0  # atno 17343 bound_to 10162
  157.5035  131.0920  151.0285 LP  0  0  0  0  0  0  0  0  0  0  0  0  # atno 17370 bound_to 10713
  157.0660  130.5844  149.5394 LP  0  0  0  0  0  0  0  0  0  0  0  0  # atno 17371 bound_to 10713
  141.2111  133.6703  156.6558 LP  0  0  0  0  0  0  0  0  0  0  0  0  # atno 17394 bound_to 11000
  140.3192  134.8022  157.4239 LP  0  0  0  0  0  0  0  0  0  0  0  0  # atno 17395 bound_to 11000

$$$$
