AV-unprocessed.smi:1240|AV-procd|sdf|5209|dock4
  -GOLD-   22720 4303D 1   1.00000     0.00000
 Structure written by MMmdl.
 49 51  0  0  0  0  0  0  0  0  3 V2000
  145.3197  138.3768  153.0115 O   0  0  0  0  0  0  0  0  0  0  0  0
  146.4097  138.0122  152.5723 C   0  0  0  0  0  0  0  0  0  0  0  0
  146.6005  136.8314  151.9690 N   0  0  0  0  0  0  0  0  0  0  0  0
  145.5581  135.8241  151.7938 C   0  0  0  0  0  0  0  0  0  0  0  0
  146.1447  134.3913  151.7120 C   0  0  2  0  0  0  0  0  0  0  0  0
  145.0131  133.3106  151.6912 C   0  0  1  0  0  0  0  0  0  0  0  0
  143.8125  133.6756  150.8243 C   0  0  0  0  0  0  0  0  0  0  0  0
  143.1872  132.3220  150.5320 C   0  0  0  0  0  0  0  0  0  0  0  0
  144.3139  131.5044  150.2761 O   0  0  0  0  0  0  0  0  0  0  0  0
  145.4050  131.9500  151.0748 C   0  0  0  0  0  0  0  0  0  0  0  0
  147.1701  134.2445  152.8009 N   0  3  0  0  0  0  0  0  0  0  0  0
  146.8283  134.7449  154.1583 C   0  0  0  0  0  0  0  0  0  0  0  0
  148.0378  134.6189  155.1011 C   0  0  0  0  0  0  0  0  0  0  0  0
  148.4691  133.2662  155.1531 O   0  0  0  0  0  0  0  0  0  0  0  0
  148.8822  132.7950  153.8779 C   0  0  0  0  0  0  0  0  0  0  0  0
  147.6978  132.8583  152.8999 C   0  0  0  0  0  0  0  0  0  0  0  0
  147.5435  138.7334  152.6124 N   0  0  0  0  0  0  0  0  0  0  0  0
  147.7495  140.0158  153.1905 C   0  0  0  0  0  0  0  0  0  0  0  0
  148.9398  140.2229  153.9224 C   0  0  0  0  0  0  0  0  0  0  0  0
  149.1763  141.4752  154.5255 C   0  0  0  0  0  0  0  0  0  0  0  0
  148.2609  142.4610  154.4095 N   0  3  0  0  0  0  0  0  0  0  0  0
  147.1018  142.3053  153.7344 C   0  0  0  0  0  0  0  0  0  0  0  0
  146.8104  141.0755  153.1097 C   0  0  0  0  0  0  0  0  0  0  0  0
  147.5268  136.6020  151.6397 H   0  0  0  0  0  0  0  0  0  0  0  0
  144.8382  135.9053  152.6089 H   0  0  0  0  0  0  0  0  0  0  0  0
  144.9928  136.0595  150.8920 H   0  0  0  0  0  0  0  0  0  0  0  0
  146.6629  134.3113  150.7547 H   0  0  0  0  0  0  0  0  0  0  0  0
  144.6309  133.1483  152.7000 H   0  0  0  0  0  0  0  0  0  0  0  0
  143.1161  134.3548  151.3174 H   0  0  0  0  0  0  0  0  0  0  0  0
  144.1367  134.1358  149.8897 H   0  0  0  0  0  0  0  0  0  0  0  0
  142.6502  131.9438  151.4032 H   0  0  0  0  0  0  0  0  0  0  0  0
  142.5029  132.3436  149.6836 H   0  0  0  0  0  0  0  0  0  0  0  0
  146.2877  132.0272  150.4394 H   0  0  0  0  0  0  0  0  0  0  0  0
  145.6099  131.2065  151.8448 H   0  0  0  0  0  0  0  0  0  0  0  0
  146.5383  135.7941  154.1258 H   0  0  0  0  0  0  0  0  0  0  0  0
  145.9933  134.1743  154.5657 H   0  0  0  0  0  0  0  0  0  0  0  0
  148.8564  135.2622  154.7742 H   0  0  0  0  0  0  0  0  0  0  0  0
  147.7642  134.9391  156.1065 H   0  0  0  0  0  0  0  0  0  0  0  0
  149.7247  133.3842  153.5113 H   0  0  0  0  0  0  0  0  0  0  0  0
  149.2314  131.7673  153.9785 H   0  0  0  0  0  0  0  0  0  0  0  0
  146.9035  132.1898  153.2365 H   0  0  0  0  0  0  0  0  0  0  0  0
  148.0212  132.4960  151.9248 H   0  0  0  0  0  0  0  0  0  0  0  0
  148.3385  138.3433  152.1280 H   0  0  0  0  0  0  0  0  0  0  0  0
  149.6720  139.4341  154.0176 H   0  0  0  0  0  0  0  0  0  0  0  0
  150.0628  141.7153  155.0942 H   0  0  0  0  0  0  0  0  0  0  0  0
  146.4433  143.1615  153.7189 H   0  0  0  0  0  0  0  0  0  0  0  0
  145.8691  140.9657  152.5929 H   0  0  0  0  0  0  0  0  0  0  0  0
  147.9464  134.8183  152.5043 H   0  0  0  0  0  0  0  0  0  0  0  0
  148.4505  143.3596  154.8545 H   0  0  0  0  0  0  0  0  0  0  0  0
  1  2  2  0  0  0  0
  2  3  1  0  0  0  0
  2 17  1  0  0  0  0
  3  4  1  0  0  0  0
  3 24  1  0  0  0  0
  4  5  1  0  0  0  0
  4 25  1  0  0  0  0
  4 26  1  0  0  0  0
  5  6  1  0  0  0  0
  5 11  1  0  0  0  0
  5 27  1  0  0  0  0
  6 10  1  0  0  0  0
  6  7  1  0  0  0  0
  6 28  1  0  0  0  0
  7  8  1  0  0  0  0
  7 29  1  0  0  0  0
  7 30  1  0  0  0  0
  8  9  1  0  0  0  0
  8 31  1  0  0  0  0
  8 32  1  0  0  0  0
  9 10  1  0  0  0  0
 10 33  1  0  0  0  0
 10 34  1  0  0  0  0
 11 16  1  0  0  0  0
 11 12  1  0  0  0  0
 11 48  1  0  0  0  0
 12 13  1  0  0  0  0
 12 35  1  0  0  0  0
 12 36  1  0  0  0  0
 13 14  1  0  0  0  0
 13 37  1  0  0  0  0
 13 38  1  0  0  0  0
 14 15  1  0  0  0  0
 15 16  1  0  0  0  0
 15 39  1  0  0  0  0
 15 40  1  0  0  0  0
 16 41  1  0  0  0  0
 16 42  1  0  0  0  0
 17 18  1  0  0  0  0
 17 43  1  0  0  0  0
 18 23  1  0  0  0  0
 18 19  2  0  0  0  0
 19 20  1  0  0  0  0
 19 44  1  0  0  0  0
 20 21  2  0  0  0  0
 20 45  1  0  0  0  0
 21 22  1  0  0  0  0
 21 49  1  0  0  0  0
 22 23  2  0  0  0  0
 22 46  1  0  0  0  0
 23 47  1  0  0  0  0
M  CHG  1  11   1
M  CHG  1  21   1
M  END
> <s_m_source_file>
AV-unprocessed.smi

> <i_m_source_file_index>
1240

> <i_lp_mmshare_version>
43012

> <i_f3d_flags>
0

> <s_epik_input>
W2NIXTFbY0hdbltjSF1bY0hdYzFbTkhdQyg9TylbTkhdW0NIMl1bQ0BIXShbQ0BASF0yW0NIMl1bQ0gyXU9bQ0gyXTIpTjNbQ0gyXVtDSDJdT1tDSDJdW0NIMl0z

> <s_epik_cmdline>
J2VwaWtfcHl0aG9uJywgJy1waCcsICc3LjAnLCAnLXRuJywgJzgnLCAnLW1hJywgJzIwMCcsICctbWV0YWxfYmluZGluZycsICctaW1hZScsICc8aW5maWxlLm1hZT4nLCAnLW9tYWUnLCAnPG91dGZpbGUubWFlPic=

> <r_epik_Ionization_Penalty>
2.08105

> <r_epik_Ionization_Penalty_Charging>
2.08103

> <r_epik_Ionization_Penalty_Neutral>
2.04144e-05

> <r_epik_State_Penalty>
2.15598

> <r_epik_Charging_Adjusted_Penalty>
4.23701

> <i_epik_Tot_Q>
2

> <i_epik_Tot_abs_Q>
2

> <r_epik_Metal_State_Penalty>
2.25158

> <b_epik_Metal_Only>
0

> <s_lp_Force_Field>
OPLS_2005

> <r_lp_Energy>
62.0114

> <b_lp_Chiralities_Consistent>
1

> <s_lp_Variant>
AV-unprocessed.smi:1240-15

> <Gold.Version>
5.8.1

> <Gold.Id.Protein>
6NUR|6NUR_protein|mol2

> <Gold.PLP.Fitness>
52.3356

> <Gold.PLP.PLP>
-38.0123

> <Gold.PLP.part.hbond>
-5.5782

> <Gold.PLP.part.metal>
0.0000

> <Gold.PLP.part.buried>
-0.9538

> <Gold.PLP.part.nonpolar>
-35.3287

> <Gold.PLP.part.repulsive>
1.9271

> <Gold.PLP.ligand.clash>
0.0000

> <Gold.PLP.ligand.torsion>
1.1128

> <Gold.PLP.Chemscore.Hbond>
5.4632

> <Gold.PLP.Chemscore.CHOScore>
0.0000

> <Gold.PLP.Chemscore.Metal>
0.0000

> <Gold.Chemscore.Hbonds>
donor molecule, donor type, donor heavy atom, donor atom, acceptor molecule, acceptor atom, score
      L1  H     3    24       P1  7948  0.83
      L1  H    11    48       P1  7948  2.00
      L1  H    17    43       P1  7948  0.40
      L1  H    21    49       P1  8028  2.00
      P1  H 10785 10796       L1     9  0.12

> <Gold.PLP.Chemscore.Internal.Correction>
0.1594

> <Gold.Rescore>
     Score         DG    S(hbond)    S(metal)    S(lipo)     H(rot)  DE(clash)    DE(int)     intcor
     19.54     -23.22       3.35        0.00      94.04       1.74       1.68       2.01       ----

> <Gold.Chemscore.Fitness>
19.5381

> <Gold.Chemscore.DG>
-23.2200

> <Gold.Chemscore.ZeroCoef>
-5.4800

> <Gold.Chemscore.Hbond>
3.3525

> <Gold.Chemscore.Metal>
0.0000

> <Gold.Chemscore.Lipo>
94.0370

> <Gold.Chemscore.Internal_Hbond>
0.0000

> <Gold.Chemscore.DEClash>
1.6753

> <Gold.Chemscore.DEInternal>
2.0067

> <Gold.Chemscore.Rot>
1.7421

> <Gold.Chemscore.Internal.Correction>
   9.000000E+99

> <Gold.Chemscore.Hbonds>
donor molecule, donor type, donor heavy atom, donor atom, acceptor molecule, acceptor atom, score
      L1  H     3    24       P1  7948  0.79
      L1  H    11    48       P1  7948  0.78
      L1  H    17    43       P1  7948  0.40
      L1  H    21    49       P1  8028  0.99
      P1  H 10785 10796       L1     9  0.01

> <Gold.Chemscore.Hbond.Weighted>
-11.1974

> <Gold.Chemscore.Metal.Weighted>
-0.0000

> <Gold.Chemscore.Lipo.Weighted>
-11.0023

> <Gold.Chemscore.Internal_Hbond.Weighted>
0.0000

> <Gold.Chemscore.DEClash.Weighted>
1.6753

> <Gold.Chemscore.DEInternal.Weighted>
2.0067

> <Gold.Chemscore.Rot.Weighted>
4.4597

> <Gold.Chemscore.Internal.Correction.Weighted>
   9.000000E+99

> <Gold.Protein.RotatedTorsions>
[ 6907 6896 6895 6894 ] final   23.84 input  -60.11 | X-H torsion
[ 7974 7965 7964 7962 ] final -101.26 input  175.53 | X-H torsion
[ 8008 7997 7996 7995 ] final  -70.31 input   59.86 | X-H torsion
[ 10167 10162 10161 10158 ] final   24.22 input  -65.29 | X-H torsion
[ 10718 10713 10712 10709 ] final  105.82 input   66.30 | X-H torsion
[ 10763 10752 10751 10750 ] final  -26.85 input  -60.55 | X-H torsion
[ 11005 11000 10999 10996 ] final  -47.42 input  -57.11 | X-H torsion

> <Gold.Protein.ActiveResidues>
 VAL166  LYS551  ARG553  GLY616  TRP617  ASP618  TYR619  PRO620  LYS621  CYS622 
 ASP623  PHE694  ASN695  SER759  ASP760  ASP761  ALA762  ILE779  LEU786  VAL792 
 PHE793  MET794  SER795  GLU796  ALA797  LYS798  CYS799  TRP800  GLU811  SER814 

> <Gold.Protein.RotatedAtoms>
  151.9485  135.0180  160.0540 H   0  0  0  0  0  0  0  0  0  0  0  0  # atno 6907 bound_to 6896
  152.1974  133.4811  159.5048 H   0  0  0  0  0  0  0  0  0  0  0  0  # atno 6908 bound_to 6896
  150.6947  134.1552  159.4198 H   0  0  0  0  0  0  0  0  0  0  0  0  # atno 6909 bound_to 6896
  145.2839  140.9334  143.2916 H   0  0  0  0  0  0  0  0  0  0  0  0  # atno 7974 bound_to 7965
  154.5003  140.0837  156.7783 H   0  0  0  0  0  0  0  0  0  0  0  0  # atno 8008 bound_to 7997
  155.4019  140.3437  155.4239 H   0  0  0  0  0  0  0  0  0  0  0  0  # atno 8009 bound_to 7997
  156.1447  140.1540  156.8853 H   0  0  0  0  0  0  0  0  0  0  0  0  # atno 8010 bound_to 7997
  140.5206  144.0009  150.6415 H   0  0  0  0  0  0  0  0  0  0  0  0  # atno 10167 bound_to 10162
  157.6691  131.0836  150.5913 H   0  0  0  0  0  0  0  0  0  0  0  0  # atno 10718 bound_to 10713
  153.7225  135.6944  153.5009 H   0  0  0  0  0  0  0  0  0  0  0  0  # atno 10763 bound_to 10752
  153.2193  135.4375  155.0470 H   0  0  0  0  0  0  0  0  0  0  0  0  # atno 10764 bound_to 10752
  154.8279  135.3456  154.6758 H   0  0  0  0  0  0  0  0  0  0  0  0  # atno 10765 bound_to 10752
  141.0639  133.6700  156.3295 H   0  0  0  0  0  0  0  0  0  0  0  0  # atno 11005 bound_to 11000
  144.9229  139.4389  143.6532 LP  0  0  0  0  0  0  0  0  0  0  0  0  # atno 17320 bound_to 7965
  146.3207  139.8100  142.8948 LP  0  0  0  0  0  0  0  0  0  0  0  0  # atno 17321 bound_to 7965
  140.3357  143.3050  152.0641 LP  0  0  0  0  0  0  0  0  0  0  0  0  # atno 17342 bound_to 10162
  139.4922  144.6478  151.6741 LP  0  0  0  0  0  0  0  0  0  0  0  0  # atno 17343 bound_to 10162
  156.6214  130.4407  149.5821 LP  0  0  0  0  0  0  0  0  0  0  0  0  # atno 17370 bound_to 10713
  156.2353  130.6819  151.1503 LP  0  0  0  0  0  0  0  0  0  0  0  0  # atno 17371 bound_to 10713
  140.5812  134.5744  157.5480 LP  0  0  0  0  0  0  0  0  0  0  0  0  # atno 17394 bound_to 11000
  139.9458  134.7704  156.0565 LP  0  0  0  0  0  0  0  0  0  0  0  0  # atno 17395 bound_to 11000

$$$$
