AV-unprocessed.smi:2786|AV-procd|sdf|10748|dock10
  -GOLD-   2272015183D 1   1.00000     0.00000
 Structure written by MMmdl.
 27 28  0  0  0  0  0  0  0  0  2 V2000
  151.9417  144.4470  159.6323 C   0  0  0  0  0  0  0  0  0  0  0  0
  152.4365  143.0865  159.7186 N   0  0  0  0  0  0  0  0  0  0  0  0
  153.3104  142.5997  160.6817 C   0  0  0  0  0  0  0  0  0  0  0  0
  153.5077  141.2699  160.3992 C   0  0  0  0  0  0  0  0  0  0  0  0
  152.7681  140.9238  159.2737 N   0  0  0  0  0  0  0  0  0  0  0  0
  152.1576  142.0482  158.9062 C   0  0  0  0  0  0  0  0  0  0  0  0
  151.2280  142.1522  157.7314 C   0  0  2  0  0  0  0  0  0  0  0  0
  149.7733  142.4043  158.1862 C   0  0  0  0  0  0  0  0  0  0  0  0
  148.8842  142.5467  157.0145 N   0  3  0  0  0  0  0  0  0  0  0  0
  148.9889  141.3769  156.1193 C   0  0  0  0  0  0  0  0  0  0  0  0
  150.4573  141.1581  155.7110 C   0  0  0  0  0  0  0  0  0  0  0  0
  151.2708  140.9459  156.9042 N   0  0  0  0  0  0  0  0  0  0  0  0
  152.2808  145.0257  160.4921 H   0  0  0  0  0  0  0  0  0  0  0  0
  150.8514  144.4452  159.6182 H   0  0  0  0  0  0  0  0  0  0  0  0
  152.3142  144.9176  158.7221 H   0  0  0  0  0  0  0  0  0  0  0  0
  153.7086  143.2225  161.4694 H   0  0  0  0  0  0  0  0  0  0  0  0
  154.1174  140.5422  160.9142 H   0  0  0  0  0  0  0  0  0  0  0  0
  151.5591  142.9857  157.1110 H   0  0  0  0  0  0  0  0  0  0  0  0
  149.4167  141.5874  158.8159 H   0  0  0  0  0  0  0  0  0  0  0  0
  149.7135  143.3157  158.7818 H   0  0  0  0  0  0  0  0  0  0  0  0
  147.9289  142.6511  157.3249 H   0  0  0  0  0  0  0  0  0  0  0  0
  148.5935  140.4940  156.6241 H   0  0  0  0  0  0  0  0  0  0  0  0
  148.3703  141.5459  155.2377 H   0  0  0  0  0  0  0  0  0  0  0  0
  150.5386  140.2796  155.0704 H   0  0  0  0  0  0  0  0  0  0  0  0
  150.8388  142.0063  155.1405 H   0  0  0  0  0  0  0  0  0  0  0  0
  150.8667  140.1834  157.4301 H   0  0  0  0  0  0  0  0  0  0  0  0
  149.1578  143.3715  156.5001 H   0  0  0  0  0  0  0  0  0  0  0  0
  1  2  1  0  0  0  0
  1 13  1  0  0  0  0
  1 14  1  0  0  0  0
  1 15  1  0  0  0  0
  2  6  1  0  0  0  0
  2  3  1  0  0  0  0
  3  4  2  0  0  0  0
  3 16  1  0  0  0  0
  4  5  1  0  0  0  0
  4 17  1  0  0  0  0
  5  6  2  0  0  0  0
  6  7  1  0  0  0  0
  7 12  1  0  0  0  0
  7  8  1  0  0  0  0
  7 18  1  0  0  0  0
  8  9  1  0  0  0  0
  8 19  1  0  0  0  0
  8 20  1  0  0  0  0
  9 10  1  0  0  0  0
  9 21  1  0  0  0  0
  9 27  1  0  0  0  0
 10 11  1  0  0  0  0
 10 22  1  0  0  0  0
 10 23  1  0  0  0  0
 11 12  1  0  0  0  0
 11 24  1  0  0  0  0
 11 25  1  0  0  0  0
 12 26  1  0  0  0  0
M  CHG  1   9   1
M  END
> <s_m_source_file>
AV-unprocessed.smi

> <i_m_source_file_index>
2786

> <i_lp_mmshare_version>
43012

> <i_f3d_flags>
0

> <s_epik_input>
W0NIM11uMVtjSF1bY0hdbmMxW0NAQEhdMltDSDJdW05IXVtDSDJdW0NIMl1bTkhdMg==

> <s_epik_cmdline>
J2VwaWtfcHl0aG9uJywgJy1waCcsICc3LjAnLCAnLXRuJywgJzgnLCAnLW1hJywgJzIwMCcsICctbWV0YWxfYmluZGluZycsICctaW1hZScsICc8aW5maWxlLm1hZT4nLCAnLW9tYWUnLCAnPG91dGZpbGUubWFlPic=

> <r_lp_tautomer_probability>
1

> <r_epik_Ionization_Penalty>
0.130484

> <r_epik_Ionization_Penalty_Charging>
0.130409

> <r_epik_Ionization_Penalty_Neutral>
7.57914e-05

> <r_epik_State_Penalty>
0.270147

> <r_epik_Charging_Adjusted_Penalty>
0.400555

> <i_epik_Tot_Q>
1

> <i_epik_Tot_abs_Q>
1

> <r_epik_Metal_State_Penalty>
0.136376

> <b_epik_Metal_Only>
0

> <s_lp_Force_Field>
OPLS_2005

> <r_lp_Energy>
9.37099

> <b_lp_Chiralities_Consistent>
1

> <s_lp_Variant>
AV-unprocessed.smi:2786-1

> <Gold.Version>
5.8.1

> <Gold.Id.Protein>
6NUR|6NUR_protein|mol2

> <Gold.PLP.Fitness>
33.2469

> <Gold.PLP.PLP>
-27.5306

> <Gold.PLP.part.hbond>
-1.0000

> <Gold.PLP.part.metal>
0.0000

> <Gold.PLP.part.buried>
-3.7942

> <Gold.PLP.part.nonpolar>
-23.0645

> <Gold.PLP.part.repulsive>
0.0083

> <Gold.PLP.ligand.clash>
0.0000

> <Gold.PLP.ligand.torsion>
0.1455

> <Gold.PLP.Chemscore.Hbond>
2.0000

> <Gold.PLP.Chemscore.CHOScore>
0.0000

> <Gold.PLP.Chemscore.Metal>
0.0000

> <Gold.Chemscore.Hbonds>
donor molecule, donor type, donor heavy atom, donor atom, acceptor molecule, acceptor atom, score
      L1  H     9    27       P1  8028  2.00

> <Gold.PLP.Chemscore.Internal.Correction>
0.0074

> <Gold.Rescore>
     Score         DG    S(hbond)    S(metal)    S(lipo)     H(rot)  DE(clash)    DE(int)     intcor
     12.90     -12.98       0.99        0.00      57.60       1.00       0.00       0.08       ----

> <Gold.Chemscore.Fitness>
12.9033

> <Gold.Chemscore.DG>
-12.9812

> <Gold.Chemscore.ZeroCoef>
-5.4800

> <Gold.Chemscore.Hbond>
0.9947

> <Gold.Chemscore.Metal>
0.0000

> <Gold.Chemscore.Lipo>
57.5967

> <Gold.Chemscore.Internal_Hbond>
0.0000

> <Gold.Chemscore.DEClash>
0.0000

> <Gold.Chemscore.DEInternal>
0.0778

> <Gold.Chemscore.Rot>
1.0000

> <Gold.Chemscore.Internal.Correction>
   9.000000E+99

> <Gold.Chemscore.Hbonds>
donor molecule, donor type, donor heavy atom, donor atom, acceptor molecule, acceptor atom, score
      L1  H     9    27       P1  8028  0.96

> <Gold.Chemscore.Hbond.Weighted>
-3.3223

> <Gold.Chemscore.Metal.Weighted>
-0.0000

> <Gold.Chemscore.Lipo.Weighted>
-6.7388

> <Gold.Chemscore.Internal_Hbond.Weighted>
0.0000

> <Gold.Chemscore.DEClash.Weighted>
0.0000

> <Gold.Chemscore.DEInternal.Weighted>
0.0778

> <Gold.Chemscore.Rot.Weighted>
2.5600

> <Gold.Chemscore.Internal.Correction.Weighted>
   9.000000E+99

> <Gold.Protein.RotatedTorsions>
[ 6907 6896 6895 6894 ] final  -71.36 input  -60.11 | X-H torsion
[ 7974 7965 7964 7962 ] final  169.90 input  175.53 | X-H torsion
[ 8008 7997 7996 7995 ] final   93.61 input   59.86 | X-H torsion
[ 10167 10162 10161 10158 ] final  -93.42 input  -65.29 | X-H torsion
[ 10718 10713 10712 10709 ] final  -11.05 input   66.30 | X-H torsion
[ 10763 10752 10751 10750 ] final   36.48 input  -60.55 | X-H torsion
[ 11005 11000 10999 10996 ] final  125.70 input  -57.11 | X-H torsion

> <Gold.Protein.ActiveResidues>
 VAL166  LYS551  ARG553  GLY616  TRP617  ASP618  TYR619  PRO620  LYS621  CYS622 
 ASP623  PHE694  ASN695  SER759  ASP760  ASP761  ALA762  ILE779  LEU786  VAL792 
 PHE793  MET794  SER795  GLU796  ALA797  LYS798  CYS799  TRP800  GLU811  SER814 

> <Gold.Protein.RotatedAtoms>
  150.7216  134.5319  159.5704 H   0  0  0  0  0  0  0  0  0  0  0  0  # atno 6907 bound_to 6896
  152.2850  134.7783  160.0398 H   0  0  0  0  0  0  0  0  0  0  0  0  # atno 6908 bound_to 6896
  151.8416  133.3389  159.3681 H   0  0  0  0  0  0  0  0  0  0  0  0  # atno 6909 bound_to 6896
  144.7340  139.9123  143.6415 H   0  0  0  0  0  0  0  0  0  0  0  0  # atno 7974 bound_to 7965
  156.0487  140.3310  155.7326 H   0  0  0  0  0  0  0  0  0  0  0  0  # atno 8008 bound_to 7997
  155.5634  140.0621  157.2841 H   0  0  0  0  0  0  0  0  0  0  0  0  # atno 8009 bound_to 7997
  154.4425  140.1873  156.0794 H   0  0  0  0  0  0  0  0  0  0  0  0  # atno 8010 bound_to 7997
  140.3249  143.3028  152.0006 H   0  0  0  0  0  0  0  0  0  0  0  0  # atno 10167 bound_to 10162
  156.6647  130.4992  149.6019 H   0  0  0  0  0  0  0  0  0  0  0  0  # atno 10718 bound_to 10713
  153.0075  135.6304  154.1992 H   0  0  0  0  0  0  0  0  0  0  0  0  # atno 10763 bound_to 10752
  154.1735  135.2817  155.3075 H   0  0  0  0  0  0  0  0  0  0  0  0  # atno 10764 bound_to 10752
  154.5890  135.5623  153.7320 H   0  0  0  0  0  0  0  0  0  0  0  0  # atno 10765 bound_to 10752
  139.9419  134.9634  156.8598 H   0  0  0  0  0  0  0  0  0  0  0  0  # atno 11005 bound_to 11000
  146.0992  139.3986  143.0357 LP  0  0  0  0  0  0  0  0  0  0  0  0  # atno 17320 bound_to 7965
  145.7603  140.9938  143.1203 LP  0  0  0  0  0  0  0  0  0  0  0  0  # atno 17321 bound_to 7965
  139.4867  144.6282  151.7123 LP  0  0  0  0  0  0  0  0  0  0  0  0  # atno 17342 bound_to 10162
  140.5450  144.0518  150.6103 LP  0  0  0  0  0  0  0  0  0  0  0  0  # atno 17343 bound_to 10162
  156.1984  130.6604  151.1140 LP  0  0  0  0  0  0  0  0  0  0  0  0  # atno 17370 bound_to 10713
  157.7098  131.0739  150.6541 LP  0  0  0  0  0  0  0  0  0  0  0  0  # atno 17371 bound_to 10713
  140.5929  134.0244  155.7507 LP  0  0  0  0  0  0  0  0  0  0  0  0  # atno 17394 bound_to 11000
  141.1057  133.9697  157.3001 LP  0  0  0  0  0  0  0  0  0  0  0  0  # atno 17395 bound_to 11000

$$$$
