AV-unprocessed.smi:3333|AV-procd|sdf|12833|dock3
  -GOLD-   2272019213D 1   1.00000     0.00000
 Structure written by MMmdl.
 41 43  0  0  0  0  0  0  0  0  1 V2000
  145.3425  152.0119  159.0675 C   0  0  0  0  0  0  0  0  0  0  0  0
  145.2419  150.8056  160.0071 C   0  0  0  0  0  0  0  0  0  0  0  0
  145.2273  149.5070  159.2726 C   0  0  0  0  0  0  0  0  0  0  0  0
  145.4216  148.3243  159.8618 N   0  0  0  0  0  0  0  0  0  0  0  0
  145.4030  147.2590  158.9540 C   0  0  0  0  0  0  0  0  0  0  0  0
  145.6124  145.8534  159.4379 C   0  0  0  0  0  0  0  0  0  0  0  0
  146.9355  145.7599  160.1980 C   0  0  0  0  0  0  0  0  0  0  0  0
  147.0692  146.3342  161.2785 O   0  0  0  0  0  0  0  0  0  0  0  0
  147.8968  145.0163  159.6292 N   0  0  0  0  0  0  0  0  0  0  0  0
  149.1889  144.7084  160.2295 C   0  0  0  0  0  0  0  0  0  0  0  0
  150.3530  145.0198  159.2650 C   0  0  2  0  0  0  0  0  0  0  0  0
  150.8574  143.8050  158.4582 C   0  0  0  0  0  0  0  0  0  0  0  0
  152.3815  143.8574  158.6789 C   0  0  2  0  0  0  0  0  0  0  0  0
  152.6980  143.4008  160.1149 C   0  0  0  0  0  0  0  0  0  0  0  0
  152.2186  144.5936  160.9620 C   0  0  0  0  0  0  0  0  0  0  0  0
  151.6561  145.5628  159.9016 C   0  0  1  0  0  0  0  0  0  0  0  0
  152.6466  145.3573  158.7601 C   0  0  0  0  0  0  0  0  0  0  0  0
  145.1895  147.6588  157.6579 C   0  0  0  0  0  0  0  0  0  0  0  0
  145.0211  149.3876  157.5292 S   0  0  0  0  0  0  0  0  0  0  0  0
  145.3444  152.9447  159.6314 H   0  0  0  0  0  0  0  0  0  0  0  0
  144.5018  152.0424  158.3736 H   0  0  0  0  0  0  0  0  0  0  0  0
  146.2599  151.9763  158.4813 H   0  0  0  0  0  0  0  0  0  0  0  0
  146.0796  150.8076  160.7057 H   0  0  0  0  0  0  0  0  0  0  0  0
  144.3344  150.8765  160.6073 H   0  0  0  0  0  0  0  0  0  0  0  0
  144.7940  145.5367  160.0860 H   0  0  0  0  0  0  0  0  0  0  0  0
  145.6295  145.1559  158.5996 H   0  0  0  0  0  0  0  0  0  0  0  0
  147.6933  144.5825  158.7401 H   0  0  0  0  0  0  0  0  0  0  0  0
  149.2828  145.2847  161.1494 H   0  0  0  0  0  0  0  0  0  0  0  0
  149.2211  143.6600  160.5300 H   0  0  0  0  0  0  0  0  0  0  0  0
  149.9995  145.7686  158.5539 H   0  0  0  0  0  0  0  0  0  0  0  0
  150.4295  142.8604  158.7971 H   0  0  0  0  0  0  0  0  0  0  0  0
  150.6109  143.9188  157.4017 H   0  0  0  0  0  0  0  0  0  0  0  0
  152.9526  143.3275  157.9161 H   0  0  0  0  0  0  0  0  0  0  0  0
  152.1879  142.4729  160.3763 H   0  0  0  0  0  0  0  0  0  0  0  0
  153.7693  143.2430  160.2470 H   0  0  0  0  0  0  0  0  0  0  0  0
  151.4893  144.3098  161.7196 H   0  0  0  0  0  0  0  0  0  0  0  0
  153.0635  145.0459  161.4825 H   0  0  0  0  0  0  0  0  0  0  0  0
  151.5739  146.5933  160.2491 H   0  0  0  0  0  0  0  0  0  0  0  0
  153.6759  145.6019  159.0288 H   0  0  0  0  0  0  0  0  0  0  0  0
  152.3781  145.8942  157.8486 H   0  0  0  0  0  0  0  0  0  0  0  0
  145.1320  147.0427  156.7727 H   0  0  0  0  0  0  0  0  0  0  0  0
  1  2  1  0  0  0  0
  1 20  1  0  0  0  0
  1 21  1  0  0  0  0
  1 22  1  0  0  0  0
  2  3  1  0  0  0  0
  2 23  1  0  0  0  0
  2 24  1  0  0  0  0
  3 19  1  0  0  0  0
  3  4  2  0  0  0  0
  4  5  1  0  0  0  0
  5  6  1  0  0  0  0
  5 18  2  0  0  0  0
  6  7  1  0  0  0  0
  6 25  1  0  0  0  0
  6 26  1  0  0  0  0
  7  8  2  0  0  0  0
  7  9  1  0  0  0  0
  9 10  1  0  0  0  0
  9 27  1  0  0  0  0
 10 11  1  0  0  0  0
 10 28  1  0  0  0  0
 10 29  1  0  0  0  0
 11 16  1  0  0  0  0
 11 12  1  0  0  0  0
 11 30  1  0  0  0  0
 12 13  1  0  0  0  0
 12 31  1  0  0  0  0
 12 32  1  0  0  0  0
 13 17  1  0  0  0  0
 13 14  1  0  0  0  0
 13 33  1  0  0  0  0
 14 15  1  0  0  0  0
 14 34  1  0  0  0  0
 14 35  1  0  0  0  0
 15 16  1  0  0  0  0
 15 36  1  0  0  0  0
 15 37  1  0  0  0  0
 16 17  1  0  0  0  0
 16 38  1  0  0  0  0
 17 39  1  0  0  0  0
 17 40  1  0  0  0  0
 18 19  1  0  0  0  0
 18 41  1  0  0  0  0
M  END
> <s_m_source_file>
AV-unprocessed.smi

> <i_m_source_file_index>
3333

> <i_lp_mmshare_version>
43012

> <i_f3d_flags>
0

> <s_epik_input>
W0NIM11bQ0gyXWMxbmMoW2NIXXMxKVtDSDJdQyg9TylbTkhdW0NIMl1bQ0BIXShbQ0gyXVtDQEBIXTIzKVtDQEBIXShbQ0gyXTMpW0NIMl1bQ0gyXTI=

> <s_epik_cmdline>
J2VwaWtfcHl0aG9uJywgJy1waCcsICc3LjAnLCAnLXRuJywgJzgnLCAnLW1hJywgJzIwMCcsICctbWV0YWxfYmluZGluZycsICctaW1hZScsICc8aW5maWxlLm1hZT4nLCAnLW9tYWUnLCAnPG91dGZpbGUubWFlPic=

> <r_lp_tautomer_probability>
1

> <r_epik_Ionization_Penalty>
6.68371e-05

> <r_epik_Ionization_Penalty_Charging>
0

> <r_epik_Ionization_Penalty_Neutral>
6.68371e-05

> <r_epik_State_Penalty>
-0

> <r_epik_Charging_Adjusted_Penalty>
0

> <i_epik_Tot_Q>
0

> <i_epik_Tot_abs_Q>
0

> <r_epik_Metal_State_Penalty>
-0

> <b_epik_Metal_Only>
0

> <s_lp_Force_Field>
OPLS_2005

> <r_lp_Energy>
42.1731

> <b_lp_Chiralities_Consistent>
1

> <s_lp_Variant>
AV-unprocessed.smi:3333-3

> <Gold.Version>
5.8.1

> <Gold.Id.Protein>
6NUR|6NUR_protein|mol2

> <Gold.PLP.Fitness>
56.6919

> <Gold.PLP.PLP>
-56.8346

> <Gold.PLP.part.hbond>
-3.8876

> <Gold.PLP.part.metal>
0.0000

> <Gold.PLP.part.buried>
-7.4479

> <Gold.PLP.part.nonpolar>
-45.6346

> <Gold.PLP.part.repulsive>
0.5317

> <Gold.PLP.ligand.clash>
0.0000

> <Gold.PLP.ligand.torsion>
0.7435

> <Gold.PLP.Chemscore.Hbond>
0.4320

> <Gold.PLP.Chemscore.CHOScore>
0.0000

> <Gold.PLP.Chemscore.Metal>
0.0000

> <Gold.Chemscore.Hbonds>
donor molecule, donor type, donor heavy atom, donor atom, acceptor molecule, acceptor atom, score
      L1  H     9    27       P1  8029  0.19
      L1  C    18    41       P1  8029  0.01

> <Gold.PLP.Chemscore.Internal.Correction>
0.0482

> <Gold.Rescore>
     Score         DG    S(hbond)    S(metal)    S(lipo)     H(rot)  DE(clash)    DE(int)     intcor
     16.62     -20.21       0.26        0.00     149.62       1.42       1.71       1.88       ----

> <Gold.Chemscore.Fitness>
16.6158

> <Gold.Chemscore.DG>
-20.2084

> <Gold.Chemscore.ZeroCoef>
-5.4800

> <Gold.Chemscore.Hbond>
0.2590

> <Gold.Chemscore.Metal>
0.0000

> <Gold.Chemscore.Lipo>
149.6181

> <Gold.Chemscore.Internal_Hbond>
0.0000

> <Gold.Chemscore.DEClash>
1.7123

> <Gold.Chemscore.DEInternal>
1.8803

> <Gold.Chemscore.Rot>
1.4227

> <Gold.Chemscore.Internal.Correction>
   9.000000E+99

> <Gold.Chemscore.Hbonds>
donor molecule, donor type, donor heavy atom, donor atom, acceptor molecule, acceptor atom, score
      L1  H     9    27       P1  8029  0.19

> <Gold.Chemscore.Hbond.Weighted>
-0.8652

> <Gold.Chemscore.Metal.Weighted>
-0.0000

> <Gold.Chemscore.Lipo.Weighted>
-17.5053

> <Gold.Chemscore.Internal_Hbond.Weighted>
0.0000

> <Gold.Chemscore.DEClash.Weighted>
1.7123

> <Gold.Chemscore.DEInternal.Weighted>
1.8803

> <Gold.Chemscore.Rot.Weighted>
3.6421

> <Gold.Chemscore.Internal.Correction.Weighted>
   9.000000E+99

> <Gold.Protein.RotatedTorsions>
[ 6907 6896 6895 6894 ] final  114.51 input  -60.11 | X-H torsion
[ 7974 7965 7964 7962 ] final  -65.12 input  175.53 | X-H torsion
[ 8008 7997 7996 7995 ] final   26.36 input   59.86 | X-H torsion
[ 10167 10162 10161 10158 ] final  150.48 input  -65.29 | X-H torsion
[ 10718 10713 10712 10709 ] final  111.50 input   66.30 | X-H torsion
[ 10763 10752 10751 10750 ] final  -88.64 input  -60.55 | X-H torsion
[ 11005 11000 10999 10996 ] final   48.09 input  -57.11 | X-H torsion

> <Gold.Protein.ActiveResidues>
 VAL166  LYS551  ARG553  GLY616  TRP617  ASP618  TYR619  PRO620  LYS621  CYS622 
 ASP623  PHE694  ASN695  SER759  ASP760  ASP761  ALA762  ILE779  LEU786  VAL792 
 PHE793  MET794  SER795  GLU796  ALA797  LYS798  CYS799  TRP800  GLU811  SER814 

> <Gold.Protein.RotatedAtoms>
  152.4798  133.8226  159.7061 H   0  0  0  0  0  0  0  0  0  0  0  0  # atno 6907 bound_to 6896
  150.8839  133.7324  159.2930 H   0  0  0  0  0  0  0  0  0  0  0  0  # atno 6908 bound_to 6896
  151.4819  135.1056  159.9832 H   0  0  0  0  0  0  0  0  0  0  0  0  # atno 6909 bound_to 6896
  145.7582  140.8875  143.0444 H   0  0  0  0  0  0  0  0  0  0  0  0  # atno 7974 bound_to 7965
  155.0261  140.3153  155.4775 H   0  0  0  0  0  0  0  0  0  0  0  0  # atno 8008 bound_to 7997
  156.2883  140.2188  156.5323 H   0  0  0  0  0  0  0  0  0  0  0  0  # atno 8009 bound_to 7997
  154.7410  140.0473  157.0799 H   0  0  0  0  0  0  0  0  0  0  0  0  # atno 8010 bound_to 7997
  139.4850  144.5519  151.7386 H   0  0  0  0  0  0  0  0  0  0  0  0  # atno 10167 bound_to 10162
  157.6441  131.0952  150.6758 H   0  0  0  0  0  0  0  0  0  0  0  0  # atno 10718 bound_to 10713
  154.6467  135.5370  153.7853 H   0  0  0  0  0  0  0  0  0  0  0  0  # atno 10763 bound_to 10752
  153.0363  135.6472  154.1078 H   0  0  0  0  0  0  0  0  0  0  0  0  # atno 10764 bound_to 10752
  154.0998  135.2934  155.3234 H   0  0  0  0  0  0  0  0  0  0  0  0  # atno 10765 bound_to 10752
  140.1221  134.4816  155.8589 H   0  0  0  0  0  0  0  0  0  0  0  0  # atno 11005 bound_to 11000
  144.6836  139.9686  143.7481 LP  0  0  0  0  0  0  0  0  0  0  0  0  # atno 17320 bound_to 7965
  146.0290  139.3318  143.0767 LP  0  0  0  0  0  0  0  0  0  0  0  0  # atno 17321 bound_to 7965
  140.5074  144.1077  150.5986 LP  0  0  0  0  0  0  0  0  0  0  0  0  # atno 17342 bound_to 10162
  140.3991  143.2713  151.9969 LP  0  0  0  0  0  0  0  0  0  0  0  0  # atno 17343 bound_to 10162
  156.7078  130.4642  149.5555 LP  0  0  0  0  0  0  0  0  0  0  0  0  # atno 17370 bound_to 10713
  156.1751  130.6462  151.0884 LP  0  0  0  0  0  0  0  0  0  0  0  0  # atno 17371 bound_to 10713
  141.2154  133.6764  156.6908 LP  0  0  0  0  0  0  0  0  0  0  0  0  # atno 17394 bound_to 11000
  140.2952  134.8209  157.4050 LP  0  0  0  0  0  0  0  0  0  0  0  0  # atno 17395 bound_to 11000

$$$$
