AV-unprocessed.smi:2944|AV-procd|sdf|11275|dock6
  -GOLD-   2272016163D 1   1.00000     0.00000
 Structure written by MMmdl.
 45 47  0  0  0  0  0  0  0  0  2 V2000
  154.6741  138.0982  158.7739 C   0  0  0  0  0  0  0  0  0  0  0  0
  153.9785  139.1795  158.1796 O   0  0  0  0  0  0  0  0  0  0  0  0
  153.1878  139.8950  159.1145 C   0  0  0  0  0  0  0  0  0  0  0  0
  151.7404  140.0036  158.6137 C   0  0  0  0  0  0  0  0  0  0  0  0
  151.4351  141.3359  158.0709 N   0  0  0  0  0  0  0  0  0  0  0  0
  150.8723  141.6969  156.8843 C   0  0  0  0  0  0  0  0  0  0  0  0
  150.3218  140.6170  155.6062 S   0  0  0  0  0  0  0  0  0  0  0  0
  148.9553  141.5168  154.8132 C   0  0  1  0  0  0  0  0  0  0  0  0
  148.5240  140.7966  153.5275 C   0  0  0  0  0  0  0  0  0  0  0  0
  147.7571  141.6862  155.7724 C   0  0  0  0  0  0  0  0  0  0  0  0
  147.8439  141.1517  156.8801 O   0  0  0  0  0  0  0  0  0  0  0  0
  146.6639  142.4302  155.4492 N   0  0  0  0  0  0  0  0  0  0  0  0
  146.4799  142.9259  154.0840 C   0  0  0  0  0  0  0  0  0  0  0  0
  145.1412  143.6520  154.1195 C   0  0  0  0  0  0  0  0  0  0  0  0
  144.7706  143.5239  155.5065 N   0  0  0  0  0  0  0  0  0  0  0  0
  145.6557  142.8545  156.2490 C   0  0  0  0  0  0  0  0  0  0  0  0
  145.5251  142.6945  157.4617 O   0  0  0  0  0  0  0  0  0  0  0  0
  150.7899  143.0548  156.8580 N   0  3  0  0  0  0  0  0  0  0  0  0
  151.3088  143.5749  158.0445 C   0  0  0  0  0  0  0  0  0  0  0  0
  151.4429  144.8900  158.4791 C   0  0  0  0  0  0  0  0  0  0  0  0
  152.0128  145.0799  159.7550 C   0  0  0  0  0  0  0  0  0  0  0  0
  152.4209  143.9870  160.5469 C   0  0  0  0  0  0  0  0  0  0  0  0
  152.2803  142.6580  160.0958 C   0  0  0  0  0  0  0  0  0  0  0  0
  151.7209  142.4775  158.8307 C   0  0  0  0  0  0  0  0  0  0  0  0
  155.2514  137.5718  158.0139 H   0  0  0  0  0  0  0  0  0  0  0  0
  153.9846  137.3857  159.2282 H   0  0  0  0  0  0  0  0  0  0  0  0
  155.3683  138.4504  159.5373 H   0  0  0  0  0  0  0  0  0  0  0  0
  153.2099  139.3950  160.0837 H   0  0  0  0  0  0  0  0  0  0  0  0
  153.6000  140.8923  159.2578 H   0  0  0  0  0  0  0  0  0  0  0  0
  151.5320  139.2499  157.8545 H   0  0  0  0  0  0  0  0  0  0  0  0
  151.0469  139.8113  159.4330 H   0  0  0  0  0  0  0  0  0  0  0  0
  149.3910  142.4775  154.5526 H   0  0  0  0  0  0  0  0  0  0  0  0
  147.7330  141.3434  153.0128 H   0  0  0  0  0  0  0  0  0  0  0  0
  148.1532  139.7925  153.7370 H   0  0  0  0  0  0  0  0  0  0  0  0
  149.3601  140.7031  152.8341 H   0  0  0  0  0  0  0  0  0  0  0  0
  147.2867  143.6074  153.8078 H   0  0  0  0  0  0  0  0  0  0  0  0
  146.4615  142.1038  153.3663 H   0  0  0  0  0  0  0  0  0  0  0  0
  145.2335  144.7014  153.8372 H   0  0  0  0  0  0  0  0  0  0  0  0
  144.3985  143.1744  153.4798 H   0  0  0  0  0  0  0  0  0  0  0  0
  143.9320  143.9450  155.8798 H   0  0  0  0  0  0  0  0  0  0  0  0
  151.1280  145.7291  157.8759 H   0  0  0  0  0  0  0  0  0  0  0  0
  152.1374  146.0836  160.1351 H   0  0  0  0  0  0  0  0  0  0  0  0
  152.8503  144.1714  161.5210 H   0  0  0  0  0  0  0  0  0  0  0  0
  152.5912  141.8293  160.7144 H   0  0  0  0  0  0  0  0  0  0  0  0
  150.4061  143.5830  156.0849 H   0  0  0  0  0  0  0  0  0  0  0  0
  1  2  1  0  0  0  0
  1 25  1  0  0  0  0
  1 26  1  0  0  0  0
  1 27  1  0  0  0  0
  2  3  1  0  0  0  0
  3  4  1  0  0  0  0
  3 28  1  0  0  0  0
  3 29  1  0  0  0  0
  4  5  1  0  0  0  0
  4 30  1  0  0  0  0
  4 31  1  0  0  0  0
  5 24  1  0  0  0  0
  5  6  1  0  0  0  0
  6  7  1  0  0  0  0
  6 18  2  0  0  0  0
  7  8  1  0  0  0  0
  8  9  1  0  0  0  0
  8 10  1  0  0  0  0
  8 32  1  0  0  0  0
  9 33  1  0  0  0  0
  9 34  1  0  0  0  0
  9 35  1  0  0  0  0
 10 11  2  0  0  0  0
 10 12  1  0  0  0  0
 12 16  1  0  0  0  0
 12 13  1  0  0  0  0
 13 14  1  0  0  0  0
 13 36  1  0  0  0  0
 13 37  1  0  0  0  0
 14 15  1  0  0  0  0
 14 38  1  0  0  0  0
 14 39  1  0  0  0  0
 15 16  1  0  0  0  0
 15 40  1  0  0  0  0
 16 17  2  0  0  0  0
 18 19  1  0  0  0  0
 18 45  1  0  0  0  0
 19 24  2  0  0  0  0
 19 20  1  0  0  0  0
 20 21  2  0  0  0  0
 20 41  1  0  0  0  0
 21 22  1  0  0  0  0
 21 42  1  0  0  0  0
 22 23  2  0  0  0  0
 22 43  1  0  0  0  0
 23 24  1  0  0  0  0
 23 44  1  0  0  0  0
M  CHG  1  18   1
M  END
> <s_m_source_file>
AV-unprocessed.smi

> <i_m_source_file_index>
2944

> <i_lp_mmshare_version>
43012

> <i_f3d_flags>
0

> <s_epik_input>
W2NIXTFbY0hdW2NIXVtjSF1jKGMxMiluKFtDSDJdW0NIMl1PW0NIM10pYyhuMilTW0NASF0oW0NIM10pQyg9TylOM1tDSDJdW0NIMl1bTkhdQzM9Tw==

> <s_epik_cmdline>
J2VwaWtfcHl0aG9uJywgJy1waCcsICc3LjAnLCAnLXRuJywgJzgnLCAnLW1hJywgJzIwMCcsICctbWV0YWxfYmluZGluZycsICctaW1hZScsICc8aW5maWxlLm1hZT4nLCAnLW9tYWUnLCAnPG91dGZpbGUubWFlPic=

> <r_lp_tautomer_probability>
0.9999

> <r_epik_Ionization_Penalty>
1.88808

> <r_epik_Ionization_Penalty_Charging>
1.88806

> <r_epik_Ionization_Penalty_Neutral>
2.68145e-05

> <r_epik_State_Penalty>
2.00836

> <r_epik_Charging_Adjusted_Penalty>
3.89641

> <i_epik_Tot_Q>
1

> <i_epik_Tot_abs_Q>
1

> <r_epik_Metal_State_Penalty>
2.03272

> <b_epik_Metal_Only>
0

> <s_lp_Force_Field>
OPLS_2005

> <r_lp_Energy>
44.4651

> <b_lp_Chiralities_Consistent>
1

> <s_lp_Variant>
AV-unprocessed.smi:2944-4

> <Gold.Version>
5.8.1

> <Gold.Id.Protein>
6NUR|6NUR_protein|mol2

> <Gold.PLP.Fitness>
54.0974

> <Gold.PLP.PLP>
-48.4795

> <Gold.PLP.part.hbond>
-1.9969

> <Gold.PLP.part.metal>
0.0000

> <Gold.PLP.part.buried>
-3.0493

> <Gold.PLP.part.nonpolar>
-44.5753

> <Gold.PLP.part.repulsive>
0.1955

> <Gold.PLP.ligand.clash>
0.0000

> <Gold.PLP.ligand.torsion>
1.2294

> <Gold.PLP.Chemscore.Hbond>
2.6320

> <Gold.PLP.Chemscore.CHOScore>
0.0000

> <Gold.PLP.Chemscore.Metal>
0.0000

> <Gold.Chemscore.Hbonds>
donor molecule, donor type, donor heavy atom, donor atom, acceptor molecule, acceptor atom, score
      L1  H    18    45       P1  8028  1.63
      P1  H  7997  8009       L1     2  1.00

> <Gold.PLP.Chemscore.Internal.Correction>
0.1807

> <Gold.Rescore>
     Score         DG    S(hbond)    S(metal)    S(lipo)     H(rot)  DE(clash)    DE(int)     intcor
     15.65     -18.89       1.73        0.00     115.61       2.30       0.02       3.22       ----

> <Gold.Chemscore.Fitness>
15.6463

> <Gold.Chemscore.DG>
-18.8877

> <Gold.Chemscore.ZeroCoef>
-5.4800

> <Gold.Chemscore.Hbond>
1.7265

> <Gold.Chemscore.Metal>
0.0000

> <Gold.Chemscore.Lipo>
115.6081

> <Gold.Chemscore.Internal_Hbond>
0.0000

> <Gold.Chemscore.DEClash>
0.0234

> <Gold.Chemscore.DEInternal>
3.2180

> <Gold.Chemscore.Rot>
2.2988

> <Gold.Chemscore.Internal.Correction>
   9.000000E+99

> <Gold.Chemscore.Hbonds>
donor molecule, donor type, donor heavy atom, donor atom, acceptor molecule, acceptor atom, score
      L1  H    18    45       P1  8028  0.81
      P1  H  7997  8009       L1     2  0.60

> <Gold.Chemscore.Hbond.Weighted>
-5.7666

> <Gold.Chemscore.Metal.Weighted>
-0.0000

> <Gold.Chemscore.Lipo.Weighted>
-13.5261

> <Gold.Chemscore.Internal_Hbond.Weighted>
0.0000

> <Gold.Chemscore.DEClash.Weighted>
0.0234

> <Gold.Chemscore.DEInternal.Weighted>
3.2180

> <Gold.Chemscore.Rot.Weighted>
5.8850

> <Gold.Chemscore.Internal.Correction.Weighted>
   9.000000E+99

> <Gold.Protein.RotatedTorsions>
[ 6907 6896 6895 6894 ] final   45.27 input  -60.11 | X-H torsion
[ 7974 7965 7964 7962 ] final   71.25 input  175.53 | X-H torsion
[ 8008 7997 7996 7995 ] final  124.38 input   59.86 | X-H torsion
[ 10167 10162 10161 10158 ] final -165.18 input  -65.29 | X-H torsion
[ 10718 10713 10712 10709 ] final   44.07 input   66.30 | X-H torsion
[ 10763 10752 10751 10750 ] final   99.02 input  -60.55 | X-H torsion
[ 11005 11000 10999 10996 ] final   99.40 input  -57.11 | X-H torsion

> <Gold.Protein.ActiveResidues>
 VAL166  LYS551  ARG553  GLY616  TRP617  ASP618  TYR619  PRO620  LYS621  CYS622 
 ASP623  PHE694  ASN695  SER759  ASP760  ASP761  ALA762  ILE779  LEU786  VAL792 
 PHE793  MET794  SER795  GLU796  ALA797  LYS798  CYS799  TRP800  GLU811  SER814 

> <Gold.Protein.RotatedAtoms>
  152.2426  134.8213  160.0457 H   0  0  0  0  0  0  0  0  0  0  0  0  # atno 6907 bound_to 6896
  151.8922  133.3513  159.3810 H   0  0  0  0  0  0  0  0  0  0  0  0  # atno 6908 bound_to 6896
  150.7058  134.4838  159.5527 H   0  0  0  0  0  0  0  0  0  0  0  0  # atno 6909 bound_to 6896
  145.7681  139.2830  143.1337 H   0  0  0  0  0  0  0  0  0  0  0  0  # atno 7974 bound_to 7965
  156.2799  140.2741  156.1779 H   0  0  0  0  0  0  0  0  0  0  0  0  # atno 8008 bound_to 7997
  155.0587  140.0386  157.2587 H   0  0  0  0  0  0  0  0  0  0  0  0  # atno 8009 bound_to 7997
  154.7135  140.2673  155.6613 H   0  0  0  0  0  0  0  0  0  0  0  0  # atno 8010 bound_to 7997
  139.6200  144.0644  152.1923 H   0  0  0  0  0  0  0  0  0  0  0  0  # atno 10167 bound_to 10162
  157.4228  130.7979  149.7531 H   0  0  0  0  0  0  0  0  0  0  0  0  # atno 10718 bound_to 10713
  153.2963  135.4128  155.1212 H   0  0  0  0  0  0  0  0  0  0  0  0  # atno 10763 bound_to 10752
  154.8536  135.3530  154.5913 H   0  0  0  0  0  0  0  0  0  0  0  0  # atno 10764 bound_to 10752
  153.6337  135.7060  153.5324 H   0  0  0  0  0  0  0  0  0  0  0  0  # atno 10765 bound_to 10752
  139.8771  134.9094  156.4600 H   0  0  0  0  0  0  0  0  0  0  0  0  # atno 11005 bound_to 11000
  146.0197  140.8359  142.9929 LP  0  0  0  0  0  0  0  0  0  0  0  0  # atno 17320 bound_to 7965
  144.6818  140.2611  143.7319 LP  0  0  0  0  0  0  0  0  0  0  0  0  # atno 17321 bound_to 7965
  140.0283  144.6100  150.7509 LP  0  0  0  0  0  0  0  0  0  0  0  0  # atno 17342 bound_to 10162
  140.7376  143.2767  151.3721 LP  0  0  0  0  0  0  0  0  0  0  0  0  # atno 17343 bound_to 10162
  155.9886  130.3958  150.3110 LP  0  0  0  0  0  0  0  0  0  0  0  0  # atno 17370 bound_to 10713
  157.1259  131.0259  151.2989 LP  0  0  0  0  0  0  0  0  0  0  0  0  # atno 17371 bound_to 10713
  140.8870  133.7876  155.9530 LP  0  0  0  0  0  0  0  0  0  0  0  0  # atno 17394 bound_to 11000
  140.8793  134.2630  157.5152 LP  0  0  0  0  0  0  0  0  0  0  0  0  # atno 17395 bound_to 11000

$$$$
