AV-unprocessed.smi:221|AV-procd|sdf|1701|dock6
  -GOLD-   2262020153D 1   1.00000     0.00000
 Structure written by MMmdl.
 50 53  0  0  0  0  0  0  0  0  1 V2000
  149.4434  135.1025  153.4722 N   0  0  0  0  0  0  0  0  0  0  0  0
  149.6513  133.8453  153.8791 C   0  0  0  0  0  0  0  0  0  0  0  0
  149.7605  132.9229  153.0742 O   0  0  0  0  0  0  0  0  0  0  0  0
  149.7373  133.5554  155.3911 C   0  0  1  0  0  0  0  0  0  0  0  0
  150.0446  132.0743  155.6884 C   0  0  0  0  0  0  0  0  0  0  0  0
  151.5514  132.0527  155.9172 C   0  0  2  0  0  0  0  0  0  0  0  0
  151.9472  130.9985  156.6302 F   0  0  0  0  0  0  0  0  0  0  0  0
  151.7845  133.3740  156.6401 C   0  0  0  0  0  0  0  0  0  0  0  0
  150.8235  134.2962  156.0480 N   0  0  0  0  0  0  0  0  0  0  0  0
  150.4847  135.3520  156.8192 C   0  0  0  0  0  0  0  0  0  0  0  0
  149.3506  135.3158  157.5665 N   0  0  0  0  0  0  0  0  0  0  0  0
  149.0255  136.3619  158.3326 C   0  0  0  0  0  0  0  0  0  0  0  0
  149.6799  137.5148  158.4942 N   0  0  0  0  0  0  0  0  0  0  0  0
  150.8202  137.5471  157.7456 C   0  0  0  0  0  0  0  0  0  0  0  0
  151.2931  136.5153  156.8886 C   0  0  0  0  0  0  0  0  0  0  0  0
  152.4839  136.8995  156.2862 N   0  0  0  0  0  0  0  0  0  0  0  0
  152.7024  138.0970  156.7584 C   0  0  0  0  0  0  0  0  0  0  0  0
  151.7508  138.5655  157.6366 N   0  0  0  0  0  0  0  0  0  0  0  0
  151.7498  139.8567  158.3030 C   0  0  0  0  0  0  0  0  0  0  0  0
  151.8456  141.0538  157.3232 C   0  0  1  0  0  0  0  0  0  0  0  0
  150.8558  140.8848  156.1413 C   0  0  0  0  0  0  0  0  0  0  0  0
  151.5196  140.5764  154.9343 O   0  0  0  0  0  0  0  0  0  0  0  0
  151.6333  142.3945  158.0811 C   0  0  1  0  0  0  0  0  0  0  0  0
  152.5954  142.6395  159.2327 C   0  0  0  0  0  0  0  0  0  0  0  0
  152.4643  144.1410  159.4625 C   0  0  0  0  0  0  0  0  0  0  0  0
  152.1673  144.7018  158.1899 O   0  0  0  0  0  0  0  0  0  0  0  0
  151.8780  143.6651  157.2582 C   0  0  0  0  0  0  0  0  0  0  0  0
  148.7621  133.8074  155.8111 H   0  0  0  0  0  0  0  0  0  0  0  0
  152.0830  132.0336  154.9646 H   0  0  0  0  0  0  0  0  0  0  0  0
  149.3805  135.3066  152.4855 H   0  0  0  0  0  0  0  0  0  0  0  0
  149.3458  135.8421  154.1533 H   0  0  0  0  0  0  0  0  0  0  0  0
  149.5296  131.7758  156.6026 H   0  0  0  0  0  0  0  0  0  0  0  0
  149.7332  131.3856  154.9018 H   0  0  0  0  0  0  0  0  0  0  0  0
  151.6020  133.2593  157.7106 H   0  0  0  0  0  0  0  0  0  0  0  0
  152.8067  133.7303  156.5084 H   0  0  0  0  0  0  0  0  0  0  0  0
  148.1099  136.2610  158.8964 H   0  0  0  0  0  0  0  0  0  0  0  0
  153.5675  138.6787  156.4747 H   0  0  0  0  0  0  0  0  0  0  0  0
  150.8479  139.9390  158.9105 H   0  0  0  0  0  0  0  0  0  0  0  0
  152.5897  139.8540  158.9973 H   0  0  0  0  0  0  0  0  0  0  0  0
  152.8578  141.0508  156.9147 H   0  0  0  0  0  0  0  0  0  0  0  0
  150.1591  140.0663  156.3150 H   0  0  0  0  0  0  0  0  0  0  0  0
  150.2537  141.7844  156.0095 H   0  0  0  0  0  0  0  0  0  0  0  0
  151.1435  139.7857  154.5782 H   0  0  0  0  0  0  0  0  0  0  0  0
  150.6158  142.4284  158.4738 H   0  0  0  0  0  0  0  0  0  0  0  0
  152.3544  142.0666  160.1286 H   0  0  0  0  0  0  0  0  0  0  0  0
  153.6161  142.3955  158.9343 H   0  0  0  0  0  0  0  0  0  0  0  0
  151.6339  144.3529  160.1372 H   0  0  0  0  0  0  0  0  0  0  0  0
  153.3678  144.5769  159.8895 H   0  0  0  0  0  0  0  0  0  0  0  0
  152.7444  143.5426  156.6069 H   0  0  0  0  0  0  0  0  0  0  0  0
  151.0226  143.9343  156.6384 H   0  0  0  0  0  0  0  0  0  0  0  0
  1  2  1  0  0  0  0
  1 30  1  0  0  0  0
  1 31  1  0  0  0  0
  2  3  2  0  0  0  0
  2  4  1  0  0  0  0
  4 28  1  0  0  0  0
  4  9  1  0  0  0  0
  4  5  1  0  0  0  0
  5  6  1  0  0  0  0
  5 32  1  0  0  0  0
  5 33  1  0  0  0  0
  6 29  1  0  0  0  0
  6  7  1  0  0  0  0
  6  8  1  0  0  0  0
  8  9  1  0  0  0  0
  8 34  1  0  0  0  0
  8 35  1  0  0  0  0
  9 10  1  0  0  0  0
 10 15  1  0  0  0  0
 10 11  2  0  0  0  0
 11 12  1  0  0  0  0
 12 13  2  0  0  0  0
 12 36  1  0  0  0  0
 13 14  1  0  0  0  0
 14 18  1  0  0  0  0
 14 15  2  0  0  0  0
 15 16  1  0  0  0  0
 16 17  2  0  0  0  0
 17 18  1  0  0  0  0
 17 37  1  0  0  0  0
 18 19  1  0  0  0  0
 19 20  1  0  0  0  0
 19 38  1  0  0  0  0
 19 39  1  0  0  0  0
 20 21  1  0  0  0  0
 20 23  1  0  0  0  0
 20 40  1  0  0  0  0
 21 22  1  0  0  0  0
 21 41  1  0  0  0  0
 21 42  1  0  0  0  0
 22 43  1  0  0  0  0
 23 27  1  0  0  0  0
 23 24  1  0  0  0  0
 23 44  1  0  0  0  0
 24 25  1  0  0  0  0
 24 45  1  0  0  0  0
 24 46  1  0  0  0  0
 25 26  1  0  0  0  0
 25 47  1  0  0  0  0
 25 48  1  0  0  0  0
 26 27  1  0  0  0  0
 27 49  1  0  0  0  0
 27 50  1  0  0  0  0
M  END
> <s_m_source_file>
AV-unprocessed.smi

> <i_m_source_file_index>
221

> <i_lp_mmshare_version>
43012

> <i_f3d_flags>
0

> <s_epik_input>
W05IMl1DKD1PKVtDQEBIXTFbQ0gyXVtDQEBIXShGKVtDSDJdTjFjKG5bY0hdbjIpYyhjMjMpbltjSF1uM1tDSDJdW0NASF0oW0NIMl1bT0hdKVtDQEBIXTRbQ0gyXVtDSDJdT1tDSDJdNA==

> <s_epik_cmdline>
J2VwaWtfcHl0aG9uJywgJy1waCcsICc3LjAnLCAnLXRuJywgJzgnLCAnLW1hJywgJzIwMCcsICctbWV0YWxfYmluZGluZycsICctaW1hZScsICc8aW5maWxlLm1hZT4nLCAnLW9tYWUnLCAnPG91dGZpbGUubWFlPic=

> <r_lp_tautomer_probability>
1

> <r_epik_Ionization_Penalty>
0.000818822

> <r_epik_Ionization_Penalty_Charging>
0

> <r_epik_Ionization_Penalty_Neutral>
0.000818822

> <r_epik_State_Penalty>
0.000440551

> <r_epik_Charging_Adjusted_Penalty>
0.000440551

> <i_epik_Tot_Q>
0

> <i_epik_Tot_abs_Q>
0

> <r_epik_Metal_State_Penalty>
-0

> <b_epik_Metal_Only>
0

> <s_lp_Force_Field>
OPLS_2005

> <r_lp_Energy>
50.9528

> <b_lp_Chiralities_Consistent>
1

> <s_lp_Variant>
AV-unprocessed.smi:221-16

> <Gold.Version>
5.8.1

> <Gold.Id.Protein>
6NUR|6NUR_protein|mol2

> <Gold.PLP.Fitness>
42.6918

> <Gold.PLP.PLP>
-38.0129

> <Gold.PLP.part.hbond>
-3.5848

> <Gold.PLP.part.metal>
0.0000

> <Gold.PLP.part.buried>
-6.1390

> <Gold.PLP.part.nonpolar>
-28.3236

> <Gold.PLP.part.repulsive>
0.2552

> <Gold.PLP.ligand.clash>
0.0000

> <Gold.PLP.ligand.torsion>
1.4753

> <Gold.PLP.Chemscore.Hbond>
2.3953

> <Gold.PLP.Chemscore.CHOScore>
0.0000

> <Gold.PLP.Chemscore.Metal>
0.0000

> <Gold.Chemscore.Hbonds>
donor molecule, donor type, donor heavy atom, donor atom, acceptor molecule, acceptor atom, score
      P1  H  7989  7998       L1    22  0.04
      P1  H 10752 10765       L1    16  0.86

> <Gold.PLP.Chemscore.Internal.Correction>
0.4438

> <Gold.Rescore>
     Score         DG    S(hbond)    S(metal)    S(lipo)     H(rot)  DE(clash)    DE(int)     intcor
     10.13     -11.73       1.73        0.00      85.40       3.72       0.11       1.49       ----

> <Gold.Chemscore.Fitness>
10.1306

> <Gold.Chemscore.DG>
-11.7269

> <Gold.Chemscore.ZeroCoef>
-5.4800

> <Gold.Chemscore.Hbond>
1.7303

> <Gold.Chemscore.Metal>
0.0000

> <Gold.Chemscore.Lipo>
85.3965

> <Gold.Chemscore.Internal_Hbond>
0.0000

> <Gold.Chemscore.DEClash>
0.1070

> <Gold.Chemscore.DEInternal>
1.4892

> <Gold.Chemscore.Rot>
3.7202

> <Gold.Chemscore.Internal.Correction>
   9.000000E+99

> <Gold.Chemscore.Hbonds>
donor molecule, donor type, donor heavy atom, donor atom, acceptor molecule, acceptor atom, score
      P1  H 10752 10765       L1    16  0.63

> <Gold.Chemscore.Hbond.Weighted>
-5.7792

> <Gold.Chemscore.Metal.Weighted>
-0.0000

> <Gold.Chemscore.Lipo.Weighted>
-9.9914

> <Gold.Chemscore.Internal_Hbond.Weighted>
0.0000

> <Gold.Chemscore.DEClash.Weighted>
0.1070

> <Gold.Chemscore.DEInternal.Weighted>
1.4892

> <Gold.Chemscore.Rot.Weighted>
9.5237

> <Gold.Chemscore.Internal.Correction.Weighted>
   9.000000E+99

> <Gold.Protein.RotatedTorsions>
[ 6907 6896 6895 6894 ] final  -48.06 input  -60.11 | X-H torsion
[ 7974 7965 7964 7962 ] final  165.86 input  175.53 | X-H torsion
[ 8008 7997 7996 7995 ] final   75.72 input   59.86 | X-H torsion
[ 10167 10162 10161 10158 ] final   89.07 input  -65.29 | X-H torsion
[ 10718 10713 10712 10709 ] final  -36.31 input   66.30 | X-H torsion
[ 10763 10752 10751 10750 ] final -161.55 input  -60.55 | X-H torsion
[ 11005 11000 10999 10996 ] final   57.89 input  -57.11 | X-H torsion

> <Gold.Protein.ActiveResidues>
 VAL166  LYS551  ARG553  GLY616  TRP617  ASP618  TYR619  PRO620  LYS621  CYS622 
 ASP623  PHE694  ASN695  SER759  ASP760  ASP761  ALA762  ILE779  LEU786  VAL792 
 PHE793  MET794  SER795  GLU796  ALA797  LYS798  CYS799  TRP800  GLU811  SER814 

> <Gold.Protein.RotatedAtoms>
  150.8944  134.8351  159.7315 H   0  0  0  0  0  0  0  0  0  0  0  0  # atno 6907 bound_to 6896
  152.4856  134.4599  159.9611 H   0  0  0  0  0  0  0  0  0  0  0  0  # atno 6908 bound_to 6896
  151.4658  133.3542  159.2851 H   0  0  0  0  0  0  0  0  0  0  0  0  # atno 6909 bound_to 6896
  144.7485  139.8532  143.6374 H   0  0  0  0  0  0  0  0  0  0  0  0  # atno 7974 bound_to 7965
  155.8170  140.3471  155.5491 H   0  0  0  0  0  0  0  0  0  0  0  0  # atno 8008 bound_to 7997
  155.8382  140.0937  157.1771 H   0  0  0  0  0  0  0  0  0  0  0  0  # atno 8009 bound_to 7997
  154.4004  140.1399  156.3683 H   0  0  0  0  0  0  0  0  0  0  0  0  # atno 8010 bound_to 7997
  139.8610  144.6544  150.9059 H   0  0  0  0  0  0  0  0  0  0  0  0  # atno 10167 bound_to 10162
  156.3284  130.4275  149.7895 H   0  0  0  0  0  0  0  0  0  0  0  0  # atno 10718 bound_to 10713
  154.7293  135.3043  154.8918 H   0  0  0  0  0  0  0  0  0  0  0  0  # atno 10763 bound_to 10752
  153.9766  135.6735  153.4753 H   0  0  0  0  0  0  0  0  0  0  0  0  # atno 10764 bound_to 10752
  153.0904  135.4962  154.8598 H   0  0  0  0  0  0  0  0  0  0  0  0  # atno 10765 bound_to 10752
  140.0418  134.5862  155.9372 H   0  0  0  0  0  0  0  0  0  0  0  0  # atno 11005 bound_to 11000
  146.1401  139.4456  143.0114 LP  0  0  0  0  0  0  0  0  0  0  0  0  # atno 17320 bound_to 7965
  145.7031  141.0130  143.1494 LP  0  0  0  0  0  0  0  0  0  0  0  0  # atno 17321 bound_to 7965
  140.7775  143.3744  151.1589 LP  0  0  0  0  0  0  0  0  0  0  0  0  # atno 17342 bound_to 10162
  139.7374  143.8978  152.3039 LP  0  0  0  0  0  0  0  0  0  0  0  0  # atno 17343 bound_to 10162
  156.5177  130.8201  151.3192 LP  0  0  0  0  0  0  0  0  0  0  0  0  # atno 17370 bound_to 10713
  157.7425  130.9893  150.2525 LP  0  0  0  0  0  0  0  0  0  0  0  0  # atno 17371 bound_to 10713
  141.1887  133.6563  156.5336 LP  0  0  0  0  0  0  0  0  0  0  0  0  # atno 17394 bound_to 11000
  140.4056  134.7318  157.4806 LP  0  0  0  0  0  0  0  0  0  0  0  0  # atno 17395 bound_to 11000

$$$$
