AV-unprocessed.smi:12|AV-procd|sdf|67|dock4
  -GOLD-   2262015183D 1   1.00000     0.00000
 Structure written by MMmdl.
 41 44  0  0  0  0  0  0  0  0  1 V2000
  152.4999  143.7359  161.7300 C   0  0  0  0  0  0  0  0  0  0  0  0
  152.5712  142.6605  160.6609 C   0  0  0  0  0  0  0  0  0  0  0  0
  151.7660  142.6834  159.5726 C   0  0  0  0  0  0  0  0  0  0  0  0
  151.8670  141.6870  158.6423 N   0  0  0  0  0  0  0  0  0  0  0  0
  152.8129  140.6576  158.8208 C   0  0  0  0  0  0  0  0  0  0  0  0
  153.6178  140.5632  159.8330 N   0  0  0  0  0  0  0  0  0  0  0  0
  153.5521  141.5585  160.8269 C   0  0  0  0  0  0  0  0  0  0  0  0
  154.2939  141.5119  161.8073 O   0  0  0  0  0  0  0  0  0  0  0  0
  152.7357  139.8067  157.7626 O   0  0  0  0  0  0  0  0  0  0  0  0
  151.7778  140.2875  156.8030 C   0  0  1  0  0  0  0  0  0  0  0  0
  150.5983  139.3390  156.6367 C   0  0  1  0  0  0  0  0  0  0  0  0
  151.0015  137.9842  156.6286 O   0  0  0  0  0  0  0  0  0  0  0  0
  149.6793  139.7357  157.7918 C   0  0  2  0  0  0  0  0  0  0  0  0
  148.2124  139.3251  157.6111 C   0  0  0  0  0  0  0  0  0  0  0  0
  147.5636  140.2516  156.7550 O   0  0  0  0  0  0  0  0  0  0  0  0
  146.8853  141.2928  157.2750 C   0  0  0  0  0  0  0  0  0  0  0  0
  146.7318  141.4711  158.4849 O   0  0  0  0  0  0  0  0  0  0  0  0
  146.3396  142.2081  156.2311 C   0  0  0  0  0  0  0  0  0  0  0  0
  146.7761  142.0709  154.8925 C   0  0  0  0  0  0  0  0  0  0  0  0
  146.2786  142.9201  153.8850 C   0  0  0  0  0  0  0  0  0  0  0  0
  145.3380  143.9166  154.2037 C   0  0  0  0  0  0  0  0  0  0  0  0
  144.8955  144.0633  155.5312 C   0  0  0  0  0  0  0  0  0  0  0  0
  145.3920  143.2153  156.5405 C   0  0  0  0  0  0  0  0  0  0  0  0
  149.7862  141.1563  157.7590 O   0  0  0  0  0  0  0  0  0  0  0  0
  151.0896  141.5302  157.4105 C   0  0  1  0  0  0  0  0  0  0  0  0
  151.7449  144.4853  161.4900 H   0  0  0  0  0  0  0  0  0  0  0  0
  153.4601  144.2438  161.8251 H   0  0  0  0  0  0  0  0  0  0  0  0
  152.2447  143.2964  162.6949 H   0  0  0  0  0  0  0  0  0  0  0  0
  151.0424  143.4731  159.4311 H   0  0  0  0  0  0  0  0  0  0  0  0
  152.2652  140.5324  155.8586 H   0  0  0  0  0  0  0  0  0  0  0  0
  150.0998  139.5567  155.6909 H   0  0  0  0  0  0  0  0  0  0  0  0
  151.2982  137.7538  157.4959 H   0  0  0  0  0  0  0  0  0  0  0  0
  150.0671  139.3723  158.7453 H   0  0  0  0  0  0  0  0  0  0  0  0
  148.1584  138.3296  157.1687 H   0  0  0  0  0  0  0  0  0  0  0  0
  147.7077  139.2827  158.5773 H   0  0  0  0  0  0  0  0  0  0  0  0
  147.4977  141.3130  154.6236 H   0  0  0  0  0  0  0  0  0  0  0  0
  146.6196  142.8063  152.8666 H   0  0  0  0  0  0  0  0  0  0  0  0
  144.9566  144.5675  153.4307 H   0  0  0  0  0  0  0  0  0  0  0  0
  144.1735  144.8280  155.7769 H   0  0  0  0  0  0  0  0  0  0  0  0
  145.0306  143.3557  157.5489 H   0  0  0  0  0  0  0  0  0  0  0  0
  151.1853  142.4671  156.8610 H   0  0  0  0  0  0  0  0  0  0  0  0
  1  2  1  0  0  0  0
  1 26  1  0  0  0  0
  1 27  1  0  0  0  0
  1 28  1  0  0  0  0
  2  7  1  0  0  0  0
  2  3  2  0  0  0  0
  3  4  1  0  0  0  0
  3 29  1  0  0  0  0
  4 25  1  0  0  0  0
  4  5  1  0  0  0  0
  5  6  2  0  0  0  0
  5  9  1  0  0  0  0
  6  7  1  0  0  0  0
  7  8  2  0  0  0  0
  9 10  1  0  0  0  0
 10 25  1  0  0  0  0
 10 11  1  0  0  0  0
 10 30  1  0  0  0  0
 11 12  1  0  0  0  0
 11 13  1  0  0  0  0
 11 31  1  0  0  0  0
 12 32  1  0  0  0  0
 13 14  1  0  0  0  0
 13 24  1  0  0  0  0
 13 33  1  0  0  0  0
 14 15  1  0  0  0  0
 14 34  1  0  0  0  0
 14 35  1  0  0  0  0
 15 16  1  0  0  0  0
 16 17  2  0  0  0  0
 16 18  1  0  0  0  0
 18 23  1  0  0  0  0
 18 19  2  0  0  0  0
 19 20  1  0  0  0  0
 19 36  1  0  0  0  0
 20 21  2  0  0  0  0
 20 37  1  0  0  0  0
 21 22  1  0  0  0  0
 21 38  1  0  0  0  0
 22 23  2  0  0  0  0
 22 39  1  0  0  0  0
 23 40  1  0  0  0  0
 24 25  1  0  0  0  0
 25 41  1  0  0  0  0
M  END
> <s_m_source_file>
AV-unprocessed.smi

> <i_m_source_file_index>
12

> <i_lp_mmshare_version>
43012

> <i_f3d_flags>
0

> <s_epik_input>
W0NIM11jKFtjSF0xKWMoPU8pbmMobjEyKU9bQ0BIXTNbQ0BASF0yT1tDQEBIXShbQ0BASF0zW09IXSlbQ0gyXU9DKD1PKWM0W2NIXVtjSF1bY0hdW2NIXVtjSF00

> <s_epik_cmdline>
J2VwaWtfcHl0aG9uJywgJy1waCcsICc3LjAnLCAnLXRuJywgJzgnLCAnLW1hJywgJzIwMCcsICctbWV0YWxfYmluZGluZycsICctaW1hZScsICc8aW5maWxlLm1hZT4nLCAnLW9tYWUnLCAnPG91dGZpbGUubWFlPic=

> <r_lp_tautomer_probability>
0.933681

> <r_epik_Ionization_Penalty>
0.00399549

> <r_epik_Ionization_Penalty_Charging>
3.09373e-09

> <r_epik_Ionization_Penalty_Neutral>
0.00399549

> <r_epik_State_Penalty>
0.00284953

> <r_epik_Charging_Adjusted_Penalty>
0.00284953

> <i_epik_Tot_Q>
0

> <i_epik_Tot_abs_Q>
0

> <r_epik_Metal_State_Penalty>
-0

> <b_epik_Metal_Only>
0

> <s_epik_Chemistry_Notes>
This compound has an ester and may undergo hydrolysis at high or low pH. This compound contains an acetal/aminal-like group ( X-CH(R)-Y where X, Y are N, S, or O) that may be acid/base labile, releasing an aldehyde.

> <s_lp_Force_Field>
OPLS_2005

> <r_lp_Energy>
46.3609

> <b_lp_Chiralities_Consistent>
1

> <s_lp_Variant>
AV-unprocessed.smi:12-7

> <Gold.Version>
5.8.1

> <Gold.Id.Protein>
6NUR|6NUR_protein|mol2

> <Gold.PLP.Fitness>
45.0763

> <Gold.PLP.PLP>
-42.6706

> <Gold.PLP.part.hbond>
-3.0000

> <Gold.PLP.part.metal>
0.0000

> <Gold.PLP.part.buried>
-7.2788

> <Gold.PLP.part.nonpolar>
-32.2135

> <Gold.PLP.part.repulsive>
0.0332

> <Gold.PLP.ligand.clash>
0.0000

> <Gold.PLP.ligand.torsion>
0.5585

> <Gold.PLP.Chemscore.Hbond>
1.1685

> <Gold.PLP.Chemscore.CHOScore>
0.0000

> <Gold.PLP.Chemscore.Metal>
0.0000

> <Gold.Chemscore.Hbonds>
donor molecule, donor type, donor heavy atom, donor atom, acceptor molecule, acceptor atom, score
      P1  H  6934  6946       L1    17  0.17
      P1  H  7997  8010       L1     9  0.84

> <Gold.PLP.Chemscore.Internal.Correction>
0.0173

> <Gold.Rescore>
     Score         DG    S(hbond)    S(metal)    S(lipo)     H(rot)  DE(clash)    DE(int)     intcor
      8.28     -10.15       0.49        0.00      73.63       2.18       0.29       1.59       ----

> <Gold.Chemscore.Fitness>
8.2758

> <Gold.Chemscore.DG>
-10.1541

> <Gold.Chemscore.ZeroCoef>
-5.4800

> <Gold.Chemscore.Hbond>
0.4909

> <Gold.Chemscore.Metal>
0.0000

> <Gold.Chemscore.Lipo>
73.6336

> <Gold.Chemscore.Internal_Hbond>
0.0000

> <Gold.Chemscore.DEClash>
0.2865

> <Gold.Chemscore.DEInternal>
1.5918

> <Gold.Chemscore.Rot>
2.1800

> <Gold.Chemscore.Internal.Correction>
   9.000000E+99

> <Gold.Chemscore.Hbonds>
donor molecule, donor type, donor heavy atom, donor atom, acceptor molecule, acceptor atom, score
      P1  H  6934  6946       L1    17  0.18
      P1  H  7997  8010       L1     9  0.12

> <Gold.Chemscore.Hbond.Weighted>
-1.6397

> <Gold.Chemscore.Metal.Weighted>
-0.0000

> <Gold.Chemscore.Lipo.Weighted>
-8.6151

> <Gold.Chemscore.Internal_Hbond.Weighted>
0.0000

> <Gold.Chemscore.DEClash.Weighted>
0.2865

> <Gold.Chemscore.DEInternal.Weighted>
1.5918

> <Gold.Chemscore.Rot.Weighted>
5.5807

> <Gold.Chemscore.Internal.Correction.Weighted>
   9.000000E+99

> <Gold.Protein.RotatedTorsions>
[ 6907 6896 6895 6894 ] final  -38.14 input  -60.11 | X-H torsion
[ 7974 7965 7964 7962 ] final -139.26 input  175.53 | X-H torsion
[ 8008 7997 7996 7995 ] final   29.48 input   59.86 | X-H torsion
[ 10167 10162 10161 10158 ] final  178.21 input  -65.29 | X-H torsion
[ 10718 10713 10712 10709 ] final  176.16 input   66.30 | X-H torsion
[ 10763 10752 10751 10750 ] final  107.28 input  -60.55 | X-H torsion
[ 11005 11000 10999 10996 ] final  145.23 input  -57.11 | X-H torsion

> <Gold.Protein.ActiveResidues>
 VAL166  LYS551  ARG553  GLY616  TRP617  ASP618  TYR619  PRO620  LYS621  CYS622 
 ASP623  PHE694  ASN695  SER759  ASP760  ASP761  ALA762  ILE779  LEU786  VAL792 
 PHE793  MET794  SER795  GLU796  ALA797  LYS798  CYS799  TRP800  GLU811  SER814 

> <Gold.Protein.RotatedAtoms>
  151.0061  134.9360  159.7980 H   0  0  0  0  0  0  0  0  0  0  0  0  # atno 6907 bound_to 6896
  152.5290  134.3090  159.9116 H   0  0  0  0  0  0  0  0  0  0  0  0  # atno 6908 bound_to 6896
  151.3096  133.4045  159.2680 H   0  0  0  0  0  0  0  0  0  0  0  0  # atno 6909 bound_to 6896
  144.8691  140.6339  143.5278 H   0  0  0  0  0  0  0  0  0  0  0  0  # atno 7974 bound_to 7965
  155.0752  140.3204  155.4618 H   0  0  0  0  0  0  0  0  0  0  0  0  # atno 8008 bound_to 7997
  156.2781  140.2105  156.5825 H   0  0  0  0  0  0  0  0  0  0  0  0  # atno 8009 bound_to 7997
  154.7023  140.0506  157.0457 H   0  0  0  0  0  0  0  0  0  0  0  0  # atno 8010 bound_to 7997
  139.5285  144.2706  152.0631 H   0  0  0  0  0  0  0  0  0  0  0  0  # atno 10167 bound_to 10162
  156.9242  130.9950  151.2999 H   0  0  0  0  0  0  0  0  0  0  0  0  # atno 10718 bound_to 10713
  153.4045  135.3849  155.2009 H   0  0  0  0  0  0  0  0  0  0  0  0  # atno 10763 bound_to 10752
  154.8732  135.3779  154.4577 H   0  0  0  0  0  0  0  0  0  0  0  0  # atno 10764 bound_to 10752
  153.5078  135.7087  153.5859 H   0  0  0  0  0  0  0  0  0  0  0  0  # atno 10765 bound_to 10752
  140.0696  134.9159  157.1322 H   0  0  0  0  0  0  0  0  0  0  0  0  # atno 11005 bound_to 11000
  145.4164  139.1571  143.4098 LP  0  0  0  0  0  0  0  0  0  0  0  0  # atno 17320 bound_to 7965
  146.2917  140.4271  142.8737 LP  0  0  0  0  0  0  0  0  0  0  0  0  # atno 17321 bound_to 7965
  140.2166  144.4508  150.6361 LP  0  0  0  0  0  0  0  0  0  0  0  0  # atno 17342 bound_to 10162
  140.6446  143.2210  151.6215 LP  0  0  0  0  0  0  0  0  0  0  0  0  # atno 17343 bound_to 10162
  157.5888  130.8429  149.8629 LP  0  0  0  0  0  0  0  0  0  0  0  0  # atno 17370 bound_to 10713
  156.0477  130.3724  150.1277 LP  0  0  0  0  0  0  0  0  0  0  0  0  # atno 17371 bound_to 10713
  140.3647  134.2455  155.7183 LP  0  0  0  0  0  0  0  0  0  0  0  0  # atno 17394 bound_to 11000
  141.2006  133.7982  157.0479 LP  0  0  0  0  0  0  0  0  0  0  0  0  # atno 17395 bound_to 11000

$$$$
