AV-unprocessed.smi:1198|AV-procd|sdf|5011|dock10
  -GOLD-   22720 4 23D 1   1.00000     0.00000
 Structure written by MMmdl.
 40 41  0  0  0  0  0  0  0  0  2 V2000
  150.6409  142.3954  157.4146 C   0  0  0  0  0  0  0  0  0  0  0  0
  151.2851  141.6732  156.3707 O   0  0  0  0  0  0  0  0  0  0  0  0
  150.5308  140.7951  155.6200 C   0  0  0  0  0  0  0  0  0  0  0  0
  149.1270  140.8906  155.6791 C   0  0  0  0  0  0  0  0  0  0  0  0
  148.3546  139.9972  154.9136 C   0  0  0  0  0  0  0  0  0  0  0  0
  149.0014  139.0359  154.1106 C   0  0  0  0  0  0  0  0  0  0  0  0
  148.1794  138.1516  153.3575 N   0  0  0  0  0  0  0  0  0  0  0  0
  146.8389  138.0893  153.2759 C   0  0  0  0  0  0  0  0  0  0  0  0
  146.0481  138.8245  153.8653 O   0  0  0  0  0  0  0  0  0  0  0  0
  146.4521  137.0960  152.4622 N   0  0  0  0  0  0  0  0  0  0  0  0
  145.0691  136.7523  152.1437 C   0  0  0  0  0  0  0  0  0  0  0  0
  144.8864  135.2413  151.9018 C   0  0  1  0  0  0  0  0  0  0  0  0
  143.7481  134.5841  152.6833 C   0  0  0  0  0  0  0  0  0  0  0  0
  143.4930  133.3057  151.8911 C   0  0  0  0  0  0  0  0  0  0  0  0
  143.7018  133.6776  150.4759 N   0  3  2  0  0  0  0  0  0  0  0  0
  144.1731  132.5682  149.6208 C   0  0  0  0  0  0  0  0  0  0  0  0
  144.5588  134.8867  150.4433 C   0  0  0  0  0  0  0  0  0  0  0  0
  150.4186  139.0179  154.1242 C   0  0  0  0  0  0  0  0  0  0  0  0
  151.1649  139.8727  154.8555 N   0  0  0  0  0  0  0  0  0  0  0  0
  151.3677  143.0401  157.9086 H   0  0  0  0  0  0  0  0  0  0  0  0
  150.2281  141.7237  158.1688 H   0  0  0  0  0  0  0  0  0  0  0  0
  149.8442  143.0320  157.0268 H   0  0  0  0  0  0  0  0  0  0  0  0
  148.6513  141.6352  156.3001 H   0  0  0  0  0  0  0  0  0  0  0  0
  147.2760  140.0531  154.9445 H   0  0  0  0  0  0  0  0  0  0  0  0
  148.6819  137.4591  152.8217 H   0  0  0  0  0  0  0  0  0  0  0  0
  147.1702  136.5403  152.0205 H   0  0  0  0  0  0  0  0  0  0  0  0
  144.3939  137.1012  152.9271 H   0  0  0  0  0  0  0  0  0  0  0  0
  144.7942  137.2996  151.2418 H   0  0  0  0  0  0  0  0  0  0  0  0
  145.8126  134.7289  152.1684 H   0  0  0  0  0  0  0  0  0  0  0  0
  144.0027  134.3887  153.7255 H   0  0  0  0  0  0  0  0  0  0  0  0
  142.8590  135.2163  152.6642 H   0  0  0  0  0  0  0  0  0  0  0  0
  144.2179  132.5456  152.1879 H   0  0  0  0  0  0  0  0  0  0  0  0
  142.4944  132.9006  152.0568 H   0  0  0  0  0  0  0  0  0  0  0  0
  145.1481  132.2054  149.9490 H   0  0  0  0  0  0  0  0  0  0  0  0
  144.2597  132.8961  148.5846 H   0  0  0  0  0  0  0  0  0  0  0  0
  143.4682  131.7367  149.6537 H   0  0  0  0  0  0  0  0  0  0  0  0
  143.9901  135.6849  149.9648 H   0  0  0  0  0  0  0  0  0  0  0  0
  145.4692  134.7398  149.8599 H   0  0  0  0  0  0  0  0  0  0  0  0
  150.9970  138.3113  153.5522 H   0  0  0  0  0  0  0  0  0  0  0  0
  142.8016  133.9663  150.1197 H   0  0  0  0  0  0  0  0  0  0  0  0
  1  2  1  0  0  0  0
  1 20  1  0  0  0  0
  1 21  1  0  0  0  0
  1 22  1  0  0  0  0
  2  3  1  0  0  0  0
  3 19  1  0  0  0  0
  3  4  2  0  0  0  0
  4  5  1  0  0  0  0
  4 23  1  0  0  0  0
  5  6  2  0  0  0  0
  5 24  1  0  0  0  0
  6  7  1  0  0  0  0
  6 18  1  0  0  0  0
  7  8  1  0  0  0  0
  7 25  1  0  0  0  0
  8  9  2  0  0  0  0
  8 10  1  0  0  0  0
 10 11  1  0  0  0  0
 10 26  1  0  0  0  0
 11 12  1  0  0  0  0
 11 27  1  0  0  0  0
 11 28  1  0  0  0  0
 12 17  1  0  0  0  0
 12 13  1  0  0  0  0
 12 29  1  0  0  0  0
 13 14  1  0  0  0  0
 13 30  1  0  0  0  0
 13 31  1  0  0  0  0
 14 15  1  0  0  0  0
 14 32  1  0  0  0  0
 14 33  1  0  0  0  0
 15 16  1  0  0  0  0
 15 17  1  0  0  0  0
 15 40  1  0  0  0  0
 16 34  1  0  0  0  0
 16 35  1  0  0  0  0
 16 36  1  0  0  0  0
 17 37  1  0  0  0  0
 17 38  1  0  0  0  0
 18 19  2  0  0  0  0
 18 39  1  0  0  0  0
M  CHG  1  15   1
M  END
> <s_m_source_file>
AV-unprocessed.smi

> <i_m_source_file_index>
1198

> <i_lp_mmshare_version>
43012

> <i_f3d_flags>
0

> <s_epik_input>
W0NIM11PYzFbY0hdW2NIXWMoW2NIXW4xKVtOSF1DKD1PKVtOSF1bQ0gyXVtDQEBIXTJbQ0gyXVtDSDJdTihbQ0gzXSlbQ0gyXTI=

> <s_epik_cmdline>
J2VwaWtfcHl0aG9uJywgJy1waCcsICc3LjAnLCAnLXRuJywgJzgnLCAnLW1hJywgJzIwMCcsICctbWV0YWxfYmluZGluZycsICctaW1hZScsICc8aW5maWxlLm1hZT4nLCAnLW9tYWUnLCAnPG91dGZpbGUubWFlPic=

> <r_lp_tautomer_probability>
1

> <r_epik_Ionization_Penalty>
0.00131396

> <r_epik_Ionization_Penalty_Charging>
0.0012301

> <r_epik_Ionization_Penalty_Neutral>
8.38549e-05

> <r_epik_State_Penalty>
0.00081314

> <r_epik_Charging_Adjusted_Penalty>
0.00204324

> <i_epik_Tot_Q>
1

> <i_epik_Tot_abs_Q>
1

> <r_epik_Metal_State_Penalty>
-0

> <b_epik_Metal_Only>
0

> <s_lp_Force_Field>
OPLS_2005

> <r_lp_Energy>
29.7758

> <b_lp_Chiralities_Consistent>
1

> <s_lp_Variant>
AV-unprocessed.smi:1198-2

> <Gold.Version>
5.8.1

> <Gold.Id.Protein>
6NUR|6NUR_protein|mol2

> <Gold.PLP.Fitness>
43.5391

> <Gold.PLP.PLP>
-31.8001

> <Gold.PLP.part.hbond>
-4.5336

> <Gold.PLP.part.metal>
0.0000

> <Gold.PLP.part.buried>
-0.8362

> <Gold.PLP.part.nonpolar>
-26.1017

> <Gold.PLP.part.repulsive>
0.3838

> <Gold.PLP.ligand.clash>
0.0000

> <Gold.PLP.ligand.torsion>
1.0981

> <Gold.PLP.Chemscore.Hbond>
4.6440

> <Gold.PLP.Chemscore.CHOScore>
0.0000

> <Gold.PLP.Chemscore.Metal>
0.0000

> <Gold.Chemscore.Hbonds>
donor molecule, donor type, donor heavy atom, donor atom, acceptor molecule, acceptor atom, score
      L1  H     7    25       P1  7948  1.00
      L1  H    10    26       P1  7948  0.94
      L1  H    15    40       P1 10186  2.00
      P1  H  7989  7998       L1    19  0.75

> <Gold.PLP.Chemscore.Internal.Correction>
0.0032

> <Gold.Rescore>
     Score         DG    S(hbond)    S(metal)    S(lipo)     H(rot)  DE(clash)    DE(int)     intcor
     16.72     -19.41       2.89        0.00      69.69       1.51       0.19       2.50       ----

> <Gold.Chemscore.Fitness>
16.7152

> <Gold.Chemscore.DG>
-19.4058

> <Gold.Chemscore.ZeroCoef>
-5.4800

> <Gold.Chemscore.Hbond>
2.8892

> <Gold.Chemscore.Metal>
0.0000

> <Gold.Chemscore.Lipo>
69.6917

> <Gold.Chemscore.Internal_Hbond>
0.0000

> <Gold.Chemscore.DEClash>
0.1946

> <Gold.Chemscore.DEInternal>
2.4960

> <Gold.Chemscore.Rot>
1.5149

> <Gold.Chemscore.Internal.Correction>
   9.000000E+99

> <Gold.Chemscore.Hbonds>
donor molecule, donor type, donor heavy atom, donor atom, acceptor molecule, acceptor atom, score
      L1  H     7    25       P1  7948  0.96
      L1  H    10    26       P1  7948  0.91
      L1  H    15    40       P1 10186  0.99
      P1  H  7989  7998       L1    19  0.02

> <Gold.Chemscore.Hbond.Weighted>
-9.6499

> <Gold.Chemscore.Metal.Weighted>
-0.0000

> <Gold.Chemscore.Lipo.Weighted>
-8.1539

> <Gold.Chemscore.Internal_Hbond.Weighted>
0.0000

> <Gold.Chemscore.DEClash.Weighted>
0.1946

> <Gold.Chemscore.DEInternal.Weighted>
2.4960

> <Gold.Chemscore.Rot.Weighted>
3.8781

> <Gold.Chemscore.Internal.Correction.Weighted>
   9.000000E+99

> <Gold.Protein.RotatedTorsions>
[ 6907 6896 6895 6894 ] final  164.65 input  -60.11 | X-H torsion
[ 7974 7965 7964 7962 ] final  139.52 input  175.53 | X-H torsion
[ 8008 7997 7996 7995 ] final  -31.38 input   59.86 | X-H torsion
[ 10167 10162 10161 10158 ] final -140.01 input  -65.29 | X-H torsion
[ 10718 10713 10712 10709 ] final  -27.73 input   66.30 | X-H torsion
[ 10763 10752 10751 10750 ] final -103.85 input  -60.55 | X-H torsion
[ 11005 11000 10999 10996 ] final  -90.67 input  -57.11 | X-H torsion

> <Gold.Protein.ActiveResidues>
 VAL166  LYS551  ARG553  GLY616  TRP617  ASP618  TYR619  PRO620  LYS621  CYS622 
 ASP623  PHE694  ASN695  SER759  ASP760  ASP761  ALA762  ILE779  LEU786  VAL792 
 PHE793  MET794  SER795  GLU796  ALA797  LYS798  CYS799  TRP800  GLU811  SER814 

> <Gold.Protein.RotatedAtoms>
  151.9065  133.3550  159.3848 H   0  0  0  0  0  0  0  0  0  0  0  0  # atno 6907 bound_to 6896
  150.7068  134.4775  159.5464 H   0  0  0  0  0  0  0  0  0  0  0  0  # atno 6908 bound_to 6896
  152.2373  134.8263  160.0516 H   0  0  0  0  0  0  0  0  0  0  0  0  # atno 6909 bound_to 6896
  144.9271  139.5093  143.5635 H   0  0  0  0  0  0  0  0  0  0  0  0  # atno 7974 bound_to 7965
  154.4216  140.1766  156.1558 H   0  0  0  0  0  0  0  0  0  0  0  0  # atno 8008 bound_to 7997
  155.9878  140.3371  155.6700 H   0  0  0  0  0  0  0  0  0  0  0  0  # atno 8009 bound_to 7997
  155.6413  140.0680  157.2608 H   0  0  0  0  0  0  0  0  0  0  0  0  # atno 8010 bound_to 7997
  139.8324  143.7430  152.2665 H   0  0  0  0  0  0  0  0  0  0  0  0  # atno 10167 bound_to 10162
  156.4344  130.4451  149.7095 H   0  0  0  0  0  0  0  0  0  0  0  0  # atno 10718 bound_to 10713
  154.7837  135.4808  153.9899 H   0  0  0  0  0  0  0  0  0  0  0  0  # atno 10763 bound_to 10752
  153.1529  135.6794  153.8862 H   0  0  0  0  0  0  0  0  0  0  0  0  # atno 10764 bound_to 10752
  153.8500  135.3168  155.3410 H   0  0  0  0  0  0  0  0  0  0  0  0  # atno 10765 bound_to 10752
  141.1561  133.7706  156.9770 H   0  0  0  0  0  0  0  0  0  0  0  0  # atno 11005 bound_to 11000
  146.3231  139.8194  142.8930 LP  0  0  0  0  0  0  0  0  0  0  0  0  # atno 17320 bound_to 7965
  145.3201  141.0242  143.3505 LP  0  0  0  0  0  0  0  0  0  0  0  0  # atno 17321 bound_to 7965
  139.7641  144.7497  151.0320 LP  0  0  0  0  0  0  0  0  0  0  0  0  # atno 17342 bound_to 10162
  140.7805  143.4717  151.0137 LP  0  0  0  0  0  0  0  0  0  0  0  0  # atno 17343 bound_to 10162
  156.3985  130.7663  151.2669 LP  0  0  0  0  0  0  0  0  0  0  0  0  # atno 17370 bound_to 10713
  157.7507  131.0247  150.3886 LP  0  0  0  0  0  0  0  0  0  0  0  0  # atno 17371 bound_to 10713
  140.1091  134.9488  157.2039 LP  0  0  0  0  0  0  0  0  0  0  0  0  # atno 17394 bound_to 11000
  140.3217  134.2909  155.7245 LP  0  0  0  0  0  0  0  0  0  0  0  0  # atno 17395 bound_to 11000

$$$$
