AV-unprocessed.smi:3263|AV-procd|sdf|12487|dock8
  -GOLD-   2272018383D 1   1.00000     0.00000
 Structure written by MMmdl.
 41 43  0  0  0  0  0  0  0  0  1 V2000
  154.1978  141.7136  161.8460 O   0  0  0  0  0  0  0  0  0  0  0  0
  154.1741  141.3998  160.6554 C   0  0  0  0  0  0  0  0  0  0  0  0
  153.6832  142.3916  159.5943 C   0  0  0  0  0  0  0  0  0  0  0  0
  152.2843  142.9815  159.8858 C   0  0  1  0  0  0  0  0  0  0  0  0
  152.2730  144.0791  160.9774 C   0  0  0  0  0  0  0  0  0  0  0  0
  151.5973  145.2676  160.2708 C   0  0  2  0  0  0  0  0  0  0  0  0
  150.1087  144.9500  160.0365 C   0  0  0  0  0  0  0  0  0  0  0  0
  150.1595  143.9013  158.9092 C   0  0  0  0  0  0  0  0  0  0  0  0
  151.6728  143.7264  158.6767 C   0  0  1  0  0  0  0  0  0  0  0  0
  152.1724  145.1560  158.8649 C   0  0  0  0  0  0  0  0  0  0  0  0
  154.5508  140.1927  160.2041 N   0  0  0  0  0  0  0  0  0  0  0  0
  155.0258  139.0865  161.0322 C   0  0  0  0  0  0  0  0  0  0  0  0
  154.1266  137.8392  160.9242 C   0  0  0  0  0  0  0  0  0  0  0  0
  154.2504  136.8895  162.1039 C   0  0  0  0  0  0  0  0  0  0  0  0
  153.9642  137.3260  163.4156 C   0  0  0  0  0  0  0  0  0  0  0  0
  154.1217  136.4124  164.4757 C   0  0  0  0  0  0  0  0  0  0  0  0
  154.5545  135.1043  164.1850 C   0  0  0  0  0  0  0  0  0  0  0  0
  154.8100  134.7662  162.8412 C   0  0  0  0  0  0  0  0  0  0  0  0
  154.6606  135.6335  161.8170 N   0  0  0  0  0  0  0  0  0  0  0  0
  154.4143  143.1945  159.4916 H   0  0  0  0  0  0  0  0  0  0  0  0
  153.6642  141.8684  158.6377 H   0  0  0  0  0  0  0  0  0  0  0  0
  151.6202  142.1640  160.1722 H   0  0  0  0  0  0  0  0  0  0  0  0
  151.7347  143.7663  161.8729 H   0  0  0  0  0  0  0  0  0  0  0  0
  153.2852  144.3514  161.2804 H   0  0  0  0  0  0  0  0  0  0  0  0
  151.7691  146.2242  160.7650 H   0  0  0  0  0  0  0  0  0  0  0  0
  149.6223  144.5703  160.9359 H   0  0  0  0  0  0  0  0  0  0  0  0
  149.5661  145.8382  159.7105 H   0  0  0  0  0  0  0  0  0  0  0  0
  149.6662  142.9681  159.1833 H   0  0  0  0  0  0  0  0  0  0  0  0
  149.6723  144.2826  158.0109 H   0  0  0  0  0  0  0  0  0  0  0  0
  151.9109  143.2777  157.7118 H   0  0  0  0  0  0  0  0  0  0  0  0
  151.7330  145.8648  158.1605 H   0  0  0  0  0  0  0  0  0  0  0  0
  153.2590  145.2491  158.8321 H   0  0  0  0  0  0  0  0  0  0  0  0
  154.4970  140.0242  159.2099 H   0  0  0  0  0  0  0  0  0  0  0  0
  156.0340  138.8334  160.7038 H   0  0  0  0  0  0  0  0  0  0  0  0
  155.1171  139.3967  162.0745 H   0  0  0  0  0  0  0  0  0  0  0  0
  153.0851  138.1460  160.8207 H   0  0  0  0  0  0  0  0  0  0  0  0
  154.3703  137.2940  160.0116 H   0  0  0  0  0  0  0  0  0  0  0  0
  153.6430  138.3391  163.6078 H   0  0  0  0  0  0  0  0  0  0  0  0
  153.9172  136.7108  165.4932 H   0  0  0  0  0  0  0  0  0  0  0  0
  154.6882  134.3779  164.9730 H   0  0  0  0  0  0  0  0  0  0  0  0
  155.1428  133.7722  162.5816 H   0  0  0  0  0  0  0  0  0  0  0  0
  1  2  2  0  0  0  0
  2  3  1  0  0  0  0
  2 11  1  0  0  0  0
  3  4  1  0  0  0  0
  3 20  1  0  0  0  0
  3 21  1  0  0  0  0
  4  9  1  0  0  0  0
  4  5  1  0  0  0  0
  4 22  1  0  0  0  0
  5  6  1  0  0  0  0
  5 23  1  0  0  0  0
  5 24  1  0  0  0  0
  6 10  1  0  0  0  0
  6  7  1  0  0  0  0
  6 25  1  0  0  0  0
  7  8  1  0  0  0  0
  7 26  1  0  0  0  0
  7 27  1  0  0  0  0
  8  9  1  0  0  0  0
  8 28  1  0  0  0  0
  8 29  1  0  0  0  0
  9 10  1  0  0  0  0
  9 30  1  0  0  0  0
 10 31  1  0  0  0  0
 10 32  1  0  0  0  0
 11 12  1  0  0  0  0
 11 33  1  0  0  0  0
 12 13  1  0  0  0  0
 12 34  1  0  0  0  0
 12 35  1  0  0  0  0
 13 14  1  0  0  0  0
 13 36  1  0  0  0  0
 13 37  1  0  0  0  0
 14 19  1  0  0  0  0
 14 15  2  0  0  0  0
 15 16  1  0  0  0  0
 15 38  1  0  0  0  0
 16 17  2  0  0  0  0
 16 39  1  0  0  0  0
 17 18  1  0  0  0  0
 17 40  1  0  0  0  0
 18 19  2  0  0  0  0
 18 41  1  0  0  0  0
M  END
> <s_m_source_file>
AV-unprocessed.smi

> <i_m_source_file_index>
3263

> <i_lp_mmshare_version>
43012

> <i_f3d_flags>
0

> <s_epik_input>
W0NIMl0xW0NIMl1bQ0BASF0oW0NIMl0yKVtDQEBIXShbQ0gyXVtDQEhdMTIpW0NIMl1DKD1PKVtOSF1bQ0gyXVtDSDJdYzNbY0hdW2NIXVtjSF1bY0hdbjM=

> <s_epik_cmdline>
J2VwaWtfcHl0aG9uJywgJy1waCcsICc3LjAnLCAnLXRuJywgJzgnLCAnLW1hJywgJzIwMCcsICctbWV0YWxfYmluZGluZycsICctaW1hZScsICc8aW5maWxlLm1hZT4nLCAnLW9tYWUnLCAnPG91dGZpbGUubWFlPic=

> <r_epik_Ionization_Penalty>
0.0273541

> <r_epik_Ionization_Penalty_Charging>
0

> <r_epik_Ionization_Penalty_Neutral>
0.0273541

> <r_epik_State_Penalty>
0.0223838

> <r_epik_Charging_Adjusted_Penalty>
0.0223838

> <i_epik_Tot_Q>
0

> <i_epik_Tot_abs_Q>
0

> <r_epik_Metal_State_Penalty>
0.0213927

> <b_epik_Metal_Only>
0

> <s_lp_Force_Field>
OPLS_2005

> <r_lp_Energy>
47.5771

> <b_lp_Chiralities_Consistent>
1

> <s_lp_Variant>
AV-unprocessed.smi:3263-2

> <Gold.Version>
5.8.1

> <Gold.Id.Protein>
6NUR|6NUR_protein|mol2

> <Gold.PLP.Fitness>
50.3841

> <Gold.PLP.PLP>
-50.8645

> <Gold.PLP.part.hbond>
-1.0000

> <Gold.PLP.part.metal>
0.0000

> <Gold.PLP.part.buried>
-6.7815

> <Gold.PLP.part.nonpolar>
-43.6737

> <Gold.PLP.part.repulsive>
0.0625

> <Gold.PLP.ligand.clash>
0.0000

> <Gold.PLP.ligand.torsion>
0.2538

> <Gold.PLP.Chemscore.Hbond>
0.0000

> <Gold.PLP.Chemscore.CHOScore>
0.0000

> <Gold.PLP.Chemscore.Metal>
0.0000

> <Gold.PLP.Chemscore.Internal.Correction>
0.0272

> <Gold.Rescore>
     Score         DG    S(hbond)    S(metal)    S(lipo)     H(rot)  DE(clash)    DE(int)     intcor
     18.51     -18.91       0.00        0.00     146.64       1.46       0.07       0.33       ----

> <Gold.Chemscore.Fitness>
18.5083

> <Gold.Chemscore.DG>
-18.9106

> <Gold.Chemscore.ZeroCoef>
-5.4800

> <Gold.Chemscore.Hbond>
0.0000

> <Gold.Chemscore.Metal>
0.0000

> <Gold.Chemscore.Lipo>
146.6381

> <Gold.Chemscore.Internal_Hbond>
0.0000

> <Gold.Chemscore.DEClash>
0.0738

> <Gold.Chemscore.DEInternal>
0.3285

> <Gold.Chemscore.Rot>
1.4555

> <Gold.Chemscore.Internal.Correction>
   9.000000E+99

> <Gold.Chemscore.Hbond.Weighted>
-0.0000

> <Gold.Chemscore.Metal.Weighted>
-0.0000

> <Gold.Chemscore.Lipo.Weighted>
-17.1567

> <Gold.Chemscore.Internal_Hbond.Weighted>
0.0000

> <Gold.Chemscore.DEClash.Weighted>
0.0738

> <Gold.Chemscore.DEInternal.Weighted>
0.3285

> <Gold.Chemscore.Rot.Weighted>
3.7260

> <Gold.Chemscore.Internal.Correction.Weighted>
   9.000000E+99

> <Gold.Protein.RotatedTorsions>
[ 6907 6896 6895 6894 ] final  -92.79 input  -60.11 | X-H torsion
[ 7974 7965 7964 7962 ] final  166.52 input  175.53 | X-H torsion
[ 8008 7997 7996 7995 ] final  152.80 input   59.86 | X-H torsion
[ 10167 10162 10161 10158 ] final  -58.64 input  -65.29 | X-H torsion
[ 10718 10713 10712 10709 ] final   65.98 input   66.30 | X-H torsion
[ 10763 10752 10751 10750 ] final  166.60 input  -60.55 | X-H torsion
[ 11005 11000 10999 10996 ] final  172.07 input  -57.11 | X-H torsion

> <Gold.Protein.ActiveResidues>
 VAL166  LYS551  ARG553  GLY616  TRP617  ASP618  TYR619  PRO620  LYS621  CYS622 
 ASP623  PHE694  ASN695  SER759  ASP760  ASP761  ALA762  ILE779  LEU786  VAL792 
 PHE793  MET794  SER795  GLU796  ALA797  LYS798  CYS799  TRP800  GLU811  SER814 

> <Gold.Protein.RotatedAtoms>
  150.6912  134.2067  159.4342 H   0  0  0  0  0  0  0  0  0  0  0  0  # atno 6907 bound_to 6896
  152.0031  134.9915  160.0575 H   0  0  0  0  0  0  0  0  0  0  0  0  # atno 6908 bound_to 6896
  152.1560  133.4517  159.4874 H   0  0  0  0  0  0  0  0  0  0  0  0  # atno 6909 bound_to 6896
  144.7459  139.8628  143.6382 H   0  0  0  0  0  0  0  0  0  0  0  0  # atno 7974 bound_to 7965
  156.2612  140.2011  156.6390 H   0  0  0  0  0  0  0  0  0  0  0  0  # atno 8008 bound_to 7997
  154.6624  140.0559  157.0101 H   0  0  0  0  0  0  0  0  0  0  0  0  # atno 8009 bound_to 7997
  155.1257  140.3229  155.4489 H   0  0  0  0  0  0  0  0  0  0  0  0  # atno 8010 bound_to 7997
  140.6185  143.2411  151.5539 H   0  0  0  0  0  0  0  0  0  0  0  0  # atno 10167 bound_to 10162
  157.6140  130.9243  150.0048 H   0  0  0  0  0  0  0  0  0  0  0  0  # atno 10718 bound_to 10713
  154.3415  135.2754  155.2420 H   0  0  0  0  0  0  0  0  0  0  0  0  # atno 10763 bound_to 10752
  154.4689  135.5888  153.6311 H   0  0  0  0  0  0  0  0  0  0  0  0  # atno 10764 bound_to 10752
  152.9857  135.6083  154.3616 H   0  0  0  0  0  0  0  0  0  0  0  0  # atno 10765 bound_to 10752
  140.3258  134.7399  157.4098 H   0  0  0  0  0  0  0  0  0  0  0  0  # atno 11005 bound_to 11000
  146.1336  139.4377  143.0153 LP  0  0  0  0  0  0  0  0  0  0  0  0  # atno 17320 bound_to 7965
  145.7125  141.0101  143.1445 LP  0  0  0  0  0  0  0  0  0  0  0  0  # atno 17321 bound_to 7965
  139.5418  144.2626  152.1366 LP  0  0  0  0  0  0  0  0  0  0  0  0  # atno 17342 bound_to 10162
  140.1841  144.4816  150.6513 LP  0  0  0  0  0  0  0  0  0  0  0  0  # atno 17343 bound_to 10162
  156.1254  130.3644  149.9818 LP  0  0  0  0  0  0  0  0  0  0  0  0  # atno 17370 bound_to 10713
  156.7890  130.9249  151.3646 LP  0  0  0  0  0  0  0  0  0  0  0  0  # atno 17371 bound_to 10713
  140.0903  134.5611  155.8451 LP  0  0  0  0  0  0  0  0  0  0  0  0  # atno 17394 bound_to 11000
  141.2075  133.6665  156.6313 LP  0  0  0  0  0  0  0  0  0  0  0  0  # atno 17395 bound_to 11000

$$$$
