AV-unprocessed.smi:1406|AV-procd|sdf|5709|dock5
  -GOLD-   22720 5343D 1   1.00000     0.00000
 Structure written by MMmdl.
 41 43  0  0  0  0  0  0  0  0  2 V2000
  149.4322  137.3754  154.8917 C   0  0  0  0  0  0  0  0  0  0  0  0
  150.3271  136.1614  155.2139 C   0  0  2  0  0  0  0  0  0  0  0  0
  149.5421  134.8413  155.2591 C   0  0  0  0  0  0  0  0  0  0  0  0
  149.5222  134.1555  156.2816 O   0  0  0  0  0  0  0  0  0  0  0  0
  148.8985  134.4955  154.1327 N   0  0  0  0  0  0  0  0  0  0  0  0
  148.1175  133.2765  153.9462 C   0  0  2  0  0  0  0  0  0  0  0  0
  148.9152  132.0087  154.2284 C   0  0  0  0  0  0  0  0  0  0  0  0
  148.0916  130.9422  153.5055 C   0  0  0  0  0  0  0  0  0  0  0  0
  147.5302  131.6074  152.3080 N   0  3  1  0  0  0  0  0  0  0  0  0
  146.1880  131.1232  151.9025 C   0  0  0  0  0  0  0  0  0  0  0  0
  145.7002  131.8708  150.6484 C   0  0  0  0  0  0  0  0  0  0  0  0
  145.7825  133.4050  150.7900 C   0  0  0  0  0  0  0  0  0  0  0  0
  146.3545  133.8422  152.1477 C   0  0  0  0  0  0  0  0  0  0  0  0
  147.6558  133.0817  152.4911 C   0  0  1  0  0  0  0  0  0  0  0  0
  151.0771  136.3414  156.4507 N   0  0  0  0  0  0  0  0  0  0  0  0
  150.6416  136.4899  157.7038 C   0  0  0  0  0  0  0  0  0  0  0  0
  151.6073  136.6834  158.5908 N   0  0  0  0  0  0  0  0  0  0  0  0
  152.6907  136.6503  157.7593 C   0  0  0  0  0  0  0  0  0  0  0  0
  152.4283  136.4603  156.4664 N   0  0  0  0  0  0  0  0  0  0  0  0
  148.9196  137.2437  153.9383 H   0  0  0  0  0  0  0  0  0  0  0  0
  150.0271  138.2864  154.8182 H   0  0  0  0  0  0  0  0  0  0  0  0
  148.6711  137.5405  155.6554 H   0  0  0  0  0  0  0  0  0  0  0  0
  151.0575  136.0791  154.4068 H   0  0  0  0  0  0  0  0  0  0  0  0
  148.9681  135.1180  153.3406 H   0  0  0  0  0  0  0  0  0  0  0  0
  147.2515  133.2775  154.6120 H   0  0  0  0  0  0  0  0  0  0  0  0
  149.9102  132.0755  153.7854 H   0  0  0  0  0  0  0  0  0  0  0  0
  149.0300  131.8052  155.2936 H   0  0  0  0  0  0  0  0  0  0  0  0
  148.6843  130.0680  153.2354 H   0  0  0  0  0  0  0  0  0  0  0  0
  147.2835  130.6083  154.1588 H   0  0  0  0  0  0  0  0  0  0  0  0
  146.2340  130.0519  151.7041 H   0  0  0  0  0  0  0  0  0  0  0  0
  145.4803  131.2608  152.7219 H   0  0  0  0  0  0  0  0  0  0  0  0
  146.3001  131.5604  149.7917 H   0  0  0  0  0  0  0  0  0  0  0  0
  144.6764  131.5726  150.4200 H   0  0  0  0  0  0  0  0  0  0  0  0
  146.4091  133.8042  149.9916 H   0  0  0  0  0  0  0  0  0  0  0  0
  144.7963  133.8482  150.6484 H   0  0  0  0  0  0  0  0  0  0  0  0
  146.5368  134.9169  152.1406 H   0  0  0  0  0  0  0  0  0  0  0  0
  145.6064  133.6702  152.9231 H   0  0  0  0  0  0  0  0  0  0  0  0
  148.4470  133.4031  151.8114 H   0  0  0  0  0  0  0  0  0  0  0  0
  149.5959  136.4609  157.9726 H   0  0  0  0  0  0  0  0  0  0  0  0
  153.7020  136.7779  158.1162 H   0  0  0  0  0  0  0  0  0  0  0  0
  148.1502  131.3829  151.5428 H   0  0  0  0  0  0  0  0  0  0  0  0
  1  2  1  0  0  0  0
  1 20  1  0  0  0  0
  1 21  1  0  0  0  0
  1 22  1  0  0  0  0
  2  3  1  0  0  0  0
  2 15  1  0  0  0  0
  2 23  1  0  0  0  0
  3  4  2  0  0  0  0
  3  5  1  0  0  0  0
  5  6  1  0  0  0  0
  5 24  1  0  0  0  0
  6 14  1  0  0  0  0
  6  7  1  0  0  0  0
  6 25  1  0  0  0  0
  7  8  1  0  0  0  0
  7 26  1  0  0  0  0
  7 27  1  0  0  0  0
  8  9  1  0  0  0  0
  8 28  1  0  0  0  0
  8 29  1  0  0  0  0
  9 14  1  0  0  0  0
  9 10  1  0  0  0  0
  9 41  1  0  0  0  0
 10 11  1  0  0  0  0
 10 30  1  0  0  0  0
 10 31  1  0  0  0  0
 11 12  1  0  0  0  0
 11 32  1  0  0  0  0
 11 33  1  0  0  0  0
 12 13  1  0  0  0  0
 12 34  1  0  0  0  0
 12 35  1  0  0  0  0
 13 14  1  0  0  0  0
 13 36  1  0  0  0  0
 13 37  1  0  0  0  0
 14 38  1  0  0  0  0
 15 19  1  0  0  0  0
 15 16  1  0  0  0  0
 16 17  2  0  0  0  0
 16 39  1  0  0  0  0
 17 18  1  0  0  0  0
 18 19  2  0  0  0  0
 18 40  1  0  0  0  0
M  CHG  1   9   1
M  END
> <s_m_source_file>
AV-unprocessed.smi

> <i_m_source_file_index>
1406

> <i_lp_mmshare_version>
43012

> <i_f3d_flags>
0

> <s_epik_input>
bjFbY0hdbltjSF1uMVtDQEhdKFtDSDNdKUMoPU8pW05IXVtDQEhdKFtDSDJdW0NIMl0yKVtDQEBIXShOMjMpW0NIMl1bQ0gyXVtDSDJdW0NIMl0z

> <s_epik_cmdline>
J2VwaWtfcHl0aG9uJywgJy1waCcsICc3LjAnLCAnLXRuJywgJzgnLCAnLW1hJywgJzIwMCcsICctbWV0YWxfYmluZGluZycsICctaW1hZScsICc8aW5maWxlLm1hZT4nLCAnLW9tYWUnLCAnPG91dGZpbGUubWFlPic=

> <r_lp_tautomer_probability>
1

> <r_epik_Ionization_Penalty>
0.00197066

> <r_epik_Ionization_Penalty_Charging>
0.00196223

> <r_epik_Ionization_Penalty_Neutral>
8.43107e-06

> <r_epik_State_Penalty>
0.00133866

> <r_epik_Charging_Adjusted_Penalty>
0.00330089

> <i_epik_Tot_Q>
1

> <i_epik_Tot_abs_Q>
1

> <r_epik_Metal_State_Penalty>
-0

> <b_epik_Metal_Only>
0

> <s_lp_Force_Field>
OPLS_2005

> <r_lp_Energy>
45.3265

> <b_lp_Chiralities_Consistent>
1

> <s_lp_Variant>
AV-unprocessed.smi:1406-1

> <Gold.Version>
5.8.1

> <Gold.Id.Protein>
6NUR|6NUR_protein|mol2

> <Gold.PLP.Fitness>
39.5961

> <Gold.PLP.PLP>
-28.5843

> <Gold.PLP.part.hbond>
-4.0000

> <Gold.PLP.part.metal>
0.0000

> <Gold.PLP.part.buried>
-4.2509

> <Gold.PLP.part.nonpolar>
-21.7746

> <Gold.PLP.part.repulsive>
0.0085

> <Gold.PLP.ligand.clash>
0.0000

> <Gold.PLP.ligand.torsion>
0.0985

> <Gold.PLP.Chemscore.Hbond>
3.7020

> <Gold.PLP.Chemscore.CHOScore>
0.0000

> <Gold.PLP.Chemscore.Metal>
0.0000

> <Gold.Chemscore.Hbonds>
donor molecule, donor type, donor heavy atom, donor atom, acceptor molecule, acceptor atom, score
      L1  H     5    24       P1  7948  1.00
      L1  H     9    41       P1 10747  1.00
      P1  H  6896  6907       L1    17  0.75
      P1  H 10752 10763       L1    19  1.00

> <Gold.PLP.Chemscore.Internal.Correction>
0.1028

> <Gold.Rescore>
     Score         DG    S(hbond)    S(metal)    S(lipo)     H(rot)  DE(clash)    DE(int)     intcor
     16.61     -18.84       3.39        0.00      58.57       1.89       0.09       2.15       ----

> <Gold.Chemscore.Fitness>
16.6079

> <Gold.Chemscore.DG>
-18.8423

> <Gold.Chemscore.ZeroCoef>
-5.4800

> <Gold.Chemscore.Hbond>
3.3949

> <Gold.Chemscore.Metal>
0.0000

> <Gold.Chemscore.Lipo>
58.5719

> <Gold.Chemscore.Internal_Hbond>
0.0000

> <Gold.Chemscore.DEClash>
0.0863

> <Gold.Chemscore.DEInternal>
2.1481

> <Gold.Chemscore.Rot>
1.8865

> <Gold.Chemscore.Internal.Correction>
   9.000000E+99

> <Gold.Chemscore.Hbonds>
donor molecule, donor type, donor heavy atom, donor atom, acceptor molecule, acceptor atom, score
      L1  H     5    24       P1  7948  0.40
      L1  H     9    41       P1 10747  0.98
      P1  H  6896  6907       L1    17  0.30
      P1  H 10752 10763       L1    19  0.63

> <Gold.Chemscore.Hbond.Weighted>
-11.3390

> <Gold.Chemscore.Metal.Weighted>
-0.0000

> <Gold.Chemscore.Lipo.Weighted>
-6.8529

> <Gold.Chemscore.Internal_Hbond.Weighted>
0.0000

> <Gold.Chemscore.DEClash.Weighted>
0.0863

> <Gold.Chemscore.DEInternal.Weighted>
2.1481

> <Gold.Chemscore.Rot.Weighted>
4.8295

> <Gold.Chemscore.Internal.Correction.Weighted>
   9.000000E+99

> <Gold.Protein.RotatedTorsions>
[ 6907 6896 6895 6894 ] final  -11.43 input  -60.11 | X-H torsion
[ 7974 7965 7964 7962 ] final  177.06 input  175.53 | X-H torsion
[ 8008 7997 7996 7995 ] final  135.81 input   59.86 | X-H torsion
[ 10167 10162 10161 10158 ] final   68.71 input  -65.29 | X-H torsion
[ 10718 10713 10712 10709 ] final -127.71 input   66.30 | X-H torsion
[ 10763 10752 10751 10750 ] final   83.72 input  -60.55 | X-H torsion
[ 11005 11000 10999 10996 ] final   40.40 input  -57.11 | X-H torsion

> <Gold.Protein.ActiveResidues>
 VAL166  LYS551  ARG553  GLY616  TRP617  ASP618  TYR619  PRO620  LYS621  CYS622 
 ASP623  PHE694  ASN695  SER759  ASP760  ASP761  ALA762  ILE779  LEU786  VAL792 
 PHE793  MET794  SER795  GLU796  ALA797  LYS798  CYS799  TRP800  GLU811  SER814 

> <Gold.Protein.RotatedAtoms>
  151.3863  135.0948  159.9511 H   0  0  0  0  0  0  0  0  0  0  0  0  # atno 6907 bound_to 6896
  152.5093  133.9023  159.7457 H   0  0  0  0  0  0  0  0  0  0  0  0  # atno 6908 bound_to 6896
  150.9467  133.6539  159.2808 H   0  0  0  0  0  0  0  0  0  0  0  0  # atno 6909 bound_to 6896
  144.7174  140.0190  143.6440 H   0  0  0  0  0  0  0  0  0  0  0  0  # atno 7974 bound_to 7965
  156.3003  140.2461  156.3642 H   0  0  0  0  0  0  0  0  0  0  0  0  # atno 8008 bound_to 7997
  154.8849  140.0411  157.1823 H   0  0  0  0  0  0  0  0  0  0  0  0  # atno 8009 bound_to 7997
  154.8658  140.2927  155.5515 H   0  0  0  0  0  0  0  0  0  0  0  0  # atno 8010 bound_to 7997
  140.0757  144.5114  150.7196 H   0  0  0  0  0  0  0  0  0  0  0  0  # atno 10167 bound_to 10162
  156.1883  130.6778  151.0392 H   0  0  0  0  0  0  0  0  0  0  0  0  # atno 10718 bound_to 10713
  153.1316  135.4681  154.9358 H   0  0  0  0  0  0  0  0  0  0  0  0  # atno 10763 bound_to 10752
  154.7669  135.3147  154.8270 H   0  0  0  0  0  0  0  0  0  0  0  0  # atno 10764 bound_to 10752
  153.8811  135.6894  153.4821 H   0  0  0  0  0  0  0  0  0  0  0  0  # atno 10765 bound_to 10752
  140.1934  134.3958  155.8134 H   0  0  0  0  0  0  0  0  0  0  0  0  # atno 11005 bound_to 11000
  146.0196  139.3239  143.0821 LP  0  0  0  0  0  0  0  0  0  0  0  0  # atno 17320 bound_to 7965
  145.8584  140.9489  143.0713 LP  0  0  0  0  0  0  0  0  0  0  0  0  # atno 17321 bound_to 7965
  140.7103  143.2500  151.4602 LP  0  0  0  0  0  0  0  0  0  0  0  0  # atno 17342 bound_to 10162
  139.5809  144.1712  152.1967 LP  0  0  0  0  0  0  0  0  0  0  0  0  # atno 17343 bound_to 10162
  157.6913  131.0809  150.7100 LP  0  0  0  0  0  0  0  0  0  0  0  0  # atno 17370 bound_to 10713
  156.7156  130.4665  149.5536 LP  0  0  0  0  0  0  0  0  0  0  0  0  # atno 17371 bound_to 10713
  141.2226  133.7058  156.8135 LP  0  0  0  0  0  0  0  0  0  0  0  0  # atno 17394 bound_to 11000
  140.2134  134.8811  157.3299 LP  0  0  0  0  0  0  0  0  0  0  0  0  # atno 17395 bound_to 11000

$$$$
