AV-unprocessed.smi:663|AV-procd|sdf|3247|dock7
  -GOLD-   22720 0193D 1   1.00000     0.00000
 Structure written by MMmdl.
 30 31  0  0  0  0  0  0  0  0  1 V2000
  150.3616  137.2264  154.1037 N   0  0  0  0  0  0  0  0  0  0  0  0
  150.5234  138.4415  154.6335 C   0  0  0  0  0  0  0  0  0  0  0  0
  151.2430  138.6353  155.6114 O   0  0  0  0  0  0  0  0  0  0  0  0
  149.7479  139.5956  153.9829 C   0  0  0  0  0  0  0  0  0  0  0  0
  148.2096  139.4529  154.0629 C   0  0  2  0  0  0  0  0  0  0  0  0
  147.7669  138.2683  153.3284 N   0  0  0  0  0  0  0  0  0  0  0  0
  146.5292  137.7534  153.3520 C   0  0  0  0  0  0  0  0  0  0  0  0
  145.6011  138.2422  153.9961 O   0  0  0  0  0  0  0  0  0  0  0  0
  146.4503  136.6499  152.5914 N   0  0  0  0  0  0  0  0  0  0  0  0
  145.3163  135.8333  152.3552 C   0  0  0  0  0  0  0  0  0  0  0  0
  144.4471  135.6596  153.3578 N   0  0  0  0  0  0  0  0  0  0  0  0
  143.3872  134.8391  152.9917 N   0  0  0  0  0  0  0  0  0  0  0  0
  143.4997  134.4246  151.7262 C   0  0  0  0  0  0  0  0  0  0  0  0
  144.9115  134.9951  150.8546 S   0  0  0  0  0  0  0  0  0  0  0  0
  147.5329  140.7269  153.5837 C   0  0  0  0  0  0  0  0  0  0  0  0
  147.8662  142.0640  154.2026 C   0  0  0  0  0  0  0  0  0  0  0  0
  146.5076  141.4426  154.4313 C   0  0  0  0  0  0  0  0  0  0  0  0
  150.8537  136.4384  154.4996 H   0  0  0  0  0  0  0  0  0  0  0  0
  149.7506  137.0977  153.3102 H   0  0  0  0  0  0  0  0  0  0  0  0
  150.0499  140.5308  154.4571 H   0  0  0  0  0  0  0  0  0  0  0  0
  150.0602  139.6753  152.9408 H   0  0  0  0  0  0  0  0  0  0  0  0
  147.9512  139.3209  155.1160 H   0  0  0  0  0  0  0  0  0  0  0  0
  148.4652  137.7944  152.7742 H   0  0  0  0  0  0  0  0  0  0  0  0
  147.2984  136.3590  152.1275 H   0  0  0  0  0  0  0  0  0  0  0  0
  142.7454  133.7782  151.3032 H   0  0  0  0  0  0  0  0  0  0  0  0
  147.3535  140.7436  152.5101 H   0  0  0  0  0  0  0  0  0  0  0  0
  148.5586  142.0764  155.0421 H   0  0  0  0  0  0  0  0  0  0  0  0
  147.9213  142.9247  153.5394 H   0  0  0  0  0  0  0  0  0  0  0  0
  145.6566  141.8867  153.9192 H   0  0  0  0  0  0  0  0  0  0  0  0
  146.2998  141.0475  155.4236 H   0  0  0  0  0  0  0  0  0  0  0  0
  1  2  1  0  0  0  0
  1 18  1  0  0  0  0
  1 19  1  0  0  0  0
  2  3  2  0  0  0  0
  2  4  1  0  0  0  0
  4  5  1  0  0  0  0
  4 20  1  0  0  0  0
  4 21  1  0  0  0  0
  5  6  1  0  0  0  0
  5 15  1  0  0  0  0
  5 22  1  0  0  0  0
  6  7  1  0  0  0  0
  6 23  1  0  0  0  0
  7  8  2  0  0  0  0
  7  9  1  0  0  0  0
  9 10  1  0  0  0  0
  9 24  1  0  0  0  0
 10 14  1  0  0  0  0
 10 11  2  0  0  0  0
 11 12  1  0  0  0  0
 12 13  2  0  0  0  0
 13 14  1  0  0  0  0
 13 25  1  0  0  0  0
 15 17  1  0  0  0  0
 15 16  1  0  0  0  0
 15 26  1  0  0  0  0
 16 17  1  0  0  0  0
 16 27  1  0  0  0  0
 16 28  1  0  0  0  0
 17 29  1  0  0  0  0
 17 30  1  0  0  0  0
M  END
> <s_m_source_file>
AV-unprocessed.smi

> <i_m_source_file_index>
663

> <i_lp_mmshare_version>
43012

> <i_f3d_flags>
0

> <s_epik_input>
W05IMl1DKD1PKVtDSDJdW0NAQEhdKFtDSF0xW0NIMl1bQ0gyXTEpW05IXUMoPU8pW05IXWMybm5bY0hdczI=

> <s_epik_cmdline>
J2VwaWtfcHl0aG9uJywgJy1waCcsICc3LjAnLCAnLXRuJywgJzgnLCAnLW1hJywgJzIwMCcsICctbWV0YWxfYmluZGluZycsICctaW1hZScsICc8aW5maWxlLm1hZT4nLCAnLW9tYWUnLCAnPG91dGZpbGUubWFlPic=

> <r_lp_tautomer_probability>
1

> <r_epik_Ionization_Penalty>
0.000388224

> <r_epik_Ionization_Penalty_Charging>
0

> <r_epik_Ionization_Penalty_Neutral>
0.000388224

> <r_epik_State_Penalty>
-0

> <r_epik_Charging_Adjusted_Penalty>
0

> <i_epik_Tot_Q>
0

> <i_epik_Tot_abs_Q>
0

> <r_epik_Metal_State_Penalty>
0.191941

> <b_epik_Metal_Only>
0

> <s_lp_Force_Field>
OPLS_2005

> <r_lp_Energy>
6.58878

> <b_lp_Chiralities_Consistent>
1

> <s_lp_Variant>
AV-unprocessed.smi:663-1

> <Gold.Version>
5.8.1

> <Gold.Id.Protein>
6NUR|6NUR_protein|mol2

> <Gold.PLP.Fitness>
34.9802

> <Gold.PLP.PLP>
-24.2893

> <Gold.PLP.part.hbond>
-4.0000

> <Gold.PLP.part.metal>
0.0000

> <Gold.PLP.part.buried>
0.2688

> <Gold.PLP.part.nonpolar>
-20.8669

> <Gold.PLP.part.repulsive>
0.4388

> <Gold.PLP.ligand.clash>
0.0000

> <Gold.PLP.ligand.torsion>
1.0595

> <Gold.PLP.Chemscore.Hbond>
2.9760

> <Gold.PLP.Chemscore.CHOScore>
0.9288

> <Gold.PLP.Chemscore.Metal>
0.0000

> <Gold.Chemscore.Hbonds>
donor molecule, donor type, donor heavy atom, donor atom, acceptor molecule, acceptor atom, score
      L1  H     1    19       P1  7948  1.00
      L1  H     6    23       P1  7948  0.96
      L1  H     9    24       P1  7948  1.00
      L1  C    13    25       P1 10186  0.90

> <Gold.PLP.Chemscore.Internal.Correction>
1.0953

> <Gold.Rescore>
     Score         DG    S(hbond)    S(metal)    S(lipo)     H(rot)  DE(clash)    DE(int)     intcor
      9.38     -13.40       2.76        0.00      44.10       2.52       0.31       3.71       ----

> <Gold.Chemscore.Fitness>
9.3790

> <Gold.Chemscore.DG>
-13.4033

> <Gold.Chemscore.ZeroCoef>
-5.4800

> <Gold.Chemscore.Hbond>
2.7602

> <Gold.Chemscore.Metal>
0.0000

> <Gold.Chemscore.Lipo>
44.1048

> <Gold.Chemscore.Internal_Hbond>
0.0000

> <Gold.Chemscore.DEClash>
0.3146

> <Gold.Chemscore.DEInternal>
3.7097

> <Gold.Chemscore.Rot>
2.5218

> <Gold.Chemscore.Internal.Correction>
   9.000000E+99

> <Gold.Chemscore.Hbonds>
donor molecule, donor type, donor heavy atom, donor atom, acceptor molecule, acceptor atom, score
      L1  H     1    19       P1  7948  0.55
      L1  H     6    23       P1  7948  0.92
      L1  H     9    24       P1  7948  0.99

> <Gold.Chemscore.Hbond.Weighted>
-9.2189

> <Gold.Chemscore.Metal.Weighted>
-0.0000

> <Gold.Chemscore.Lipo.Weighted>
-5.1603

> <Gold.Chemscore.Internal_Hbond.Weighted>
0.0000

> <Gold.Chemscore.DEClash.Weighted>
0.3146

> <Gold.Chemscore.DEInternal.Weighted>
3.7097

> <Gold.Chemscore.Rot.Weighted>
6.4559

> <Gold.Chemscore.Internal.Correction.Weighted>
   9.000000E+99

> <Gold.Protein.RotatedTorsions>
[ 6907 6896 6895 6894 ] final  -92.38 input  -60.11 | X-H torsion
[ 7974 7965 7964 7962 ] final -106.26 input  175.53 | X-H torsion
[ 8008 7997 7996 7995 ] final  -58.01 input   59.86 | X-H torsion
[ 10167 10162 10161 10158 ] final    1.08 input  -65.29 | X-H torsion
[ 10718 10713 10712 10709 ] final  117.17 input   66.30 | X-H torsion
[ 10763 10752 10751 10750 ] final  142.41 input  -60.55 | X-H torsion
[ 11005 11000 10999 10996 ] final  139.71 input  -57.11 | X-H torsion

> <Gold.Protein.ActiveResidues>
 VAL166  LYS551  ARG553  GLY616  TRP617  ASP618  TYR619  PRO620  LYS621  CYS622 
 ASP623  PHE694  ASN695  SER759  ASP760  ASP761  ALA762  ILE779  LEU786  VAL792 
 PHE793  MET794  SER795  GLU796  ALA797  LYS798  CYS799  TRP800  GLU811  SER814 

> <Gold.Protein.RotatedAtoms>
  150.6905  134.2130  159.4366 H   0  0  0  0  0  0  0  0  0  0  0  0  # atno 6907 bound_to 6896
  152.0091  134.9884  160.0577 H   0  0  0  0  0  0  0  0  0  0  0  0  # atno 6908 bound_to 6896
  152.1506  133.4484  159.4848 H   0  0  0  0  0  0  0  0  0  0  0  0  # atno 6909 bound_to 6896
  145.2201  140.9131  143.3264 H   0  0  0  0  0  0  0  0  0  0  0  0  # atno 7974 bound_to 7965
  154.4291  140.1094  156.5889 H   0  0  0  0  0  0  0  0  0  0  0  0  # atno 8008 bound_to 7997
  155.6033  140.3493  155.4581 H   0  0  0  0  0  0  0  0  0  0  0  0  # atno 8009 bound_to 7997
  156.0156  140.1228  157.0399 H   0  0  0  0  0  0  0  0  0  0  0  0  # atno 8010 bound_to 7997
  140.6699  143.7076  150.7902 H   0  0  0  0  0  0  0  0  0  0  0  0  # atno 10167 bound_to 10162
  157.6113  131.1034  150.7577 H   0  0  0  0  0  0  0  0  0  0  0  0  # atno 10718 bound_to 10713
  153.9554  135.2965  155.3436 H   0  0  0  0  0  0  0  0  0  0  0  0  # atno 10763 bound_to 10752
  154.7404  135.5027  153.9115 H   0  0  0  0  0  0  0  0  0  0  0  0  # atno 10764 bound_to 10752
  153.0973  135.6724  153.9848 H   0  0  0  0  0  0  0  0  0  0  0  0  # atno 10765 bound_to 10752
  140.0274  134.9368  157.0596 H   0  0  0  0  0  0  0  0  0  0  0  0  # atno 11005 bound_to 11000
  144.9773  139.3818  143.6279 LP  0  0  0  0  0  0  0  0  0  0  0  0  # atno 17320 bound_to 7965
  146.3378  139.8898  142.8811 LP  0  0  0  0  0  0  0  0  0  0  0  0  # atno 17321 bound_to 7965
  140.0760  143.5015  152.2555 LP  0  0  0  0  0  0  0  0  0  0  0  0  # atno 17342 bound_to 10162
  139.5963  144.7568  151.3278 LP  0  0  0  0  0  0  0  0  0  0  0  0  # atno 17343 bound_to 10162
  156.7954  130.4903  149.5378 LP  0  0  0  0  0  0  0  0  0  0  0  0  # atno 17370 bound_to 10713
  156.1218  130.6115  151.0204 LP  0  0  0  0  0  0  0  0  0  0  0  0  # atno 17371 bound_to 10713
  140.4283  134.1808  155.7167 LP  0  0  0  0  0  0  0  0  0  0  0  0  # atno 17394 bound_to 11000
  141.1811  133.8412  157.1254 LP  0  0  0  0  0  0  0  0  0  0  0  0  # atno 17395 bound_to 11000

$$$$
