AV-unprocessed.smi:1392|AV-procd|sdf|5661|dock10
  -GOLD-   22720 5283D 1   1.00000     0.00000
 Structure written by MMmdl.
 39 40  0  0  0  0  0  0  0  0  1 V2000
  154.3419  141.0574  161.4140 C   0  0  0  0  0  0  0  0  0  0  0  0
  153.3178  142.0941  161.3799 N   0  0  0  0  0  0  0  0  0  0  0  0
  153.0606  142.9021  162.5676 C   0  0  0  0  0  0  0  0  0  0  0  0
  152.5577  142.3054  160.2065 C   0  0  0  0  0  0  0  0  0  0  0  0
  152.5068  143.5734  159.5760 C   0  0  0  0  0  0  0  0  0  0  0  0
  151.7381  143.7340  158.4073 C   0  0  0  0  0  0  0  0  0  0  0  0
  151.0400  142.6205  157.8866 C   0  0  0  0  0  0  0  0  0  0  0  0
  150.2180  142.6581  156.7279 N   0  0  0  0  0  0  0  0  0  0  0  0
  149.9584  141.6711  155.8532 C   0  0  0  0  0  0  0  0  0  0  0  0
  150.3837  140.5188  155.9314 O   0  0  0  0  0  0  0  0  0  0  0  0
  149.1487  142.0939  154.8722 N   0  0  0  0  0  0  0  0  0  0  0  0
  148.6696  141.2692  153.7679 C   0  0  0  0  0  0  0  0  0  0  0  0
  147.8878  140.0367  154.2611 C   0  0  2  0  0  0  0  0  0  0  0  0
  147.3575  139.1377  153.1617 C   0  0  0  0  0  0  0  0  0  0  0  0
  146.2772  138.3499  153.8961 C   0  0  0  0  0  0  0  0  0  0  0  0
  145.7669  139.2276  154.8957 O   0  0  0  0  0  0  0  0  0  0  0  0
  146.5999  140.3778  155.0096 C   0  0  0  0  0  0  0  0  0  0  0  0
  151.1378  141.4044  158.5899 C   0  0  0  0  0  0  0  0  0  0  0  0
  151.8739  141.2458  159.7093 N   0  0  0  0  0  0  0  0  0  0  0  0
  155.1123  141.2552  160.6684 H   0  0  0  0  0  0  0  0  0  0  0  0
  153.9038  140.0790  161.2143 H   0  0  0  0  0  0  0  0  0  0  0  0
  154.8278  141.0105  162.3886 H   0  0  0  0  0  0  0  0  0  0  0  0
  153.2158  143.9598  162.3526 H   0  0  0  0  0  0  0  0  0  0  0  0
  153.7245  142.6283  163.3873 H   0  0  0  0  0  0  0  0  0  0  0  0
  152.0344  142.7645  162.9094 H   0  0  0  0  0  0  0  0  0  0  0  0
  153.0376  144.4284  159.9662 H   0  0  0  0  0  0  0  0  0  0  0  0
  151.6904  144.7083  157.9465 H   0  0  0  0  0  0  0  0  0  0  0  0
  149.7284  143.5274  156.5743 H   0  0  0  0  0  0  0  0  0  0  0  0
  148.8419  143.0555  154.8884 H   0  0  0  0  0  0  0  0  0  0  0  0
  148.0474  141.8676  153.1003 H   0  0  0  0  0  0  0  0  0  0  0  0
  149.5342  140.9557  153.1822 H   0  0  0  0  0  0  0  0  0  0  0  0
  148.5201  139.4415  154.9221 H   0  0  0  0  0  0  0  0  0  0  0  0
  146.9100  139.7333  152.3649 H   0  0  0  0  0  0  0  0  0  0  0  0
  148.1230  138.4973  152.7224 H   0  0  0  0  0  0  0  0  0  0  0  0
  145.4882  138.0031  153.2286 H   0  0  0  0  0  0  0  0  0  0  0  0
  146.7112  137.4792  154.3893 H   0  0  0  0  0  0  0  0  0  0  0  0
  146.7806  140.6365  156.0532 H   0  0  0  0  0  0  0  0  0  0  0  0
  146.0883  141.2176  154.5376 H   0  0  0  0  0  0  0  0  0  0  0  0
  150.6133  140.5263  158.2427 H   0  0  0  0  0  0  0  0  0  0  0  0
  1  2  1  0  0  0  0
  1 20  1  0  0  0  0
  1 21  1  0  0  0  0
  1 22  1  0  0  0  0
  2  3  1  0  0  0  0
  2  4  1  0  0  0  0
  3 23  1  0  0  0  0
  3 24  1  0  0  0  0
  3 25  1  0  0  0  0
  4 19  1  0  0  0  0
  4  5  2  0  0  0  0
  5  6  1  0  0  0  0
  5 26  1  0  0  0  0
  6  7  2  0  0  0  0
  6 27  1  0  0  0  0
  7  8  1  0  0  0  0
  7 18  1  0  0  0  0
  8  9  1  0  0  0  0
  8 28  1  0  0  0  0
  9 10  2  0  0  0  0
  9 11  1  0  0  0  0
 11 12  1  0  0  0  0
 11 29  1  0  0  0  0
 12 13  1  0  0  0  0
 12 30  1  0  0  0  0
 12 31  1  0  0  0  0
 13 17  1  0  0  0  0
 13 14  1  0  0  0  0
 13 32  1  0  0  0  0
 14 15  1  0  0  0  0
 14 33  1  0  0  0  0
 14 34  1  0  0  0  0
 15 16  1  0  0  0  0
 15 35  1  0  0  0  0
 15 36  1  0  0  0  0
 16 17  1  0  0  0  0
 17 37  1  0  0  0  0
 17 38  1  0  0  0  0
 18 19  2  0  0  0  0
 18 39  1  0  0  0  0
M  END
> <s_m_source_file>
AV-unprocessed.smi

> <i_m_source_file_index>
1392

> <i_lp_mmshare_version>
43012

> <i_f3d_flags>
0

> <s_epik_input>
W0NIM11OKFtDSDNdKWMxW2NIXVtjSF1jKFtjSF1uMSlbTkhdQyg9TylbTkhdW0NIMl1bQ0BASF0yW0NIMl1bQ0gyXU9bQ0gyXTI=

> <s_epik_cmdline>
J2VwaWtfcHl0aG9uJywgJy1waCcsICc3LjAnLCAnLXRuJywgJzgnLCAnLW1hJywgJzIwMCcsICctbWV0YWxfYmluZGluZycsICctaW1hZScsICc8aW5maWxlLm1hZT4nLCAnLW9tYWUnLCAnPG91dGZpbGUubWFlPic=

> <r_lp_tautomer_probability>
1

> <r_epik_Ionization_Penalty>
0.612298

> <r_epik_Ionization_Penalty_Charging>
0

> <r_epik_Ionization_Penalty_Neutral>
0.612298

> <r_epik_State_Penalty>
0.626495

> <r_epik_Charging_Adjusted_Penalty>
0.626495

> <i_epik_Tot_Q>
0

> <i_epik_Tot_abs_Q>
0

> <r_epik_Metal_State_Penalty>
0.304101

> <b_epik_Metal_Only>
0

> <s_lp_Force_Field>
OPLS_2005

> <r_lp_Energy>
22.6053

> <b_lp_Chiralities_Consistent>
1

> <s_lp_Variant>
AV-unprocessed.smi:1392-3

> <Gold.Version>
5.8.1

> <Gold.Id.Protein>
6NUR|6NUR_protein|mol2

> <Gold.PLP.Fitness>
43.0978

> <Gold.PLP.PLP>
-39.6145

> <Gold.PLP.part.hbond>
-2.0000

> <Gold.PLP.part.metal>
0.0000

> <Gold.PLP.part.buried>
-3.2466

> <Gold.PLP.part.nonpolar>
-34.2731

> <Gold.PLP.part.repulsive>
0.3912

> <Gold.PLP.ligand.clash>
0.0000

> <Gold.PLP.ligand.torsion>
1.2498

> <Gold.PLP.Chemscore.Hbond>
1.9920

> <Gold.PLP.Chemscore.CHOScore>
0.0000

> <Gold.PLP.Chemscore.Metal>
0.0000

> <Gold.Chemscore.Hbonds>
donor molecule, donor type, donor heavy atom, donor atom, acceptor molecule, acceptor atom, score
      L1  H     8    28       P1  8028  1.00
      L1  H    11    29       P1  8028  1.00

> <Gold.PLP.Chemscore.Internal.Correction>
0.0069

> <Gold.Rescore>
     Score         DG    S(hbond)    S(metal)    S(lipo)     H(rot)  DE(clash)    DE(int)     intcor
     16.08     -18.90       1.91        0.00      86.72       1.21       0.37       2.45       ----

> <Gold.Chemscore.Fitness>
16.0835

> <Gold.Chemscore.DG>
-18.8962

> <Gold.Chemscore.ZeroCoef>
-5.4800

> <Gold.Chemscore.Hbond>
1.9099

> <Gold.Chemscore.Metal>
0.0000

> <Gold.Chemscore.Lipo>
86.7226

> <Gold.Chemscore.Internal_Hbond>
0.0000

> <Gold.Chemscore.DEClash>
0.3672

> <Gold.Chemscore.DEInternal>
2.4455

> <Gold.Chemscore.Rot>
1.2146

> <Gold.Chemscore.Internal.Correction>
   9.000000E+99

> <Gold.Chemscore.Hbonds>
donor molecule, donor type, donor heavy atom, donor atom, acceptor molecule, acceptor atom, score
      L1  H     8    28       P1  8028  0.99
      L1  H    11    29       P1  8028  0.95

> <Gold.Chemscore.Hbond.Weighted>
-6.3790

> <Gold.Chemscore.Metal.Weighted>
-0.0000

> <Gold.Chemscore.Lipo.Weighted>
-10.1465

> <Gold.Chemscore.Internal_Hbond.Weighted>
0.0000

> <Gold.Chemscore.DEClash.Weighted>
0.3672

> <Gold.Chemscore.DEInternal.Weighted>
2.4455

> <Gold.Chemscore.Rot.Weighted>
3.1093

> <Gold.Chemscore.Internal.Correction.Weighted>
   9.000000E+99

> <Gold.Protein.RotatedTorsions>
[ 6907 6896 6895 6894 ] final  136.14 input  -60.11 | X-H torsion
[ 7974 7965 7964 7962 ] final   94.16 input  175.53 | X-H torsion
[ 8008 7997 7996 7995 ] final   97.48 input   59.86 | X-H torsion
[ 10167 10162 10161 10158 ] final -125.24 input  -65.29 | X-H torsion
[ 10718 10713 10712 10709 ] final   44.46 input   66.30 | X-H torsion
[ 10763 10752 10751 10750 ] final   38.52 input  -60.55 | X-H torsion
[ 11005 11000 10999 10996 ] final  -69.40 input  -57.11 | X-H torsion

> <Gold.Protein.ActiveResidues>
 VAL166  LYS551  ARG553  GLY616  TRP617  ASP618  TYR619  PRO620  LYS621  CYS622 
 ASP623  PHE694  ASN695  SER759  ASP760  ASP761  ALA762  ILE779  LEU786  VAL792 
 PHE793  MET794  SER795  GLU796  ALA797  LYS798  CYS799  TRP800  GLU811  SER814 

> <Gold.Protein.RotatedAtoms>
  152.2927  133.5577  159.5567 H   0  0  0  0  0  0  0  0  0  0  0  0  # atno 6907 bound_to 6896
  150.7242  134.0405  159.3773 H   0  0  0  0  0  0  0  0  0  0  0  0  # atno 6908 bound_to 6896
  151.8310  135.0622  160.0487 H   0  0  0  0  0  0  0  0  0  0  0  0  # atno 6909 bound_to 6896
  145.4692  139.2283  143.2944 H   0  0  0  0  0  0  0  0  0  0  0  0  # atno 7974 bound_to 7965
  156.0905  140.3258  155.7810 H   0  0  0  0  0  0  0  0  0  0  0  0  # atno 8008 bound_to 7997
  155.5004  140.0568  157.2957 H   0  0  0  0  0  0  0  0  0  0  0  0  # atno 8009 bound_to 7997
  154.4635  140.1978  156.0197 H   0  0  0  0  0  0  0  0  0  0  0  0  # atno 8010 bound_to 7997
  139.9842  143.5710  152.2367 H   0  0  0  0  0  0  0  0  0  0  0  0  # atno 10167 bound_to 10162
  157.4271  130.8003  149.7568 H   0  0  0  0  0  0  0  0  0  0  0  0  # atno 10718 bound_to 10713
  152.9998  135.6247  154.2318 H   0  0  0  0  0  0  0  0  0  0  0  0  # atno 10763 bound_to 10752
  154.2060  135.2802  155.2976 H   0  0  0  0  0  0  0  0  0  0  0  0  # atno 10764 bound_to 10752
  154.5645  135.5695  153.7096 H   0  0  0  0  0  0  0  0  0  0  0  0  # atno 10765 bound_to 10752
  141.1553  133.6763  156.6594 H   0  0  0  0  0  0  0  0  0  0  0  0  # atno 11005 bound_to 11000
  146.2406  140.5469  142.8935 LP  0  0  0  0  0  0  0  0  0  0  0  0  # atno 17320 bound_to 7965
  144.7955  140.6115  143.6513 LP  0  0  0  0  0  0  0  0  0  0  0  0  # atno 17321 bound_to 7965
  139.6387  144.7652  151.2384 LP  0  0  0  0  0  0  0  0  0  0  0  0  # atno 17342 bound_to 10162
  140.7478  143.6354  150.8384 LP  0  0  0  0  0  0  0  0  0  0  0  0  # atno 17343 bound_to 10162
  155.9900  130.3948  150.3048 LP  0  0  0  0  0  0  0  0  0  0  0  0  # atno 17370 bound_to 10713
  157.1201  131.0244  151.3013 LP  0  0  0  0  0  0  0  0  0  0  0  0  # atno 17371 bound_to 10713
  140.3259  134.7969  157.4288 LP  0  0  0  0  0  0  0  0  0  0  0  0  # atno 17394 bound_to 11000
  140.1057  134.5412  155.8311 LP  0  0  0  0  0  0  0  0  0  0  0  0  # atno 17395 bound_to 11000

$$$$
