AV-unprocessed.smi:55|AV-procd|sdf|565|dock3
  -GOLD-   2262016473D 1   1.00000     0.00000
 Structure written by MMmdl.
 31 32  0  0  0  0  0  0  0  0  1 V2000
  146.5427  141.9774  153.9366 C   0  0  0  0  0  0  0  0  0  0  0  0
  147.7149  141.0152  154.0340 C   0  0  0  0  0  0  0  0  0  0  0  0
  148.7912  141.2575  154.8251 C   0  0  0  0  0  0  0  0  0  0  0  0
  149.8760  140.3992  154.9365 N   0  0  0  0  0  0  0  0  0  0  0  0
  151.0454  140.7318  155.8355 C   0  0  2  0  0  0  0  0  0  0  0  0
  151.0595  139.8273  157.0723 C   0  0  0  0  0  0  0  0  0  0  0  0
  151.4711  140.7896  158.1688 C   0  0  1  0  0  0  0  0  0  0  0  0
  152.8815  140.8624  158.2647 O   0  0  0  0  0  0  0  0  0  0  0  0
  150.8486  142.1090  157.6898 C   0  0  1  0  0  0  0  0  0  0  0  0
  151.4715  143.4091  158.2274 C   0  0  0  0  0  0  0  0  0  0  0  0
  150.6964  144.5225  157.8361 O   0  0  0  0  0  0  0  0  0  0  0  0
  150.9245  142.0564  156.2670 O   0  0  0  0  0  0  0  0  0  0  0  0
  149.8756  139.1887  154.2122 C   0  0  0  0  0  0  0  0  0  0  0  0
  150.7860  138.3638  154.2801 O   0  0  0  0  0  0  0  0  0  0  0  0
  148.7727  138.9407  153.3966 N   0  0  0  0  0  0  0  0  0  0  0  0
  147.6678  139.7820  153.2441 C   0  0  0  0  0  0  0  0  0  0  0  0
  146.7535  139.4534  152.4898 O   0  0  0  0  0  0  0  0  0  0  0  0
  151.9597  140.6662  155.2440 H   0  0  0  0  0  0  0  0  0  0  0  0
  151.0775  140.4881  159.1399 H   0  0  0  0  0  0  0  0  0  0  0  0
  149.7884  142.0968  157.9470 H   0  0  0  0  0  0  0  0  0  0  0  0
  148.7700  138.0769  152.8736 H   0  0  0  0  0  0  0  0  0  0  0  0
  146.6884  142.8572  154.5640 H   0  0  0  0  0  0  0  0  0  0  0  0
  145.6214  141.4884  154.2550 H   0  0  0  0  0  0  0  0  0  0  0  0
  146.4130  142.3178  152.9086 H   0  0  0  0  0  0  0  0  0  0  0  0
  148.7976  142.1694  155.4027 H   0  0  0  0  0  0  0  0  0  0  0  0
  150.0530  139.4533  157.2660 H   0  0  0  0  0  0  0  0  0  0  0  0
  151.7299  138.9773  156.9387 H   0  0  0  0  0  0  0  0  0  0  0  0
  153.2551  140.4345  157.5090 H   0  0  0  0  0  0  0  0  0  0  0  0
  151.5688  143.3896  159.3129 H   0  0  0  0  0  0  0  0  0  0  0  0
  152.4758  143.5334  157.8219 H   0  0  0  0  0  0  0  0  0  0  0  0
  150.0076  144.2223  157.2628 H   0  0  0  0  0  0  0  0  0  0  0  0
  1  2  1  0  0  0  0
  1 22  1  0  0  0  0
  1 23  1  0  0  0  0
  1 24  1  0  0  0  0
  2 16  1  0  0  0  0
  2  3  2  0  0  0  0
  3  4  1  0  0  0  0
  3 25  1  0  0  0  0
  4  5  1  0  0  0  0
  4 13  1  0  0  0  0
  5 18  1  0  0  0  0
  5 12  1  0  0  0  0
  5  6  1  0  0  0  0
  6  7  1  0  0  0  0
  6 26  1  0  0  0  0
  6 27  1  0  0  0  0
  7 19  1  0  0  0  0
  7  8  1  0  0  0  0
  7  9  1  0  0  0  0
  8 28  1  0  0  0  0
  9 20  1  0  0  0  0
  9 10  1  0  0  0  0
  9 12  1  0  0  0  0
 10 11  1  0  0  0  0
 10 29  1  0  0  0  0
 10 30  1  0  0  0  0
 11 31  1  0  0  0  0
 13 14  2  0  0  0  0
 13 15  1  0  0  0  0
 15 21  1  0  0  0  0
 15 16  1  0  0  0  0
 16 17  2  0  0  0  0
M  END
> <s_m_source_file>
AV-unprocessed.smi

> <i_m_source_file_index>
55

> <i_lp_mmshare_version>
43012

> <i_f3d_flags>
0

> <s_epik_input>
Tz1jMVtuSF1jKD1PKW4oW2NIXWMxW0NIM10pW0NAQEhdMltDSDJdW0NAQEhdKFtPSF0pW0NAQEhdKE8yKVtDSDJdW09IXQ==

> <s_epik_cmdline>
J2VwaWtfcHl0aG9uJywgJy1waCcsICc3LjAnLCAnLXRuJywgJzgnLCAnLW1hJywgJzIwMCcsICctbWV0YWxfYmluZGluZycsICctaW1hZScsICc8aW5maWxlLm1hZT4nLCAnLW9tYWUnLCAnPG91dGZpbGUubWFlPic=

> <r_lp_tautomer_probability>
0.999537

> <r_epik_Ionization_Penalty>
0.00121888

> <r_epik_Ionization_Penalty_Charging>
0.00121876

> <r_epik_Ionization_Penalty_Neutral>
1.19946e-07

> <r_epik_State_Penalty>
0.000805124

> <r_epik_Charging_Adjusted_Penalty>
0.00202389

> <i_epik_Tot_Q>
0

> <i_epik_Tot_abs_Q>
0

> <r_epik_Metal_State_Penalty>
0.662472

> <b_epik_Metal_Only>
0

> <s_epik_Chemistry_Notes>
This compound contains an acetal/aminal-like group ( X-CH(R)-Y where X, Y are N, S, or O) that may be acid/base labile, releasing an aldehyde.

> <s_lp_Force_Field>
OPLS_2005

> <r_lp_Energy>
27.6975

> <b_lp_Chiralities_Consistent>
1

> <s_lp_Variant>
AV-unprocessed.smi:55-5

> <Gold.Version>
5.8.1

> <Gold.Id.Protein>
6NUR|6NUR_protein|mol2

> <Gold.PLP.Fitness>
39.0334

> <Gold.PLP.PLP>
-31.0287

> <Gold.PLP.part.hbond>
-3.5609

> <Gold.PLP.part.metal>
0.0000

> <Gold.PLP.part.buried>
-2.3094

> <Gold.PLP.part.nonpolar>
-25.6357

> <Gold.PLP.part.repulsive>
0.8715

> <Gold.PLP.ligand.clash>
0.0000

> <Gold.PLP.ligand.torsion>
0.2310

> <Gold.PLP.Chemscore.Hbond>
1.8215

> <Gold.PLP.Chemscore.CHOScore>
1.0000

> <Gold.PLP.Chemscore.Metal>
0.0000

> <Gold.Chemscore.Hbonds>
donor molecule, donor type, donor heavy atom, donor atom, acceptor molecule, acceptor atom, score
      L1  H    11    31       P1  8028  0.85
      L1  H    15    21       P1  7948  0.86
      L1  C     3    25       P1  8028  0.93

> <Gold.PLP.Chemscore.Internal.Correction>
0.0022

> <Gold.Rescore>
     Score         DG    S(hbond)    S(metal)    S(lipo)     H(rot)  DE(clash)    DE(int)     intcor
      9.39     -10.39       1.81        0.00      49.92       2.73       0.65       0.35       ----

> <Gold.Chemscore.Fitness>
9.3918

> <Gold.Chemscore.DG>
-10.3883

> <Gold.Chemscore.ZeroCoef>
-5.4800

> <Gold.Chemscore.Hbond>
1.8096

> <Gold.Chemscore.Metal>
0.0000

> <Gold.Chemscore.Lipo>
49.9235

> <Gold.Chemscore.Internal_Hbond>
0.0000

> <Gold.Chemscore.DEClash>
0.6467

> <Gold.Chemscore.DEInternal>
0.3499

> <Gold.Chemscore.Rot>
2.7253

> <Gold.Chemscore.Internal.Correction>
   9.000000E+99

> <Gold.Chemscore.Hbonds>
donor molecule, donor type, donor heavy atom, donor atom, acceptor molecule, acceptor atom, score
      L1  H    11    31       P1  8028  0.54
      L1  H    15    21       P1  7948  0.84

> <Gold.Chemscore.Hbond.Weighted>
-6.0441

> <Gold.Chemscore.Metal.Weighted>
-0.0000

> <Gold.Chemscore.Lipo.Weighted>
-5.8410

> <Gold.Chemscore.Internal_Hbond.Weighted>
0.0000

> <Gold.Chemscore.DEClash.Weighted>
0.6467

> <Gold.Chemscore.DEInternal.Weighted>
0.3499

> <Gold.Chemscore.Rot.Weighted>
6.9769

> <Gold.Chemscore.Internal.Correction.Weighted>
   9.000000E+99

> <Gold.Protein.RotatedTorsions>
[ 6907 6896 6895 6894 ] final  124.91 input  -60.11 | X-H torsion
[ 7974 7965 7964 7962 ] final  -16.39 input  175.53 | X-H torsion
[ 8008 7997 7996 7995 ] final   63.27 input   59.86 | X-H torsion
[ 10167 10162 10161 10158 ] final   16.64 input  -65.29 | X-H torsion
[ 10718 10713 10712 10709 ] final  136.10 input   66.30 | X-H torsion
[ 10763 10752 10751 10750 ] final  152.62 input  -60.55 | X-H torsion
[ 11005 11000 10999 10996 ] final   24.49 input  -57.11 | X-H torsion

> <Gold.Protein.ActiveResidues>
 VAL166  LYS551  ARG553  GLY616  TRP617  ASP618  TYR619  PRO620  LYS621  CYS622 
 ASP623  PHE694  ASN695  SER759  ASP760  ASP761  ALA762  ILE779  LEU786  VAL792 
 PHE793  MET794  SER795  GLU796  ALA797  LYS798  CYS799  TRP800  GLU811  SER814 

> <Gold.Protein.RotatedAtoms>
  152.4038  133.6857  159.6338 H   0  0  0  0  0  0  0  0  0  0  0  0  # atno 6907 bound_to 6896
  150.7925  133.8745  159.3277 H   0  0  0  0  0  0  0  0  0  0  0  0  # atno 6908 bound_to 6896
  151.6505  135.1004  160.0211 H   0  0  0  0  0  0  0  0  0  0  0  0  # atno 6909 bound_to 6896
  146.1990  140.3629  142.8430 H   0  0  0  0  0  0  0  0  0  0  0  0  # atno 7974 bound_to 7965
  155.6276  140.3496  155.4672 H   0  0  0  0  0  0  0  0  0  0  0  0  # atno 8008 bound_to 7997
  156.0029  140.1217  157.0553 H   0  0  0  0  0  0  0  0  0  0  0  0  # atno 8009 bound_to 7997
  154.4255  140.1097  156.5708 H   0  0  0  0  0  0  0  0  0  0  0  0  # atno 8010 bound_to 7997
  140.5783  143.9031  150.6768 H   0  0  0  0  0  0  0  0  0  0  0  0  # atno 10167 bound_to 10162
  157.4502  131.1065  151.0042 H   0  0  0  0  0  0  0  0  0  0  0  0  # atno 10718 bound_to 10713
  154.1229  135.2831  155.3204 H   0  0  0  0  0  0  0  0  0  0  0  0  # atno 10763 bound_to 10752
  154.6410  135.5402  153.7792 H   0  0  0  0  0  0  0  0  0  0  0  0  # atno 10764 bound_to 10752
  153.0306  135.6486  154.1383 H   0  0  0  0  0  0  0  0  0  0  0  0  # atno 10765 bound_to 10752
  140.3581  134.2155  155.7674 H   0  0  0  0  0  0  0  0  0  0  0  0  # atno 11005 bound_to 11000
  144.8641  140.7181  143.6088 LP  0  0  0  0  0  0  0  0  0  0  0  0  # atno 17320 bound_to 7965
  145.3549  139.1696  143.4414 LP  0  0  0  0  0  0  0  0  0  0  0  0  # atno 17321 bound_to 7965
  140.2523  143.3584  152.1395 LP  0  0  0  0  0  0  0  0  0  0  0  0  # atno 17342 bound_to 10162
  139.5155  144.6963  151.5619 LP  0  0  0  0  0  0  0  0  0  0  0  0  # atno 17343 bound_to 10162
  157.0875  130.5928  149.5433 LP  0  0  0  0  0  0  0  0  0  0  0  0  # atno 17370 bound_to 10713
  155.9984  130.5058  150.7569 LP  0  0  0  0  0  0  0  0  0  0  0  0  # atno 17371 bound_to 10713
  141.1992  133.8017  157.0547 LP  0  0  0  0  0  0  0  0  0  0  0  0  # atno 17394 bound_to 11000
  140.0648  134.9735  157.1367 LP  0  0  0  0  0  0  0  0  0  0  0  0  # atno 17395 bound_to 11000

$$$$
