AV-unprocessed.smi:3164|AV-procd|sdf|12083|dock7
  -GOLD-   2272017513D 1   1.00000     0.00000
 Structure written by MMmdl.
 39 40  0  0  0  0  0  0  0  0  2 V2000
  150.2737  139.5487  155.4063 C   0  0  0  0  0  0  0  0  0  0  0  0
  148.9383  139.9084  154.9530 N   0  0  0  0  0  0  0  0  0  0  0  0
  148.8583  141.3147  154.5810 C   0  0  0  0  0  0  0  0  0  0  0  0
  147.4510  141.6915  154.0883 C   0  0  0  0  0  0  0  0  0  0  0  0
  147.0793  140.8391  153.0085 O   0  0  0  0  0  0  0  0  0  0  0  0
  147.0899  139.4559  153.3568 C   0  0  1  0  0  0  0  0  0  0  0  0
  146.6622  138.6450  152.1259 C   0  0  0  0  0  0  0  0  0  0  0  0
  146.6488  137.1996  152.4235 N   0  3  0  0  0  0  0  0  0  0  0  0
  145.4691  136.4840  151.8965 C   0  0  0  0  0  0  0  0  0  0  0  0
  145.4260  135.0279  152.3866 C   0  0  0  0  0  0  0  0  0  0  0  0
  145.3147  134.0242  151.2523 C   0  0  0  0  0  0  0  0  0  0  0  0
  144.0956  133.8445  150.5639 C   0  0  0  0  0  0  0  0  0  0  0  0
  144.0451  132.8934  149.5260 C   0  0  0  0  0  0  0  0  0  0  0  0
  145.2086  132.1619  149.2199 C   0  0  0  0  0  0  0  0  0  0  0  0
  146.3760  132.4149  149.9673 C   0  0  0  0  0  0  0  0  0  0  0  0
  146.4344  133.3236  150.9651 N   0  0  0  0  0  0  0  0  0  0  0  0
  148.5073  139.0803  153.8343 C   0  0  0  0  0  0  0  0  0  0  0  0
  150.5693  140.1591  156.2604 H   0  0  0  0  0  0  0  0  0  0  0  0
  151.0113  139.6920  154.6154 H   0  0  0  0  0  0  0  0  0  0  0  0
  150.3081  138.5043  155.7178 H   0  0  0  0  0  0  0  0  0  0  0  0
  149.1250  141.9396  155.4342 H   0  0  0  0  0  0  0  0  0  0  0  0
  149.5844  141.5321  153.7960 H   0  0  0  0  0  0  0  0  0  0  0  0
  146.7225  141.6059  154.8961 H   0  0  0  0  0  0  0  0  0  0  0  0
  147.4321  142.7271  153.7483 H   0  0  0  0  0  0  0  0  0  0  0  0
  146.3789  139.2824  154.1672 H   0  0  0  0  0  0  0  0  0  0  0  0
  145.6748  138.9606  151.7860 H   0  0  0  0  0  0  0  0  0  0  0  0
  147.3592  138.8261  151.3066 H   0  0  0  0  0  0  0  0  0  0  0  0
  147.4777  136.7818  152.0248 H   0  0  0  0  0  0  0  0  0  0  0  0
  144.5648  137.0040  152.2143 H   0  0  0  0  0  0  0  0  0  0  0  0
  145.4870  136.5117  150.8061 H   0  0  0  0  0  0  0  0  0  0  0  0
  146.3145  134.8092  152.9804 H   0  0  0  0  0  0  0  0  0  0  0  0
  144.5753  134.8930  153.0560 H   0  0  0  0  0  0  0  0  0  0  0  0
  143.2187  134.4205  150.8209 H   0  0  0  0  0  0  0  0  0  0  0  0
  143.1310  132.7281  148.9751 H   0  0  0  0  0  0  0  0  0  0  0  0
  145.2079  131.4257  148.4295 H   0  0  0  0  0  0  0  0  0  0  0  0
  147.2862  131.8725  149.7592 H   0  0  0  0  0  0  0  0  0  0  0  0
  149.2098  139.1861  153.0057 H   0  0  0  0  0  0  0  0  0  0  0  0
  148.5268  138.0297  154.1268 H   0  0  0  0  0  0  0  0  0  0  0  0
  146.6784  137.0808  153.4264 H   0  0  0  0  0  0  0  0  0  0  0  0
  1  2  1  0  0  0  0
  1 18  1  0  0  0  0
  1 19  1  0  0  0  0
  1 20  1  0  0  0  0
  2 17  1  0  0  0  0
  2  3  1  0  0  0  0
  3  4  1  0  0  0  0
  3 21  1  0  0  0  0
  3 22  1  0  0  0  0
  4  5  1  0  0  0  0
  4 23  1  0  0  0  0
  4 24  1  0  0  0  0
  5  6  1  0  0  0  0
  6  7  1  0  0  0  0
  6 17  1  0  0  0  0
  6 25  1  0  0  0  0
  7  8  1  0  0  0  0
  7 26  1  0  0  0  0
  7 27  1  0  0  0  0
  8  9  1  0  0  0  0
  8 28  1  0  0  0  0
  8 39  1  0  0  0  0
  9 10  1  0  0  0  0
  9 29  1  0  0  0  0
  9 30  1  0  0  0  0
 10 11  1  0  0  0  0
 10 31  1  0  0  0  0
 10 32  1  0  0  0  0
 11 16  1  0  0  0  0
 11 12  2  0  0  0  0
 12 13  1  0  0  0  0
 12 33  1  0  0  0  0
 13 14  2  0  0  0  0
 13 34  1  0  0  0  0
 14 15  1  0  0  0  0
 14 35  1  0  0  0  0
 15 16  2  0  0  0  0
 15 36  1  0  0  0  0
 17 37  1  0  0  0  0
 17 38  1  0  0  0  0
M  CHG  1   8   1
M  END
> <s_m_source_file>
AV-unprocessed.smi

> <i_m_source_file_index>
3164

> <i_lp_mmshare_version>
43012

> <i_f3d_flags>
0

> <s_epik_input>
W0NIM11OMVtDSDJdW0NIMl1PW0NASF0oW0NIMl0xKVtDSDJdW05IXVtDSDJdW0NIMl1jMltjSF1bY0hdW2NIXVtjSF1uMg==

> <s_epik_cmdline>
J2VwaWtfcHl0aG9uJywgJy1waCcsICc3LjAnLCAnLXRuJywgJzgnLCAnLW1hJywgJzIwMCcsICctbWV0YWxfYmluZGluZycsICctaW1hZScsICc8aW5maWxlLm1hZT4nLCAnLW9tYWUnLCAnPG91dGZpbGUubWFlPic=

> <r_epik_Ionization_Penalty>
0.584284

> <r_epik_Ionization_Penalty_Charging>
0.00270218

> <r_epik_Ionization_Penalty_Neutral>
0.581582

> <r_epik_State_Penalty>
0.593163

> <r_epik_Charging_Adjusted_Penalty>
0.595865

> <i_epik_Tot_Q>
1

> <i_epik_Tot_abs_Q>
1

> <r_epik_Metal_State_Penalty>
0.593163

> <b_epik_Metal_Only>
0

> <s_lp_Force_Field>
OPLS_2005

> <r_lp_Energy>
22.7337

> <b_lp_Chiralities_Consistent>
1

> <s_lp_Variant>
AV-unprocessed.smi:3164-5

> <Gold.Version>
5.8.1

> <Gold.Id.Protein>
6NUR|6NUR_protein|mol2

> <Gold.PLP.Fitness>
40.9782

> <Gold.PLP.PLP>
-33.6551

> <Gold.PLP.part.hbond>
-0.9630

> <Gold.PLP.part.metal>
0.0000

> <Gold.PLP.part.buried>
-1.6063

> <Gold.PLP.part.nonpolar>
-32.4772

> <Gold.PLP.part.repulsive>
0.5454

> <Gold.PLP.ligand.clash>
0.0000

> <Gold.PLP.ligand.torsion>
0.8633

> <Gold.PLP.Chemscore.Hbond>
2.0000

> <Gold.PLP.Chemscore.CHOScore>
1.0000

> <Gold.PLP.Chemscore.Metal>
0.0000

> <Gold.Chemscore.Hbonds>
donor molecule, donor type, donor heavy atom, donor atom, acceptor molecule, acceptor atom, score
      L1  H     8    28       P1  7948  2.00
      L1  C    15    36       P1 10747  0.97

> <Gold.PLP.Chemscore.Internal.Correction>
0.0497

> <Gold.Rescore>
     Score         DG    S(hbond)    S(metal)    S(lipo)     H(rot)  DE(clash)    DE(int)     intcor
     15.18     -16.19       0.98        0.00      97.91       1.57       0.32       0.69       ----

> <Gold.Chemscore.Fitness>
15.1794

> <Gold.Chemscore.DG>
-16.1941

> <Gold.Chemscore.ZeroCoef>
-5.4800

> <Gold.Chemscore.Hbond>
0.9833

> <Gold.Chemscore.Metal>
0.0000

> <Gold.Chemscore.Lipo>
97.9115

> <Gold.Chemscore.Internal_Hbond>
0.0000

> <Gold.Chemscore.DEClash>
0.3200

> <Gold.Chemscore.DEInternal>
0.6947

> <Gold.Chemscore.Rot>
1.5726

> <Gold.Chemscore.Internal.Correction>
   9.000000E+99

> <Gold.Chemscore.Hbonds>
donor molecule, donor type, donor heavy atom, donor atom, acceptor molecule, acceptor atom, score
      L1  H     8    28       P1  7948  0.97

> <Gold.Chemscore.Hbond.Weighted>
-3.2844

> <Gold.Chemscore.Metal.Weighted>
-0.0000

> <Gold.Chemscore.Lipo.Weighted>
-11.4556

> <Gold.Chemscore.Internal_Hbond.Weighted>
0.0000

> <Gold.Chemscore.DEClash.Weighted>
0.3200

> <Gold.Chemscore.DEInternal.Weighted>
0.6947

> <Gold.Chemscore.Rot.Weighted>
4.0259

> <Gold.Chemscore.Internal.Correction.Weighted>
   9.000000E+99

> <Gold.Protein.RotatedTorsions>
[ 6907 6896 6895 6894 ] final -130.23 input  -60.11 | X-H torsion
[ 7974 7965 7964 7962 ] final   38.74 input  175.53 | X-H torsion
[ 8008 7997 7996 7995 ] final -160.65 input   59.86 | X-H torsion
[ 10167 10162 10161 10158 ] final   83.30 input  -65.29 | X-H torsion
[ 10718 10713 10712 10709 ] final   38.20 input   66.30 | X-H torsion
[ 10763 10752 10751 10750 ] final  170.76 input  -60.55 | X-H torsion
[ 11005 11000 10999 10996 ] final  161.34 input  -57.11 | X-H torsion

> <Gold.Protein.ActiveResidues>
 VAL166  LYS551  ARG553  GLY616  TRP617  ASP618  TYR619  PRO620  LYS621  CYS622 
 ASP623  PHE694  ASN695  SER759  ASP760  ASP761  ALA762  ILE779  LEU786  VAL792 
 PHE793  MET794  SER795  GLU796  ALA797  LYS798  CYS799  TRP800  GLU811  SER814 

> <Gold.Protein.RotatedAtoms>
  150.9374  133.6696  159.2797 H   0  0  0  0  0  0  0  0  0  0  0  0  # atno 6907 bound_to 6896
  151.4096  135.0982  159.9591 H   0  0  0  0  0  0  0  0  0  0  0  0  # atno 6908 bound_to 6896
  152.5054  133.8850  159.7420 H   0  0  0  0  0  0  0  0  0  0  0  0  # atno 6909 bound_to 6896
  146.1039  139.5736  142.9396 H   0  0  0  0  0  0  0  0  0  0  0  0  # atno 7974 bound_to 7965
  155.7806  140.0864  157.2061 H   0  0  0  0  0  0  0  0  0  0  0  0  # atno 8008 bound_to 7997
  154.3990  140.1508  156.3105 H   0  0  0  0  0  0  0  0  0  0  0  0  # atno 8009 bound_to 7997
  155.8658  140.3428  155.5790 H   0  0  0  0  0  0  0  0  0  0  0  0  # atno 8010 bound_to 7997
  139.9198  144.6219  150.8451 H   0  0  0  0  0  0  0  0  0  0  0  0  # atno 10167 bound_to 10162
  157.3560  130.7624  149.7013 H   0  0  0  0  0  0  0  0  0  0  0  0  # atno 10718 bound_to 10713
  154.4023  135.2755  155.2089 H   0  0  0  0  0  0  0  0  0  0  0  0  # atno 10763 bound_to 10752
  154.4110  135.6022  153.5956 H   0  0  0  0  0  0  0  0  0  0  0  0  # atno 10764 bound_to 10752
  152.9831  135.5949  154.4292 H   0  0  0  0  0  0  0  0  0  0  0  0  # atno 10765 bound_to 10752
  140.2148  134.8240  157.3159 H   0  0  0  0  0  0  0  0  0  0  0  0  # atno 11005 bound_to 11000
  145.5800  141.0383  143.2127 LP  0  0  0  0  0  0  0  0  0  0  0  0  # atno 17320 bound_to 7965
  144.7454  139.7333  143.7294 LP  0  0  0  0  0  0  0  0  0  0  0  0  # atno 17321 bound_to 7965
  140.7665  143.3305  151.2421 LP  0  0  0  0  0  0  0  0  0  0  0  0  # atno 17342 bound_to 10162
  139.6871  143.9755  152.2840 LP  0  0  0  0  0  0  0  0  0  0  0  0  # atno 17343 bound_to 10162
  155.9729  130.4127  150.4046 LP  0  0  0  0  0  0  0  0  0  0  0  0  # atno 17370 bound_to 10713
  157.2116  131.0461  151.2596 LP  0  0  0  0  0  0  0  0  0  0  0  0  # atno 17371 bound_to 10713
  140.1912  134.4369  155.7715 LP  0  0  0  0  0  0  0  0  0  0  0  0  # atno 17394 bound_to 11000
  141.2225  133.7028  156.8030 LP  0  0  0  0  0  0  0  0  0  0  0  0  # atno 17395 bound_to 11000

$$$$
