AV-unprocessed.smi:2226|AV-procd|sdf|9009|dock1
  -GOLD-   2272012213D 1   1.00000     0.00000
 Structure written by MMmdl.
 40 42  0  0  0  0  0  0  0  0  2 V2000
  146.7954  138.9819  152.5328 C   0  0  0  0  0  0  0  0  0  0  0  0
  146.4740  140.0668  153.4904 N   0  3  2  0  0  0  0  0  0  0  0  0
  147.3140  141.2812  153.3605 C   0  0  2  0  0  0  0  0  0  0  0  0
  148.7661  141.0192  153.8336 C   0  0  0  0  0  0  0  0  0  0  0  0
  148.8694  140.3801  155.2304 C   0  0  0  0  0  0  0  0  0  0  0  0
  147.8063  139.2927  155.4664 C   0  0  0  0  0  0  0  0  0  0  0  0
  146.4042  139.6456  154.9099 C   0  0  1  0  0  0  0  0  0  0  0  0
  145.6257  140.7121  155.7153 C   0  0  0  0  0  0  0  0  0  0  0  0
  146.0547  142.1861  155.4755 C   0  0  1  0  0  0  0  0  0  0  0  0
  146.9632  142.6902  156.5025 N   0  0  0  0  0  0  0  0  0  0  0  0
  146.7750  142.6314  157.8300 C   0  0  0  0  0  0  0  0  0  0  0  0
  145.7630  142.1182  158.3178 O   0  0  0  0  0  0  0  0  0  0  0  0
  147.8608  143.1913  158.4862 N   0  0  0  0  0  0  0  0  0  0  0  0
  147.6618  143.9369  159.5289 C   0  0  0  0  0  0  0  0  0  0  0  0
  148.6132  144.5863  160.2992 N   0  0  0  0  0  0  0  0  0  0  0  0
  147.9654  145.2549  161.3012 C   0  0  0  0  0  0  0  0  0  0  0  0
  146.6605  145.0348  161.1696 C   0  0  0  0  0  0  0  0  0  0  0  0
  146.4413  144.2295  160.0931 O   0  0  0  0  0  0  0  0  0  0  0  0
  146.5972  142.4653  154.0505 C   0  0  0  0  0  0  0  0  0  0  0  0
  147.7938  138.5744  152.6896 H   0  0  0  0  0  0  0  0  0  0  0  0
  146.7385  139.3505  151.5084 H   0  0  0  0  0  0  0  0  0  0  0  0
  146.0788  138.1659  152.6286 H   0  0  0  0  0  0  0  0  0  0  0  0
  147.3677  141.5356  152.3008 H   0  0  0  0  0  0  0  0  0  0  0  0
  149.2514  140.3552  153.1178 H   0  0  0  0  0  0  0  0  0  0  0  0
  149.3433  141.9438  153.8065 H   0  0  0  0  0  0  0  0  0  0  0  0
  149.8628  139.9491  155.3586 H   0  0  0  0  0  0  0  0  0  0  0  0
  148.8069  141.1412  156.0007 H   0  0  0  0  0  0  0  0  0  0  0  0
  148.1485  138.3713  154.9946 H   0  0  0  0  0  0  0  0  0  0  0  0
  147.7416  139.0651  156.5310 H   0  0  0  0  0  0  0  0  0  0  0  0
  145.8066  138.7339  154.9563 H   0  0  0  0  0  0  0  0  0  0  0  0
  144.5799  140.6331  155.4151 H   0  0  0  0  0  0  0  0  0  0  0  0
  145.6302  140.4638  156.7773 H   0  0  0  0  0  0  0  0  0  0  0  0
  145.1552  142.7973  155.5747 H   0  0  0  0  0  0  0  0  0  0  0  0
  147.8161  143.1217  156.1766 H   0  0  0  0  0  0  0  0  0  0  0  0
  149.6161  144.5928  160.1818 H   0  0  0  0  0  0  0  0  0  0  0  0
  148.5235  145.8334  162.0226 H   0  0  0  0  0  0  0  0  0  0  0  0
  145.7998  145.3630  161.7334 H   0  0  0  0  0  0  0  0  0  0  0  0
  147.2291  143.3545  154.0405 H   0  0  0  0  0  0  0  0  0  0  0  0
  145.7403  142.7225  153.4262 H   0  0  0  0  0  0  0  0  0  0  0  0
  145.5375  140.3553  153.2454 H   0  0  0  0  0  0  0  0  0  0  0  0
  1  2  1  0  0  0  0
  1 20  1  0  0  0  0
  1 21  1  0  0  0  0
  1 22  1  0  0  0  0
  2  7  1  0  0  0  0
  2  3  1  0  0  0  0
  2 40  1  0  0  0  0
  3 19  1  0  0  0  0
  3  4  1  0  0  0  0
  3 23  1  0  0  0  0
  4  5  1  0  0  0  0
  4 24  1  0  0  0  0
  4 25  1  0  0  0  0
  5  6  1  0  0  0  0
  5 26  1  0  0  0  0
  5 27  1  0  0  0  0
  6  7  1  0  0  0  0
  6 28  1  0  0  0  0
  6 29  1  0  0  0  0
  7  8  1  0  0  0  0
  7 30  1  0  0  0  0
  8  9  1  0  0  0  0
  8 31  1  0  0  0  0
  8 32  1  0  0  0  0
  9 10  1  0  0  0  0
  9 19  1  0  0  0  0
  9 33  1  0  0  0  0
 10 34  1  0  0  0  0
 10 11  1  0  0  0  0
 11 13  1  0  0  0  0
 11 12  2  0  0  0  0
 13 14  2  0  0  0  0
 14 18  1  0  0  0  0
 14 15  1  0  0  0  0
 15 35  1  0  0  0  0
 15 16  1  0  0  0  0
 16 36  1  0  0  0  0
 16 17  2  0  0  0  0
 17 37  1  0  0  0  0
 17 18  1  0  0  0  0
 19 38  1  0  0  0  0
 19 39  1  0  0  0  0
M  CHG  1   2   1
M  END
> <s_m_source_file>
AV-unprocessed.smi

> <i_m_source_file_index>
2226

> <i_lp_mmshare_version>
43012

> <i_f3d_flags>
0

> <s_epik_input>
W0NIMl0xW0NIMl1bQ0gyXVtDQEhdKE4oW0NIM10pW0NIXTEyKVtDSDJdW0NASF0oW0NIMl0yKVtOSF1DKD1PKVtOSF1jM25bY0hdW2NIXW8z

> <s_epik_cmdline>
J2VwaWtfcHl0aG9uJywgJy1waCcsICc3LjAnLCAnLXRuJywgJzgnLCAnLW1hJywgJzIwMCcsICctbWV0YWxfYmluZGluZycsICctaW1hZScsICc8aW5maWxlLm1hZT4nLCAnLW9tYWUnLCAnPG91dGZpbGUubWFlPic=

> <r_lp_tautomer_probability>
0.107061

> <r_epik_Ionization_Penalty>
1.08307

> <r_epik_Ionization_Penalty_Charging>
1.08272

> <r_epik_Ionization_Penalty_Neutral>
0.000345913

> <r_epik_State_Penalty>
2.5744

> <r_epik_Charging_Adjusted_Penalty>
3.65713

> <i_epik_Tot_Q>
1

> <i_epik_Tot_abs_Q>
1

> <r_epik_Metal_State_Penalty>
3.72133

> <b_epik_Metal_Only>
0

> <s_lp_Force_Field>
OPLS_2005

> <r_lp_Energy>
58.5529

> <b_lp_Chiralities_Consistent>
1

> <s_lp_Variant>
AV-unprocessed.smi:2226-9

> <Gold.Version>
5.8.1

> <Gold.Id.Protein>
6NUR|6NUR_protein|mol2

> <Gold.PLP.Fitness>
35.2279

> <Gold.PLP.PLP>
-26.8951

> <Gold.PLP.part.hbond>
-2.0000

> <Gold.PLP.part.metal>
0.0000

> <Gold.PLP.part.buried>
-2.1281

> <Gold.PLP.part.nonpolar>
-22.4316

> <Gold.PLP.part.repulsive>
0.5544

> <Gold.PLP.ligand.clash>
0.0000

> <Gold.PLP.ligand.torsion>
0.3597

> <Gold.PLP.Chemscore.Hbond>
3.0000

> <Gold.PLP.Chemscore.CHOScore>
0.0000

> <Gold.PLP.Chemscore.Metal>
0.0000

> <Gold.Chemscore.Hbonds>
donor molecule, donor type, donor heavy atom, donor atom, acceptor molecule, acceptor atom, score
      L1  H     2    40       P1 10175  2.00
      L1  H    10    34       P1  8028  0.95

> <Gold.PLP.Chemscore.Internal.Correction>
0.0522

> <Gold.Rescore>
     Score         DG    S(hbond)    S(metal)    S(lipo)     H(rot)  DE(clash)    DE(int)     intcor
      9.95     -13.17       1.03        0.00      58.17       1.00       0.28       2.93       ----

> <Gold.Chemscore.Fitness>
9.9513

> <Gold.Chemscore.DG>
-13.1663

> <Gold.Chemscore.ZeroCoef>
-5.4800

> <Gold.Chemscore.Hbond>
1.0300

> <Gold.Chemscore.Metal>
0.0000

> <Gold.Chemscore.Lipo>
58.1710

> <Gold.Chemscore.Internal_Hbond>
0.0000

> <Gold.Chemscore.DEClash>
0.2802

> <Gold.Chemscore.DEInternal>
2.9348

> <Gold.Chemscore.Rot>
1.0000

> <Gold.Chemscore.Internal.Correction>
   9.000000E+99

> <Gold.Chemscore.Hbonds>
donor molecule, donor type, donor heavy atom, donor atom, acceptor molecule, acceptor atom, score
      L1  H     2    40       P1 10175  0.93
      L1  H    10    34       P1  8028  0.20

> <Gold.Chemscore.Hbond.Weighted>
-3.4403

> <Gold.Chemscore.Metal.Weighted>
-0.0000

> <Gold.Chemscore.Lipo.Weighted>
-6.8060

> <Gold.Chemscore.Internal_Hbond.Weighted>
0.0000

> <Gold.Chemscore.DEClash.Weighted>
0.2802

> <Gold.Chemscore.DEInternal.Weighted>
2.9348

> <Gold.Chemscore.Rot.Weighted>
2.5600

> <Gold.Chemscore.Internal.Correction.Weighted>
   9.000000E+99

> <Gold.Protein.RotatedTorsions>
[ 6907 6896 6895 6894 ] final  169.11 input  -60.11 | X-H torsion
[ 7974 7965 7964 7962 ] final   69.45 input  175.53 | X-H torsion
[ 8008 7997 7996 7995 ] final -149.58 input   59.86 | X-H torsion
[ 10167 10162 10161 10158 ] final -138.58 input  -65.29 | X-H torsion
[ 10718 10713 10712 10709 ] final -165.84 input   66.30 | X-H torsion
[ 10763 10752 10751 10750 ] final  -27.28 input  -60.55 | X-H torsion
[ 11005 11000 10999 10996 ] final  -41.14 input  -57.11 | X-H torsion

> <Gold.Protein.ActiveResidues>
 VAL166  LYS551  ARG553  GLY616  TRP617  ASP618  TYR619  PRO620  LYS621  CYS622 
 ASP623  PHE694  ASN695  SER759  ASP760  ASP761  ALA762  ILE779  LEU786  VAL792 
 PHE793  MET794  SER795  GLU796  ALA797  LYS798  CYS799  TRP800  GLU811  SER814 

> <Gold.Protein.RotatedAtoms>
  151.8370  133.3417  159.3630 H   0  0  0  0  0  0  0  0  0  0  0  0  # atno 6907 bound_to 6896
  150.7246  134.5428  159.5765 H   0  0  0  0  0  0  0  0  0  0  0  0  # atno 6908 bound_to 6896
  152.2893  134.7740  160.0432 H   0  0  0  0  0  0  0  0  0  0  0  0  # atno 6909 bound_to 6896
  145.7903  139.2930  143.1214 H   0  0  0  0  0  0  0  0  0  0  0  0  # atno 7974 bound_to 7965
  155.6100  140.0670  157.2709 H   0  0  0  0  0  0  0  0  0  0  0  0  # atno 8008 bound_to 7997
  154.4256  140.1803  156.1310 H   0  0  0  0  0  0  0  0  0  0  0  0  # atno 8009 bound_to 7997
  156.0093  140.3328  155.6927 H   0  0  0  0  0  0  0  0  0  0  0  0  # atno 8010 bound_to 7997
  139.8464  143.7255  152.2660 H   0  0  0  0  0  0  0  0  0  0  0  0  # atno 10167 bound_to 10162
  156.6592  130.9039  151.3026 H   0  0  0  0  0  0  0  0  0  0  0  0  # atno 10718 bound_to 10713
  153.7295  135.6939  153.4993 H   0  0  0  0  0  0  0  0  0  0  0  0  # atno 10763 bound_to 10752
  153.2146  135.4391  155.0418 H   0  0  0  0  0  0  0  0  0  0  0  0  # atno 10764 bound_to 10752
  154.8258  135.3445  154.6825 H   0  0  0  0  0  0  0  0  0  0  0  0  # atno 10765 bound_to 10752
  141.0225  133.6856  156.2417 H   0  0  0  0  0  0  0  0  0  0  0  0  # atno 11005 bound_to 11000
  145.9984  140.8542  143.0031 LP  0  0  0  0  0  0  0  0  0  0  0  0  # atno 17320 bound_to 7965
  144.6783  140.2316  143.7354 LP  0  0  0  0  0  0  0  0  0  0  0  0  # atno 17321 bound_to 7965
  139.7508  144.7534  151.0509 LP  0  0  0  0  0  0  0  0  0  0  0  0  # atno 17342 bound_to 10162
  140.7792  143.4862  150.9953 LP  0  0  0  0  0  0  0  0  0  0  0  0  # atno 17343 bound_to 10162
  157.7115  130.9446  150.1106 LP  0  0  0  0  0  0  0  0  0  0  0  0  # atno 17370 bound_to 10713
  156.2024  130.3661  149.8772 LP  0  0  0  0  0  0  0  0  0  0  0  0  # atno 17371 bound_to 10713
  140.6549  134.5029  157.5580 LP  0  0  0  0  0  0  0  0  0  0  0  0  # atno 17394 bound_to 11000
  139.9155  134.8256  156.1382 LP  0  0  0  0  0  0  0  0  0  0  0  0  # atno 17395 bound_to 11000

$$$$
