AV-unprocessed.smi:1340|AV-procd|sdf|5504|dock6
  -GOLD-   22720 5 83D 1   1.00000     0.00000
 Structure written by MMmdl.
 40 41  0  0  0  0  0  0  0  0  1 V2000
  152.7154  144.7461  157.8883 C   0  0  0  0  0  0  0  0  0  0  0  0
  152.1777  144.3499  159.2677 C   0  0  0  0  0  0  0  0  0  0  0  0
  151.6376  142.9093  159.2973 C   0  0  0  0  0  0  0  0  0  0  0  0
  152.7365  141.8332  159.3893 C   0  0  1  0  0  0  0  0  0  0  0  0
  153.5142  141.9376  160.7118 C   0  0  0  0  0  0  0  0  0  0  0  0
  152.1527  140.5004  159.2519 N   0  0  0  0  0  0  0  0  0  0  0  0
  152.8143  139.3943  158.8769 C   0  0  0  0  0  0  0  0  0  0  0  0
  154.0174  139.3864  158.6121 O   0  0  0  0  0  0  0  0  0  0  0  0
  151.9848  138.1060  158.8093 C   0  0  0  0  0  0  0  0  0  0  0  0
  150.6181  138.3538  158.2355 C   0  0  0  0  0  0  0  0  0  0  0  0
  149.4127  138.0855  158.8371 C   0  0  0  0  0  0  0  0  0  0  0  0
  148.0646  138.5257  157.8259 S   0  0  0  0  0  0  0  0  0  0  0  0
  149.2090  139.0780  156.5991 C   0  0  0  0  0  0  0  0  0  0  0  0
  148.8821  139.6386  155.3287 N   0  0  0  0  0  0  0  0  0  0  0  0
  147.5277  140.0800  155.0111 C   0  0  0  0  0  0  0  0  0  0  0  0
  147.6390  140.6049  153.5829 C   0  0  0  0  0  0  0  0  0  0  0  0
  149.0351  140.3857  153.2869 N   0  0  0  0  0  0  0  0  0  0  0  0
  149.7205  139.8354  154.2917 C   0  0  0  0  0  0  0  0  0  0  0  0
  150.9190  139.5658  154.2388 O   0  0  0  0  0  0  0  0  0  0  0  0
  150.4864  138.9240  156.9645 N   0  0  0  0  0  0  0  0  0  0  0  0
  153.0880  145.7706  157.8964 H   0  0  0  0  0  0  0  0  0  0  0  0
  151.9359  144.6820  157.1287 H   0  0  0  0  0  0  0  0  0  0  0  0
  153.5358  144.0960  157.5835 H   0  0  0  0  0  0  0  0  0  0  0  0
  152.9736  144.4666  160.0038 H   0  0  0  0  0  0  0  0  0  0  0  0
  151.3866  145.0429  159.5561 H   0  0  0  0  0  0  0  0  0  0  0  0
  150.9686  142.8040  160.1526 H   0  0  0  0  0  0  0  0  0  0  0  0
  151.0256  142.7328  158.4118 H   0  0  0  0  0  0  0  0  0  0  0  0
  153.4361  141.9995  158.5677 H   0  0  0  0  0  0  0  0  0  0  0  0
  153.9634  142.9245  160.8248 H   0  0  0  0  0  0  0  0  0  0  0  0
  154.3211  141.2056  160.7578 H   0  0  0  0  0  0  0  0  0  0  0  0
  152.8628  141.7689  161.5700 H   0  0  0  0  0  0  0  0  0  0  0  0
  151.1673  140.4144  159.4544 H   0  0  0  0  0  0  0  0  0  0  0  0
  152.5273  137.3810  158.2018 H   0  0  0  0  0  0  0  0  0  0  0  0
  151.9028  137.6712  159.8068 H   0  0  0  0  0  0  0  0  0  0  0  0
  149.2376  137.6505  159.8098 H   0  0  0  0  0  0  0  0  0  0  0  0
  146.8255  139.2476  155.0760 H   0  0  0  0  0  0  0  0  0  0  0  0
  147.2060  140.8627  155.6997 H   0  0  0  0  0  0  0  0  0  0  0  0
  147.0069  140.0482  152.8902 H   0  0  0  0  0  0  0  0  0  0  0  0
  147.3948  141.6653  153.5151 H   0  0  0  0  0  0  0  0  0  0  0  0
  149.4441  140.6304  152.3965 H   0  0  0  0  0  0  0  0  0  0  0  0
  1  2  1  0  0  0  0
  1 21  1  0  0  0  0
  1 22  1  0  0  0  0
  1 23  1  0  0  0  0
  2  3  1  0  0  0  0
  2 24  1  0  0  0  0
  2 25  1  0  0  0  0
  3  4  1  0  0  0  0
  3 26  1  0  0  0  0
  3 27  1  0  0  0  0
  4  5  1  0  0  0  0
  4  6  1  0  0  0  0
  4 28  1  0  0  0  0
  5 29  1  0  0  0  0
  5 30  1  0  0  0  0
  5 31  1  0  0  0  0
  6  7  1  0  0  0  0
  6 32  1  0  0  0  0
  7  8  2  0  0  0  0
  7  9  1  0  0  0  0
  9 10  1  0  0  0  0
  9 33  1  0  0  0  0
  9 34  1  0  0  0  0
 10 20  1  0  0  0  0
 10 11  2  0  0  0  0
 11 12  1  0  0  0  0
 11 35  1  0  0  0  0
 12 13  1  0  0  0  0
 13 14  1  0  0  0  0
 13 20  2  0  0  0  0
 14 18  1  0  0  0  0
 14 15  1  0  0  0  0
 15 16  1  0  0  0  0
 15 36  1  0  0  0  0
 15 37  1  0  0  0  0
 16 17  1  0  0  0  0
 16 38  1  0  0  0  0
 16 39  1  0  0  0  0
 17 18  1  0  0  0  0
 17 40  1  0  0  0  0
 18 19  2  0  0  0  0
M  END
> <s_m_source_file>
AV-unprocessed.smi

> <i_m_source_file_index>
1340

> <i_lp_mmshare_version>
43012

> <i_f3d_flags>
0

> <s_epik_input>
W0NIM11bQ0gyXVtDSDJdW0NASF0oW0NIM10pW05IXUMoPU8pW0NIMl1jMVtjSF1zYyhuMSlOMltDSDJdW0NIMl1bTkhdQzI9Tw==

> <s_epik_cmdline>
J2VwaWtfcHl0aG9uJywgJy1waCcsICc3LjAnLCAnLXRuJywgJzgnLCAnLW1hJywgJzIwMCcsICctbWV0YWxfYmluZGluZycsICctaW1hZScsICc8aW5maWxlLm1hZT4nLCAnLW9tYWUnLCAnPG91dGZpbGUubWFlPic=

> <r_lp_tautomer_probability>
1

> <r_epik_Ionization_Penalty>
0.00012151

> <r_epik_Ionization_Penalty_Charging>
0

> <r_epik_Ionization_Penalty_Neutral>
0.00012151

> <r_epik_State_Penalty>
-0

> <r_epik_Charging_Adjusted_Penalty>
0

> <i_epik_Tot_Q>
0

> <i_epik_Tot_abs_Q>
0

> <r_epik_Metal_State_Penalty>
-0

> <b_epik_Metal_Only>
0

> <s_lp_Force_Field>
OPLS_2005

> <r_lp_Energy>
32.5305

> <b_lp_Chiralities_Consistent>
1

> <s_lp_Variant>
AV-unprocessed.smi:1340-2

> <Gold.Version>
5.8.1

> <Gold.Id.Protein>
6NUR|6NUR_protein|mol2

> <Gold.PLP.Fitness>
42.1007

> <Gold.PLP.PLP>
-34.6136

> <Gold.PLP.part.hbond>
-2.7455

> <Gold.PLP.part.metal>
0.0000

> <Gold.PLP.part.buried>
-5.1791

> <Gold.PLP.part.nonpolar>
-26.9602

> <Gold.PLP.part.repulsive>
0.4242

> <Gold.PLP.ligand.clash>
0.0000

> <Gold.PLP.ligand.torsion>
0.7477

> <Gold.PLP.Chemscore.Hbond>
2.9760

> <Gold.PLP.Chemscore.CHOScore>
0.0000

> <Gold.PLP.Chemscore.Metal>
0.0000

> <Gold.Chemscore.Hbonds>
donor molecule, donor type, donor heavy atom, donor atom, acceptor molecule, acceptor atom, score
      L1  H    17    40       P1  7957  0.46
      P1  H  7989  7998       L1    19  1.00
      P1  H  7997  8008       L1     8  1.00

> <Gold.PLP.Chemscore.Internal.Correction>
0.0545

> <Gold.Rescore>
     Score         DG    S(hbond)    S(metal)    S(lipo)     H(rot)  DE(clash)    DE(int)     intcor
     17.80     -19.79       2.95        0.00      80.15       1.92       0.06       1.93       ----

> <Gold.Chemscore.Fitness>
17.7997

> <Gold.Chemscore.DG>
-19.7928

> <Gold.Chemscore.ZeroCoef>
-5.4800

> <Gold.Chemscore.Hbond>
2.9472

> <Gold.Chemscore.Metal>
0.0000

> <Gold.Chemscore.Lipo>
80.1546

> <Gold.Chemscore.Internal_Hbond>
0.0000

> <Gold.Chemscore.DEClash>
0.0641

> <Gold.Chemscore.DEInternal>
1.9290

> <Gold.Chemscore.Rot>
1.9176

> <Gold.Chemscore.Internal.Correction>
   9.000000E+99

> <Gold.Chemscore.Hbonds>
donor molecule, donor type, donor heavy atom, donor atom, acceptor molecule, acceptor atom, score
      L1  H    17    40       P1  7957  0.46
      P1  H  7989  7998       L1    19  0.55
      P1  H  7997  8008       L1     8  1.00

> <Gold.Chemscore.Hbond.Weighted>
-9.8438

> <Gold.Chemscore.Metal.Weighted>
-0.0000

> <Gold.Chemscore.Lipo.Weighted>
-9.3781

> <Gold.Chemscore.Internal_Hbond.Weighted>
0.0000

> <Gold.Chemscore.DEClash.Weighted>
0.0641

> <Gold.Chemscore.DEInternal.Weighted>
1.9290

> <Gold.Chemscore.Rot.Weighted>
4.9091

> <Gold.Chemscore.Internal.Correction.Weighted>
   9.000000E+99

> <Gold.Protein.RotatedTorsions>
[ 6907 6896 6895 6894 ] final -131.14 input  -60.11 | X-H torsion
[ 7974 7965 7964 7962 ] final   81.10 input  175.53 | X-H torsion
[ 8008 7997 7996 7995 ] final -111.46 input   59.86 | X-H torsion
[ 10167 10162 10161 10158 ] final   89.02 input  -65.29 | X-H torsion
[ 10718 10713 10712 10709 ] final  175.21 input   66.30 | X-H torsion
[ 10763 10752 10751 10750 ] final -135.59 input  -60.55 | X-H torsion
[ 11005 11000 10999 10996 ] final  175.59 input  -57.11 | X-H torsion

> <Gold.Protein.ActiveResidues>
 VAL166  LYS551  ARG553  GLY616  TRP617  ASP618  TYR619  PRO620  LYS621  CYS622 
 ASP623  PHE694  ASN695  SER759  ASP760  ASP761  ALA762  ILE779  LEU786  VAL792 
 PHE793  MET794  SER795  GLU796  ALA797  LYS798  CYS799  TRP800  GLU811  SER814 

> <Gold.Protein.RotatedAtoms>
  150.9476  133.6585  159.2777 H   0  0  0  0  0  0  0  0  0  0  0  0  # atno 6907 bound_to 6896
  151.3952  135.0961  159.9548 H   0  0  0  0  0  0  0  0  0  0  0  0  # atno 6908 bound_to 6896
  152.5096  133.8982  159.7483 H   0  0  0  0  0  0  0  0  0  0  0  0  # atno 6909 bound_to 6896
  145.6426  139.2429  143.2022 H   0  0  0  0  0  0  0  0  0  0  0  0  # atno 7974 bound_to 7965
  154.9902  140.0395  157.2316 H   0  0  0  0  0  0  0  0  0  0  0  0  # atno 8008 bound_to 7997
  154.7635  140.2789  155.6172 H   0  0  0  0  0  0  0  0  0  0  0  0  # atno 8009 bound_to 7997
  156.2908  140.2624  156.2420 H   0  0  0  0  0  0  0  0  0  0  0  0  # atno 8010 bound_to 7997
  139.8614  144.6542  150.9053 H   0  0  0  0  0  0  0  0  0  0  0  0  # atno 10167 bound_to 10162
  156.9382  130.9993  151.2974 H   0  0  0  0  0  0  0  0  0  0  0  0  # atno 10718 bound_to 10713
  154.8700  135.3698  154.4923 H   0  0  0  0  0  0  0  0  0  0  0  0  # atno 10763 bound_to 10752
  153.5569  135.7023  153.5570 H   0  0  0  0  0  0  0  0  0  0  0  0  # atno 10764 bound_to 10752
  153.3663  135.4033  155.1720 H   0  0  0  0  0  0  0  0  0  0  0  0  # atno 10765 bound_to 10752
  140.3638  134.7089  157.4348 H   0  0  0  0  0  0  0  0  0  0  0  0  # atno 11005 bound_to 11000
  146.1269  140.7237  142.9431 LP  0  0  0  0  0  0  0  0  0  0  0  0  # atno 17320 bound_to 7965
  144.7152  140.4183  143.7050 LP  0  0  0  0  0  0  0  0  0  0  0  0  # atno 17321 bound_to 7965
  140.7774  143.3741  151.1596 LP  0  0  0  0  0  0  0  0  0  0  0  0  # atno 17342 bound_to 10162
  139.7370  143.8984  152.3038 LP  0  0  0  0  0  0  0  0  0  0  0  0  # atno 17343 bound_to 10162
  157.5802  130.8371  149.8512 LP  0  0  0  0  0  0  0  0  0  0  0  0  # atno 17370 bound_to 10713
  156.0416  130.3737  150.1421 LP  0  0  0  0  0  0  0  0  0  0  0  0  # atno 17371 bound_to 10713
  140.0605  134.6002  155.8754 LP  0  0  0  0  0  0  0  0  0  0  0  0  # atno 17394 bound_to 11000
  141.1976  133.6597  156.5748 LP  0  0  0  0  0  0  0  0  0  0  0  0  # atno 17395 bound_to 11000

$$$$
