AV-unprocessed.smi:1791|AV-procd|sdf|7221|dock6
  -GOLD-   22720 8463D 1   1.00000     0.00000
 Structure written by MMmdl.
 38 39  0  0  0  0  0  0  0  0  1 V2000
  151.5259  142.0696  157.6825 C   0  0  0  0  0  0  0  0  0  0  0  0
  150.9928  141.9475  156.3683 O   0  0  0  0  0  0  0  0  0  0  0  0
  150.6640  140.6885  155.9094 C   0  0  0  0  0  0  0  0  0  0  0  0
  150.5766  139.6332  156.8392 C   0  0  0  0  0  0  0  0  0  0  0  0
  150.2412  138.3454  156.3791 C   0  0  0  0  0  0  0  0  0  0  0  0
  150.0093  138.1523  154.9963 C   0  0  0  0  0  0  0  0  0  0  0  0
  149.6406  136.9104  154.4132 N   0  0  0  0  0  0  0  0  0  0  0  0
  149.4242  135.7320  155.0217 C   0  0  0  0  0  0  0  0  0  0  0  0
  149.5651  135.5171  156.2254 O   0  0  0  0  0  0  0  0  0  0  0  0
  149.0536  134.7955  154.1366 N   0  0  0  0  0  0  0  0  0  0  0  0
  148.7423  133.3999  154.4416 C   0  0  1  0  0  0  0  0  0  0  0  0
  147.7872  133.3577  155.6433 C   0  0  0  0  0  0  0  0  0  0  0  0
  148.1394  132.7043  153.2048 C   0  0  1  0  0  0  0  0  0  0  0  0
  147.4527  131.3666  153.4838 C   0  0  0  0  0  0  0  0  0  0  0  0
  146.4896  131.2172  152.3178 C   0  0  0  0  0  0  0  0  0  0  0  0
  146.3531  132.6390  151.7639 C   0  0  0  0  0  0  0  0  0  0  0  0
  147.0720  133.4690  152.6669 O   0  0  0  0  0  0  0  0  0  0  0  0
  150.1085  139.2765  154.1510 C   0  0  0  0  0  0  0  0  0  0  0  0
  150.4316  140.5129  154.5850 N   0  0  0  0  0  0  0  0  0  0  0  0
  151.7397  143.1181  157.8889 H   0  0  0  0  0  0  0  0  0  0  0  0
  152.4593  141.5153  157.7892 H   0  0  0  0  0  0  0  0  0  0  0  0
  150.8150  141.7227  158.4340 H   0  0  0  0  0  0  0  0  0  0  0  0
  150.7582  139.8093  157.8892 H   0  0  0  0  0  0  0  0  0  0  0  0
  150.1536  137.5418  157.0937 H   0  0  0  0  0  0  0  0  0  0  0  0
  149.5745  136.9084  153.4060 H   0  0  0  0  0  0  0  0  0  0  0  0
  148.9766  135.0697  153.1682 H   0  0  0  0  0  0  0  0  0  0  0  0
  149.6519  132.8681  154.7265 H   0  0  0  0  0  0  0  0  0  0  0  0
  147.5624  132.3303  155.9305 H   0  0  0  0  0  0  0  0  0  0  0  0
  146.8426  133.8545  155.4196 H   0  0  0  0  0  0  0  0  0  0  0  0
  148.2261  133.8508  156.5112 H   0  0  0  0  0  0  0  0  0  0  0  0
  148.9013  132.5733  152.4335 H   0  0  0  0  0  0  0  0  0  0  0  0
  148.1552  130.5365  153.5628 H   0  0  0  0  0  0  0  0  0  0  0  0
  146.8901  131.4216  154.4169 H   0  0  0  0  0  0  0  0  0  0  0  0
  146.8953  130.5512  151.5553 H   0  0  0  0  0  0  0  0  0  0  0  0
  145.5321  130.8100  152.6444 H   0  0  0  0  0  0  0  0  0  0  0  0
  146.8048  132.7093  150.7737 H   0  0  0  0  0  0  0  0  0  0  0  0
  145.3141  132.9597  151.6869 H   0  0  0  0  0  0  0  0  0  0  0  0
  149.9266  139.1828  153.0903 H   0  0  0  0  0  0  0  0  0  0  0  0
  1  2  1  0  0  0  0
  1 20  1  0  0  0  0
  1 21  1  0  0  0  0
  1 22  1  0  0  0  0
  2  3  1  0  0  0  0
  3 19  1  0  0  0  0
  3  4  2  0  0  0  0
  4  5  1  0  0  0  0
  4 23  1  0  0  0  0
  5  6  2  0  0  0  0
  5 24  1  0  0  0  0
  6  7  1  0  0  0  0
  6 18  1  0  0  0  0
  7  8  1  0  0  0  0
  7 25  1  0  0  0  0
  8  9  2  0  0  0  0
  8 10  1  0  0  0  0
 10 11  1  0  0  0  0
 10 26  1  0  0  0  0
 11 12  1  0  0  0  0
 11 13  1  0  0  0  0
 11 27  1  0  0  0  0
 12 28  1  0  0  0  0
 12 29  1  0  0  0  0
 12 30  1  0  0  0  0
 13 17  1  0  0  0  0
 13 14  1  0  0  0  0
 13 31  1  0  0  0  0
 14 15  1  0  0  0  0
 14 32  1  0  0  0  0
 14 33  1  0  0  0  0
 15 16  1  0  0  0  0
 15 34  1  0  0  0  0
 15 35  1  0  0  0  0
 16 17  1  0  0  0  0
 16 36  1  0  0  0  0
 16 37  1  0  0  0  0
 18 19  2  0  0  0  0
 18 38  1  0  0  0  0
M  END
> <s_m_source_file>
AV-unprocessed.smi

> <i_m_source_file_index>
1791

> <i_lp_mmshare_version>
43012

> <i_f3d_flags>
0

> <s_epik_input>
W0NIM11PYzFbY0hdW2NIXWMoW2NIXW4xKVtOSF1DKD1PKVtOSF1bQ0BIXShbQ0gzXSlbQ0BASF0yW0NIMl1bQ0gyXVtDSDJdTzI=

> <s_epik_cmdline>
J2VwaWtfcHl0aG9uJywgJy1waCcsICc3LjAnLCAnLXRuJywgJzgnLCAnLW1hJywgJzIwMCcsICctbWV0YWxfYmluZGluZycsICctaW1hZScsICc8aW5maWxlLm1hZT4nLCAnLW9tYWUnLCAnPG91dGZpbGUubWFlPic=

> <r_lp_tautomer_probability>
1

> <r_epik_Ionization_Penalty>
9.18737e-05

> <r_epik_Ionization_Penalty_Charging>
0

> <r_epik_Ionization_Penalty_Neutral>
9.18737e-05

> <r_epik_State_Penalty>
-0

> <r_epik_Charging_Adjusted_Penalty>
0

> <i_epik_Tot_Q>
0

> <i_epik_Tot_abs_Q>
0

> <r_epik_Metal_State_Penalty>
-0

> <b_epik_Metal_Only>
0

> <s_lp_Force_Field>
OPLS_2005

> <r_lp_Energy>
20.4699

> <b_lp_Chiralities_Consistent>
1

> <s_lp_Variant>
AV-unprocessed.smi:1791-4

> <Gold.Version>
5.8.1

> <Gold.Id.Protein>
6NUR|6NUR_protein|mol2

> <Gold.PLP.Fitness>
36.8979

> <Gold.PLP.PLP>
-25.8740

> <Gold.PLP.part.hbond>
-3.0000

> <Gold.PLP.part.metal>
0.0000

> <Gold.PLP.part.buried>
-0.8237

> <Gold.PLP.part.nonpolar>
-19.9494

> <Gold.PLP.part.repulsive>
0.3817

> <Gold.PLP.ligand.clash>
0.0946

> <Gold.PLP.ligand.torsion>
0.4431

> <Gold.PLP.Chemscore.Hbond>
2.9920

> <Gold.PLP.Chemscore.CHOScore>
1.0000

> <Gold.PLP.Chemscore.Metal>
0.0000

> <Gold.Chemscore.Hbonds>
donor molecule, donor type, donor heavy atom, donor atom, acceptor molecule, acceptor atom, score
      L1  H     7    25       P1  7948  1.00
      L1  H    10    26       P1  7948  1.00
      P1  H  7989  7998       L1    19  0.99
      L1  C    18    38       P1  7957  1.00

> <Gold.PLP.Chemscore.Internal.Correction>
0.0287

> <Gold.Rescore>
     Score         DG    S(hbond)    S(metal)    S(lipo)     H(rot)  DE(clash)    DE(int)     intcor
     13.83     -16.64       2.66        0.00      51.60       1.47       0.01       2.80       ----

> <Gold.Chemscore.Fitness>
13.8290

> <Gold.Chemscore.DG>
-16.6352

> <Gold.Chemscore.ZeroCoef>
-5.4800

> <Gold.Chemscore.Hbond>
2.6585

> <Gold.Chemscore.Metal>
0.0000

> <Gold.Chemscore.Lipo>
51.5979

> <Gold.Chemscore.Internal_Hbond>
0.0000

> <Gold.Chemscore.DEClash>
0.0106

> <Gold.Chemscore.DEInternal>
2.7955

> <Gold.Chemscore.Rot>
1.4693

> <Gold.Chemscore.Internal.Correction>
   9.000000E+99

> <Gold.Chemscore.Hbonds>
donor molecule, donor type, donor heavy atom, donor atom, acceptor molecule, acceptor atom, score
      L1  H     7    25       P1  7948  0.72
      L1  H    10    26       P1  7948  0.25
      P1  H  7989  7998       L1    19  0.23

> <Gold.Chemscore.Hbond.Weighted>
-8.8795

> <Gold.Chemscore.Metal.Weighted>
-0.0000

> <Gold.Chemscore.Lipo.Weighted>
-6.0370

> <Gold.Chemscore.Internal_Hbond.Weighted>
0.0000

> <Gold.Chemscore.DEClash.Weighted>
0.0106

> <Gold.Chemscore.DEInternal.Weighted>
2.7955

> <Gold.Chemscore.Rot.Weighted>
3.7613

> <Gold.Chemscore.Internal.Correction.Weighted>
   9.000000E+99

> <Gold.Protein.RotatedTorsions>
[ 6907 6896 6895 6894 ] final   18.06 input  -60.11 | X-H torsion
[ 7974 7965 7964 7962 ] final  -46.22 input  175.53 | X-H torsion
[ 8008 7997 7996 7995 ] final   59.83 input   59.86 | X-H torsion
[ 10167 10162 10161 10158 ] final  131.36 input  -65.29 | X-H torsion
[ 10718 10713 10712 10709 ] final  -47.29 input   66.30 | X-H torsion
[ 10763 10752 10751 10750 ] final  105.04 input  -60.55 | X-H torsion
[ 11005 11000 10999 10996 ] final  -39.10 input  -57.11 | X-H torsion

> <Gold.Protein.ActiveResidues>
 VAL166  LYS551  ARG553  GLY616  TRP617  ASP618  TYR619  PRO620  LYS621  CYS622 
 ASP623  PHE694  ASN695  SER759  ASP760  ASP761  ALA762  ILE779  LEU786  VAL792 
 PHE793  MET794  SER795  GLU796  ALA797  LYS798  CYS799  TRP800  GLU811  SER814 

> <Gold.Protein.RotatedAtoms>
  151.8594  135.0529  160.0467 H   0  0  0  0  0  0  0  0  0  0  0  0  # atno 6907 bound_to 6896
  152.2674  133.5347  159.5427 H   0  0  0  0  0  0  0  0  0  0  0  0  # atno 6908 bound_to 6896
  150.7139  134.0661  159.3890 H   0  0  0  0  0  0  0  0  0  0  0  0  # atno 6909 bound_to 6896
  145.9741  140.7353  142.9396 H   0  0  0  0  0  0  0  0  0  0  0  0  # atno 7974 bound_to 7965
  155.5725  140.3490  155.4519 H   0  0  0  0  0  0  0  0  0  0  0  0  # atno 8008 bound_to 7997
  156.0433  140.1301  157.0156 H   0  0  0  0  0  0  0  0  0  0  0  0  # atno 8009 bound_to 7997
  154.4401  140.1019  156.6255 H   0  0  0  0  0  0  0  0  0  0  0  0  # atno 8010 bound_to 7997
  139.5388  144.6709  151.4696 H   0  0  0  0  0  0  0  0  0  0  0  0  # atno 10167 bound_to 10162
  156.2098  130.4160  149.9129 H   0  0  0  0  0  0  0  0  0  0  0  0  # atno 10718 bound_to 10713
  153.3741  135.3923  155.1809 H   0  0  0  0  0  0  0  0  0  0  0  0  # atno 10763 bound_to 10752
  154.8698  135.3709  154.4941 H   0  0  0  0  0  0  0  0  0  0  0  0  # atno 10764 bound_to 10752
  153.5411  135.7084  153.5697 H   0  0  0  0  0  0  0  0  0  0  0  0  # atno 10765 bound_to 10752
  141.0077  133.6923  156.2142 H   0  0  0  0  0  0  0  0  0  0  0  0  # atno 11005 bound_to 11000
  144.6844  140.2798  143.7294 LP  0  0  0  0  0  0  0  0  0  0  0  0  # atno 17320 bound_to 7965
  145.7864  139.1910  143.2128 LP  0  0  0  0  0  0  0  0  0  0  0  0  # atno 17321 bound_to 7965
  140.6607  143.8504  150.6885 LP  0  0  0  0  0  0  0  0  0  0  0  0  # atno 17342 bound_to 10162
  140.1897  143.4046  152.1872 LP  0  0  0  0  0  0  0  0  0  0  0  0  # atno 17343 bound_to 10162
  156.6811  130.8858  151.3576 LP  0  0  0  0  0  0  0  0  0  0  0  0  # atno 17370 bound_to 10713
  157.7032  130.9356  150.0850 LP  0  0  0  0  0  0  0  0  0  0  0  0  # atno 17371 bound_to 10713
  140.6785  134.4792  157.5588 LP  0  0  0  0  0  0  0  0  0  0  0  0  # atno 17394 bound_to 11000
  139.9072  134.8422  156.1661 LP  0  0  0  0  0  0  0  0  0  0  0  0  # atno 17395 bound_to 11000

$$$$
