AV-unprocessed.smi:1843|AV-procd|sdf|7500|dock2
  -GOLD-   22720 9203D 1   1.00000     0.00000
 Structure written by MMmdl.
 37 39  0  0  0  0  0  0  0  0  1 V2000
  145.8811  138.6380  153.8953 O   0  0  0  0  0  0  0  0  0  0  0  0
  146.7868  138.1395  153.2264 C   0  0  0  0  0  0  0  0  0  0  0  0
  148.0852  138.4812  153.2976 N   0  0  0  0  0  0  0  0  0  0  0  0
  148.6959  139.4472  154.1403 C   0  0  0  0  0  0  0  0  0  0  0  0
  148.0226  140.4240  154.7635 N   0  0  0  0  0  0  0  0  0  0  0  0
  148.8603  141.2245  155.5274 N   0  0  0  0  0  0  0  0  0  0  0  0
  150.1384  140.8328  155.4598 C   0  0  0  0  0  0  0  0  0  0  0  0
  151.2261  141.5357  156.2017 C   0  0  0  0  0  0  0  0  0  0  0  0
  152.0607  140.8036  157.2269 C   0  0  0  0  0  0  0  0  0  0  0  0
  151.0961  141.8735  157.6709 C   0  0  0  0  0  0  0  0  0  0  0  0
  150.4260  139.4300  154.4353 S   0  0  0  0  0  0  0  0  0  0  0  0
  146.5904  137.1672  152.3244 N   0  0  0  0  0  0  0  0  0  0  0  0
  145.2987  136.5642  152.0023 C   0  0  2  0  0  0  0  0  0  0  0  0
  144.8696  135.6453  153.1679 C   0  0  0  0  0  0  0  0  0  0  0  0
  143.5951  134.8519  152.8448 C   0  0  0  0  0  0  0  0  0  0  0  0
  143.7661  134.0389  151.5551 C   0  0  0  0  0  0  0  0  0  0  0  0
  144.1422  134.9555  150.3833 C   0  0  0  0  0  0  0  0  0  0  0  0
  145.4168  135.7679  150.6816 C   0  0  1  0  0  0  0  0  0  0  0  0
  145.6144  136.6616  149.6042 O   0  0  0  0  0  0  0  0  0  0  0  0
  148.7134  137.9810  152.6865 H   0  0  0  0  0  0  0  0  0  0  0  0
  151.7273  142.2551  155.5569 H   0  0  0  0  0  0  0  0  0  0  0  0
  151.7998  139.7703  157.4471 H   0  0  0  0  0  0  0  0  0  0  0  0
  153.1232  141.0348  157.2654 H   0  0  0  0  0  0  0  0  0  0  0  0
  151.5152  142.8200  158.0060 H   0  0  0  0  0  0  0  0  0  0  0  0
  150.2022  141.5475  158.1988 H   0  0  0  0  0  0  0  0  0  0  0  0
  147.3899  136.8207  151.8149 H   0  0  0  0  0  0  0  0  0  0  0  0
  144.5443  137.3437  151.8750 H   0  0  0  0  0  0  0  0  0  0  0  0
  145.6737  134.9445  153.3978 H   0  0  0  0  0  0  0  0  0  0  0  0
  144.7109  136.2352  154.0715 H   0  0  0  0  0  0  0  0  0  0  0  0
  143.3517  134.1870  153.6739 H   0  0  0  0  0  0  0  0  0  0  0  0
  142.7530  135.5372  152.7392 H   0  0  0  0  0  0  0  0  0  0  0  0
  144.5391  133.2819  151.6945 H   0  0  0  0  0  0  0  0  0  0  0  0
  142.8438  133.5037  151.3277 H   0  0  0  0  0  0  0  0  0  0  0  0
  144.2808  134.3592  149.4805 H   0  0  0  0  0  0  0  0  0  0  0  0
  143.3104  135.6323  150.1812 H   0  0  0  0  0  0  0  0  0  0  0  0
  146.2692  135.0887  150.7315 H   0  0  0  0  0  0  0  0  0  0  0  0
  144.8842  137.2610  149.5741 H   0  0  0  0  0  0  0  0  0  0  0  0
  1  2  2  0  0  0  0
  2  3  1  0  0  0  0
  2 12  1  0  0  0  0
  3  4  1  0  0  0  0
  3 20  1  0  0  0  0
  4 11  1  0  0  0  0
  4  5  2  0  0  0  0
  5  6  1  0  0  0  0
  6  7  2  0  0  0  0
  7  8  1  0  0  0  0
  7 11  1  0  0  0  0
  8 10  1  0  0  0  0
  8  9  1  0  0  0  0
  8 21  1  0  0  0  0
  9 10  1  0  0  0  0
  9 22  1  0  0  0  0
  9 23  1  0  0  0  0
 10 24  1  0  0  0  0
 10 25  1  0  0  0  0
 12 13  1  0  0  0  0
 12 26  1  0  0  0  0
 13 18  1  0  0  0  0
 13 14  1  0  0  0  0
 13 27  1  0  0  0  0
 14 15  1  0  0  0  0
 14 28  1  0  0  0  0
 14 29  1  0  0  0  0
 15 16  1  0  0  0  0
 15 30  1  0  0  0  0
 15 31  1  0  0  0  0
 16 17  1  0  0  0  0
 16 32  1  0  0  0  0
 16 33  1  0  0  0  0
 17 18  1  0  0  0  0
 17 34  1  0  0  0  0
 17 35  1  0  0  0  0
 18 19  1  0  0  0  0
 18 36  1  0  0  0  0
 19 37  1  0  0  0  0
M  END
> <s_m_source_file>
AV-unprocessed.smi

> <i_m_source_file_index>
1843

> <i_lp_mmshare_version>
43012

> <i_f3d_flags>
0

> <s_epik_input>
W09IXVtDQEBIXTFbQ0gyXVtDSDJdW0NIMl1bQ0gyXVtDQEhdMVtOSF1DKD1PKVtOSF1jMm5uYyhzMilbQ0hdM1tDSDJdW0NIMl0z

> <s_epik_cmdline>
J2VwaWtfcHl0aG9uJywgJy1waCcsICc3LjAnLCAnLXRuJywgJzgnLCAnLW1hJywgJzIwMCcsICctbWV0YWxfYmluZGluZycsICctaW1hZScsICc8aW5maWxlLm1hZT4nLCAnLW9tYWUnLCAnPG91dGZpbGUubWFlPic=

> <r_lp_tautomer_probability>
1

> <r_epik_Ionization_Penalty>
0.000257313

> <r_epik_Ionization_Penalty_Charging>
0

> <r_epik_Ionization_Penalty_Neutral>
0.000257313

> <r_epik_State_Penalty>
-0

> <r_epik_Charging_Adjusted_Penalty>
0

> <i_epik_Tot_Q>
0

> <i_epik_Tot_abs_Q>
0

> <r_epik_Metal_State_Penalty>
0.147479

> <b_epik_Metal_Only>
0

> <s_lp_Force_Field>
OPLS_2005

> <r_lp_Energy>
7.85459

> <b_lp_Chiralities_Consistent>
1

> <s_lp_Variant>
AV-unprocessed.smi:1843-1

> <Gold.Version>
5.8.1

> <Gold.Id.Protein>
6NUR|6NUR_protein|mol2

> <Gold.PLP.Fitness>
39.6983

> <Gold.PLP.PLP>
-31.5033

> <Gold.PLP.part.hbond>
-4.5421

> <Gold.PLP.part.metal>
0.0000

> <Gold.PLP.part.buried>
-5.5891

> <Gold.PLP.part.nonpolar>
-23.3741

> <Gold.PLP.part.repulsive>
0.5964

> <Gold.PLP.ligand.clash>
0.0000

> <Gold.PLP.ligand.torsion>
0.3622

> <Gold.PLP.Chemscore.Hbond>
2.9280

> <Gold.PLP.Chemscore.CHOScore>
0.0000

> <Gold.PLP.Chemscore.Metal>
0.0000

> <Gold.Chemscore.Hbonds>
donor molecule, donor type, donor heavy atom, donor atom, acceptor molecule, acceptor atom, score
      L1  H     3    20       P1  7948  0.85
      L1  H    12    26       P1  7948  0.99
      L1  H    19    37       P1 10171  1.00

> <Gold.PLP.Chemscore.Internal.Correction>
0.1353

> <Gold.Rescore>
     Score         DG    S(hbond)    S(metal)    S(lipo)     H(rot)  DE(clash)    DE(int)     intcor
     16.76     -18.46       2.94        0.00      65.06       1.74       0.01       1.69       ----

> <Gold.Chemscore.Fitness>
16.7605

> <Gold.Chemscore.DG>
-18.4572

> <Gold.Chemscore.ZeroCoef>
-5.4800

> <Gold.Chemscore.Hbond>
2.9402

> <Gold.Chemscore.Metal>
0.0000

> <Gold.Chemscore.Lipo>
65.0630

> <Gold.Chemscore.Internal_Hbond>
0.0000

> <Gold.Chemscore.DEClash>
0.0101

> <Gold.Chemscore.DEInternal>
1.6866

> <Gold.Chemscore.Rot>
1.7404

> <Gold.Chemscore.Internal.Correction>
   9.000000E+99

> <Gold.Chemscore.Hbonds>
donor molecule, donor type, donor heavy atom, donor atom, acceptor molecule, acceptor atom, score
      L1  H     3    20       P1  7948  0.84
      L1  H    12    26       P1  7948  0.94
      L1  H    19    37       P1 10171  1.00

> <Gold.Chemscore.Hbond.Weighted>
-9.8203

> <Gold.Chemscore.Metal.Weighted>
-0.0000

> <Gold.Chemscore.Lipo.Weighted>
-7.6124

> <Gold.Chemscore.Internal_Hbond.Weighted>
0.0000

> <Gold.Chemscore.DEClash.Weighted>
0.0101

> <Gold.Chemscore.DEInternal.Weighted>
1.6866

> <Gold.Chemscore.Rot.Weighted>
4.4555

> <Gold.Chemscore.Internal.Correction.Weighted>
   9.000000E+99

> <Gold.Protein.RotatedTorsions>
[ 6907 6896 6895 6894 ] final -147.10 input  -60.11 | X-H torsion
[ 7974 7965 7964 7962 ] final  -92.96 input  175.53 | X-H torsion
[ 8008 7997 7996 7995 ] final   67.34 input   59.86 | X-H torsion
[ 10167 10162 10161 10158 ] final  110.75 input  -65.29 | X-H torsion
[ 10718 10713 10712 10709 ] final -164.80 input   66.30 | X-H torsion
[ 10763 10752 10751 10750 ] final  -25.28 input  -60.55 | X-H torsion
[ 11005 11000 10999 10996 ] final   71.28 input  -57.11 | X-H torsion

> <Gold.Protein.ActiveResidues>
 VAL166  LYS551  ARG553  GLY616  TRP617  ASP618  TYR619  PRO620  LYS621  CYS622 
 ASP623  PHE694  ASN695  SER759  ASP760  ASP761  ALA762  ILE779  LEU786  VAL792 
 PHE793  MET794  SER795  GLU796  ALA797  LYS798  CYS799  TRP800  GLU811  SER814 

> <Gold.Protein.RotatedAtoms>
  151.1509  133.4908  159.2595 H   0  0  0  0  0  0  0  0  0  0  0  0  # atno 6907 bound_to 6896
  151.1555  135.0247  159.8697 H   0  0  0  0  0  0  0  0  0  0  0  0  # atno 6908 bound_to 6896
  152.5463  134.1389  159.8523 H   0  0  0  0  0  0  0  0  0  0  0  0  # atno 6909 bound_to 6896
  145.3929  140.9530  143.2330 H   0  0  0  0  0  0  0  0  0  0  0  0  # atno 7974 bound_to 7965
  155.6914  140.3496  155.4895 H   0  0  0  0  0  0  0  0  0  0  0  0  # atno 8008 bound_to 7997
  155.9521  140.1121  157.0990 H   0  0  0  0  0  0  0  0  0  0  0  0  # atno 8009 bound_to 7997
  154.4124  140.1192  156.5052 H   0  0  0  0  0  0  0  0  0  0  0  0  # atno 8010 bound_to 7997
  139.6664  144.7127  151.1769 H   0  0  0  0  0  0  0  0  0  0  0  0  # atno 10167 bound_to 10162
  156.6442  130.8981  151.3001 H   0  0  0  0  0  0  0  0  0  0  0  0  # atno 10718 bound_to 10713
  153.6973  135.6958  153.5073 H   0  0  0  0  0  0  0  0  0  0  0  0  # atno 10763 bound_to 10752
  153.2368  135.4319  155.0654 H   0  0  0  0  0  0  0  0  0  0  0  0  # atno 10764 bound_to 10752
  154.8355  135.3498  154.6513 H   0  0  0  0  0  0  0  0  0  0  0  0  # atno 10765 bound_to 10752
  139.9552  134.7157  156.0770 H   0  0  0  0  0  0  0  0  0  0  0  0  # atno 11005 bound_to 11000
  144.8428  139.5445  143.6892 LP  0  0  0  0  0  0  0  0  0  0  0  0  # atno 17320 bound_to 7965
  146.2789  139.6825  142.9243 LP  0  0  0  0  0  0  0  0  0  0  0  0  # atno 17321 bound_to 7965
  140.7601  143.5912  150.8794 LP  0  0  0  0  0  0  0  0  0  0  0  0  # atno 17342 bound_to 10162
  139.9574  143.6202  152.3012 LP  0  0  0  0  0  0  0  0  0  0  0  0  # atno 17343 bound_to 10162
  157.7161  130.9499  150.1262 LP  0  0  0  0  0  0  0  0  0  0  0  0  # atno 17370 bound_to 10713
  156.2135  130.3668  149.8641 LP  0  0  0  0  0  0  0  0  0  0  0  0  # atno 17371 bound_to 10713
  141.1222  133.6609  156.3244 LP  0  0  0  0  0  0  0  0  0  0  0  0  # atno 17394 bound_to 11000
  140.5626  134.5919  157.5437 LP  0  0  0  0  0  0  0  0  0  0  0  0  # atno 17395 bound_to 11000

$$$$
