AV-unprocessed.smi:3256|AV-procd|sdf|12466|dock2
  -GOLD-   2272018363D 1   1.00000     0.00000
 Structure written by MMmdl.
 37 38  0  0  0  0  0  0  0  0  2 V2000
  144.5910  136.3089  153.2186 O   0  0  0  0  0  0  0  0  0  0  0  0
  145.7315  136.2019  152.7687 C   0  0  0  0  0  0  0  0  0  0  0  0
  146.7242  137.0486  153.0764 N   0  0  0  0  0  0  0  0  0  0  0  0
  146.5906  138.2068  153.9529 C   0  0  0  0  0  0  0  0  0  0  0  0
  147.5148  139.3599  153.5160 C   0  0  0  0  0  0  0  0  0  0  0  0
  148.6240  139.5911  154.4746 N   0  3  0  0  0  0  0  0  0  0  0  0
  149.8164  138.7651  154.1672 C   0  0  0  0  0  0  0  0  0  0  0  0
  150.9188  138.9972  155.2145 C   0  0  0  0  0  0  0  0  0  0  0  0
  151.2487  140.3795  155.2604 O   0  0  0  0  0  0  0  0  0  0  0  0
  150.1361  141.1784  155.6421 C   0  0  0  0  0  0  0  0  0  0  0  0
  149.0055  141.0189  154.6112 C   0  0  0  0  0  0  0  0  0  0  0  0
  146.1567  135.2368  151.9352 N   0  0  0  0  0  0  0  0  0  0  0  0
  145.4247  134.1565  151.3703 C   0  0  0  0  0  0  0  0  0  0  0  0
  145.9794  133.1604  150.5297 C   0  0  0  0  0  0  0  0  0  0  0  0
  145.1436  132.1344  150.0482 C   0  0  0  0  0  0  0  0  0  0  0  0
  143.7877  132.1359  150.4286 C   0  0  0  0  0  0  0  0  0  0  0  0
  143.2480  133.0710  151.2380 N   0  0  0  0  0  0  0  0  0  0  0  0
  144.0552  134.0515  151.6956 C   0  0  0  0  0  0  0  0  0  0  0  0
  147.6330  136.8868  152.6674 H   0  0  0  0  0  0  0  0  0  0  0  0
  145.5461  138.5143  153.9230 H   0  0  0  0  0  0  0  0  0  0  0  0
  146.8004  137.9180  154.9844 H   0  0  0  0  0  0  0  0  0  0  0  0
  147.9419  139.1114  152.5434 H   0  0  0  0  0  0  0  0  0  0  0  0
  146.9468  140.2809  153.3756 H   0  0  0  0  0  0  0  0  0  0  0  0
  149.5436  137.7092  154.1533 H   0  0  0  0  0  0  0  0  0  0  0  0
  150.1877  139.0138  153.1716 H   0  0  0  0  0  0  0  0  0  0  0  0
  150.5997  138.6532  156.1997 H   0  0  0  0  0  0  0  0  0  0  0  0
  151.8116  138.4291  154.9528 H   0  0  0  0  0  0  0  0  0  0  0  0
  149.7959  140.8979  156.6404 H   0  0  0  0  0  0  0  0  0  0  0  0
  150.4518  142.2205  155.6950 H   0  0  0  0  0  0  0  0  0  0  0  0
  149.3288  141.4063  153.6435 H   0  0  0  0  0  0  0  0  0  0  0  0
  148.1497  141.6156  154.9248 H   0  0  0  0  0  0  0  0  0  0  0  0
  147.1401  135.2518  151.7072 H   0  0  0  0  0  0  0  0  0  0  0  0
  147.0218  133.1505  150.2533 H   0  0  0  0  0  0  0  0  0  0  0  0
  145.5348  131.3604  149.4047 H   0  0  0  0  0  0  0  0  0  0  0  0
  143.1205  131.3629  150.0772 H   0  0  0  0  0  0  0  0  0  0  0  0
  143.5890  134.7805  152.3425 H   0  0  0  0  0  0  0  0  0  0  0  0
  148.2938  139.2831  155.3782 H   0  0  0  0  0  0  0  0  0  0  0  0
  1  2  2  0  0  0  0
  2  3  1  0  0  0  0
  2 12  1  0  0  0  0
  3  4  1  0  0  0  0
  3 19  1  0  0  0  0
  4  5  1  0  0  0  0
  4 20  1  0  0  0  0
  4 21  1  0  0  0  0
  5  6  1  0  0  0  0
  5 22  1  0  0  0  0
  5 23  1  0  0  0  0
  6 11  1  0  0  0  0
  6  7  1  0  0  0  0
  6 37  1  0  0  0  0
  7  8  1  0  0  0  0
  7 24  1  0  0  0  0
  7 25  1  0  0  0  0
  8  9  1  0  0  0  0
  8 26  1  0  0  0  0
  8 27  1  0  0  0  0
  9 10  1  0  0  0  0
 10 11  1  0  0  0  0
 10 28  1  0  0  0  0
 10 29  1  0  0  0  0
 11 30  1  0  0  0  0
 11 31  1  0  0  0  0
 12 13  1  0  0  0  0
 12 32  1  0  0  0  0
 13 18  1  0  0  0  0
 13 14  2  0  0  0  0
 14 15  1  0  0  0  0
 14 33  1  0  0  0  0
 15 16  2  0  0  0  0
 15 34  1  0  0  0  0
 16 17  1  0  0  0  0
 16 35  1  0  0  0  0
 17 18  2  0  0  0  0
 18 36  1  0  0  0  0
M  CHG  1   6   1
M  END
> <s_m_source_file>
AV-unprocessed.smi

> <i_m_source_file_index>
3256

> <i_lp_mmshare_version>
43012

> <i_f3d_flags>
0

> <s_epik_input>
W2NIXTFuW2NIXVtjSF1bY0hdYzFbTkhdQyg9TylbTkhdW0NIMl1bQ0gyXU4yW0NIMl1bQ0gyXU9bQ0gyXVtDSDJdMg==

> <s_epik_cmdline>
J2VwaWtfcHl0aG9uJywgJy1waCcsICc3LjAnLCAnLXRuJywgJzgnLCAnLW1hJywgJzIwMCcsICctbWV0YWxfYmluZGluZycsICctaW1hZScsICc8aW5maWxlLm1hZT4nLCAnLW9tYWUnLCAnPG91dGZpbGUubWFlPic=

> <r_epik_Ionization_Penalty>
0.606681

> <r_epik_Ionization_Penalty_Charging>
0.602531

> <r_epik_Ionization_Penalty_Neutral>
0.00415076

> <r_epik_State_Penalty>
0.607427

> <r_epik_Charging_Adjusted_Penalty>
1.20996

> <i_epik_Tot_Q>
1

> <i_epik_Tot_abs_Q>
1

> <r_epik_Metal_State_Penalty>
0.604583

> <b_epik_Metal_Only>
0

> <s_lp_Force_Field>
OPLS_2005

> <r_lp_Energy>
17.8709

> <b_lp_Chiralities_Consistent>
1

> <s_lp_Variant>
AV-unprocessed.smi:3256-2

> <Gold.Version>
5.8.1

> <Gold.Id.Protein>
6NUR|6NUR_protein|mol2

> <Gold.PLP.Fitness>
42.1441

> <Gold.PLP.PLP>
-32.2496

> <Gold.PLP.part.hbond>
-3.0000

> <Gold.PLP.part.metal>
0.0000

> <Gold.PLP.part.buried>
-5.5026

> <Gold.PLP.part.nonpolar>
-24.6908

> <Gold.PLP.part.repulsive>
0.4738

> <Gold.PLP.ligand.clash>
0.0000

> <Gold.PLP.ligand.torsion>
0.9432

> <Gold.PLP.Chemscore.Hbond>
2.9280

> <Gold.PLP.Chemscore.CHOScore>
0.9928

> <Gold.PLP.Chemscore.Metal>
0.0000

> <Gold.Chemscore.Hbonds>
donor molecule, donor type, donor heavy atom, donor atom, acceptor molecule, acceptor atom, score
      L1  H     3    19       P1  7948  1.00
      L1  H    12    32       P1  7948  0.99
      P1  H  7989  7998       L1     9  0.99
      L1  C    16    35       P1 10952  0.91

> <Gold.PLP.Chemscore.Internal.Correction>
0.0184

> <Gold.Rescore>
     Score         DG    S(hbond)    S(metal)    S(lipo)     H(rot)  DE(clash)    DE(int)     intcor
     16.35     -18.67       2.40        0.00      77.88       1.54       0.03       2.30       ----

> <Gold.Chemscore.Fitness>
16.3470

> <Gold.Chemscore.DG>
-18.6706

> <Gold.Chemscore.ZeroCoef>
-5.4800

> <Gold.Chemscore.Hbond>
2.4049

> <Gold.Chemscore.Metal>
0.0000

> <Gold.Chemscore.Lipo>
77.8830

> <Gold.Chemscore.Internal_Hbond>
0.0000

> <Gold.Chemscore.DEClash>
0.0275

> <Gold.Chemscore.DEInternal>
2.2961

> <Gold.Chemscore.Rot>
1.5445

> <Gold.Chemscore.Internal.Correction>
   9.000000E+99

> <Gold.Chemscore.Hbonds>
donor molecule, donor type, donor heavy atom, donor atom, acceptor molecule, acceptor atom, score
      L1  H     3    19       P1  7948  1.00
      L1  H    12    32       P1  7948  0.85
      P1  H  7989  7998       L1     9  0.28

> <Gold.Chemscore.Hbond.Weighted>
-8.0323

> <Gold.Chemscore.Metal.Weighted>
-0.0000

> <Gold.Chemscore.Lipo.Weighted>
-9.1123

> <Gold.Chemscore.Internal_Hbond.Weighted>
0.0000

> <Gold.Chemscore.DEClash.Weighted>
0.0275

> <Gold.Chemscore.DEInternal.Weighted>
2.2961

> <Gold.Chemscore.Rot.Weighted>
3.9540

> <Gold.Chemscore.Internal.Correction.Weighted>
   9.000000E+99

> <Gold.Protein.RotatedTorsions>
[ 6907 6896 6895 6894 ] final  -13.98 input  -60.11 | X-H torsion
[ 7974 7965 7964 7962 ] final  -44.95 input  175.53 | X-H torsion
[ 8008 7997 7996 7995 ] final  143.90 input   59.86 | X-H torsion
[ 10167 10162 10161 10158 ] final  179.15 input  -65.29 | X-H torsion
[ 10718 10713 10712 10709 ] final  -86.00 input   66.30 | X-H torsion
[ 10763 10752 10751 10750 ] final  -74.70 input  -60.55 | X-H torsion
[ 11005 11000 10999 10996 ] final   13.19 input  -57.11 | X-H torsion

> <Gold.Protein.ActiveResidues>
 VAL166  LYS551  ARG553  GLY616  TRP617  ASP618  TYR619  PRO620  LYS621  CYS622 
 ASP623  PHE694  ASN695  SER759  ASP760  ASP761  ALA762  ILE779  LEU786  VAL792 
 PHE793  MET794  SER795  GLU796  ALA797  LYS798  CYS799  TRP800  GLU811  SER814 

> <Gold.Protein.RotatedAtoms>
  151.3465  135.0875  159.9388 H   0  0  0  0  0  0  0  0  0  0  0  0  # atno 6907 bound_to 6896
  152.5198  133.9395  159.7630 H   0  0  0  0  0  0  0  0  0  0  0  0  # atno 6908 bound_to 6896
  150.9762  133.6239  159.2759 H   0  0  0  0  0  0  0  0  0  0  0  0  # atno 6909 bound_to 6896
  145.9870  140.7223  142.9336 H   0  0  0  0  0  0  0  0  0  0  0  0  # atno 7974 bound_to 7965
  156.2920  140.2250  156.4966 H   0  0  0  0  0  0  0  0  0  0  0  0  # atno 8008 bound_to 7997
  154.7725  140.0465  157.1084 H   0  0  0  0  0  0  0  0  0  0  0  0  # atno 8009 bound_to 7997
  154.9857  140.3084  155.4931 H   0  0  0  0  0  0  0  0  0  0  0  0  # atno 8010 bound_to 7997
  139.5324  144.2595  152.0718 H   0  0  0  0  0  0  0  0  0  0  0  0  # atno 10167 bound_to 10162
  155.9992  130.4750  150.4648 H   0  0  0  0  0  0  0  0  0  0  0  0  # atno 10718 bound_to 10713
  154.4767  135.5855  153.6360 H   0  0  0  0  0  0  0  0  0  0  0  0  # atno 10763 bound_to 10752
  152.9842  135.6080  154.3298 H   0  0  0  0  0  0  0  0  0  0  0  0  # atno 10764 bound_to 10752
  154.3185  135.2844  155.2510 H   0  0  0  0  0  0  0  0  0  0  0  0  # atno 10765 bound_to 10752
  140.4835  134.0911  155.7756 H   0  0  0  0  0  0  0  0  0  0  0  0  # atno 11005 bound_to 11000
  144.6877  140.3004  143.7264 LP  0  0  0  0  0  0  0  0  0  0  0  0  # atno 17320 bound_to 7965
  145.7687  139.1849  143.2225 LP  0  0  0  0  0  0  0  0  0  0  0  0  # atno 17321 bound_to 7965
  140.2061  144.4610  150.6408 LP  0  0  0  0  0  0  0  0  0  0  0  0  # atno 17342 bound_to 10162
  140.6510  143.2225  151.6076 LP  0  0  0  0  0  0  0  0  0  0  0  0  # atno 17343 bound_to 10162
  157.2669  131.0579  151.2285 LP  0  0  0  0  0  0  0  0  0  0  0  0  # atno 17370 bound_to 10713
  157.3379  130.7018  149.6364 LP  0  0  0  0  0  0  0  0  0  0  0  0  # atno 17371 bound_to 10713
  141.1519  133.8953  157.2075 LP  0  0  0  0  0  0  0  0  0  0  0  0  # atno 17394 bound_to 11000
  139.9812  135.0097  156.9753 LP  0  0  0  0  0  0  0  0  0  0  0  0  # atno 17395 bound_to 11000

$$$$
