AV-unprocessed.smi:2515|AV-procd|sdf|9897|dock10
  -GOLD-   2272013533D 1   1.00000     0.00000
 Structure written by MMmdl.
 36 37  0  0  0  0  0  0  0  0  1 V2000
  150.6792  134.1063  155.7427 N   0  0  0  0  0  0  0  0  0  0  0  0
  150.5785  135.2587  155.7372 C   0  0  0  0  0  0  0  0  0  0  0  0
  150.4586  136.6777  155.7326 C   0  0  0  0  0  0  0  0  0  0  0  0
  150.2928  137.4006  154.5524 N   0  0  0  0  0  0  0  0  0  0  0  0
  150.2153  138.6728  154.9340 C   0  0  0  0  0  0  0  0  0  0  0  0
  150.0358  139.7444  154.0718 N   0  0  0  0  0  0  0  0  0  0  0  0
  150.3208  138.8620  156.2643 N   0  0  0  0  0  0  0  0  0  0  0  0
  150.2733  140.1155  157.0071 C   0  0  0  0  0  0  0  0  0  0  0  0
  151.4621  140.2398  157.9746 C   0  0  0  0  0  0  0  0  0  0  0  0
  151.8326  141.6332  158.1870 N   0  0  0  0  0  0  0  0  0  0  0  0
  152.6924  142.0619  159.1242 C   0  0  0  0  0  0  0  0  0  0  0  0
  153.2579  141.3022  159.9118 O   0  0  0  0  0  0  0  0  0  0  0  0
  152.9544  143.5776  159.1692 C   0  0  0  0  0  0  0  0  0  0  0  0
  152.3844  144.2298  160.4383 C   0  0  0  0  0  0  0  0  0  0  0  0
  150.9497  144.6617  160.1022 C   0  0  0  0  0  0  0  0  0  0  0  0
  150.8436  144.6778  158.5706 C   0  0  0  0  0  0  0  0  0  0  0  0
  152.2381  144.3281  158.0369 C   0  0  0  0  0  0  0  0  0  0  0  0
  150.4710  137.5766  156.7775 C   0  0  0  0  0  0  0  0  0  0  0  0
  150.6049  137.2692  158.1485 C   0  0  0  0  0  0  0  0  0  0  0  0
  150.7162  137.0175  159.2718 N   0  0  0  0  0  0  0  0  0  0  0  0
  149.9519  139.6070  153.0748 H   0  0  0  0  0  0  0  0  0  0  0  0
  149.9942  140.6952  154.4093 H   0  0  0  0  0  0  0  0  0  0  0  0
  150.2664  140.9414  156.2950 H   0  0  0  0  0  0  0  0  0  0  0  0
  149.3298  140.1799  157.5499 H   0  0  0  0  0  0  0  0  0  0  0  0
  151.2051  139.8011  158.9391 H   0  0  0  0  0  0  0  0  0  0  0  0
  152.3224  139.6814  157.6006 H   0  0  0  0  0  0  0  0  0  0  0  0
  151.4086  142.3194  157.5794 H   0  0  0  0  0  0  0  0  0  0  0  0
  154.0308  143.7474  159.1105 H   0  0  0  0  0  0  0  0  0  0  0  0
  152.4162  143.5715  161.3081 H   0  0  0  0  0  0  0  0  0  0  0  0
  152.9797  145.1097  160.6859 H   0  0  0  0  0  0  0  0  0  0  0  0
  150.2320  143.9516  160.5156 H   0  0  0  0  0  0  0  0  0  0  0  0
  150.7237  145.6381  160.5320 H   0  0  0  0  0  0  0  0  0  0  0  0
  150.1204  143.9289  158.2451 H   0  0  0  0  0  0  0  0  0  0  0  0
  150.5018  145.6426  158.1941 H   0  0  0  0  0  0  0  0  0  0  0  0
  152.7833  145.2468  157.8161 H   0  0  0  0  0  0  0  0  0  0  0  0
  152.1875  143.7567  157.1087 H   0  0  0  0  0  0  0  0  0  0  0  0
  1  2  3  0  0  0  0
  2  3  1  0  0  0  0
  3 18  2  0  0  0  0
  3  4  1  0  0  0  0
  4  5  2  0  0  0  0
  5  6  1  0  0  0  0
  5  7  1  0  0  0  0
  6 21  1  0  0  0  0
  6 22  1  0  0  0  0
  7  8  1  0  0  0  0
  7 18  1  0  0  0  0
  8  9  1  0  0  0  0
  8 23  1  0  0  0  0
  8 24  1  0  0  0  0
  9 10  1  0  0  0  0
  9 25  1  0  0  0  0
  9 26  1  0  0  0  0
 10 11  1  0  0  0  0
 10 27  1  0  0  0  0
 11 12  2  0  0  0  0
 11 13  1  0  0  0  0
 13 17  1  0  0  0  0
 13 14  1  0  0  0  0
 13 28  1  0  0  0  0
 14 15  1  0  0  0  0
 14 29  1  0  0  0  0
 14 30  1  0  0  0  0
 15 16  1  0  0  0  0
 15 31  1  0  0  0  0
 15 32  1  0  0  0  0
 16 17  1  0  0  0  0
 16 33  1  0  0  0  0
 16 34  1  0  0  0  0
 17 35  1  0  0  0  0
 17 36  1  0  0  0  0
 18 19  1  0  0  0  0
 19 20  3  0  0  0  0
M  END
> <s_m_source_file>
AV-unprocessed.smi

> <i_m_source_file_index>
2515

> <i_lp_mmshare_version>
43012

> <i_f3d_flags>
0

> <s_epik_input>
TiNDYzFuYyhbTkgyXSluKGMxQyNOKVtDSDJdW0NIMl1bTkhdQyg9TylbQ0hdMltDSDJdW0NIMl1bQ0gyXVtDSDJdMg==

> <s_epik_cmdline>
J2VwaWtfcHl0aG9uJywgJy1waCcsICc3LjAnLCAnLXRuJywgJzgnLCAnLW1hJywgJzIwMCcsICctbWV0YWxfYmluZGluZycsICctaW1hZScsICc8aW5maWxlLm1hZT4nLCAnLW9tYWUnLCAnPG91dGZpbGUubWFlPic=

> <r_lp_tautomer_probability>
1

> <r_epik_Ionization_Penalty>
0.000275801

> <r_epik_Ionization_Penalty_Charging>
2.18328e-09

> <r_epik_Ionization_Penalty_Neutral>
0.000275798

> <r_epik_State_Penalty>
-0

> <r_epik_Charging_Adjusted_Penalty>
2.18328e-09

> <i_epik_Tot_Q>
0

> <i_epik_Tot_abs_Q>
0

> <r_epik_Metal_State_Penalty>
-0

> <b_epik_Metal_Only>
0

> <s_lp_Force_Field>
OPLS_2005

> <r_lp_Energy>
23.1048

> <b_lp_Chiralities_Consistent>
1

> <s_lp_Variant>
AV-unprocessed.smi:2515-1

> <Gold.Version>
5.8.1

> <Gold.Id.Protein>
6NUR|6NUR_protein|mol2

> <Gold.PLP.Fitness>
38.9120

> <Gold.PLP.PLP>
-34.4466

> <Gold.PLP.part.hbond>
-2.0000

> <Gold.PLP.part.metal>
0.0000

> <Gold.PLP.part.buried>
-8.0745

> <Gold.PLP.part.nonpolar>
-26.6052

> <Gold.PLP.part.repulsive>
1.7769

> <Gold.PLP.ligand.clash>
0.7476

> <Gold.PLP.ligand.torsion>
0.4041

> <Gold.PLP.Chemscore.Hbond>
2.0000

> <Gold.PLP.Chemscore.CHOScore>
0.0000

> <Gold.PLP.Chemscore.Metal>
0.0000

> <Gold.Chemscore.Hbonds>
donor molecule, donor type, donor heavy atom, donor atom, acceptor molecule, acceptor atom, score
      L1  H     6    21       P1  7957  1.00
      P1  H  6896  6907       L1    20  0.94

> <Gold.PLP.Chemscore.Internal.Correction>
0.0214

> <Gold.Rescore>
     Score         DG    S(hbond)    S(metal)    S(lipo)     H(rot)  DE(clash)    DE(int)     intcor
     14.66     -15.05       1.94        0.00      75.21       2.23       0.11       0.28       ----

> <Gold.Chemscore.Fitness>
14.6608

> <Gold.Chemscore.DG>
-15.0517

> <Gold.Chemscore.ZeroCoef>
-5.4800

> <Gold.Chemscore.Hbond>
1.9380

> <Gold.Chemscore.Metal>
0.0000

> <Gold.Chemscore.Lipo>
75.2078

> <Gold.Chemscore.Internal_Hbond>
0.0000

> <Gold.Chemscore.DEClash>
0.1071

> <Gold.Chemscore.DEInternal>
0.2839

> <Gold.Chemscore.Rot>
2.2267

> <Gold.Chemscore.Internal.Correction>
   9.000000E+99

> <Gold.Chemscore.Hbonds>
donor molecule, donor type, donor heavy atom, donor atom, acceptor molecule, acceptor atom, score
      L1  H     6    21       P1  7957  0.97
      P1  H  6896  6907       L1    20  0.88

> <Gold.Chemscore.Hbond.Weighted>
-6.4728

> <Gold.Chemscore.Metal.Weighted>
-0.0000

> <Gold.Chemscore.Lipo.Weighted>
-8.7993

> <Gold.Chemscore.Internal_Hbond.Weighted>
0.0000

> <Gold.Chemscore.DEClash.Weighted>
0.1071

> <Gold.Chemscore.DEInternal.Weighted>
0.2839

> <Gold.Chemscore.Rot.Weighted>
5.7004

> <Gold.Chemscore.Internal.Correction.Weighted>
   9.000000E+99

> <Gold.Protein.RotatedTorsions>
[ 6907 6896 6895 6894 ] final  -23.61 input  -60.11 | X-H torsion
[ 7974 7965 7964 7962 ] final  -39.93 input  175.53 | X-H torsion
[ 8008 7997 7996 7995 ] final  -58.08 input   59.86 | X-H torsion
[ 10167 10162 10161 10158 ] final   40.39 input  -65.29 | X-H torsion
[ 10718 10713 10712 10709 ] final  -30.97 input   66.30 | X-H torsion
[ 10763 10752 10751 10750 ] final -153.10 input  -60.55 | X-H torsion
[ 11005 11000 10999 10996 ] final  -81.85 input  -57.11 | X-H torsion

> <Gold.Protein.ActiveResidues>
 VAL166  LYS551  ARG553  GLY616  TRP617  ASP618  TYR619  PRO620  LYS621  CYS622 
 ASP623  PHE694  ASN695  SER759  ASP760  ASP761  ALA762  ILE779  LEU786  VAL792 
 PHE793  MET794  SER795  GLU796  ALA797  LYS798  CYS799  TRP800  GLU811  SER814 

> <Gold.Protein.RotatedAtoms>
  151.2015  135.0444  159.8873 H   0  0  0  0  0  0  0  0  0  0  0  0  # atno 6907 bound_to 6896
  152.5432  134.0844  159.8260 H   0  0  0  0  0  0  0  0  0  0  0  0  # atno 6908 bound_to 6896
  151.0986  133.5213  159.2643 H   0  0  0  0  0  0  0  0  0  0  0  0  # atno 6909 bound_to 6896
  146.0351  140.6682  142.9114 H   0  0  0  0  0  0  0  0  0  0  0  0  # atno 7974 bound_to 7965
  154.4294  140.1092  156.5900 H   0  0  0  0  0  0  0  0  0  0  0  0  # atno 8008 bound_to 7997
  155.6022  140.3493  155.4578 H   0  0  0  0  0  0  0  0  0  0  0  0  # atno 8009 bound_to 7997
  156.0165  140.1230  157.0391 H   0  0  0  0  0  0  0  0  0  0  0  0  # atno 8010 bound_to 7997
  140.3747  144.2059  150.6132 H   0  0  0  0  0  0  0  0  0  0  0  0  # atno 10167 bound_to 10162
  156.3931  130.4376  149.7380 H   0  0  0  0  0  0  0  0  0  0  0  0  # atno 10718 bound_to 10713
  154.7950  135.3221  154.7687 H   0  0  0  0  0  0  0  0  0  0  0  0  # atno 10763 bound_to 10752
  153.8367  135.6874  153.4812 H   0  0  0  0  0  0  0  0  0  0  0  0  # atno 10764 bound_to 10752
  153.1638  135.4650  154.9750 H   0  0  0  0  0  0  0  0  0  0  0  0  # atno 10765 bound_to 10752
  141.1665  133.7216  156.8484 H   0  0  0  0  0  0  0  0  0  0  0  0  # atno 11005 bound_to 11000
  144.7048  140.3806  143.7127 LP  0  0  0  0  0  0  0  0  0  0  0  0  # atno 17320 bound_to 7965
  145.6977  139.1654  143.2610 LP  0  0  0  0  0  0  0  0  0  0  0  0  # atno 17321 bound_to 7965
  140.4998  143.2321  151.8695 LP  0  0  0  0  0  0  0  0  0  0  0  0  # atno 17342 bound_to 10162
  139.4800  144.5072  151.8982 LP  0  0  0  0  0  0  0  0  0  0  0  0  # atno 17343 bound_to 10162
  156.4425  130.7868  151.2889 LP  0  0  0  0  0  0  0  0  0  0  0  0  # atno 17370 bound_to 10713
  157.7500  131.0120  150.3368 LP  0  0  0  0  0  0  0  0  0  0  0  0  # atno 17371 bound_to 10713
  140.1933  134.8950  157.3085 LP  0  0  0  0  0  0  0  0  0  0  0  0  # atno 17394 bound_to 11000
  140.2267  134.3959  155.7540 LP  0  0  0  0  0  0  0  0  0  0  0  0  # atno 17395 bound_to 11000

$$$$
