AV-unprocessed.smi:3189|AV-procd|sdf|12190|dock2
  -GOLD-   2272018 33D 1   1.00000     0.00000
 Structure written by MMmdl.
 30 31  0  0  0  0  0  0  0  0  1 V2000
  146.9795  139.4552  152.8463 C   0  0  0  0  0  0  0  0  0  0  0  0
  148.2552  139.5893  153.6564 C   0  0  0  0  0  0  0  0  0  0  0  0
  149.0399  138.4905  153.6986 N   0  0  0  0  0  0  0  0  0  0  0  0
  150.1831  138.5544  154.4113 C   0  0  0  0  0  0  0  0  0  0  0  0
  150.6003  139.7054  155.1067 C   0  0  0  0  0  0  0  0  0  0  0  0
  149.7872  140.8632  155.0538 C   0  0  0  0  0  0  0  0  0  0  0  0
  150.0945  142.0813  155.7220 N   0  0  0  0  0  0  0  0  0  0  0  0
  150.9728  142.3242  156.7150 C   0  0  0  0  0  0  0  0  0  0  0  0
  151.6895  141.4782  157.2454 O   0  0  0  0  0  0  0  0  0  0  0  0
  151.0542  143.6206  157.0639 N   0  0  0  0  0  0  0  0  0  0  0  0
  151.8875  144.1961  158.0756 C   0  0  1  0  0  0  0  0  0  0  0  0
  151.2353  145.1811  159.0198 C   0  0  0  0  0  0  0  0  0  0  0  0
  151.6355  143.8167  159.5193 C   0  0  2  0  0  0  0  0  0  0  0  0
  152.7875  143.6680  160.4891 C   0  0  0  0  0  0  0  0  0  0  0  0
  148.5800  140.7963  154.3188 C   0  0  0  0  0  0  0  0  0  0  0  0
  147.5221  142.1658  154.2290 Cl  0  0  0  0  0  0  0  0  0  0  0  0
  146.9397  140.2192  152.0695 H   0  0  0  0  0  0  0  0  0  0  0  0
  146.1085  139.5724  153.4916 H   0  0  0  0  0  0  0  0  0  0  0  0
  146.9129  138.4804  152.3612 H   0  0  0  0  0  0  0  0  0  0  0  0
  150.7829  137.6566  154.4331 H   0  0  0  0  0  0  0  0  0  0  0  0
  151.5209  139.6681  155.6671 H   0  0  0  0  0  0  0  0  0  0  0  0
  149.6299  142.8964  155.3488 H   0  0  0  0  0  0  0  0  0  0  0  0
  150.5215  144.2737  156.5073 H   0  0  0  0  0  0  0  0  0  0  0  0
  152.9109  144.4440  157.7967 H   0  0  0  0  0  0  0  0  0  0  0  0
  151.8303  146.0335  159.3425 H   0  0  0  0  0  0  0  0  0  0  0  0
  150.1712  145.3769  158.9012 H   0  0  0  0  0  0  0  0  0  0  0  0
  150.8210  143.1171  159.6984 H   0  0  0  0  0  0  0  0  0  0  0  0
  153.5814  144.3795  160.2599 H   0  0  0  0  0  0  0  0  0  0  0  0
  153.1975  142.6597  160.4282 H   0  0  0  0  0  0  0  0  0  0  0  0
  152.4448  143.8446  161.5086 H   0  0  0  0  0  0  0  0  0  0  0  0
  1  2  1  0  0  0  0
  1 17  1  0  0  0  0
  1 18  1  0  0  0  0
  1 19  1  0  0  0  0
  2 15  1  0  0  0  0
  2  3  2  0  0  0  0
  3  4  1  0  0  0  0
  4  5  2  0  0  0  0
  4 20  1  0  0  0  0
  5  6  1  0  0  0  0
  5 21  1  0  0  0  0
  6  7  1  0  0  0  0
  6 15  2  0  0  0  0
  7  8  1  0  0  0  0
  7 22  1  0  0  0  0
  8  9  2  0  0  0  0
  8 10  1  0  0  0  0
 10 11  1  0  0  0  0
 10 23  1  0  0  0  0
 11 13  1  0  0  0  0
 11 12  1  0  0  0  0
 11 24  1  0  0  0  0
 12 13  1  0  0  0  0
 12 25  1  0  0  0  0
 12 26  1  0  0  0  0
 13 14  1  0  0  0  0
 13 27  1  0  0  0  0
 14 28  1  0  0  0  0
 14 29  1  0  0  0  0
 14 30  1  0  0  0  0
 15 16  1  0  0  0  0
M  END
> <s_m_source_file>
AV-unprocessed.smi

> <i_m_source_file_index>
3189

> <i_lp_mmshare_version>
43012

> <i_f3d_flags>
0

> <s_epik_input>
W0NIM11jMW5bY0hdW2NIXWMoYzFDbClbTkhdQyg9TylbTkhdW0NAQEhdMltDSDJdW0NASF0yW0NIM10=

> <s_epik_cmdline>
J2VwaWtfcHl0aG9uJywgJy1waCcsICc3LjAnLCAnLXRuJywgJzgnLCAnLW1hJywgJzIwMCcsICctbWV0YWxfYmluZGluZycsICctaW1hZScsICc8aW5maWxlLm1hZT4nLCAnLW9tYWUnLCAnPG91dGZpbGUubWFlPic=

> <r_epik_Ionization_Penalty>
0.00994309

> <r_epik_Ionization_Penalty_Charging>
0

> <r_epik_Ionization_Penalty_Neutral>
0.00994309

> <r_epik_State_Penalty>
0.00754503

> <r_epik_Charging_Adjusted_Penalty>
0.00754503

> <i_epik_Tot_Q>
0

> <i_epik_Tot_abs_Q>
0

> <r_epik_Metal_State_Penalty>
0.00742071

> <b_epik_Metal_Only>
0

> <s_lp_Force_Field>
OPLS_2005

> <r_lp_Energy>
33.6012

> <b_lp_Chiralities_Consistent>
1

> <s_lp_Variant>
AV-unprocessed.smi:3189-4

> <Gold.Version>
5.8.1

> <Gold.Id.Protein>
6NUR|6NUR_protein|mol2

> <Gold.PLP.Fitness>
41.7882

> <Gold.PLP.PLP>
-36.0884

> <Gold.PLP.part.hbond>
-2.0000

> <Gold.PLP.part.metal>
0.0000

> <Gold.PLP.part.buried>
-3.0725

> <Gold.PLP.part.nonpolar>
-33.0287

> <Gold.PLP.part.repulsive>
1.6843

> <Gold.PLP.ligand.clash>
0.0000

> <Gold.PLP.ligand.torsion>
0.1562

> <Gold.PLP.Chemscore.Hbond>
1.9920

> <Gold.PLP.Chemscore.CHOScore>
0.0000

> <Gold.PLP.Chemscore.Metal>
0.0000

> <Gold.Chemscore.Hbonds>
donor molecule, donor type, donor heavy atom, donor atom, acceptor molecule, acceptor atom, score
      L1  H     7    22       P1  8028  0.98
      L1  H    10    23       P1  8028  1.00

> <Gold.PLP.Chemscore.Internal.Correction>
0.0362

> <Gold.Rescore>
     Score         DG    S(hbond)    S(metal)    S(lipo)     H(rot)  DE(clash)    DE(int)     intcor
     18.21     -20.88       1.95        0.00      97.82       1.00       1.46       1.21       ----

> <Gold.Chemscore.Fitness>
18.2149

> <Gold.Chemscore.DG>
-20.8781

> <Gold.Chemscore.ZeroCoef>
-5.4800

> <Gold.Chemscore.Hbond>
1.9501

> <Gold.Chemscore.Metal>
0.0000

> <Gold.Chemscore.Lipo>
97.8178

> <Gold.Chemscore.Internal_Hbond>
0.0000

> <Gold.Chemscore.DEClash>
1.4561

> <Gold.Chemscore.DEInternal>
1.2072

> <Gold.Chemscore.Rot>
1.0000

> <Gold.Chemscore.Internal.Correction>
   9.000000E+99

> <Gold.Chemscore.Hbonds>
donor molecule, donor type, donor heavy atom, donor atom, acceptor molecule, acceptor atom, score
      L1  H     7    22       P1  8028  0.90
      L1  H    10    23       P1  8028  0.94

> <Gold.Chemscore.Hbond.Weighted>
-6.5134

> <Gold.Chemscore.Metal.Weighted>
-0.0000

> <Gold.Chemscore.Lipo.Weighted>
-11.4447

> <Gold.Chemscore.Internal_Hbond.Weighted>
0.0000

> <Gold.Chemscore.DEClash.Weighted>
1.4561

> <Gold.Chemscore.DEInternal.Weighted>
1.2072

> <Gold.Chemscore.Rot.Weighted>
2.5600

> <Gold.Chemscore.Internal.Correction.Weighted>
   9.000000E+99

> <Gold.Protein.RotatedTorsions>
[ 6907 6896 6895 6894 ] final  -99.02 input  -60.11 | X-H torsion
[ 7974 7965 7964 7962 ] final    0.47 input  175.53 | X-H torsion
[ 8008 7997 7996 7995 ] final   90.84 input   59.86 | X-H torsion
[ 10167 10162 10161 10158 ] final -174.57 input  -65.29 | X-H torsion
[ 10718 10713 10712 10709 ] final   75.72 input   66.30 | X-H torsion
[ 10763 10752 10751 10750 ] final    0.00 input  -60.55 | X-H torsion
[ 11005 11000 10999 10996 ] final   55.91 input  -57.11 | X-H torsion

> <Gold.Protein.ActiveResidues>
 VAL166  LYS551  ARG553  GLY616  TRP617  ASP618  TYR619  PRO620  LYS621  CYS622 
 ASP623  PHE694  ASN695  SER759  ASP760  ASP761  ALA762  ILE779  LEU786  VAL792 
 PHE793  MET794  SER795  GLU796  ALA797  LYS798  CYS799  TRP800  GLU811  SER814 

> <Gold.Protein.RotatedAtoms>
  150.7066  134.1105  159.3998 H   0  0  0  0  0  0  0  0  0  0  0  0  # atno 6907 bound_to 6896
  151.9092  135.0344  160.0522 H   0  0  0  0  0  0  0  0  0  0  0  0  # atno 6908 bound_to 6896
  152.2350  133.5053  159.5274 H   0  0  0  0  0  0  0  0  0  0  0  0  # atno 6909 bound_to 6896
  146.2434  140.1133  142.8343 H   0  0  0  0  0  0  0  0  0  0  0  0  # atno 7974 bound_to 7965
  156.0168  140.3344  155.6997 H   0  0  0  0  0  0  0  0  0  0  0  0  # atno 8008 bound_to 7997
  155.6080  140.0662  157.2732 H   0  0  0  0  0  0  0  0  0  0  0  0  # atno 8009 bound_to 7997
  154.4301  140.1798  156.1230 H   0  0  0  0  0  0  0  0  0  0  0  0  # atno 8010 bound_to 7997
  139.5627  144.1831  152.1264 H   0  0  0  0  0  0  0  0  0  0  0  0  # atno 10167 bound_to 10162
  157.6645  130.9740  150.1393 H   0  0  0  0  0  0  0  0  0  0  0  0  # atno 10718 bound_to 10713
  153.3263  135.6972  153.6987 H   0  0  0  0  0  0  0  0  0  0  0  0  # atno 10763 bound_to 10752
  153.5807  135.3498  155.2874 H   0  0  0  0  0  0  0  0  0  0  0  0  # atno 10764 bound_to 10752
  154.8608  135.4294  154.2440 H   0  0  0  0  0  0  0  0  0  0  0  0  # atno 10765 bound_to 10752
  140.0570  134.5656  155.9196 H   0  0  0  0  0  0  0  0  0  0  0  0  # atno 11005 bound_to 11000
  145.0468  140.8987  143.5019 LP  0  0  0  0  0  0  0  0  0  0  0  0  # atno 17320 bound_to 7965
  145.1224  139.2685  143.5582 LP  0  0  0  0  0  0  0  0  0  0  0  0  # atno 17321 bound_to 7965
  140.1348  144.5256  150.6780 LP  0  0  0  0  0  0  0  0  0  0  0  0  # atno 17342 bound_to 10162
  140.6908  143.2375  151.5136 LP  0  0  0  0  0  0  0  0  0  0  0  0  # atno 17343 bound_to 10162
  156.2220  130.3675  149.8545 LP  0  0  0  0  0  0  0  0  0  0  0  0  # atno 17370 bound_to 10713
  156.6395  130.8699  151.3511 LP  0  0  0  0  0  0  0  0  0  0  0  0  # atno 17371 bound_to 10713
  141.1956  133.6588  156.5652 LP  0  0  0  0  0  0  0  0  0  0  0  0  # atno 17394 bound_to 11000
  140.3829  134.7508  157.4672 LP  0  0  0  0  0  0  0  0  0  0  0  0  # atno 17395 bound_to 11000

$$$$
