AV-unprocessed.smi:3269|AV-procd|sdf|12511|dock4
  -GOLD-   2272018423D 1   1.00000     0.00000
 Structure written by MMmdl.
 39 40  0  0  0  0  0  0  0  0  1 V2000
  151.0032  145.6330  160.0497 C   0  0  0  0  0  0  0  0  0  0  0  0
  151.8408  144.4906  160.5491 C   0  0  0  0  0  0  0  0  0  0  0  0
  152.1280  144.4098  161.8377 N   0  0  0  0  0  0  0  0  0  0  0  0
  152.8680  143.2894  161.9556 N   0  0  0  0  0  0  0  0  0  0  0  0
  153.3501  142.8892  163.2633 C   0  0  0  0  0  0  0  0  0  0  0  0
  153.0538  142.6639  160.7383 C   0  0  0  0  0  0  0  0  0  0  0  0
  153.8351  141.3961  160.6077 C   0  0  0  0  0  0  0  0  0  0  0  0
  152.3995  143.4154  159.7978 C   0  0  0  0  0  0  0  0  0  0  0  0
  152.2720  143.1747  158.3145 C   0  0  0  0  0  0  0  0  0  0  0  0
  151.2900  142.0287  158.0752 C   0  0  0  0  0  0  0  0  0  0  0  0
  150.8775  141.3614  159.0239 O   0  0  0  0  0  0  0  0  0  0  0  0
  150.9529  141.7913  156.7988 N   0  0  0  0  0  0  0  0  0  0  0  0
  150.1606  140.6593  156.3370 C   0  0  0  0  0  0  0  0  0  0  0  0
  151.0635  139.4565  156.0186 C   0  0  1  0  0  0  0  0  0  0  0  0
  150.4231  138.4193  155.0990 C   0  0  0  0  0  0  0  0  0  0  0  0
  151.6153  137.7589  154.4214 C   0  0  0  0  0  0  0  0  0  0  0  0
  152.7911  138.6885  154.7372 C   0  0  0  0  0  0  0  0  0  0  0  0
  152.1983  139.8633  155.2701 O   0  0  0  0  0  0  0  0  0  0  0  0
  150.1728  145.2703  159.4436 H   0  0  0  0  0  0  0  0  0  0  0  0
  151.5952  146.3079  159.4316 H   0  0  0  0  0  0  0  0  0  0  0  0
  150.5824  146.2164  160.8696 H   0  0  0  0  0  0  0  0  0  0  0  0
  154.4396  142.8471  163.2557 H   0  0  0  0  0  0  0  0  0  0  0  0
  152.9560  141.9038  163.5125 H   0  0  0  0  0  0  0  0  0  0  0  0
  153.0305  143.6002  164.0267 H   0  0  0  0  0  0  0  0  0  0  0  0
  153.9909  141.1320  159.5622 H   0  0  0  0  0  0  0  0  0  0  0  0
  153.3103  140.5695  161.0867 H   0  0  0  0  0  0  0  0  0  0  0  0
  154.8154  141.4921  161.0744 H   0  0  0  0  0  0  0  0  0  0  0  0
  151.9078  144.0616  157.7950 H   0  0  0  0  0  0  0  0  0  0  0  0
  153.2364  142.9374  157.8634 H   0  0  0  0  0  0  0  0  0  0  0  0
  151.3399  142.3939  156.0872 H   0  0  0  0  0  0  0  0  0  0  0  0
  149.4162  140.3893  157.0878 H   0  0  0  0  0  0  0  0  0  0  0  0
  149.6095  140.9639  155.4468 H   0  0  0  0  0  0  0  0  0  0  0  0
  151.3992  138.9725  156.9382 H   0  0  0  0  0  0  0  0  0  0  0  0
  149.7956  137.7105  155.6404 H   0  0  0  0  0  0  0  0  0  0  0  0
  149.8036  138.9110  154.3475 H   0  0  0  0  0  0  0  0  0  0  0  0
  151.7990  136.7585  154.8148 H   0  0  0  0  0  0  0  0  0  0  0  0
  151.4495  137.6721  153.3471 H   0  0  0  0  0  0  0  0  0  0  0  0
  153.4414  138.2430  155.4918 H   0  0  0  0  0  0  0  0  0  0  0  0
  153.3954  138.9157  153.8588 H   0  0  0  0  0  0  0  0  0  0  0  0
  1  2  1  0  0  0  0
  1 19  1  0  0  0  0
  1 20  1  0  0  0  0
  1 21  1  0  0  0  0
  2  8  1  0  0  0  0
  2  3  2  0  0  0  0
  3  4  1  0  0  0  0
  4  5  1  0  0  0  0
  4  6  1  0  0  0  0
  5 22  1  0  0  0  0
  5 23  1  0  0  0  0
  5 24  1  0  0  0  0
  6  7  1  0  0  0  0
  6  8  2  0  0  0  0
  7 25  1  0  0  0  0
  7 26  1  0  0  0  0
  7 27  1  0  0  0  0
  8  9  1  0  0  0  0
  9 10  1  0  0  0  0
  9 28  1  0  0  0  0
  9 29  1  0  0  0  0
 10 11  2  0  0  0  0
 10 12  1  0  0  0  0
 12 13  1  0  0  0  0
 12 30  1  0  0  0  0
 13 14  1  0  0  0  0
 13 31  1  0  0  0  0
 13 32  1  0  0  0  0
 14 18  1  0  0  0  0
 14 15  1  0  0  0  0
 14 33  1  0  0  0  0
 15 16  1  0  0  0  0
 15 34  1  0  0  0  0
 15 35  1  0  0  0  0
 16 17  1  0  0  0  0
 16 36  1  0  0  0  0
 16 37  1  0  0  0  0
 17 18  1  0  0  0  0
 17 38  1  0  0  0  0
 17 39  1  0  0  0  0
M  END
> <s_m_source_file>
AV-unprocessed.smi

> <i_m_source_file_index>
3269

> <i_lp_mmshare_version>
43012

> <i_f3d_flags>
0

> <s_epik_input>
W0NIM11jMW5uKFtDSDNdKWMoW0NIM10pYzFbQ0gyXUMoPU8pW05IXVtDSDJdW0NAQEhdMltDSDJdW0NIMl1bQ0gyXU8y

> <s_epik_cmdline>
J2VwaWtfcHl0aG9uJywgJy1waCcsICc3LjAnLCAnLXRuJywgJzgnLCAnLW1hJywgJzIwMCcsICctbWV0YWxfYmluZGluZycsICctaW1hZScsICc8aW5maWxlLm1hZT4nLCAnLW9tYWUnLCAnPG91dGZpbGUubWFlPic=

> <r_lp_tautomer_probability>
1

> <r_epik_Ionization_Penalty>
0.00306713

> <r_epik_Ionization_Penalty_Charging>
0

> <r_epik_Ionization_Penalty_Neutral>
0.00306713

> <r_epik_State_Penalty>
0.00215672

> <r_epik_Charging_Adjusted_Penalty>
0.00215672

> <i_epik_Tot_Q>
0

> <i_epik_Tot_abs_Q>
0

> <r_epik_Metal_State_Penalty>
-0

> <b_epik_Metal_Only>
0

> <s_lp_Force_Field>
OPLS_2005

> <r_lp_Energy>
10.8306

> <b_lp_Chiralities_Consistent>
1

> <s_lp_Variant>
AV-unprocessed.smi:3269-2

> <Gold.Version>
5.8.1

> <Gold.Id.Protein>
6NUR|6NUR_protein|mol2

> <Gold.PLP.Fitness>
48.2357

> <Gold.PLP.PLP>
-47.0002

> <Gold.PLP.part.hbond>
-1.2005

> <Gold.PLP.part.metal>
0.0000

> <Gold.PLP.part.buried>
-7.2838

> <Gold.PLP.part.nonpolar>
-39.9649

> <Gold.PLP.part.repulsive>
0.6845

> <Gold.PLP.ligand.clash>
0.0000

> <Gold.PLP.ligand.torsion>
0.5721

> <Gold.PLP.Chemscore.Hbond>
0.7878

> <Gold.PLP.Chemscore.CHOScore>
0.0000

> <Gold.PLP.Chemscore.Metal>
0.0000

> <Gold.Chemscore.Hbonds>
donor molecule, donor type, donor heavy atom, donor atom, acceptor molecule, acceptor atom, score
      P1  H  7989  7998       L1    18  0.64
      P1  H  7997  8008       L1    18  0.03

> <Gold.PLP.Chemscore.Internal.Correction>
0.0164

> <Gold.Rescore>
     Score         DG    S(hbond)    S(metal)    S(lipo)     H(rot)  DE(clash)    DE(int)     intcor
     15.55     -16.16       0.39        0.00     112.95       1.50       0.08       0.54       ----

> <Gold.Chemscore.Fitness>
15.5460

> <Gold.Chemscore.DG>
-16.1648

> <Gold.Chemscore.ZeroCoef>
-5.4800

> <Gold.Chemscore.Hbond>
0.3913

> <Gold.Chemscore.Metal>
0.0000

> <Gold.Chemscore.Lipo>
112.9479

> <Gold.Chemscore.Internal_Hbond>
0.0000

> <Gold.Chemscore.DEClash>
0.0754

> <Gold.Chemscore.DEInternal>
0.5435

> <Gold.Chemscore.Rot>
1.4989

> <Gold.Chemscore.Internal.Correction>
   9.000000E+99

> <Gold.Chemscore.Hbonds>
donor molecule, donor type, donor heavy atom, donor atom, acceptor molecule, acceptor atom, score
      P1  H  7989  7998       L1    18  0.16

> <Gold.Chemscore.Hbond.Weighted>
-1.3070

> <Gold.Chemscore.Metal.Weighted>
-0.0000

> <Gold.Chemscore.Lipo.Weighted>
-13.2149

> <Gold.Chemscore.Internal_Hbond.Weighted>
0.0000

> <Gold.Chemscore.DEClash.Weighted>
0.0754

> <Gold.Chemscore.DEInternal.Weighted>
0.5435

> <Gold.Chemscore.Rot.Weighted>
3.8371

> <Gold.Chemscore.Internal.Correction.Weighted>
   9.000000E+99

> <Gold.Protein.RotatedTorsions>
[ 6907 6896 6895 6894 ] final  178.62 input  -60.11 | X-H torsion
[ 7974 7965 7964 7962 ] final -166.16 input  175.53 | X-H torsion
[ 8008 7997 7996 7995 ] final  -36.39 input   59.86 | X-H torsion
[ 10167 10162 10161 10158 ] final  130.54 input  -65.29 | X-H torsion
[ 10718 10713 10712 10709 ] final   98.78 input   66.30 | X-H torsion
[ 10763 10752 10751 10750 ] final  136.72 input  -60.55 | X-H torsion
[ 11005 11000 10999 10996 ] final  -51.36 input  -57.11 | X-H torsion

> <Gold.Protein.ActiveResidues>
 VAL166  LYS551  ARG553  GLY616  TRP617  ASP618  TYR619  PRO620  LYS621  CYS622 
 ASP623  PHE694  ASN695  SER759  ASP760  ASP761  ALA762  ILE779  LEU786  VAL792 
 PHE793  MET794  SER795  GLU796  ALA797  LYS798  CYS799  TRP800  GLU811  SER814 

> <Gold.Protein.RotatedAtoms>
  151.6850  133.3311  159.3228 H   0  0  0  0  0  0  0  0  0  0  0  0  # atno 6907 bound_to 6896
  150.7805  134.6748  159.6421 H   0  0  0  0  0  0  0  0  0  0  0  0  # atno 6908 bound_to 6896
  152.3861  134.6518  160.0177 H   0  0  0  0  0  0  0  0  0  0  0  0  # atno 6909 bound_to 6896
  144.7252  140.2707  143.6251 H   0  0  0  0  0  0  0  0  0  0  0  0  # atno 7974 bound_to 7965
  154.4074  140.1632  156.2366 H   0  0  0  0  0  0  0  0  0  0  0  0  # atno 8008 bound_to 7997
  155.9237  140.3419  155.6170 H   0  0  0  0  0  0  0  0  0  0  0  0  # atno 8009 bound_to 7997
  155.7191  140.0766  157.2329 H   0  0  0  0  0  0  0  0  0  0  0  0  # atno 8010 bound_to 7997
  139.5425  144.6744  151.4578 H   0  0  0  0  0  0  0  0  0  0  0  0  # atno 10167 bound_to 10162
  157.6889  131.0650  150.4848 H   0  0  0  0  0  0  0  0  0  0  0  0  # atno 10718 bound_to 10713
  153.8612  135.3067  155.3438 H   0  0  0  0  0  0  0  0  0  0  0  0  # atno 10763 bound_to 10752
  154.7848  135.4815  153.9925 H   0  0  0  0  0  0  0  0  0  0  0  0  # atno 10764 bound_to 10752
  153.1461  135.6834  153.9047 H   0  0  0  0  0  0  0  0  0  0  0  0  # atno 10765 bound_to 10752
  141.0867  133.6641  156.3866 H   0  0  0  0  0  0  0  0  0  0  0  0  # atno 11005 bound_to 11000
  145.8045  139.1978  143.2028 LP  0  0  0  0  0  0  0  0  0  0  0  0  # atno 17320 bound_to 7965
  146.0648  140.7932  142.9717 LP  0  0  0  0  0  0  0  0  0  0  0  0  # atno 17321 bound_to 7965
  140.6661  143.8396  150.6943 LP  0  0  0  0  0  0  0  0  0  0  0  0  # atno 17342 bound_to 10162
  140.1805  143.4119  152.1936 LP  0  0  0  0  0  0  0  0  0  0  0  0  # atno 17343 bound_to 10162
  156.5178  130.4154  149.6267 LP  0  0  0  0  0  0  0  0  0  0  0  0  # atno 17370 bound_to 10713
  156.3182  130.7266  151.2172 LP  0  0  0  0  0  0  0  0  0  0  0  0  # atno 17371 bound_to 10713
  140.5347  134.6178  157.5361 LP  0  0  0  0  0  0  0  0  0  0  0  0  # atno 17394 bound_to 11000
  139.9686  134.7331  156.0087 LP  0  0  0  0  0  0  0  0  0  0  0  0  # atno 17395 bound_to 11000

$$$$
