AV-unprocessed.smi:2318|AV-procd|sdf|9275|dock5
  -GOLD-   2272012493D 1   1.00000     0.00000
 Structure written by MMmdl.
 37 38  0  0  0  0  0  0  0  0  1 V2000
  151.4270  131.8639  156.8624 C   0  0  0  0  0  0  0  0  0  0  0  0
  150.8459  133.0252  156.2241 N   0  0  0  0  0  0  0  0  0  0  0  0
  151.1271  134.3589  156.4423 C   0  0  0  0  0  0  0  0  0  0  0  0
  150.3288  135.0875  155.6069 C   0  0  0  0  0  0  0  0  0  0  0  0
  149.5875  134.0923  154.9122 C   0  0  0  0  0  0  0  0  0  0  0  0
  148.6272  134.4580  153.9344 N   0  0  0  0  0  0  0  0  0  0  0  0
  147.3514  134.0455  153.8414 C   0  0  0  0  0  0  0  0  0  0  0  0
  146.8034  133.2580  154.6130 O   0  0  0  0  0  0  0  0  0  0  0  0
  146.7395  134.6035  152.7867 N   0  0  0  0  0  0  0  0  0  0  0  0
  145.3472  134.3907  152.3852 C   0  0  2  0  0  0  0  0  0  0  0  0
  145.3119  133.8638  150.9279 C   0  0  0  0  0  0  0  0  0  0  0  0
  144.0103  133.1685  150.5147 C   0  0  0  0  0  0  0  0  0  0  0  0
  144.3733  132.3676  149.2619 C   0  0  0  0  0  0  0  0  0  0  0  0
  145.8682  132.0439  149.3837 C   0  0  0  0  0  0  0  0  0  0  0  0
  146.3723  132.7953  150.6221 C   0  0  0  0  0  0  0  0  0  0  0  0
  144.5606  135.7041  152.5999 C   0  0  0  0  0  0  0  0  0  0  0  0
  144.5877  136.0417  153.8899 F   0  0  0  0  0  0  0  0  0  0  0  0
  145.0989  136.6952  151.8883 F   0  0  0  0  0  0  0  0  0  0  0  0
  143.2840  135.5614  152.2462 F   0  0  0  0  0  0  0  0  0  0  0  0
  149.8965  132.8562  155.2799 N   0  0  0  0  0  0  0  0  0  0  0  0
  152.1617  132.1735  157.6061 H   0  0  0  0  0  0  0  0  0  0  0  0
  151.9189  131.2399  156.1158 H   0  0  0  0  0  0  0  0  0  0  0  0
  150.6460  131.2845  157.3558 H   0  0  0  0  0  0  0  0  0  0  0  0
  151.8639  134.6754  157.1663 H   0  0  0  0  0  0  0  0  0  0  0  0
  150.2830  136.1621  155.5102 H   0  0  0  0  0  0  0  0  0  0  0  0
  148.9462  135.1068  153.2303 H   0  0  0  0  0  0  0  0  0  0  0  0
  147.2757  135.2394  152.2148 H   0  0  0  0  0  0  0  0  0  0  0  0
  144.8930  133.6320  153.0252 H   0  0  0  0  0  0  0  0  0  0  0  0
  145.4756  134.6999  150.2459 H   0  0  0  0  0  0  0  0  0  0  0  0
  143.6850  132.4876  151.3027 H   0  0  0  0  0  0  0  0  0  0  0  0
  143.1985  133.8700  150.3225 H   0  0  0  0  0  0  0  0  0  0  0  0
  143.7622  131.4701  149.1625 H   0  0  0  0  0  0  0  0  0  0  0  0
  144.2039  132.9776  148.3736 H   0  0  0  0  0  0  0  0  0  0  0  0
  146.0401  130.9715  149.4835 H   0  0  0  0  0  0  0  0  0  0  0  0
  146.3969  132.3760  148.4894 H   0  0  0  0  0  0  0  0  0  0  0  0
  147.3635  133.2229  150.4671 H   0  0  0  0  0  0  0  0  0  0  0  0
  146.4458  132.0985  151.4588 H   0  0  0  0  0  0  0  0  0  0  0  0
  1  2  1  0  0  0  0
  1 21  1  0  0  0  0
  1 22  1  0  0  0  0
  1 23  1  0  0  0  0
  2 20  1  0  0  0  0
  2  3  1  0  0  0  0
  3  4  2  0  0  0  0
  3 24  1  0  0  0  0
  4  5  1  0  0  0  0
  4 25  1  0  0  0  0
  5  6  1  0  0  0  0
  5 20  2  0  0  0  0
  6  7  1  0  0  0  0
  6 26  1  0  0  0  0
  7  8  2  0  0  0  0
  7  9  1  0  0  0  0
  9 10  1  0  0  0  0
  9 27  1  0  0  0  0
 10 11  1  0  0  0  0
 10 16  1  0  0  0  0
 10 28  1  0  0  0  0
 11 15  1  0  0  0  0
 11 12  1  0  0  0  0
 11 29  1  0  0  0  0
 12 13  1  0  0  0  0
 12 30  1  0  0  0  0
 12 31  1  0  0  0  0
 13 14  1  0  0  0  0
 13 32  1  0  0  0  0
 13 33  1  0  0  0  0
 14 15  1  0  0  0  0
 14 34  1  0  0  0  0
 14 35  1  0  0  0  0
 15 36  1  0  0  0  0
 15 37  1  0  0  0  0
 16 17  1  0  0  0  0
 16 18  1  0  0  0  0
 16 19  1  0  0  0  0
M  END
> <s_m_source_file>
AV-unprocessed.smi

> <i_m_source_file_index>
2318

> <i_lp_mmshare_version>
43012

> <i_f3d_flags>
0

> <s_epik_input>
W0NIM11uMVtjSF1bY0hdYyhuMSlbTkhdQyg9TylbTkhdW0NAQEhdKEMoRikoRilGKVtDSF0yW0NIMl1bQ0gyXVtDSDJdW0NIMl0y

> <s_epik_cmdline>
J2VwaWtfcHl0aG9uJywgJy1waCcsICc3LjAnLCAnLXRuJywgJzgnLCAnLW1hJywgJzIwMCcsICctbWV0YWxfYmluZGluZycsICctaW1hZScsICc8aW5maWxlLm1hZT4nLCAnLW9tYWUnLCAnPG91dGZpbGUubWFlPic=

> <r_lp_tautomer_probability>
1

> <r_epik_Ionization_Penalty>
2.39546e-05

> <r_epik_Ionization_Penalty_Charging>
0

> <r_epik_Ionization_Penalty_Neutral>
2.39546e-05

> <r_epik_State_Penalty>
-0

> <r_epik_Charging_Adjusted_Penalty>
0

> <i_epik_Tot_Q>
0

> <i_epik_Tot_abs_Q>
0

> <r_epik_Metal_State_Penalty>
-0

> <b_epik_Metal_Only>
0

> <s_lp_Force_Field>
OPLS_2005

> <r_lp_Energy>
23.9909

> <b_lp_Chiralities_Consistent>
1

> <s_lp_Variant>
AV-unprocessed.smi:2318-1

> <Gold.Version>
5.8.1

> <Gold.Id.Protein>
6NUR|6NUR_protein|mol2

> <Gold.PLP.Fitness>
38.6101

> <Gold.PLP.PLP>
-33.8454

> <Gold.PLP.part.hbond>
-2.0000

> <Gold.PLP.part.metal>
0.0000

> <Gold.PLP.part.buried>
-4.0680

> <Gold.PLP.part.nonpolar>
-26.6238

> <Gold.PLP.part.repulsive>
0.0521

> <Gold.PLP.ligand.clash>
0.0000

> <Gold.PLP.ligand.torsion>
0.7824

> <Gold.PLP.Chemscore.Hbond>
2.0000

> <Gold.PLP.Chemscore.CHOScore>
0.0000

> <Gold.PLP.Chemscore.Metal>
0.0000

> <Gold.Chemscore.Hbonds>
donor molecule, donor type, donor heavy atom, donor atom, acceptor molecule, acceptor atom, score
      L1  H     6    26       P1  7948  1.00
      L1  H     9    27       P1  7948  1.00

> <Gold.PLP.Chemscore.Internal.Correction>
0.3295

> <Gold.Rescore>
     Score         DG    S(hbond)    S(metal)    S(lipo)     H(rot)  DE(clash)    DE(int)     intcor
     14.30     -15.07       1.71        0.00      61.64       1.30       0.05       0.72       ----

> <Gold.Chemscore.Fitness>
14.3031

> <Gold.Chemscore.DG>
-15.0679

> <Gold.Chemscore.ZeroCoef>
-5.4800

> <Gold.Chemscore.Hbond>
1.7081

> <Gold.Chemscore.Metal>
0.0000

> <Gold.Chemscore.Lipo>
61.6380

> <Gold.Chemscore.Internal_Hbond>
0.0000

> <Gold.Chemscore.DEClash>
0.0450

> <Gold.Chemscore.DEInternal>
0.7197

> <Gold.Chemscore.Rot>
1.3003

> <Gold.Chemscore.Internal.Correction>
   9.000000E+99

> <Gold.Chemscore.Hbonds>
donor molecule, donor type, donor heavy atom, donor atom, acceptor molecule, acceptor atom, score
      L1  H     6    26       P1  7948  0.35
      L1  H     9    27       P1  7948  0.94

> <Gold.Chemscore.Hbond.Weighted>
-5.7050

> <Gold.Chemscore.Metal.Weighted>
-0.0000

> <Gold.Chemscore.Lipo.Weighted>
-7.2116

> <Gold.Chemscore.Internal_Hbond.Weighted>
0.0000

> <Gold.Chemscore.DEClash.Weighted>
0.0450

> <Gold.Chemscore.DEInternal.Weighted>
0.7197

> <Gold.Chemscore.Rot.Weighted>
3.3287

> <Gold.Chemscore.Internal.Correction.Weighted>
   9.000000E+99

> <Gold.Protein.RotatedTorsions>
[ 6907 6896 6895 6894 ] final   26.46 input  -60.11 | X-H torsion
[ 7974 7965 7964 7962 ] final -156.41 input  175.53 | X-H torsion
[ 8008 7997 7996 7995 ] final  160.13 input   59.86 | X-H torsion
[ 10167 10162 10161 10158 ] final -131.31 input  -65.29 | X-H torsion
[ 10718 10713 10712 10709 ] final   90.91 input   66.30 | X-H torsion
[ 10763 10752 10751 10750 ] final -147.53 input  -60.55 | X-H torsion
[ 11005 11000 10999 10996 ] final  118.28 input  -57.11 | X-H torsion

> <Gold.Protein.ActiveResidues>
 VAL166  LYS551  ARG553  GLY616  TRP617  ASP618  TYR619  PRO620  LYS621  CYS622 
 ASP623  PHE694  ASN695  SER759  ASP760  ASP761  ALA762  ILE779  LEU786  VAL792 
 PHE793  MET794  SER795  GLU796  ALA797  LYS798  CYS799  TRP800  GLU811  SER814 

> <Gold.Protein.RotatedAtoms>
  151.9878  134.9995  160.0559 H   0  0  0  0  0  0  0  0  0  0  0  0  # atno 6907 bound_to 6896
  152.1636  133.4593  159.4882 H   0  0  0  0  0  0  0  0  0  0  0  0  # atno 6908 bound_to 6896
  150.6891  134.1958  159.4346 H   0  0  0  0  0  0  0  0  0  0  0  0  # atno 6909 bound_to 6896
  144.7594  140.4114  143.5987 H   0  0  0  0  0  0  0  0  0  0  0  0  # atno 7974 bound_to 7965
  156.2193  140.1812  156.7516 H   0  0  0  0  0  0  0  0  0  0  0  0  # atno 8008 bound_to 7997
  154.5839  140.0661  156.9173 H   0  0  0  0  0  0  0  0  0  0  0  0  # atno 8009 bound_to 7997
  155.2453  140.3325  155.4290 H   0  0  0  0  0  0  0  0  0  0  0  0  # atno 8010 bound_to 7997
  139.9203  143.6391  152.2555 H   0  0  0  0  0  0  0  0  0  0  0  0  # atno 10167 bound_to 10162
  157.6960  131.0388  150.3650 H   0  0  0  0  0  0  0  0  0  0  0  0  # atno 10718 bound_to 10713
  154.8281  135.3358  154.6833 H   0  0  0  0  0  0  0  0  0  0  0  0  # atno 10763 bound_to 10752
  153.7456  135.6943  153.4961 H   0  0  0  0  0  0  0  0  0  0  0  0  # atno 10764 bound_to 10752
  153.2213  135.4448  155.0443 H   0  0  0  0  0  0  0  0  0  0  0  0  # atno 10765 bound_to 10752
  139.9104  134.9619  156.7479 H   0  0  0  0  0  0  0  0  0  0  0  0  # atno 11005 bound_to 11000
  145.6668  139.1591  143.2777 LP  0  0  0  0  0  0  0  0  0  0  0  0  # atno 17320 bound_to 7965
  146.1642  140.6743  142.9263 LP  0  0  0  0  0  0  0  0  0  0  0  0  # atno 17321 bound_to 7965
  139.6868  144.7651  151.1510 LP  0  0  0  0  0  0  0  0  0  0  0  0  # atno 17342 bound_to 10162
  140.7664  143.5646  150.9061 LP  0  0  0  0  0  0  0  0  0  0  0  0  # atno 17343 bound_to 10162
  156.4082  130.3929  149.6911 LP  0  0  0  0  0  0  0  0  0  0  0  0  # atno 17370 bound_to 10713
  156.4204  130.7766  151.2783 LP  0  0  0  0  0  0  0  0  0  0  0  0  # atno 17371 bound_to 10713
  140.6797  133.9486  155.7903 LP  0  0  0  0  0  0  0  0  0  0  0  0  # atno 17394 bound_to 11000
  141.0519  134.0472  157.3772 LP  0  0  0  0  0  0  0  0  0  0  0  0  # atno 17395 bound_to 11000

$$$$
