AV-unprocessed.smi:3136|AV-procd|sdf|11949|dock4
  -GOLD-   2272017343D 1   1.00000     0.00000
 Structure written by MMmdl.
 40 40  0  0  0  0  0  0  0  0  2 V2000
  147.6296  133.1230  152.5715 C   0  0  0  0  0  0  0  0  0  0  0  0
  146.3303  133.8120  152.1325 C   0  0  0  0  0  0  0  0  0  0  0  0
  146.5564  135.2079  151.7745 N   0  0  0  0  0  0  0  0  0  0  0  0
  145.6286  136.0368  151.2720 C   0  0  0  0  0  0  0  0  0  0  0  0
  144.4643  135.6964  151.0592 O   0  0  0  0  0  0  0  0  0  0  0  0
  146.1007  137.4623  150.9666 C   0  0  0  0  0  0  0  0  0  0  0  0
  146.3326  138.3154  152.2258 C   0  0  0  0  0  0  0  0  0  0  0  0
  147.7748  138.4426  152.5193 N   0  3  0  0  0  0  0  0  0  0  0  0
  148.1019  138.8954  153.8918 C   0  0  1  0  0  0  0  0  0  0  0  0
  147.4988  137.9081  154.9049 C   0  0  0  0  0  0  0  0  0  0  0  0
  149.6303  139.0887  154.0946 C   0  0  2  0  0  0  0  0  0  0  0  0
  150.3934  137.7780  154.3621 C   0  0  0  0  0  0  0  0  0  0  0  0
  149.9528  140.1091  155.0874 N   0  0  0  0  0  0  0  0  0  0  0  0
  149.0885  140.7794  155.9293 C   0  0  0  0  0  0  0  0  0  0  0  0
  149.8357  141.6310  156.6910 C   0  0  0  0  0  0  0  0  0  0  0  0
  151.1663  141.4076  156.2414 C   0  0  0  0  0  0  0  0  0  0  0  0
  151.2344  140.4946  155.2862 N   0  0  0  0  0  0  0  0  0  0  0  0
  147.4362  132.0974  152.8870 H   0  0  0  0  0  0  0  0  0  0  0  0
  148.0908  133.6470  153.4094 H   0  0  0  0  0  0  0  0  0  0  0  0
  148.3550  133.0860  151.7582 H   0  0  0  0  0  0  0  0  0  0  0  0
  145.8772  133.2741  151.2978 H   0  0  0  0  0  0  0  0  0  0  0  0
  145.6068  133.7843  152.9477 H   0  0  0  0  0  0  0  0  0  0  0  0
  147.4886  135.5684  151.9193 H   0  0  0  0  0  0  0  0  0  0  0  0
  147.0229  137.4036  150.3864 H   0  0  0  0  0  0  0  0  0  0  0  0
  145.3565  137.9413  150.3287 H   0  0  0  0  0  0  0  0  0  0  0  0
  145.8994  139.3070  152.0920 H   0  0  0  0  0  0  0  0  0  0  0  0
  145.8387  137.8600  153.0857 H   0  0  0  0  0  0  0  0  0  0  0  0
  148.1957  137.5348  152.3824 H   0  0  0  0  0  0  0  0  0  0  0  0
  147.6160  139.8569  154.0661 H   0  0  0  0  0  0  0  0  0  0  0  0
  147.7153  138.2154  155.9283 H   0  0  0  0  0  0  0  0  0  0  0  0
  147.8890  136.8986  154.7711 H   0  0  0  0  0  0  0  0  0  0  0  0
  146.4144  137.8571  154.8014 H   0  0  0  0  0  0  0  0  0  0  0  0
  150.0163  139.4635  153.1452 H   0  0  0  0  0  0  0  0  0  0  0  0
  150.1962  137.0431  153.5813 H   0  0  0  0  0  0  0  0  0  0  0  0
  150.1180  137.3312  155.3176 H   0  0  0  0  0  0  0  0  0  0  0  0
  151.4695  137.9526  154.3824 H   0  0  0  0  0  0  0  0  0  0  0  0
  148.0239  140.5969  155.9174 H   0  0  0  0  0  0  0  0  0  0  0  0
  149.4851  142.3107  157.4537 H   0  0  0  0  0  0  0  0  0  0  0  0
  152.0779  141.8775  156.5799 H   0  0  0  0  0  0  0  0  0  0  0  0
  148.1942  139.0891  151.8653 H   0  0  0  0  0  0  0  0  0  0  0  0
  1  2  1  0  0  0  0
  1 18  1  0  0  0  0
  1 19  1  0  0  0  0
  1 20  1  0  0  0  0
  2  3  1  0  0  0  0
  2 21  1  0  0  0  0
  2 22  1  0  0  0  0
  3  4  1  0  0  0  0
  3 23  1  0  0  0  0
  4  5  2  0  0  0  0
  4  6  1  0  0  0  0
  6  7  1  0  0  0  0
  6 24  1  0  0  0  0
  6 25  1  0  0  0  0
  7  8  1  0  0  0  0
  7 26  1  0  0  0  0
  7 27  1  0  0  0  0
  8  9  1  0  0  0  0
  8 28  1  0  0  0  0
  8 40  1  0  0  0  0
  9 10  1  0  0  0  0
  9 11  1  0  0  0  0
  9 29  1  0  0  0  0
 10 30  1  0  0  0  0
 10 31  1  0  0  0  0
 10 32  1  0  0  0  0
 11 12  1  0  0  0  0
 11 13  1  0  0  0  0
 11 33  1  0  0  0  0
 12 34  1  0  0  0  0
 12 35  1  0  0  0  0
 12 36  1  0  0  0  0
 13 17  1  0  0  0  0
 13 14  1  0  0  0  0
 14 15  2  0  0  0  0
 14 37  1  0  0  0  0
 15 16  1  0  0  0  0
 15 38  1  0  0  0  0
 16 17  2  0  0  0  0
 16 39  1  0  0  0  0
M  CHG  1   8   1
M  END
> <s_m_source_file>
AV-unprocessed.smi

> <i_m_source_file_index>
3136

> <i_lp_mmshare_version>
43012

> <i_f3d_flags>
0

> <s_epik_input>
W0NIM11bQ0gyXVtOSF1DKD1PKVtDSDJdW0NIMl1bTkhdW0NASF0oW0NIM10pW0NASF0oW0NIM10pbjFbY0hdW2NIXVtjSF1uMQ==

> <s_epik_cmdline>
J2VwaWtfcHl0aG9uJywgJy1waCcsICc3LjAnLCAnLXRuJywgJzgnLCAnLW1hJywgJzIwMCcsICctbWV0YWxfYmluZGluZycsICctaW1hZScsICc8aW5maWxlLm1hZT4nLCAnLW9tYWUnLCAnPG91dGZpbGUubWFlPic=

> <r_lp_tautomer_probability>
1

> <r_epik_Ionization_Penalty>
0.00463447

> <r_epik_Ionization_Penalty_Charging>
0.00462393

> <r_epik_Ionization_Penalty_Neutral>
1.05394e-05

> <r_epik_State_Penalty>
-0

> <r_epik_Charging_Adjusted_Penalty>
0.00462393

> <i_epik_Tot_Q>
1

> <i_epik_Tot_abs_Q>
1

> <r_epik_Metal_State_Penalty>
-0

> <b_epik_Metal_Only>
0

> <s_lp_Force_Field>
OPLS_2005

> <r_lp_Energy>
10.5289

> <b_lp_Chiralities_Consistent>
1

> <s_lp_Variant>
AV-unprocessed.smi:3136-2

> <Gold.Version>
5.8.1

> <Gold.Id.Protein>
6NUR|6NUR_protein|mol2

> <Gold.PLP.Fitness>
42.9169

> <Gold.PLP.PLP>
-30.2053

> <Gold.PLP.part.hbond>
-4.0000

> <Gold.PLP.part.metal>
0.0000

> <Gold.PLP.part.buried>
-0.0965

> <Gold.PLP.part.nonpolar>
-27.9240

> <Gold.PLP.part.repulsive>
0.3985

> <Gold.PLP.ligand.clash>
0.0000

> <Gold.PLP.ligand.torsion>
1.0897

> <Gold.PLP.Chemscore.Hbond>
4.8352

> <Gold.PLP.Chemscore.CHOScore>
0.0000

> <Gold.PLP.Chemscore.Metal>
0.0000

> <Gold.Chemscore.Hbonds>
donor molecule, donor type, donor heavy atom, donor atom, acceptor molecule, acceptor atom, score
      L1  H     3    23       P1  7948  1.00
      L1  H     8    28       P1  7948  2.00
      L1  H     8    40       P1  7957  1.00
      P1  H  7989  7998       L1    17  0.84

> <Gold.PLP.Chemscore.Internal.Correction>
0.3854

> <Gold.Rescore>
     Score         DG    S(hbond)    S(metal)    S(lipo)     H(rot)  DE(clash)    DE(int)     intcor
     15.85     -18.46       3.42        0.00      63.98       2.32       1.47       1.15       ----

> <Gold.Chemscore.Fitness>
15.8460

> <Gold.Chemscore.DG>
-18.4599

> <Gold.Chemscore.ZeroCoef>
-5.4800

> <Gold.Chemscore.Hbond>
3.4201

> <Gold.Chemscore.Metal>
0.0000

> <Gold.Chemscore.Lipo>
63.9763

> <Gold.Chemscore.Internal_Hbond>
0.0000

> <Gold.Chemscore.DEClash>
1.4679

> <Gold.Chemscore.DEInternal>
1.1461

> <Gold.Chemscore.Rot>
2.3159

> <Gold.Chemscore.Internal.Correction>
   9.000000E+99

> <Gold.Chemscore.Hbonds>
donor molecule, donor type, donor heavy atom, donor atom, acceptor molecule, acceptor atom, score
      L1  H     3    23       P1  7948  0.97
      L1  H     8    28       P1  7948  0.97
      L1  H     8    40       P1  7957  0.96
      P1  H  7989  7998       L1    17  0.16

> <Gold.Chemscore.Hbond.Weighted>
-11.4233

> <Gold.Chemscore.Metal.Weighted>
-0.0000

> <Gold.Chemscore.Lipo.Weighted>
-7.4852

> <Gold.Chemscore.Internal_Hbond.Weighted>
0.0000

> <Gold.Chemscore.DEClash.Weighted>
1.4679

> <Gold.Chemscore.DEInternal.Weighted>
1.1461

> <Gold.Chemscore.Rot.Weighted>
5.9286

> <Gold.Chemscore.Internal.Correction.Weighted>
   9.000000E+99

> <Gold.Protein.RotatedTorsions>
[ 6907 6896 6895 6894 ] final   -2.79 input  -60.11 | X-H torsion
[ 7974 7965 7964 7962 ] final   63.70 input  175.53 | X-H torsion
[ 8008 7997 7996 7995 ] final -147.84 input   59.86 | X-H torsion
[ 10167 10162 10161 10158 ] final -119.09 input  -65.29 | X-H torsion
[ 10718 10713 10712 10709 ] final   -9.86 input   66.30 | X-H torsion
[ 10763 10752 10751 10750 ] final  -41.00 input  -60.55 | X-H torsion
[ 11005 11000 10999 10996 ] final  173.00 input  -57.11 | X-H torsion

> <Gold.Protein.ActiveResidues>
 VAL166  LYS551  ARG553  GLY616  TRP617  ASP618  TYR619  PRO620  LYS621  CYS622 
 ASP623  PHE694  ASN695  SER759  ASP760  ASP761  ALA762  ILE779  LEU786  VAL792 
 PHE793  MET794  SER795  GLU796  ALA797  LYS798  CYS799  TRP800  GLU811  SER814 

> <Gold.Protein.RotatedAtoms>
  151.5242  135.1067  159.9885 H   0  0  0  0  0  0  0  0  0  0  0  0  # atno 6907 bound_to 6896
  152.4607  133.7812  159.6862 H   0  0  0  0  0  0  0  0  0  0  0  0  # atno 6908 bound_to 6896
  150.8568  133.7638  159.3031 H   0  0  0  0  0  0  0  0  0  0  0  0  # atno 6909 bound_to 6896
  145.8588  139.3301  143.0831 H   0  0  0  0  0  0  0  0  0  0  0  0  # atno 7974 bound_to 7965
  155.5821  140.0644  157.2780 H   0  0  0  0  0  0  0  0  0  0  0  0  # atno 8008 bound_to 7997
  154.4329  140.1850  156.1033 H   0  0  0  0  0  0  0  0  0  0  0  0  # atno 8009 bound_to 7997
  156.0297  140.3308  155.7130 H   0  0  0  0  0  0  0  0  0  0  0  0  # atno 8010 bound_to 7997
  140.0504  143.5066  152.2085 H   0  0  0  0  0  0  0  0  0  0  0  0  # atno 10167 bound_to 10162
  156.6818  130.5039  149.5969 H   0  0  0  0  0  0  0  0  0  0  0  0  # atno 10718 bound_to 10713
  153.9553  135.6746  153.4744 H   0  0  0  0  0  0  0  0  0  0  0  0  # atno 10763 bound_to 10752
  153.0864  135.4896  154.8602 H   0  0  0  0  0  0  0  0  0  0  0  0  # atno 10764 bound_to 10752
  154.7303  135.3136  154.8862 H   0  0  0  0  0  0  0  0  0  0  0  0  # atno 10765 bound_to 10752
  140.3357  134.7319  157.4167 H   0  0  0  0  0  0  0  0  0  0  0  0  # atno 11005 bound_to 11000
  145.9272  140.9074  143.0375 LP  0  0  0  0  0  0  0  0  0  0  0  0  # atno 17320 bound_to 7965
  144.6727  140.1369  143.7440 LP  0  0  0  0  0  0  0  0  0  0  0  0  # atno 17321 bound_to 7965
  139.5957  144.7566  151.3293 LP  0  0  0  0  0  0  0  0  0  0  0  0  # atno 17342 bound_to 10162
  140.7219  143.7111  150.7769 LP  0  0  0  0  0  0  0  0  0  0  0  0  # atno 17343 bound_to 10162
  156.1862  130.6530  151.1008 LP  0  0  0  0  0  0  0  0  0  0  0  0  # atno 17370 bound_to 10713
  157.7041  131.0764  150.6726 LP  0  0  0  0  0  0  0  0  0  0  0  0  # atno 17371 bound_to 10713
  140.0823  134.5715  155.8528 LP  0  0  0  0  0  0  0  0  0  0  0  0  # atno 17394 bound_to 11000
  141.2052  133.6645  156.6164 LP  0  0  0  0  0  0  0  0  0  0  0  0  # atno 17395 bound_to 11000

$$$$
