AV-unprocessed.smi:2044|AV-procd|sdf|8301|dock7
  -GOLD-   2272010563D 1   1.00000     0.00000
 Structure written by MMmdl.
 40 41  0  0  0  0  0  0  0  0  2 V2000
  136.3418  139.3778  153.4455 C   0  0  0  0  0  0  0  0  0  0  0  0
  137.8237  139.5147  153.3678 C   0  0  0  0  0  0  0  0  0  0  0  0
  138.8210  138.6450  153.0274 C   0  0  0  0  0  0  0  0  0  0  0  0
  139.9972  139.4383  153.1654 C   0  0  0  0  0  0  0  0  0  0  0  0
  141.3299  139.0155  152.9242 N   0  0  0  0  0  0  0  0  0  0  0  0
  141.8165  137.7634  152.8984 C   0  0  0  0  0  0  0  0  0  0  0  0
  141.1677  136.7391  153.1112 O   0  0  0  0  0  0  0  0  0  0  0  0
  143.1239  137.7555  152.6008 N   0  0  0  0  0  0  0  0  0  0  0  0
  143.9413  136.5522  152.4731 C   0  0  0  0  0  0  0  0  0  0  0  0
  145.4303  136.8579  152.1563 C   0  0  1  0  0  0  0  0  0  0  0  0
  146.0534  137.7030  153.2946 C   0  0  0  0  0  0  0  0  0  0  0  0
  146.1770  135.5871  151.8786 N   0  3  0  0  0  0  0  0  0  0  0  0
  146.3217  134.7340  153.0904 C   0  0  0  0  0  0  0  0  0  0  0  0
  147.1613  133.4815  152.7916 C   0  0  0  0  0  0  0  0  0  0  0  0
  146.5524  132.7447  151.7424 O   0  0  0  0  0  0  0  0  0  0  0  0
  146.4973  133.5000  150.5418 C   0  0  0  0  0  0  0  0  0  0  0  0
  145.6478  134.7651  150.7548 C   0  0  0  0  0  0  0  0  0  0  0  0
  139.7355  140.6725  153.5543 N   0  0  0  0  0  0  0  0  0  0  0  0
  138.3433  140.7304  153.6869 O   0  0  0  0  0  0  0  0  0  0  0  0
  136.0474  138.3282  153.4400 H   0  0  0  0  0  0  0  0  0  0  0  0
  135.8647  139.8673  152.5965 H   0  0  0  0  0  0  0  0  0  0  0  0
  135.9571  139.8315  154.3590 H   0  0  0  0  0  0  0  0  0  0  0  0
  138.7078  137.6139  152.7289 H   0  0  0  0  0  0  0  0  0  0  0  0
  141.9877  139.7574  152.7354 H   0  0  0  0  0  0  0  0  0  0  0  0
  143.5841  138.6407  152.4439 H   0  0  0  0  0  0  0  0  0  0  0  0
  143.8710  136.0002  153.4109 H   0  0  0  0  0  0  0  0  0  0  0  0
  143.4823  135.9172  151.7164 H   0  0  0  0  0  0  0  0  0  0  0  0
  145.4815  137.4672  151.2524 H   0  0  0  0  0  0  0  0  0  0  0  0
  145.4735  138.6040  153.4937 H   0  0  0  0  0  0  0  0  0  0  0  0
  147.0556  138.0511  153.0446 H   0  0  0  0  0  0  0  0  0  0  0  0
  146.1086  137.1386  154.2262 H   0  0  0  0  0  0  0  0  0  0  0  0
  146.7966  135.2790  153.9037 H   0  0  0  0  0  0  0  0  0  0  0  0
  145.3341  134.4365  153.4465 H   0  0  0  0  0  0  0  0  0  0  0  0
  148.1848  133.7497  152.5241 H   0  0  0  0  0  0  0  0  0  0  0  0
  147.2190  132.8488  153.6774 H   0  0  0  0  0  0  0  0  0  0  0  0
  147.5056  133.7589  150.2141 H   0  0  0  0  0  0  0  0  0  0  0  0
  146.0586  132.8826  149.7577 H   0  0  0  0  0  0  0  0  0  0  0  0
  144.6111  134.4905  150.9568 H   0  0  0  0  0  0  0  0  0  0  0  0
  145.6631  135.3269  149.8214 H   0  0  0  0  0  0  0  0  0  0  0  0
  147.1082  135.8627  151.6008 H   0  0  0  0  0  0  0  0  0  0  0  0
  1  2  1  0  0  0  0
  1 20  1  0  0  0  0
  1 21  1  0  0  0  0
  1 22  1  0  0  0  0
  2 19  1  0  0  0  0
  2  3  2  0  0  0  0
  3  4  1  0  0  0  0
  3 23  1  0  0  0  0
  4  5  1  0  0  0  0
  4 18  2  0  0  0  0
  5  6  1  0  0  0  0
  5 24  1  0  0  0  0
  6  7  2  0  0  0  0
  6  8  1  0  0  0  0
  8  9  1  0  0  0  0
  8 25  1  0  0  0  0
  9 10  1  0  0  0  0
  9 26  1  0  0  0  0
  9 27  1  0  0  0  0
 10 11  1  0  0  0  0
 10 12  1  0  0  0  0
 10 28  1  0  0  0  0
 11 29  1  0  0  0  0
 11 30  1  0  0  0  0
 11 31  1  0  0  0  0
 12 17  1  0  0  0  0
 12 13  1  0  0  0  0
 12 40  1  0  0  0  0
 13 14  1  0  0  0  0
 13 32  1  0  0  0  0
 13 33  1  0  0  0  0
 14 15  1  0  0  0  0
 14 34  1  0  0  0  0
 14 35  1  0  0  0  0
 15 16  1  0  0  0  0
 16 17  1  0  0  0  0
 16 36  1  0  0  0  0
 16 37  1  0  0  0  0
 17 38  1  0  0  0  0
 17 39  1  0  0  0  0
 18 19  1  0  0  0  0
M  CHG  1  12   1
M  END
> <s_m_source_file>
AV-unprocessed.smi

> <i_m_source_file_index>
2044

> <i_lp_mmshare_version>
43012

> <i_f3d_flags>
0

> <s_epik_input>
W0NIM11jMVtjSF1jKG5vMSlbTkhdQyg9TylbTkhdW0NIMl1bQ0BIXShbQ0gzXSlOMltDSDJdW0NIMl1PW0NIMl1bQ0gyXTI=

> <s_epik_cmdline>
J2VwaWtfcHl0aG9uJywgJy1waCcsICc3LjAnLCAnLXRuJywgJzgnLCAnLW1hJywgJzIwMCcsICctbWV0YWxfYmluZGluZycsICctaW1hZScsICc8aW5maWxlLm1hZT4nLCAnLW9tYWUnLCAnPG91dGZpbGUubWFlPic=

> <r_epik_Ionization_Penalty>
0.707076

> <r_epik_Ionization_Penalty_Charging>
0.707039

> <r_epik_Ionization_Penalty_Neutral>
3.67886e-05

> <r_epik_State_Penalty>
0.730276

> <r_epik_Charging_Adjusted_Penalty>
1.43732

> <i_epik_Tot_Q>
1

> <i_epik_Tot_abs_Q>
1

> <r_epik_Metal_State_Penalty>
0.743216

> <b_epik_Metal_Only>
0

> <s_lp_Force_Field>
OPLS_2005

> <r_lp_Energy>
19.4768

> <b_lp_Chiralities_Consistent>
1

> <s_lp_Variant>
AV-unprocessed.smi:2044-4

> <Gold.Version>
5.8.1

> <Gold.Id.Protein>
6NUR|6NUR_protein|mol2

> <Gold.PLP.Fitness>
39.3088

> <Gold.PLP.PLP>
-27.5303

> <Gold.PLP.part.hbond>
-4.5724

> <Gold.PLP.part.metal>
0.0000

> <Gold.PLP.part.buried>
-2.5763

> <Gold.PLP.part.nonpolar>
-20.5227

> <Gold.PLP.part.repulsive>
1.1055

> <Gold.PLP.ligand.clash>
0.0000

> <Gold.PLP.ligand.torsion>
0.1311

> <Gold.PLP.Chemscore.Hbond>
4.0000

> <Gold.PLP.Chemscore.CHOScore>
0.0000

> <Gold.PLP.Chemscore.Metal>
0.0000

> <Gold.Chemscore.Hbonds>
donor molecule, donor type, donor heavy atom, donor atom, acceptor molecule, acceptor atom, score
      L1  H     5    24       P1 10175  1.00
      L1  H     8    25       P1 10175  1.00
      L1  H    12    40       P1  7948  2.00

> <Gold.PLP.Chemscore.Internal.Correction>
0.0408

> <Gold.Rescore>
     Score         DG    S(hbond)    S(metal)    S(lipo)     H(rot)  DE(clash)    DE(int)     intcor
     17.10     -17.49       2.85        0.00      56.85       1.62       0.13       0.26       ----

> <Gold.Chemscore.Fitness>
17.1024

> <Gold.Chemscore.DG>
-17.4866

> <Gold.Chemscore.ZeroCoef>
-5.4800

> <Gold.Chemscore.Hbond>
2.8462

> <Gold.Chemscore.Metal>
0.0000

> <Gold.Chemscore.Lipo>
56.8457

> <Gold.Chemscore.Internal_Hbond>
0.0000

> <Gold.Chemscore.DEClash>
0.1278

> <Gold.Chemscore.DEInternal>
0.2564

> <Gold.Chemscore.Rot>
1.6213

> <Gold.Chemscore.Internal.Correction>
   9.000000E+99

> <Gold.Chemscore.Hbonds>
donor molecule, donor type, donor heavy atom, donor atom, acceptor molecule, acceptor atom, score
      L1  H     5    24       P1 10175  0.30
      L1  H     8    25       P1 10175  0.96
      L1  H    12    40       P1  7948  0.99

> <Gold.Chemscore.Hbond.Weighted>
-9.5064

> <Gold.Chemscore.Metal.Weighted>
-0.0000

> <Gold.Chemscore.Lipo.Weighted>
-6.6509

> <Gold.Chemscore.Internal_Hbond.Weighted>
0.0000

> <Gold.Chemscore.DEClash.Weighted>
0.1278

> <Gold.Chemscore.DEInternal.Weighted>
0.2564

> <Gold.Chemscore.Rot.Weighted>
4.1506

> <Gold.Chemscore.Internal.Correction.Weighted>
   9.000000E+99

> <Gold.Protein.RotatedTorsions>
[ 6907 6896 6895 6894 ] final   61.92 input  -60.11 | X-H torsion
[ 7974 7965 7964 7962 ] final  111.18 input  175.53 | X-H torsion
[ 8008 7997 7996 7995 ] final  -64.67 input   59.86 | X-H torsion
[ 10167 10162 10161 10158 ] final  -95.95 input  -65.29 | X-H torsion
[ 10718 10713 10712 10709 ] final  117.64 input   66.30 | X-H torsion
[ 10763 10752 10751 10750 ] final  -63.75 input  -60.55 | X-H torsion
[ 11005 11000 10999 10996 ] final   89.73 input  -57.11 | X-H torsion

> <Gold.Protein.ActiveResidues>
 VAL166  LYS551  ARG553  GLY616  TRP617  ASP618  TYR619  PRO620  LYS621  CYS622 
 ASP623  PHE694  ASN695  SER759  ASP760  ASP761  ALA762  ILE779  LEU786  VAL792 
 PHE793  MET794  SER795  GLU796  ALA797  LYS798  CYS799  TRP800  GLU811  SER814 

> <Gold.Protein.RotatedAtoms>
  152.4129  134.6092  160.0020 H   0  0  0  0  0  0  0  0  0  0  0  0  # atno 6907 bound_to 6896
  151.6264  133.3329  159.3107 H   0  0  0  0  0  0  0  0  0  0  0  0  # atno 6908 bound_to 6896
  150.8019  134.7158  159.6675 H   0  0  0  0  0  0  0  0  0  0  0  0  # atno 6909 bound_to 6896
  145.2455  139.2761  143.4095 H   0  0  0  0  0  0  0  0  0  0  0  0  # atno 7974 bound_to 7965
  154.4625  140.0949  156.6932 H   0  0  0  0  0  0  0  0  0  0  0  0  # atno 8008 bound_to 7997
  155.4952  140.3472  155.4343 H   0  0  0  0  0  0  0  0  0  0  0  0  # atno 8009 bound_to 7997
  156.0897  140.1394  156.9597 H   0  0  0  0  0  0  0  0  0  0  0  0  # atno 8010 bound_to 7997
  140.2989  143.3175  152.0269 H   0  0  0  0  0  0  0  0  0  0  0  0  # atno 10167 bound_to 10162
  157.6083  131.1039  150.7644 H   0  0  0  0  0  0  0  0  0  0  0  0  # atno 10718 bound_to 10713
  154.3197  135.6198  153.5502 H   0  0  0  0  0  0  0  0  0  0  0  0  # atno 10763 bound_to 10752
  152.9821  135.5721  154.5083 H   0  0  0  0  0  0  0  0  0  0  0  0  # atno 10764 bound_to 10752
  154.4749  135.2861  155.1591 H   0  0  0  0  0  0  0  0  0  0  0  0  # atno 10765 bound_to 10752
  139.8869  134.8569  156.3183 H   0  0  0  0  0  0  0  0  0  0  0  0  # atno 11005 bound_to 11000
  146.3317  140.2830  142.8611 LP  0  0  0  0  0  0  0  0  0  0  0  0  # atno 17320 bound_to 7965
  144.9550  140.8217  143.5548 LP  0  0  0  0  0  0  0  0  0  0  0  0  # atno 17321 bound_to 7965
  139.4920  144.6470  151.6756 LP  0  0  0  0  0  0  0  0  0  0  0  0  # atno 17342 bound_to 10162
  140.5668  144.0176  150.6196 LP  0  0  0  0  0  0  0  0  0  0  0  0  # atno 17343 bound_to 10162
  156.8027  130.4926  149.5367 LP  0  0  0  0  0  0  0  0  0  0  0  0  # atno 17370 bound_to 10713
  156.1177  130.6087  151.0145 LP  0  0  0  0  0  0  0  0  0  0  0  0  # atno 17371 bound_to 10713
  140.9804  133.7271  156.0663 LP  0  0  0  0  0  0  0  0  0  0  0  0  # atno 17394 bound_to 11000
  140.7757  134.3782  157.5498 LP  0  0  0  0  0  0  0  0  0  0  0  0  # atno 17395 bound_to 11000

$$$$
