AV-unprocessed.smi:2970|AV-procd|sdf|11331|dock8
  -GOLD-   2272016243D 1   1.00000     0.00000
 Structure written by MMmdl.
 38 39  0  0  0  0  0  0  0  0  1 V2000
  150.9337  137.3360  154.6435 C   0  0  0  0  0  0  0  0  0  0  0  0
  150.0116  138.5347  154.7852 C   0  0  0  0  0  0  0  0  0  0  0  0
  149.2660  139.0628  153.8089 C   0  0  0  0  0  0  0  0  0  0  0  0
  148.3590  140.4607  154.3324 S   0  0  0  0  0  0  0  0  0  0  0  0
  149.0556  140.3046  155.9851 C   0  0  0  0  0  0  0  0  0  0  0  0
  148.7779  141.0765  156.9015 O   0  0  0  0  0  0  0  0  0  0  0  0
  149.9117  139.2041  156.0131 N   0  0  0  0  0  0  0  0  0  0  0  0
  150.6355  138.7908  157.2229 C   0  0  0  0  0  0  0  0  0  0  0  0
  151.6331  139.8434  157.7247 C   0  0  0  0  0  0  0  0  0  0  0  0
  152.8442  139.6177  157.7372 O   0  0  0  0  0  0  0  0  0  0  0  0
  151.0965  140.9976  158.1500 N   0  0  0  0  0  0  0  0  0  0  0  0
  151.8428  142.1405  158.6717 C   0  0  0  0  0  0  0  0  0  0  0  0
  152.3939  141.7955  160.0714 C   0  0  0  0  0  0  0  0  0  0  0  0
  153.1743  142.9245  160.7665 C   0  0  0  0  0  0  0  0  0  0  0  0
  152.2604  144.0379  161.3022 C   0  0  0  0  0  0  0  0  0  0  0  0
  151.9055  145.1440  160.2932 C   0  0  0  0  0  0  0  0  0  0  0  0
  151.6935  144.7038  158.8342 C   0  0  0  0  0  0  0  0  0  0  0  0
  150.9287  143.3831  158.6424 C   0  0  0  0  0  0  0  0  0  0  0  0
  151.1394  137.1392  153.5909 H   0  0  0  0  0  0  0  0  0  0  0  0
  150.4682  136.4472  155.0695 H   0  0  0  0  0  0  0  0  0  0  0  0
  151.8914  137.5026  155.1366 H   0  0  0  0  0  0  0  0  0  0  0  0
  149.2037  138.7113  152.7897 H   0  0  0  0  0  0  0  0  0  0  0  0
  149.9204  138.5902  158.0224 H   0  0  0  0  0  0  0  0  0  0  0  0
  151.1550  137.8467  157.0590 H   0  0  0  0  0  0  0  0  0  0  0  0
  150.0924  141.0950  158.1058 H   0  0  0  0  0  0  0  0  0  0  0  0
  152.6848  142.3292  158.0028 H   0  0  0  0  0  0  0  0  0  0  0  0
  151.5817  141.4628  160.7193 H   0  0  0  0  0  0  0  0  0  0  0  0
  153.0612  140.9376  159.9780 H   0  0  0  0  0  0  0  0  0  0  0  0
  153.6987  142.4855  161.6161 H   0  0  0  0  0  0  0  0  0  0  0  0
  153.9508  143.3281  160.1155 H   0  0  0  0  0  0  0  0  0  0  0  0
  151.3447  143.5952  161.6962 H   0  0  0  0  0  0  0  0  0  0  0  0
  152.7410  144.5092  162.1603 H   0  0  0  0  0  0  0  0  0  0  0  0
  151.0081  145.6522  160.6481 H   0  0  0  0  0  0  0  0  0  0  0  0
  152.6912  145.9003  160.3043 H   0  0  0  0  0  0  0  0  0  0  0  0
  151.1532  145.5011  158.3227 H   0  0  0  0  0  0  0  0  0  0  0  0
  152.6566  144.6428  158.3262 H   0  0  0  0  0  0  0  0  0  0  0  0
  150.4475  143.4263  157.6641 H   0  0  0  0  0  0  0  0  0  0  0  0
  150.1187  143.2950  159.3679 H   0  0  0  0  0  0  0  0  0  0  0  0
  1  2  1  0  0  0  0
  1 19  1  0  0  0  0
  1 20  1  0  0  0  0
  1 21  1  0  0  0  0
  2  7  1  0  0  0  0
  2  3  2  0  0  0  0
  3  4  1  0  0  0  0
  3 22  1  0  0  0  0
  4  5  1  0  0  0  0
  5  6  2  0  0  0  0
  5  7  1  0  0  0  0
  7  8  1  0  0  0  0
  8  9  1  0  0  0  0
  8 23  1  0  0  0  0
  8 24  1  0  0  0  0
  9 10  2  0  0  0  0
  9 11  1  0  0  0  0
 11 12  1  0  0  0  0
 11 25  1  0  0  0  0
 12 18  1  0  0  0  0
 12 13  1  0  0  0  0
 12 26  1  0  0  0  0
 13 14  1  0  0  0  0
 13 27  1  0  0  0  0
 13 28  1  0  0  0  0
 14 15  1  0  0  0  0
 14 29  1  0  0  0  0
 14 30  1  0  0  0  0
 15 16  1  0  0  0  0
 15 31  1  0  0  0  0
 15 32  1  0  0  0  0
 16 17  1  0  0  0  0
 16 33  1  0  0  0  0
 16 34  1  0  0  0  0
 17 18  1  0  0  0  0
 17 35  1  0  0  0  0
 17 36  1  0  0  0  0
 18 37  1  0  0  0  0
 18 38  1  0  0  0  0
M  END
> <s_m_source_file>
AV-unprocessed.smi

> <i_m_source_file_index>
2970

> <i_lp_mmshare_version>
43012

> <i_f3d_flags>
0

> <s_epik_input>
W0NIM11jMVtjSF1zYyg9TyluMVtDSDJdQyg9TylbTkhdW0NIXTJbQ0gyXVtDSDJdW0NIMl1bQ0gyXVtDSDJdW0NIMl0y

> <s_epik_cmdline>
J2VwaWtfcHl0aG9uJywgJy1waCcsICc3LjAnLCAnLXRuJywgJzgnLCAnLW1hJywgJzIwMCcsICctbWV0YWxfYmluZGluZycsICctaW1hZScsICc8aW5maWxlLm1hZT4nLCAnLW9tYWUnLCAnPG91dGZpbGUubWFlPic=

> <r_lp_tautomer_probability>
1

> <r_epik_Ionization_Penalty>
1.32564e-06

> <r_epik_Ionization_Penalty_Charging>
1.22505e-06

> <r_epik_Ionization_Penalty_Neutral>
1.00582e-07

> <r_epik_State_Penalty>
-0

> <r_epik_Charging_Adjusted_Penalty>
1.22505e-06

> <i_epik_Tot_Q>
0

> <i_epik_Tot_abs_Q>
0

> <r_epik_Metal_State_Penalty>
-0

> <b_epik_Metal_Only>
0

> <s_lp_Force_Field>
OPLS_2005

> <r_lp_Energy>
18.3304

> <b_lp_Chiralities_Consistent>
1

> <s_lp_Variant>
AV-unprocessed.smi:2970-1

> <Gold.Version>
5.8.1

> <Gold.Id.Protein>
6NUR|6NUR_protein|mol2

> <Gold.PLP.Fitness>
43.1458

> <Gold.PLP.PLP>
-35.2445

> <Gold.PLP.part.hbond>
-1.0000

> <Gold.PLP.part.metal>
0.0000

> <Gold.PLP.part.buried>
-3.1691

> <Gold.PLP.part.nonpolar>
-31.9491

> <Gold.PLP.part.repulsive>
0.1693

> <Gold.PLP.ligand.clash>
0.0000

> <Gold.PLP.ligand.torsion>
0.2078

> <Gold.PLP.Chemscore.Hbond>
1.0000

> <Gold.PLP.Chemscore.CHOScore>
1.7669

> <Gold.PLP.Chemscore.Metal>
0.0000

> <Gold.Chemscore.Hbonds>
donor molecule, donor type, donor heavy atom, donor atom, acceptor molecule, acceptor atom, score
      P1  H  7997  8010       L1    10  1.00
      L1  C     3    22       P1  7948  0.78
      L1  C     3    22       P1  7957  0.83

> <Gold.PLP.Chemscore.Internal.Correction>
0.0161

> <Gold.Rescore>
     Score         DG    S(hbond)    S(metal)    S(lipo)     H(rot)  DE(clash)    DE(int)     intcor
     17.36     -17.76       0.99        0.00     107.16       1.40       0.20       0.20       ----

> <Gold.Chemscore.Fitness>
17.3593

> <Gold.Chemscore.DG>
-17.7605

> <Gold.Chemscore.ZeroCoef>
-5.4800

> <Gold.Chemscore.Hbond>
0.9936

> <Gold.Chemscore.Metal>
0.0000

> <Gold.Chemscore.Lipo>
107.1626

> <Gold.Chemscore.Internal_Hbond>
0.0000

> <Gold.Chemscore.DEClash>
0.2015

> <Gold.Chemscore.DEInternal>
0.1996

> <Gold.Chemscore.Rot>
1.3969

> <Gold.Chemscore.Internal.Correction>
   9.000000E+99

> <Gold.Chemscore.Hbonds>
donor molecule, donor type, donor heavy atom, donor atom, acceptor molecule, acceptor atom, score
      P1  H  7997  8010       L1    10  0.99

> <Gold.Chemscore.Hbond.Weighted>
-3.3185

> <Gold.Chemscore.Metal.Weighted>
-0.0000

> <Gold.Chemscore.Lipo.Weighted>
-12.5380

> <Gold.Chemscore.Internal_Hbond.Weighted>
0.0000

> <Gold.Chemscore.DEClash.Weighted>
0.2015

> <Gold.Chemscore.DEInternal.Weighted>
0.1996

> <Gold.Chemscore.Rot.Weighted>
3.5761

> <Gold.Chemscore.Internal.Correction.Weighted>
   9.000000E+99

> <Gold.Protein.RotatedTorsions>
[ 6907 6896 6895 6894 ] final  -98.08 input  -60.11 | X-H torsion
[ 7974 7965 7964 7962 ] final  152.64 input  175.53 | X-H torsion
[ 8008 7997 7996 7995 ] final   38.37 input   59.86 | X-H torsion
[ 10167 10162 10161 10158 ] final -135.25 input  -65.29 | X-H torsion
[ 10718 10713 10712 10709 ] final   45.07 input   66.30 | X-H torsion
[ 10763 10752 10751 10750 ] final   17.04 input  -60.55 | X-H torsion
[ 11005 11000 10999 10996 ] final   -3.08 input  -57.11 | X-H torsion

> <Gold.Protein.ActiveResidues>
 VAL166  LYS551  ARG553  GLY616  TRP617  ASP618  TYR619  PRO620  LYS621  CYS622 
 ASP623  PHE694  ASN695  SER759  ASP760  ASP761  ALA762  ILE779  LEU786  VAL792 
 PHE793  MET794  SER795  GLU796  ALA797  LYS798  CYS799  TRP800  GLU811  SER814 

> <Gold.Protein.RotatedAtoms>
  150.7036  134.1249  159.4048 H   0  0  0  0  0  0  0  0  0  0  0  0  # atno 6907 bound_to 6896
  151.9235  135.0285  160.0533 H   0  0  0  0  0  0  0  0  0  0  0  0  # atno 6908 bound_to 6896
  152.2236  133.4967  159.5213 H   0  0  0  0  0  0  0  0  0  0  0  0  # atno 6909 bound_to 6896
  144.8208  139.6695  143.6101 H   0  0  0  0  0  0  0  0  0  0  0  0  # atno 7974 bound_to 7965
  155.2191  140.3329  155.4318 H   0  0  0  0  0  0  0  0  0  0  0  0  # atno 8008 bound_to 7997
  156.2340  140.1863  156.7216 H   0  0  0  0  0  0  0  0  0  0  0  0  # atno 8009 bound_to 7997
  154.6027  140.0620  156.9375 H   0  0  0  0  0  0  0  0  0  0  0  0  # atno 8010 bound_to 7997
  139.8798  143.6853  152.2629 H   0  0  0  0  0  0  0  0  0  0  0  0  # atno 10167 bound_to 10162
  157.4336  130.8039  149.7627 H   0  0  0  0  0  0  0  0  0  0  0  0  # atno 10718 bound_to 10713
  153.1376  135.6753  153.9079 H   0  0  0  0  0  0  0  0  0  0  0  0  # atno 10763 bound_to 10752
  153.8546  135.3089  155.3435 H   0  0  0  0  0  0  0  0  0  0  0  0  # atno 10764 bound_to 10752
  154.7760  135.4914  153.9829 H   0  0  0  0  0  0  0  0  0  0  0  0  # atno 10765 bound_to 10752
  140.6655  133.9283  155.8462 H   0  0  0  0  0  0  0  0  0  0  0  0  # atno 11005 bound_to 11000
  146.2514  139.6207  142.9425 LP  0  0  0  0  0  0  0  0  0  0  0  0  # atno 17320 bound_to 7965
  145.5109  141.0435  143.2488 LP  0  0  0  0  0  0  0  0  0  0  0  0  # atno 17321 bound_to 7965
  139.7206  144.7603  151.0961 LP  0  0  0  0  0  0  0  0  0  0  0  0  # atno 17342 bound_to 10162
  140.7746  143.5212  150.9534 LP  0  0  0  0  0  0  0  0  0  0  0  0  # atno 17343 bound_to 10162
  155.9922  130.3932  150.2951 LP  0  0  0  0  0  0  0  0  0  0  0  0  # atno 17370 bound_to 10713
  157.1110  131.0221  151.3048 LP  0  0  0  0  0  0  0  0  0  0  0  0  # atno 17371 bound_to 10713
  141.0433  134.0590  157.3875 LP  0  0  0  0  0  0  0  0  0  0  0  0  # atno 17394 bound_to 11000
  139.8999  135.0160  156.7216 LP  0  0  0  0  0  0  0  0  0  0  0  0  # atno 17395 bound_to 11000

$$$$
