AV-unprocessed.smi:82|AV-procd|sdf|796|dock2
  -GOLD-   2262017173D 1   1.00000     0.00000
 Structure written by MMmdl.
 59 62  0  0  0  0  0  0  0  0  2 V2000
  152.6042  143.8564  159.4172 C   0  0  0  0  0  0  0  0  0  0  0  0
  152.2821  142.7812  158.5486 O   0  0  0  0  0  0  0  0  0  0  0  0
  151.2058  143.0484  157.6591 C   0  0  0  0  0  0  0  0  0  0  0  0
  150.9519  141.8772  156.6898 C   0  0  0  0  0  0  0  0  0  0  0  0
  149.6592  141.9870  155.9605 N   0  3  2  0  0  0  0  0  0  0  0  0
  148.4935  141.7279  156.8458 C   0  0  0  0  0  0  0  0  0  0  0  0
  147.1672  142.0099  156.1187 C   0  0  0  0  0  0  0  0  0  0  0  0
  147.0945  141.2827  154.8541 N   0  0  0  0  0  0  0  0  0  0  0  0
  146.5287  140.0459  154.8241 C   0  0  0  0  0  0  0  0  0  0  0  0
  146.0736  139.4868  155.9774 N   0  0  0  0  0  0  0  0  0  0  0  0
  145.5321  138.2657  155.9730 C   0  0  0  0  0  0  0  0  0  0  0  0
  145.3423  137.4424  154.9413 N   0  0  0  0  0  0  0  0  0  0  0  0
  145.7786  138.0007  153.7763 C   0  0  0  0  0  0  0  0  0  0  0  0
  146.3808  139.2828  153.6295 C   0  0  0  0  0  0  0  0  0  0  0  0
  146.6873  139.5045  152.2923 N   0  0  0  0  0  0  0  0  0  0  0  0
  146.3007  138.4145  151.6873 C   0  0  0  0  0  0  0  0  0  0  0  0
  145.7306  137.4613  152.5025 N   0  0  0  0  0  0  0  0  0  0  0  0
  145.2300  136.1677  152.1308 C   0  0  0  0  0  0  0  0  0  0  0  0
  145.9656  134.8978  152.5570 C   0  0  0  0  0  0  0  0  0  0  0  0
  145.4639  134.1900  151.2764 C   0  0  0  0  0  0  0  0  0  0  0  0
  146.4950  133.2992  150.5630 C   0  0  0  0  0  0  0  0  0  0  0  0
  146.7758  132.1372  151.3167 O   0  0  0  0  0  0  0  0  0  0  0  0
  144.1429  133.4083  151.4303 C   0  0  0  0  0  0  0  0  0  0  0  0
  143.5534  133.1376  150.1746 O   0  0  0  0  0  0  0  0  0  0  0  0
  145.3209  135.6184  150.7034 C   0  0  0  0  0  0  0  0  0  0  0  0
  148.2243  141.5248  153.9594 C   0  0  0  0  0  0  0  0  0  0  0  0
  149.5809  141.2616  154.6531 C   0  0  2  0  0  0  0  0  0  0  0  0
  149.8923  139.7541  154.7634 C   0  0  0  0  0  0  0  0  0  0  0  0
  153.3932  143.5437  160.1011 H   0  0  0  0  0  0  0  0  0  0  0  0
  151.7425  144.1534  160.0162 H   0  0  0  0  0  0  0  0  0  0  0  0
  152.9691  144.7257  158.8708 H   0  0  0  0  0  0  0  0  0  0  0  0
  150.3140  143.2457  158.2531 H   0  0  0  0  0  0  0  0  0  0  0  0
  151.3946  143.9677  157.1026 H   0  0  0  0  0  0  0  0  0  0  0  0
  151.7772  141.7882  155.9834 H   0  0  0  0  0  0  0  0  0  0  0  0
  150.9592  140.9453  157.2551 H   0  0  0  0  0  0  0  0  0  0  0  0
  148.5239  140.6976  157.2012 H   0  0  0  0  0  0  0  0  0  0  0  0
  148.5543  142.3630  157.7299 H   0  0  0  0  0  0  0  0  0  0  0  0
  146.3162  141.7774  156.7599 H   0  0  0  0  0  0  0  0  0  0  0  0
  147.0930  143.0756  155.8985 H   0  0  0  0  0  0  0  0  0  0  0  0
  145.2036  137.8961  156.9333 H   0  0  0  0  0  0  0  0  0  0  0  0
  146.4240  138.2862  150.6225 H   0  0  0  0  0  0  0  0  0  0  0  0
  144.1925  136.1388  152.4690 H   0  0  0  0  0  0  0  0  0  0  0  0
  147.0487  135.0330  152.5755 H   0  0  0  0  0  0  0  0  0  0  0  0
  145.6114  134.4693  153.4949 H   0  0  0  0  0  0  0  0  0  0  0  0
  146.1233  132.9810  149.5885 H   0  0  0  0  0  0  0  0  0  0  0  0
  147.4264  133.8329  150.3740 H   0  0  0  0  0  0  0  0  0  0  0  0
  147.6339  131.8231  151.0758 H   0  0  0  0  0  0  0  0  0  0  0  0
  144.3033  132.4549  151.9338 H   0  0  0  0  0  0  0  0  0  0  0  0
  143.4251  133.9542  152.0430 H   0  0  0  0  0  0  0  0  0  0  0  0
  142.8570  133.7598  150.0301 H   0  0  0  0  0  0  0  0  0  0  0  0
  144.4270  135.7789  150.0998 H   0  0  0  0  0  0  0  0  0  0  0  0
  146.2146  135.9393  150.1666 H   0  0  0  0  0  0  0  0  0  0  0  0
  148.1598  140.9415  153.0422 H   0  0  0  0  0  0  0  0  0  0  0  0
  148.1756  142.5693  153.6494 H   0  0  0  0  0  0  0  0  0  0  0  0
  150.3345  141.6893  153.9927 H   0  0  0  0  0  0  0  0  0  0  0  0
  149.7633  139.2632  153.7984 H   0  0  0  0  0  0  0  0  0  0  0  0
  149.2408  139.2481  155.4748 H   0  0  0  0  0  0  0  0  0  0  0  0
  150.9223  139.5754  155.0702 H   0  0  0  0  0  0  0  0  0  0  0  0
  149.5810  142.9644  155.7173 H   0  0  0  0  0  0  0  0  0  0  0  0
  1  2  1  0  0  0  0
  1 29  1  0  0  0  0
  1 30  1  0  0  0  0
  1 31  1  0  0  0  0
  2  3  1  0  0  0  0
  3  4  1  0  0  0  0
  3 32  1  0  0  0  0
  3 33  1  0  0  0  0
  4  5  1  0  0  0  0
  4 34  1  0  0  0  0
  4 35  1  0  0  0  0
  5 27  1  0  0  0  0
  5  6  1  0  0  0  0
  5 59  1  0  0  0  0
  6  7  1  0  0  0  0
  6 36  1  0  0  0  0
  6 37  1  0  0  0  0
  7  8  1  0  0  0  0
  7 38  1  0  0  0  0
  7 39  1  0  0  0  0
  8  9  1  0  0  0  0
  8 26  1  0  0  0  0
  9 14  1  0  0  0  0
  9 10  2  0  0  0  0
 10 11  1  0  0  0  0
 11 12  2  0  0  0  0
 11 40  1  0  0  0  0
 12 13  1  0  0  0  0
 13 17  1  0  0  0  0
 13 14  2  0  0  0  0
 14 15  1  0  0  0  0
 15 16  2  0  0  0  0
 16 17  1  0  0  0  0
 16 41  1  0  0  0  0
 17 18  1  0  0  0  0
 18 25  1  0  0  0  0
 18 19  1  0  0  0  0
 18 42  1  0  0  0  0
 19 20  1  0  0  0  0
 19 43  1  0  0  0  0
 19 44  1  0  0  0  0
 20 21  1  0  0  0  0
 20 23  1  0  0  0  0
 20 25  1  0  0  0  0
 21 22  1  0  0  0  0
 21 45  1  0  0  0  0
 21 46  1  0  0  0  0
 22 47  1  0  0  0  0
 23 24  1  0  0  0  0
 23 48  1  0  0  0  0
 23 49  1  0  0  0  0
 24 50  1  0  0  0  0
 25 51  1  0  0  0  0
 25 52  1  0  0  0  0
 26 27  1  0  0  0  0
 26 53  1  0  0  0  0
 26 54  1  0  0  0  0
 27 28  1  0  0  0  0
 27 55  1  0  0  0  0
 28 56  1  0  0  0  0
 28 57  1  0  0  0  0
 28 58  1  0  0  0  0
M  CHG  1   5   1
M  END
> <s_m_source_file>
AV-unprocessed.smi

> <i_m_source_file_index>
82

> <i_lp_mmshare_version>
43012

> <i_f3d_flags>
0

> <s_epik_input>
W0NIM11PW0NIMl1bQ0gyXU4xW0NIMl1bQ0gyXU4oW0NIMl1bQ0BIXTFbQ0gzXSljKG5bY0hdbjIpYyhjMjMpbltjSF1uM1tDSF0oW0NIMl00KVtDSDJdQzQoW0NIMl1bT0hdKVtDSDJdW09IXQ==

> <s_epik_cmdline>
J2VwaWtfcHl0aG9uJywgJy1waCcsICc3LjAnLCAnLXRuJywgJzgnLCAnLW1hJywgJzIwMCcsICctbWV0YWxfYmluZGluZycsICctaW1hZScsICc8aW5maWxlLm1hZT4nLCAnLW9tYWUnLCAnPG91dGZpbGUubWFlPic=

> <r_lp_tautomer_probability>
1

> <r_epik_Ionization_Penalty>
0.304275

> <r_epik_Ionization_Penalty_Charging>
0.304214

> <r_epik_Ionization_Penalty_Neutral>
6.13137e-05

> <r_epik_State_Penalty>
0.300354

> <r_epik_Charging_Adjusted_Penalty>
0.604567

> <i_epik_Tot_Q>
1

> <i_epik_Tot_abs_Q>
1

> <r_epik_Metal_State_Penalty>
0.301147

> <b_epik_Metal_Only>
0

> <s_lp_Force_Field>
OPLS_2005

> <r_lp_Energy>
59.6891

> <b_lp_Chiralities_Consistent>
1

> <s_lp_Variant>
AV-unprocessed.smi:82-3

> <Gold.Version>
5.8.1

> <Gold.Id.Protein>
6NUR|6NUR_protein|mol2

> <Gold.PLP.Fitness>
57.7033

> <Gold.PLP.PLP>
-45.4042

> <Gold.PLP.part.hbond>
-3.0000

> <Gold.PLP.part.metal>
0.0000

> <Gold.PLP.part.buried>
-4.1932

> <Gold.PLP.part.nonpolar>
-39.5640

> <Gold.PLP.part.repulsive>
0.4884

> <Gold.PLP.ligand.clash>
0.0000

> <Gold.PLP.ligand.torsion>
0.7386

> <Gold.PLP.Chemscore.Hbond>
4.0000

> <Gold.PLP.Chemscore.CHOScore>
0.2636

> <Gold.PLP.Chemscore.Metal>
0.0000

> <Gold.Chemscore.Hbonds>
donor molecule, donor type, donor heavy atom, donor atom, acceptor molecule, acceptor atom, score
      L1  H     5    59       P1  8028  2.00
      L1  H    22    47       P1 10747  1.00
      L1  H    24    50       P1 10186  1.00
      L1  C    16    41       P1 10171  0.26

> <Gold.PLP.Chemscore.Internal.Correction>
0.9854

> <Gold.Rescore>
     Score         DG    S(hbond)    S(metal)    S(lipo)     H(rot)  DE(clash)    DE(int)     intcor
     16.16     -17.46       2.97        0.00      96.40       3.60       0.15       1.15       ----

> <Gold.Chemscore.Fitness>
16.1568

> <Gold.Chemscore.DG>
-17.4610

> <Gold.Chemscore.ZeroCoef>
-5.4800

> <Gold.Chemscore.Hbond>
2.9663

> <Gold.Chemscore.Metal>
0.0000

> <Gold.Chemscore.Lipo>
96.3960

> <Gold.Chemscore.Internal_Hbond>
0.0000

> <Gold.Chemscore.DEClash>
0.1549

> <Gold.Chemscore.DEInternal>
1.1492

> <Gold.Chemscore.Rot>
3.5956

> <Gold.Chemscore.Internal.Correction>
   9.000000E+99

> <Gold.Chemscore.Hbonds>
donor molecule, donor type, donor heavy atom, donor atom, acceptor molecule, acceptor atom, score
      L1  H     5    59       P1  8028  0.99
      L1  H    22    47       P1 10747  1.00
      L1  H    24    50       P1 10186  0.94

> <Gold.Chemscore.Hbond.Weighted>
-9.9073

> <Gold.Chemscore.Metal.Weighted>
-0.0000

> <Gold.Chemscore.Lipo.Weighted>
-11.2783

> <Gold.Chemscore.Internal_Hbond.Weighted>
0.0000

> <Gold.Chemscore.DEClash.Weighted>
0.1549

> <Gold.Chemscore.DEInternal.Weighted>
1.1492

> <Gold.Chemscore.Rot.Weighted>
9.2047

> <Gold.Chemscore.Internal.Correction.Weighted>
   9.000000E+99

> <Gold.Protein.RotatedTorsions>
[ 6907 6896 6895 6894 ] final  -58.70 input  -60.11 | X-H torsion
[ 7974 7965 7964 7962 ] final  -28.40 input  175.53 | X-H torsion
[ 8008 7997 7996 7995 ] final   28.16 input   59.86 | X-H torsion
[ 10167 10162 10161 10158 ] final   32.34 input  -65.29 | X-H torsion
[ 10718 10713 10712 10709 ] final  129.65 input   66.30 | X-H torsion
[ 10763 10752 10751 10750 ] final  124.59 input  -60.55 | X-H torsion
[ 11005 11000 10999 10996 ] final   10.98 input  -57.11 | X-H torsion

> <Gold.Protein.ActiveResidues>
 VAL166  LYS551  ARG553  GLY616  TRP617  ASP618  TYR619  PRO620  LYS621  CYS622 
 ASP623  PHE694  ASN695  SER759  ASP760  ASP761  ALA762  ILE779  LEU786  VAL792 
 PHE793  MET794  SER795  GLU796  ALA797  LYS798  CYS799  TRP800  GLU811  SER814 

> <Gold.Protein.RotatedAtoms>
  150.7987  134.7065  159.6579 H   0  0  0  0  0  0  0  0  0  0  0  0  # atno 6907 bound_to 6896
  152.4102  134.6135  160.0041 H   0  0  0  0  0  0  0  0  0  0  0  0  # atno 6908 bound_to 6896
  151.6380  133.3291  159.3160 H   0  0  0  0  0  0  0  0  0  0  0  0  # atno 6909 bound_to 6896
  146.1290  140.5278  142.8701 H   0  0  0  0  0  0  0  0  0  0  0  0  # atno 7974 bound_to 7965
  155.0543  140.3183  155.4681 H   0  0  0  0  0  0  0  0  0  0  0  0  # atno 8008 bound_to 7997
  156.2827  140.2140  156.5613 H   0  0  0  0  0  0  0  0  0  0  0  0  # atno 8009 bound_to 7997
  154.7184  140.0492  157.0604 H   0  0  0  0  0  0  0  0  0  0  0  0  # atno 8010 bound_to 7997
  140.4507  144.1052  150.6191 H   0  0  0  0  0  0  0  0  0  0  0  0  # atno 10167 bound_to 10162
  157.5135  131.1097  150.9259 H   0  0  0  0  0  0  0  0  0  0  0  0  # atno 10718 bound_to 10713
  153.6639  135.3342  155.3135 H   0  0  0  0  0  0  0  0  0  0  0  0  # atno 10763 bound_to 10752
  154.8508  135.4370  154.1776 H   0  0  0  0  0  0  0  0  0  0  0  0  # atno 10764 bound_to 10752
  153.2750  135.7004  153.7518 H   0  0  0  0  0  0  0  0  0  0  0  0  # atno 10765 bound_to 10752
  140.5084  134.0677  155.7811 H   0  0  0  0  0  0  0  0  0  0  0  0  # atno 11005 bound_to 11000
  144.7671  140.5556  143.6695 LP  0  0  0  0  0  0  0  0  0  0  0  0  # atno 17320 bound_to 7965
  145.5301  139.1475  143.3504 LP  0  0  0  0  0  0  0  0  0  0  0  0  # atno 17321 bound_to 7965
  140.4210  143.2612  151.9715 LP  0  0  0  0  0  0  0  0  0  0  0  0  # atno 17342 bound_to 10162
  139.4796  144.5831  151.7899 LP  0  0  0  0  0  0  0  0  0  0  0  0  # atno 17343 bound_to 10162
  156.9892  130.5556  149.5302 LP  0  0  0  0  0  0  0  0  0  0  0  0  # atno 17370 bound_to 10713
  156.0304  130.5396  150.8520 LP  0  0  0  0  0  0  0  0  0  0  0  0  # atno 17371 bound_to 10713
  141.1399  133.9157  157.2350 LP  0  0  0  0  0  0  0  0  0  0  0  0  # atno 17394 bound_to 11000
  139.9673  135.0138  156.9420 LP  0  0  0  0  0  0  0  0  0  0  0  0  # atno 17395 bound_to 11000

$$$$
