AV-unprocessed.smi:1368|AV-procd|sdf|5576|dock3
  -GOLD-   22720 5173D 1   1.00000     0.00000
 Structure written by MMmdl.
 46 48  0  0  0  0  0  0  0  0  1 V2000
  142.7729  139.9491  155.8056 C   0  0  0  0  0  0  0  0  0  0  0  0
  144.2573  139.6275  155.9500 C   0  0  0  0  0  0  0  0  0  0  0  0
  144.6595  139.0989  156.9854 O   0  0  0  0  0  0  0  0  0  0  0  0
  145.0269  139.9351  154.8891 N   0  0  0  0  0  0  0  0  0  0  0  0
  146.4297  139.7709  154.7221 C   0  0  0  0  0  0  0  0  0  0  0  0
  147.1309  140.8220  154.0981 C   0  0  0  0  0  0  0  0  0  0  0  0
  148.5239  140.7416  153.9118 C   0  0  0  0  0  0  0  0  0  0  0  0
  149.2477  139.6156  154.3516 C   0  0  0  0  0  0  0  0  0  0  0  0
  150.6079  139.6180  154.1275 O   0  0  0  0  0  0  0  0  0  0  0  0
  151.3758  138.5381  154.6426 C   0  0  0  0  0  0  0  0  0  0  0  0
  152.1585  139.0214  155.8737 C   0  0  1  0  0  0  0  0  0  0  0  0
  153.0237  140.0652  155.4709 O   0  0  0  0  0  0  0  0  0  0  0  0
  151.2168  139.5408  156.9794 C   0  0  0  0  0  0  0  0  0  0  0  0
  151.9249  140.2097  158.0631 N   0  0  0  0  0  0  0  0  0  0  0  0
  152.7685  139.6618  158.9719 C   0  0  0  0  0  0  0  0  0  0  0  0
  153.0937  138.2019  158.9685 C   0  0  0  0  0  0  0  0  0  0  0  0
  153.2838  140.5026  159.8689 N   0  0  0  0  0  0  0  0  0  0  0  0
  152.7196  141.7115  159.5095 C   0  0  0  0  0  0  0  0  0  0  0  0
  152.8664  142.9982  160.0759 C   0  0  0  0  0  0  0  0  0  0  0  0
  152.1789  144.1015  159.5292 C   0  0  0  0  0  0  0  0  0  0  0  0
  151.3370  143.9351  158.4105 C   0  0  0  0  0  0  0  0  0  0  0  0
  151.1753  142.6616  157.8319 C   0  0  0  0  0  0  0  0  0  0  0  0
  151.8631  141.5632  158.3817 C   0  0  0  0  0  0  0  0  0  0  0  0
  148.5458  138.5651  154.9935 C   0  0  0  0  0  0  0  0  0  0  0  0
  147.1521  138.6436  155.1807 C   0  0  0  0  0  0  0  0  0  0  0  0
  142.6151  140.7947  155.1350 H   0  0  0  0  0  0  0  0  0  0  0  0
  142.3408  140.2014  156.7745 H   0  0  0  0  0  0  0  0  0  0  0  0
  142.2379  139.0873  155.4058 H   0  0  0  0  0  0  0  0  0  0  0  0
  144.5358  140.2855  154.0796 H   0  0  0  0  0  0  0  0  0  0  0  0
  146.6009  141.6980  153.7527 H   0  0  0  0  0  0  0  0  0  0  0  0
  149.0434  141.5545  153.4255 H   0  0  0  0  0  0  0  0  0  0  0  0
  150.7491  137.6804  154.8945 H   0  0  0  0  0  0  0  0  0  0  0  0
  152.0796  138.2215  153.8708 H   0  0  0  0  0  0  0  0  0  0  0  0
  152.7580  138.2014  156.2697 H   0  0  0  0  0  0  0  0  0  0  0  0
  152.5862  140.8899  155.6181 H   0  0  0  0  0  0  0  0  0  0  0  0
  150.4906  140.2373  156.5585 H   0  0  0  0  0  0  0  0  0  0  0  0
  150.6353  138.7188  157.3974 H   0  0  0  0  0  0  0  0  0  0  0  0
  153.8075  137.9679  159.7592 H   0  0  0  0  0  0  0  0  0  0  0  0
  153.5334  137.9119  158.0146 H   0  0  0  0  0  0  0  0  0  0  0  0
  152.1918  137.6136  159.1373 H   0  0  0  0  0  0  0  0  0  0  0  0
  153.5096  143.1363  160.9326 H   0  0  0  0  0  0  0  0  0  0  0  0
  152.2984  145.0805  159.9699 H   0  0  0  0  0  0  0  0  0  0  0  0
  150.8157  144.7856  157.9962 H   0  0  0  0  0  0  0  0  0  0  0  0
  150.5335  142.5305  156.9735 H   0  0  0  0  0  0  0  0  0  0  0  0
  149.0542  137.6856  155.3578 H   0  0  0  0  0  0  0  0  0  0  0  0
  146.6637  137.8292  155.6925 H   0  0  0  0  0  0  0  0  0  0  0  0
  1  2  1  0  0  0  0
  1 26  1  0  0  0  0
  1 27  1  0  0  0  0
  1 28  1  0  0  0  0
  2  3  2  0  0  0  0
  2  4  1  0  0  0  0
  4  5  1  0  0  0  0
  4 29  1  0  0  0  0
  5 25  1  0  0  0  0
  5  6  2  0  0  0  0
  6  7  1  0  0  0  0
  6 30  1  0  0  0  0
  7  8  2  0  0  0  0
  7 31  1  0  0  0  0
  8  9  1  0  0  0  0
  8 24  1  0  0  0  0
  9 10  1  0  0  0  0
 10 11  1  0  0  0  0
 10 32  1  0  0  0  0
 10 33  1  0  0  0  0
 11 12  1  0  0  0  0
 11 13  1  0  0  0  0
 11 34  1  0  0  0  0
 12 35  1  0  0  0  0
 13 14  1  0  0  0  0
 13 36  1  0  0  0  0
 13 37  1  0  0  0  0
 14 23  1  0  0  0  0
 14 15  1  0  0  0  0
 15 16  1  0  0  0  0
 15 17  2  0  0  0  0
 16 38  1  0  0  0  0
 16 39  1  0  0  0  0
 16 40  1  0  0  0  0
 17 18  1  0  0  0  0
 18 23  2  0  0  0  0
 18 19  1  0  0  0  0
 19 20  2  0  0  0  0
 19 41  1  0  0  0  0
 20 21  1  0  0  0  0
 20 42  1  0  0  0  0
 21 22  2  0  0  0  0
 21 43  1  0  0  0  0
 22 23  1  0  0  0  0
 22 44  1  0  0  0  0
 24 25  2  0  0  0  0
 24 45  1  0  0  0  0
 25 46  1  0  0  0  0
M  END
> <s_m_source_file>
AV-unprocessed.smi

> <i_m_source_file_index>
1368

> <i_lp_mmshare_version>
43012

> <i_f3d_flags>
0

> <s_epik_input>
W0NIM11DKD1PKVtOSF1jMVtjSF1bY0hdYyhbY0hdW2NIXTEpT1tDSDJdW0NASF0oW09IXSlbQ0gyXW4oYyhuMilbQ0gzXSljKGMyMylbY0hdW2NIXVtjSF1bY0hdMw==

> <s_epik_cmdline>
J2VwaWtfcHl0aG9uJywgJy1waCcsICc3LjAnLCAnLXRuJywgJzgnLCAnLW1hJywgJzIwMCcsICctbWV0YWxfYmluZGluZycsICctaW1hZScsICc8aW5maWxlLm1hZT4nLCAnLW9tYWUnLCAnPG91dGZpbGUubWFlPic=

> <r_lp_tautomer_probability>
1

> <r_epik_Ionization_Penalty>
0.119634

> <r_epik_Ionization_Penalty_Charging>
0

> <r_epik_Ionization_Penalty_Neutral>
0.119634

> <r_epik_State_Penalty>
0.10919

> <r_epik_Charging_Adjusted_Penalty>
0.10919

> <i_epik_Tot_Q>
0

> <i_epik_Tot_abs_Q>
0

> <r_epik_Metal_State_Penalty>
0.0906856

> <b_epik_Metal_Only>
0

> <s_lp_Force_Field>
OPLS_2005

> <r_lp_Energy>
21.7849

> <b_lp_Chiralities_Consistent>
1

> <s_lp_Variant>
AV-unprocessed.smi:1368-2

> <Gold.Version>
5.8.1

> <Gold.Id.Protein>
6NUR|6NUR_protein|mol2

> <Gold.PLP.Fitness>
52.6362

> <Gold.PLP.PLP>
-45.3792

> <Gold.PLP.part.hbond>
-4.0000

> <Gold.PLP.part.metal>
0.0000

> <Gold.PLP.part.buried>
-3.0077

> <Gold.PLP.part.nonpolar>
-38.8105

> <Gold.PLP.part.repulsive>
0.6378

> <Gold.PLP.ligand.clash>
0.0000

> <Gold.PLP.ligand.torsion>
0.7563

> <Gold.PLP.Chemscore.Hbond>
2.8960

> <Gold.PLP.Chemscore.CHOScore>
0.0000

> <Gold.PLP.Chemscore.Metal>
0.0000

> <Gold.Chemscore.Hbonds>
donor molecule, donor type, donor heavy atom, donor atom, acceptor molecule, acceptor atom, score
      L1  H     4    29       P1 10175  1.00
      P1  H  7989  7998       L1     9  1.00
      P1  H  7997  8010       L1    12  0.88

> <Gold.PLP.Chemscore.Internal.Correction>
0.0816

> <Gold.Rescore>
     Score         DG    S(hbond)    S(metal)    S(lipo)     H(rot)  DE(clash)    DE(int)     intcor
     18.04     -21.27       2.55        0.00     114.50       2.39       2.30       0.93       ----

> <Gold.Chemscore.Fitness>
18.0414

> <Gold.Chemscore.DG>
-21.2652

> <Gold.Chemscore.ZeroCoef>
-5.4800

> <Gold.Chemscore.Hbond>
2.5479

> <Gold.Chemscore.Metal>
0.0000

> <Gold.Chemscore.Lipo>
114.5045

> <Gold.Chemscore.Internal_Hbond>
0.0000

> <Gold.Chemscore.DEClash>
2.2968

> <Gold.Chemscore.DEInternal>
0.9270

> <Gold.Chemscore.Rot>
2.3914

> <Gold.Chemscore.Internal.Correction>
   9.000000E+99

> <Gold.Chemscore.Hbonds>
donor molecule, donor type, donor heavy atom, donor atom, acceptor molecule, acceptor atom, score
      L1  H     4    29       P1 10175  1.00
      P1  H  7989  7998       L1     9  0.78
      P1  H  7997  8010       L1    12  0.56

> <Gold.Chemscore.Hbond.Weighted>
-8.5101

> <Gold.Chemscore.Metal.Weighted>
-0.0000

> <Gold.Chemscore.Lipo.Weighted>
-13.3970

> <Gold.Chemscore.Internal_Hbond.Weighted>
0.0000

> <Gold.Chemscore.DEClash.Weighted>
2.2968

> <Gold.Chemscore.DEInternal.Weighted>
0.9270

> <Gold.Chemscore.Rot.Weighted>
6.1220

> <Gold.Chemscore.Internal.Correction.Weighted>
   9.000000E+99

> <Gold.Protein.RotatedTorsions>
[ 6907 6896 6895 6894 ] final  -52.69 input  -60.11 | X-H torsion
[ 7974 7965 7964 7962 ] final  123.84 input  175.53 | X-H torsion
[ 8008 7997 7996 7995 ] final  101.68 input   59.86 | X-H torsion
[ 10167 10162 10161 10158 ] final  166.39 input  -65.29 | X-H torsion
[ 10718 10713 10712 10709 ] final -163.26 input   66.30 | X-H torsion
[ 10763 10752 10751 10750 ] final  -68.23 input  -60.55 | X-H torsion
[ 11005 11000 10999 10996 ] final -172.07 input  -57.11 | X-H torsion

> <Gold.Protein.ActiveResidues>
 VAL166  LYS551  ARG553  GLY616  TRP617  ASP618  TYR619  PRO620  LYS621  CYS622 
 ASP623  PHE694  ASN695  SER759  ASP760  ASP761  ALA762  ILE779  LEU786  VAL792 
 PHE793  MET794  SER795  GLU796  ALA797  LYS798  CYS799  TRP800  GLU811  SER814 

> <Gold.Protein.RotatedAtoms>
  150.8494  134.7814  159.6996 H   0  0  0  0  0  0  0  0  0  0  0  0  # atno 6907 bound_to 6896
  152.4563  134.5281  159.9812 H   0  0  0  0  0  0  0  0  0  0  0  0  # atno 6908 bound_to 6896
  151.5405  133.3395  159.2970 H   0  0  0  0  0  0  0  0  0  0  0  0  # atno 6909 bound_to 6896
  145.0912  139.3585  143.4859 H   0  0  0  0  0  0  0  0  0  0  0  0  # atno 7974 bound_to 7965
  156.1322  140.3193  155.8366 H   0  0  0  0  0  0  0  0  0  0  0  0  # atno 8008 bound_to 7997
  155.4311  140.0519  157.3035 H   0  0  0  0  0  0  0  0  0  0  0  0  # atno 8009 bound_to 7997
  154.4908  140.2091  155.9565 H   0  0  0  0  0  0  0  0  0  0  0  0  # atno 8010 bound_to 7997
  139.4924  144.4032  151.9385 H   0  0  0  0  0  0  0  0  0  0  0  0  # atno 10167 bound_to 10162
  156.6222  130.8895  151.2960 H   0  0  0  0  0  0  0  0  0  0  0  0  # atno 10718 bound_to 10713
  154.3860  135.6063  153.5817 H   0  0  0  0  0  0  0  0  0  0  0  0  # atno 10763 bound_to 10752
  152.9787  135.5872  154.4354 H   0  0  0  0  0  0  0  0  0  0  0  0  # atno 10764 bound_to 10752
  154.4131  135.2844  155.2002 H   0  0  0  0  0  0  0  0  0  0  0  0  # atno 10765 bound_to 10752
  140.5011  134.5892  157.4988 H   0  0  0  0  0  0  0  0  0  0  0  0  # atno 11005 bound_to 11000
  146.3531  140.0747  142.8621 LP  0  0  0  0  0  0  0  0  0  0  0  0  # atno 17320 bound_to 7965
  145.1063  140.9377  143.4682 LP  0  0  0  0  0  0  0  0  0  0  0  0  # atno 17321 bound_to 7965
  140.3472  144.3132  150.5956 LP  0  0  0  0  0  0  0  0  0  0  0  0  # atno 17342 bound_to 10162
  140.5516  143.2205  151.7917 LP  0  0  0  0  0  0  0  0  0  0  0  0  # atno 17343 bound_to 10162
  157.7224  130.9577  150.1494 LP  0  0  0  0  0  0  0  0  0  0  0  0  # atno 17370 bound_to 10713
  156.2303  130.3681  149.8453 LP  0  0  0  0  0  0  0  0  0  0  0  0  # atno 17371 bound_to 10713
  139.9712  134.7289  156.0037 LP  0  0  0  0  0  0  0  0  0  0  0  0  # atno 17394 bound_to 11000
  141.1435  133.6560  156.3798 LP  0  0  0  0  0  0  0  0  0  0  0  0  # atno 17395 bound_to 11000

$$$$
