AV-unprocessed.smi:2775|AV-procd|sdf|10700|dock1
  -GOLD-   2272015133D 1   1.00000     0.00000
 Structure written by MMmdl.
 43 46  0  0  0  0  0  0  0  0  2 V2000
  151.6481  144.8455  158.2955 C   0  0  0  0  0  0  0  0  0  0  0  0
  151.3734  143.3578  158.1881 C   0  0  0  0  0  0  0  0  0  0  0  0
  150.4683  142.9498  157.2708 N   0  3  0  0  0  0  0  0  0  0  0  0
  150.1378  141.6542  157.0885 C   0  0  0  0  0  0  0  0  0  0  0  0
  150.7499  140.6561  157.8713 C   0  0  0  0  0  0  0  0  0  0  0  0
  151.7183  141.0276  158.8373 C   0  0  0  0  0  0  0  0  0  0  0  0
  152.3701  140.0878  159.6801 N   0  0  0  0  0  0  0  0  0  0  0  0
  152.6556  138.7953  159.4319 C   0  0  0  0  0  0  0  0  0  0  0  0
  152.3197  138.1863  158.4185 O   0  0  0  0  0  0  0  0  0  0  0  0
  153.4048  138.2145  160.3849 N   0  0  0  0  0  0  0  0  0  0  0  0
  153.8845  136.8283  160.4163 C   0  0  2  0  0  0  0  0  0  0  0  0
  154.3497  136.3472  161.8168 C   0  0  2  0  0  0  0  0  0  0  0  0
  154.1073  137.1204  163.0921 C   0  0  0  0  0  0  0  0  0  0  0  0
  155.4435  137.8317  163.3200 C   0  0  0  0  0  0  0  0  0  0  0  0
  156.0624  137.8613  162.0365 O   0  0  0  0  0  0  0  0  0  0  0  0
  155.7879  136.6210  161.3933 C   0  0  2  0  0  0  0  0  0  0  0  0
  155.3398  136.7236  159.9295 C   0  0  0  0  0  0  0  0  0  0  0  0
  155.9906  137.7291  158.9644 C   0  0  0  0  0  0  0  0  0  0  0  0
  156.8133  136.5710  158.3935 C   0  0  0  0  0  0  0  0  0  0  0  0
  155.7511  135.6166  158.9468 C   0  0  0  0  0  0  0  0  0  0  0  0
  152.0219  142.4012  159.0043 C   0  0  0  0  0  0  0  0  0  0  0  0
  153.1828  142.9073  160.1864 Cl  0  0  0  0  0  0  0  0  0  0  0  0
  152.7067  145.0494  158.1321 H   0  0  0  0  0  0  0  0  0  0  0  0
  151.3755  145.2106  159.2862 H   0  0  0  0  0  0  0  0  0  0  0  0
  151.0775  145.4108  157.5575 H   0  0  0  0  0  0  0  0  0  0  0  0
  149.3933  141.4565  156.3308 H   0  0  0  0  0  0  0  0  0  0  0  0
  150.4591  139.6266  157.7262 H   0  0  0  0  0  0  0  0  0  0  0  0
  152.7848  140.4727  160.5166 H   0  0  0  0  0  0  0  0  0  0  0  0
  153.7333  138.8094  161.1323 H   0  0  0  0  0  0  0  0  0  0  0  0
  153.2298  136.1160  159.9113 H   0  0  0  0  0  0  0  0  0  0  0  0
  154.1795  135.2748  161.9231 H   0  0  0  0  0  0  0  0  0  0  0  0
  153.2948  137.8383  162.9993 H   0  0  0  0  0  0  0  0  0  0  0  0
  153.8636  136.4663  163.9297 H   0  0  0  0  0  0  0  0  0  0  0  0
  155.3215  138.8350  163.7286 H   0  0  0  0  0  0  0  0  0  0  0  0
  156.0713  137.2576  164.0031 H   0  0  0  0  0  0  0  0  0  0  0  0
  156.4891  135.8216  161.6373 H   0  0  0  0  0  0  0  0  0  0  0  0
  155.2871  138.1379  158.2373 H   0  0  0  0  0  0  0  0  0  0  0  0
  156.5786  138.5138  159.4412 H   0  0  0  0  0  0  0  0  0  0  0  0
  156.9087  136.5700  157.3074 H   0  0  0  0  0  0  0  0  0  0  0  0
  157.7802  136.4573  158.8864 H   0  0  0  0  0  0  0  0  0  0  0  0
  156.1470  134.7116  159.4085 H   0  0  0  0  0  0  0  0  0  0  0  0
  154.9728  135.3885  158.2170 H   0  0  0  0  0  0  0  0  0  0  0  0
  150.0099  143.6548  156.6927 H   0  0  0  0  0  0  0  0  0  0  0  0
  1  2  1  0  0  0  0
  1 23  1  0  0  0  0
  1 24  1  0  0  0  0
  1 25  1  0  0  0  0
  2 21  1  0  0  0  0
  2  3  2  0  0  0  0
  3  4  1  0  0  0  0
  3 43  1  0  0  0  0
  4  5  2  0  0  0  0
  4 26  1  0  0  0  0
  5  6  1  0  0  0  0
  5 27  1  0  0  0  0
  6  7  1  0  0  0  0
  6 21  2  0  0  0  0
  7  8  1  0  0  0  0
  7 28  1  0  0  0  0
  8  9  2  0  0  0  0
  8 10  1  0  0  0  0
 10 11  1  0  0  0  0
 10 29  1  0  0  0  0
 11 17  1  0  0  0  0
 11 12  1  0  0  0  0
 11 30  1  0  0  0  0
 12 16  1  0  0  0  0
 12 13  1  0  0  0  0
 12 31  1  0  0  0  0
 13 14  1  0  0  0  0
 13 32  1  0  0  0  0
 13 33  1  0  0  0  0
 14 15  1  0  0  0  0
 14 34  1  0  0  0  0
 14 35  1  0  0  0  0
 15 16  1  0  0  0  0
 16 17  1  0  0  0  0
 16 36  1  0  0  0  0
 17 20  1  0  0  0  0
 17 18  1  0  0  0  0
 18 19  1  0  0  0  0
 18 37  1  0  0  0  0
 18 38  1  0  0  0  0
 19 20  1  0  0  0  0
 19 39  1  0  0  0  0
 19 40  1  0  0  0  0
 20 41  1  0  0  0  0
 20 42  1  0  0  0  0
 21 22  1  0  0  0  0
M  CHG  1   3   1
M  END
> <s_m_source_file>
AV-unprocessed.smi

> <i_m_source_file_index>
2775

> <i_lp_mmshare_version>
43012

> <i_f3d_flags>
0

> <s_epik_input>
W0NIM11jMW5bY0hdW2NIXWMoYzFDbClbTkhdQyg9TylbTkhdW0NAQEhdMltDQEhdKFtDSDJdW0NIMl1PMylbQ0BASF0zQzI0W0NIMl1bQ0gyXVtDSDJdNA==

> <s_epik_cmdline>
J2VwaWtfcHl0aG9uJywgJy1waCcsICc3LjAnLCAnLXRuJywgJzgnLCAnLW1hJywgJzIwMCcsICctbWV0YWxfYmluZGluZycsICctaW1hZScsICc8aW5maWxlLm1hZT4nLCAnLW9tYWUnLCAnPG91dGZpbGUubWFlPic=

> <r_epik_Ionization_Penalty>
2.4104

> <r_epik_Ionization_Penalty_Charging>
2.41038

> <r_epik_Ionization_Penalty_Neutral>
1.9872e-05

> <r_epik_State_Penalty>
2.56896

> <r_epik_Charging_Adjusted_Penalty>
4.97934

> <i_epik_Tot_Q>
1

> <i_epik_Tot_abs_Q>
1

> <r_epik_Metal_State_Penalty>
2.57906

> <b_epik_Metal_Only>
0

> <s_lp_Force_Field>
OPLS_2005

> <r_lp_Energy>
62.9708

> <b_lp_Chiralities_Consistent>
1

> <s_lp_Variant>
AV-unprocessed.smi:2775-13

> <Gold.Version>
5.8.1

> <Gold.Id.Protein>
6NUR|6NUR_protein|mol2

> <Gold.PLP.Fitness>
39.2916

> <Gold.PLP.PLP>
-33.9667

> <Gold.PLP.part.hbond>
-1.0000

> <Gold.PLP.part.metal>
0.0000

> <Gold.PLP.part.buried>
-5.9144

> <Gold.PLP.part.nonpolar>
-28.3343

> <Gold.PLP.part.repulsive>
0.2080

> <Gold.PLP.ligand.clash>
0.0000

> <Gold.PLP.ligand.torsion>
0.4410

> <Gold.PLP.Chemscore.Hbond>
2.0000

> <Gold.PLP.Chemscore.CHOScore>
0.0000

> <Gold.PLP.Chemscore.Metal>
0.0000

> <Gold.Chemscore.Hbonds>
donor molecule, donor type, donor heavy atom, donor atom, acceptor molecule, acceptor atom, score
      L1  H     3    43       P1  8028  2.00

> <Gold.PLP.Chemscore.Internal.Correction>
0.2069

> <Gold.Rescore>
     Score         DG    S(hbond)    S(metal)    S(lipo)     H(rot)  DE(clash)    DE(int)     intcor
     17.13     -18.49       0.96        0.00     105.54       1.00       0.00       1.35       ----

> <Gold.Chemscore.Fitness>
17.1329

> <Gold.Chemscore.DG>
-18.4877

> <Gold.Chemscore.ZeroCoef>
-5.4800

> <Gold.Chemscore.Hbond>
0.9638

> <Gold.Chemscore.Metal>
0.0000

> <Gold.Chemscore.Lipo>
105.5436

> <Gold.Chemscore.Internal_Hbond>
0.0000

> <Gold.Chemscore.DEClash>
0.0036

> <Gold.Chemscore.DEInternal>
1.3512

> <Gold.Chemscore.Rot>
1.0000

> <Gold.Chemscore.Internal.Correction>
   9.000000E+99

> <Gold.Chemscore.Hbonds>
donor molecule, donor type, donor heavy atom, donor atom, acceptor molecule, acceptor atom, score
      L1  H     3    43       P1  8028  1.00

> <Gold.Chemscore.Hbond.Weighted>
-3.2191

> <Gold.Chemscore.Metal.Weighted>
-0.0000

> <Gold.Chemscore.Lipo.Weighted>
-12.3486

> <Gold.Chemscore.Internal_Hbond.Weighted>
0.0000

> <Gold.Chemscore.DEClash.Weighted>
0.0036

> <Gold.Chemscore.DEInternal.Weighted>
1.3512

> <Gold.Chemscore.Rot.Weighted>
2.5600

> <Gold.Chemscore.Internal.Correction.Weighted>
   9.000000E+99

> <Gold.Protein.RotatedTorsions>
[ 6907 6896 6895 6894 ] final  179.09 input  -60.11 | X-H torsion
[ 7974 7965 7964 7962 ] final   -0.52 input  175.53 | X-H torsion
[ 8008 7997 7996 7995 ] final   88.24 input   59.86 | X-H torsion
[ 10167 10162 10161 10158 ] final  -31.50 input  -65.29 | X-H torsion
[ 10718 10713 10712 10709 ] final   98.95 input   66.30 | X-H torsion
[ 10763 10752 10751 10750 ] final  -20.21 input  -60.55 | X-H torsion
[ 11005 11000 10999 10996 ] final  116.40 input  -57.11 | X-H torsion

> <Gold.Protein.ActiveResidues>
 VAL166  LYS551  ARG553  GLY616  TRP617  ASP618  TYR619  PRO620  LYS621  CYS622 
 ASP623  PHE694  ASN695  SER759  ASP760  ASP761  ALA762  ILE779  LEU786  VAL792 
 PHE793  MET794  SER795  GLU796  ALA797  LYS798  CYS799  TRP800  GLU811  SER814 

> <Gold.Protein.RotatedAtoms>
  151.6772  133.3312  159.3210 H   0  0  0  0  0  0  0  0  0  0  0  0  # atno 6907 bound_to 6896
  150.7840  134.6812  159.6454 H   0  0  0  0  0  0  0  0  0  0  0  0  # atno 6908 bound_to 6896
  152.3905  134.6453  160.0161 H   0  0  0  0  0  0  0  0  0  0  0  0  # atno 6909 bound_to 6896
  146.2426  140.1282  142.8338 H   0  0  0  0  0  0  0  0  0  0  0  0  # atno 7974 bound_to 7965
  155.9854  140.3373  155.6702 H   0  0  0  0  0  0  0  0  0  0  0  0  # atno 8008 bound_to 7997
  155.6493  140.0704  157.2610 H   0  0  0  0  0  0  0  0  0  0  0  0  # atno 8009 bound_to 7997
  154.4203  140.1728  156.1644 H   0  0  0  0  0  0  0  0  0  0  0  0  # atno 8010 bound_to 7997
  140.7235  143.3766  151.1678 H   0  0  0  0  0  0  0  0  0  0  0  0  # atno 10167 bound_to 10162
  157.6886  131.0655  150.4875 H   0  0  0  0  0  0  0  0  0  0  0  0  # atno 10718 bound_to 10713
  153.6169  135.6994  153.5325 H   0  0  0  0  0  0  0  0  0  0  0  0  # atno 10763 bound_to 10752
  153.2970  135.4140  155.1218 H   0  0  0  0  0  0  0  0  0  0  0  0  # atno 10764 bound_to 10752
  154.8551  135.3639  154.5709 H   0  0  0  0  0  0  0  0  0  0  0  0  # atno 10765 bound_to 10752
  139.9040  134.9597  156.7193 H   0  0  0  0  0  0  0  0  0  0  0  0  # atno 11005 bound_to 11000
  145.0348  140.8900  143.5087 LP  0  0  0  0  0  0  0  0  0  0  0  0  # atno 17320 bound_to 7965
  145.1352  139.2606  143.5518 LP  0  0  0  0  0  0  0  0  0  0  0  0  # atno 17321 bound_to 7965
  139.7347  143.9017  152.3031 LP  0  0  0  0  0  0  0  0  0  0  0  0  # atno 17342 bound_to 10162
  139.8818  144.7013  150.8869 LP  0  0  0  0  0  0  0  0  0  0  0  0  # atno 17343 bound_to 10162
  156.5203  130.4160  149.6254 LP  0  0  0  0  0  0  0  0  0  0  0  0  # atno 17370 bound_to 10713
  156.3160  130.7255  151.2157 LP  0  0  0  0  0  0  0  0  0  0  0  0  # atno 17371 bound_to 10713
  140.7014  133.9303  155.8026 LP  0  0  0  0  0  0  0  0  0  0  0  0  # atno 17394 bound_to 11000
  141.0369  134.0677  157.3948 LP  0  0  0  0  0  0  0  0  0  0  0  0  # atno 17395 bound_to 11000

$$$$
