AV-unprocessed.smi:1047|AV-procd|sdf|4570|dock1
  -GOLD-   22720 3 23D 1   1.00000     0.00000
 Structure written by MMmdl.
 56 58  0  0  0  0  0  0  0  0  2 V2000
  141.6605  134.7345  153.2590 C   0  0  0  0  0  0  0  0  0  0  0  0
  142.3771  136.0910  153.1972 C   0  0  0  0  0  0  0  0  0  0  0  0
  143.7796  136.0297  152.7881 N   0  0  0  0  0  0  0  0  0  0  0  0
  143.9458  135.5046  151.4350 C   0  0  0  0  0  0  0  0  0  0  0  0
  145.4235  135.4778  151.0089 C   0  0  0  0  0  0  0  0  0  0  0  0
  145.9809  136.7824  151.1319 O   0  0  0  0  0  0  0  0  0  0  0  0
  145.8912  137.3041  152.4556 C   0  0  1  0  0  0  0  0  0  0  0  0
  146.5297  138.6994  152.4657 C   0  0  0  0  0  0  0  0  0  0  0  0
  147.9742  138.6214  152.7608 N   0  3  0  0  0  0  0  0  0  0  0  0
  148.2956  138.6898  154.2001 C   0  0  0  0  0  0  0  0  0  0  0  0
  148.3118  140.1438  154.7131 C   0  0  1  0  0  0  0  0  0  0  0  0
  147.9886  140.1543  156.0896 O   0  0  0  0  0  0  0  0  0  0  0  0
  149.6812  140.8354  154.5593 C   0  0  0  0  0  0  0  0  0  0  0  0
  150.5924  140.5253  155.6460 N   0  0  0  0  0  0  0  0  0  0  0  0
  151.1536  139.3306  155.9142 C   0  0  0  0  0  0  0  0  0  0  0  0
  151.9612  139.2604  156.9682 N   0  0  0  0  0  0  0  0  0  0  0  0
  151.9258  140.5631  157.4351 C   0  0  0  0  0  0  0  0  0  0  0  0
  152.5727  141.1594  158.5393 C   0  0  0  0  0  0  0  0  0  0  0  0
  152.3849  142.5279  158.8374 C   0  0  0  0  0  0  0  0  0  0  0  0
  153.1025  143.1278  160.0339 C   0  0  0  0  0  0  0  0  0  0  0  0
  151.5370  143.3222  158.0243 C   0  0  0  0  0  0  0  0  0  0  0  0
  151.3195  144.7943  158.3262 C   0  0  0  0  0  0  0  0  0  0  0  0
  150.8844  142.7431  156.9161 C   0  0  0  0  0  0  0  0  0  0  0  0
  151.0798  141.3802  156.6295 C   0  0  0  0  0  0  0  0  0  0  0  0
  144.4058  137.3447  152.8666 C   0  0  0  0  0  0  0  0  0  0  0  0
  140.6559  134.8516  153.6653 H   0  0  0  0  0  0  0  0  0  0  0  0
  142.1967  134.0347  153.9006 H   0  0  0  0  0  0  0  0  0  0  0  0
  141.5587  134.2807  152.2735 H   0  0  0  0  0  0  0  0  0  0  0  0
  141.8263  136.7633  152.5378 H   0  0  0  0  0  0  0  0  0  0  0  0
  142.3198  136.5346  154.1921 H   0  0  0  0  0  0  0  0  0  0  0  0
  143.5464  134.4929  151.3688 H   0  0  0  0  0  0  0  0  0  0  0  0
  143.3776  136.1124  150.7290 H   0  0  0  0  0  0  0  0  0  0  0  0
  145.9894  134.7741  151.6213 H   0  0  0  0  0  0  0  0  0  0  0  0
  145.5139  135.1467  149.9744 H   0  0  0  0  0  0  0  0  0  0  0  0
  146.4375  136.6524  153.1403 H   0  0  0  0  0  0  0  0  0  0  0  0
  146.3752  139.1927  151.5050 H   0  0  0  0  0  0  0  0  0  0  0  0
  146.0517  139.3185  153.2262 H   0  0  0  0  0  0  0  0  0  0  0  0
  148.3341  137.7540  152.3890 H   0  0  0  0  0  0  0  0  0  0  0  0
  147.5810  138.0933  154.7693 H   0  0  0  0  0  0  0  0  0  0  0  0
  149.2744  138.2300  154.3373 H   0  0  0  0  0  0  0  0  0  0  0  0
  147.5590  140.7290  154.1828 H   0  0  0  0  0  0  0  0  0  0  0  0
  147.4189  139.4247  156.2780 H   0  0  0  0  0  0  0  0  0  0  0  0
  150.1548  140.5311  153.6244 H   0  0  0  0  0  0  0  0  0  0  0  0
  149.5594  141.9183  154.5059 H   0  0  0  0  0  0  0  0  0  0  0  0
  150.9544  138.4624  155.3031 H   0  0  0  0  0  0  0  0  0  0  0  0
  153.2185  140.5544  159.1588 H   0  0  0  0  0  0  0  0  0  0  0  0
  153.7324  143.9621  159.7240 H   0  0  0  0  0  0  0  0  0  0  0  0
  153.7409  142.3929  160.5254 H   0  0  0  0  0  0  0  0  0  0  0  0
  152.3830  143.4906  160.7685 H   0  0  0  0  0  0  0  0  0  0  0  0
  150.6168  145.2451  157.6247 H   0  0  0  0  0  0  0  0  0  0  0  0
  152.2604  145.3404  158.2554 H   0  0  0  0  0  0  0  0  0  0  0  0
  150.9176  144.9244  159.3312 H   0  0  0  0  0  0  0  0  0  0  0  0
  150.2371  143.3378  156.2888 H   0  0  0  0  0  0  0  0  0  0  0  0
  143.8698  138.0471  152.2257 H   0  0  0  0  0  0  0  0  0  0  0  0
  144.3248  137.7292  153.8841 H   0  0  0  0  0  0  0  0  0  0  0  0
  148.4339  139.3899  152.2933 H   0  0  0  0  0  0  0  0  0  0  0  0
  1  2  1  0  0  0  0
  1 26  1  0  0  0  0
  1 27  1  0  0  0  0
  1 28  1  0  0  0  0
  2  3  1  0  0  0  0
  2 29  1  0  0  0  0
  2 30  1  0  0  0  0
  3 25  1  0  0  0  0
  3  4  1  0  0  0  0
  4  5  1  0  0  0  0
  4 31  1  0  0  0  0
  4 32  1  0  0  0  0
  5  6  1  0  0  0  0
  5 33  1  0  0  0  0
  5 34  1  0  0  0  0
  6  7  1  0  0  0  0
  7  8  1  0  0  0  0
  7 25  1  0  0  0  0
  7 35  1  0  0  0  0
  8  9  1  0  0  0  0
  8 36  1  0  0  0  0
  8 37  1  0  0  0  0
  9 10  1  0  0  0  0
  9 38  1  0  0  0  0
  9 56  1  0  0  0  0
 10 11  1  0  0  0  0
 10 39  1  0  0  0  0
 10 40  1  0  0  0  0
 11 12  1  0  0  0  0
 11 13  1  0  0  0  0
 11 41  1  0  0  0  0
 12 42  1  0  0  0  0
 13 14  1  0  0  0  0
 13 43  1  0  0  0  0
 13 44  1  0  0  0  0
 14 24  1  0  0  0  0
 14 15  1  0  0  0  0
 15 16  2  0  0  0  0
 15 45  1  0  0  0  0
 16 17  1  0  0  0  0
 17 24  2  0  0  0  0
 17 18  1  0  0  0  0
 18 19  2  0  0  0  0
 18 46  1  0  0  0  0
 19 20  1  0  0  0  0
 19 21  1  0  0  0  0
 20 47  1  0  0  0  0
 20 48  1  0  0  0  0
 20 49  1  0  0  0  0
 21 22  1  0  0  0  0
 21 23  2  0  0  0  0
 22 50  1  0  0  0  0
 22 51  1  0  0  0  0
 22 52  1  0  0  0  0
 23 24  1  0  0  0  0
 23 53  1  0  0  0  0
 25 54  1  0  0  0  0
 25 55  1  0  0  0  0
M  CHG  1   9   1
M  END
> <s_m_source_file>
AV-unprocessed.smi

> <i_m_source_file_index>
1047

> <i_lp_mmshare_version>
43012

> <i_f3d_flags>
0

> <s_epik_input>
W0NIM11bQ0gyXU4xW0NIMl1bQ0gyXU9bQ0BIXShbQ0gyXTEpW0NIMl1bTkhdW0NIMl1bQ0BIXShbT0hdKVtDSDJdbihbY0hdbjIpYyhjMjMpW2NIXWMoW0NIM10pYyhbY0hdMylbQ0gzXQ==

> <s_epik_cmdline>
J2VwaWtfcHl0aG9uJywgJy1waCcsICc3LjAnLCAnLXRuJywgJzgnLCAnLW1hJywgJzIwMCcsICctbWV0YWxfYmluZGluZycsICctaW1hZScsICc8aW5maWxlLm1hZT4nLCAnLW9tYWUnLCAnPG91dGZpbGUubWFlPic=

> <r_epik_Ionization_Penalty>
0.692425

> <r_epik_Ionization_Penalty_Charging>
0.0243549

> <r_epik_Ionization_Penalty_Neutral>
0.66807

> <r_epik_State_Penalty>
0.592789

> <r_epik_Charging_Adjusted_Penalty>
0.617144

> <i_epik_Tot_Q>
1

> <i_epik_Tot_abs_Q>
1

> <r_epik_Metal_State_Penalty>
0.508021

> <b_epik_Metal_Only>
0

> <s_lp_Force_Field>
OPLS_2005

> <r_lp_Energy>
31.2277

> <b_lp_Chiralities_Consistent>
1

> <s_lp_Variant>
AV-unprocessed.smi:1047-11

> <Gold.Version>
5.8.1

> <Gold.Id.Protein>
6NUR|6NUR_protein|mol2

> <Gold.PLP.Fitness>
56.0661

> <Gold.PLP.PLP>
-49.2481

> <Gold.PLP.part.hbond>
-2.0000

> <Gold.PLP.part.metal>
0.0000

> <Gold.PLP.part.buried>
-6.0798

> <Gold.PLP.part.nonpolar>
-44.2955

> <Gold.PLP.part.repulsive>
1.2946

> <Gold.PLP.ligand.clash>
0.0000

> <Gold.PLP.ligand.torsion>
1.2816

> <Gold.PLP.Chemscore.Hbond>
3.0000

> <Gold.PLP.Chemscore.CHOScore>
0.0000

> <Gold.PLP.Chemscore.Metal>
0.0000

> <Gold.Chemscore.Hbonds>
donor molecule, donor type, donor heavy atom, donor atom, acceptor molecule, acceptor atom, score
      L1  H     9    38       P1  7948  2.00
      L1  H     9    56       P1  7957  1.00

> <Gold.PLP.Chemscore.Internal.Correction>
0.3811

> <Gold.Rescore>
     Score         DG    S(hbond)    S(metal)    S(lipo)     H(rot)  DE(clash)    DE(int)     intcor
     18.71     -21.05       1.94        0.00     134.61       2.60       0.97       1.37       ----

> <Gold.Chemscore.Fitness>
18.7135

> <Gold.Chemscore.DG>
-21.0549

> <Gold.Chemscore.ZeroCoef>
-5.4800

> <Gold.Chemscore.Hbond>
1.9443

> <Gold.Chemscore.Metal>
0.0000

> <Gold.Chemscore.Lipo>
134.6099

> <Gold.Chemscore.Internal_Hbond>
0.0000

> <Gold.Chemscore.DEClash>
0.9721

> <Gold.Chemscore.DEInternal>
1.3694

> <Gold.Chemscore.Rot>
2.6049

> <Gold.Chemscore.Internal.Correction>
   9.000000E+99

> <Gold.Chemscore.Hbonds>
donor molecule, donor type, donor heavy atom, donor atom, acceptor molecule, acceptor atom, score
      L1  H     9    38       P1  7948  1.00
      L1  H     9    56       P1  7957  0.96

> <Gold.Chemscore.Hbond.Weighted>
-6.4940

> <Gold.Chemscore.Metal.Weighted>
-0.0000

> <Gold.Chemscore.Lipo.Weighted>
-15.7494

> <Gold.Chemscore.Internal_Hbond.Weighted>
0.0000

> <Gold.Chemscore.DEClash.Weighted>
0.9721

> <Gold.Chemscore.DEInternal.Weighted>
1.3694

> <Gold.Chemscore.Rot.Weighted>
6.6685

> <Gold.Chemscore.Internal.Correction.Weighted>
   9.000000E+99

> <Gold.Protein.RotatedTorsions>
[ 6907 6896 6895 6894 ] final  144.50 input  -60.11 | X-H torsion
[ 7974 7965 7964 7962 ] final -141.99 input  175.53 | X-H torsion
[ 8008 7997 7996 7995 ] final   46.91 input   59.86 | X-H torsion
[ 10167 10162 10161 10158 ] final   71.97 input  -65.29 | X-H torsion
[ 10718 10713 10712 10709 ] final  139.23 input   66.30 | X-H torsion
[ 10763 10752 10751 10750 ] final  111.48 input  -60.55 | X-H torsion
[ 11005 11000 10999 10996 ] final -117.72 input  -57.11 | X-H torsion

> <Gold.Protein.ActiveResidues>
 VAL166  LYS551  ARG553  GLY616  TRP617  ASP618  TYR619  PRO620  LYS621  CYS622 
 ASP623  PHE694  ASN695  SER759  ASP760  ASP761  ALA762  ILE779  LEU786  VAL792 
 PHE793  MET794  SER795  GLU796  ALA797  LYS798  CYS799  TRP800  GLU811  SER814 

> <Gold.Protein.RotatedAtoms>
  152.1928  133.4785  159.5016 H   0  0  0  0  0  0  0  0  0  0  0  0  # atno 6907 bound_to 6896
  150.6954  134.1690  159.4214 H   0  0  0  0  0  0  0  0  0  0  0  0  # atno 6908 bound_to 6896
  151.9605  135.0125  160.0598 H   0  0  0  0  0  0  0  0  0  0  0  0  # atno 6909 bound_to 6896
  144.8477  140.6012  143.5411 H   0  0  0  0  0  0  0  0  0  0  0  0  # atno 7974 bound_to 7965
  155.3602  140.3418  155.4240 H   0  0  0  0  0  0  0  0  0  0  0  0  # atno 8008 bound_to 7997
  156.1717  140.1634  156.8469 H   0  0  0  0  0  0  0  0  0  0  0  0  # atno 8009 bound_to 7997
  154.5240  140.0760  156.8207 H   0  0  0  0  0  0  0  0  0  0  0  0  # atno 8010 bound_to 7997
  140.0404  144.5394  150.7438 H   0  0  0  0  0  0  0  0  0  0  0  0  # atno 10167 bound_to 10162
  157.4166  131.1034  151.0398 H   0  0  0  0  0  0  0  0  0  0  0  0  # atno 10718 bound_to 10713
  153.4639  135.3716  155.2354 H   0  0  0  0  0  0  0  0  0  0  0  0  # atno 10763 bound_to 10752
  154.8757  135.3915  154.3891 H   0  0  0  0  0  0  0  0  0  0  0  0  # atno 10764 bound_to 10752
  153.4469  135.7085  153.6197 H   0  0  0  0  0  0  0  0  0  0  0  0  # atno 10765 bound_to 10752
  141.0335  133.9945  157.3106 H   0  0  0  0  0  0  0  0  0  0  0  0  # atno 11005 bound_to 11000
  145.4564  139.1517  143.3890 LP  0  0  0  0  0  0  0  0  0  0  0  0  # atno 17320 bound_to 7965
  146.2758  140.4692  142.8796 LP  0  0  0  0  0  0  0  0  0  0  0  0  # atno 17321 bound_to 7965
  140.7263  143.2639  151.4110 LP  0  0  0  0  0  0  0  0  0  0  0  0  # atno 17342 bound_to 10162
  139.6018  144.1280  152.2206 LP  0  0  0  0  0  0  0  0  0  0  0  0  # atno 17343 bound_to 10162
  157.1343  130.6115  149.5538 LP  0  0  0  0  0  0  0  0  0  0  0  0  # atno 17370 bound_to 10713
  155.9867  130.4903  150.7092 LP  0  0  0  0  0  0  0  0  0  0  0  0  # atno 17371 bound_to 10713
  139.9224  135.0201  156.8114 LP  0  0  0  0  0  0  0  0  0  0  0  0  # atno 17394 bound_to 11000
  140.6364  133.9859  155.7686 LP  0  0  0  0  0  0  0  0  0  0  0  0  # atno 17395 bound_to 11000

$$$$
