AV-unprocessed.smi:1395|AV-procd|sdf|5669|dock4
  -GOLD-   22720 5293D 1   1.00000     0.00000
 Structure written by MMmdl.
 42 43  0  0  0  0  0  0  0  0  1 V2000
  149.9141  144.8172  159.3341 C   0  0  0  0  0  0  0  0  0  0  0  0
  151.0591  143.8403  159.5470 C   0  0  0  0  0  0  0  0  0  0  0  0
  152.0215  144.1110  160.5428 C   0  0  0  0  0  0  0  0  0  0  0  0
  153.0798  143.2071  160.7380 C   0  0  0  0  0  0  0  0  0  0  0  0
  153.1308  142.0630  159.9236 C   0  0  0  0  0  0  0  0  0  0  0  0
  152.2158  141.7965  158.9695 N   0  0  0  0  0  0  0  0  0  0  0  0
  151.1878  142.6589  158.7680 C   0  0  0  0  0  0  0  0  0  0  0  0
  150.1869  142.4444  157.7786 N   0  0  0  0  0  0  0  0  0  0  0  0
  150.0799  141.4318  156.9002 C   0  0  0  0  0  0  0  0  0  0  0  0
  150.8587  140.4827  156.8056 O   0  0  0  0  0  0  0  0  0  0  0  0
  148.9974  141.5802  156.1230 N   0  0  0  0  0  0  0  0  0  0  0  0
  148.5831  140.6587  155.0694 C   0  0  0  0  0  0  0  0  0  0  0  0
  147.1062  140.8940  154.7234 C   0  0  0  0  0  0  0  0  0  0  0  0
  146.5943  139.8553  153.7099 C   0  0  0  0  0  0  0  0  0  0  0  0
  146.7710  138.4935  154.2353 N   0  0  0  0  0  0  0  0  0  0  0  0
  146.2197  137.4584  153.3314 C   0  0  0  0  0  0  0  0  0  0  0  0
  146.3198  136.0246  153.8680 C   0  0  0  0  0  0  0  0  0  0  0  0
  147.2110  135.2171  153.2879 N   0  0  0  0  0  0  0  0  0  0  0  0
  145.5999  135.6506  154.7916 O   0  0  0  0  0  0  0  0  0  0  0  0
  148.1932  138.2235  154.4716 C   0  0  0  0  0  0  0  0  0  0  0  0
  148.7650  139.1987  155.5154 C   0  0  0  0  0  0  0  0  0  0  0  0
  149.9765  145.6590  160.0243 H   0  0  0  0  0  0  0  0  0  0  0  0
  148.9554  144.3230  159.4945 H   0  0  0  0  0  0  0  0  0  0  0  0
  149.9353  145.2136  158.3186 H   0  0  0  0  0  0  0  0  0  0  0  0
  151.9527  145.0005  161.1520 H   0  0  0  0  0  0  0  0  0  0  0  0
  153.8322  143.3858  161.4918 H   0  0  0  0  0  0  0  0  0  0  0  0
  153.9267  141.3426  160.0403 H   0  0  0  0  0  0  0  0  0  0  0  0
  149.4653  143.1483  157.7367 H   0  0  0  0  0  0  0  0  0  0  0  0
  148.4122  142.3891  156.2721 H   0  0  0  0  0  0  0  0  0  0  0  0
  149.1804  140.8380  154.1732 H   0  0  0  0  0  0  0  0  0  0  0  0
  146.4979  140.8425  155.6279 H   0  0  0  0  0  0  0  0  0  0  0  0
  146.9735  141.8983  154.3192 H   0  0  0  0  0  0  0  0  0  0  0  0
  145.5426  140.0654  153.5159 H   0  0  0  0  0  0  0  0  0  0  0  0
  147.1181  139.9627  152.7585 H   0  0  0  0  0  0  0  0  0  0  0  0
  145.1796  137.6938  153.0963 H   0  0  0  0  0  0  0  0  0  0  0  0
  146.7627  137.4789  152.3854 H   0  0  0  0  0  0  0  0  0  0  0  0
  147.3119  134.2644  153.6060 H   0  0  0  0  0  0  0  0  0  0  0  0
  147.7808  135.5642  152.5300 H   0  0  0  0  0  0  0  0  0  0  0  0
  148.3207  137.2039  154.8379 H   0  0  0  0  0  0  0  0  0  0  0  0
  148.7551  138.2972  153.5387 H   0  0  0  0  0  0  0  0  0  0  0  0
  149.8220  138.9836  155.6762 H   0  0  0  0  0  0  0  0  0  0  0  0
  148.2676  139.0362  156.4728 H   0  0  0  0  0  0  0  0  0  0  0  0
  1  2  1  0  0  0  0
  1 22  1  0  0  0  0
  1 23  1  0  0  0  0
  1 24  1  0  0  0  0
  2  7  1  0  0  0  0
  2  3  2  0  0  0  0
  3  4  1  0  0  0  0
  3 25  1  0  0  0  0
  4  5  2  0  0  0  0
  4 26  1  0  0  0  0
  5  6  1  0  0  0  0
  5 27  1  0  0  0  0
  6  7  2  0  0  0  0
  7  8  1  0  0  0  0
  8  9  1  0  0  0  0
  8 28  1  0  0  0  0
  9 10  2  0  0  0  0
  9 11  1  0  0  0  0
 11 12  1  0  0  0  0
 11 29  1  0  0  0  0
 12 21  1  0  0  0  0
 12 13  1  0  0  0  0
 12 30  1  0  0  0  0
 13 14  1  0  0  0  0
 13 31  1  0  0  0  0
 13 32  1  0  0  0  0
 14 15  1  0  0  0  0
 14 33  1  0  0  0  0
 14 34  1  0  0  0  0
 15 16  1  0  0  0  0
 15 20  1  0  0  0  0
 16 17  1  0  0  0  0
 16 35  1  0  0  0  0
 16 36  1  0  0  0  0
 17 18  1  0  0  0  0
 17 19  2  0  0  0  0
 18 37  1  0  0  0  0
 18 38  1  0  0  0  0
 20 21  1  0  0  0  0
 20 39  1  0  0  0  0
 20 40  1  0  0  0  0
 21 41  1  0  0  0  0
 21 42  1  0  0  0  0
M  END
> <s_m_source_file>
AV-unprocessed.smi

> <i_m_source_file_index>
1395

> <i_lp_mmshare_version>
43012

> <i_f3d_flags>
0

> <s_epik_input>
W0NIM11jMVtjSF1bY0hdW2NIXW5jMVtOSF1DKD1PKVtOSF1bQ0hdMltDSDJdW0NIMl1OKFtDSDJdW0NIMl0yKVtDSDJdQyg9TylbTkgyXQ==

> <s_epik_cmdline>
J2VwaWtfcHl0aG9uJywgJy1waCcsICc3LjAnLCAnLXRuJywgJzgnLCAnLW1hJywgJzIwMCcsICctbWV0YWxfYmluZGluZycsICctaW1hZScsICc8aW5maWxlLm1hZT4nLCAnLW9tYWUnLCAnPG91dGZpbGUubWFlPic=

> <r_epik_Ionization_Penalty>
0.164795

> <r_epik_Ionization_Penalty_Charging>
0

> <r_epik_Ionization_Penalty_Neutral>
0.164795

> <r_epik_State_Penalty>
0.154069

> <r_epik_Charging_Adjusted_Penalty>
0.154069

> <i_epik_Tot_Q>
0

> <i_epik_Tot_abs_Q>
0

> <r_epik_Metal_State_Penalty>
0.171366

> <b_epik_Metal_Only>
0

> <s_lp_Force_Field>
OPLS_2005

> <r_lp_Energy>
15.3703

> <b_lp_Chiralities_Consistent>
1

> <s_lp_Variant>
AV-unprocessed.smi:1395-1

> <Gold.Version>
5.8.1

> <Gold.Id.Protein>
6NUR|6NUR_protein|mol2

> <Gold.PLP.Fitness>
45.5179

> <Gold.PLP.PLP>
-38.1389

> <Gold.PLP.part.hbond>
-2.8668

> <Gold.PLP.part.metal>
0.0000

> <Gold.PLP.part.buried>
-4.4885

> <Gold.PLP.part.nonpolar>
-31.5683

> <Gold.PLP.part.repulsive>
0.5227

> <Gold.PLP.ligand.clash>
0.0000

> <Gold.PLP.ligand.torsion>
0.3904

> <Gold.PLP.Chemscore.Hbond>
2.7178

> <Gold.PLP.Chemscore.CHOScore>
0.0000

> <Gold.PLP.Chemscore.Metal>
0.0000

> <Gold.Chemscore.Hbonds>
donor molecule, donor type, donor heavy atom, donor atom, acceptor molecule, acceptor atom, score
      L1  H    18    38       P1  7948  0.89

> <Gold.PLP.Chemscore.Internal.Correction>
0.0065

> <Gold.Rescore>
     Score         DG    S(hbond)    S(metal)    S(lipo)     H(rot)  DE(clash)    DE(int)     intcor
     17.95     -21.54       2.91        0.00      96.61       1.94       0.34       3.25       ----

> <Gold.Chemscore.Fitness>
17.9531

> <Gold.Chemscore.DG>
-21.5433

> <Gold.Chemscore.ZeroCoef>
-5.4800

> <Gold.Chemscore.Hbond>
2.9106

> <Gold.Chemscore.Metal>
0.0000

> <Gold.Chemscore.Lipo>
96.6140

> <Gold.Chemscore.Internal_Hbond>
0.0000

> <Gold.Chemscore.DEClash>
0.3437

> <Gold.Chemscore.DEInternal>
3.2466

> <Gold.Chemscore.Rot>
1.9383

> <Gold.Chemscore.Internal.Correction>
   9.000000E+99

> <Gold.Chemscore.Hbonds>
donor molecule, donor type, donor heavy atom, donor atom, acceptor molecule, acceptor atom, score
      L1  H    11    29       P1  8028  0.03
      L1  H    18    38       P1  7948  0.85

> <Gold.Chemscore.Hbond.Weighted>
-9.7215

> <Gold.Chemscore.Metal.Weighted>
-0.0000

> <Gold.Chemscore.Lipo.Weighted>
-11.3038

> <Gold.Chemscore.Internal_Hbond.Weighted>
0.0000

> <Gold.Chemscore.DEClash.Weighted>
0.3437

> <Gold.Chemscore.DEInternal.Weighted>
3.2466

> <Gold.Chemscore.Rot.Weighted>
4.9620

> <Gold.Chemscore.Internal.Correction.Weighted>
   9.000000E+99

> <Gold.Protein.RotatedTorsions>
[ 6907 6896 6895 6894 ] final  -89.50 input  -60.11 | X-H torsion
[ 7974 7965 7964 7962 ] final   -5.16 input  175.53 | X-H torsion
[ 8008 7997 7996 7995 ] final   97.02 input   59.86 | X-H torsion
[ 10167 10162 10161 10158 ] final  152.90 input  -65.29 | X-H torsion
[ 10718 10713 10712 10709 ] final  -76.49 input   66.30 | X-H torsion
[ 10763 10752 10751 10750 ] final  172.09 input  -60.55 | X-H torsion
[ 11005 11000 10999 10996 ] final -122.99 input  -57.11 | X-H torsion

> <Gold.Protein.ActiveResidues>
 VAL166  LYS551  ARG553  GLY616  TRP617  ASP618  TYR619  PRO620  LYS621  CYS622 
 ASP623  PHE694  ASN695  SER759  ASP760  ASP761  ALA762  ILE779  LEU786  VAL792 
 PHE793  MET794  SER795  GLU796  ALA797  LYS798  CYS799  TRP800  GLU811  SER814 

> <Gold.Protein.RotatedAtoms>
  150.6874  134.2578  159.4536 H   0  0  0  0  0  0  0  0  0  0  0  0  # atno 6907 bound_to 6896
  152.0510  134.9651  160.0584 H   0  0  0  0  0  0  0  0  0  0  0  0  # atno 6908 bound_to 6896
  152.1115  133.4268  159.4670 H   0  0  0  0  0  0  0  0  0  0  0  0  # atno 6909 bound_to 6896
  146.2358  140.1979  142.8333 H   0  0  0  0  0  0  0  0  0  0  0  0  # atno 7974 bound_to 7965
  156.0858  140.3264  155.7752 H   0  0  0  0  0  0  0  0  0  0  0  0  # atno 8008 bound_to 7997
  155.5078  140.0574  157.2946 H   0  0  0  0  0  0  0  0  0  0  0  0  # atno 8009 bound_to 7997
  154.4608  140.1966  156.0266 H   0  0  0  0  0  0  0  0  0  0  0  0  # atno 8010 bound_to 7997
  139.4830  144.5319  151.7709 H   0  0  0  0  0  0  0  0  0  0  0  0  # atno 10167 bound_to 10162
  156.0173  130.4467  150.3201 H   0  0  0  0  0  0  0  0  0  0  0  0  # atno 10718 bound_to 10713
  154.4212  135.2758  155.1974 H   0  0  0  0  0  0  0  0  0  0  0  0  # atno 10763 bound_to 10752
  154.3919  135.6064  153.5851 H   0  0  0  0  0  0  0  0  0  0  0  0  # atno 10764 bound_to 10752
  152.9833  135.5905  154.4509 H   0  0  0  0  0  0  0  0  0  0  0  0  # atno 10765 bound_to 10752
  140.9953  134.0480  157.3604 H   0  0  0  0  0  0  0  0  0  0  0  0  # atno 11005 bound_to 11000
  144.9805  140.8455  143.5400 LP  0  0  0  0  0  0  0  0  0  0  0  0  # atno 17320 bound_to 7965
  145.1972  139.2271  143.5212 LP  0  0  0  0  0  0  0  0  0  0  0  0  # atno 17321 bound_to 7965
  140.4846  144.1400  150.5938 LP  0  0  0  0  0  0  0  0  0  0  0  0  # atno 17342 bound_to 10162
  140.4240  143.2598  151.9680 LP  0  0  0  0  0  0  0  0  0  0  0  0  # atno 17343 bound_to 10162
  157.1302  131.0269  151.2972 LP  0  0  0  0  0  0  0  0  0  0  0  0  # atno 17370 bound_to 10713
  157.4557  130.7624  149.7191 LP  0  0  0  0  0  0  0  0  0  0  0  0  # atno 17371 bound_to 10713
  139.9012  135.0165  156.7276 LP  0  0  0  0  0  0  0  0  0  0  0  0  # atno 17394 bound_to 11000
  140.6975  133.9335  155.8004 LP  0  0  0  0  0  0  0  0  0  0  0  0  # atno 17395 bound_to 11000

$$$$
