AV-unprocessed.smi:287|AV-procd|sdf|2205|dock5
  -GOLD-   2262022 33D 1   1.00000     0.00000
 Structure written by MMmdl.
 55 58  0  0  0  0  0  0  0  0  1 V2000
  152.1723  145.4176  158.6970 C   0  0  0  0  0  0  0  0  0  0  0  0
  152.1202  143.9458  158.4705 C   0  0  0  0  0  0  0  0  0  0  0  0
  151.5706  143.1588  157.5013 C   0  0  0  0  0  0  0  0  0  0  0  0
  151.8485  141.8021  157.8450 C   0  0  0  0  0  0  0  0  0  0  0  0
  151.4132  140.5767  157.0520 C   0  0  1  0  0  0  0  0  0  0  0  0
  150.7043  141.0139  155.7591 C   0  0  0  0  0  0  0  0  0  0  0  0
  152.5013  139.7787  156.6277 O   0  0  0  0  0  0  0  0  0  0  0  0
  150.4944  139.6463  157.8768 C   0  0  0  0  0  0  0  0  0  0  0  0
  150.1141  138.4402  157.1485 N   0  0  0  0  0  0  0  0  0  0  0  0
  148.9367  138.3851  156.4921 C   0  0  0  0  0  0  0  0  0  0  0  0
  148.0612  139.4228  156.5352 N   0  0  0  0  0  0  0  0  0  0  0  0
  146.8988  139.3401  155.8813 C   0  0  0  0  0  0  0  0  0  0  0  0
  146.4267  138.3331  155.1433 N   0  0  0  0  0  0  0  0  0  0  0  0
  147.3031  137.2883  155.0945 C   0  0  0  0  0  0  0  0  0  0  0  0
  148.5710  137.2400  155.7390 C   0  0  0  0  0  0  0  0  0  0  0  0
  149.1879  136.0241  155.4771 N   0  0  0  0  0  0  0  0  0  0  0  0
  148.3303  135.3924  154.7221 C   0  0  0  0  0  0  0  0  0  0  0  0
  147.1671  136.0761  154.4443 N   0  0  0  0  0  0  0  0  0  0  0  0
  146.0126  135.5936  153.6171 C   0  0  2  0  0  0  0  0  0  0  0  0
  146.3320  134.3617  153.0380 O   0  0  0  0  0  0  0  0  0  0  0  0
  146.2802  134.4473  151.6136 C   0  0  1  0  0  0  0  0  0  0  0  0
  145.8387  133.0978  151.0268 C   0  0  0  0  0  0  0  0  0  0  0  0
  146.6274  132.0552  151.5586 O   0  0  0  0  0  0  0  0  0  0  0  0
  145.2734  135.5748  151.3792 C   0  0  2  0  0  0  0  0  0  0  0  0
  145.3506  136.1409  150.0849 O   0  0  0  0  0  0  0  0  0  0  0  0
  145.6310  136.5615  152.4808 C   0  0  2  0  0  0  0  0  0  0  0  0
  146.6806  137.4414  152.1052 O   0  0  0  0  0  0  0  0  0  0  0  0
  152.5678  141.8768  159.0139 C   0  0  0  0  0  0  0  0  0  0  0  0
  153.1814  140.8634  159.9229 C   0  0  0  0  0  0  0  0  0  0  0  0
  152.7351  143.1727  159.4001 O   0  0  0  0  0  0  0  0  0  0  0  0
  145.2037  135.4442  154.3334 H   0  0  0  0  0  0  0  0  0  0  0  0
  147.2556  134.7450  151.2251 H   0  0  0  0  0  0  0  0  0  0  0  0
  144.2614  135.2014  151.5437 H   0  0  0  0  0  0  0  0  0  0  0  0
  144.7721  137.1612  152.7840 H   0  0  0  0  0  0  0  0  0  0  0  0
  151.6417  145.9518  157.9086 H   0  0  0  0  0  0  0  0  0  0  0  0
  153.2035  145.7706  158.7097 H   0  0  0  0  0  0  0  0  0  0  0  0
  151.7125  145.6784  159.6502 H   0  0  0  0  0  0  0  0  0  0  0  0
  151.0209  143.5150  156.6427 H   0  0  0  0  0  0  0  0  0  0  0  0
  149.8179  141.6113  155.9757 H   0  0  0  0  0  0  0  0  0  0  0  0
  150.3823  140.1549  155.1690 H   0  0  0  0  0  0  0  0  0  0  0  0
  151.3608  141.6186  155.1320 H   0  0  0  0  0  0  0  0  0  0  0  0
  152.4320  138.9328  157.0431 H   0  0  0  0  0  0  0  0  0  0  0  0
  151.0381  139.3256  158.7670 H   0  0  0  0  0  0  0  0  0  0  0  0
  149.6082  140.1775  158.2273 H   0  0  0  0  0  0  0  0  0  0  0  0
  150.7240  137.6433  157.2656 H   0  0  0  0  0  0  0  0  0  0  0  0
  146.2535  140.2023  155.9617 H   0  0  0  0  0  0  0  0  0  0  0  0
  148.5229  134.3977  154.3471 H   0  0  0  0  0  0  0  0  0  0  0  0
  144.7813  132.9097  151.2152 H   0  0  0  0  0  0  0  0  0  0  0  0
  145.9807  133.0944  149.9456 H   0  0  0  0  0  0  0  0  0  0  0  0
  147.2462  131.7795  150.8998 H   0  0  0  0  0  0  0  0  0  0  0  0
  144.6859  136.8100  150.0158 H   0  0  0  0  0  0  0  0  0  0  0  0
  147.5015  136.9807  152.1889 H   0  0  0  0  0  0  0  0  0  0  0  0
  153.8808  140.2292  159.3784 H   0  0  0  0  0  0  0  0  0  0  0  0
  152.4151  140.2251  160.3630 H   0  0  0  0  0  0  0  0  0  0  0  0
  153.7271  141.3417  160.7369 H   0  0  0  0  0  0  0  0  0  0  0  0
  1  2  1  0  0  0  0
  1 35  1  0  0  0  0
  1 36  1  0  0  0  0
  1 37  1  0  0  0  0
  2 30  1  0  0  0  0
  2  3  2  0  0  0  0
  3  4  1  0  0  0  0
  3 38  1  0  0  0  0
  4  5  1  0  0  0  0
  4 28  2  0  0  0  0
  5  6  1  0  0  0  0
  5  7  1  0  0  0  0
  5  8  1  0  0  0  0
  6 39  1  0  0  0  0
  6 40  1  0  0  0  0
  6 41  1  0  0  0  0
  7 42  1  0  0  0  0
  8  9  1  0  0  0  0
  8 43  1  0  0  0  0
  8 44  1  0  0  0  0
  9 10  1  0  0  0  0
  9 45  1  0  0  0  0
 10 15  1  0  0  0  0
 10 11  2  0  0  0  0
 11 12  1  0  0  0  0
 12 13  2  0  0  0  0
 12 46  1  0  0  0  0
 13 14  1  0  0  0  0
 14 18  1  0  0  0  0
 14 15  2  0  0  0  0
 15 16  1  0  0  0  0
 16 17  2  0  0  0  0
 17 18  1  0  0  0  0
 17 47  1  0  0  0  0
 18 19  1  0  0  0  0
 19 31  1  0  0  0  0
 19 26  1  0  0  0  0
 19 20  1  0  0  0  0
 20 21  1  0  0  0  0
 21 32  1  0  0  0  0
 21 22  1  0  0  0  0
 21 24  1  0  0  0  0
 22 23  1  0  0  0  0
 22 48  1  0  0  0  0
 22 49  1  0  0  0  0
 23 50  1  0  0  0  0
 24 33  1  0  0  0  0
 24 25  1  0  0  0  0
 24 26  1  0  0  0  0
 25 51  1  0  0  0  0
 26 34  1  0  0  0  0
 26 27  1  0  0  0  0
 27 52  1  0  0  0  0
 28 29  1  0  0  0  0
 28 30  1  0  0  0  0
 29 53  1  0  0  0  0
 29 54  1  0  0  0  0
 29 55  1  0  0  0  0
M  END
> <s_m_source_file>
AV-unprocessed.smi

> <i_m_source_file_index>
287

> <i_lp_mmshare_version>
43012

> <i_f3d_flags>
0

> <s_epik_input>
W0NIM11jMVtjSF1jKGMobzEpW0NIM10pW0NAQF0oW0NIM10pKFtPSF0pW0NIMl1bTkhdYyhuW2NIXW4yKWMoYzIzKW5bY0hdbjNbQ0BASF00T1tDQEhdKFtDSDJdW09IXSlbQ0BASF0oW09IXSlbQ0BIXTRbT0hd

> <s_epik_cmdline>
J2VwaWtfcHl0aG9uJywgJy1waCcsICc3LjAnLCAnLXRuJywgJzgnLCAnLW1hJywgJzIwMCcsICctbWV0YWxfYmluZGluZycsICctaW1hZScsICc8aW5maWxlLm1hZT4nLCAnLW9tYWUnLCAnPG91dGZpbGUubWFlPic=

> <r_lp_tautomer_probability>
1

> <r_epik_Ionization_Penalty>
0.000992612

> <r_epik_Ionization_Penalty_Charging>
0

> <r_epik_Ionization_Penalty_Neutral>
0.000992612

> <r_epik_State_Penalty>
-0

> <r_epik_Charging_Adjusted_Penalty>
0

> <i_epik_Tot_Q>
0

> <i_epik_Tot_abs_Q>
0

> <r_epik_Metal_State_Penalty>
-0

> <b_epik_Metal_Only>
0

> <s_epik_Chemistry_Notes>
This compound contains an acetal/aminal-like group ( X-CH(R)-Y where X, Y are N, S, or O) that may be acid/base labile, releasing an aldehyde.

> <s_lp_Force_Field>
OPLS_2005

> <r_lp_Energy>
50.5208

> <b_lp_Chiralities_Consistent>
1

> <s_lp_Variant>
AV-unprocessed.smi:287-29

> <Gold.Version>
5.8.1

> <Gold.Id.Protein>
6NUR|6NUR_protein|mol2

> <Gold.PLP.Fitness>
52.9527

> <Gold.PLP.PLP>
-41.6007

> <Gold.PLP.part.hbond>
-5.0000

> <Gold.PLP.part.metal>
0.0000

> <Gold.PLP.part.buried>
-5.6644

> <Gold.PLP.part.nonpolar>
-30.5440

> <Gold.PLP.part.repulsive>
0.2378

> <Gold.PLP.ligand.clash>
0.0000

> <Gold.PLP.ligand.torsion>
0.3374

> <Gold.PLP.Chemscore.Hbond>
3.9913

> <Gold.PLP.Chemscore.CHOScore>
0.0000

> <Gold.PLP.Chemscore.Metal>
0.0000

> <Gold.Chemscore.Hbonds>
donor molecule, donor type, donor heavy atom, donor atom, acceptor molecule, acceptor atom, score
      L1  H    23    50       P1 10747  0.93
      L1  H    25    51       P1 10171  1.00
      L1  H    27    52       P1  7948  1.00
      P1  H  7997  8010       L1     7  1.00

> <Gold.PLP.Chemscore.Internal.Correction>
0.0530

> <Gold.Rescore>
     Score         DG    S(hbond)    S(metal)    S(lipo)     H(rot)  DE(clash)    DE(int)     intcor
     15.46     -16.71       3.87        0.00     100.62       5.27       0.18       1.06       ----

> <Gold.Chemscore.Fitness>
15.4645

> <Gold.Chemscore.DG>
-16.7075

> <Gold.Chemscore.ZeroCoef>
-5.4800

> <Gold.Chemscore.Hbond>
3.8740

> <Gold.Chemscore.Metal>
0.0000

> <Gold.Chemscore.Lipo>
100.6166

> <Gold.Chemscore.Internal_Hbond>
0.0000

> <Gold.Chemscore.DEClash>
0.1790

> <Gold.Chemscore.DEInternal>
1.0640

> <Gold.Chemscore.Rot>
5.2672

> <Gold.Chemscore.Internal.Correction>
   9.000000E+99

> <Gold.Chemscore.Hbonds>
donor molecule, donor type, donor heavy atom, donor atom, acceptor molecule, acceptor atom, score
      L1  H    23    50       P1 10747  0.86
      L1  H    25    51       P1 10171  0.98
      L1  H    27    52       P1  7948  1.00
      P1  H  7997  8010       L1     7  0.39

> <Gold.Chemscore.Hbond.Weighted>
-12.9393

> <Gold.Chemscore.Metal.Weighted>
-0.0000

> <Gold.Chemscore.Lipo.Weighted>
-11.7721

> <Gold.Chemscore.Internal_Hbond.Weighted>
0.0000

> <Gold.Chemscore.DEClash.Weighted>
0.1790

> <Gold.Chemscore.DEInternal.Weighted>
1.0640

> <Gold.Chemscore.Rot.Weighted>
13.4839

> <Gold.Chemscore.Internal.Correction.Weighted>
   9.000000E+99

> <Gold.Protein.RotatedTorsions>
[ 6907 6896 6895 6894 ] final  111.29 input  -60.11 | X-H torsion
[ 7974 7965 7964 7962 ] final  -12.87 input  175.53 | X-H torsion
[ 8008 7997 7996 7995 ] final   60.71 input   59.86 | X-H torsion
[ 10167 10162 10161 10158 ] final -171.06 input  -65.29 | X-H torsion
[ 10718 10713 10712 10709 ] final  -73.79 input   66.30 | X-H torsion
[ 10763 10752 10751 10750 ] final  145.10 input  -60.55 | X-H torsion
[ 11005 11000 10999 10996 ] final   80.23 input  -57.11 | X-H torsion

> <Gold.Protein.ActiveResidues>
 VAL166  LYS551  ARG553  GLY616  TRP617  ASP618  TYR619  PRO620  LYS621  CYS622 
 ASP623  PHE694  ASN695  SER759  ASP760  ASP761  ALA762  ILE779  LEU786  VAL792 
 PHE793  MET794  SER795  GLU796  ALA797  LYS798  CYS799  TRP800  GLU811  SER814 

> <Gold.Protein.RotatedAtoms>
  152.4977  133.8678  159.7282 H   0  0  0  0  0  0  0  0  0  0  0  0  # atno 6907 bound_to 6896
  150.9173  133.6915  159.2847 H   0  0  0  0  0  0  0  0  0  0  0  0  # atno 6908 bound_to 6896
  151.4304  135.1013  159.9693 H   0  0  0  0  0  0  0  0  0  0  0  0  # atno 6909 bound_to 6896
  146.2136  140.3121  142.8383 H   0  0  0  0  0  0  0  0  0  0  0  0  # atno 7974 bound_to 7965
  155.5866  140.3492  155.4555 H   0  0  0  0  0  0  0  0  0  0  0  0  # atno 8008 bound_to 7997
  156.0333  140.1279  157.0260 H   0  0  0  0  0  0  0  0  0  0  0  0  # atno 8009 bound_to 7997
  154.4361  140.1039  156.6116 H   0  0  0  0  0  0  0  0  0  0  0  0  # atno 8010 bound_to 7997
  139.5824  144.1393  152.1533 H   0  0  0  0  0  0  0  0  0  0  0  0  # atno 10167 bound_to 10162
  156.0267  130.4402  150.2795 H   0  0  0  0  0  0  0  0  0  0  0  0  # atno 10718 bound_to 10713
  153.9999  135.2924  155.3403 H   0  0  0  0  0  0  0  0  0  0  0  0  # atno 10763 bound_to 10752
  154.7165  135.5127  153.8749 H   0  0  0  0  0  0  0  0  0  0  0  0  # atno 10764 bound_to 10752
  153.0771  135.6667  154.0242 H   0  0  0  0  0  0  0  0  0  0  0  0  # atno 10765 bound_to 10752
  139.9142  134.7904  156.1882 H   0  0  0  0  0  0  0  0  0  0  0  0  # atno 11005 bound_to 11000
  144.8981  140.7608  143.5884 LP  0  0  0  0  0  0  0  0  0  0  0  0  # atno 17320 bound_to 7965
  145.3046  139.1839  143.4671 LP  0  0  0  0  0  0  0  0  0  0  0  0  # atno 17321 bound_to 7965
  140.0949  144.5589  150.7029 LP  0  0  0  0  0  0  0  0  0  0  0  0  # atno 17342 bound_to 10162
  140.7101  143.2498  151.4608 LP  0  0  0  0  0  0  0  0  0  0  0  0  # atno 17343 bound_to 10162
  157.0899  131.0167  151.3125 LP  0  0  0  0  0  0  0  0  0  0  0  0  # atno 17370 bound_to 10713
  157.4862  130.7795  149.7462 LP  0  0  0  0  0  0  0  0  0  0  0  0  # atno 17371 bound_to 10713
  141.0600  133.6846  156.1934 LP  0  0  0  0  0  0  0  0  0  0  0  0  # atno 17394 bound_to 11000
  140.6676  134.4902  157.5586 LP  0  0  0  0  0  0  0  0  0  0  0  0  # atno 17395 bound_to 11000

$$$$
