AV-unprocessed.smi:109|AV-procd|sdf|1045|dock4
  -GOLD-   2262018 83D 1   1.00000     0.00000
 Structure written by MMmdl.
 58 61  0  0  0  0  0  0  0  0  1 V2000
  149.2940  141.6104  153.4470 O   0  0  0  0  0  0  0  0  0  0  0  0
  149.3413  141.0505  154.7416 C   0  0  0  0  0  0  0  0  0  0  0  0
  150.3659  141.8094  155.6024 C   0  0  0  0  0  0  0  0  0  0  0  0
  150.9882  140.9660  156.7427 C   0  0  2  0  0  0  0  0  0  0  0  0
  149.9255  140.2672  157.4697 N   0  0  0  0  0  0  0  0  0  0  0  0
  149.9927  138.9485  157.7607 C   0  0  0  0  0  0  0  0  0  0  0  0
  150.4174  138.5075  158.9736 N   0  0  0  0  0  0  0  0  0  0  0  0
  150.4782  137.1966  159.2269 C   0  0  0  0  0  0  0  0  0  0  0  0
  150.1658  136.1759  158.4251 N   0  0  0  0  0  0  0  0  0  0  0  0
  149.7359  136.6156  157.2073 C   0  0  0  0  0  0  0  0  0  0  0  0
  149.6226  137.9733  156.7993 C   0  0  0  0  0  0  0  0  0  0  0  0
  149.1562  138.0342  155.4920 N   0  0  0  0  0  0  0  0  0  0  0  0
  149.0029  136.7819  155.1525 C   0  0  0  0  0  0  0  0  0  0  0  0
  149.3302  135.8643  156.1275 N   0  0  0  0  0  0  0  0  0  0  0  0
  149.2794  134.3720  156.0669 C   0  0  1  0  0  0  0  0  0  0  0  0
  148.7580  134.0126  154.8311 O   0  0  0  0  0  0  0  0  0  0  0  0
  149.2014  132.6977  154.5405 C   0  0  1  0  0  0  0  0  0  0  0  0
  149.0314  132.4066  153.0418 C   0  0  0  0  0  0  0  0  0  0  0  0
  147.6918  132.6269  152.6568 O   0  0  0  0  0  0  0  0  0  0  0  0
  150.6661  132.7288  154.9980 C   0  0  2  0  0  0  0  0  0  0  0  0
  151.0696  131.4408  155.4191 O   0  0  0  0  0  0  0  0  0  0  0  0
  150.6689  133.7078  156.1736 C   0  0  1  0  0  0  0  0  0  0  0  0
  151.7551  134.6128  156.0764 O   0  0  0  0  0  0  0  0  0  0  0  0
  151.8334  141.8021  157.7464 C   0  0  0  0  0  0  0  0  0  0  0  0
  152.2904  140.9941  158.9872 C   0  0  0  0  0  0  0  0  0  0  0  0
  153.0875  141.8500  159.9856 C   0  0  0  0  0  0  0  0  0  0  0  0
  152.2923  143.0837  160.4289 C   0  0  0  0  0  0  0  0  0  0  0  0
  151.8581  143.9101  159.2127 C   0  0  0  0  0  0  0  0  0  0  0  0
  151.0538  143.0560  158.2205 C   0  0  0  0  0  0  0  0  0  0  0  0
  148.5969  134.0682  156.8621 H   0  0  0  0  0  0  0  0  0  0  0  0
  148.6330  131.9896  155.1481 H   0  0  0  0  0  0  0  0  0  0  0  0
  151.3093  133.0844  154.1911 H   0  0  0  0  0  0  0  0  0  0  0  0
  150.7206  133.1948  157.1352 H   0  0  0  0  0  0  0  0  0  0  0  0
  149.1320  140.9176  152.8253 H   0  0  0  0  0  0  0  0  0  0  0  0
  148.3430  141.1019  155.1760 H   0  0  0  0  0  0  0  0  0  0  0  0
  149.6115  139.9972  154.6617 H   0  0  0  0  0  0  0  0  0  0  0  0
  151.1482  142.1500  154.9266 H   0  0  0  0  0  0  0  0  0  0  0  0
  149.9050  142.7068  156.0178 H   0  0  0  0  0  0  0  0  0  0  0  0
  151.6733  140.2525  156.2853 H   0  0  0  0  0  0  0  0  0  0  0  0
  149.1394  140.8408  157.7402 H   0  0  0  0  0  0  0  0  0  0  0  0
  150.8272  136.9278  160.2129 H   0  0  0  0  0  0  0  0  0  0  0  0
  148.6486  136.4918  154.1739 H   0  0  0  0  0  0  0  0  0  0  0  0
  149.7067  133.0149  152.4393 H   0  0  0  0  0  0  0  0  0  0  0  0
  149.2626  131.3615  152.8338 H   0  0  0  0  0  0  0  0  0  0  0  0
  147.1250  132.3250  153.3501 H   0  0  0  0  0  0  0  0  0  0  0  0
  151.4039  131.5026  156.3010 H   0  0  0  0  0  0  0  0  0  0  0  0
  152.0411  134.8318  156.9499 H   0  0  0  0  0  0  0  0  0  0  0  0
  152.7314  142.1418  157.2273 H   0  0  0  0  0  0  0  0  0  0  0  0
  151.4219  140.5637  159.4875 H   0  0  0  0  0  0  0  0  0  0  0  0
  152.9272  140.1608  158.6949 H   0  0  0  0  0  0  0  0  0  0  0  0
  153.3565  141.2506  160.8556 H   0  0  0  0  0  0  0  0  0  0  0  0
  154.0254  142.1659  159.5272 H   0  0  0  0  0  0  0  0  0  0  0  0
  151.4141  142.7712  160.9951 H   0  0  0  0  0  0  0  0  0  0  0  0
  152.8950  143.6956  161.1008 H   0  0  0  0  0  0  0  0  0  0  0  0
  151.2605  144.7622  159.5381 H   0  0  0  0  0  0  0  0  0  0  0  0
  152.7369  144.3210  158.7140 H   0  0  0  0  0  0  0  0  0  0  0  0
  150.7795  143.6847  157.3734 H   0  0  0  0  0  0  0  0  0  0  0  0
  150.1162  142.7485  158.6860 H   0  0  0  0  0  0  0  0  0  0  0  0
  1  2  1  0  0  0  0
  1 34  1  0  0  0  0
  2  3  1  0  0  0  0
  2 35  1  0  0  0  0
  2 36  1  0  0  0  0
  3  4  1  0  0  0  0
  3 37  1  0  0  0  0
  3 38  1  0  0  0  0
  4  5  1  0  0  0  0
  4 24  1  0  0  0  0
  4 39  1  0  0  0  0
  5  6  1  0  0  0  0
  5 40  1  0  0  0  0
  6 11  1  0  0  0  0
  6  7  2  0  0  0  0
  7  8  1  0  0  0  0
  8  9  2  0  0  0  0
  8 41  1  0  0  0  0
  9 10  1  0  0  0  0
 10 14  1  0  0  0  0
 10 11  2  0  0  0  0
 11 12  1  0  0  0  0
 12 13  2  0  0  0  0
 13 14  1  0  0  0  0
 13 42  1  0  0  0  0
 14 15  1  0  0  0  0
 15 30  1  0  0  0  0
 15 22  1  0  0  0  0
 15 16  1  0  0  0  0
 16 17  1  0  0  0  0
 17 31  1  0  0  0  0
 17 18  1  0  0  0  0
 17 20  1  0  0  0  0
 18 19  1  0  0  0  0
 18 43  1  0  0  0  0
 18 44  1  0  0  0  0
 19 45  1  0  0  0  0
 20 32  1  0  0  0  0
 20 21  1  0  0  0  0
 20 22  1  0  0  0  0
 21 46  1  0  0  0  0
 22 33  1  0  0  0  0
 22 23  1  0  0  0  0
 23 47  1  0  0  0  0
 24 29  1  0  0  0  0
 24 25  1  0  0  0  0
 24 48  1  0  0  0  0
 25 26  1  0  0  0  0
 25 49  1  0  0  0  0
 25 50  1  0  0  0  0
 26 27  1  0  0  0  0
 26 51  1  0  0  0  0
 26 52  1  0  0  0  0
 27 28  1  0  0  0  0
 27 53  1  0  0  0  0
 27 54  1  0  0  0  0
 28 29  1  0  0  0  0
 28 55  1  0  0  0  0
 28 56  1  0  0  0  0
 29 57  1  0  0  0  0
 29 58  1  0  0  0  0
M  END
> <s_m_source_file>
AV-unprocessed.smi

> <i_m_source_file_index>
109

> <i_lp_mmshare_version>
43012

> <i_f3d_flags>
0

> <s_epik_input>
W0NIMl0xW0NIMl1bQ0gyXVtDSDJdW0NIMl1bQ0hdMVtDQEhdKFtDSDJdW0NIMl1bT0hdKVtOSF1jKG5bY0hdbjIpYyhjMjMpbltjSF1uM1tDQEBIXTRPW0NASF0oW0NIMl1bT0hdKVtDQEBIXShbT0hdKVtDQEhdNFtPSF0=

> <s_epik_cmdline>
J2VwaWtfcHl0aG9uJywgJy1waCcsICc3LjAnLCAnLXRuJywgJzgnLCAnLW1hJywgJzIwMCcsICctbWV0YWxfYmluZGluZycsICctaW1hZScsICc8aW5maWxlLm1hZT4nLCAnLW9tYWUnLCAnPG91dGZpbGUubWFlPic=

> <r_lp_tautomer_probability>
1

> <r_epik_Ionization_Penalty>
0.000793976

> <r_epik_Ionization_Penalty_Charging>
0

> <r_epik_Ionization_Penalty_Neutral>
0.000793976

> <r_epik_State_Penalty>
-0

> <r_epik_Charging_Adjusted_Penalty>
0

> <i_epik_Tot_Q>
0

> <i_epik_Tot_abs_Q>
0

> <r_epik_Metal_State_Penalty>
-0

> <b_epik_Metal_Only>
0

> <s_epik_Chemistry_Notes>
This compound contains an acetal/aminal-like group ( X-CH(R)-Y where X, Y are N, S, or O) that may be acid/base labile, releasing an aldehyde.

> <s_lp_Force_Field>
OPLS_2005

> <r_lp_Energy>
53.6553

> <b_lp_Chiralities_Consistent>
1

> <s_lp_Variant>
AV-unprocessed.smi:109-15

> <Gold.Version>
5.8.1

> <Gold.Id.Protein>
6NUR|6NUR_protein|mol2

> <Gold.PLP.Fitness>
53.1516

> <Gold.PLP.PLP>
-41.8817

> <Gold.PLP.part.hbond>
-5.6586

> <Gold.PLP.part.metal>
0.0000

> <Gold.PLP.part.buried>
-4.3425

> <Gold.PLP.part.nonpolar>
-30.2722

> <Gold.PLP.part.repulsive>
0.1760

> <Gold.PLP.ligand.clash>
0.0000

> <Gold.PLP.ligand.torsion>
1.3174

> <Gold.PLP.Chemscore.Hbond>
3.6046

> <Gold.PLP.Chemscore.CHOScore>
0.9738

> <Gold.PLP.Chemscore.Metal>
0.0000

> <Gold.Chemscore.Hbonds>
donor molecule, donor type, donor heavy atom, donor atom, acceptor molecule, acceptor atom, score
      L1  H     1    34       P1  7957  0.96
      P1  H  6896  6908       L1     9  0.43
      P1  H  8011  8017       L1     1  0.27
      P1  H 10752 10763       L1    23  0.59
      L1  C    13    42       P1  7948  1.00

> <Gold.PLP.Chemscore.Internal.Correction>
0.1695

> <Gold.Rescore>
     Score         DG    S(hbond)    S(metal)    S(lipo)     H(rot)  DE(clash)    DE(int)     intcor
     11.35     -14.08       3.10        0.00     104.53       5.47       1.45       1.28       ----

> <Gold.Chemscore.Fitness>
11.3541

> <Gold.Chemscore.DG>
-14.0778

> <Gold.Chemscore.ZeroCoef>
-5.4800

> <Gold.Chemscore.Hbond>
3.1023

> <Gold.Chemscore.Metal>
0.0000

> <Gold.Chemscore.Lipo>
104.5276

> <Gold.Chemscore.Internal_Hbond>
0.0000

> <Gold.Chemscore.DEClash>
1.4485

> <Gold.Chemscore.DEInternal>
1.2753

> <Gold.Chemscore.Rot>
5.4662

> <Gold.Chemscore.Internal.Correction>
   9.000000E+99

> <Gold.Chemscore.Hbonds>
donor molecule, donor type, donor heavy atom, donor atom, acceptor molecule, acceptor atom, score
      L1  H     1    34       P1  7957  0.92
      P1  H  6896  6908       L1     9  0.01
      P1  H  8011  8017       L1     1  0.01
      P1  H 10752 10763       L1    23  0.09

> <Gold.Chemscore.Hbond.Weighted>
-10.3616

> <Gold.Chemscore.Metal.Weighted>
-0.0000

> <Gold.Chemscore.Lipo.Weighted>
-12.2297

> <Gold.Chemscore.Internal_Hbond.Weighted>
0.0000

> <Gold.Chemscore.DEClash.Weighted>
1.4485

> <Gold.Chemscore.DEInternal.Weighted>
1.2753

> <Gold.Chemscore.Rot.Weighted>
13.9935

> <Gold.Chemscore.Internal.Correction.Weighted>
   9.000000E+99

> <Gold.Protein.RotatedTorsions>
[ 6907 6896 6895 6894 ] final -160.85 input  -60.11 | X-H torsion
[ 7974 7965 7964 7962 ] final -120.84 input  175.53 | X-H torsion
[ 8008 7997 7996 7995 ] final  165.40 input   59.86 | X-H torsion
[ 10167 10162 10161 10158 ] final  170.68 input  -65.29 | X-H torsion
[ 10718 10713 10712 10709 ] final  -28.79 input   66.30 | X-H torsion
[ 10763 10752 10751 10750 ] final   99.57 input  -60.55 | X-H torsion
[ 11005 11000 10999 10996 ] final  172.33 input  -57.11 | X-H torsion

> <Gold.Protein.ActiveResidues>
 VAL166  LYS551  ARG553  GLY616  TRP617  ASP618  TYR619  PRO620  LYS621  CYS622 
 ASP623  PHE694  ASN695  SER759  ASP760  ASP761  ALA762  ILE779  LEU786  VAL792 
 PHE793  MET794  SER795  GLU796  ALA797  LYS798  CYS799  TRP800  GLU811  SER814 

> <Gold.Protein.RotatedAtoms>
  151.3555  133.3909  159.2684 H   0  0  0  0  0  0  0  0  0  0  0  0  # atno 6907 bound_to 6896
  150.9767  134.9131  159.7830 H   0  0  0  0  0  0  0  0  0  0  0  0  # atno 6908 bound_to 6896
  152.5203  134.3518  159.9306 H   0  0  0  0  0  0  0  0  0  0  0  0  # atno 6909 bound_to 6896
  145.0469  140.8188  143.4233 H   0  0  0  0  0  0  0  0  0  0  0  0  # atno 7974 bound_to 7965
  156.1803  140.1671  156.8285 H   0  0  0  0  0  0  0  0  0  0  0  0  # atno 8008 bound_to 7997
  154.5353  140.0748  156.8450 H   0  0  0  0  0  0  0  0  0  0  0  0  # atno 8009 bound_to 7997
  155.3323  140.3380  155.4242 H   0  0  0  0  0  0  0  0  0  0  0  0  # atno 8010 bound_to 7997
  139.5025  144.3570  151.9864 H   0  0  0  0  0  0  0  0  0  0  0  0  # atno 10167 bound_to 10162
  156.4207  130.4426  149.7186 H   0  0  0  0  0  0  0  0  0  0  0  0  # atno 10718 bound_to 10713
  153.3030  135.4109  155.1269 H   0  0  0  0  0  0  0  0  0  0  0  0  # atno 10763 bound_to 10752
  154.8555  135.3546  154.5826 H   0  0  0  0  0  0  0  0  0  0  0  0  # atno 10764 bound_to 10752
  153.6252  135.7063  153.5354 H   0  0  0  0  0  0  0  0  0  0  0  0  # atno 10765 bound_to 10752
  140.3285  134.7377  157.4117 H   0  0  0  0  0  0  0  0  0  0  0  0  # atno 11005 bound_to 11000
  145.1577  139.2477  143.5408 LP  0  0  0  0  0  0  0  0  0  0  0  0  # atno 17320 bound_to 7965
  146.3514  140.1295  142.8597 LP  0  0  0  0  0  0  0  0  0  0  0  0  # atno 17321 bound_to 7965
  140.3006  144.3651  150.6061 LP  0  0  0  0  0  0  0  0  0  0  0  0  # atno 17342 bound_to 10162
  140.5876  143.2169  151.7313 LP  0  0  0  0  0  0  0  0  0  0  0  0  # atno 17343 bound_to 10162
  156.4127  130.7730  151.2744 LP  0  0  0  0  0  0  0  0  0  0  0  0  # atno 17370 bound_to 10713
  157.7508  131.0206  150.3717 LP  0  0  0  0  0  0  0  0  0  0  0  0  # atno 17371 bound_to 10713
  140.0881  134.5639  155.8472 LP  0  0  0  0  0  0  0  0  0  0  0  0  # atno 17394 bound_to 11000
  141.2069  133.6659  156.6272 LP  0  0  0  0  0  0  0  0  0  0  0  0  # atno 17395 bound_to 11000

$$$$
