AV-unprocessed.smi:215|AV-procd|sdf|1653|dock10
  -GOLD-   2262020 43D 1   1.00000     0.00000
 Structure written by MMmdl.
 59 62  0  0  0  0  0  0  0  0  2 V2000
  144.6948  138.8814  158.3761 C   0  0  0  0  0  0  0  0  0  0  0  0
  144.3085  139.8739  157.2537 C   0  0  1  0  0  0  0  0  0  0  0  0
  145.0938  141.2024  157.2965 C   0  0  1  0  0  0  0  0  0  0  0  0
  145.2078  141.8188  158.6525 N   0  3  2  0  0  0  0  0  0  0  0  0
  143.8870  141.9235  159.3255 C   0  0  0  0  0  0  0  0  0  0  0  0
  145.9337  143.1203  158.6689 C   0  0  0  0  0  0  0  0  0  0  0  0
  145.9622  143.7597  160.0683 C   0  0  0  0  0  0  0  0  0  0  0  0
  146.5217  142.8594  161.0016 O   0  0  0  0  0  0  0  0  0  0  0  0
  146.4202  140.8106  156.6211 C   0  0  0  0  0  0  0  0  0  0  0  0
  146.0149  139.7545  155.5844 C   0  0  0  0  0  0  0  0  0  0  0  0
  144.6623  139.3430  155.9446 N   0  0  0  0  0  0  0  0  0  0  0  0
  144.0573  138.2714  155.3629 C   0  0  0  0  0  0  0  0  0  0  0  0
  142.8407  137.8904  155.8349 N   0  0  0  0  0  0  0  0  0  0  0  0
  142.1979  136.8476  155.3033 C   0  0  0  0  0  0  0  0  0  0  0  0
  142.5853  136.0509  154.3075 N   0  0  0  0  0  0  0  0  0  0  0  0
  143.8100  136.4142  153.8307 C   0  0  0  0  0  0  0  0  0  0  0  0
  144.6109  137.4981  154.2975 C   0  0  0  0  0  0  0  0  0  0  0  0
  145.7982  137.5391  153.5740 N   0  0  0  0  0  0  0  0  0  0  0  0
  145.7023  136.5487  152.7311 C   0  0  0  0  0  0  0  0  0  0  0  0
  144.5356  135.8239  152.8094 N   0  0  0  0  0  0  0  0  0  0  0  0
  144.1781  134.6848  152.0121 C   0  0  0  0  0  0  0  0  0  0  0  0
  144.8628  133.3346  152.2256 C   0  0  0  0  0  0  0  0  0  0  0  0
  144.7180  133.0319  150.7169 C   0  0  0  0  0  0  0  0  0  0  0  0
  145.9437  132.3733  150.0623 C   0  0  0  0  0  0  0  0  0  0  0  0
  146.1985  131.0996  150.6190 O   0  0  0  0  0  0  0  0  0  0  0  0
  143.4511  132.2448  150.3251 C   0  0  0  0  0  0  0  0  0  0  0  0
  143.1466  132.4040  148.9540 O   0  0  0  0  0  0  0  0  0  0  0  0
  144.6175  134.5661  150.5512 C   0  0  0  0  0  0  0  0  0  0  0  0
  143.2429  140.0940  157.2974 H   0  0  0  0  0  0  0  0  0  0  0  0
  144.5904  141.9195  156.6441 H   0  0  0  0  0  0  0  0  0  0  0  0
  144.4515  139.2714  159.3637 H   0  0  0  0  0  0  0  0  0  0  0  0
  145.7598  138.6494  158.3675 H   0  0  0  0  0  0  0  0  0  0  0  0
  144.1592  137.9378  158.2709 H   0  0  0  0  0  0  0  0  0  0  0  0
  143.2225  142.5894  158.7738 H   0  0  0  0  0  0  0  0  0  0  0  0
  143.9805  142.3076  160.3401 H   0  0  0  0  0  0  0  0  0  0  0  0
  143.3947  140.9553  159.4068 H   0  0  0  0  0  0  0  0  0  0  0  0
  146.9673  143.0121  158.3458 H   0  0  0  0  0  0  0  0  0  0  0  0
  145.4707  143.8005  157.9524 H   0  0  0  0  0  0  0  0  0  0  0  0
  146.5789  144.6587  160.0522 H   0  0  0  0  0  0  0  0  0  0  0  0
  144.9731  144.0677  160.4046 H   0  0  0  0  0  0  0  0  0  0  0  0
  146.0746  142.9613  161.8284 H   0  0  0  0  0  0  0  0  0  0  0  0
  146.9264  141.6539  156.1508 H   0  0  0  0  0  0  0  0  0  0  0  0
  147.1049  140.3704  157.3475 H   0  0  0  0  0  0  0  0  0  0  0  0
  146.0029  140.1832  154.5816 H   0  0  0  0  0  0  0  0  0  0  0  0
  146.7092  138.9131  155.5898 H   0  0  0  0  0  0  0  0  0  0  0  0
  141.2353  136.6197  155.7375 H   0  0  0  0  0  0  0  0  0  0  0  0
  146.4880  136.3177  152.0264 H   0  0  0  0  0  0  0  0  0  0  0  0
  143.0949  134.5741  152.0833 H   0  0  0  0  0  0  0  0  0  0  0  0
  145.9029  133.4360  152.5411 H   0  0  0  0  0  0  0  0  0  0  0  0
  144.3217  132.6540  152.8837 H   0  0  0  0  0  0  0  0  0  0  0  0
  145.8186  132.2716  148.9840 H   0  0  0  0  0  0  0  0  0  0  0  0
  146.8353  132.9836  150.2092 H   0  0  0  0  0  0  0  0  0  0  0  0
  147.0711  130.8335  150.3727 H   0  0  0  0  0  0  0  0  0  0  0  0
  143.5595  131.1813  150.5389 H   0  0  0  0  0  0  0  0  0  0  0  0
  142.5862  132.5799  150.8979 H   0  0  0  0  0  0  0  0  0  0  0  0
  142.5296  133.1141  148.8644 H   0  0  0  0  0  0  0  0  0  0  0  0
  143.8722  134.9057  149.8314 H   0  0  0  0  0  0  0  0  0  0  0  0
  145.5831  135.0358  150.3570 H   0  0  0  0  0  0  0  0  0  0  0  0
  145.7700  141.1809  159.1984 H   0  0  0  0  0  0  0  0  0  0  0  0
  1  2  1  0  0  0  0
  1 31  1  0  0  0  0
  1 32  1  0  0  0  0
  1 33  1  0  0  0  0
  2 29  1  0  0  0  0
  2 11  1  0  0  0  0
  2  3  1  0  0  0  0
  3 30  1  0  0  0  0
  3  4  1  0  0  0  0
  3  9  1  0  0  0  0
  4  5  1  0  0  0  0
  4  6  1  0  0  0  0
  4 59  1  0  0  0  0
  5 34  1  0  0  0  0
  5 35  1  0  0  0  0
  5 36  1  0  0  0  0
  6  7  1  0  0  0  0
  6 37  1  0  0  0  0
  6 38  1  0  0  0  0
  7  8  1  0  0  0  0
  7 39  1  0  0  0  0
  7 40  1  0  0  0  0
  8 41  1  0  0  0  0
  9 10  1  0  0  0  0
  9 42  1  0  0  0  0
  9 43  1  0  0  0  0
 10 11  1  0  0  0  0
 10 44  1  0  0  0  0
 10 45  1  0  0  0  0
 11 12  1  0  0  0  0
 12 17  1  0  0  0  0
 12 13  2  0  0  0  0
 13 14  1  0  0  0  0
 14 15  2  0  0  0  0
 14 46  1  0  0  0  0
 15 16  1  0  0  0  0
 16 20  1  0  0  0  0
 16 17  2  0  0  0  0
 17 18  1  0  0  0  0
 18 19  2  0  0  0  0
 19 20  1  0  0  0  0
 19 47  1  0  0  0  0
 20 21  1  0  0  0  0
 21 28  1  0  0  0  0
 21 22  1  0  0  0  0
 21 48  1  0  0  0  0
 22 23  1  0  0  0  0
 22 49  1  0  0  0  0
 22 50  1  0  0  0  0
 23 24  1  0  0  0  0
 23 26  1  0  0  0  0
 23 28  1  0  0  0  0
 24 25  1  0  0  0  0
 24 51  1  0  0  0  0
 24 52  1  0  0  0  0
 25 53  1  0  0  0  0
 26 27  1  0  0  0  0
 26 54  1  0  0  0  0
 26 55  1  0  0  0  0
 27 56  1  0  0  0  0
 28 57  1  0  0  0  0
 28 58  1  0  0  0  0
M  CHG  1   4   1
M  END
> <s_m_source_file>
AV-unprocessed.smi

> <i_m_source_file_index>
215

> <i_lp_mmshare_version>
43012

> <i_f3d_flags>
0

> <s_epik_input>
W09IXVtDSDJdW0NIMl1OKFtDSDNdKVtDQEBIXShbQ0BIXTFbQ0gzXSlbQ0gyXVtDSDJdTjFjKG5bY0hdbjIpYyhjMjMpbltjSF1uM1tDSF0oW0NIMl00KVtDSDJdQzQoW0NIMl1bT0hdKVtDSDJdW09IXQ==

> <s_epik_cmdline>
J2VwaWtfcHl0aG9uJywgJy1waCcsICc3LjAnLCAnLXRuJywgJzgnLCAnLW1hJywgJzIwMCcsICctbWV0YWxfYmluZGluZycsICctaW1hZScsICc8aW5maWxlLm1hZT4nLCAnLW9tYWUnLCAnPG91dGZpbGUubWFlPic=

> <r_lp_tautomer_probability>
1

> <r_epik_Ionization_Penalty>
0.0036237

> <r_epik_Ionization_Penalty_Charging>
0.0032725

> <r_epik_Ionization_Penalty_Neutral>
0.000351196

> <r_epik_State_Penalty>
-0

> <r_epik_Charging_Adjusted_Penalty>
0.0032725

> <i_epik_Tot_Q>
1

> <i_epik_Tot_abs_Q>
1

> <r_epik_Metal_State_Penalty>
-0

> <b_epik_Metal_Only>
0

> <s_lp_Force_Field>
OPLS_2005

> <r_lp_Energy>
66.6502

> <b_lp_Chiralities_Consistent>
1

> <s_lp_Variant>
AV-unprocessed.smi:215-4

> <Gold.Version>
5.8.1

> <Gold.Id.Protein>
6NUR|6NUR_protein|mol2

> <Gold.PLP.Fitness>
44.3550

> <Gold.PLP.PLP>
-29.2522

> <Gold.PLP.part.hbond>
-5.2648

> <Gold.PLP.part.metal>
0.0000

> <Gold.PLP.part.buried>
-8.2085

> <Gold.PLP.part.nonpolar>
-17.6063

> <Gold.PLP.part.repulsive>
0.3046

> <Gold.PLP.ligand.clash>
0.0000

> <Gold.PLP.ligand.torsion>
0.9125

> <Gold.PLP.Chemscore.Hbond>
3.9085

> <Gold.PLP.Chemscore.CHOScore>
1.4909

> <Gold.PLP.Chemscore.Metal>
0.0000

> <Gold.Chemscore.Hbonds>
donor molecule, donor type, donor heavy atom, donor atom, acceptor molecule, acceptor atom, score
      L1  H    25    53       P1 10747  1.00
      L1  H    27    56       P1 10186  0.80
      P1  H  6933  6944       L1     8  0.76
      P1  H  6934  6946       L1     8  0.86
      P1  H 10785 10796       L1    27  0.18
      L1  C    14    46       P1 11000  0.30
      L1  C    19    47       P1  7948  1.00

> <Gold.PLP.Chemscore.Internal.Correction>
0.7296

> <Gold.Rescore>
     Score         DG    S(hbond)    S(metal)    S(lipo)     H(rot)  DE(clash)    DE(int)     intcor
      9.04     -11.15       3.32        0.00      51.62       4.48       0.00       2.11       ----

> <Gold.Chemscore.Fitness>
9.0357

> <Gold.Chemscore.DG>
-11.1469

> <Gold.Chemscore.ZeroCoef>
-5.4800

> <Gold.Chemscore.Hbond>
3.3213

> <Gold.Chemscore.Metal>
0.0000

> <Gold.Chemscore.Lipo>
51.6168

> <Gold.Chemscore.Internal_Hbond>
0.0000

> <Gold.Chemscore.DEClash>
0.0004

> <Gold.Chemscore.DEInternal>
2.1107

> <Gold.Chemscore.Rot>
4.4787

> <Gold.Chemscore.Internal.Correction>
   9.000000E+99

> <Gold.Chemscore.Hbonds>
donor molecule, donor type, donor heavy atom, donor atom, acceptor molecule, acceptor atom, score
      L1  H    25    53       P1 10747  0.99
      L1  H    27    56       P1 10186  0.77
      P1  H  6933  6944       L1     8  0.41
      P1  H  6934  6946       L1     8  0.52
      P1  H 10785 10796       L1    27  0.01

> <Gold.Chemscore.Hbond.Weighted>
-11.0932

> <Gold.Chemscore.Metal.Weighted>
-0.0000

> <Gold.Chemscore.Lipo.Weighted>
-6.0392

> <Gold.Chemscore.Internal_Hbond.Weighted>
0.0000

> <Gold.Chemscore.DEClash.Weighted>
0.0004

> <Gold.Chemscore.DEInternal.Weighted>
2.1107

> <Gold.Chemscore.Rot.Weighted>
11.4655

> <Gold.Chemscore.Internal.Correction.Weighted>
   9.000000E+99

> <Gold.Protein.RotatedTorsions>
[ 6907 6896 6895 6894 ] final  -94.73 input  -60.11 | X-H torsion
[ 7974 7965 7964 7962 ] final  131.89 input  175.53 | X-H torsion
[ 8008 7997 7996 7995 ] final   75.63 input   59.86 | X-H torsion
[ 10167 10162 10161 10158 ] final   33.64 input  -65.29 | X-H torsion
[ 10718 10713 10712 10709 ] final   80.43 input   66.30 | X-H torsion
[ 10763 10752 10751 10750 ] final  173.99 input  -60.55 | X-H torsion
[ 11005 11000 10999 10996 ] final  -95.64 input  -57.11 | X-H torsion

> <Gold.Protein.ActiveResidues>
 VAL166  LYS551  ARG553  GLY616  TRP617  ASP618  TYR619  PRO620  LYS621  CYS622 
 ASP623  PHE694  ASN695  SER759  ASP760  ASP761  ALA762  ILE779  LEU786  VAL792 
 PHE793  MET794  SER795  GLU796  ALA797  LYS798  CYS799  TRP800  GLU811  SER814 

> <Gold.Protein.RotatedAtoms>
  150.6948  134.1767  159.4232 H   0  0  0  0  0  0  0  0  0  0  0  0  # atno 6907 bound_to 6896
  151.9743  135.0058  160.0563 H   0  0  0  0  0  0  0  0  0  0  0  0  # atno 6908 bound_to 6896
  152.1813  133.4674  159.4996 H   0  0  0  0  0  0  0  0  0  0  0  0  # atno 6909 bound_to 6896
  145.0026  139.4298  143.5285 H   0  0  0  0  0  0  0  0  0  0  0  0  # atno 7974 bound_to 7965
  155.8156  140.3471  155.5484 H   0  0  0  0  0  0  0  0  0  0  0  0  # atno 8008 bound_to 7997
  155.8395  140.0939  157.1763 H   0  0  0  0  0  0  0  0  0  0  0  0  # atno 8009 bound_to 7997
  154.4005  140.1397  156.3699 H   0  0  0  0  0  0  0  0  0  0  0  0  # atno 8010 bound_to 7997
  140.4388  144.1217  150.6170 H   0  0  0  0  0  0  0  0  0  0  0  0  # atno 10167 bound_to 10162
  157.6806  130.9959  150.2078 H   0  0  0  0  0  0  0  0  0  0  0  0  # atno 10718 bound_to 10713
  154.4478  135.2764  155.1803 H   0  0  0  0  0  0  0  0  0  0  0  0  # atno 10763 bound_to 10752
  154.3642  135.6123  153.5710 H   0  0  0  0  0  0  0  0  0  0  0  0  # atno 10764 bound_to 10752
  152.9845  135.5842  154.4817 H   0  0  0  0  0  0  0  0  0  0  0  0  # atno 10765 bound_to 10752
  141.1436  133.8040  157.0463 H   0  0  0  0  0  0  0  0  0  0  0  0  # atno 11005 bound_to 11000
  146.3455  139.9423  142.8739 LP  0  0  0  0  0  0  0  0  0  0  0  0  # atno 17320 bound_to 7965
  145.2133  140.9904  143.4088 LP  0  0  0  0  0  0  0  0  0  0  0  0  # atno 17321 bound_to 7965
  140.4342  143.2555  151.9556 LP  0  0  0  0  0  0  0  0  0  0  0  0  # atno 17342 bound_to 10162
  139.4788  144.5715  151.8080 LP  0  0  0  0  0  0  0  0  0  0  0  0  # atno 17343 bound_to 10162
  156.2755  130.3727  149.7988 LP  0  0  0  0  0  0  0  0  0  0  0  0  # atno 17370 bound_to 10713
  156.5692  130.8417  151.3351 LP  0  0  0  0  0  0  0  0  0  0  0  0  # atno 17371 bound_to 10713
  140.0660  134.9728  157.1387 LP  0  0  0  0  0  0  0  0  0  0  0  0  # atno 17394 bound_to 11000
  140.3778  134.2319  155.7173 LP  0  0  0  0  0  0  0  0  0  0  0  0  # atno 17395 bound_to 11000

$$$$
