AV-unprocessed.smi:1978|AV-procd|sdf|8011|dock5
  -GOLD-   2272010203D 1   1.00000     0.00000
 Structure written by MMmdl.
 44 45  0  0  0  0  0  0  0  0  3 V2000
  154.6199  135.9514  164.2702 C   0  0  0  0  0  0  0  0  0  0  0  0
  154.2095  136.3270  162.8880 C   0  0  0  0  0  0  0  0  0  0  0  0
  153.6873  137.4703  162.3521 C   0  0  0  0  0  0  0  0  0  0  0  0
  153.5393  137.1425  160.9781 C   0  0  0  0  0  0  0  0  0  0  0  0
  153.0163  138.0915  160.0607 N   0  0  0  0  0  0  0  0  0  0  0  0
  152.6248  137.9050  158.7871 C   0  0  0  0  0  0  0  0  0  0  0  0
  152.6963  136.7844  158.2686 O   0  0  0  0  0  0  0  0  0  0  0  0
  152.1854  139.0575  158.2099 N   0  5  0  0  0  0  0  0  0  0  0  0
  151.6653  140.2158  158.9390 C   0  0  0  0  0  0  0  0  0  0  0  0
  151.8764  141.5272  158.1290 C   0  0  1  0  0  0  0  0  0  0  0  0
  151.1343  141.5718  156.7686 C   0  0  0  0  0  0  0  0  0  0  0  0
  151.5928  142.7323  158.9838 N   0  3  2  0  0  0  0  0  0  0  0  0
  151.0735  143.9151  158.2241 C   0  0  0  0  0  0  0  0  0  0  0  0
  150.5380  145.0027  159.1628 C   0  0  0  0  0  0  0  0  0  0  0  0
  151.6419  145.4660  160.1129 C   0  0  0  0  0  0  0  0  0  0  0  0
  152.1963  144.2602  160.8758 C   0  0  0  0  0  0  0  0  0  0  0  0
  152.6859  143.1337  159.9355 C   0  0  1  0  0  0  0  0  0  0  0  0
  153.2086  141.9767  160.8155 C   0  0  0  0  0  0  0  0  0  0  0  0
  153.9332  135.9079  160.7018 N   0  0  0  0  0  0  0  0  0  0  0  0
  154.3640  135.3790  161.9244 O   0  0  0  0  0  0  0  0  0  0  0  0
  154.6403  136.8260  164.9206 H   0  0  0  0  0  0  0  0  0  0  0  0
  155.6153  135.5070  164.2712 H   0  0  0  0  0  0  0  0  0  0  0  0
  153.9244  135.2282  164.6957 H   0  0  0  0  0  0  0  0  0  0  0  0
  153.4523  138.3928  162.8614 H   0  0  0  0  0  0  0  0  0  0  0  0
  152.9348  139.0348  160.4098 H   0  0  0  0  0  0  0  0  0  0  0  0
  150.6110  140.1168  159.2002 H   0  0  0  0  0  0  0  0  0  0  0  0
  152.1825  140.3190  159.8937 H   0  0  0  0  0  0  0  0  0  0  0  0
  152.9337  141.5130  157.8843 H   0  0  0  0  0  0  0  0  0  0  0  0
  151.4866  140.7940  156.0890 H   0  0  0  0  0  0  0  0  0  0  0  0
  151.3086  142.5219  156.2635 H   0  0  0  0  0  0  0  0  0  0  0  0
  150.0551  141.4452  156.8691 H   0  0  0  0  0  0  0  0  0  0  0  0
  151.8670  144.3373  157.6061 H   0  0  0  0  0  0  0  0  0  0  0  0
  150.2721  143.6241  157.5450 H   0  0  0  0  0  0  0  0  0  0  0  0
  150.1681  145.8482  158.5820 H   0  0  0  0  0  0  0  0  0  0  0  0
  149.6895  144.6193  159.7313 H   0  0  0  0  0  0  0  0  0  0  0  0
  152.4409  145.9505  159.5501 H   0  0  0  0  0  0  0  0  0  0  0  0
  151.2533  146.2080  160.8109 H   0  0  0  0  0  0  0  0  0  0  0  0
  153.0125  144.5923  161.5186 H   0  0  0  0  0  0  0  0  0  0  0  0
  151.4234  143.8712  161.5406 H   0  0  0  0  0  0  0  0  0  0  0  0
  153.5215  143.5165  159.3475 H   0  0  0  0  0  0  0  0  0  0  0  0
  153.8258  142.3543  161.6312 H   0  0  0  0  0  0  0  0  0  0  0  0
  153.8443  141.2852  160.2637 H   0  0  0  0  0  0  0  0  0  0  0  0
  152.3885  141.4124  161.2611 H   0  0  0  0  0  0  0  0  0  0  0  0
  150.8330  142.4346  159.5792 H   0  0  0  0  0  0  0  0  0  0  0  0
  1  2  1  0  0  0  0
  1 21  1  0  0  0  0
  1 22  1  0  0  0  0
  1 23  1  0  0  0  0
  2 20  1  0  0  0  0
  2  3  2  0  0  0  0
  3  4  1  0  0  0  0
  3 24  1  0  0  0  0
  4  5  1  0  0  0  0
  4 19  2  0  0  0  0
  5  6  1  0  0  0  0
  5 25  1  0  0  0  0
  6  7  2  0  0  0  0
  6  8  1  0  0  0  0
  8  9  1  0  0  0  0
  9 10  1  0  0  0  0
  9 26  1  0  0  0  0
  9 27  1  0  0  0  0
 10 11  1  0  0  0  0
 10 12  1  0  0  0  0
 10 28  1  0  0  0  0
 11 29  1  0  0  0  0
 11 30  1  0  0  0  0
 11 31  1  0  0  0  0
 12 17  1  0  0  0  0
 12 13  1  0  0  0  0
 12 44  1  0  0  0  0
 13 14  1  0  0  0  0
 13 32  1  0  0  0  0
 13 33  1  0  0  0  0
 14 15  1  0  0  0  0
 14 34  1  0  0  0  0
 14 35  1  0  0  0  0
 15 16  1  0  0  0  0
 15 36  1  0  0  0  0
 15 37  1  0  0  0  0
 16 17  1  0  0  0  0
 16 38  1  0  0  0  0
 16 39  1  0  0  0  0
 17 18  1  0  0  0  0
 17 40  1  0  0  0  0
 18 41  1  0  0  0  0
 18 42  1  0  0  0  0
 18 43  1  0  0  0  0
 19 20  1  0  0  0  0
M  CHG  1   8  -1
M  CHG  1  12   1
M  END
> <s_m_source_file>
AV-unprocessed.smi

> <i_m_source_file_index>
1978

> <i_lp_mmshare_version>
43012

> <i_f3d_flags>
0

> <s_epik_input>
W0NIM11jMVtjSF1jKG5vMSlbTkhdQyg9TylbTkhdW0NIMl1bQ0BIXShbQ0gzXSlOMltDSDJdW0NIMl1bQ0gyXVtDSDJdW0NASF0yW0NIM10=

> <s_epik_cmdline>
J2VwaWtfcHl0aG9uJywgJy1waCcsICc3LjAnLCAnLXRuJywgJzgnLCAnLW1hJywgJzIwMCcsICctbWV0YWxfYmluZGluZycsICctaW1hZScsICc8aW5maWxlLm1hZT4nLCAnLW9tYWUnLCAnPG91dGZpbGUubWFlPic=

> <r_epik_Ionization_Penalty>
6.7666

> <r_epik_Ionization_Penalty_Charging>
6.7666

> <r_epik_Ionization_Penalty_Neutral>
5.77131e-06

> <r_epik_State_Penalty>
6.79217

> <r_epik_Charging_Adjusted_Penalty>
13.5588

> <i_epik_Tot_Q>
0

> <i_epik_Tot_abs_Q>
2

> <r_epik_Metal_State_Penalty>
2.72569

> <b_epik_Metal_Only>
1

> <s_lp_Force_Field>
OPLS_2005

> <r_lp_Energy>
21.6667

> <b_lp_Chiralities_Consistent>
1

> <s_lp_Variant>
AV-unprocessed.smi:1978-20

> <Gold.Version>
5.8.1

> <Gold.Id.Protein>
6NUR|6NUR_protein|mol2

> <Gold.PLP.Fitness>
43.2563

> <Gold.PLP.PLP>
-42.6783

> <Gold.PLP.part.hbond>
-0.8274

> <Gold.PLP.part.metal>
0.0000

> <Gold.PLP.part.buried>
-6.9730

> <Gold.PLP.part.nonpolar>
-35.2700

> <Gold.PLP.part.repulsive>
0.1439

> <Gold.PLP.ligand.clash>
0.0000

> <Gold.PLP.ligand.torsion>
1.0900

> <Gold.PLP.Chemscore.Hbond>
0.8450

> <Gold.PLP.Chemscore.CHOScore>
0.0000

> <Gold.PLP.Chemscore.Metal>
0.0000

> <Gold.Chemscore.Hbonds>
donor molecule, donor type, donor heavy atom, donor atom, acceptor molecule, acceptor atom, score
      P1  H  6896  6907       L1    19  0.99

> <Gold.PLP.Chemscore.Internal.Correction>
0.2231

> <Gold.Rescore>
     Score         DG    S(hbond)    S(metal)    S(lipo)     H(rot)  DE(clash)    DE(int)     intcor
     15.11     -17.72       0.91        0.00     111.84       1.52       0.02       2.59       ----

> <Gold.Chemscore.Fitness>
15.1141

> <Gold.Chemscore.DG>
-17.7237

> <Gold.Chemscore.ZeroCoef>
-5.4800

> <Gold.Chemscore.Hbond>
0.9123

> <Gold.Chemscore.Metal>
0.0000

> <Gold.Chemscore.Lipo>
111.8394

> <Gold.Chemscore.Internal_Hbond>
0.0000

> <Gold.Chemscore.DEClash>
0.0224

> <Gold.Chemscore.DEInternal>
2.5871

> <Gold.Chemscore.Rot>
1.5190

> <Gold.Chemscore.Internal.Correction>
   9.000000E+99

> <Gold.Chemscore.Hbonds>
donor molecule, donor type, donor heavy atom, donor atom, acceptor molecule, acceptor atom, score
      P1  H  6896  6907       L1    19  0.47

> <Gold.Chemscore.Hbond.Weighted>
-3.0471

> <Gold.Chemscore.Metal.Weighted>
-0.0000

> <Gold.Chemscore.Lipo.Weighted>
-13.0852

> <Gold.Chemscore.Internal_Hbond.Weighted>
0.0000

> <Gold.Chemscore.DEClash.Weighted>
0.0224

> <Gold.Chemscore.DEInternal.Weighted>
2.5871

> <Gold.Chemscore.Rot.Weighted>
3.8886

> <Gold.Chemscore.Internal.Correction.Weighted>
   9.000000E+99

> <Gold.Protein.RotatedTorsions>
[ 6907 6896 6895 6894 ] final   52.20 input  -60.11 | X-H torsion
[ 7974 7965 7964 7962 ] final  -14.56 input  175.53 | X-H torsion
[ 8008 7997 7996 7995 ] final   86.00 input   59.86 | X-H torsion
[ 10167 10162 10161 10158 ] final   28.42 input  -65.29 | X-H torsion
[ 10718 10713 10712 10709 ] final  -48.61 input   66.30 | X-H torsion
[ 10763 10752 10751 10750 ] final   64.89 input  -60.55 | X-H torsion
[ 11005 11000 10999 10996 ] final  166.54 input  -57.11 | X-H torsion

> <Gold.Protein.ActiveResidues>
 VAL166  LYS551  ARG553  GLY616  TRP617  ASP618  TYR619  PRO620  LYS621  CYS622 
 ASP623  PHE694  ASN695  SER759  ASP760  ASP761  ALA762  ILE779  LEU786  VAL792 
 PHE793  MET794  SER795  GLU796  ALA797  LYS798  CYS799  TRP800  GLU811  SER814 

> <Gold.Protein.RotatedAtoms>
  152.3208  134.7382  160.0313 H   0  0  0  0  0  0  0  0  0  0  0  0  # atno 6907 bound_to 6896
  151.7832  133.3346  159.3485 H   0  0  0  0  0  0  0  0  0  0  0  0  # atno 6908 bound_to 6896
  150.7369  134.5843  159.5999 H   0  0  0  0  0  0  0  0  0  0  0  0  # atno 6909 bound_to 6896
  146.2069  140.3367  142.8404 H   0  0  0  0  0  0  0  0  0  0  0  0  # atno 7974 bound_to 7965
  155.9572  140.3396  155.6459 H   0  0  0  0  0  0  0  0  0  0  0  0  # atno 8008 bound_to 7997
  155.6845  140.0741  157.2490 H   0  0  0  0  0  0  0  0  0  0  0  0  # atno 8009 bound_to 7997
  154.4135  140.1668  156.2006 H   0  0  0  0  0  0  0  0  0  0  0  0  # atno 8010 bound_to 7997
  140.4854  144.0550  150.6279 H   0  0  0  0  0  0  0  0  0  0  0  0  # atno 10167 bound_to 10162
  156.1971  130.4155  149.9291 H   0  0  0  0  0  0  0  0  0  0  0  0  # atno 10718 bound_to 10713
  153.0074  135.5376  154.6582 H   0  0  0  0  0  0  0  0  0  0  0  0  # atno 10763 bound_to 10752
  154.5797  135.2849  155.0747 H   0  0  0  0  0  0  0  0  0  0  0  0  # atno 10764 bound_to 10752
  154.1881  135.6505  153.5105 H   0  0  0  0  0  0  0  0  0  0  0  0  # atno 10765 bound_to 10752
  140.2675  134.7853  157.3645 H   0  0  0  0  0  0  0  0  0  0  0  0  # atno 11005 bound_to 11000
  144.8814  140.7406  143.5984 LP  0  0  0  0  0  0  0  0  0  0  0  0  # atno 17320 bound_to 7965
  145.3287  139.1766  143.4548 LP  0  0  0  0  0  0  0  0  0  0  0  0  # atno 17321 bound_to 7965
  140.3804  143.2806  152.0177 LP  0  0  0  0  0  0  0  0  0  0  0  0  # atno 17342 bound_to 10162
  139.4841  144.6159  151.7347 LP  0  0  0  0  0  0  0  0  0  0  0  0  # atno 17343 bound_to 10162
  156.7013  130.8934  151.3599 LP  0  0  0  0  0  0  0  0  0  0  0  0  # atno 17370 bound_to 10713
  157.6964  130.9286  150.0657 LP  0  0  0  0  0  0  0  0  0  0  0  0  # atno 17371 bound_to 10713
  140.1405  134.4978  155.8035 LP  0  0  0  0  0  0  0  0  0  0  0  0  # atno 17394 bound_to 11000
  141.2182  133.6823  156.7201 LP  0  0  0  0  0  0  0  0  0  0  0  0  # atno 17395 bound_to 11000

$$$$
