AV-unprocessed.smi:1703|AV-procd|sdf|6879|dock5
  -GOLD-   22720 8 83D 1   1.00000     0.00000
 Structure written by MMmdl.
 50 52  0  0  0  0  0  0  0  0  3 V2000
  144.1432  142.6233  159.8769 C   0  0  0  0  0  0  0  0  0  0  0  0
  143.7087  142.8602  158.4266 C   0  0  2  0  0  0  0  0  0  0  0  0
  144.9088  142.9139  157.4620 C   0  0  0  0  0  0  0  0  0  0  0  0
  144.4537  143.2204  156.0832 N   0  3  2  0  0  0  0  0  0  0  0  0
  145.5502  143.2449  155.0806 C   0  0  0  0  0  0  0  0  0  0  0  0
  146.3376  141.9205  155.0088 C   0  0  1  0  0  0  0  0  0  0  0  0
  145.4550  140.8714  154.6588 O   0  0  0  0  0  0  0  0  0  0  0  0
  147.4687  141.9934  153.9630 C   0  0  0  0  0  0  0  0  0  0  0  0
  148.1744  140.7132  153.7885 N   0  0  0  0  0  0  0  0  0  0  0  0
  147.8694  139.6210  153.0268 C   0  0  0  0  0  0  0  0  0  0  0  0
  146.6814  139.4379  152.1407 C   0  0  0  0  0  0  0  0  0  0  0  0
  146.8239  138.3346  151.2747 O   0  0  0  0  0  0  0  0  0  0  0  0
  148.8536  138.7002  153.2303 N   0  3  0  0  0  0  0  0  0  0  0  0
  149.7989  139.2062  154.1226 C   0  0  0  0  0  0  0  0  0  0  0  0
  150.9665  138.6448  154.6299 C   0  0  0  0  0  0  0  0  0  0  0  0
  151.7114  139.4372  155.5280 C   0  0  0  0  0  0  0  0  0  0  0  0
  151.2876  140.7325  155.8901 C   0  0  0  0  0  0  0  0  0  0  0  0
  150.1008  141.2903  155.3706 C   0  0  0  0  0  0  0  0  0  0  0  0
  149.3706  140.5001  154.4832 C   0  0  0  0  0  0  0  0  0  0  0  0
  143.6549  144.4687  156.0727 C   0  0  0  0  0  0  0  0  0  0  0  0
  142.4883  144.3740  157.0741 C   0  0  2  0  0  0  0  0  0  0  0  0
  141.6835  145.6759  157.1485 C   0  0  0  0  0  0  0  0  0  0  0  0
  143.0103  144.0991  158.3693 O   0  0  0  0  0  0  0  0  0  0  0  0
  144.6701  141.6744  159.9794 H   0  0  0  0  0  0  0  0  0  0  0  0
  143.2803  142.5972  160.5429 H   0  0  0  0  0  0  0  0  0  0  0  0
  144.8077  143.4148  160.2248 H   0  0  0  0  0  0  0  0  0  0  0  0
  143.0345  142.0542  158.1311 H   0  0  0  0  0  0  0  0  0  0  0  0
  145.6187  143.6760  157.7884 H   0  0  0  0  0  0  0  0  0  0  0  0
  145.4319  141.9589  157.4888 H   0  0  0  0  0  0  0  0  0  0  0  0
  145.1367  143.4546  154.0928 H   0  0  0  0  0  0  0  0  0  0  0  0
  146.2214  144.0742  155.3096 H   0  0  0  0  0  0  0  0  0  0  0  0
  146.7760  141.6844  155.9772 H   0  0  0  0  0  0  0  0  0  0  0  0
  145.0754  141.0582  153.8138 H   0  0  0  0  0  0  0  0  0  0  0  0
  147.0715  142.2962  152.9940 H   0  0  0  0  0  0  0  0  0  0  0  0
  148.2031  142.7518  154.2378 H   0  0  0  0  0  0  0  0  0  0  0  0
  145.7826  139.3122  152.7439 H   0  0  0  0  0  0  0  0  0  0  0  0
  146.5374  140.3374  151.5417 H   0  0  0  0  0  0  0  0  0  0  0  0
  147.6298  137.8885  151.4885 H   0  0  0  0  0  0  0  0  0  0  0  0
  151.2934  137.6529  154.3538 H   0  0  0  0  0  0  0  0  0  0  0  0
  152.6265  139.0439  155.9467 H   0  0  0  0  0  0  0  0  0  0  0  0
  151.8853  141.3099  156.5805 H   0  0  0  0  0  0  0  0  0  0  0  0
  149.7855  142.2833  155.6550 H   0  0  0  0  0  0  0  0  0  0  0  0
  144.2987  145.3146  156.3199 H   0  0  0  0  0  0  0  0  0  0  0  0
  143.2626  144.6455  155.0704 H   0  0  0  0  0  0  0  0  0  0  0  0
  141.8150  143.5669  156.7794 H   0  0  0  0  0  0  0  0  0  0  0  0
  141.2542  145.9285  156.1785 H   0  0  0  0  0  0  0  0  0  0  0  0
  142.3095  146.5109  157.4653 H   0  0  0  0  0  0  0  0  0  0  0  0
  140.8630  145.5864  157.8608 H   0  0  0  0  0  0  0  0  0  0  0  0
  143.8230  142.4822  155.8052 H   0  0  0  0  0  0  0  0  0  0  0  0
  148.8726  137.7898  152.7890 H   0  0  0  0  0  0  0  0  0  0  0  0
  1  2  1  0  0  0  0
  1 24  1  0  0  0  0
  1 25  1  0  0  0  0
  1 26  1  0  0  0  0
  2 23  1  0  0  0  0
  2  3  1  0  0  0  0
  2 27  1  0  0  0  0
  3  4  1  0  0  0  0
  3 28  1  0  0  0  0
  3 29  1  0  0  0  0
  4  5  1  0  0  0  0
  4 20  1  0  0  0  0
  4 49  1  0  0  0  0
  5  6  1  0  0  0  0
  5 30  1  0  0  0  0
  5 31  1  0  0  0  0
  6  7  1  0  0  0  0
  6  8  1  0  0  0  0
  6 32  1  0  0  0  0
  7 33  1  0  0  0  0
  8  9  1  0  0  0  0
  8 34  1  0  0  0  0
  8 35  1  0  0  0  0
  9 19  1  0  0  0  0
  9 10  1  0  0  0  0
 10 11  1  0  0  0  0
 10 13  2  0  0  0  0
 11 12  1  0  0  0  0
 11 36  1  0  0  0  0
 11 37  1  0  0  0  0
 12 38  1  0  0  0  0
 13 14  1  0  0  0  0
 13 50  1  0  0  0  0
 14 19  2  0  0  0  0
 14 15  1  0  0  0  0
 15 16  2  0  0  0  0
 15 39  1  0  0  0  0
 16 17  1  0  0  0  0
 16 40  1  0  0  0  0
 17 18  2  0  0  0  0
 17 41  1  0  0  0  0
 18 19  1  0  0  0  0
 18 42  1  0  0  0  0
 20 21  1  0  0  0  0
 20 43  1  0  0  0  0
 20 44  1  0  0  0  0
 21 22  1  0  0  0  0
 21 23  1  0  0  0  0
 21 45  1  0  0  0  0
 22 46  1  0  0  0  0
 22 47  1  0  0  0  0
 22 48  1  0  0  0  0
M  CHG  1   4   1
M  CHG  1  13   1
M  END
> <s_m_source_file>
AV-unprocessed.smi

> <i_m_source_file_index>
1703

> <i_lp_mmshare_version>
43012

> <i_f3d_flags>
0

> <s_epik_input>
W0NIM11bQ0BASF0xW0NIMl1OKFtDSDJdW0NASF0oTzEpW0NIM10pW0NIMl1bQ0BIXShbT0hdKVtDSDJdbihjKG4yKVtDSDJdW09IXSljKGMyMylbY0hdW2NIXVtjSF1bY0hdMw==

> <s_epik_cmdline>
J2VwaWtfcHl0aG9uJywgJy1waCcsICc3LjAnLCAnLXRuJywgJzgnLCAnLW1hJywgJzIwMCcsICctbWV0YWxfYmluZGluZycsICctaW1hZScsICc8aW5maWxlLm1hZT4nLCAnLW9tYWUnLCAnPG91dGZpbGUubWFlPic=

> <r_epik_Ionization_Penalty>
2.22579

> <r_epik_Ionization_Penalty_Charging>
2.22492

> <r_epik_Ionization_Penalty_Neutral>
0.000870007

> <r_epik_State_Penalty>
2.3141

> <r_epik_Charging_Adjusted_Penalty>
4.53902

> <i_epik_Tot_Q>
2

> <i_epik_Tot_abs_Q>
2

> <r_epik_Metal_State_Penalty>
6.36517

> <b_epik_Metal_Only>
0

> <s_lp_Force_Field>
OPLS_2005

> <r_lp_Energy>
26.5271

> <b_lp_Chiralities_Consistent>
1

> <s_lp_Variant>
AV-unprocessed.smi:1703-27

> <Gold.Version>
5.8.1

> <Gold.Id.Protein>
6NUR|6NUR_protein|mol2

> <Gold.PLP.Fitness>
50.6596

> <Gold.PLP.PLP>
-39.8884

> <Gold.PLP.part.hbond>
-5.7043

> <Gold.PLP.part.metal>
0.0000

> <Gold.PLP.part.buried>
1.3108

> <Gold.PLP.part.nonpolar>
-35.6195

> <Gold.PLP.part.repulsive>
0.0772

> <Gold.PLP.ligand.clash>
0.0000

> <Gold.PLP.ligand.torsion>
0.5148

> <Gold.PLP.Chemscore.Hbond>
3.9280

> <Gold.PLP.Chemscore.CHOScore>
0.0000

> <Gold.PLP.Chemscore.Metal>
0.0000

> <Gold.Chemscore.Hbonds>
donor molecule, donor type, donor heavy atom, donor atom, acceptor molecule, acceptor atom, score
      L1  H     7    33       P1 10175  0.90
      L1  H    12    38       P1  7948  0.80
      L1  H    13    50       P1  7948  2.00

> <Gold.PLP.Chemscore.Internal.Correction>
0.0169

> <Gold.Rescore>
     Score         DG    S(hbond)    S(metal)    S(lipo)     H(rot)  DE(clash)    DE(int)     intcor
     14.65     -15.91       2.63        0.00      80.48       3.04       0.78       0.48       ----

> <Gold.Chemscore.Fitness>
14.6504

> <Gold.Chemscore.DG>
-15.9144

> <Gold.Chemscore.ZeroCoef>
-5.4800

> <Gold.Chemscore.Hbond>
2.6333

> <Gold.Chemscore.Metal>
0.0000

> <Gold.Chemscore.Lipo>
80.4762

> <Gold.Chemscore.Internal_Hbond>
0.0000

> <Gold.Chemscore.DEClash>
0.7838

> <Gold.Chemscore.DEInternal>
0.4801

> <Gold.Chemscore.Rot>
3.0378

> <Gold.Chemscore.Internal.Correction>
   9.000000E+99

> <Gold.Chemscore.Hbonds>
donor molecule, donor type, donor heavy atom, donor atom, acceptor molecule, acceptor atom, score
      L1  H     7    33       P1 10175  0.63
      L1  H    12    38       P1  7948  0.78
      L1  H    13    50       P1  7948  1.00

> <Gold.Chemscore.Hbond.Weighted>
-8.7953

> <Gold.Chemscore.Metal.Weighted>
-0.0000

> <Gold.Chemscore.Lipo.Weighted>
-9.4157

> <Gold.Chemscore.Internal_Hbond.Weighted>
0.0000

> <Gold.Chemscore.DEClash.Weighted>
0.7838

> <Gold.Chemscore.DEInternal.Weighted>
0.4801

> <Gold.Chemscore.Rot.Weighted>
7.7767

> <Gold.Chemscore.Internal.Correction.Weighted>
   9.000000E+99

> <Gold.Protein.RotatedTorsions>
[ 6907 6896 6895 6894 ] final  -53.97 input  -60.11 | X-H torsion
[ 7974 7965 7964 7962 ] final  123.37 input  175.53 | X-H torsion
[ 8008 7997 7996 7995 ] final -165.00 input   59.86 | X-H torsion
[ 10167 10162 10161 10158 ] final  130.72 input  -65.29 | X-H torsion
[ 10718 10713 10712 10709 ] final -162.95 input   66.30 | X-H torsion
[ 10763 10752 10751 10750 ] final  118.07 input  -60.55 | X-H torsion
[ 11005 11000 10999 10996 ] final  -37.89 input  -57.11 | X-H torsion

> <Gold.Protein.ActiveResidues>
 VAL166  LYS551  ARG553  GLY616  TRP617  ASP618  TYR619  PRO620  LYS621  CYS622 
 ASP623  PHE694  ASN695  SER759  ASP760  ASP761  ALA762  ILE779  LEU786  VAL792 
 PHE793  MET794  SER795  GLU796  ALA797  LYS798  CYS799  TRP800  GLU811  SER814 

> <Gold.Protein.RotatedAtoms>
  150.8379  134.7660  159.6907 H   0  0  0  0  0  0  0  0  0  0  0  0  # atno 6907 bound_to 6896
  152.4472  134.5466  159.9864 H   0  0  0  0  0  0  0  0  0  0  0  0  # atno 6908 bound_to 6896
  151.5612  133.3365  159.3007 H   0  0  0  0  0  0  0  0  0  0  0  0  # atno 6909 bound_to 6896
  145.0967  139.3548  143.4833 H   0  0  0  0  0  0  0  0  0  0  0  0  # atno 7974 bound_to 7965
  155.8436  140.0952  157.1719 H   0  0  0  0  0  0  0  0  0  0  0  0  # atno 8008 bound_to 7997
  154.3982  140.1396  156.3820 H   0  0  0  0  0  0  0  0  0  0  0  0  # atno 8009 bound_to 7997
  155.8038  140.3452  155.5420 H   0  0  0  0  0  0  0  0  0  0  0  0  # atno 8010 bound_to 7997
  139.5417  144.6736  151.4604 H   0  0  0  0  0  0  0  0  0  0  0  0  # atno 10167 bound_to 10162
  156.6177  130.8877  151.2951 H   0  0  0  0  0  0  0  0  0  0  0  0  # atno 10718 bound_to 10713
  153.5620  135.3519  155.2803 H   0  0  0  0  0  0  0  0  0  0  0  0  # atno 10763 bound_to 10752
  154.8693  135.4139  154.2820 H   0  0  0  0  0  0  0  0  0  0  0  0  # atno 10764 bound_to 10752
  153.3568  135.7058  153.6814 H   0  0  0  0  0  0  0  0  0  0  0  0  # atno 10765 bound_to 10752
  140.9986  133.6967  156.1980 H   0  0  0  0  0  0  0  0  0  0  0  0  # atno 11005 bound_to 11000
  146.3530  140.0826  142.8617 LP  0  0  0  0  0  0  0  0  0  0  0  0  # atno 17320 bound_to 7965
  145.1003  140.9341  143.4717 LP  0  0  0  0  0  0  0  0  0  0  0  0  # atno 17321 bound_to 7965
  140.6649  143.8419  150.6930 LP  0  0  0  0  0  0  0  0  0  0  0  0  # atno 17342 bound_to 10162
  140.1825  143.4103  152.1922 LP  0  0  0  0  0  0  0  0  0  0  0  0  # atno 17343 bound_to 10162
  157.7236  130.9592  150.1542 LP  0  0  0  0  0  0  0  0  0  0  0  0  # atno 17370 bound_to 10713
  156.2337  130.3684  149.8415 LP  0  0  0  0  0  0  0  0  0  0  0  0  # atno 17371 bound_to 10713
  140.6926  134.4650  157.5588 LP  0  0  0  0  0  0  0  0  0  0  0  0  # atno 17394 bound_to 11000
  139.9027  134.8519  156.1829 LP  0  0  0  0  0  0  0  0  0  0  0  0  # atno 17395 bound_to 11000

$$$$
