AV-unprocessed.smi:2229|AV-procd|sdf|9033|dock8
  -GOLD-   2272012243D 1   1.00000     0.00000
 Structure written by MMmdl.
 43 44  0  0  0  0  0  0  0  0  2 V2000
  153.1690  143.0957  160.1147 C   0  0  0  0  0  0  0  0  0  0  0  0
  152.5711  141.7422  159.6949 C   0  0  0  0  0  0  0  0  0  0  0  0
  153.6425  140.6426  159.7585 C   0  0  0  0  0  0  0  0  0  0  0  0
  151.9218  141.7898  158.2963 C   0  0  0  0  0  0  0  0  0  0  0  0
  151.2895  140.4584  157.8519 C   0  0  0  0  0  0  0  0  0  0  0  0
  150.8734  140.4459  156.3648 C   0  0  2  0  0  0  0  0  0  0  0  0
  149.5680  141.1868  156.0632 C   0  0  0  0  0  0  0  0  0  0  0  0
  149.1891  140.7129  154.6621 C   0  0  0  0  0  0  0  0  0  0  0  0
  149.6516  139.2531  154.5879 C   0  0  0  0  0  0  0  0  0  0  0  0
  150.6743  139.0523  155.7272 C   0  0  2  0  0  0  0  0  0  0  0  0
  150.1878  138.0701  156.6953 N   0  0  0  0  0  0  0  0  0  0  0  0
  150.0463  136.7564  156.4669 C   0  0  0  0  0  0  0  0  0  0  0  0
  150.3337  136.2230  155.3947 O   0  0  0  0  0  0  0  0  0  0  0  0
  149.5242  135.9266  157.6469 C   0  0  0  0  0  0  0  0  0  0  0  0
  148.4647  134.9873  157.2716 N   0  0  0  0  0  0  0  0  0  0  0  0
  147.9001  134.9571  156.0213 C   0  0  0  0  0  0  0  0  0  0  0  0
  147.0112  134.0327  155.9452 N   0  0  0  0  0  0  0  0  0  0  0  0
  146.9753  133.3985  157.2282 N   0  5  0  0  0  0  0  0  0  0  0  0
  147.8898  134.0282  157.9990 C   0  0  0  0  0  0  0  0  0  0  0  0
  148.1894  133.7998  159.1705 O   0  0  0  0  0  0  0  0  0  0  0  0
  153.9286  143.4296  159.4071 H   0  0  0  0  0  0  0  0  0  0  0  0
  153.6387  143.0278  161.0964 H   0  0  0  0  0  0  0  0  0  0  0  0
  152.4071  143.8720  160.1794 H   0  0  0  0  0  0  0  0  0  0  0  0
  151.7975  141.4800  160.4178 H   0  0  0  0  0  0  0  0  0  0  0  0
  154.4556  140.8403  159.0591 H   0  0  0  0  0  0  0  0  0  0  0  0
  153.2223  139.6671  159.5128 H   0  0  0  0  0  0  0  0  0  0  0  0
  154.0739  140.5701  160.7573 H   0  0  0  0  0  0  0  0  0  0  0  0
  151.1742  142.5835  158.2686 H   0  0  0  0  0  0  0  0  0  0  0  0
  152.6832  142.0674  157.5665 H   0  0  0  0  0  0  0  0  0  0  0  0
  152.0068  139.6545  158.0218 H   0  0  0  0  0  0  0  0  0  0  0  0
  150.4240  140.2376  158.4763 H   0  0  0  0  0  0  0  0  0  0  0  0
  151.6620  140.9391  155.7938 H   0  0  0  0  0  0  0  0  0  0  0  0
  148.7953  140.8917  156.7743 H   0  0  0  0  0  0  0  0  0  0  0  0
  149.6757  142.2705  156.1157 H   0  0  0  0  0  0  0  0  0  0  0  0
  148.1234  140.8239  154.4595 H   0  0  0  0  0  0  0  0  0  0  0  0
  149.7282  141.3042  153.9208 H   0  0  0  0  0  0  0  0  0  0  0  0
  148.7961  138.5847  154.6991 H   0  0  0  0  0  0  0  0  0  0  0  0
  150.0950  139.0375  153.6153 H   0  0  0  0  0  0  0  0  0  0  0  0
  151.6293  138.7083  155.3251 H   0  0  0  0  0  0  0  0  0  0  0  0
  149.9305  138.4202  157.6065 H   0  0  0  0  0  0  0  0  0  0  0  0
  150.3656  135.3979  158.0973 H   0  0  0  0  0  0  0  0  0  0  0  0
  149.1367  136.5953  158.4174 H   0  0  0  0  0  0  0  0  0  0  0  0
  148.2242  135.6618  155.2537 H   0  0  0  0  0  0  0  0  0  0  0  0
  1  2  1  0  0  0  0
  1 21  1  0  0  0  0
  1 22  1  0  0  0  0
  1 23  1  0  0  0  0
  2  3  1  0  0  0  0
  2  4  1  0  0  0  0
  2 24  1  0  0  0  0
  3 25  1  0  0  0  0
  3 26  1  0  0  0  0
  3 27  1  0  0  0  0
  4  5  1  0  0  0  0
  4 28  1  0  0  0  0
  4 29  1  0  0  0  0
  5  6  1  0  0  0  0
  5 30  1  0  0  0  0
  5 31  1  0  0  0  0
  6 10  1  0  0  0  0
  6  7  1  0  0  0  0
  6 32  1  0  0  0  0
  7  8  1  0  0  0  0
  7 33  1  0  0  0  0
  7 34  1  0  0  0  0
  8  9  1  0  0  0  0
  8 35  1  0  0  0  0
  8 36  1  0  0  0  0
  9 10  1  0  0  0  0
  9 37  1  0  0  0  0
  9 38  1  0  0  0  0
 10 11  1  0  0  0  0
 10 39  1  0  0  0  0
 11 12  1  0  0  0  0
 11 40  1  0  0  0  0
 12 13  2  0  0  0  0
 12 14  1  0  0  0  0
 14 15  1  0  0  0  0
 14 41  1  0  0  0  0
 14 42  1  0  0  0  0
 15 19  1  0  0  0  0
 15 16  1  0  0  0  0
 16 17  2  0  0  0  0
 16 43  1  0  0  0  0
 17 18  1  0  0  0  0
 18 19  1  0  0  0  0
 19 20  2  0  0  0  0
M  CHG  1  18  -1
M  END
> <s_m_source_file>
AV-unprocessed.smi

> <i_m_source_file_index>
2229

> <i_lp_mmshare_version>
43012

> <i_f3d_flags>
0

> <s_epik_input>
W0NIM11bQ0hdKFtDSDNdKVtDSDJdW0NIMl1bQ0BASF0xW0NIMl1bQ0gyXVtDSDJdW0NASF0xW05IXUMoPU8pW0NIMl1uMltjSF1uW25IXWMyPU8=

> <s_epik_cmdline>
J2VwaWtfcHl0aG9uJywgJy1waCcsICc3LjAnLCAnLXRuJywgJzgnLCAnLW1hJywgJzIwMCcsICctbWV0YWxfYmluZGluZycsICctaW1hZScsICc8aW5maWxlLm1hZT4nLCAnLW9tYWUnLCAnPG91dGZpbGUubWFlPic=

> <r_lp_tautomer_probability>
1

> <r_epik_Ionization_Penalty>
13.6733

> <r_epik_Ionization_Penalty_Charging>
13.6725

> <r_epik_Ionization_Penalty_Neutral>
0.000837689

> <r_epik_State_Penalty>
5.67062

> <r_epik_Charging_Adjusted_Penalty>
19.3431

> <i_epik_Tot_Q>
-1

> <i_epik_Tot_abs_Q>
1

> <r_epik_Metal_State_Penalty>
1.61781

> <b_epik_Metal_Only>
1

> <s_lp_Force_Field>
OPLS_2005

> <r_lp_Energy>
26.4382

> <b_lp_Chiralities_Consistent>
1

> <s_lp_Variant>
AV-unprocessed.smi:2229-7

> <Gold.Version>
5.8.1

> <Gold.Id.Protein>
6NUR|6NUR_protein|mol2

> <Gold.PLP.Fitness>
44.1072

> <Gold.PLP.PLP>
-36.0585

> <Gold.PLP.part.hbond>
-2.0000

> <Gold.PLP.part.metal>
0.0000

> <Gold.PLP.part.buried>
-2.9756

> <Gold.PLP.part.nonpolar>
-31.4579

> <Gold.PLP.part.repulsive>
0.5292

> <Gold.PLP.ligand.clash>
0.0000

> <Gold.PLP.ligand.torsion>
0.4614

> <Gold.PLP.Chemscore.Hbond>
1.9920

> <Gold.PLP.Chemscore.CHOScore>
0.9814

> <Gold.PLP.Chemscore.Metal>
0.0000

> <Gold.PLP.Chemscore.Internal.Correction>
0.0511

> <Gold.Rescore>
     Score         DG    S(hbond)    S(metal)    S(lipo)     H(rot)  DE(clash)    DE(int)     intcor
     13.90     -14.80       1.82        0.00      84.46       2.59       0.40       0.50       ----

> <Gold.Chemscore.Fitness>
13.8953

> <Gold.Chemscore.DG>
-14.7979

> <Gold.Chemscore.ZeroCoef>
-5.4800

> <Gold.Chemscore.Hbond>
1.8193

> <Gold.Chemscore.Metal>
0.0000

> <Gold.Chemscore.Lipo>
84.4606

> <Gold.Chemscore.Internal_Hbond>
0.0000

> <Gold.Chemscore.DEClash>
0.4021

> <Gold.Chemscore.DEInternal>
0.5005

> <Gold.Chemscore.Rot>
2.5939

> <Gold.Chemscore.Internal.Correction>
   9.000000E+99

> <Gold.Chemscore.Hbond.Weighted>
-6.0765

> <Gold.Chemscore.Metal.Weighted>
-0.0000

> <Gold.Chemscore.Lipo.Weighted>
-9.8819

> <Gold.Chemscore.Internal_Hbond.Weighted>
0.0000

> <Gold.Chemscore.DEClash.Weighted>
0.4021

> <Gold.Chemscore.DEInternal.Weighted>
0.5005

> <Gold.Chemscore.Rot.Weighted>
6.6405

> <Gold.Chemscore.Internal.Correction.Weighted>
   9.000000E+99

> <Gold.Protein.RotatedTorsions>
[ 6907 6896 6895 6894 ] final -146.95 input  -60.11 | X-H torsion
[ 7974 7965 7964 7962 ] final -129.03 input  175.53 | X-H torsion
[ 8008 7997 7996 7995 ] final  103.82 input   59.86 | X-H torsion
[ 10167 10162 10161 10158 ] final  127.16 input  -65.29 | X-H torsion
[ 10718 10713 10712 10709 ] final   86.74 input   66.30 | X-H torsion
[ 10763 10752 10751 10750 ] final  -93.01 input  -60.55 | X-H torsion
[ 11005 11000 10999 10996 ] final   43.51 input  -57.11 | X-H torsion

> <Gold.Protein.ActiveResidues>
 VAL166  LYS551  ARG553  GLY616  TRP617  ASP618  TYR619  PRO620  LYS621  CYS622 
 ASP623  PHE694  ASN695  SER759  ASP760  ASP761  ALA762  ILE779  LEU786  VAL792 
 PHE793  MET794  SER795  GLU796  ALA797  LYS798  CYS799  TRP800  GLU811  SER814 

> <Gold.Protein.RotatedAtoms>
  151.1489  133.4921  159.2595 H   0  0  0  0  0  0  0  0  0  0  0  0  # atno 6907 bound_to 6896
  151.1575  135.0257  159.8706 H   0  0  0  0  0  0  0  0  0  0  0  0  # atno 6908 bound_to 6896
  152.5463  134.1366  159.8514 H   0  0  0  0  0  0  0  0  0  0  0  0  # atno 6909 bound_to 6896
  144.9612  140.7448  143.4728 H   0  0  0  0  0  0  0  0  0  0  0  0  # atno 7974 bound_to 7965
  156.1518  140.3158  155.8661 H   0  0  0  0  0  0  0  0  0  0  0  0  # atno 8008 bound_to 7997
  155.3956  140.0496  157.3056 H   0  0  0  0  0  0  0  0  0  0  0  0  # atno 8009 bound_to 7997
  154.5065  140.2149  155.9251 H   0  0  0  0  0  0  0  0  0  0  0  0  # atno 8010 bound_to 7997
  139.5593  144.6871  151.4090 H   0  0  0  0  0  0  0  0  0  0  0  0  # atno 10167 bound_to 10162
  157.6932  131.0227  150.3018 H   0  0  0  0  0  0  0  0  0  0  0  0  # atno 10718 bound_to 10713
  154.6917  135.5210  153.8402 H   0  0  0  0  0  0  0  0  0  0  0  0  # atno 10763 bound_to 10752
  153.0637  135.6577  154.0413 H   0  0  0  0  0  0  0  0  0  0  0  0  # atno 10764 bound_to 10752
  154.0286  135.2987  155.3351 H   0  0  0  0  0  0  0  0  0  0  0  0  # atno 10765 bound_to 10752
  140.1639  134.4307  155.8300 H   0  0  0  0  0  0  0  0  0  0  0  0  # atno 11005 bound_to 11000
  145.2698  139.1959  143.4848 LP  0  0  0  0  0  0  0  0  0  0  0  0  # atno 17320 bound_to 7965
  146.3353  140.2642  142.8603 LP  0  0  0  0  0  0  0  0  0  0  0  0  # atno 17321 bound_to 7965
  140.6871  143.7949  150.7201 LP  0  0  0  0  0  0  0  0  0  0  0  0  # atno 17342 bound_to 10162
  140.1420  143.4432  152.2187 LP  0  0  0  0  0  0  0  0  0  0  0  0  # atno 17343 bound_to 10162
  156.3533  130.3834  149.7311 LP  0  0  0  0  0  0  0  0  0  0  0  0  # atno 17370 bound_to 10713
  156.4782  130.8028  151.3044 LP  0  0  0  0  0  0  0  0  0  0  0  0  # atno 17371 bound_to 10713
  141.2212  133.6925  156.7642 LP  0  0  0  0  0  0  0  0  0  0  0  0  # atno 17394 bound_to 11000
  140.2457  134.8579  157.3618 LP  0  0  0  0  0  0  0  0  0  0  0  0  # atno 17395 bound_to 11000

$$$$
