AV-unprocessed.smi:812|AV-procd|sdf|3816|dock7
  -GOLD-   22720 1253D 1   1.00000     0.00000
 Structure written by MMmdl.
 38 40  0  0  0  0  0  0  0  0  1 V2000
  154.6418  139.8835  161.1475 C   0  0  0  0  0  0  0  0  0  0  0  0
  153.6971  140.8496  160.5562 N   0  0  0  0  0  0  0  0  0  0  0  0
  153.2645  140.6336  159.2741 C   0  0  0  0  0  0  0  0  0  0  0  0
  153.6067  139.6844  158.5678 O   0  0  0  0  0  0  0  0  0  0  0  0
  152.3310  141.6535  158.7818 C   0  0  0  0  0  0  0  0  0  0  0  0
  151.9368  142.7147  159.5281 C   0  0  0  0  0  0  0  0  0  0  0  0
  151.0584  143.5293  158.8217 N   0  0  0  0  0  0  0  0  0  0  0  0
  150.9691  142.8964  157.6516 C   0  0  0  0  0  0  0  0  0  0  0  0
  151.6988  141.7679  157.5435 N   0  0  0  0  0  0  0  0  0  0  0  0
  151.7739  140.9073  156.3718 C   0  0  0  0  0  0  0  0  0  0  0  0
  150.3935  140.3789  155.9303 C   0  0  1  0  0  0  0  0  0  0  0  0
  150.4344  139.9524  154.5821 O   0  0  0  0  0  0  0  0  0  0  0  0
  149.9005  139.2804  156.8586 C   0  0  0  0  0  0  0  0  0  0  0  0
  148.5939  138.7618  156.7218 C   0  0  0  0  0  0  0  0  0  0  0  0
  148.1410  137.7423  157.5814 C   0  0  0  0  0  0  0  0  0  0  0  0
  148.9923  137.2338  158.5811 C   0  0  0  0  0  0  0  0  0  0  0  0
  148.5571  136.2533  159.4071 F   0  0  0  0  0  0  0  0  0  0  0  0
  150.2971  137.7448  158.7198 C   0  0  0  0  0  0  0  0  0  0  0  0
  150.7507  138.7645  157.8603 C   0  0  0  0  0  0  0  0  0  0  0  0
  152.4483  142.8426  160.8454 N   0  0  0  0  0  0  0  0  0  0  0  0
  152.0347  143.9855  161.6641 C   0  0  0  0  0  0  0  0  0  0  0  0
  153.3256  141.9180  161.3541 C   0  0  0  0  0  0  0  0  0  0  0  0
  153.7702  142.0453  162.4988 O   0  0  0  0  0  0  0  0  0  0  0  0
  154.8704  139.0218  160.5198 H   0  0  0  0  0  0  0  0  0  0  0  0
  154.2469  139.4831  162.0829 H   0  0  0  0  0  0  0  0  0  0  0  0
  155.5923  140.3721  161.3672 H   0  0  0  0  0  0  0  0  0  0  0  0
  150.3545  143.2675  156.8446 H   0  0  0  0  0  0  0  0  0  0  0  0
  152.2701  141.4400  155.5618 H   0  0  0  0  0  0  0  0  0  0  0  0
  152.4253  140.0667  156.6148 H   0  0  0  0  0  0  0  0  0  0  0  0
  149.6808  141.2040  155.9687 H   0  0  0  0  0  0  0  0  0  0  0  0
  150.3026  139.0169  154.5594 H   0  0  0  0  0  0  0  0  0  0  0  0
  147.9353  139.1445  155.9556 H   0  0  0  0  0  0  0  0  0  0  0  0
  147.1406  137.3502  157.4728 H   0  0  0  0  0  0  0  0  0  0  0  0
  150.9509  137.3543  159.4858 H   0  0  0  0  0  0  0  0  0  0  0  0
  151.7540  139.1480  157.9745 H   0  0  0  0  0  0  0  0  0  0  0  0
  151.5593  143.6462  162.5856 H   0  0  0  0  0  0  0  0  0  0  0  0
  151.3239  144.6355  161.1548 H   0  0  0  0  0  0  0  0  0  0  0  0
  152.8985  144.5957  161.9311 H   0  0  0  0  0  0  0  0  0  0  0  0
  1  2  1  0  0  0  0
  1 24  1  0  0  0  0
  1 25  1  0  0  0  0
  1 26  1  0  0  0  0
  2 22  1  0  0  0  0
  2  3  1  0  0  0  0
  3  4  2  0  0  0  0
  3  5  1  0  0  0  0
  5  9  1  0  0  0  0
  5  6  2  0  0  0  0
  6  7  1  0  0  0  0
  6 20  1  0  0  0  0
  7  8  2  0  0  0  0
  8  9  1  0  0  0  0
  8 27  1  0  0  0  0
  9 10  1  0  0  0  0
 10 11  1  0  0  0  0
 10 28  1  0  0  0  0
 10 29  1  0  0  0  0
 11 12  1  0  0  0  0
 11 13  1  0  0  0  0
 11 30  1  0  0  0  0
 12 31  1  0  0  0  0
 13 19  1  0  0  0  0
 13 14  2  0  0  0  0
 14 15  1  0  0  0  0
 14 32  1  0  0  0  0
 15 16  2  0  0  0  0
 15 33  1  0  0  0  0
 16 17  1  0  0  0  0
 16 18  1  0  0  0  0
 18 19  2  0  0  0  0
 18 34  1  0  0  0  0
 19 35  1  0  0  0  0
 20 21  1  0  0  0  0
 20 22  1  0  0  0  0
 21 36  1  0  0  0  0
 21 37  1  0  0  0  0
 21 38  1  0  0  0  0
 22 23  2  0  0  0  0
M  END
> <s_m_source_file>
AV-unprocessed.smi

> <i_m_source_file_index>
812

> <i_lp_mmshare_version>
43012

> <i_f3d_flags>
0

> <s_epik_input>
Tz1jMW4oW0NIM10pYyg9TyluKFtDSDNdKWMoYzEyKW5bY0hdbjJbQ0gyXVtDQEhdKFtPSF0pYzNbY0hdW2NIXWMoRilbY0hdW2NIXTM=

> <s_epik_cmdline>
J2VwaWtfcHl0aG9uJywgJy1waCcsICc3LjAnLCAnLXRuJywgJzgnLCAnLW1hJywgJzIwMCcsICctbWV0YWxfYmluZGluZycsICctaW1hZScsICc8aW5maWxlLm1hZT4nLCAnLW9tYWUnLCAnPG91dGZpbGUubWFlPic=

> <r_lp_tautomer_probability>
1

> <r_epik_Ionization_Penalty>
1.45649e-06

> <r_epik_Ionization_Penalty_Charging>
3.74189e-09

> <r_epik_Ionization_Penalty_Neutral>
1.45275e-06

> <r_epik_State_Penalty>
-0

> <r_epik_Charging_Adjusted_Penalty>
3.74189e-09

> <i_epik_Tot_Q>
0

> <i_epik_Tot_abs_Q>
0

> <r_epik_Metal_State_Penalty>
-0

> <b_epik_Metal_Only>
0

> <s_lp_Force_Field>
OPLS_2005

> <r_lp_Energy>
35.4349

> <b_lp_Chiralities_Consistent>
1

> <s_lp_Variant>
AV-unprocessed.smi:812-2

> <Gold.Version>
5.8.1

> <Gold.Id.Protein>
6NUR|6NUR_protein|mol2

> <Gold.PLP.Fitness>
51.7292

> <Gold.PLP.PLP>
-43.1428

> <Gold.PLP.part.hbond>
-3.0000

> <Gold.PLP.part.metal>
0.0000

> <Gold.PLP.part.buried>
-5.6068

> <Gold.PLP.part.nonpolar>
-32.8932

> <Gold.PLP.part.repulsive>
0.1094

> <Gold.PLP.ligand.clash>
0.0000

> <Gold.PLP.ligand.torsion>
0.2193

> <Gold.PLP.Chemscore.Hbond>
2.0000

> <Gold.PLP.Chemscore.CHOScore>
1.0000

> <Gold.PLP.Chemscore.Metal>
0.0000

> <Gold.Chemscore.Hbonds>
donor molecule, donor type, donor heavy atom, donor atom, acceptor molecule, acceptor atom, score
      P1  H  7989  7998       L1    12  1.00
      P1  H  7997  8008       L1     4  1.00
      L1  C     8    27       P1  8028  1.00

> <Gold.PLP.Chemscore.Internal.Correction>
0.0249

> <Gold.Rescore>
     Score         DG    S(hbond)    S(metal)    S(lipo)     H(rot)  DE(clash)    DE(int)     intcor
     11.86     -13.19       1.97        0.00      58.66       2.24       1.10       0.22       ----

> <Gold.Chemscore.Fitness>
11.8645

> <Gold.Chemscore.DG>
-13.1909

> <Gold.Chemscore.ZeroCoef>
-5.4800

> <Gold.Chemscore.Hbond>
1.9690

> <Gold.Chemscore.Metal>
0.0000

> <Gold.Chemscore.Lipo>
58.6587

> <Gold.Chemscore.Internal_Hbond>
0.0000

> <Gold.Chemscore.DEClash>
1.1049

> <Gold.Chemscore.DEInternal>
0.2215

> <Gold.Chemscore.Rot>
2.2377

> <Gold.Chemscore.Internal.Correction>
   9.000000E+99

> <Gold.Chemscore.Hbonds>
donor molecule, donor type, donor heavy atom, donor atom, acceptor molecule, acceptor atom, score
      P1  H  7989  7998       L1    12  0.92
      P1  H  7997  8008       L1     4  0.93

> <Gold.Chemscore.Hbond.Weighted>
-6.5764

> <Gold.Chemscore.Metal.Weighted>
-0.0000

> <Gold.Chemscore.Lipo.Weighted>
-6.8631

> <Gold.Chemscore.Internal_Hbond.Weighted>
0.0000

> <Gold.Chemscore.DEClash.Weighted>
1.1049

> <Gold.Chemscore.DEInternal.Weighted>
0.2215

> <Gold.Chemscore.Rot.Weighted>
5.7286

> <Gold.Chemscore.Internal.Correction.Weighted>
   9.000000E+99

> <Gold.Protein.RotatedTorsions>
[ 6907 6896 6895 6894 ] final -167.01 input  -60.11 | X-H torsion
[ 7974 7965 7964 7962 ] final  -83.50 input  175.53 | X-H torsion
[ 8008 7997 7996 7995 ] final -108.11 input   59.86 | X-H torsion
[ 10167 10162 10161 10158 ] final  142.27 input  -65.29 | X-H torsion
[ 10718 10713 10712 10709 ] final   83.57 input   66.30 | X-H torsion
[ 10763 10752 10751 10750 ] final  -11.32 input  -60.55 | X-H torsion
[ 11005 11000 10999 10996 ] final -165.36 input  -57.11 | X-H torsion

> <Gold.Protein.ActiveResidues>
 VAL166  LYS551  ARG553  GLY616  TRP617  ASP618  TYR619  PRO620  LYS621  CYS622 
 ASP623  PHE694  ASN695  SER759  ASP760  ASP761  ALA762  ILE779  LEU786  VAL792 
 PHE793  MET794  SER795  GLU796  ALA797  LYS798  CYS799  TRP800  GLU811  SER814 

> <Gold.Protein.RotatedAtoms>
  151.4528  133.3613  159.2797 H   0  0  0  0  0  0  0  0  0  0  0  0  # atno 6907 bound_to 6896
  150.9079  134.8496  159.7416 H   0  0  0  0  0  0  0  0  0  0  0  0  # atno 6908 bound_to 6896
  152.4916  134.4455  159.9609 H   0  0  0  0  0  0  0  0  0  0  0  0  # atno 6909 bound_to 6896
  145.5191  140.9533  143.1665 H   0  0  0  0  0  0  0  0  0  0  0  0  # atno 7974 bound_to 7965
  154.9394  140.0403  157.2089 H   0  0  0  0  0  0  0  0  0  0  0  0  # atno 8008 bound_to 7997
  154.8084  140.2863  155.5849 H   0  0  0  0  0  0  0  0  0  0  0  0  # atno 8009 bound_to 7997
  156.2969  140.2541  156.2967 H   0  0  0  0  0  0  0  0  0  0  0  0  # atno 8010 bound_to 7997
  139.4998  144.6118  151.6255 H   0  0  0  0  0  0  0  0  0  0  0  0  # atno 10167 bound_to 10162
  157.6881  131.0096  150.2543 H   0  0  0  0  0  0  0  0  0  0  0  0  # atno 10718 bound_to 10713
  153.4820  135.7017  153.5933 H   0  0  0  0  0  0  0  0  0  0  0  0  # atno 10763 bound_to 10752
  153.4142  135.3841  155.2070 H   0  0  0  0  0  0  0  0  0  0  0  0  # atno 10764 bound_to 10752
  154.8721  135.3912  154.4270 H   0  0  0  0  0  0  0  0  0  0  0  0  # atno 10765 bound_to 10752
  140.5765  134.5185  157.5171 H   0  0  0  0  0  0  0  0  0  0  0  0  # atno 11005 bound_to 11000
  144.7686  139.6788  143.7204 LP  0  0  0  0  0  0  0  0  0  0  0  0  # atno 17320 bound_to 7965
  146.2118  139.5479  142.9676 LP  0  0  0  0  0  0  0  0  0  0  0  0  # atno 17321 bound_to 7965
  140.5794  143.9972  150.6260 LP  0  0  0  0  0  0  0  0  0  0  0  0  # atno 17342 bound_to 10162
  140.3116  143.3194  152.0873 LP  0  0  0  0  0  0  0  0  0  0  0  0  # atno 17343 bound_to 10162
  156.3134  130.3775  149.7640 LP  0  0  0  0  0  0  0  0  0  0  0  0  # atno 17370 bound_to 10713
  156.5233  130.8225  151.3211 LP  0  0  0  0  0  0  0  0  0  0  0  0  # atno 17371 bound_to 10713
  139.9337  134.7915  156.0861 LP  0  0  0  0  0  0  0  0  0  0  0  0  # atno 17394 bound_to 11000
  141.1023  133.6672  156.2783 LP  0  0  0  0  0  0  0  0  0  0  0  0  # atno 17395 bound_to 11000

$$$$
