AV-unprocessed.smi:1703|AV-procd|sdf|6872|dock5
  -GOLD-   22720 8 73D 1   1.00000     0.00000
 Structure written by MMmdl.
 49 51  0  0  0  0  0  0  0  0  2 V2000
  153.2545  142.4752  162.4009 C   0  0  0  0  0  0  0  0  0  0  0  0
  152.9530  142.8390  160.9432 C   0  0  1  0  0  0  0  0  0  0  0  0
  153.0018  141.6104  160.0176 C   0  0  0  0  0  0  0  0  0  0  0  0
  152.6381  141.9438  158.6459 N   0  0  0  0  0  0  0  0  0  0  0  0
  152.7374  140.7669  157.7808 C   0  0  0  0  0  0  0  0  0  0  0  0
  151.9149  140.8288  156.4787 C   0  0  1  0  0  0  0  0  0  0  0  0
  152.7446  140.4240  155.4079 O   0  0  0  0  0  0  0  0  0  0  0  0
  150.6788  139.9111  156.5484 C   0  0  0  0  0  0  0  0  0  0  0  0
  150.0801  139.6541  155.2274 N   0  0  0  0  0  0  0  0  0  0  0  0
  150.4449  138.7694  154.2542 C   0  0  0  0  0  0  0  0  0  0  0  0
  151.5829  137.8029  154.2953 C   0  0  0  0  0  0  0  0  0  0  0  0
  152.5160  138.0268  153.2615 O   0  0  0  0  0  0  0  0  0  0  0  0
  149.5663  138.9183  153.2232 N   0  3  0  0  0  0  0  0  0  0  0  0
  148.6308  139.9043  153.5372 C   0  0  0  0  0  0  0  0  0  0  0  0
  147.5531  140.4005  152.8101 C   0  0  0  0  0  0  0  0  0  0  0  0
  146.7856  141.4108  153.4259 C   0  0  0  0  0  0  0  0  0  0  0  0
  147.0999  141.8878  154.7149 C   0  0  0  0  0  0  0  0  0  0  0  0
  148.1963  141.3782  155.4413 C   0  0  0  0  0  0  0  0  0  0  0  0
  148.9524  140.3808  154.8247 C   0  0  0  0  0  0  0  0  0  0  0  0
  151.3014  142.5370  158.6428 C   0  0  0  0  0  0  0  0  0  0  0  0
  151.1865  143.7540  159.5828 C   0  0  2  0  0  0  0  0  0  0  0  0
  151.8824  145.0126  159.0368 C   0  0  0  0  0  0  0  0  0  0  0  0
  151.6503  143.4172  160.8911 O   0  0  0  0  0  0  0  0  0  0  0  0
  154.2475  142.0357  162.4985 H   0  0  0  0  0  0  0  0  0  0  0  0
  152.5306  141.7566  162.7860 H   0  0  0  0  0  0  0  0  0  0  0  0
  153.2182  143.3590  163.0381 H   0  0  0  0  0  0  0  0  0  0  0  0
  153.6893  143.5728  160.6141 H   0  0  0  0  0  0  0  0  0  0  0  0
  154.0071  141.1877  160.0396 H   0  0  0  0  0  0  0  0  0  0  0  0
  152.3318  140.8383  160.3996 H   0  0  0  0  0  0  0  0  0  0  0  0
  153.7819  140.6064  157.5091 H   0  0  0  0  0  0  0  0  0  0  0  0
  152.4434  139.8835  158.3498 H   0  0  0  0  0  0  0  0  0  0  0  0
  151.5755  141.8445  156.2835 H   0  0  0  0  0  0  0  0  0  0  0  0
  152.3133  139.7176  154.9507 H   0  0  0  0  0  0  0  0  0  0  0  0
  150.9161  138.9624  157.0298 H   0  0  0  0  0  0  0  0  0  0  0  0
  149.9097  140.3738  157.1670 H   0  0  0  0  0  0  0  0  0  0  0  0
  152.0932  137.8858  155.2554 H   0  0  0  0  0  0  0  0  0  0  0  0
  151.2037  136.7835  154.2232 H   0  0  0  0  0  0  0  0  0  0  0  0
  152.0919  137.8646  152.4324 H   0  0  0  0  0  0  0  0  0  0  0  0
  147.3083  140.0340  151.8240 H   0  0  0  0  0  0  0  0  0  0  0  0
  145.9379  141.8262  152.9003 H   0  0  0  0  0  0  0  0  0  0  0  0
  146.4872  142.6598  155.1576 H   0  0  0  0  0  0  0  0  0  0  0  0
  148.4222  141.7470  156.4307 H   0  0  0  0  0  0  0  0  0  0  0  0
  151.0163  142.8455  157.6382 H   0  0  0  0  0  0  0  0  0  0  0  0
  150.5728  141.7856  158.9515 H   0  0  0  0  0  0  0  0  0  0  0  0
  150.1287  143.9967  159.6874 H   0  0  0  0  0  0  0  0  0  0  0  0
  151.4339  145.3241  158.0933 H   0  0  0  0  0  0  0  0  0  0  0  0
  152.9436  144.8473  158.8530 H   0  0  0  0  0  0  0  0  0  0  0  0
  151.7891  145.8432  159.7365 H   0  0  0  0  0  0  0  0  0  0  0  0
  149.6045  138.3784  152.3683 H   0  0  0  0  0  0  0  0  0  0  0  0
  1  2  1  0  0  0  0
  1 24  1  0  0  0  0
  1 25  1  0  0  0  0
  1 26  1  0  0  0  0
  2 23  1  0  0  0  0
  2  3  1  0  0  0  0
  2 27  1  0  0  0  0
  3  4  1  0  0  0  0
  3 28  1  0  0  0  0
  3 29  1  0  0  0  0
  4  5  1  0  0  0  0
  4 20  1  0  0  0  0
  5  6  1  0  0  0  0
  5 30  1  0  0  0  0
  5 31  1  0  0  0  0
  6  7  1  0  0  0  0
  6  8  1  0  0  0  0
  6 32  1  0  0  0  0
  7 33  1  0  0  0  0
  8  9  1  0  0  0  0
  8 34  1  0  0  0  0
  8 35  1  0  0  0  0
  9 19  1  0  0  0  0
  9 10  1  0  0  0  0
 10 11  1  0  0  0  0
 10 13  2  0  0  0  0
 11 12  1  0  0  0  0
 11 36  1  0  0  0  0
 11 37  1  0  0  0  0
 12 38  1  0  0  0  0
 13 14  1  0  0  0  0
 13 49  1  0  0  0  0
 14 19  2  0  0  0  0
 14 15  1  0  0  0  0
 15 16  2  0  0  0  0
 15 39  1  0  0  0  0
 16 17  1  0  0  0  0
 16 40  1  0  0  0  0
 17 18  2  0  0  0  0
 17 41  1  0  0  0  0
 18 19  1  0  0  0  0
 18 42  1  0  0  0  0
 20 21  1  0  0  0  0
 20 43  1  0  0  0  0
 20 44  1  0  0  0  0
 21 22  1  0  0  0  0
 21 23  1  0  0  0  0
 21 45  1  0  0  0  0
 22 46  1  0  0  0  0
 22 47  1  0  0  0  0
 22 48  1  0  0  0  0
M  CHG  1  13   1
M  END
> <s_m_source_file>
AV-unprocessed.smi

> <i_m_source_file_index>
1703

> <i_lp_mmshare_version>
43012

> <i_f3d_flags>
0

> <s_epik_input>
W0NIM11bQ0BASF0xW0NIMl1OKFtDSDJdW0NASF0oTzEpW0NIM10pW0NIMl1bQ0BIXShbT0hdKVtDSDJdbihjKG4yKVtDSDJdW09IXSljKGMyMylbY0hdW2NIXVtjSF1bY0hdMw==

> <s_epik_cmdline>
J2VwaWtfcHl0aG9uJywgJy1waCcsICc3LjAnLCAnLXRuJywgJzgnLCAnLW1hJywgJzIwMCcsICctbWV0YWxfYmluZGluZycsICctaW1hZScsICc8aW5maWxlLm1hZT4nLCAnLW9tYWUnLCAnPG91dGZpbGUubWFlPic=

> <r_epik_Ionization_Penalty>
1.7682

> <r_epik_Ionization_Penalty_Charging>
1.55298

> <r_epik_Ionization_Penalty_Neutral>
0.215215

> <r_epik_State_Penalty>
1.83821

> <r_epik_Charging_Adjusted_Penalty>
3.39119

> <i_epik_Tot_Q>
1

> <i_epik_Tot_abs_Q>
1

> <r_epik_Metal_State_Penalty>
5.89206

> <b_epik_Metal_Only>
0

> <s_lp_Force_Field>
OPLS_2005

> <r_lp_Energy>
35.5587

> <b_lp_Chiralities_Consistent>
1

> <s_lp_Variant>
AV-unprocessed.smi:1703-20

> <Gold.Version>
5.8.1

> <Gold.Id.Protein>
6NUR|6NUR_protein|mol2

> <Gold.PLP.Fitness>
61.5998

> <Gold.PLP.PLP>
-49.1922

> <Gold.PLP.part.hbond>
-5.1095

> <Gold.PLP.part.metal>
0.0000

> <Gold.PLP.part.buried>
-2.1017

> <Gold.PLP.part.nonpolar>
-41.4049

> <Gold.PLP.part.repulsive>
0.1736

> <Gold.PLP.ligand.clash>
0.0000

> <Gold.PLP.ligand.torsion>
1.3114

> <Gold.PLP.Chemscore.Hbond>
5.0000

> <Gold.PLP.Chemscore.CHOScore>
0.0000

> <Gold.PLP.Chemscore.Metal>
0.0000

> <Gold.Chemscore.Hbonds>
donor molecule, donor type, donor heavy atom, donor atom, acceptor molecule, acceptor atom, score
      L1  H    12    38       P1  7949  0.26
      L1  H    13    49       P1  7948  0.61
      P1  H  7997  8010       L1     7  1.00

> <Gold.PLP.Chemscore.Internal.Correction>
0.0304

> <Gold.Rescore>
     Score         DG    S(hbond)    S(metal)    S(lipo)     H(rot)  DE(clash)    DE(int)     intcor
     19.35     -24.11       3.19        0.00     132.75       2.96       3.43       1.33       ----

> <Gold.Chemscore.Fitness>
19.3508

> <Gold.Chemscore.DG>
-24.1106

> <Gold.Chemscore.ZeroCoef>
-5.4800

> <Gold.Chemscore.Hbond>
3.1932

> <Gold.Chemscore.Metal>
0.0000

> <Gold.Chemscore.Lipo>
132.7466

> <Gold.Chemscore.Internal_Hbond>
0.0000

> <Gold.Chemscore.DEClash>
3.4327

> <Gold.Chemscore.DEInternal>
1.3272

> <Gold.Chemscore.Rot>
2.9555

> <Gold.Chemscore.Internal.Correction>
   9.000000E+99

> <Gold.Chemscore.Hbonds>
donor molecule, donor type, donor heavy atom, donor atom, acceptor molecule, acceptor atom, score
      L1  H    12    38       P1  7949  0.27
      L1  H    13    49       P1  7948  0.16
      P1  H  7997  8010       L1     7  0.52

> <Gold.Chemscore.Hbond.Weighted>
-10.6653

> <Gold.Chemscore.Metal.Weighted>
-0.0000

> <Gold.Chemscore.Lipo.Weighted>
-15.5314

> <Gold.Chemscore.Internal_Hbond.Weighted>
0.0000

> <Gold.Chemscore.DEClash.Weighted>
3.4327

> <Gold.Chemscore.DEInternal.Weighted>
1.3272

> <Gold.Chemscore.Rot.Weighted>
7.5660

> <Gold.Chemscore.Internal.Correction.Weighted>
   9.000000E+99

> <Gold.Protein.RotatedTorsions>
[ 6907 6896 6895 6894 ] final -152.64 input  -60.11 | X-H torsion
[ 7974 7965 7964 7962 ] final  -51.72 input  175.53 | X-H torsion
[ 8008 7997 7996 7995 ] final   90.39 input   59.86 | X-H torsion
[ 10167 10162 10161 10158 ] final  147.23 input  -65.29 | X-H torsion
[ 10718 10713 10712 10709 ] final  -59.85 input   66.30 | X-H torsion
[ 10763 10752 10751 10750 ] final   29.93 input  -60.55 | X-H torsion
[ 11005 11000 10999 10996 ] final   15.77 input  -57.11 | X-H torsion

> <Gold.Protein.ActiveResidues>
 VAL166  LYS551  ARG553  GLY616  TRP617  ASP618  TYR619  PRO620  LYS621  CYS622 
 ASP623  PHE694  ASN695  SER759  ASP760  ASP761  ALA762  ILE779  LEU786  VAL792 
 PHE793  MET794  SER795  GLU796  ALA797  LYS798  CYS799  TRP800  GLU811  SER814 

> <Gold.Protein.RotatedAtoms>
  151.2307  133.4452  159.2603 H   0  0  0  0  0  0  0  0  0  0  0  0  # atno 6907 bound_to 6896
  151.0797  134.9850  159.8360 H   0  0  0  0  0  0  0  0  0  0  0  0  # atno 6908 bound_to 6896
  152.5422  134.2248  159.8854 H   0  0  0  0  0  0  0  0  0  0  0  0  # atno 6909 bound_to 6896
  145.9158  140.7876  142.9672 H   0  0  0  0  0  0  0  0  0  0  0  0  # atno 7974 bound_to 7965
  156.0114  140.3350  155.6944 H   0  0  0  0  0  0  0  0  0  0  0  0  # atno 8008 bound_to 7997
  155.6152  140.0669  157.2712 H   0  0  0  0  0  0  0  0  0  0  0  0  # atno 8009 bound_to 7997
  154.4283  140.1786  156.1302 H   0  0  0  0  0  0  0  0  0  0  0  0  # atno 8010 bound_to 7997
  139.4893  144.5771  151.6944 H   0  0  0  0  0  0  0  0  0  0  0  0  # atno 10167 bound_to 10162
  156.1032  130.4183  150.0772 H   0  0  0  0  0  0  0  0  0  0  0  0  # atno 10718 bound_to 10713
  153.0401  135.6477  154.0966 H   0  0  0  0  0  0  0  0  0  0  0  0  # atno 10763 bound_to 10752
  154.0674  135.2883  155.3316 H   0  0  0  0  0  0  0  0  0  0  0  0  # atno 10764 bound_to 10752
  154.6617  135.5389  153.8091 H   0  0  0  0  0  0  0  0  0  0  0  0  # atno 10765 bound_to 10752
  140.4546  134.1189  155.7707 H   0  0  0  0  0  0  0  0  0  0  0  0  # atno 11005 bound_to 11000
  144.6748  140.1898  143.7398 LP  0  0  0  0  0  0  0  0  0  0  0  0  # atno 17320 bound_to 7965
  145.8613  139.2224  143.1715 LP  0  0  0  0  0  0  0  0  0  0  0  0  # atno 17321 bound_to 7965
  140.5370  144.0640  150.6074 LP  0  0  0  0  0  0  0  0  0  0  0  0  # atno 17342 bound_to 10162
  140.3650  143.2887  152.0342 LP  0  0  0  0  0  0  0  0  0  0  0  0  # atno 17343 bound_to 10162
  156.8754  130.9538  151.3605 LP  0  0  0  0  0  0  0  0  0  0  0  0  # atno 17370 bound_to 10713
  157.6205  130.8652  149.9101 LP  0  0  0  0  0  0  0  0  0  0  0  0  # atno 17371 bound_to 10713
  141.1649  133.8722  157.1744 LP  0  0  0  0  0  0  0  0  0  0  0  0  # atno 17394 bound_to 11000
  139.9985  135.0037  157.0136 LP  0  0  0  0  0  0  0  0  0  0  0  0  # atno 17395 bound_to 11000

$$$$
