AV-unprocessed.smi:276|AV-procd|sdf|2083|dock7
  -GOLD-   2262021353D 1   1.00000     0.00000
 Structure written by MMmdl.
 57 61  0  0  0  0  0  0  0  0  1 V2000
  141.8595  135.8550  153.3638 C   0  0  0  0  0  0  0  0  0  0  0  0
  142.8925  134.9365  153.0528 O   0  0  0  0  0  0  0  0  0  0  0  0
  143.4537  135.1508  151.7651 C   0  0  1  0  0  0  0  0  0  0  0  0
  144.6057  136.1658  151.7863 C   0  0  0  0  0  0  0  0  0  0  0  0
  145.5958  135.0031  151.9993 C   0  0  1  0  0  0  0  0  0  0  0  0
  145.8999  134.8059  153.4231 N   0  0  0  0  0  0  0  0  0  0  0  0
  146.1459  136.0068  154.2173 C   0  0  0  0  0  0  0  0  0  0  0  0
  146.7818  133.8303  153.7404 C   0  0  0  0  0  0  0  0  0  0  0  0
  147.4788  133.2778  152.7161 N   0  0  0  0  0  0  0  0  0  0  0  0
  148.3661  132.3082  152.9551 C   0  0  0  0  0  0  0  0  0  0  0  0
  148.6950  131.7463  154.1197 N   0  0  0  0  0  0  0  0  0  0  0  0
  147.9834  132.2864  155.1502 C   0  0  0  0  0  0  0  0  0  0  0  0
  147.0141  133.3246  155.0526 C   0  0  0  0  0  0  0  0  0  0  0  0
  146.5051  133.6121  156.3138 N   0  0  0  0  0  0  0  0  0  0  0  0
  147.1442  132.8010  157.1107 C   0  0  0  0  0  0  0  0  0  0  0  0
  148.0330  131.9514  156.4922 N   0  0  0  0  0  0  0  0  0  0  0  0
  148.8655  130.9490  157.1338 C   0  0  0  0  0  0  0  0  0  0  0  0
  150.3807  131.1198  156.8700 C   0  0  1  0  0  0  0  0  0  0  0  0
  150.9249  131.5861  158.0883 O   0  0  0  0  0  0  0  0  0  0  0  0
  151.1459  129.8294  156.4934 C   0  0  1  0  0  0  0  0  0  0  0  0
  150.7440  129.1658  155.1715 C   0  0  0  0  0  0  0  0  0  0  0  0
  152.0040  128.4524  154.7063 C   0  0  0  0  0  0  0  0  0  0  0  0
  153.0997  129.0174  155.6087 C   0  0  0  0  0  0  0  0  0  0  0  0
  152.5036  130.1491  156.2230 O   0  0  0  0  0  0  0  0  0  0  0  0
  144.4972  134.0751  151.4157 C   0  0  0  0  0  0  0  0  0  0  0  0
  144.6015  133.6119  149.9522 C   0  0  0  0  0  0  0  0  0  0  0  0
  143.7878  132.3745  150.3382 C   0  0  0  0  0  0  0  0  0  0  0  0
  144.2697  132.5915  151.7735 C   0  0  0  0  0  0  0  0  0  0  0  0
  141.4718  135.6439  154.3602 H   0  0  0  0  0  0  0  0  0  0  0  0
  141.0336  135.7698  152.6566 H   0  0  0  0  0  0  0  0  0  0  0  0
  142.2206  136.8838  153.3562 H   0  0  0  0  0  0  0  0  0  0  0  0
  142.7109  135.3150  150.9829 H   0  0  0  0  0  0  0  0  0  0  0  0
  144.7435  136.6496  150.8179 H   0  0  0  0  0  0  0  0  0  0  0  0
  144.5535  136.9070  152.5838 H   0  0  0  0  0  0  0  0  0  0  0  0
  146.4765  135.0981  151.3643 H   0  0  0  0  0  0  0  0  0  0  0  0
  146.9639  135.8868  154.9304 H   0  0  0  0  0  0  0  0  0  0  0  0
  145.2489  136.2615  154.7819 H   0  0  0  0  0  0  0  0  0  0  0  0
  146.3923  136.8530  153.5750 H   0  0  0  0  0  0  0  0  0  0  0  0
  148.8862  131.9271  152.0886 H   0  0  0  0  0  0  0  0  0  0  0  0
  146.9697  132.7885  158.1767 H   0  0  0  0  0  0  0  0  0  0  0  0
  148.6663  131.0092  158.2049 H   0  0  0  0  0  0  0  0  0  0  0  0
  148.5349  129.9596  156.8141 H   0  0  0  0  0  0  0  0  0  0  0  0
  150.5456  131.8851  156.1111 H   0  0  0  0  0  0  0  0  0  0  0  0
  151.2723  130.8481  158.5654 H   0  0  0  0  0  0  0  0  0  0  0  0
  151.0970  129.0978  157.3027 H   0  0  0  0  0  0  0  0  0  0  0  0
  149.9046  128.4806  155.2854 H   0  0  0  0  0  0  0  0  0  0  0  0
  150.4690  129.9223  154.4354 H   0  0  0  0  0  0  0  0  0  0  0  0
  151.9250  127.3710  154.8201 H   0  0  0  0  0  0  0  0  0  0  0  0
  152.2008  128.6671  153.6554 H   0  0  0  0  0  0  0  0  0  0  0  0
  153.3770  128.2950  156.3780 H   0  0  0  0  0  0  0  0  0  0  0  0
  153.9993  129.2927  155.0578 H   0  0  0  0  0  0  0  0  0  0  0  0
  144.1223  134.2657  149.2230 H   0  0  0  0  0  0  0  0  0  0  0  0
  145.6244  133.3676  149.6600 H   0  0  0  0  0  0  0  0  0  0  0  0
  142.7125  132.5219  150.2257 H   0  0  0  0  0  0  0  0  0  0  0  0
  144.1223  131.4443  149.8784 H   0  0  0  0  0  0  0  0  0  0  0  0
  145.1836  132.0321  151.9681 H   0  0  0  0  0  0  0  0  0  0  0  0
  143.5173  132.4072  152.5405 H   0  0  0  0  0  0  0  0  0  0  0  0
  1  2  1  0  0  0  0
  1 29  1  0  0  0  0
  1 30  1  0  0  0  0
  1 31  1  0  0  0  0
  2  3  1  0  0  0  0
  3 25  1  0  0  0  0
  3  4  1  0  0  0  0
  3 32  1  0  0  0  0
  4  5  1  0  0  0  0
  4 33  1  0  0  0  0
  4 34  1  0  0  0  0
  5  6  1  0  0  0  0
  5 25  1  0  0  0  0
  5 35  1  0  0  0  0
  6  7  1  0  0  0  0
  6  8  1  0  0  0  0
  7 36  1  0  0  0  0
  7 37  1  0  0  0  0
  7 38  1  0  0  0  0
  8 13  1  0  0  0  0
  8  9  2  0  0  0  0
  9 10  1  0  0  0  0
 10 11  2  0  0  0  0
 10 39  1  0  0  0  0
 11 12  1  0  0  0  0
 12 16  1  0  0  0  0
 12 13  2  0  0  0  0
 13 14  1  0  0  0  0
 14 15  2  0  0  0  0
 15 16  1  0  0  0  0
 15 40  1  0  0  0  0
 16 17  1  0  0  0  0
 17 18  1  0  0  0  0
 17 41  1  0  0  0  0
 17 42  1  0  0  0  0
 18 19  1  0  0  0  0
 18 20  1  0  0  0  0
 18 43  1  0  0  0  0
 19 44  1  0  0  0  0
 20 24  1  0  0  0  0
 20 21  1  0  0  0  0
 20 45  1  0  0  0  0
 21 22  1  0  0  0  0
 21 46  1  0  0  0  0
 21 47  1  0  0  0  0
 22 23  1  0  0  0  0
 22 48  1  0  0  0  0
 22 49  1  0  0  0  0
 23 24  1  0  0  0  0
 23 50  1  0  0  0  0
 23 51  1  0  0  0  0
 25 28  1  0  0  0  0
 25 26  1  0  0  0  0
 26 27  1  0  0  0  0
 26 52  1  0  0  0  0
 26 53  1  0  0  0  0
 27 28  1  0  0  0  0
 27 54  1  0  0  0  0
 27 55  1  0  0  0  0
 28 56  1  0  0  0  0
 28 57  1  0  0  0  0
M  END
> <s_m_source_file>
AV-unprocessed.smi

> <i_m_source_file_index>
276

> <i_lp_mmshare_version>
43012

> <i_f3d_flags>
0

> <s_epik_input>
W0NIMl0xW0NIMl1bQ0gyXUMxMltDQEhdKE9bQ0gzXSlbQ0gyXVtDQEhdMk4oW0NIM10pYyhuW2NIXW4zKWMoYzM0KW5bY0hdbjRbQ0gyXVtDQEhdKFtPSF0pW0NAQEhdNVtDSDJdW0NIMl1bQ0gyXU81

> <s_epik_cmdline>
J2VwaWtfcHl0aG9uJywgJy1waCcsICc3LjAnLCAnLXRuJywgJzgnLCAnLW1hJywgJzIwMCcsICctbWV0YWxfYmluZGluZycsICctaW1hZScsICc8aW5maWxlLm1hZT4nLCAnLW9tYWUnLCAnPG91dGZpbGUubWFlPic=

> <r_lp_tautomer_probability>
1

> <r_epik_Ionization_Penalty>
0.00204117

> <r_epik_Ionization_Penalty_Charging>
0

> <r_epik_Ionization_Penalty_Neutral>
0.00204117

> <r_epik_State_Penalty>
0.00127401

> <r_epik_Charging_Adjusted_Penalty>
0.00127401

> <i_epik_Tot_Q>
0

> <i_epik_Tot_abs_Q>
0

> <r_epik_Metal_State_Penalty>
-0

> <b_epik_Metal_Only>
0

> <s_lp_Force_Field>
OPLS_2005

> <r_lp_Energy>
58.3472

> <b_lp_Chiralities_Consistent>
1

> <s_lp_Variant>
AV-unprocessed.smi:276-14

> <Gold.Version>
5.8.1

> <Gold.Id.Protein>
6NUR|6NUR_protein|mol2

> <Gold.PLP.Fitness>
38.3129

> <Gold.PLP.PLP>
-34.2194

> <Gold.PLP.part.hbond>
-1.0000

> <Gold.PLP.part.metal>
0.0000

> <Gold.PLP.part.buried>
-4.6144

> <Gold.PLP.part.nonpolar>
-29.3911

> <Gold.PLP.part.repulsive>
1.1418

> <Gold.PLP.ligand.clash>
0.0000

> <Gold.PLP.ligand.torsion>
1.5007

> <Gold.PLP.Chemscore.Hbond>
1.0000

> <Gold.PLP.Chemscore.CHOScore>
1.0000

> <Gold.PLP.Chemscore.Metal>
0.0000

> <Gold.Chemscore.Hbonds>
donor molecule, donor type, donor heavy atom, donor atom, acceptor molecule, acceptor atom, score
      P1  H  6896  6909       L1    19  0.70
      L1  C    10    39       P1 10747  1.00

> <Gold.PLP.Chemscore.Internal.Correction>
1.0949

> <Gold.Rescore>
     Score         DG    S(hbond)    S(metal)    S(lipo)     H(rot)  DE(clash)    DE(int)     intcor
      9.55     -11.21       0.95        0.00      81.20       2.72       0.07       1.59       ----

> <Gold.Chemscore.Fitness>
9.5506

> <Gold.Chemscore.DG>
-11.2090

> <Gold.Chemscore.ZeroCoef>
-5.4800

> <Gold.Chemscore.Hbond>
0.9534

> <Gold.Chemscore.Metal>
0.0000

> <Gold.Chemscore.Lipo>
81.2021

> <Gold.Chemscore.Internal_Hbond>
0.0000

> <Gold.Chemscore.DEClash>
0.0650

> <Gold.Chemscore.DEInternal>
1.5934

> <Gold.Chemscore.Rot>
2.7172

> <Gold.Chemscore.Internal.Correction>
   9.000000E+99

> <Gold.Chemscore.Hbonds>
donor molecule, donor type, donor heavy atom, donor atom, acceptor molecule, acceptor atom, score
      P1  H  6896  6909       L1    19  0.51

> <Gold.Chemscore.Hbond.Weighted>
-3.1843

> <Gold.Chemscore.Metal.Weighted>
-0.0000

> <Gold.Chemscore.Lipo.Weighted>
-9.5006

> <Gold.Chemscore.Internal_Hbond.Weighted>
0.0000

> <Gold.Chemscore.DEClash.Weighted>
0.0650

> <Gold.Chemscore.DEInternal.Weighted>
1.5934

> <Gold.Chemscore.Rot.Weighted>
6.9560

> <Gold.Chemscore.Internal.Correction.Weighted>
   9.000000E+99

> <Gold.Protein.RotatedTorsions>
[ 6907 6896 6895 6894 ] final  -31.40 input  -60.11 | X-H torsion
[ 7974 7965 7964 7962 ] final    0.48 input  175.53 | X-H torsion
[ 8008 7997 7996 7995 ] final   72.34 input   59.86 | X-H torsion
[ 10167 10162 10161 10158 ] final -103.22 input  -65.29 | X-H torsion
[ 10718 10713 10712 10709 ] final  159.67 input   66.30 | X-H torsion
[ 10763 10752 10751 10750 ] final   96.45 input  -60.55 | X-H torsion
[ 11005 11000 10999 10996 ] final    6.28 input  -57.11 | X-H torsion

> <Gold.Protein.ActiveResidues>
 VAL166  LYS551  ARG553  GLY616  TRP617  ASP618  TYR619  PRO620  LYS621  CYS622 
 ASP623  PHE694  ASN695  SER759  ASP760  ASP761  ALA762  ILE779  LEU786  VAL792 
 PHE793  MET794  SER795  GLU796  ALA797  LYS798  CYS799  TRP800  GLU811  SER814 

> <Gold.Protein.RotatedAtoms>
  151.0926  134.9925  159.8409 H   0  0  0  0  0  0  0  0  0  0  0  0  # atno 6907 bound_to 6896
  152.5430  134.2047  159.8736 H   0  0  0  0  0  0  0  0  0  0  0  0  # atno 6908 bound_to 6896
  151.2084  133.4526  159.2631 H   0  0  0  0  0  0  0  0  0  0  0  0  # atno 6909 bound_to 6896
  146.2434  140.1131  142.8343 H   0  0  0  0  0  0  0  0  0  0  0  0  # atno 7974 bound_to 7965
  155.7673  140.3485  155.5229 H   0  0  0  0  0  0  0  0  0  0  0  0  # atno 8008 bound_to 7997
  155.8856  140.1009  157.1476 H   0  0  0  0  0  0  0  0  0  0  0  0  # atno 8009 bound_to 7997
  154.4028  140.1314  156.4238 H   0  0  0  0  0  0  0  0  0  0  0  0  # atno 8010 bound_to 7997
  140.2223  143.3667  152.0959 H   0  0  0  0  0  0  0  0  0  0  0  0  # atno 10167 bound_to 10162
  157.1610  131.0587  151.2232 H   0  0  0  0  0  0  0  0  0  0  0  0  # atno 10718 bound_to 10713
  153.2650  135.4218  155.0932 H   0  0  0  0  0  0  0  0  0  0  0  0  # atno 10763 bound_to 10752
  154.8435  135.3458  154.6324 H   0  0  0  0  0  0  0  0  0  0  0  0  # atno 10764 bound_to 10752
  153.6743  135.7042  153.5194 H   0  0  0  0  0  0  0  0  0  0  0  0  # atno 10765 bound_to 10752
  140.5613  134.0190  155.7972 H   0  0  0  0  0  0  0  0  0  0  0  0  # atno 11005 bound_to 11000
  145.0470  140.8989  143.5018 LP  0  0  0  0  0  0  0  0  0  0  0  0  # atno 17320 bound_to 7965
  145.1222  139.2686  143.5582 LP  0  0  0  0  0  0  0  0  0  0  0  0  # atno 17321 bound_to 7965
  139.5140  144.6941  151.5680 LP  0  0  0  0  0  0  0  0  0  0  0  0  # atno 17342 bound_to 10162
  140.6246  143.9193  150.6554 LP  0  0  0  0  0  0  0  0  0  0  0  0  # atno 17343 bound_to 10162
  157.4132  130.7397  149.6855 LP  0  0  0  0  0  0  0  0  0  0  0  0  # atno 17370 bound_to 10713
  155.9754  130.4090  150.3854 LP  0  0  0  0  0  0  0  0  0  0  0  0  # atno 17371 bound_to 10713
  141.1113  133.9612  157.2905 LP  0  0  0  0  0  0  0  0  0  0  0  0  # atno 17394 bound_to 11000
  139.9406  135.0191  156.8697 LP  0  0  0  0  0  0  0  0  0  0  0  0  # atno 17395 bound_to 11000

$$$$
