AV-unprocessed.smi:2044|AV-procd|sdf|8303|dock4
  -GOLD-   2272010573D 1   1.00000     0.00000
 Structure written by MMmdl.
 38 39  0  0  0  0  0  0  0  0  2 V2000
  147.4750  130.7897  152.5198 C   0  0  0  0  0  0  0  0  0  0  0  0
  148.0154  132.0610  153.0794 C   0  0  0  0  0  0  0  0  0  0  0  0
  149.2780  132.4700  153.4025 C   0  0  0  0  0  0  0  0  0  0  0  0
  149.0773  133.7909  153.8889 C   0  0  0  0  0  0  0  0  0  0  0  0
  150.0340  134.6265  154.3219 N   0  5  0  0  0  0  0  0  0  0  0  0
  149.7029  135.7506  154.9983 C   0  0  0  0  0  0  0  0  0  0  0  0
  149.9883  136.0103  156.1697 O   0  0  0  0  0  0  0  0  0  0  0  0
  149.0022  136.6316  154.2697 N   0  0  0  0  0  0  0  0  0  0  0  0
  148.5324  137.9383  154.7243 C   0  0  0  0  0  0  0  0  0  0  0  0
  149.2035  139.1318  153.9829 C   0  0  1  0  0  0  0  0  0  0  0  0
  148.2238  140.3332  153.9791 C   0  0  0  0  0  0  0  0  0  0  0  0
  150.5377  139.4846  154.5229 N   0  0  0  0  0  0  0  0  0  0  0  0
  151.4636  138.3459  154.5143 C   0  0  0  0  0  0  0  0  0  0  0  0
  152.8440  138.6923  155.0983 C   0  0  0  0  0  0  0  0  0  0  0  0
  152.6938  139.1858  156.4220 O   0  0  0  0  0  0  0  0  0  0  0  0
  151.8640  140.3381  156.4692 C   0  0  0  0  0  0  0  0  0  0  0  0
  150.4762  140.0056  155.8934 C   0  0  0  0  0  0  0  0  0  0  0  0
  147.8071  134.1566  153.8492 N   0  0  0  0  0  0  0  0  0  0  0  0
  147.1185  133.0505  153.3368 O   0  0  0  0  0  0  0  0  0  0  0  0
  147.7820  130.6654  151.4815 H   0  0  0  0  0  0  0  0  0  0  0  0
  146.3853  130.7771  152.5543 H   0  0  0  0  0  0  0  0  0  0  0  0
  147.8400  129.9326  153.0857 H   0  0  0  0  0  0  0  0  0  0  0  0
  150.1985  131.9136  153.3101 H   0  0  0  0  0  0  0  0  0  0  0  0
  148.7879  136.3768  153.3168 H   0  0  0  0  0  0  0  0  0  0  0  0
  147.4518  137.9753  154.5839 H   0  0  0  0  0  0  0  0  0  0  0  0
  148.7043  137.9741  155.7992 H   0  0  0  0  0  0  0  0  0  0  0  0
  149.3360  138.8292  152.9432 H   0  0  0  0  0  0  0  0  0  0  0  0
  147.2302  140.0589  153.6265 H   0  0  0  0  0  0  0  0  0  0  0  0
  148.5481  141.1302  153.3120 H   0  0  0  0  0  0  0  0  0  0  0  0
  148.1113  140.7527  154.9792 H   0  0  0  0  0  0  0  0  0  0  0  0
  151.0325  137.5149  155.0746 H   0  0  0  0  0  0  0  0  0  0  0  0
  151.6278  137.9914  153.4985 H   0  0  0  0  0  0  0  0  0  0  0  0
  153.4787  137.8064  155.1192 H   0  0  0  0  0  0  0  0  0  0  0  0
  153.3506  139.4341  154.4789 H   0  0  0  0  0  0  0  0  0  0  0  0
  151.7747  140.6698  157.5037 H   0  0  0  0  0  0  0  0  0  0  0  0
  152.3279  141.1530  155.9111 H   0  0  0  0  0  0  0  0  0  0  0  0
  149.8936  140.9238  155.9309 H   0  0  0  0  0  0  0  0  0  0  0  0
  149.9767  139.2843  156.5421 H   0  0  0  0  0  0  0  0  0  0  0  0
  1  2  1  0  0  0  0
  1 20  1  0  0  0  0
  1 21  1  0  0  0  0
  1 22  1  0  0  0  0
  2 19  1  0  0  0  0
  2  3  2  0  0  0  0
  3  4  1  0  0  0  0
  3 23  1  0  0  0  0
  4  5  1  0  0  0  0
  4 18  2  0  0  0  0
  5  6  1  0  0  0  0
  6  7  2  0  0  0  0
  6  8  1  0  0  0  0
  8  9  1  0  0  0  0
  8 24  1  0  0  0  0
  9 10  1  0  0  0  0
  9 25  1  0  0  0  0
  9 26  1  0  0  0  0
 10 11  1  0  0  0  0
 10 12  1  0  0  0  0
 10 27  1  0  0  0  0
 11 28  1  0  0  0  0
 11 29  1  0  0  0  0
 11 30  1  0  0  0  0
 12 17  1  0  0  0  0
 12 13  1  0  0  0  0
 13 14  1  0  0  0  0
 13 31  1  0  0  0  0
 13 32  1  0  0  0  0
 14 15  1  0  0  0  0
 14 33  1  0  0  0  0
 14 34  1  0  0  0  0
 15 16  1  0  0  0  0
 16 17  1  0  0  0  0
 16 35  1  0  0  0  0
 16 36  1  0  0  0  0
 17 37  1  0  0  0  0
 17 38  1  0  0  0  0
 18 19  1  0  0  0  0
M  CHG  1   5  -1
M  END
> <s_m_source_file>
AV-unprocessed.smi

> <i_m_source_file_index>
2044

> <i_lp_mmshare_version>
43012

> <i_f3d_flags>
0

> <s_epik_input>
W0NIM11jMVtjSF1jKG5vMSlbTkhdQyg9TylbTkhdW0NIMl1bQ0BIXShbQ0gzXSlOMltDSDJdW0NIMl1PW0NIMl1bQ0gyXTI=

> <s_epik_cmdline>
J2VwaWtfcHl0aG9uJywgJy1waCcsICc3LjAnLCAnLXRuJywgJzgnLCAnLW1hJywgJzIwMCcsICctbWV0YWxfYmluZGluZycsICctaW1hZScsICc8aW5maWxlLm1hZT4nLCAnLW9tYWUnLCAnPG91dGZpbGUubWFlPic=

> <r_epik_Ionization_Penalty>
6.88367

> <r_epik_Ionization_Penalty_Charging>
6.57198

> <r_epik_Ionization_Penalty_Neutral>
0.311681

> <r_epik_State_Penalty>
6.77619

> <r_epik_Charging_Adjusted_Penalty>
13.3482

> <i_epik_Tot_Q>
-1

> <i_epik_Tot_abs_Q>
1

> <r_epik_Metal_State_Penalty>
2.70533

> <b_epik_Metal_Only>
1

> <s_lp_Force_Field>
OPLS_2005

> <r_lp_Energy>
21.654

> <b_lp_Chiralities_Consistent>
1

> <s_lp_Variant>
AV-unprocessed.smi:2044-6

> <Gold.Version>
5.8.1

> <Gold.Id.Protein>
6NUR|6NUR_protein|mol2

> <Gold.PLP.Fitness>
36.1157

> <Gold.PLP.PLP>
-29.2758

> <Gold.PLP.part.hbond>
-3.0000

> <Gold.PLP.part.metal>
0.0000

> <Gold.PLP.part.buried>
-3.3290

> <Gold.PLP.part.nonpolar>
-24.0605

> <Gold.PLP.part.repulsive>
0.5001

> <Gold.PLP.ligand.clash>
0.0000

> <Gold.PLP.ligand.torsion>
0.9580

> <Gold.PLP.Chemscore.Hbond>
2.9025

> <Gold.PLP.Chemscore.CHOScore>
0.0000

> <Gold.PLP.Chemscore.Metal>
0.0000

> <Gold.Chemscore.Hbonds>
donor molecule, donor type, donor heavy atom, donor atom, acceptor molecule, acceptor atom, score
      L1  H     8    24       P1  7948  0.83
      P1  H  7989  7998       L1    12  0.98
      P1  H  7997  8008       L1    15  0.44

> <Gold.PLP.Chemscore.Internal.Correction>
0.0485

> <Gold.Rescore>
     Score         DG    S(hbond)    S(metal)    S(lipo)     H(rot)  DE(clash)    DE(int)     intcor
     10.51     -12.95       1.18        0.00      63.95       1.55       0.16       2.29       ----

> <Gold.Chemscore.Fitness>
10.5066

> <Gold.Chemscore.DG>
-12.9528

> <Gold.Chemscore.ZeroCoef>
-5.4800

> <Gold.Chemscore.Hbond>
1.1830

> <Gold.Chemscore.Metal>
0.0000

> <Gold.Chemscore.Lipo>
63.9469

> <Gold.Chemscore.Internal_Hbond>
0.0000

> <Gold.Chemscore.DEClash>
0.1554

> <Gold.Chemscore.DEInternal>
2.2908

> <Gold.Chemscore.Rot>
1.5470

> <Gold.Chemscore.Internal.Correction>
   9.000000E+99

> <Gold.Chemscore.Hbonds>
donor molecule, donor type, donor heavy atom, donor atom, acceptor molecule, acceptor atom, score
      L1  H     8    24       P1  7948  0.80
      P1  H  7989  7998       L1    12  0.13

> <Gold.Chemscore.Hbond.Weighted>
-3.9513

> <Gold.Chemscore.Metal.Weighted>
-0.0000

> <Gold.Chemscore.Lipo.Weighted>
-7.4818

> <Gold.Chemscore.Internal_Hbond.Weighted>
0.0000

> <Gold.Chemscore.DEClash.Weighted>
0.1554

> <Gold.Chemscore.DEInternal.Weighted>
2.2908

> <Gold.Chemscore.Rot.Weighted>
3.9603

> <Gold.Chemscore.Internal.Correction.Weighted>
   9.000000E+99

> <Gold.Protein.RotatedTorsions>
[ 6907 6896 6895 6894 ] final  151.93 input  -60.11 | X-H torsion
[ 7974 7965 7964 7962 ] final  104.44 input  175.53 | X-H torsion
[ 8008 7997 7996 7995 ] final  -39.15 input   59.86 | X-H torsion
[ 10167 10162 10161 10158 ] final  -20.83 input  -65.29 | X-H torsion
[ 10718 10713 10712 10709 ] final -111.92 input   66.30 | X-H torsion
[ 10763 10752 10751 10750 ] final -126.76 input  -60.55 | X-H torsion
[ 11005 11000 10999 10996 ] final -106.97 input  -57.11 | X-H torsion

> <Gold.Protein.ActiveResidues>
 VAL166  LYS551  ARG553  GLY616  TRP617  ASP618  TYR619  PRO620  LYS621  CYS622 
 ASP623  PHE694  ASN695  SER759  ASP760  ASP761  ALA762  ILE779  LEU786  VAL792 
 PHE793  MET794  SER795  GLU796  ALA797  LYS798  CYS799  TRP800  GLU811  SER814 

> <Gold.Protein.RotatedAtoms>
  152.0939  133.4214  159.4555 H   0  0  0  0  0  0  0  0  0  0  0  0  # atno 6907 bound_to 6896
  150.6863  134.2840  159.4648 H   0  0  0  0  0  0  0  0  0  0  0  0  # atno 6908 bound_to 6896
  152.0694  134.9543  160.0625 H   0  0  0  0  0  0  0  0  0  0  0  0  # atno 6909 bound_to 6896
  145.3327  139.2482  143.3652 H   0  0  0  0  0  0  0  0  0  0  0  0  # atno 7974 bound_to 7965
  154.4027  140.1559  156.2816 H   0  0  0  0  0  0  0  0  0  0  0  0  # atno 8008 bound_to 7997
  155.8865  140.3441  155.5903 H   0  0  0  0  0  0  0  0  0  0  0  0  # atno 8009 bound_to 7997
  155.7608  140.0817  157.2147 H   0  0  0  0  0  0  0  0  0  0  0  0  # atno 8010 bound_to 7997
  140.7278  143.4685  151.0280 H   0  0  0  0  0  0  0  0  0  0  0  0  # atno 10167 bound_to 10162
  156.0675  130.5892  150.8438 H   0  0  0  0  0  0  0  0  0  0  0  0  # atno 10718 bound_to 10713
  154.8748  135.3985  154.3483 H   0  0  0  0  0  0  0  0  0  0  0  0  # atno 10763 bound_to 10752
  153.4272  135.7024  153.6260 H   0  0  0  0  0  0  0  0  0  0  0  0  # atno 10764 bound_to 10752
  153.4897  135.3751  155.2455 H   0  0  0  0  0  0  0  0  0  0  0  0  # atno 10765 bound_to 10752
  141.0978  133.8940  157.1920 H   0  0  0  0  0  0  0  0  0  0  0  0  # atno 11005 bound_to 11000
  146.3039  140.3908  142.8694 LP  0  0  0  0  0  0  0  0  0  0  0  0  # atno 17320 bound_to 7965
  144.8851  140.7452  143.5962 LP  0  0  0  0  0  0  0  0  0  0  0  0  # atno 17321 bound_to 7965
  139.8375  143.7608  152.3180 LP  0  0  0  0  0  0  0  0  0  0  0  0  # atno 17342 bound_to 10162
  139.7745  144.7465  151.0176 LP  0  0  0  0  0  0  0  0  0  0  0  0  # atno 17343 bound_to 10162
  157.5726  131.0946  150.9395 LP  0  0  0  0  0  0  0  0  0  0  0  0  # atno 17370 bound_to 10713
  156.9608  130.5454  149.5286 LP  0  0  0  0  0  0  0  0  0  0  0  0  # atno 17371 bound_to 10713
  139.9819  135.0095  156.9771 LP  0  0  0  0  0  0  0  0  0  0  0  0  # atno 17394 bound_to 11000
  140.5098  134.1014  155.7268 LP  0  0  0  0  0  0  0  0  0  0  0  0  # atno 17395 bound_to 11000

$$$$
