AV-unprocessed.smi:2465|AV-procd|sdf|9722|dock8
  -GOLD-   2272013363D 1   1.00000     0.00000
 Structure written by MMmdl.
 40 41  0  0  0  0  0  0  0  0  1 V2000
  147.4116  133.3831  152.1726 C   0  0  0  0  0  0  0  0  0  0  0  0
  146.1062  133.5993  151.4277 C   0  0  0  0  0  0  0  0  0  0  0  0
  145.3661  132.4874  150.9753 C   0  0  0  0  0  0  0  0  0  0  0  0
  144.1610  132.7140  150.2841 C   0  0  0  0  0  0  0  0  0  0  0  0
  143.6783  133.9460  150.0244 N   0  0  0  0  0  0  0  0  0  0  0  0
  144.3870  135.0094  150.4594 C   0  0  0  0  0  0  0  0  0  0  0  0
  145.6048  134.8999  151.1774 C   0  0  0  0  0  0  0  0  0  0  0  0
  146.3599  136.0250  151.6146 N   0  0  0  0  0  0  0  0  0  0  0  0
  145.9168  137.1966  152.1023 C   0  0  0  0  0  0  0  0  0  0  0  0
  144.7361  137.4920  152.2860 O   0  0  0  0  0  0  0  0  0  0  0  0
  146.9370  138.0162  152.3924 N   0  0  0  0  0  0  0  0  0  0  0  0
  146.8000  139.3586  152.9456 C   0  0  0  0  0  0  0  0  0  0  0  0
  147.5638  139.5054  154.2710 C   0  0  0  0  0  0  0  0  0  0  0  0
  149.0264  139.9270  154.0595 C   0  0  0  0  0  0  0  0  0  0  0  0
  149.5598  140.6104  155.2340 N   0  0  0  0  0  0  0  0  0  0  0  0
  148.6851  141.3704  156.1110 C   0  0  0  0  0  0  0  0  0  0  0  0
  149.5554  141.7329  157.3228 C   0  0  0  0  0  0  0  0  0  0  0  0
  151.0012  141.4643  156.8911 C   0  0  0  0  0  0  0  0  0  0  0  0
  150.8417  140.6536  155.6160 C   0  0  0  0  0  0  0  0  0  0  0  0
  151.7894  140.1217  155.0395 O   0  0  0  0  0  0  0  0  0  0  0  0
  147.6480  132.3222  152.2600 H   0  0  0  0  0  0  0  0  0  0  0  0
  147.3481  133.7988  153.1786 H   0  0  0  0  0  0  0  0  0  0  0  0
  148.2348  133.8690  151.6481 H   0  0  0  0  0  0  0  0  0  0  0  0
  145.7107  131.4790  151.1507 H   0  0  0  0  0  0  0  0  0  0  0  0
  143.5719  131.8830  149.9253 H   0  0  0  0  0  0  0  0  0  0  0  0
  143.9625  135.9654  150.1961 H   0  0  0  0  0  0  0  0  0  0  0  0
  147.3616  135.9016  151.6059 H   0  0  0  0  0  0  0  0  0  0  0  0
  147.8761  137.6900  152.2167 H   0  0  0  0  0  0  0  0  0  0  0  0
  147.1879  140.0675  152.2138 H   0  0  0  0  0  0  0  0  0  0  0  0
  145.7444  139.5996  153.0826 H   0  0  0  0  0  0  0  0  0  0  0  0
  147.0674  140.2443  154.9016 H   0  0  0  0  0  0  0  0  0  0  0  0
  147.5261  138.5608  154.8155 H   0  0  0  0  0  0  0  0  0  0  0  0
  149.6425  139.0549  153.8350 H   0  0  0  0  0  0  0  0  0  0  0  0
  149.1014  140.5877  153.1947 H   0  0  0  0  0  0  0  0  0  0  0  0
  148.3448  142.2669  155.5911 H   0  0  0  0  0  0  0  0  0  0  0  0
  147.8092  140.7885  156.4009 H   0  0  0  0  0  0  0  0  0  0  0  0
  149.4057  142.7678  157.6325 H   0  0  0  0  0  0  0  0  0  0  0  0
  149.2994  141.0962  158.1706 H   0  0  0  0  0  0  0  0  0  0  0  0
  151.5293  142.3918  156.6679 H   0  0  0  0  0  0  0  0  0  0  0  0
  151.5620  140.9134  157.6467 H   0  0  0  0  0  0  0  0  0  0  0  0
  1  2  1  0  0  0  0
  1 21  1  0  0  0  0
  1 22  1  0  0  0  0
  1 23  1  0  0  0  0
  2  7  1  0  0  0  0
  2  3  2  0  0  0  0
  3  4  1  0  0  0  0
  3 24  1  0  0  0  0
  4  5  2  0  0  0  0
  4 25  1  0  0  0  0
  5  6  1  0  0  0  0
  6  7  2  0  0  0  0
  6 26  1  0  0  0  0
  7  8  1  0  0  0  0
  8  9  1  0  0  0  0
  8 27  1  0  0  0  0
  9 10  2  0  0  0  0
  9 11  1  0  0  0  0
 11 12  1  0  0  0  0
 11 28  1  0  0  0  0
 12 13  1  0  0  0  0
 12 29  1  0  0  0  0
 12 30  1  0  0  0  0
 13 14  1  0  0  0  0
 13 31  1  0  0  0  0
 13 32  1  0  0  0  0
 14 15  1  0  0  0  0
 14 33  1  0  0  0  0
 14 34  1  0  0  0  0
 15 19  1  0  0  0  0
 15 16  1  0  0  0  0
 16 17  1  0  0  0  0
 16 35  1  0  0  0  0
 16 36  1  0  0  0  0
 17 18  1  0  0  0  0
 17 37  1  0  0  0  0
 17 38  1  0  0  0  0
 18 19  1  0  0  0  0
 18 39  1  0  0  0  0
 18 40  1  0  0  0  0
 19 20  2  0  0  0  0
M  END
> <s_m_source_file>
AV-unprocessed.smi

> <i_m_source_file_index>
2465

> <i_lp_mmshare_version>
43012

> <i_f3d_flags>
0

> <s_epik_input>
W0NIM11jMVtjSF1bY0hdbltjSF1jMVtOSF1DKD1PKVtOSF1bQ0gyXVtDSDJdW0NIMl1OMltDSDJdW0NIMl1bQ0gyXUMyPU8=

> <s_epik_cmdline>
J2VwaWtfcHl0aG9uJywgJy1waCcsICc3LjAnLCAnLXRuJywgJzgnLCAnLW1hJywgJzIwMCcsICctbWV0YWxfYmluZGluZycsICctaW1hZScsICc8aW5maWxlLm1hZT4nLCAnLW9tYWUnLCAnPG91dGZpbGUubWFlPic=

> <r_epik_Ionization_Penalty>
0.0211997

> <r_epik_Ionization_Penalty_Charging>
0

> <r_epik_Ionization_Penalty_Neutral>
0.0211997

> <r_epik_State_Penalty>
0.0170047

> <r_epik_Charging_Adjusted_Penalty>
0.0170047

> <i_epik_Tot_Q>
0

> <i_epik_Tot_abs_Q>
0

> <r_epik_Metal_State_Penalty>
0.0163833

> <b_epik_Metal_Only>
0

> <s_lp_Force_Field>
OPLS_2005

> <r_lp_Energy>
19.6331

> <b_lp_Chiralities_Consistent>
1

> <s_lp_Variant>
AV-unprocessed.smi:2465-1

> <Gold.Version>
5.8.1

> <Gold.Id.Protein>
6NUR|6NUR_protein|mol2

> <Gold.PLP.Fitness>
41.8966

> <Gold.PLP.PLP>
-32.7606

> <Gold.PLP.part.hbond>
-3.0000

> <Gold.PLP.part.metal>
0.0000

> <Gold.PLP.part.buried>
-4.5392

> <Gold.PLP.part.nonpolar>
-30.3631

> <Gold.PLP.part.repulsive>
4.9552

> <Gold.PLP.ligand.clash>
0.0000

> <Gold.PLP.ligand.torsion>
0.9582

> <Gold.PLP.Chemscore.Hbond>
2.8720

> <Gold.PLP.Chemscore.CHOScore>
0.7964

> <Gold.PLP.Chemscore.Metal>
0.0000

> <Gold.Chemscore.Hbonds>
donor molecule, donor type, donor heavy atom, donor atom, acceptor molecule, acceptor atom, score
      L1  H     8    27       P1  7948  1.00
      L1  H    11    28       P1  7948  0.94
      P1  H  7989  7998       L1    20  0.91
      L1  C     6    26       P1 10171  0.76

> <Gold.PLP.Chemscore.Internal.Correction>
0.0472

> <Gold.Rescore>
     Score         DG    S(hbond)    S(metal)    S(lipo)     H(rot)  DE(clash)    DE(int)     intcor
     15.19     -18.14       2.60        0.00      72.02       1.74       1.95       0.99       ----

> <Gold.Chemscore.Fitness>
15.1949

> <Gold.Chemscore.DG>
-18.1359

> <Gold.Chemscore.ZeroCoef>
-5.4800

> <Gold.Chemscore.Hbond>
2.6007

> <Gold.Chemscore.Metal>
0.0000

> <Gold.Chemscore.Lipo>
72.0238

> <Gold.Chemscore.Internal_Hbond>
0.0000

> <Gold.Chemscore.DEClash>
1.9531

> <Gold.Chemscore.DEInternal>
0.9880

> <Gold.Chemscore.Rot>
1.7410

> <Gold.Chemscore.Internal.Correction>
   9.000000E+99

> <Gold.Chemscore.Hbonds>
donor molecule, donor type, donor heavy atom, donor atom, acceptor molecule, acceptor atom, score
      L1  H     8    27       P1  7948  0.99
      L1  H    11    28       P1  7948  0.91
      P1  H  7989  7998       L1    20  0.23

> <Gold.Chemscore.Hbond.Weighted>
-8.6862

> <Gold.Chemscore.Metal.Weighted>
-0.0000

> <Gold.Chemscore.Lipo.Weighted>
-8.4268

> <Gold.Chemscore.Internal_Hbond.Weighted>
0.0000

> <Gold.Chemscore.DEClash.Weighted>
1.9531

> <Gold.Chemscore.DEInternal.Weighted>
0.9880

> <Gold.Chemscore.Rot.Weighted>
4.4571

> <Gold.Chemscore.Internal.Correction.Weighted>
   9.000000E+99

> <Gold.Protein.RotatedTorsions>
[ 6907 6896 6895 6894 ] final -166.11 input  -60.11 | X-H torsion
[ 7974 7965 7964 7962 ] final  -79.53 input  175.53 | X-H torsion
[ 8008 7997 7996 7995 ] final  170.44 input   59.86 | X-H torsion
[ 10167 10162 10161 10158 ] final  146.29 input  -65.29 | X-H torsion
[ 10718 10713 10712 10709 ] final -155.05 input   66.30 | X-H torsion
[ 10763 10752 10751 10750 ] final -100.90 input  -60.55 | X-H torsion
[ 11005 11000 10999 10996 ] final   18.90 input  -57.11 | X-H torsion

> <Gold.Protein.ActiveResidues>
 VAL166  LYS551  ARG553  GLY616  TRP617  ASP618  TYR619  PRO620  LYS621  CYS622 
 ASP623  PHE694  ASN695  SER759  ASP760  ASP761  ALA762  ILE779  LEU786  VAL792 
 PHE793  MET794  SER795  GLU796  ALA797  LYS798  CYS799  TRP800  GLU811  SER814 

> <Gold.Protein.RotatedAtoms>
  151.4384  133.3650  159.2778 H   0  0  0  0  0  0  0  0  0  0  0  0  # atno 6907 bound_to 6896
  150.9175  134.8594  159.7477 H   0  0  0  0  0  0  0  0  0  0  0  0  # atno 6908 bound_to 6896
  152.4964  134.4319  159.9567 H   0  0  0  0  0  0  0  0  0  0  0  0  # atno 6909 bound_to 6896
  145.5720  140.9464  143.1390 H   0  0  0  0  0  0  0  0  0  0  0  0  # atno 7974 bound_to 7965
  156.1365  140.1538  156.8986 H   0  0  0  0  0  0  0  0  0  0  0  0  # atno 8008 bound_to 7997
  154.4952  140.0840  156.7719 H   0  0  0  0  0  0  0  0  0  0  0  0  # atno 8009 bound_to 7997
  155.4158  140.3421  155.4269 H   0  0  0  0  0  0  0  0  0  0  0  0  # atno 8010 bound_to 7997
  139.4910  144.5840  151.6815 H   0  0  0  0  0  0  0  0  0  0  0  0  # atno 10167 bound_to 10162
  156.5076  130.8420  151.2634 H   0  0  0  0  0  0  0  0  0  0  0  0  # atno 10718 bound_to 10713
  154.7615  135.4918  153.9474 H   0  0  0  0  0  0  0  0  0  0  0  0  # atno 10763 bound_to 10752
  153.1257  135.6742  153.9268 H   0  0  0  0  0  0  0  0  0  0  0  0  # atno 10764 bound_to 10752
  153.8986  135.3112  155.3427 H   0  0  0  0  0  0  0  0  0  0  0  0  # atno 10765 bound_to 10752
  140.4196  134.1532  155.7672 H   0  0  0  0  0  0  0  0  0  0  0  0  # atno 11005 bound_to 11000
  144.7433  139.7389  143.7302 LP  0  0  0  0  0  0  0  0  0  0  0  0  # atno 17320 bound_to 7965
  146.1777  139.4955  142.9886 LP  0  0  0  0  0  0  0  0  0  0  0  0  # atno 17321 bound_to 7965
  140.5452  144.0515  150.6104 LP  0  0  0  0  0  0  0  0  0  0  0  0  # atno 17342 bound_to 10162
  140.3550  143.2941  152.0445 LP  0  0  0  0  0  0  0  0  0  0  0  0  # atno 17343 bound_to 10162
  157.7455  130.9960  150.2765 LP  0  0  0  0  0  0  0  0  0  0  0  0  # atno 17370 bound_to 10713
  156.3271  130.3794  149.7523 LP  0  0  0  0  0  0  0  0  0  0  0  0  # atno 17371 bound_to 10713
  141.1789  133.8455  157.1326 LP  0  0  0  0  0  0  0  0  0  0  0  0  # atno 17394 bound_to 11000
  140.0209  134.9946  157.0590 LP  0  0  0  0  0  0  0  0  0  0  0  0  # atno 17395 bound_to 11000

$$$$
