AV-unprocessed.smi:2340|AV-procd|sdf|9351|dock1
  -GOLD-   2272012573D 1   1.00000     0.00000
 Structure written by MMmdl.
 40 41  0  0  0  0  0  0  0  0  1 V2000
  144.1124  132.4087  149.3853 C   0  0  0  0  0  0  0  0  0  0  0  0
  144.8317  133.1108  150.4933 C   0  0  0  0  0  0  0  0  0  0  0  0
  146.1259  132.9063  150.9017 C   0  0  0  0  0  0  0  0  0  0  0  0
  146.5654  133.9592  152.2186 S   0  0  0  0  0  0  0  0  0  0  0  0
  144.9430  134.6440  152.1739 C   0  0  0  0  0  0  0  0  0  0  0  0
  144.4881  135.7712  153.0537 C   0  0  1  0  0  0  0  0  0  0  0  0
  144.5326  135.3979  154.5423 C   0  0  0  0  0  0  0  0  0  0  0  0
  145.2234  137.1003  152.7592 C   0  0  0  0  0  0  0  0  0  0  0  0
  146.6490  137.0475  153.0730 N   0  0  0  0  0  0  0  0  0  0  0  0
  147.2480  137.7341  154.0548 C   0  0  0  0  0  0  0  0  0  0  0  0
  146.6487  138.4201  154.8830 O   0  0  0  0  0  0  0  0  0  0  0  0
  148.5809  137.6199  153.9931 N   0  0  0  0  0  0  0  0  0  0  0  0
  149.5223  138.3651  154.8221 C   0  0  1  0  0  0  0  0  0  0  0  0
  150.9415  137.8614  154.6520 C   0  0  0  0  0  0  0  0  0  0  0  0
  151.7797  139.0843  155.0218 C   0  0  0  0  0  0  0  0  0  0  0  0
  150.9458  140.2236  154.8274 O   0  0  0  0  0  0  0  0  0  0  0  0
  149.6640  139.8199  154.3605 C   0  0  2  0  0  0  0  0  0  0  0  0
  148.5822  140.7692  154.8907 C   0  0  0  0  0  0  0  0  0  0  0  0
  144.1717  134.0976  151.2292 N   0  0  0  0  0  0  0  0  0  0  0  0
  144.7654  131.7055  148.8678 H   0  0  0  0  0  0  0  0  0  0  0  0
  143.7418  133.1189  148.6456 H   0  0  0  0  0  0  0  0  0  0  0  0
  143.2575  131.8482  149.7641 H   0  0  0  0  0  0  0  0  0  0  0  0
  146.8474  132.2075  150.5050 H   0  0  0  0  0  0  0  0  0  0  0  0
  143.4352  135.9362  152.8190 H   0  0  0  0  0  0  0  0  0  0  0  0
  143.9369  134.5064  154.7405 H   0  0  0  0  0  0  0  0  0  0  0  0
  144.1359  136.2040  155.1600 H   0  0  0  0  0  0  0  0  0  0  0  0
  145.5521  135.1985  154.8734 H   0  0  0  0  0  0  0  0  0  0  0  0
  145.0779  137.4000  151.7203 H   0  0  0  0  0  0  0  0  0  0  0  0
  144.7955  137.8941  153.3719 H   0  0  0  0  0  0  0  0  0  0  0  0
  147.2314  136.5123  152.4457 H   0  0  0  0  0  0  0  0  0  0  0  0
  148.9753  137.0307  153.2745 H   0  0  0  0  0  0  0  0  0  0  0  0
  149.2524  138.3232  155.8794 H   0  0  0  0  0  0  0  0  0  0  0  0
  151.1642  136.9910  155.2700 H   0  0  0  0  0  0  0  0  0  0  0  0
  151.1293  137.5941  153.6107 H   0  0  0  0  0  0  0  0  0  0  0  0
  152.0724  139.0466  156.0716 H   0  0  0  0  0  0  0  0  0  0  0  0
  152.6869  139.1536  154.4210 H   0  0  0  0  0  0  0  0  0  0  0  0
  149.6868  139.8615  153.2699 H   0  0  0  0  0  0  0  0  0  0  0  0
  147.5957  140.4894  154.5214 H   0  0  0  0  0  0  0  0  0  0  0  0
  148.7741  141.7939  154.5719 H   0  0  0  0  0  0  0  0  0  0  0  0
  148.5475  140.7593  155.9804 H   0  0  0  0  0  0  0  0  0  0  0  0
  1  2  1  0  0  0  0
  1 20  1  0  0  0  0
  1 21  1  0  0  0  0
  1 22  1  0  0  0  0
  2 19  1  0  0  0  0
  2  3  2  0  0  0  0
  3  4  1  0  0  0  0
  3 23  1  0  0  0  0
  4  5  1  0  0  0  0
  5  6  1  0  0  0  0
  5 19  2  0  0  0  0
  6  7  1  0  0  0  0
  6  8  1  0  0  0  0
  6 24  1  0  0  0  0
  7 25  1  0  0  0  0
  7 26  1  0  0  0  0
  7 27  1  0  0  0  0
  8  9  1  0  0  0  0
  8 28  1  0  0  0  0
  8 29  1  0  0  0  0
  9 10  1  0  0  0  0
  9 30  1  0  0  0  0
 10 11  2  0  0  0  0
 10 12  1  0  0  0  0
 12 13  1  0  0  0  0
 12 31  1  0  0  0  0
 13 17  1  0  0  0  0
 13 14  1  0  0  0  0
 13 32  1  0  0  0  0
 14 15  1  0  0  0  0
 14 33  1  0  0  0  0
 14 34  1  0  0  0  0
 15 16  1  0  0  0  0
 15 35  1  0  0  0  0
 15 36  1  0  0  0  0
 16 17  1  0  0  0  0
 17 18  1  0  0  0  0
 17 37  1  0  0  0  0
 18 38  1  0  0  0  0
 18 39  1  0  0  0  0
 18 40  1  0  0  0  0
M  END
> <s_m_source_file>
AV-unprocessed.smi

> <i_m_source_file_index>
2340

> <i_lp_mmshare_version>
43012

> <i_f3d_flags>
0

> <s_epik_input>
W0NIM11jMVtjSF1zYyhuMSlbQ0BIXShbQ0gzXSlbQ0gyXVtOSF1DKD1PKVtOSF1bQ0BASF0yW0NIMl1bQ0gyXU9bQ0BIXTJbQ0gzXQ==

> <s_epik_cmdline>
J2VwaWtfcHl0aG9uJywgJy1waCcsICc3LjAnLCAnLXRuJywgJzgnLCAnLW1hJywgJzIwMCcsICctbWV0YWxfYmluZGluZycsICctaW1hZScsICc8aW5maWxlLm1hZT4nLCAnLW9tYWUnLCAnPG91dGZpbGUubWFlPic=

> <r_epik_Ionization_Penalty>
0.00156622

> <r_epik_Ionization_Penalty_Charging>
0

> <r_epik_Ionization_Penalty_Neutral>
0.00156622

> <r_epik_State_Penalty>
0.00101902

> <r_epik_Charging_Adjusted_Penalty>
0.00101902

> <i_epik_Tot_Q>
0

> <i_epik_Tot_abs_Q>
0

> <r_epik_Metal_State_Penalty>
-0

> <b_epik_Metal_Only>
0

> <s_lp_Force_Field>
OPLS_2005

> <r_lp_Energy>
3.95119

> <b_lp_Chiralities_Consistent>
1

> <s_lp_Variant>
AV-unprocessed.smi:2340-8

> <Gold.Version>
5.8.1

> <Gold.Id.Protein>
6NUR|6NUR_protein|mol2

> <Gold.PLP.Fitness>
42.0389

> <Gold.PLP.PLP>
-30.5804

> <Gold.PLP.part.hbond>
-2.9976

> <Gold.PLP.part.metal>
0.0000

> <Gold.PLP.part.buried>
-4.2721

> <Gold.PLP.part.nonpolar>
-24.4231

> <Gold.PLP.part.repulsive>
0.3372

> <Gold.PLP.ligand.clash>
0.0000

> <Gold.PLP.ligand.torsion>
0.2292

> <Gold.PLP.Chemscore.Hbond>
2.9280

> <Gold.PLP.Chemscore.CHOScore>
1.0000

> <Gold.PLP.Chemscore.Metal>
0.0000

> <Gold.Chemscore.Hbonds>
donor molecule, donor type, donor heavy atom, donor atom, acceptor molecule, acceptor atom, score
      L1  H     9    30       P1  7948  0.91
      L1  H    12    31       P1  7948  1.00
      P1  H  7989  7998       L1    16  1.00
      L1  C     3    23       P1 10747  1.00

> <Gold.PLP.Chemscore.Internal.Correction>
0.1329

> <Gold.Rescore>
     Score         DG    S(hbond)    S(metal)    S(lipo)     H(rot)  DE(clash)    DE(int)     intcor
     17.44     -17.78       1.99        0.00      81.81       1.53       0.03       0.31       ----

> <Gold.Chemscore.Fitness>
17.4435

> <Gold.Chemscore.DG>
-17.7799

> <Gold.Chemscore.ZeroCoef>
-5.4800

> <Gold.Chemscore.Hbond>
1.9916

> <Gold.Chemscore.Metal>
0.0000

> <Gold.Chemscore.Lipo>
81.8070

> <Gold.Chemscore.Internal_Hbond>
0.0000

> <Gold.Chemscore.DEClash>
0.0256

> <Gold.Chemscore.DEInternal>
0.3108

> <Gold.Chemscore.Rot>
1.5325

> <Gold.Chemscore.Internal.Correction>
   9.000000E+99

> <Gold.Chemscore.Hbonds>
donor molecule, donor type, donor heavy atom, donor atom, acceptor molecule, acceptor atom, score
      L1  H     9    30       P1  7948  0.90
      L1  H    12    31       P1  7948  0.97
      P1  H  7989  7998       L1    16  0.12

> <Gold.Chemscore.Hbond.Weighted>
-6.6518

> <Gold.Chemscore.Metal.Weighted>
-0.0000

> <Gold.Chemscore.Lipo.Weighted>
-9.5714

> <Gold.Chemscore.Internal_Hbond.Weighted>
0.0000

> <Gold.Chemscore.DEClash.Weighted>
0.0256

> <Gold.Chemscore.DEInternal.Weighted>
0.3108

> <Gold.Chemscore.Rot.Weighted>
3.9233

> <Gold.Chemscore.Internal.Correction.Weighted>
   9.000000E+99

> <Gold.Protein.RotatedTorsions>
[ 6907 6896 6895 6894 ] final  -74.64 input  -60.11 | X-H torsion
[ 7974 7965 7964 7962 ] final -150.16 input  175.53 | X-H torsion
[ 8008 7997 7996 7995 ] final  -74.97 input   59.86 | X-H torsion
[ 10167 10162 10161 10158 ] final -156.32 input  -65.29 | X-H torsion
[ 10718 10713 10712 10709 ] final -172.19 input   66.30 | X-H torsion
[ 10763 10752 10751 10750 ] final   49.68 input  -60.55 | X-H torsion
[ 11005 11000 10999 10996 ] final  -25.02 input  -57.11 | X-H torsion

> <Gold.Protein.ActiveResidues>
 VAL166  LYS551  ARG553  GLY616  TRP617  ASP618  TYR619  PRO620  LYS621  CYS622 
 ASP623  PHE694  ASN695  SER759  ASP760  ASP761  ALA762  ILE779  LEU786  VAL792 
 PHE793  MET794  SER795  GLU796  ALA797  LYS798  CYS799  TRP800  GLU811  SER814 

> <Gold.Protein.RotatedAtoms>
  150.7086  134.4839  159.5482 H   0  0  0  0  0  0  0  0  0  0  0  0  # atno 6907 bound_to 6896
  152.2470  134.8168  160.0461 H   0  0  0  0  0  0  0  0  0  0  0  0  # atno 6908 bound_to 6896
  151.8929  133.3485  159.3841 H   0  0  0  0  0  0  0  0  0  0  0  0  # atno 6909 bound_to 6896
  144.7924  140.4969  143.5763 H   0  0  0  0  0  0  0  0  0  0  0  0  # atno 7974 bound_to 7965
  154.5376  140.0752  156.8455 H   0  0  0  0  0  0  0  0  0  0  0  0  # atno 8008 bound_to 7997
  155.3246  140.3398  155.4222 H   0  0  0  0  0  0  0  0  0  0  0  0  # atno 8009 bound_to 7997
  156.1843  140.1663  156.8201 H   0  0  0  0  0  0  0  0  0  0  0  0  # atno 8010 bound_to 7997
  139.6860  143.9501  152.2361 H   0  0  0  0  0  0  0  0  0  0  0  0  # atno 10167 bound_to 10162
  156.7519  130.9381  151.3115 H   0  0  0  0  0  0  0  0  0  0  0  0  # atno 10718 bound_to 10713
  152.9786  135.5904  154.4129 H   0  0  0  0  0  0  0  0  0  0  0  0  # atno 10763 bound_to 10752
  154.3762  135.2767  155.2240 H   0  0  0  0  0  0  0  0  0  0  0  0  # atno 10764 bound_to 10752
  154.4173  135.6067  153.6043 H   0  0  0  0  0  0  0  0  0  0  0  0  # atno 10765 bound_to 10752
  140.8899  133.7595  156.0408 H   0  0  0  0  0  0  0  0  0  0  0  0  # atno 11005 bound_to 11000
  145.5760  139.1486  143.3262 LP  0  0  0  0  0  0  0  0  0  0  0  0  # atno 17320 bound_to 7965
  146.2181  140.5891  142.9029 LP  0  0  0  0  0  0  0  0  0  0  0  0  # atno 17321 bound_to 7965
  139.9304  144.6745  150.8369 LP  0  0  0  0  0  0  0  0  0  0  0  0  # atno 17342 bound_to 10162
  140.7668  143.3313  151.2404 LP  0  0  0  0  0  0  0  0  0  0  0  0  # atno 17343 bound_to 10162
  157.6773  130.9106  150.0181 LP  0  0  0  0  0  0  0  0  0  0  0  0  # atno 17370 bound_to 10713
  156.1396  130.3642  149.9604 LP  0  0  0  0  0  0  0  0  0  0  0  0  # atno 17371 bound_to 10713
  140.8359  134.3123  157.5331 LP  0  0  0  0  0  0  0  0  0  0  0  0  # atno 17394 bound_to 11000
  139.8728  134.9389  156.3728 LP  0  0  0  0  0  0  0  0  0  0  0  0  # atno 17395 bound_to 11000

$$$$
