AV-unprocessed.smi:882|AV-procd|sdf|4037|dock3
  -GOLD-   22720 1533D 1   1.00000     0.00000
 Structure written by MMmdl.
 33 34  0  0  0  0  0  0  0  0  1 V2000
  153.3813  135.3458  164.4217 C   0  0  0  0  0  0  0  0  0  0  0  0
  154.1390  135.7971  163.5771 C   0  0  0  0  0  0  0  0  0  0  0  0
  155.0431  136.3355  162.5467 C   0  0  0  0  0  0  0  0  0  0  0  0
  154.5262  137.5480  161.9224 N   0  0  0  0  0  0  0  0  0  0  0  0
  153.6152  137.5876  160.9352 C   0  0  0  0  0  0  0  0  0  0  0  0
  153.1261  136.5823  160.4195 O   0  0  0  0  0  0  0  0  0  0  0  0
  153.2597  138.9581  160.4357 C   0  0  0  0  0  0  0  0  0  0  0  0
  152.4117  139.1474  159.3226 C   0  0  0  0  0  0  0  0  0  0  0  0
  152.1344  140.4571  158.8864 C   0  0  0  0  0  0  0  0  0  0  0  0
  152.7201  141.5513  159.5662 C   0  0  0  0  0  0  0  0  0  0  0  0
  152.4582  142.8732  159.1448 N   0  0  0  0  0  0  0  0  0  0  0  0
  152.1018  143.8162  160.2022 C   0  0  0  0  0  0  0  0  0  0  0  0
  152.1428  145.2593  159.6706 C   0  0  0  0  0  0  0  0  0  0  0  0
  151.3088  145.3746  158.5226 O   0  0  0  0  0  0  0  0  0  0  0  0
  151.7456  144.5287  157.4645 C   0  0  0  0  0  0  0  0  0  0  0  0
  151.6858  143.0604  157.9178 C   0  0  0  0  0  0  0  0  0  0  0  0
  153.5378  141.3663  160.6319 N   0  0  0  0  0  0  0  0  0  0  0  0
  153.8023  140.1091  161.0457 C   0  0  0  0  0  0  0  0  0  0  0  0
  152.7169  134.9529  165.1581 H   0  0  0  0  0  0  0  0  0  0  0  0
  155.9964  136.5637  163.0229 H   0  0  0  0  0  0  0  0  0  0  0  0
  155.2326  135.5573  161.8058 H   0  0  0  0  0  0  0  0  0  0  0  0
  154.8893  138.4251  162.2662 H   0  0  0  0  0  0  0  0  0  0  0  0
  151.9737  138.3082  158.8018 H   0  0  0  0  0  0  0  0  0  0  0  0
  151.4706  140.6054  158.0479 H   0  0  0  0  0  0  0  0  0  0  0  0
  151.0988  143.5793  160.5597 H   0  0  0  0  0  0  0  0  0  0  0  0
  152.7696  143.7365  161.0586 H   0  0  0  0  0  0  0  0  0  0  0  0
  151.7897  145.9508  160.4356 H   0  0  0  0  0  0  0  0  0  0  0  0
  153.1641  145.5533  159.4228 H   0  0  0  0  0  0  0  0  0  0  0  0
  151.1004  144.6806  156.5991 H   0  0  0  0  0  0  0  0  0  0  0  0
  152.7572  144.8012  157.1595 H   0  0  0  0  0  0  0  0  0  0  0  0
  152.0760  142.4220  157.1241 H   0  0  0  0  0  0  0  0  0  0  0  0
  150.6500  142.7667  158.0942 H   0  0  0  0  0  0  0  0  0  0  0  0
  154.4649  140.0275  161.8952 H   0  0  0  0  0  0  0  0  0  0  0  0
  1  2  3  0  0  0  0
  1 19  1  0  0  0  0
  2  3  1  0  0  0  0
  3  4  1  0  0  0  0
  3 20  1  0  0  0  0
  3 21  1  0  0  0  0
  4  5  1  0  0  0  0
  4 22  1  0  0  0  0
  5  6  2  0  0  0  0
  5  7  1  0  0  0  0
  7 18  1  0  0  0  0
  7  8  2  0  0  0  0
  8  9  1  0  0  0  0
  8 23  1  0  0  0  0
  9 10  2  0  0  0  0
  9 24  1  0  0  0  0
 10 11  1  0  0  0  0
 10 17  1  0  0  0  0
 11 16  1  0  0  0  0
 11 12  1  0  0  0  0
 12 13  1  0  0  0  0
 12 25  1  0  0  0  0
 12 26  1  0  0  0  0
 13 14  1  0  0  0  0
 13 27  1  0  0  0  0
 13 28  1  0  0  0  0
 14 15  1  0  0  0  0
 15 16  1  0  0  0  0
 15 29  1  0  0  0  0
 15 30  1  0  0  0  0
 16 31  1  0  0  0  0
 16 32  1  0  0  0  0
 17 18  2  0  0  0  0
 18 33  1  0  0  0  0
M  END
> <s_m_source_file>
AV-unprocessed.smi

> <i_m_source_file_index>
882

> <i_lp_mmshare_version>
43012

> <i_f3d_flags>
0

> <s_epik_input>
W0NIXSNDW0NIMl1bTkhdQyg9TyljMVtjSF1bY0hdYyhuW2NIXTEpTjJbQ0gyXVtDSDJdT1tDSDJdW0NIMl0y

> <s_epik_cmdline>
J2VwaWtfcHl0aG9uJywgJy1waCcsICc3LjAnLCAnLXRuJywgJzgnLCAnLW1hJywgJzIwMCcsICctbWV0YWxfYmluZGluZycsICctaW1hZScsICc8aW5maWxlLm1hZT4nLCAnLW9tYWUnLCAnPG91dGZpbGUubWFlPic=

> <r_lp_tautomer_probability>
1

> <r_epik_Ionization_Penalty>
1.53095e-05

> <r_epik_Ionization_Penalty_Charging>
0

> <r_epik_Ionization_Penalty_Neutral>
1.53095e-05

> <r_epik_State_Penalty>
-0

> <r_epik_Charging_Adjusted_Penalty>
0

> <i_epik_Tot_Q>
0

> <i_epik_Tot_abs_Q>
0

> <r_epik_Metal_State_Penalty>
-0

> <b_epik_Metal_Only>
0

> <s_lp_Force_Field>
OPLS_2005

> <r_lp_Energy>
17.8132

> <b_lp_Chiralities_Consistent>
1

> <s_lp_Variant>
AV-unprocessed.smi:882-1

> <Gold.Version>
5.8.1

> <Gold.Id.Protein>
6NUR|6NUR_protein|mol2

> <Gold.PLP.Fitness>
37.7618

> <Gold.PLP.PLP>
-35.0958

> <Gold.PLP.part.hbond>
-1.3073

> <Gold.PLP.part.metal>
0.0000

> <Gold.PLP.part.buried>
-5.4822

> <Gold.PLP.part.nonpolar>
-28.3970

> <Gold.PLP.part.repulsive>
0.1398

> <Gold.PLP.ligand.clash>
0.0000

> <Gold.PLP.ligand.torsion>
0.3362

> <Gold.PLP.Chemscore.Hbond>
1.0000

> <Gold.PLP.Chemscore.CHOScore>
0.0000

> <Gold.PLP.Chemscore.Metal>
0.0000

> <Gold.Chemscore.Hbonds>
donor molecule, donor type, donor heavy atom, donor atom, acceptor molecule, acceptor atom, score
      P1  H  6896  6907       L1     6  1.00

> <Gold.PLP.Chemscore.Internal.Correction>
0.3384

> <Gold.Rescore>
     Score         DG    S(hbond)    S(metal)    S(lipo)     H(rot)  DE(clash)    DE(int)     intcor
     16.71     -17.05       1.00        0.00      96.41       1.19       0.01       0.33       ----

> <Gold.Chemscore.Fitness>
16.7096

> <Gold.Chemscore.DG>
-17.0510

> <Gold.Chemscore.ZeroCoef>
-5.4800

> <Gold.Chemscore.Hbond>
0.9983

> <Gold.Chemscore.Metal>
0.0000

> <Gold.Chemscore.Lipo>
96.4095

> <Gold.Chemscore.Internal_Hbond>
0.0000

> <Gold.Chemscore.DEClash>
0.0075

> <Gold.Chemscore.DEInternal>
0.3339

> <Gold.Chemscore.Rot>
1.1887

> <Gold.Chemscore.Internal.Correction>
   9.000000E+99

> <Gold.Chemscore.Hbonds>
donor molecule, donor type, donor heavy atom, donor atom, acceptor molecule, acceptor atom, score
      P1  H  6896  6907       L1     6  1.00

> <Gold.Chemscore.Hbond.Weighted>
-3.3342

> <Gold.Chemscore.Metal.Weighted>
-0.0000

> <Gold.Chemscore.Lipo.Weighted>
-11.2799

> <Gold.Chemscore.Internal_Hbond.Weighted>
0.0000

> <Gold.Chemscore.DEClash.Weighted>
0.0075

> <Gold.Chemscore.DEInternal.Weighted>
0.3339

> <Gold.Chemscore.Rot.Weighted>
3.0432

> <Gold.Chemscore.Internal.Correction.Weighted>
   9.000000E+99

> <Gold.Protein.RotatedTorsions>
[ 6907 6896 6895 6894 ] final   36.17 input  -60.11 | X-H torsion
[ 7974 7965 7964 7962 ] final -105.78 input  175.53 | X-H torsion
[ 8008 7997 7996 7995 ] final   -1.57 input   59.86 | X-H torsion
[ 10167 10162 10161 10158 ] final  -67.95 input  -65.29 | X-H torsion
[ 10718 10713 10712 10709 ] final  -49.13 input   66.30 | X-H torsion
[ 10763 10752 10751 10750 ] final  147.14 input  -60.55 | X-H torsion
[ 11005 11000 10999 10996 ] final   72.21 input  -57.11 | X-H torsion

> <Gold.Protein.ActiveResidues>
 VAL166  LYS551  ARG553  GLY616  TRP617  ASP618  TYR619  PRO620  LYS621  CYS622 
 ASP623  PHE694  ASN695  SER759  ASP760  ASP761  ALA762  ILE779  LEU786  VAL792 
 PHE793  MET794  SER795  GLU796  ALA797  LYS798  CYS799  TRP800  GLU811  SER814 

> <Gold.Protein.RotatedAtoms>
  152.1261  134.9170  160.0560 H   0  0  0  0  0  0  0  0  0  0  0  0  # atno 6907 bound_to 6896
  152.0292  133.3925  159.4298 H   0  0  0  0  0  0  0  0  0  0  0  0  # atno 6908 bound_to 6896
  150.6852  134.3461  159.4932 H   0  0  0  0  0  0  0  0  0  0  0  0  # atno 6909 bound_to 6896
  145.2261  140.9153  143.3231 H   0  0  0  0  0  0  0  0  0  0  0  0  # atno 7974 bound_to 7965
  154.6454  140.2556  155.7274 H   0  0  0  0  0  0  0  0  0  0  0  0  # atno 8008 bound_to 7997
  156.2549  140.2879  156.0785 H   0  0  0  0  0  0  0  0  0  0  0  0  # atno 8009 bound_to 7997
  155.1533  140.0382  157.2816 H   0  0  0  0  0  0  0  0  0  0  0  0  # atno 8010 bound_to 7997
  140.5544  143.2312  151.6849 H   0  0  0  0  0  0  0  0  0  0  0  0  # atno 10167 bound_to 10162
  156.1923  130.4153  149.9355 H   0  0  0  0  0  0  0  0  0  0  0  0  # atno 10718 bound_to 10713
  154.0335  135.2895  155.3365 H   0  0  0  0  0  0  0  0  0  0  0  0  # atno 10763 bound_to 10752
  154.6973  135.5202  153.8480 H   0  0  0  0  0  0  0  0  0  0  0  0  # atno 10764 bound_to 10752
  153.0630  135.6620  154.0545 H   0  0  0  0  0  0  0  0  0  0  0  0  # atno 10765 bound_to 10752
  139.9503  134.7239  156.0879 H   0  0  0  0  0  0  0  0  0  0  0  0  # atno 11005 bound_to 11000
  144.9720  139.3871  143.6304 LP  0  0  0  0  0  0  0  0  0  0  0  0  # atno 17320 bound_to 7965
  146.3364  139.8821  142.8822 LP  0  0  0  0  0  0  0  0  0  0  0  0  # atno 17321 bound_to 7965
  139.5041  144.3765  152.0419 LP  0  0  0  0  0  0  0  0  0  0  0  0  # atno 17342 bound_to 10162
  140.2885  144.3780  150.6096 LP  0  0  0  0  0  0  0  0  0  0  0  0  # atno 17343 bound_to 10162
  156.7091  130.8963  151.3607 LP  0  0  0  0  0  0  0  0  0  0  0  0  # atno 17370 bound_to 10713
  157.6936  130.9259  150.0582 LP  0  0  0  0  0  0  0  0  0  0  0  0  # atno 17371 bound_to 10713
  141.1164  133.6626  156.3104 LP  0  0  0  0  0  0  0  0  0  0  0  0  # atno 17394 bound_to 11000
  140.5736  134.5816  157.5463 LP  0  0  0  0  0  0  0  0  0  0  0  0  # atno 17395 bound_to 11000

$$$$
