AV-unprocessed.smi:1047|AV-procd|sdf|4583|dock3
  -GOLD-   22720 3 53D 1   1.00000     0.00000
 Structure written by MMmdl.
 58 60  0  0  0  0  0  0  0  0  4 V2000
  145.2950  131.6169  151.5688 C   0  0  0  0  0  0  0  0  0  0  0  0
  146.4198  132.6334  151.8122 C   0  0  0  0  0  0  0  0  0  0  0  0
  146.9190  132.6108  153.2103 N   0  3  2  0  0  0  0  0  0  0  0  0
  145.8804  132.9467  154.2151 C   0  0  0  0  0  0  0  0  0  0  0  0
  146.4651  132.8792  155.6346 C   0  0  0  0  0  0  0  0  0  0  0  0
  147.5831  133.7526  155.7291 O   0  0  0  0  0  0  0  0  0  0  0  0
  148.6366  133.3859  154.8458 C   0  0  2  0  0  0  0  0  0  0  0  0
  149.8109  134.3416  155.1162 C   0  0  0  0  0  0  0  0  0  0  0  0
  149.4911  135.7354  154.7434 N   0  3  0  0  0  0  0  0  0  0  0  0
  150.6220  136.6707  154.9108 C   0  0  0  0  0  0  0  0  0  0  0  0
  150.1556  138.1374  154.9133 C   0  0  2  0  0  0  0  0  0  0  0  0
  149.5689  138.4026  153.6557 O   0  0  0  0  0  0  0  0  0  0  0  0
  151.3062  139.1328  155.1732 C   0  0  0  0  0  0  0  0  0  0  0  0
  150.8402  140.4295  155.6881 N   0  0  0  0  0  0  0  0  0  0  0  0
  149.9412  141.3039  155.1582 C   0  0  0  0  0  0  0  0  0  0  0  0
  149.8377  142.3576  156.0142 N   0  3  0  0  0  0  0  0  0  0  0  0
  150.6818  142.1549  157.1079 C   0  0  0  0  0  0  0  0  0  0  0  0
  150.9203  142.9393  158.2301 C   0  0  0  0  0  0  0  0  0  0  0  0
  151.8517  142.4496  159.1733 C   0  0  0  0  0  0  0  0  0  0  0  0
  152.1361  143.2825  160.4118 C   0  0  0  0  0  0  0  0  0  0  0  0
  152.5105  141.2092  158.9720 C   0  0  0  0  0  0  0  0  0  0  0  0
  153.5133  140.6939  159.9904 C   0  0  0  0  0  0  0  0  0  0  0  0
  152.2532  140.4258  157.8243 C   0  0  0  0  0  0  0  0  0  0  0  0
  151.3302  140.9210  156.9054 C   0  0  0  0  0  0  0  0  0  0  0  0
  148.1145  133.4702  153.3948 C   0  0  0  0  0  0  0  0  0  0  0  0
  145.0205  131.5960  150.5139 H   0  0  0  0  0  0  0  0  0  0  0  0
  144.3930  131.8620  152.1293 H   0  0  0  0  0  0  0  0  0  0  0  0
  145.6042  130.6092  151.8483 H   0  0  0  0  0  0  0  0  0  0  0  0
  147.2416  132.3891  151.1377 H   0  0  0  0  0  0  0  0  0  0  0  0
  146.0910  133.6395  151.5473 H   0  0  0  0  0  0  0  0  0  0  0  0
  145.4906  133.9472  154.0206 H   0  0  0  0  0  0  0  0  0  0  0  0
  145.0403  132.2567  154.1426 H   0  0  0  0  0  0  0  0  0  0  0  0
  145.7154  133.1854  156.3644 H   0  0  0  0  0  0  0  0  0  0  0  0
  146.7592  131.8595  155.8891 H   0  0  0  0  0  0  0  0  0  0  0  0
  148.9480  132.3647  155.0749 H   0  0  0  0  0  0  0  0  0  0  0  0
  150.1045  134.2957  156.1658 H   0  0  0  0  0  0  0  0  0  0  0  0
  150.6758  134.0240  154.5319 H   0  0  0  0  0  0  0  0  0  0  0  0
  149.2040  135.7541  153.7751 H   0  0  0  0  0  0  0  0  0  0  0  0
  151.1579  136.4407  155.8330 H   0  0  0  0  0  0  0  0  0  0  0  0
  151.3209  136.5084  154.0885 H   0  0  0  0  0  0  0  0  0  0  0  0
  149.3786  138.2709  155.6673 H   0  0  0  0  0  0  0  0  0  0  0  0
  149.6425  137.6284  153.1181 H   0  0  0  0  0  0  0  0  0  0  0  0
  151.9922  138.7250  155.9165 H   0  0  0  0  0  0  0  0  0  0  0  0
  151.8992  139.2959  154.2731 H   0  0  0  0  0  0  0  0  0  0  0  0
  149.4036  141.1848  154.2284 H   0  0  0  0  0  0  0  0  0  0  0  0
  150.4159  143.8836  158.3761 H   0  0  0  0  0  0  0  0  0  0  0  0
  151.8782  142.7277  161.3141 H   0  0  0  0  0  0  0  0  0  0  0  0
  151.5578  144.2070  160.4129 H   0  0  0  0  0  0  0  0  0  0  0  0
  153.1918  143.5508  160.4590 H   0  0  0  0  0  0  0  0  0  0  0  0
  153.9171  139.7241  159.6981 H   0  0  0  0  0  0  0  0  0  0  0  0
  153.0430  140.5771  160.9670 H   0  0  0  0  0  0  0  0  0  0  0  0
  154.3495  141.3867  160.0887 H   0  0  0  0  0  0  0  0  0  0  0  0
  152.7606  139.4847  157.6727 H   0  0  0  0  0  0  0  0  0  0  0  0
  148.8965  133.1584  152.7013 H   0  0  0  0  0  0  0  0  0  0  0  0
  147.8586  134.5014  153.1454 H   0  0  0  0  0  0  0  0  0  0  0  0
  148.7250  136.0570  155.3175 H   0  0  0  0  0  0  0  0  0  0  0  0
  147.2137  131.6626  153.3960 H   0  0  0  0  0  0  0  0  0  0  0  0
  149.2327  143.1548  155.8623 H   0  0  0  0  0  0  0  0  0  0  0  0
  1  2  1  0  0  0  0
  1 26  1  0  0  0  0
  1 27  1  0  0  0  0
  1 28  1  0  0  0  0
  2  3  1  0  0  0  0
  2 29  1  0  0  0  0
  2 30  1  0  0  0  0
  3 25  1  0  0  0  0
  3  4  1  0  0  0  0
  3 57  1  0  0  0  0
  4  5  1  0  0  0  0
  4 31  1  0  0  0  0
  4 32  1  0  0  0  0
  5  6  1  0  0  0  0
  5 33  1  0  0  0  0
  5 34  1  0  0  0  0
  6  7  1  0  0  0  0
  7  8  1  0  0  0  0
  7 25  1  0  0  0  0
  7 35  1  0  0  0  0
  8  9  1  0  0  0  0
  8 36  1  0  0  0  0
  8 37  1  0  0  0  0
  9 10  1  0  0  0  0
  9 38  1  0  0  0  0
  9 56  1  0  0  0  0
 10 11  1  0  0  0  0
 10 39  1  0  0  0  0
 10 40  1  0  0  0  0
 11 12  1  0  0  0  0
 11 13  1  0  0  0  0
 11 41  1  0  0  0  0
 12 42  1  0  0  0  0
 13 14  1  0  0  0  0
 13 43  1  0  0  0  0
 13 44  1  0  0  0  0
 14 24  1  0  0  0  0
 14 15  1  0  0  0  0
 15 16  2  0  0  0  0
 15 45  1  0  0  0  0
 16 17  1  0  0  0  0
 16 58  1  0  0  0  0
 17 24  2  0  0  0  0
 17 18  1  0  0  0  0
 18 19  2  0  0  0  0
 18 46  1  0  0  0  0
 19 20  1  0  0  0  0
 19 21  1  0  0  0  0
 20 47  1  0  0  0  0
 20 48  1  0  0  0  0
 20 49  1  0  0  0  0
 21 22  1  0  0  0  0
 21 23  2  0  0  0  0
 22 50  1  0  0  0  0
 22 51  1  0  0  0  0
 22 52  1  0  0  0  0
 23 24  1  0  0  0  0
 23 53  1  0  0  0  0
 25 54  1  0  0  0  0
 25 55  1  0  0  0  0
M  CHG  1   3   1
M  CHG  1   9   1
M  CHG  1  16   1
M  END
> <s_m_source_file>
AV-unprocessed.smi

> <i_m_source_file_index>
1047

> <i_lp_mmshare_version>
43012

> <i_f3d_flags>
0

> <s_epik_input>
W0NIM11bQ0gyXU4xW0NIMl1bQ0gyXU9bQ0BIXShbQ0gyXTEpW0NIMl1bTkhdW0NIMl1bQ0BIXShbT0hdKVtDSDJdbihbY0hdbjIpYyhjMjMpW2NIXWMoW0NIM10pYyhbY0hdMylbQ0gzXQ==

> <s_epik_cmdline>
J2VwaWtfcHl0aG9uJywgJy1waCcsICc3LjAnLCAnLXRuJywgJzgnLCAnLW1hJywgJzIwMCcsICctbWV0YWxfYmluZGluZycsICctaW1hZScsICc8aW5maWxlLm1hZT4nLCAnLW9tYWUnLCAnPG91dGZpbGUubWFlPic=

> <r_epik_Ionization_Penalty>
1.6114

> <r_epik_Ionization_Penalty_Charging>
1.61139

> <r_epik_Ionization_Penalty_Neutral>
5.04732e-06

> <r_epik_State_Penalty>
1.63724

> <r_epik_Charging_Adjusted_Penalty>
3.24864

> <i_epik_Tot_Q>
3

> <i_epik_Tot_abs_Q>
3

> <r_epik_Metal_State_Penalty>
5.64594

> <b_epik_Metal_Only>
0

> <s_lp_Force_Field>
OPLS_2005

> <r_lp_Energy>
40.251

> <b_lp_Chiralities_Consistent>
1

> <s_lp_Variant>
AV-unprocessed.smi:1047-24

> <Gold.Version>
5.8.1

> <Gold.Id.Protein>
6NUR|6NUR_protein|mol2

> <Gold.PLP.Fitness>
62.3536

> <Gold.PLP.PLP>
-47.9164

> <Gold.PLP.part.hbond>
-3.9939

> <Gold.PLP.part.metal>
0.0000

> <Gold.PLP.part.buried>
-2.4006

> <Gold.PLP.part.nonpolar>
-40.4494

> <Gold.PLP.part.repulsive>
0.1836

> <Gold.PLP.ligand.clash>
0.0000

> <Gold.PLP.ligand.torsion>
0.3474

> <Gold.PLP.Chemscore.Hbond>
5.0000

> <Gold.PLP.Chemscore.CHOScore>
0.0000

> <Gold.PLP.Chemscore.Metal>
0.0000

> <Gold.Chemscore.Hbonds>
donor molecule, donor type, donor heavy atom, donor atom, acceptor molecule, acceptor atom, score
      L1  H     9    38       P1  7948  2.00
      L1  H    12    42       P1  7948  1.00
      L1  H    16    58       P1  8028  2.00

> <Gold.PLP.Chemscore.Internal.Correction>
0.1319

> <Gold.Rescore>
     Score         DG    S(hbond)    S(metal)    S(lipo)     H(rot)  DE(clash)    DE(int)     intcor
     20.55     -21.21       2.81        0.00     115.29       2.78       0.13       0.54       ----

> <Gold.Chemscore.Fitness>
20.5467

> <Gold.Chemscore.DG>
-21.2146

> <Gold.Chemscore.ZeroCoef>
-5.4800

> <Gold.Chemscore.Hbond>
2.8070

> <Gold.Chemscore.Metal>
0.0000

> <Gold.Chemscore.Lipo>
115.2859

> <Gold.Chemscore.Internal_Hbond>
0.0000

> <Gold.Chemscore.DEClash>
0.1299

> <Gold.Chemscore.DEInternal>
0.5381

> <Gold.Chemscore.Rot>
2.7848

> <Gold.Chemscore.Internal.Correction>
   9.000000E+99

> <Gold.Chemscore.Hbonds>
donor molecule, donor type, donor heavy atom, donor atom, acceptor molecule, acceptor atom, score
      L1  H     9    38       P1  7948  0.73
      L1  H    12    42       P1  7948  0.72
      L1  H    16    58       P1  8028  0.98

> <Gold.Chemscore.Hbond.Weighted>
-9.3752

> <Gold.Chemscore.Metal.Weighted>
-0.0000

> <Gold.Chemscore.Lipo.Weighted>
-13.4885

> <Gold.Chemscore.Internal_Hbond.Weighted>
0.0000

> <Gold.Chemscore.DEClash.Weighted>
0.1299

> <Gold.Chemscore.DEInternal.Weighted>
0.5381

> <Gold.Chemscore.Rot.Weighted>
7.1291

> <Gold.Chemscore.Internal.Correction.Weighted>
   9.000000E+99

> <Gold.Protein.RotatedTorsions>
[ 6907 6896 6895 6894 ] final -129.27 input  -60.11 | X-H torsion
[ 7974 7965 7964 7962 ] final  179.10 input  175.53 | X-H torsion
[ 8008 7997 7996 7995 ] final  -29.60 input   59.86 | X-H torsion
[ 10167 10162 10161 10158 ] final  -71.82 input  -65.29 | X-H torsion
[ 10718 10713 10712 10709 ] final   -0.52 input   66.30 | X-H torsion
[ 10763 10752 10751 10750 ] final   26.32 input  -60.55 | X-H torsion
[ 11005 11000 10999 10996 ] final   59.74 input  -57.11 | X-H torsion

> <Gold.Protein.ActiveResidues>
 VAL166  LYS551  ARG553  GLY616  TRP617  ASP618  TYR619  PRO620  LYS621  CYS622 
 ASP623  PHE694  ASN695  SER759  ASP760  ASP761  ALA762  ILE779  LEU786  VAL792 
 PHE793  MET794  SER795  GLU796  ALA797  LYS798  CYS799  TRP800  GLU811  SER814 

> <Gold.Protein.RotatedAtoms>
  150.9269  133.6813  159.2819 H   0  0  0  0  0  0  0  0  0  0  0  0  # atno 6907 bound_to 6896
  151.4248  135.1001  159.9634 H   0  0  0  0  0  0  0  0  0  0  0  0  # atno 6908 bound_to 6896
  152.5007  133.8713  159.7355 H   0  0  0  0  0  0  0  0  0  0  0  0  # atno 6909 bound_to 6896
  144.7149  140.0497  143.6435 H   0  0  0  0  0  0  0  0  0  0  0  0  # atno 7974 bound_to 7965
  154.4283  140.1814  156.1274 H   0  0  0  0  0  0  0  0  0  0  0  0  # atno 8008 bound_to 7997
  156.0095  140.3352  155.6901 H   0  0  0  0  0  0  0  0  0  0  0  0  # atno 8009 bound_to 7997
  155.6131  140.0652  157.2691 H   0  0  0  0  0  0  0  0  0  0  0  0  # atno 8010 bound_to 7997
  140.5242  143.2328  151.7376 H   0  0  0  0  0  0  0  0  0  0  0  0  # atno 10167 bound_to 10162
  156.8192  130.5450  149.5699 H   0  0  0  0  0  0  0  0  0  0  0  0  # atno 10718 bound_to 10713
  153.0631  135.6563  154.0417 H   0  0  0  0  0  0  0  0  0  0  0  0  # atno 10763 bound_to 10752
  154.0080  135.2931  155.3397 H   0  0  0  0  0  0  0  0  0  0  0  0  # atno 10764 bound_to 10752
  154.6977  135.5257  153.8551 H   0  0  0  0  0  0  0  0  0  0  0  0  # atno 10765 bound_to 10752
  140.0282  134.6052  155.9544 H   0  0  0  0  0  0  0  0  0  0  0  0  # atno 11005 bound_to 11000
  145.9955  139.3049  143.0959 LP  0  0  0  0  0  0  0  0  0  0  0  0  # atno 17320 bound_to 7965
  145.8854  140.9337  143.0579 LP  0  0  0  0  0  0  0  0  0  0  0  0  # atno 17321 bound_to 7965
  139.4933  144.4210  151.9978 LP  0  0  0  0  0  0  0  0  0  0  0  0  # atno 17342 bound_to 10162
  140.3308  144.3318  150.5988 LP  0  0  0  0  0  0  0  0  0  0  0  0  # atno 17343 bound_to 10162
  156.0999  130.5961  150.9876 LP  0  0  0  0  0  0  0  0  0  0  0  0  # atno 17370 bound_to 10713
  157.6466  131.0903  150.8141 LP  0  0  0  0  0  0  0  0  0  0  0  0  # atno 17371 bound_to 10713
  141.1815  133.6547  156.5040 LP  0  0  0  0  0  0  0  0  0  0  0  0  # atno 17394 bound_to 11000
  140.4271  134.7135  157.4922 LP  0  0  0  0  0  0  0  0  0  0  0  0  # atno 17395 bound_to 11000

$$$$
