AV-unprocessed.smi:47|AV-procd|sdf|432|dock7
  -GOLD-   2262016303D 1   1.00000     0.00000
 Structure written by MMmdl.
 32 34  0  0  0  0  0  0  0  0  2 V2000
  145.4858  139.6417  154.1520 O   0  0  0  0  0  0  0  0  0  0  0  0
  146.7248  140.1186  153.6718 C   0  0  2  0  0  0  0  0  0  0  0  0
  147.7312  138.9855  153.4416 C   0  0  0  0  0  0  0  0  0  0  0  0
  149.0678  139.5716  153.6677 N   0  3  0  0  0  0  0  0  0  0  0  0
  148.8900  140.9245  154.2367 C   0  0  2  0  0  0  0  0  0  0  0  0
  149.9005  141.0295  155.3399 C   0  0  0  0  0  0  0  0  0  0  0  0
  150.7799  140.0520  155.5824 N   0  0  0  0  0  0  0  0  0  0  0  0
  151.5763  140.4068  156.6133 N   0  0  0  0  0  0  0  0  0  0  0  0
  151.1015  141.6137  156.9168 C   0  0  0  0  0  0  0  0  0  0  0  0
  151.6769  142.4260  158.0143 C   0  0  0  0  0  0  0  0  0  0  0  0
  152.3331  141.8127  159.1095 C   0  0  0  0  0  0  0  0  0  0  0  0
  152.8813  142.5808  160.1549 C   0  0  0  0  0  0  0  0  0  0  0  0
  152.7832  143.9831  160.1248 C   0  0  0  0  0  0  0  0  0  0  0  0
  152.1352  144.6120  159.0472 C   0  0  0  0  0  0  0  0  0  0  0  0
  151.5884  143.8396  158.0043 C   0  0  0  0  0  0  0  0  0  0  0  0
  150.0546  142.0661  156.1622 N   0  0  0  0  0  0  0  0  0  0  0  0
  147.4303  141.0105  154.6886 C   0  0  0  0  0  0  0  0  0  0  0  0
  146.5689  140.6703  152.7434 H   0  0  0  0  0  0  0  0  0  0  0  0
  149.0954  141.6606  153.4579 H   0  0  0  0  0  0  0  0  0  0  0  0
  144.7892  140.0879  153.6940 H   0  0  0  0  0  0  0  0  0  0  0  0
  147.5906  138.1894  154.1743 H   0  0  0  0  0  0  0  0  0  0  0  0
  147.6458  138.5462  152.4472 H   0  0  0  0  0  0  0  0  0  0  0  0
  149.5704  138.9953  154.3287 H   0  0  0  0  0  0  0  0  0  0  0  0
  152.4229  140.7376  159.1614 H   0  0  0  0  0  0  0  0  0  0  0  0
  153.3772  142.0922  160.9808 H   0  0  0  0  0  0  0  0  0  0  0  0
  153.2031  144.5742  160.9255 H   0  0  0  0  0  0  0  0  0  0  0  0
  152.0570  145.6890  159.0193 H   0  0  0  0  0  0  0  0  0  0  0  0
  151.0967  144.3511  157.1900 H   0  0  0  0  0  0  0  0  0  0  0  0
  147.0491  142.0317  154.7186 H   0  0  0  0  0  0  0  0  0  0  0  0
  147.3210  140.5808  155.6863 H   0  0  0  0  0  0  0  0  0  0  0  0
  149.5848  139.6290  152.8023 H   0  0  0  0  0  0  0  0  0  0  0  0
  150.8718  139.1717  155.0953 H   0  0  0  0  0  0  0  0  0  0  0  0
  1  2  1  0  0  0  0
  1 20  1  0  0  0  0
  2 18  1  0  0  0  0
  2 17  1  0  0  0  0
  2  3  1  0  0  0  0
  3  4  1  0  0  0  0
  3 21  1  0  0  0  0
  3 22  1  0  0  0  0
  4  5  1  0  0  0  0
  4 23  1  0  0  0  0
  4 31  1  0  0  0  0
  5 19  1  0  0  0  0
  5  6  1  0  0  0  0
  5 17  1  0  0  0  0
  6 16  2  0  0  0  0
  6  7  1  0  0  0  0
  7  8  1  0  0  0  0
  7 32  1  0  0  0  0
  8  9  2  0  0  0  0
  9 10  1  0  0  0  0
  9 16  1  0  0  0  0
 10 15  1  0  0  0  0
 10 11  2  0  0  0  0
 11 12  1  0  0  0  0
 11 24  1  0  0  0  0
 12 13  2  0  0  0  0
 12 25  1  0  0  0  0
 13 14  1  0  0  0  0
 13 26  1  0  0  0  0
 14 15  2  0  0  0  0
 14 27  1  0  0  0  0
 15 28  1  0  0  0  0
 17 29  1  0  0  0  0
 17 30  1  0  0  0  0
M  CHG  1   4   1
M  END
> <s_m_source_file>
AV-unprocessed.smi

> <i_m_source_file_index>
47

> <i_lp_mmshare_version>
43012

> <i_f3d_flags>
0

> <s_epik_input>
W09IXVtDQEhdMVtDSDJdW05IXVtDQEBIXShbQ0gyXTEpYzJuW25IXWMobjIpLWMzW2NIXVtjSF1bY0hdW2NIXVtjSF0z

> <s_epik_cmdline>
J2VwaWtfcHl0aG9uJywgJy1waCcsICc3LjAnLCAnLXRuJywgJzgnLCAnLW1hJywgJzIwMCcsICctbWV0YWxfYmluZGluZycsICctaW1hZScsICc8aW5maWxlLm1hZT4nLCAnLW9tYWUnLCAnPG91dGZpbGUubWFlPic=

> <r_epik_Ionization_Penalty>
1.14296

> <r_epik_Ionization_Penalty_Charging>
0.0688988

> <r_epik_Ionization_Penalty_Neutral>
1.07406

> <r_epik_State_Penalty>
1.72347

> <r_epik_Charging_Adjusted_Penalty>
1.79237

> <i_epik_Tot_Q>
1

> <i_epik_Tot_abs_Q>
1

> <r_epik_Metal_State_Penalty>
2.22085

> <b_epik_Metal_Only>
0

> <s_lp_Force_Field>
OPLS_2005

> <r_lp_Energy>
30.6831

> <b_lp_Chiralities_Consistent>
1

> <s_lp_Variant>
AV-unprocessed.smi:47-10

> <Gold.Version>
5.8.1

> <Gold.Id.Protein>
6NUR|6NUR_protein|mol2

> <Gold.PLP.Fitness>
39.9578

> <Gold.PLP.PLP>
-34.6335

> <Gold.PLP.part.hbond>
-2.0000

> <Gold.PLP.part.metal>
0.0000

> <Gold.PLP.part.buried>
-5.4477

> <Gold.PLP.part.nonpolar>
-29.2368

> <Gold.PLP.part.repulsive>
1.5034

> <Gold.PLP.ligand.clash>
0.0000

> <Gold.PLP.ligand.torsion>
0.3084

> <Gold.PLP.Chemscore.Hbond>
1.9760

> <Gold.PLP.Chemscore.CHOScore>
0.0000

> <Gold.PLP.Chemscore.Metal>
0.0000

> <Gold.Chemscore.Hbonds>
donor molecule, donor type, donor heavy atom, donor atom, acceptor molecule, acceptor atom, score
      L1  H     1    20       P1 10175  1.00
      L1  H     4    31       P1  7957  0.98

> <Gold.PLP.Chemscore.Internal.Correction>
0.0131

> <Gold.Rescore>
     Score         DG    S(hbond)    S(metal)    S(lipo)     H(rot)  DE(clash)    DE(int)     intcor
     18.71     -19.11       1.91        0.00      94.72       1.50       0.30       0.11       ----

> <Gold.Chemscore.Fitness>
18.7086

> <Gold.Chemscore.DG>
-19.1120

> <Gold.Chemscore.ZeroCoef>
-5.4800

> <Gold.Chemscore.Hbond>
1.9106

> <Gold.Chemscore.Metal>
0.0000

> <Gold.Chemscore.Lipo>
94.7161

> <Gold.Chemscore.Internal_Hbond>
0.0000

> <Gold.Chemscore.DEClash>
0.2959

> <Gold.Chemscore.DEInternal>
0.1075

> <Gold.Chemscore.Rot>
1.4966

> <Gold.Chemscore.Internal.Correction>
   9.000000E+99

> <Gold.Chemscore.Hbonds>
donor molecule, donor type, donor heavy atom, donor atom, acceptor molecule, acceptor atom, score
      L1  H     1    20       P1 10175  1.00
      L1  H     4    31       P1  7957  0.93

> <Gold.Chemscore.Hbond.Weighted>
-6.3814

> <Gold.Chemscore.Metal.Weighted>
-0.0000

> <Gold.Chemscore.Lipo.Weighted>
-11.0818

> <Gold.Chemscore.Internal_Hbond.Weighted>
0.0000

> <Gold.Chemscore.DEClash.Weighted>
0.2959

> <Gold.Chemscore.DEInternal.Weighted>
0.1075

> <Gold.Chemscore.Rot.Weighted>
3.8312

> <Gold.Chemscore.Internal.Correction.Weighted>
   9.000000E+99

> <Gold.Protein.RotatedTorsions>
[ 6907 6896 6895 6894 ] final  172.08 input  -60.11 | X-H torsion
[ 7974 7965 7964 7962 ] final  -50.57 input  175.53 | X-H torsion
[ 8008 7997 7996 7995 ] final  165.64 input   59.86 | X-H torsion
[ 10167 10162 10161 10158 ] final  -52.32 input  -65.29 | X-H torsion
[ 10718 10713 10712 10709 ] final  -44.48 input   66.30 | X-H torsion
[ 10763 10752 10751 10750 ] final  -65.86 input  -60.55 | X-H torsion
[ 11005 11000 10999 10996 ] final  109.14 input  -57.11 | X-H torsion

> <Gold.Protein.ActiveResidues>
 VAL166  LYS551  ARG553  GLY616  TRP617  ASP618  TYR619  PRO620  LYS621  CYS622 
 ASP623  PHE694  ASN695  SER759  ASP760  ASP761  ALA762  ILE779  LEU786  VAL792 
 PHE793  MET794  SER795  GLU796  ALA797  LYS798  CYS799  TRP800  GLU811  SER814 

> <Gold.Protein.RotatedAtoms>
  151.7900  133.3358  159.3496 H   0  0  0  0  0  0  0  0  0  0  0  0  # atno 6907 bound_to 6896
  150.7395  134.5851  159.5968 H   0  0  0  0  0  0  0  0  0  0  0  0  # atno 6908 bound_to 6896
  152.3216  134.7374  160.0363 H   0  0  0  0  0  0  0  0  0  0  0  0  # atno 6909 bound_to 6896
  145.9284  140.7771  142.9612 H   0  0  0  0  0  0  0  0  0  0  0  0  # atno 7974 bound_to 7965
  156.1784  140.1664  156.8320 H   0  0  0  0  0  0  0  0  0  0  0  0  # atno 8008 bound_to 7997
  154.5332  140.0752  156.8415 H   0  0  0  0  0  0  0  0  0  0  0  0  # atno 8009 bound_to 7997
  155.3364  140.3382  155.4241 H   0  0  0  0  0  0  0  0  0  0  0  0  # atno 8010 bound_to 7997
  140.6543  143.2588  151.4631 H   0  0  0  0  0  0  0  0  0  0  0  0  # atno 10167 bound_to 10162
  156.2381  130.4177  149.8793 H   0  0  0  0  0  0  0  0  0  0  0  0  # atno 10718 bound_to 10713
  154.3514  135.6136  153.5644 H   0  0  0  0  0  0  0  0  0  0  0  0  # atno 10763 bound_to 10752
  152.9798  135.5793  154.4739 H   0  0  0  0  0  0  0  0  0  0  0  0  # atno 10764 bound_to 10752
  154.4461  135.2851  155.1791 H   0  0  0  0  0  0  0  0  0  0  0  0  # atno 10765 bound_to 10752
  139.8856  134.9450  156.6080 H   0  0  0  0  0  0  0  0  0  0  0  0  # atno 11005 bound_to 11000
  144.6761  140.2088  143.7379 LP  0  0  0  0  0  0  0  0  0  0  0  0  # atno 17320 bound_to 7965
  145.8458  139.2151  143.1801 LP  0  0  0  0  0  0  0  0  0  0  0  0  # atno 17321 bound_to 7965
  139.5763  144.1811  152.1908 LP  0  0  0  0  0  0  0  0  0  0  0  0  # atno 17342 bound_to 10162
  140.1123  144.5446  150.6917 LP  0  0  0  0  0  0  0  0  0  0  0  0  # atno 17343 bound_to 10162
  156.6384  130.8695  151.3509 LP  0  0  0  0  0  0  0  0  0  0  0  0  # atno 17370 bound_to 10713
  157.7163  130.9502  150.1269 LP  0  0  0  0  0  0  0  0  0  0  0  0  # atno 17371 bound_to 10713
  140.7833  133.8642  155.8585 LP  0  0  0  0  0  0  0  0  0  0  0  0  # atno 17394 bound_to 11000
  140.9741  134.1492  157.4551 LP  0  0  0  0  0  0  0  0  0  0  0  0  # atno 17395 bound_to 11000

$$$$
