AV-unprocessed.smi:1868|AV-procd|sdf|7584|dock7
  -GOLD-   22720 9293D 1   1.00000     0.00000
 Structure written by MMmdl.
 47 49  0  0  0  0  0  0  0  0  2 V2000
  146.6205  141.9310  154.1053 C   0  0  0  0  0  0  0  0  0  0  0  0
  147.8541  141.1344  154.3900 C   0  0  0  0  0  0  0  0  0  0  0  0
  148.9674  141.6951  154.8617 N   0  0  0  0  0  0  0  0  0  0  0  0
  149.8230  140.6174  154.9822 C   0  0  0  0  0  0  0  0  0  0  0  0
  151.1619  140.5528  155.4294 C   0  0  0  0  0  0  0  0  0  0  0  0
  151.8448  139.3194  155.4621 C   0  0  0  0  0  0  0  0  0  0  0  0
  151.2003  138.1354  155.0495 C   0  0  0  0  0  0  0  0  0  0  0  0
  149.8663  138.1770  154.6007 C   0  0  0  0  0  0  0  0  0  0  0  0
  149.1891  139.4111  154.5693 C   0  0  0  0  0  0  0  0  0  0  0  0
  147.9078  139.7954  154.1832 N   0  0  0  0  0  0  0  0  0  0  0  0
  146.8586  138.9246  153.6711 C   0  0  0  0  0  0  0  0  0  0  0  0
  146.9328  138.7251  152.1432 C   0  0  2  0  0  0  0  0  0  0  0  0
  146.8496  140.0006  151.5408 O   0  0  0  0  0  0  0  0  0  0  0  0
  145.8011  137.8387  151.5774 C   0  0  0  0  0  0  0  0  0  0  0  0
  146.0264  136.3932  151.8313 N   0  3  2  0  0  0  0  0  0  0  0  0
  145.2304  135.5319  150.9198 C   0  0  0  0  0  0  0  0  0  0  0  0
  145.5876  134.0475  151.1046 C   0  0  0  0  0  0  0  0  0  0  0  0
  145.3932  133.6032  152.5640 C   0  0  1  0  0  0  0  0  0  0  0  0
  145.7789  132.1311  152.7655 C   0  0  0  0  0  0  0  0  0  0  0  0
  146.1964  134.5344  153.4877 C   0  0  0  0  0  0  0  0  0  0  0  0
  145.8275  136.0090  153.2542 C   0  0  0  0  0  0  0  0  0  0  0  0
  146.7704  142.9761  154.3785 H   0  0  0  0  0  0  0  0  0  0  0  0
  145.7785  141.5463  154.6809 H   0  0  0  0  0  0  0  0  0  0  0  0
  146.3761  141.8878  153.0444 H   0  0  0  0  0  0  0  0  0  0  0  0
  151.6645  141.4541  155.7478 H   0  0  0  0  0  0  0  0  0  0  0  0
  152.8681  139.2818  155.8062 H   0  0  0  0  0  0  0  0  0  0  0  0
  151.7310  137.1949  155.0786 H   0  0  0  0  0  0  0  0  0  0  0  0
  149.3723  137.2707  154.2841 H   0  0  0  0  0  0  0  0  0  0  0  0
  146.9340  137.9623  154.1793 H   0  0  0  0  0  0  0  0  0  0  0  0
  145.8903  139.3376  153.9555 H   0  0  0  0  0  0  0  0  0  0  0  0
  147.9050  138.3033  151.8943 H   0  0  0  0  0  0  0  0  0  0  0  0
  147.7163  140.2637  151.2690 H   0  0  0  0  0  0  0  0  0  0  0  0
  144.8334  138.1153  151.9970 H   0  0  0  0  0  0  0  0  0  0  0  0
  145.7291  138.0211  150.5038 H   0  0  0  0  0  0  0  0  0  0  0  0
  144.1664  135.6909  151.1033 H   0  0  0  0  0  0  0  0  0  0  0  0
  145.4204  135.8163  149.8842 H   0  0  0  0  0  0  0  0  0  0  0  0
  144.9716  133.4375  150.4429 H   0  0  0  0  0  0  0  0  0  0  0  0
  146.6224  133.8823  150.8015 H   0  0  0  0  0  0  0  0  0  0  0  0
  144.3357  133.7062  152.8128 H   0  0  0  0  0  0  0  0  0  0  0  0
  146.8299  131.9596  152.5295 H   0  0  0  0  0  0  0  0  0  0  0  0
  145.1837  131.4783  152.1263 H   0  0  0  0  0  0  0  0  0  0  0  0
  145.6149  131.8200  153.7976 H   0  0  0  0  0  0  0  0  0  0  0  0
  146.0142  134.2726  154.5307 H   0  0  0  0  0  0  0  0  0  0  0  0
  147.2652  134.3956  153.3170 H   0  0  0  0  0  0  0  0  0  0  0  0
  146.4384  136.6319  153.9064 H   0  0  0  0  0  0  0  0  0  0  0  0
  144.7882  136.1835  153.5377 H   0  0  0  0  0  0  0  0  0  0  0  0
  146.9959  136.2171  151.6079 H   0  0  0  0  0  0  0  0  0  0  0  0
  1  2  1  0  0  0  0
  1 22  1  0  0  0  0
  1 23  1  0  0  0  0
  1 24  1  0  0  0  0
  2 10  1  0  0  0  0
  2  3  2  0  0  0  0
  3  4  1  0  0  0  0
  4  9  2  0  0  0  0
  4  5  1  0  0  0  0
  5  6  2  0  0  0  0
  5 25  1  0  0  0  0
  6  7  1  0  0  0  0
  6 26  1  0  0  0  0
  7  8  2  0  0  0  0
  7 27  1  0  0  0  0
  8  9  1  0  0  0  0
  8 28  1  0  0  0  0
  9 10  1  0  0  0  0
 10 11  1  0  0  0  0
 11 12  1  0  0  0  0
 11 29  1  0  0  0  0
 11 30  1  0  0  0  0
 12 13  1  0  0  0  0
 12 14  1  0  0  0  0
 12 31  1  0  0  0  0
 13 32  1  0  0  0  0
 14 15  1  0  0  0  0
 14 33  1  0  0  0  0
 14 34  1  0  0  0  0
 15 21  1  0  0  0  0
 15 16  1  0  0  0  0
 15 47  1  0  0  0  0
 16 17  1  0  0  0  0
 16 35  1  0  0  0  0
 16 36  1  0  0  0  0
 17 18  1  0  0  0  0
 17 37  1  0  0  0  0
 17 38  1  0  0  0  0
 18 19  1  0  0  0  0
 18 20  1  0  0  0  0
 18 39  1  0  0  0  0
 19 40  1  0  0  0  0
 19 41  1  0  0  0  0
 19 42  1  0  0  0  0
 20 21  1  0  0  0  0
 20 43  1  0  0  0  0
 20 44  1  0  0  0  0
 21 45  1  0  0  0  0
 21 46  1  0  0  0  0
M  CHG  1  15   1
M  END
> <s_m_source_file>
AV-unprocessed.smi

> <i_m_source_file_index>
1868

> <i_lp_mmshare_version>
43012

> <i_f3d_flags>
0

> <s_epik_input>
W2NIXTFbY0hdW2NIXVtjSF1jKGMxMiluKGMobjIpW0NIM10pW0NIMl1bQ0BIXShbT0hdKVtDSDJdTjNbQ0gyXVtDSDJdW0NIXShbQ0gzXSlbQ0gyXVtDSDJdMw==

> <s_epik_cmdline>
J2VwaWtfcHl0aG9uJywgJy1waCcsICc3LjAnLCAnLXRuJywgJzgnLCAnLW1hJywgJzIwMCcsICctbWV0YWxfYmluZGluZycsICctaW1hZScsICc8aW5maWxlLm1hZT4nLCAnLW9tYWUnLCAnPG91dGZpbGUubWFlPic=

> <r_epik_Ionization_Penalty>
0.101157

> <r_epik_Ionization_Penalty_Charging>
0.00181365

> <r_epik_Ionization_Penalty_Neutral>
0.0993436

> <r_epik_State_Penalty>
0.0871902

> <r_epik_Charging_Adjusted_Penalty>
0.0890039

> <i_epik_Tot_Q>
1

> <i_epik_Tot_abs_Q>
1

> <r_epik_Metal_State_Penalty>
9.24346e-05

> <b_epik_Metal_Only>
0

> <s_lp_Force_Field>
OPLS_2005

> <r_lp_Energy>
22.6133

> <b_lp_Chiralities_Consistent>
1

> <s_lp_Variant>
AV-unprocessed.smi:1868-1

> <Gold.Version>
5.8.1

> <Gold.Id.Protein>
6NUR|6NUR_protein|mol2

> <Gold.PLP.Fitness>
46.6338

> <Gold.PLP.PLP>
-38.8995

> <Gold.PLP.part.hbond>
-2.2748

> <Gold.PLP.part.metal>
0.0000

> <Gold.PLP.part.buried>
1.7394

> <Gold.PLP.part.nonpolar>
-39.1474

> <Gold.PLP.part.repulsive>
0.2014

> <Gold.PLP.ligand.clash>
0.0000

> <Gold.PLP.ligand.torsion>
0.6332

> <Gold.PLP.Chemscore.Hbond>
2.9920

> <Gold.PLP.Chemscore.CHOScore>
0.0000

> <Gold.PLP.Chemscore.Metal>
0.0000

> <Gold.Chemscore.Hbonds>
donor molecule, donor type, donor heavy atom, donor atom, acceptor molecule, acceptor atom, score
      L1  H    13    32       P1  7957  1.00
      L1  H    15    47       P1  7948  2.00

> <Gold.PLP.Chemscore.Internal.Correction>
0.0247

> <Gold.Rescore>
     Score         DG    S(hbond)    S(metal)    S(lipo)     H(rot)  DE(clash)    DE(int)     intcor
     16.16     -18.43       1.97        0.00      96.51       1.92       1.64       0.63       ----

> <Gold.Chemscore.Fitness>
16.1566

> <Gold.Chemscore.DG>
-18.4338

> <Gold.Chemscore.ZeroCoef>
-5.4800

> <Gold.Chemscore.Hbond>
1.9691

> <Gold.Chemscore.Metal>
0.0000

> <Gold.Chemscore.Lipo>
96.5100

> <Gold.Chemscore.Internal_Hbond>
0.0000

> <Gold.Chemscore.DEClash>
1.6437

> <Gold.Chemscore.DEInternal>
0.6335

> <Gold.Chemscore.Rot>
1.9198

> <Gold.Chemscore.Internal.Correction>
   9.000000E+99

> <Gold.Chemscore.Hbonds>
donor molecule, donor type, donor heavy atom, donor atom, acceptor molecule, acceptor atom, score
      L1  H    13    32       P1  7957  0.97
      L1  H    15    47       P1  7948  0.99

> <Gold.Chemscore.Hbond.Weighted>
-6.5768

> <Gold.Chemscore.Metal.Weighted>
-0.0000

> <Gold.Chemscore.Lipo.Weighted>
-11.2917

> <Gold.Chemscore.Internal_Hbond.Weighted>
0.0000

> <Gold.Chemscore.DEClash.Weighted>
1.6437

> <Gold.Chemscore.DEInternal.Weighted>
0.6335

> <Gold.Chemscore.Rot.Weighted>
4.9147

> <Gold.Chemscore.Internal.Correction.Weighted>
   9.000000E+99

> <Gold.Protein.RotatedTorsions>
[ 6907 6896 6895 6894 ] final  111.28 input  -60.11 | X-H torsion
[ 7974 7965 7964 7962 ] final  116.05 input  175.53 | X-H torsion
[ 8008 7997 7996 7995 ] final  151.07 input   59.86 | X-H torsion
[ 10167 10162 10161 10158 ] final  -32.24 input  -65.29 | X-H torsion
[ 10718 10713 10712 10709 ] final -170.11 input   66.30 | X-H torsion
[ 10763 10752 10751 10750 ] final  -43.43 input  -60.55 | X-H torsion
[ 11005 11000 10999 10996 ] final  167.54 input  -57.11 | X-H torsion

> <Gold.Protein.ActiveResidues>
 VAL166  LYS551  ARG553  GLY616  TRP617  ASP618  TYR619  PRO620  LYS621  CYS622 
 ASP623  PHE694  ASN695  SER759  ASP760  ASP761  ALA762  ILE779  LEU786  VAL792 
 PHE793  MET794  SER795  GLU796  ALA797  LYS798  CYS799  TRP800  GLU811  SER814 

> <Gold.Protein.RotatedAtoms>
  152.4977  133.8681  159.7283 H   0  0  0  0  0  0  0  0  0  0  0  0  # atno 6907 bound_to 6896
  150.9175  133.6913  159.2846 H   0  0  0  0  0  0  0  0  0  0  0  0  # atno 6908 bound_to 6896
  151.4301  135.1013  159.9692 H   0  0  0  0  0  0  0  0  0  0  0  0  # atno 6909 bound_to 6896
  145.1844  139.3033  143.4401 H   0  0  0  0  0  0  0  0  0  0  0  0  # atno 7974 bound_to 7965
  156.2689  140.2057  156.6118 H   0  0  0  0  0  0  0  0  0  0  0  0  # atno 8008 bound_to 7997
  154.6825  140.0538  157.0305 H   0  0  0  0  0  0  0  0  0  0  0  0  # atno 8009 bound_to 7997
  155.0980  140.3203  155.4558 H   0  0  0  0  0  0  0  0  0  0  0  0  # atno 8010 bound_to 7997
  140.7224  143.3710  151.1779 H   0  0  0  0  0  0  0  0  0  0  0  0  # atno 10167 bound_to 10162
  156.7213  130.9271  151.3097 H   0  0  0  0  0  0  0  0  0  0  0  0  # atno 10718 bound_to 10713
  153.9954  135.6700  153.4756 H   0  0  0  0  0  0  0  0  0  0  0  0  # atno 10763 bound_to 10752
  153.0686  135.4987  154.8251 H   0  0  0  0  0  0  0  0  0  0  0  0  # atno 10764 bound_to 10752
  154.7084  135.3092  154.9197 H   0  0  0  0  0  0  0  0  0  0  0  0  # atno 10765 bound_to 10752
  140.2779  134.7774  157.3732 H   0  0  0  0  0  0  0  0  0  0  0  0  # atno 11005 bound_to 11000
  146.3447  140.2034  142.8589 LP  0  0  0  0  0  0  0  0  0  0  0  0  # atno 17320 bound_to 7965
  145.0104  140.8709  143.5227 LP  0  0  0  0  0  0  0  0  0  0  0  0  # atno 17321 bound_to 7965
  139.7281  143.9117  152.3010 LP  0  0  0  0  0  0  0  0  0  0  0  0  # atno 17342 bound_to 10162
  139.8896  144.6973  150.8785 LP  0  0  0  0  0  0  0  0  0  0  0  0  # atno 17343 bound_to 10162
  157.6897  130.9220  150.0479 LP  0  0  0  0  0  0  0  0  0  0  0  0  # atno 17370 bound_to 10713
  156.1592  130.3643  149.9324 LP  0  0  0  0  0  0  0  0  0  0  0  0  # atno 17371 bound_to 10713
  140.1311  134.5094  155.8105 LP  0  0  0  0  0  0  0  0  0  0  0  0  # atno 17394 bound_to 11000
  141.2167  133.6790  156.7041 LP  0  0  0  0  0  0  0  0  0  0  0  0  # atno 17395 bound_to 11000

$$$$
