AV-unprocessed.smi:498|AV-procd|sdf|2728|dock8
  -GOLD-   2262023173D 1   1.00000     0.00000
 Structure written by MMmdl.
 42 44  0  0  0  0  0  0  0  0  1 V2000
  150.9942  137.6716  154.3614 C   0  0  0  0  0  0  0  0  0  0  0  0
  150.5618  139.1389  154.3874 C   0  0  0  0  0  0  0  0  0  0  0  0
  151.6884  139.9397  154.6980 O   0  0  0  0  0  0  0  0  0  0  0  0
  151.9893  139.9517  156.0840 C   0  0  0  0  0  0  0  0  0  0  0  0
  150.9743  140.8313  156.8271 C   0  0  0  0  0  0  0  0  0  0  0  0
  151.5003  141.3370  158.0880 N   0  0  0  0  0  0  0  0  0  0  0  0
  151.9927  140.6411  159.1461 C   0  0  0  0  0  0  0  0  0  0  0  0
  152.0630  139.1392  159.1777 C   0  0  0  0  0  0  0  0  0  0  0  0
  152.6016  138.7258  160.4705 N   0  0  0  0  0  0  0  0  0  0  0  0
  152.8304  137.4622  160.8604 C   0  0  0  0  0  0  0  0  0  0  0  0
  152.6758  136.4840  160.1304 O   0  0  0  0  0  0  0  0  0  0  0  0
  153.2989  137.2955  162.2489 C   0  0  0  0  0  0  0  0  0  0  0  0
  153.2320  136.2293  163.1073 C   0  0  0  0  0  0  0  0  0  0  0  0
  153.8627  136.6382  164.3147 C   0  0  0  0  0  0  0  0  0  0  0  0
  154.2718  137.9241  164.1079 C   0  0  0  0  0  0  0  0  0  0  0  0
  153.9387  138.3377  162.8550 O   0  0  0  0  0  0  0  0  0  0  0  0
  152.4287  141.3813  160.1687 N   0  0  0  0  0  0  0  0  0  0  0  0
  152.1743  142.6705  159.7470 C   0  0  0  0  0  0  0  0  0  0  0  0
  152.4023  143.9082  160.3899 C   0  0  0  0  0  0  0  0  0  0  0  0
  152.0518  145.1175  159.7547 C   0  0  0  0  0  0  0  0  0  0  0  0
  151.4692  145.1061  158.4709 C   0  0  0  0  0  0  0  0  0  0  0  0
  151.2360  143.8834  157.8126 C   0  0  0  0  0  0  0  0  0  0  0  0
  151.5896  142.6785  158.4499 C   0  0  0  0  0  0  0  0  0  0  0  0
  150.1515  137.0213  154.1261 H   0  0  0  0  0  0  0  0  0  0  0  0
  151.3954  137.3648  155.3277 H   0  0  0  0  0  0  0  0  0  0  0  0
  151.7660  137.5052  153.6093 H   0  0  0  0  0  0  0  0  0  0  0  0
  150.1545  139.4224  153.4156 H   0  0  0  0  0  0  0  0  0  0  0  0
  149.7782  139.2857  155.1323 H   0  0  0  0  0  0  0  0  0  0  0  0
  151.9578  138.9380  156.4796 H   0  0  0  0  0  0  0  0  0  0  0  0
  153.0001  140.3283  156.2450 H   0  0  0  0  0  0  0  0  0  0  0  0
  150.6512  141.6659  156.2051 H   0  0  0  0  0  0  0  0  0  0  0  0
  150.0755  140.2510  157.0371 H   0  0  0  0  0  0  0  0  0  0  0  0
  151.0942  138.6807  158.9837 H   0  0  0  0  0  0  0  0  0  0  0  0
  152.7370  138.8024  158.3901 H   0  0  0  0  0  0  0  0  0  0  0  0
  152.7606  139.4600  161.1450 H   0  0  0  0  0  0  0  0  0  0  0  0
  152.7859  135.2692  162.8937 H   0  0  0  0  0  0  0  0  0  0  0  0
  154.0014  136.0643  165.2189 H   0  0  0  0  0  0  0  0  0  0  0  0
  154.7893  138.6542  164.7126 H   0  0  0  0  0  0  0  0  0  0  0  0
  152.8462  143.9274  161.3741 H   0  0  0  0  0  0  0  0  0  0  0  0
  152.2296  146.0578  160.2555 H   0  0  0  0  0  0  0  0  0  0  0  0
  151.2014  146.0362  157.9911 H   0  0  0  0  0  0  0  0  0  0  0  0
  150.7871  143.8726  156.8307 H   0  0  0  0  0  0  0  0  0  0  0  0
  1  2  1  0  0  0  0
  1 24  1  0  0  0  0
  1 25  1  0  0  0  0
  1 26  1  0  0  0  0
  2  3  1  0  0  0  0
  2 27  1  0  0  0  0
  2 28  1  0  0  0  0
  3  4  1  0  0  0  0
  4  5  1  0  0  0  0
  4 29  1  0  0  0  0
  4 30  1  0  0  0  0
  5  6  1  0  0  0  0
  5 31  1  0  0  0  0
  5 32  1  0  0  0  0
  6 23  1  0  0  0  0
  6  7  1  0  0  0  0
  7  8  1  0  0  0  0
  7 17  2  0  0  0  0
  8  9  1  0  0  0  0
  8 33  1  0  0  0  0
  8 34  1  0  0  0  0
  9 10  1  0  0  0  0
  9 35  1  0  0  0  0
 10 11  2  0  0  0  0
 10 12  1  0  0  0  0
 12 16  1  0  0  0  0
 12 13  2  0  0  0  0
 13 14  1  0  0  0  0
 13 36  1  0  0  0  0
 14 15  2  0  0  0  0
 14 37  1  0  0  0  0
 15 16  1  0  0  0  0
 15 38  1  0  0  0  0
 17 18  1  0  0  0  0
 18 23  2  0  0  0  0
 18 19  1  0  0  0  0
 19 20  2  0  0  0  0
 19 39  1  0  0  0  0
 20 21  1  0  0  0  0
 20 40  1  0  0  0  0
 21 22  2  0  0  0  0
 21 41  1  0  0  0  0
 22 23  1  0  0  0  0
 22 42  1  0  0  0  0
M  END
> <s_m_source_file>
AV-unprocessed.smi

> <i_m_source_file_index>
498

> <i_lp_mmshare_version>
43012

> <i_f3d_flags>
0

> <s_epik_input>
W0NIM11bQ0gyXU9bQ0gyXVtDSDJdbihjKGMxMilbY0hdW2NIXVtjSF1bY0hdMiljKG4xKVtDSDJdW05IXUMoPU8pYzNbY0hdW2NIXVtjSF1vMw==

> <s_epik_cmdline>
J2VwaWtfcHl0aG9uJywgJy1waCcsICc3LjAnLCAnLXRuJywgJzgnLCAnLW1hJywgJzIwMCcsICctbWV0YWxfYmluZGluZycsICctaW1hZScsICc8aW5maWxlLm1hZT4nLCAnLW9tYWUnLCAnPG91dGZpbGUubWFlPic=

> <r_epik_Ionization_Penalty>
0.0701438

> <r_epik_Ionization_Penalty_Charging>
0

> <r_epik_Ionization_Penalty_Neutral>
0.0701438

> <r_epik_State_Penalty>
0.061475

> <r_epik_Charging_Adjusted_Penalty>
0.061475

> <i_epik_Tot_Q>
0

> <i_epik_Tot_abs_Q>
0

> <r_epik_Metal_State_Penalty>
0.0666689

> <b_epik_Metal_Only>
0

> <s_lp_Force_Field>
OPLS_2005

> <r_lp_Energy>
6.14226

> <b_lp_Chiralities_Consistent>
1

> <s_lp_Variant>
AV-unprocessed.smi:498-1

> <Gold.Version>
5.8.1

> <Gold.Id.Protein>
6NUR|6NUR_protein|mol2

> <Gold.PLP.Fitness>
56.6594

> <Gold.PLP.PLP>
-51.6856

> <Gold.PLP.part.hbond>
-2.0000

> <Gold.PLP.part.metal>
0.0000

> <Gold.PLP.part.buried>
-5.8595

> <Gold.PLP.part.nonpolar>
-43.5172

> <Gold.PLP.part.repulsive>
0.1289

> <Gold.PLP.ligand.clash>
0.0000

> <Gold.PLP.ligand.torsion>
0.5386

> <Gold.PLP.Chemscore.Hbond>
2.0000

> <Gold.PLP.Chemscore.CHOScore>
0.0000

> <Gold.PLP.Chemscore.Metal>
0.0000

> <Gold.Chemscore.Hbonds>
donor molecule, donor type, donor heavy atom, donor atom, acceptor molecule, acceptor atom, score
      P1  H  6896  6907       L1    11  1.00
      P1  H  7989  7998       L1     3  0.90

> <Gold.PLP.Chemscore.Internal.Correction>
0.0510

> <Gold.Rescore>
     Score         DG    S(hbond)    S(metal)    S(lipo)     H(rot)  DE(clash)    DE(int)     intcor
     22.01     -22.69       1.97        0.00     134.18       1.98       0.12       0.56       ----

> <Gold.Chemscore.Fitness>
22.0147

> <Gold.Chemscore.DG>
-22.6942

> <Gold.Chemscore.ZeroCoef>
-5.4800

> <Gold.Chemscore.Hbond>
1.9724

> <Gold.Chemscore.Metal>
0.0000

> <Gold.Chemscore.Lipo>
134.1754

> <Gold.Chemscore.Internal_Hbond>
0.0000

> <Gold.Chemscore.DEClash>
0.1200

> <Gold.Chemscore.DEInternal>
0.5594

> <Gold.Chemscore.Rot>
1.9813

> <Gold.Chemscore.Internal.Correction>
   9.000000E+99

> <Gold.Chemscore.Hbonds>
donor molecule, donor type, donor heavy atom, donor atom, acceptor molecule, acceptor atom, score
      P1  H  6896  6907       L1    11  0.97
      P1  H  7989  7998       L1     3  0.19

> <Gold.Chemscore.Hbond.Weighted>
-6.5877

> <Gold.Chemscore.Metal.Weighted>
-0.0000

> <Gold.Chemscore.Lipo.Weighted>
-15.6985

> <Gold.Chemscore.Internal_Hbond.Weighted>
0.0000

> <Gold.Chemscore.DEClash.Weighted>
0.1200

> <Gold.Chemscore.DEInternal.Weighted>
0.5594

> <Gold.Chemscore.Rot.Weighted>
5.0720

> <Gold.Chemscore.Internal.Correction.Weighted>
   9.000000E+99

> <Gold.Protein.RotatedTorsions>
[ 6907 6896 6895 6894 ] final   20.18 input  -60.11 | X-H torsion
[ 7974 7965 7964 7962 ] final -101.64 input  175.53 | X-H torsion
[ 8008 7997 7996 7995 ] final   88.96 input   59.86 | X-H torsion
[ 10167 10162 10161 10158 ] final -158.45 input  -65.29 | X-H torsion
[ 10718 10713 10712 10709 ] final   52.69 input   66.30 | X-H torsion
[ 10763 10752 10751 10750 ] final   25.14 input  -60.55 | X-H torsion
[ 11005 11000 10999 10996 ] final  -85.37 input  -57.11 | X-H torsion

> <Gold.Protein.ActiveResidues>
 VAL166  LYS551  ARG553  GLY616  TRP617  ASP618  TYR619  PRO620  LYS621  CYS622 
 ASP623  PHE694  ASN695  SER759  ASP760  ASP761  ALA762  ILE779  LEU786  VAL792 
 PHE793  MET794  SER795  GLU796  ALA797  LYS798  CYS799  TRP800  GLU811  SER814 

> <Gold.Protein.RotatedAtoms>
  151.8924  135.0411  160.0498 H   0  0  0  0  0  0  0  0  0  0  0  0  # atno 6907 bound_to 6896
  152.2425  133.5142  159.5286 H   0  0  0  0  0  0  0  0  0  0  0  0  # atno 6908 bound_to 6896
  150.7058  134.0986  159.4000 H   0  0  0  0  0  0  0  0  0  0  0  0  # atno 6909 bound_to 6896
  145.2790  140.9321  143.2943 H   0  0  0  0  0  0  0  0  0  0  0  0  # atno 7974 bound_to 7965
  155.9941  140.3366  155.6781 H   0  0  0  0  0  0  0  0  0  0  0  0  # atno 8008 bound_to 7997
  155.6380  140.0692  157.2645 H   0  0  0  0  0  0  0  0  0  0  0  0  # atno 8009 bound_to 7997
  154.4228  140.1747  156.1530 H   0  0  0  0  0  0  0  0  0  0  0  0  # atno 8010 bound_to 7997
  139.6691  143.9776  152.2273 H   0  0  0  0  0  0  0  0  0  0  0  0  # atno 10167 bound_to 10162
  157.5098  130.8493  149.8420 H   0  0  0  0  0  0  0  0  0  0  0  0  # atno 10718 bound_to 10713
  153.0713  135.6589  154.0242 H   0  0  0  0  0  0  0  0  0  0  0  0  # atno 10763 bound_to 10752
  153.9886  135.2948  155.3415 H   0  0  0  0  0  0  0  0  0  0  0  0  # atno 10764 bound_to 10752
  154.7088  135.5214  153.8705 H   0  0  0  0  0  0  0  0  0  0  0  0  # atno 10765 bound_to 10752
  141.1642  133.7396  156.9005 H   0  0  0  0  0  0  0  0  0  0  0  0  # atno 11005 bound_to 11000
  144.9270  139.4344  143.6514 LP  0  0  0  0  0  0  0  0  0  0  0  0  # atno 17320 bound_to 7965
  146.3222  139.8160  142.8936 LP  0  0  0  0  0  0  0  0  0  0  0  0  # atno 17321 bound_to 7965
  139.9536  144.6604  150.8148 LP  0  0  0  0  0  0  0  0  0  0  0  0  # atno 17342 bound_to 10162
  140.7611  143.3167  151.2718 LP  0  0  0  0  0  0  0  0  0  0  0  0  # atno 17343 bound_to 10162
  156.0282  130.3773  150.1763 LP  0  0  0  0  0  0  0  0  0  0  0  0  # atno 17370 bound_to 10713
  156.9953  130.9906  151.3404 LP  0  0  0  0  0  0  0  0  0  0  0  0  # atno 17371 bound_to 10713
  140.1586  134.9181  157.2685 LP  0  0  0  0  0  0  0  0  0  0  0  0  # atno 17394 bound_to 11000
  140.2638  134.3540  155.7397 LP  0  0  0  0  0  0  0  0  0  0  0  0  # atno 17395 bound_to 11000

$$$$
