AV-unprocessed.smi:557|AV-procd|sdf|2917|dock4
  -GOLD-   2262023413D 1   1.00000     0.00000
 Structure written by MMmdl.
 47 49  0  0  0  0  0  0  0  0  2 V2000
  151.7203  138.3768  154.5144 C   0  0  0  0  0  0  0  0  0  0  0  0
  150.4251  139.0090  154.3856 N   0  0  0  0  0  0  0  0  0  0  0  0
  149.2095  138.4288  154.0942 C   0  0  0  0  0  0  0  0  0  0  0  0
  148.2733  139.4240  154.0802 C   0  0  0  0  0  0  0  0  0  0  0  0
  146.7965  139.3220  153.8200 C   0  0  0  0  0  0  0  0  0  0  0  0
  146.5100  138.8996  152.3732 C   0  0  0  0  0  0  0  0  0  0  0  0
  146.8588  137.4966  152.1674 N   0  0  0  0  0  0  0  0  0  0  0  0
  146.0144  136.4560  152.0700 C   0  0  0  0  0  0  0  0  0  0  0  0
  144.7961  136.5961  152.1541 O   0  0  0  0  0  0  0  0  0  0  0  0
  146.6131  135.2680  151.8806 N   0  0  0  0  0  0  0  0  0  0  0  0
  145.9258  133.9870  151.7501 C   0  0  1  0  0  0  0  0  0  0  0  0
  145.4203  133.7220  150.3369 C   0  0  0  0  0  0  0  0  0  0  0  0
  145.2236  132.2055  150.3441 C   0  0  0  0  0  0  0  0  0  0  0  0
  146.2897  131.6635  151.2168 N   0  3  2  0  0  0  0  0  0  0  0  0
  145.9051  130.4541  151.9845 C   0  0  0  0  0  0  0  0  0  0  0  0
  147.0802  129.9678  152.8517 C   0  0  0  0  0  0  0  0  0  0  0  0
  147.6866  131.0847  153.7265 C   0  0  0  0  0  0  0  0  0  0  0  0
  146.9896  132.4391  153.5209 C   0  0  0  0  0  0  0  0  0  0  0  0
  146.8500  132.7869  152.0213 C   0  0  2  0  0  0  0  0  0  0  0  0
  149.0304  140.5937  154.3747 C   0  0  0  0  0  0  0  0  0  0  0  0
  150.3161  140.3422  154.5582 N   0  0  0  0  0  0  0  0  0  0  0  0
  151.6156  137.2931  154.4536 H   0  0  0  0  0  0  0  0  0  0  0  0
  152.1655  138.6358  155.4755 H   0  0  0  0  0  0  0  0  0  0  0  0
  152.3760  138.7158  153.7121 H   0  0  0  0  0  0  0  0  0  0  0  0
  149.1109  137.3666  153.9245 H   0  0  0  0  0  0  0  0  0  0  0  0
  146.3388  138.6048  154.5023 H   0  0  0  0  0  0  0  0  0  0  0  0
  146.3083  140.2762  154.0217 H   0  0  0  0  0  0  0  0  0  0  0  0
  145.4529  139.0473  152.1453 H   0  0  0  0  0  0  0  0  0  0  0  0
  147.0836  139.5233  151.6853 H   0  0  0  0  0  0  0  0  0  0  0  0
  147.8451  137.2907  152.0972 H   0  0  0  0  0  0  0  0  0  0  0  0
  147.6210  135.2536  151.8215 H   0  0  0  0  0  0  0  0  0  0  0  0
  145.0658  133.9510  152.4222 H   0  0  0  0  0  0  0  0  0  0  0  0
  144.5050  134.2662  150.1023 H   0  0  0  0  0  0  0  0  0  0  0  0
  146.1776  133.9964  149.6008 H   0  0  0  0  0  0  0  0  0  0  0  0
  144.2441  131.9732  150.7656 H   0  0  0  0  0  0  0  0  0  0  0  0
  145.2675  131.7727  149.3445 H   0  0  0  0  0  0  0  0  0  0  0  0
  145.0398  130.6729  152.6125 H   0  0  0  0  0  0  0  0  0  0  0  0
  145.6008  129.6675  151.2932 H   0  0  0  0  0  0  0  0  0  0  0  0
  146.7517  129.1396  153.4804 H   0  0  0  0  0  0  0  0  0  0  0  0
  147.8581  129.5613  152.2043 H   0  0  0  0  0  0  0  0  0  0  0  0
  147.6387  130.8042  154.7792 H   0  0  0  0  0  0  0  0  0  0  0  0
  148.7464  131.1872  153.4901 H   0  0  0  0  0  0  0  0  0  0  0  0
  146.0051  132.4100  153.9900 H   0  0  0  0  0  0  0  0  0  0  0  0
  147.5450  133.2210  154.0388 H   0  0  0  0  0  0  0  0  0  0  0  0
  147.8400  132.9889  151.6088 H   0  0  0  0  0  0  0  0  0  0  0  0
  148.6845  141.6130  154.4620 H   0  0  0  0  0  0  0  0  0  0  0  0
  147.0401  131.3782  150.6039 H   0  0  0  0  0  0  0  0  0  0  0  0
  1  2  1  0  0  0  0
  1 22  1  0  0  0  0
  1 23  1  0  0  0  0
  1 24  1  0  0  0  0
  2 21  1  0  0  0  0
  2  3  1  0  0  0  0
  3  4  2  0  0  0  0
  3 25  1  0  0  0  0
  4  5  1  0  0  0  0
  4 20  1  0  0  0  0
  5  6  1  0  0  0  0
  5 26  1  0  0  0  0
  5 27  1  0  0  0  0
  6  7  1  0  0  0  0
  6 28  1  0  0  0  0
  6 29  1  0  0  0  0
  7  8  1  0  0  0  0
  7 30  1  0  0  0  0
  8  9  2  0  0  0  0
  8 10  1  0  0  0  0
 10 11  1  0  0  0  0
 10 31  1  0  0  0  0
 11 19  1  0  0  0  0
 11 12  1  0  0  0  0
 11 32  1  0  0  0  0
 12 13  1  0  0  0  0
 12 33  1  0  0  0  0
 12 34  1  0  0  0  0
 13 14  1  0  0  0  0
 13 35  1  0  0  0  0
 13 36  1  0  0  0  0
 14 19  1  0  0  0  0
 14 15  1  0  0  0  0
 14 47  1  0  0  0  0
 15 16  1  0  0  0  0
 15 37  1  0  0  0  0
 15 38  1  0  0  0  0
 16 17  1  0  0  0  0
 16 39  1  0  0  0  0
 16 40  1  0  0  0  0
 17 18  1  0  0  0  0
 17 41  1  0  0  0  0
 17 42  1  0  0  0  0
 18 19  1  0  0  0  0
 18 43  1  0  0  0  0
 18 44  1  0  0  0  0
 19 45  1  0  0  0  0
 20 21  2  0  0  0  0
 20 46  1  0  0  0  0
M  CHG  1  14   1
M  END
> <s_m_source_file>
AV-unprocessed.smi

> <i_m_source_file_index>
557

> <i_lp_mmshare_version>
43012

> <i_f3d_flags>
0

> <s_epik_input>
W0NIM11uMVtjSF1jKFtjSF1uMSlbQ0gyXVtDSDJdW05IXUMoPU8pW05IXVtDQEhdKFtDSDJdW0NIMl0yKVtDQEhdKE4yMylbQ0gyXVtDSDJdW0NIMl1bQ0gyXTM=

> <s_epik_cmdline>
J2VwaWtfcHl0aG9uJywgJy1waCcsICc3LjAnLCAnLXRuJywgJzgnLCAnLW1hJywgJzIwMCcsICctbWV0YWxfYmluZGluZycsICctaW1hZScsICc8aW5maWxlLm1hZT4nLCAnLW9tYWUnLCAnPG91dGZpbGUubWFlPic=

> <r_lp_tautomer_probability>
1

> <r_epik_Ionization_Penalty>
0.000956547

> <r_epik_Ionization_Penalty_Charging>
0.000435796

> <r_epik_Ionization_Penalty_Neutral>
0.000520752

> <r_epik_State_Penalty>
-0

> <r_epik_Charging_Adjusted_Penalty>
0.000435796

> <i_epik_Tot_Q>
1

> <i_epik_Tot_abs_Q>
1

> <r_epik_Metal_State_Penalty>
-0

> <b_epik_Metal_Only>
0

> <s_lp_Force_Field>
OPLS_2005

> <r_lp_Energy>
44.9241

> <b_lp_Chiralities_Consistent>
1

> <s_lp_Variant>
AV-unprocessed.smi:557-4

> <Gold.Version>
5.8.1

> <Gold.Id.Protein>
6NUR|6NUR_protein|mol2

> <Gold.PLP.Fitness>
50.0688

> <Gold.PLP.PLP>
-36.5225

> <Gold.PLP.part.hbond>
-3.6544

> <Gold.PLP.part.metal>
0.0000

> <Gold.PLP.part.buried>
-1.9901

> <Gold.PLP.part.nonpolar>
-31.8501

> <Gold.PLP.part.repulsive>
0.4397

> <Gold.PLP.ligand.clash>
0.0000

> <Gold.PLP.ligand.torsion>
0.4713

> <Gold.PLP.Chemscore.Hbond>
3.8633

> <Gold.PLP.Chemscore.CHOScore>
0.9615

> <Gold.PLP.Chemscore.Metal>
0.0000

> <Gold.Chemscore.Hbonds>
donor molecule, donor type, donor heavy atom, donor atom, acceptor molecule, acceptor atom, score
      L1  H     7    30       P1  7948  0.96
      L1  H    10    31       P1  7948  0.88
      L1  H    14    47       P1 10747  1.00
      P1  H  7989  7998       L1    21  1.00
      L1  C     3    25       P1  7948  0.95

> <Gold.PLP.Chemscore.Internal.Correction>
0.0147

> <Gold.Rescore>
     Score         DG    S(hbond)    S(metal)    S(lipo)     H(rot)  DE(clash)    DE(int)     intcor
     22.91     -23.87       3.68        0.00      87.15       1.60       0.29       0.67       ----

> <Gold.Chemscore.Fitness>
22.9084

> <Gold.Chemscore.DG>
-23.8728

> <Gold.Chemscore.ZeroCoef>
-5.4800

> <Gold.Chemscore.Hbond>
3.6817

> <Gold.Chemscore.Metal>
0.0000

> <Gold.Chemscore.Lipo>
87.1492

> <Gold.Chemscore.Internal_Hbond>
0.0000

> <Gold.Chemscore.DEClash>
0.2895

> <Gold.Chemscore.DEInternal>
0.6749

> <Gold.Chemscore.Rot>
1.6018

> <Gold.Chemscore.Internal.Correction>
   9.000000E+99

> <Gold.Chemscore.Hbonds>
donor molecule, donor type, donor heavy atom, donor atom, acceptor molecule, acceptor atom, score
      L1  H     7    30       P1  7948  0.86
      L1  H    10    31       P1  7948  0.78
      L1  H    14    47       P1 10747  0.90
      P1  H  7989  7998       L1    21  0.25

> <Gold.Chemscore.Hbond.Weighted>
-12.2970

> <Gold.Chemscore.Metal.Weighted>
-0.0000

> <Gold.Chemscore.Lipo.Weighted>
-10.1965

> <Gold.Chemscore.Internal_Hbond.Weighted>
0.0000

> <Gold.Chemscore.DEClash.Weighted>
0.2895

> <Gold.Chemscore.DEInternal.Weighted>
0.6749

> <Gold.Chemscore.Rot.Weighted>
4.1006

> <Gold.Chemscore.Internal.Correction.Weighted>
   9.000000E+99

> <Gold.Protein.RotatedTorsions>
[ 6907 6896 6895 6894 ] final    4.05 input  -60.11 | X-H torsion
[ 7974 7965 7964 7962 ] final  -83.71 input  175.53 | X-H torsion
[ 8008 7997 7996 7995 ] final  162.07 input   59.86 | X-H torsion
[ 10167 10162 10161 10158 ] final   17.29 input  -65.29 | X-H torsion
[ 10718 10713 10712 10709 ] final  -31.84 input   66.30 | X-H torsion
[ 10763 10752 10751 10750 ] final -130.48 input  -60.55 | X-H torsion
[ 11005 11000 10999 10996 ] final  -34.16 input  -57.11 | X-H torsion

> <Gold.Protein.ActiveResidues>
 VAL166  LYS551  ARG553  GLY616  TRP617  ASP618  TYR619  PRO620  LYS621  CYS622 
 ASP623  PHE694  ASN695  SER759  ASP760  ASP761  ALA762  ILE779  LEU786  VAL792 
 PHE793  MET794  SER795  GLU796  ALA797  LYS798  CYS799  TRP800  GLU811  SER814 

> <Gold.Protein.RotatedAtoms>
  151.6349  135.1019  160.0129 H   0  0  0  0  0  0  0  0  0  0  0  0  # atno 6907 bound_to 6896
  152.4086  133.6923  159.6386 H   0  0  0  0  0  0  0  0  0  0  0  0  # atno 6908 bound_to 6896
  150.7978  133.8582  159.3265 H   0  0  0  0  0  0  0  0  0  0  0  0  # atno 6909 bound_to 6896
  145.5164  140.9535  143.1679 H   0  0  0  0  0  0  0  0  0  0  0  0  # atno 7974 bound_to 7965
  156.2058  140.1760  156.7803 H   0  0  0  0  0  0  0  0  0  0  0  0  # atno 8008 bound_to 7997
  154.5653  140.0692  156.8912 H   0  0  0  0  0  0  0  0  0  0  0  0  # atno 8009 bound_to 7997
  155.2772  140.3346  155.4263 H   0  0  0  0  0  0  0  0  0  0  0  0  # atno 8010 bound_to 7997
  140.5736  143.9114  150.6732 H   0  0  0  0  0  0  0  0  0  0  0  0  # atno 10167 bound_to 10162
  156.3823  130.4358  149.7459 H   0  0  0  0  0  0  0  0  0  0  0  0  # atno 10718 bound_to 10713
  154.8755  135.3861  154.4090 H   0  0  0  0  0  0  0  0  0  0  0  0  # atno 10763 bound_to 10752
  153.4806  135.7030  153.5945 H   0  0  0  0  0  0  0  0  0  0  0  0  # atno 10764 bound_to 10752
  153.4363  135.3866  155.2168 H   0  0  0  0  0  0  0  0  0  0  0  0  # atno 10765 bound_to 10752
  140.9693  133.7118  156.1498 H   0  0  0  0  0  0  0  0  0  0  0  0  # atno 11005 bound_to 11000
  144.7700  139.6757  143.7199 LP  0  0  0  0  0  0  0  0  0  0  0  0  # atno 17320 bound_to 7965
  146.2134  139.5506  142.9666 LP  0  0  0  0  0  0  0  0  0  0  0  0  # atno 17321 bound_to 7965
  140.2596  143.3534  152.1335 LP  0  0  0  0  0  0  0  0  0  0  0  0  # atno 17342 bound_to 10162
  139.5131  144.6927  151.5716 LP  0  0  0  0  0  0  0  0  0  0  0  0  # atno 17343 bound_to 10162
  156.4545  130.7922  151.2943 LP  0  0  0  0  0  0  0  0  0  0  0  0  # atno 17370 bound_to 10713
  157.7493  131.0085  150.3231 LP  0  0  0  0  0  0  0  0  0  0  0  0  # atno 17371 bound_to 10713
  140.7352  134.4211  157.5561 LP  0  0  0  0  0  0  0  0  0  0  0  0  # atno 17394 bound_to 11000
  139.8906  134.8800  156.2360 LP  0  0  0  0  0  0  0  0  0  0  0  0  # atno 17395 bound_to 11000

$$$$
