AV-unprocessed.smi:1047|AV-procd|sdf|4600|dock7
  -GOLD-   22720 3 93D 1   1.00000     0.00000
 Structure written by MMmdl.
 57 59  0  0  0  0  0  0  0  0  3 V2000
  159.4704  135.6245  150.8995 C   0  0  0  0  0  0  0  0  0  0  0  0
  158.2841  136.5989  150.8957 C   0  0  0  0  0  0  0  0  0  0  0  0
  157.7178  136.8100  152.2510 N   0  3  1  0  0  0  0  0  0  0  0  0
  158.7374  137.1458  153.2756 C   0  0  0  0  0  0  0  0  0  0  0  0
  158.0799  137.3003  154.6574 C   0  0  0  0  0  0  0  0  0  0  0  0
  157.0662  138.2960  154.6021 O   0  0  0  0  0  0  0  0  0  0  0  0
  156.0380  137.9679  153.6737 C   0  0  1  0  0  0  0  0  0  0  0  0
  154.9225  139.0224  153.7717 C   0  0  0  0  0  0  0  0  0  0  0  0
  153.9868  138.7295  154.8545 N   0  0  0  0  0  0  0  0  0  0  0  0
  152.5859  138.8352  154.4596 C   0  0  0  0  0  0  0  0  0  0  0  0
  151.6482  138.5385  155.6423 C   0  0  1  0  0  0  0  0  0  0  0  0
  151.6918  137.1510  155.9128 O   0  0  0  0  0  0  0  0  0  0  0  0
  152.0625  139.3184  156.9053 C   0  0  0  0  0  0  0  0  0  0  0  0
  151.4750  140.6652  156.9634 N   0  0  0  0  0  0  0  0  0  0  0  0
  150.6276  141.2784  156.0929 C   0  0  0  0  0  0  0  0  0  0  0  0
  150.3679  142.5232  156.5796 N   0  3  0  0  0  0  0  0  0  0  0  0
  151.0583  142.7080  157.7791 C   0  0  0  0  0  0  0  0  0  0  0  0
  151.1111  143.7989  158.6383 C   0  0  0  0  0  0  0  0  0  0  0  0
  151.9139  143.6716  159.7942 C   0  0  0  0  0  0  0  0  0  0  0  0
  151.9956  144.8473  160.7532 C   0  0  0  0  0  0  0  0  0  0  0  0
  152.6282  142.4743  160.0581 C   0  0  0  0  0  0  0  0  0  0  0  0
  153.4818  142.3447  161.3082 C   0  0  0  0  0  0  0  0  0  0  0  0
  152.5629  141.3767  159.1701 C   0  0  0  0  0  0  0  0  0  0  0  0
  151.7698  141.5193  158.0336 C   0  0  0  0  0  0  0  0  0  0  0  0
  156.6308  137.8174  152.2563 C   0  0  0  0  0  0  0  0  0  0  0  0
  159.8045  135.4250  149.8811 H   0  0  0  0  0  0  0  0  0  0  0  0
  159.1942  134.6700  151.3482 H   0  0  0  0  0  0  0  0  0  0  0  0
  160.3249  136.0208  151.4470 H   0  0  0  0  0  0  0  0  0  0  0  0
  158.5709  137.5548  150.4547 H   0  0  0  0  0  0  0  0  0  0  0  0
  157.5117  136.1801  150.2490 H   0  0  0  0  0  0  0  0  0  0  0  0
  159.4973  136.3667  153.3273 H   0  0  0  0  0  0  0  0  0  0  0  0
  159.2459  138.0711  152.9998 H   0  0  0  0  0  0  0  0  0  0  0  0
  157.6577  136.3526  154.9955 H   0  0  0  0  0  0  0  0  0  0  0  0
  158.8241  137.5979  155.3962 H   0  0  0  0  0  0  0  0  0  0  0  0
  155.6053  137.0116  153.9736 H   0  0  0  0  0  0  0  0  0  0  0  0
  155.3679  140.0060  153.9261 H   0  0  0  0  0  0  0  0  0  0  0  0
  154.3896  139.0699  152.8214 H   0  0  0  0  0  0  0  0  0  0  0  0
  154.1698  137.8017  155.2236 H   0  0  0  0  0  0  0  0  0  0  0  0
  152.3734  139.8184  154.0373 H   0  0  0  0  0  0  0  0  0  0  0  0
  152.3917  138.1123  153.6660 H   0  0  0  0  0  0  0  0  0  0  0  0
  150.6237  138.8113  155.3841 H   0  0  0  0  0  0  0  0  0  0  0  0
  152.5868  136.8576  155.8384 H   0  0  0  0  0  0  0  0  0  0  0  0
  151.8092  138.7710  157.8134 H   0  0  0  0  0  0  0  0  0  0  0  0
  153.1459  139.4456  156.9207 H   0  0  0  0  0  0  0  0  0  0  0  0
  150.2325  140.8546  155.1808 H   0  0  0  0  0  0  0  0  0  0  0  0
  150.5618  144.7058  158.4320 H   0  0  0  0  0  0  0  0  0  0  0  0
  153.0280  145.1794  160.8661 H   0  0  0  0  0  0  0  0  0  0  0  0
  151.6113  144.5688  161.7348 H   0  0  0  0  0  0  0  0  0  0  0  0
  151.4117  145.6955  160.3945 H   0  0  0  0  0  0  0  0  0  0  0  0
  153.9486  141.3613  161.3727 H   0  0  0  0  0  0  0  0  0  0  0  0
  152.8740  142.4833  162.2029 H   0  0  0  0  0  0  0  0  0  0  0  0
  154.2758  143.0916  161.3095 H   0  0  0  0  0  0  0  0  0  0  0  0
  153.1055  140.4662  159.3752 H   0  0  0  0  0  0  0  0  0  0  0  0
  157.0277  138.7691  151.8993 H   0  0  0  0  0  0  0  0  0  0  0  0
  155.8458  137.5167  151.5611 H   0  0  0  0  0  0  0  0  0  0  0  0
  157.2952  135.9355  152.5282 H   0  0  0  0  0  0  0  0  0  0  0  0
  149.7625  143.1947  156.1249 H   0  0  0  0  0  0  0  0  0  0  0  0
  1  2  1  0  0  0  0
  1 26  1  0  0  0  0
  1 27  1  0  0  0  0
  1 28  1  0  0  0  0
  2  3  1  0  0  0  0
  2 29  1  0  0  0  0
  2 30  1  0  0  0  0
  3 25  1  0  0  0  0
  3  4  1  0  0  0  0
  3 56  1  0  0  0  0
  4  5  1  0  0  0  0
  4 31  1  0  0  0  0
  4 32  1  0  0  0  0
  5  6  1  0  0  0  0
  5 33  1  0  0  0  0
  5 34  1  0  0  0  0
  6  7  1  0  0  0  0
  7  8  1  0  0  0  0
  7 25  1  0  0  0  0
  7 35  1  0  0  0  0
  8  9  1  0  0  0  0
  8 36  1  0  0  0  0
  8 37  1  0  0  0  0
  9 10  1  0  0  0  0
  9 38  1  0  0  0  0
 10 11  1  0  0  0  0
 10 39  1  0  0  0  0
 10 40  1  0  0  0  0
 11 12  1  0  0  0  0
 11 13  1  0  0  0  0
 11 41  1  0  0  0  0
 12 42  1  0  0  0  0
 13 14  1  0  0  0  0
 13 43  1  0  0  0  0
 13 44  1  0  0  0  0
 14 24  1  0  0  0  0
 14 15  1  0  0  0  0
 15 16  2  0  0  0  0
 15 45  1  0  0  0  0
 16 17  1  0  0  0  0
 16 57  1  0  0  0  0
 17 24  2  0  0  0  0
 17 18  1  0  0  0  0
 18 19  2  0  0  0  0
 18 46  1  0  0  0  0
 19 20  1  0  0  0  0
 19 21  1  0  0  0  0
 20 47  1  0  0  0  0
 20 48  1  0  0  0  0
 20 49  1  0  0  0  0
 21 22  1  0  0  0  0
 21 23  2  0  0  0  0
 22 50  1  0  0  0  0
 22 51  1  0  0  0  0
 22 52  1  0  0  0  0
 23 24  1  0  0  0  0
 23 53  1  0  0  0  0
 25 54  1  0  0  0  0
 25 55  1  0  0  0  0
M  CHG  1   3   1
M  CHG  1  16   1
M  END
> <s_m_source_file>
AV-unprocessed.smi

> <i_m_source_file_index>
1047

> <i_lp_mmshare_version>
43012

> <i_f3d_flags>
0

> <s_epik_input>
W0NIM11bQ0gyXU4xW0NIMl1bQ0gyXU9bQ0BIXShbQ0gyXTEpW0NIMl1bTkhdW0NIMl1bQ0BIXShbT0hdKVtDSDJdbihbY0hdbjIpYyhjMjMpW2NIXWMoW0NIM10pYyhbY0hdMylbQ0gzXQ==

> <s_epik_cmdline>
J2VwaWtfcHl0aG9uJywgJy1waCcsICc3LjAnLCAnLXRuJywgJzgnLCAnLW1hJywgJzIwMCcsICctbWV0YWxfYmluZGluZycsICctaW1hZScsICc8aW5maWxlLm1hZT4nLCAnLW9tYWUnLCAnPG91dGZpbGUubWFlPic=

> <r_epik_Ionization_Penalty>
2.03028

> <r_epik_Ionization_Penalty_Charging>
1.21256

> <r_epik_Ionization_Penalty_Neutral>
0.817715

> <r_epik_State_Penalty>
2.54959

> <r_epik_Charging_Adjusted_Penalty>
3.76215

> <i_epik_Tot_Q>
2

> <i_epik_Tot_abs_Q>
2

> <r_epik_Metal_State_Penalty>
6.52811

> <b_epik_Metal_Only>
0

> <s_lp_Force_Field>
OPLS_2005

> <r_lp_Energy>
36.9073

> <b_lp_Chiralities_Consistent>
1

> <s_lp_Variant>
AV-unprocessed.smi:1047-41

> <Gold.Version>
5.8.1

> <Gold.Id.Protein>
6NUR|6NUR_protein|mol2

> <Gold.PLP.Fitness>
62.2247

> <Gold.PLP.PLP>
-56.3996

> <Gold.PLP.part.hbond>
-2.1383

> <Gold.PLP.part.metal>
0.0000

> <Gold.PLP.part.buried>
-5.1092

> <Gold.PLP.part.nonpolar>
-49.4725

> <Gold.PLP.part.repulsive>
0.1956

> <Gold.PLP.ligand.clash>
0.0000

> <Gold.PLP.ligand.torsion>
1.0344

> <Gold.PLP.Chemscore.Hbond>
2.5616

> <Gold.PLP.Chemscore.CHOScore>
0.0000

> <Gold.PLP.Chemscore.Metal>
0.0000

> <Gold.Chemscore.Hbonds>
donor molecule, donor type, donor heavy atom, donor atom, acceptor molecule, acceptor atom, score
      L1  H    16    57       P1  8028  2.00
      P1  H  7997  8009       L1     9  0.62

> <Gold.PLP.Chemscore.Internal.Correction>
0.2093

> <Gold.Rescore>
     Score         DG    S(hbond)    S(metal)    S(lipo)     H(rot)  DE(clash)    DE(int)     intcor
     20.50     -22.46       1.12        0.00     172.44       2.71       0.82       1.13       ----

> <Gold.Chemscore.Fitness>
20.5020

> <Gold.Chemscore.DG>
-22.4598

> <Gold.Chemscore.ZeroCoef>
-5.4800

> <Gold.Chemscore.Hbond>
1.1193

> <Gold.Chemscore.Metal>
0.0000

> <Gold.Chemscore.Lipo>
172.4437

> <Gold.Chemscore.Internal_Hbond>
0.0000

> <Gold.Chemscore.DEClash>
0.8241

> <Gold.Chemscore.DEInternal>
1.1337

> <Gold.Chemscore.Rot>
2.7088

> <Gold.Chemscore.Internal.Correction>
   9.000000E+99

> <Gold.Chemscore.Hbonds>
donor molecule, donor type, donor heavy atom, donor atom, acceptor molecule, acceptor atom, score
      L1  H    16    57       P1  8028  1.00
      P1  H  7997  8009       L1     9  0.10
      P1  H  7997  8010       L1     6  0.01

> <Gold.Chemscore.Hbond.Weighted>
-3.7386

> <Gold.Chemscore.Metal.Weighted>
-0.0000

> <Gold.Chemscore.Lipo.Weighted>
-20.1759

> <Gold.Chemscore.Internal_Hbond.Weighted>
0.0000

> <Gold.Chemscore.DEClash.Weighted>
0.8241

> <Gold.Chemscore.DEInternal.Weighted>
1.1337

> <Gold.Chemscore.Rot.Weighted>
6.9346

> <Gold.Chemscore.Internal.Correction.Weighted>
   9.000000E+99

> <Gold.Protein.RotatedTorsions>
[ 6907 6896 6895 6894 ] final   -2.35 input  -60.11 | X-H torsion
[ 7974 7965 7964 7962 ] final  124.70 input  175.53 | X-H torsion
[ 8008 7997 7996 7995 ] final -143.98 input   59.86 | X-H torsion
[ 10167 10162 10161 10158 ] final -100.98 input  -65.29 | X-H torsion
[ 10718 10713 10712 10709 ] final  173.42 input   66.30 | X-H torsion
[ 10763 10752 10751 10750 ] final  159.20 input  -60.55 | X-H torsion
[ 11005 11000 10999 10996 ] final  -77.20 input  -57.11 | X-H torsion

> <Gold.Protein.ActiveResidues>
 VAL166  LYS551  ARG553  GLY616  TRP617  ASP618  TYR619  PRO620  LYS621  CYS622 
 ASP623  PHE694  ASN695  SER759  ASP760  ASP761  ALA762  ILE779  LEU786  VAL792 
 PHE793  MET794  SER795  GLU796  ALA797  LYS798  CYS799  TRP800  GLU811  SER814 

> <Gold.Protein.RotatedAtoms>
  151.5313  135.1068  159.9903 H   0  0  0  0  0  0  0  0  0  0  0  0  # atno 6907 bound_to 6896
  152.4577  133.7753  159.6831 H   0  0  0  0  0  0  0  0  0  0  0  0  # atno 6908 bound_to 6896
  150.8527  133.7697  159.3045 H   0  0  0  0  0  0  0  0  0  0  0  0  # atno 6909 bound_to 6896
  145.0814  139.3654  143.4907 H   0  0  0  0  0  0  0  0  0  0  0  0  # atno 7974 bound_to 7965
  155.5195  140.0590  157.2909 H   0  0  0  0  0  0  0  0  0  0  0  0  # atno 8008 bound_to 7997
  154.4523  140.1955  156.0429 H   0  0  0  0  0  0  0  0  0  0  0  0  # atno 8009 bound_to 7997
  156.0729  140.3257  155.7602 H   0  0  0  0  0  0  0  0  0  0  0  0  # atno 8010 bound_to 7997
  140.2461  143.3504  152.0757 H   0  0  0  0  0  0  0  0  0  0  0  0  # atno 10167 bound_to 10162
  156.9645  131.0071  151.2920 H   0  0  0  0  0  0  0  0  0  0  0  0  # atno 10718 bound_to 10713
  154.2281  135.2779  155.2900 H   0  0  0  0  0  0  0  0  0  0  0  0  # atno 10763 bound_to 10752
  154.5646  135.5636  153.7042 H   0  0  0  0  0  0  0  0  0  0  0  0  # atno 10764 bound_to 10752
  153.0026  135.6306  154.2422 H   0  0  0  0  0  0  0  0  0  0  0  0  # atno 10765 bound_to 10752
  141.1659  133.7013  156.7785 H   0  0  0  0  0  0  0  0  0  0  0  0  # atno 11005 bound_to 11000
  146.3531  140.0606  142.8629 LP  0  0  0  0  0  0  0  0  0  0  0  0  # atno 17320 bound_to 7965
  145.1174  140.9441  143.4621 LP  0  0  0  0  0  0  0  0  0  0  0  0  # atno 17321 bound_to 7965
  139.5061  144.6807  151.6014 LP  0  0  0  0  0  0  0  0  0  0  0  0  # atno 17342 bound_to 10162
  140.6076  143.9495  150.6430 LP  0  0  0  0  0  0  0  0  0  0  0  0  # atno 17343 bound_to 10162
  157.5635  130.8262  149.8297 LP  0  0  0  0  0  0  0  0  0  0  0  0  # atno 17370 bound_to 10713
  156.0308  130.3765  150.1693 LP  0  0  0  0  0  0  0  0  0  0  0  0  # atno 17371 bound_to 10713
  140.2412  134.8612  157.3575 LP  0  0  0  0  0  0  0  0  0  0  0  0  # atno 17394 bound_to 11000
  140.1794  134.4508  155.7781 LP  0  0  0  0  0  0  0  0  0  0  0  0  # atno 17395 bound_to 11000

$$$$
