AV-unprocessed.smi:2069|AV-procd|sdf|8438|dock4
  -GOLD-   2272011133D 1   1.00000     0.00000
 Structure written by MMmdl.
 38 39  0  0  0  0  0  0  0  0  3 V2000
  146.7762  134.0319  162.7721 C   0  0  0  0  0  0  0  0  0  0  0  0
  147.5064  135.0109  161.9180 C   0  0  0  0  0  0  0  0  0  0  0  0
  147.8745  136.2177  162.3547 N   0  0  0  0  0  0  0  0  0  0  0  0
  148.5403  136.9461  161.3790 N   0  0  0  0  0  0  0  0  0  0  0  0
  148.6757  136.2778  160.2249 C   0  0  0  0  0  0  0  0  0  0  0  0
  149.2878  136.8066  159.1524 N   0  5  0  0  0  0  0  0  0  0  0  0
  149.3427  136.1109  157.9951 C   0  0  0  0  0  0  0  0  0  0  0  0
  149.6269  134.9172  157.8711 O   0  0  0  0  0  0  0  0  0  0  0  0
  149.0411  136.8411  156.9122 N   0  0  0  0  0  0  0  0  0  0  0  0
  148.9959  136.3469  155.5392 C   0  0  0  0  0  0  0  0  0  0  0  0
  147.5683  136.3776  154.9288 C   0  0  1  0  0  0  0  0  0  0  0  0
  147.2080  137.8196  154.4939 C   0  0  0  0  0  0  0  0  0  0  0  0
  147.4476  135.3758  153.8193 N   0  3  0  0  0  0  0  0  0  0  0  0
  147.9912  134.0401  154.1918 C   0  0  0  0  0  0  0  0  0  0  0  0
  147.9159  133.0584  153.0116 C   0  0  0  0  0  0  0  0  0  0  0  0
  146.5689  132.9376  152.5807 O   0  0  0  0  0  0  0  0  0  0  0  0
  146.0606  134.1793  152.1175 C   0  0  0  0  0  0  0  0  0  0  0  0
  146.0778  135.2127  153.2570 C   0  0  0  0  0  0  0  0  0  0  0  0
  147.9554  134.6684  160.2559 S   0  0  0  0  0  0  0  0  0  0  0  0
  147.4736  133.5304  163.4430 H   0  0  0  0  0  0  0  0  0  0  0  0
  146.2849  133.2813  162.1527 H   0  0  0  0  0  0  0  0  0  0  0  0
  146.0186  134.5414  163.3680 H   0  0  0  0  0  0  0  0  0  0  0  0
  148.8190  137.8154  157.0573 H   0  0  0  0  0  0  0  0  0  0  0  0
  149.6657  136.9650  154.9408 H   0  0  0  0  0  0  0  0  0  0  0  0
  149.4266  135.3469  155.5357 H   0  0  0  0  0  0  0  0  0  0  0  0
  146.8492  136.0942  155.6990 H   0  0  0  0  0  0  0  0  0  0  0  0
  147.3380  138.5325  155.3081 H   0  0  0  0  0  0  0  0  0  0  0  0
  146.1639  137.9091  154.1948 H   0  0  0  0  0  0  0  0  0  0  0  0
  147.8330  138.1540  153.6653 H   0  0  0  0  0  0  0  0  0  0  0  0
  149.0299  134.1081  154.5085 H   0  0  0  0  0  0  0  0  0  0  0  0
  147.4299  133.6412  155.0383 H   0  0  0  0  0  0  0  0  0  0  0  0
  148.5509  133.3872  152.1873 H   0  0  0  0  0  0  0  0  0  0  0  0
  148.2762  132.0761  153.3184 H   0  0  0  0  0  0  0  0  0  0  0  0
  146.6442  134.5301  151.2648 H   0  0  0  0  0  0  0  0  0  0  0  0
  145.0406  134.0305  151.7630 H   0  0  0  0  0  0  0  0  0  0  0  0
  145.3912  134.9093  154.0489 H   0  0  0  0  0  0  0  0  0  0  0  0
  145.7108  136.1526  152.8464 H   0  0  0  0  0  0  0  0  0  0  0  0
  148.0173  135.7248  153.0617 H   0  0  0  0  0  0  0  0  0  0  0  0
  1  2  1  0  0  0  0
  1 20  1  0  0  0  0
  1 21  1  0  0  0  0
  1 22  1  0  0  0  0
  2 19  1  0  0  0  0
  2  3  2  0  0  0  0
  3  4  1  0  0  0  0
  4  5  2  0  0  0  0
  5  6  1  0  0  0  0
  5 19  1  0  0  0  0
  6  7  1  0  0  0  0
  7  8  2  0  0  0  0
  7  9  1  0  0  0  0
  9 10  1  0  0  0  0
  9 23  1  0  0  0  0
 10 11  1  0  0  0  0
 10 24  1  0  0  0  0
 10 25  1  0  0  0  0
 11 12  1  0  0  0  0
 11 13  1  0  0  0  0
 11 26  1  0  0  0  0
 12 27  1  0  0  0  0
 12 28  1  0  0  0  0
 12 29  1  0  0  0  0
 13 18  1  0  0  0  0
 13 14  1  0  0  0  0
 13 38  1  0  0  0  0
 14 15  1  0  0  0  0
 14 30  1  0  0  0  0
 14 31  1  0  0  0  0
 15 16  1  0  0  0  0
 15 32  1  0  0  0  0
 15 33  1  0  0  0  0
 16 17  1  0  0  0  0
 17 18  1  0  0  0  0
 17 34  1  0  0  0  0
 17 35  1  0  0  0  0
 18 36  1  0  0  0  0
 18 37  1  0  0  0  0
M  CHG  1   6  -1
M  CHG  1  13   1
M  END
> <s_m_source_file>
AV-unprocessed.smi

> <i_m_source_file_index>
2069

> <i_lp_mmshare_version>
43012

> <i_f3d_flags>
0

> <s_epik_input>
W0NIM11jMW5uYyhzMSlbTkhdQyg9TylbTkhdW0NIMl1bQ0BIXShbQ0gzXSlOMltDSDJdW0NIMl1PW0NIMl1bQ0gyXTI=

> <s_epik_cmdline>
J2VwaWtfcHl0aG9uJywgJy1waCcsICc3LjAnLCAnLXRuJywgJzgnLCAnLW1hJywgJzIwMCcsICctbWV0YWxfYmluZGluZycsICctaW1hZScsICc8aW5maWxlLm1hZT4nLCAnLW9tYWUnLCAnPG91dGZpbGUubWFlPic=

> <r_lp_tautomer_probability>
1

> <r_epik_Ionization_Penalty>
3.53072

> <r_epik_Ionization_Penalty_Charging>
3.4216

> <r_epik_Ionization_Penalty_Neutral>
0.109115

> <r_epik_State_Penalty>
3.61496

> <r_epik_Charging_Adjusted_Penalty>
7.03656

> <i_epik_Tot_Q>
0

> <i_epik_Tot_abs_Q>
2

> <r_epik_Metal_State_Penalty>
1.13918

> <b_epik_Metal_Only>
1

> <s_lp_Force_Field>
OPLS_2005

> <r_lp_Energy>
13.0561

> <b_lp_Chiralities_Consistent>
1

> <s_lp_Variant>
AV-unprocessed.smi:2069-8

> <Gold.Version>
5.8.1

> <Gold.Id.Protein>
6NUR|6NUR_protein|mol2

> <Gold.PLP.Fitness>
39.2459

> <Gold.PLP.PLP>
-26.0038

> <Gold.PLP.part.hbond>
-4.0000

> <Gold.PLP.part.metal>
0.0000

> <Gold.PLP.part.buried>
-3.0931

> <Gold.PLP.part.nonpolar>
-19.4253

> <Gold.PLP.part.repulsive>
0.1599

> <Gold.PLP.ligand.clash>
0.0000

> <Gold.PLP.ligand.torsion>
0.6759

> <Gold.PLP.Chemscore.Hbond>
4.8240

> <Gold.PLP.Chemscore.CHOScore>
0.0000

> <Gold.PLP.Chemscore.Metal>
0.0000

> <Gold.Chemscore.Hbonds>
donor molecule, donor type, donor heavy atom, donor atom, acceptor molecule, acceptor atom, score
      L1  H    13    38       P1  7948  2.00
      P1  H  6896  6907       L1     8  1.00
      P1  H  6931  6943       L1     4  0.89

> <Gold.PLP.Chemscore.Internal.Correction>
0.1218

> <Gold.Rescore>
     Score         DG    S(hbond)    S(metal)    S(lipo)     H(rot)  DE(clash)    DE(int)     intcor
     17.27     -18.08       3.47        0.00      43.95       1.62       0.00       0.81       ----

> <Gold.Chemscore.Fitness>
17.2737

> <Gold.Chemscore.DG>
-18.0824

> <Gold.Chemscore.ZeroCoef>
-5.4800

> <Gold.Chemscore.Hbond>
3.4746

> <Gold.Chemscore.Metal>
0.0000

> <Gold.Chemscore.Lipo>
43.9533

> <Gold.Chemscore.Internal_Hbond>
0.0000

> <Gold.Chemscore.DEClash>
0.0009

> <Gold.Chemscore.DEInternal>
0.8078

> <Gold.Chemscore.Rot>
1.6192

> <Gold.Chemscore.Internal.Correction>
   9.000000E+99

> <Gold.Chemscore.Hbonds>
donor molecule, donor type, donor heavy atom, donor atom, acceptor molecule, acceptor atom, score
      L1  H    13    38       P1  7948  0.98
      P1  H  6896  6907       L1     8  0.68
      P1  H  6931  6943       L1     4  0.70

> <Gold.Chemscore.Hbond.Weighted>
-11.6051

> <Gold.Chemscore.Metal.Weighted>
-0.0000

> <Gold.Chemscore.Lipo.Weighted>
-5.1425

> <Gold.Chemscore.Internal_Hbond.Weighted>
0.0000

> <Gold.Chemscore.DEClash.Weighted>
0.0009

> <Gold.Chemscore.DEInternal.Weighted>
0.8078

> <Gold.Chemscore.Rot.Weighted>
4.1452

> <Gold.Chemscore.Internal.Correction.Weighted>
   9.000000E+99

> <Gold.Protein.RotatedTorsions>
[ 6907 6896 6895 6894 ] final  -85.09 input  -60.11 | X-H torsion
[ 7974 7965 7964 7962 ] final  -82.56 input  175.53 | X-H torsion
[ 8008 7997 7996 7995 ] final  113.29 input   59.86 | X-H torsion
[ 10167 10162 10161 10158 ] final   52.89 input  -65.29 | X-H torsion
[ 10718 10713 10712 10709 ] final   66.20 input   66.30 | X-H torsion
[ 10763 10752 10751 10750 ] final   21.15 input  -60.55 | X-H torsion
[ 11005 11000 10999 10996 ] final  117.40 input  -57.11 | X-H torsion

> <Gold.Protein.ActiveResidues>
 VAL166  LYS551  ARG553  GLY616  TRP617  ASP618  TYR619  PRO620  LYS621  CYS622 
 ASP623  PHE694  ASN695  SER759  ASP760  ASP761  ALA762  ILE779  LEU786  VAL792 
 PHE793  MET794  SER795  GLU796  ALA797  LYS798  CYS799  TRP800  GLU811  SER814 

> <Gold.Protein.RotatedAtoms>
  150.6872  134.3259  159.4806 H   0  0  0  0  0  0  0  0  0  0  0  0  # atno 6907 bound_to 6896
  152.1129  134.9259  160.0575 H   0  0  0  0  0  0  0  0  0  0  0  0  # atno 6908 bound_to 6896
  152.0494  133.3978  159.4407 H   0  0  0  0  0  0  0  0  0  0  0  0  # atno 6909 bound_to 6896
  145.5316  140.9520  143.1600 H   0  0  0  0  0  0  0  0  0  0  0  0  # atno 7974 bound_to 7965
  156.2248  140.2982  156.0040 H   0  0  0  0  0  0  0  0  0  0  0  0  # atno 8008 bound_to 7997
  155.2386  140.0421  157.2989 H   0  0  0  0  0  0  0  0  0  0  0  0  # atno 8009 bound_to 7997
  154.5898  140.2398  155.7945 H   0  0  0  0  0  0  0  0  0  0  0  0  # atno 8010 bound_to 7997
  140.2466  144.3525  150.6362 H   0  0  0  0  0  0  0  0  0  0  0  0  # atno 10167 bound_to 10162
  157.6154  130.9255  150.0077 H   0  0  0  0  0  0  0  0  0  0  0  0  # atno 10718 bound_to 10713
  153.1018  135.6674  153.9658 H   0  0  0  0  0  0  0  0  0  0  0  0  # atno 10763 bound_to 10752
  153.9226  135.3013  155.3449 H   0  0  0  0  0  0  0  0  0  0  0  0  # atno 10764 bound_to 10752
  154.7439  135.5066  153.9246 H   0  0  0  0  0  0  0  0  0  0  0  0  # atno 10765 bound_to 10752
  139.9073  134.9609  156.7346 H   0  0  0  0  0  0  0  0  0  0  0  0  # atno 11005 bound_to 11000
  144.7623  139.6928  143.7229 LP  0  0  0  0  0  0  0  0  0  0  0  0  # atno 17320 bound_to 7965
  146.2040  139.5352  142.9725 LP  0  0  0  0  0  0  0  0  0  0  0  0  # atno 17321 bound_to 7965
  140.6073  143.2168  151.6956 LP  0  0  0  0  0  0  0  0  0  0  0  0  # atno 17342 bound_to 10162
  139.5060  144.3698  152.0481 LP  0  0  0  0  0  0  0  0  0  0  0  0  # atno 17343 bound_to 10162
  156.1274  130.3644  149.9787 LP  0  0  0  0  0  0  0  0  0  0  0  0  # atno 17370 bound_to 10713
  156.7855  130.9237  151.3646 LP  0  0  0  0  0  0  0  0  0  0  0  0  # atno 17371 bound_to 10713
  140.6898  133.9400  155.7959 LP  0  0  0  0  0  0  0  0  0  0  0  0  # atno 17394 bound_to 11000
  141.0450  134.0567  157.3855 LP  0  0  0  0  0  0  0  0  0  0  0  0  # atno 17395 bound_to 11000

$$$$
