AV-unprocessed.smi:2547|AV-procd|sdf|10003|dock5
  -GOLD-   2272014 53D 1   1.00000     0.00000
 Structure written by MMmdl.
 45 46  0  0  0  0  0  0  0  0  3 V2000
  145.9594  137.6357  152.0739 C   0  0  0  0  0  0  0  0  0  0  0  0
  147.0152  138.0801  153.0088 N   0  3  2  0  0  0  0  0  0  0  0  0
  146.9006  137.4327  154.3393 C   0  0  0  0  0  0  0  0  0  0  0  0
  148.0817  137.8182  155.2462 C   0  0  0  0  0  0  0  0  0  0  0  0
  148.1952  139.3447  155.3909 C   0  0  1  0  0  0  0  0  0  0  0  0
  149.3705  139.6827  156.1890 N   0  0  0  0  0  0  0  0  0  0  0  0
  149.6054  140.8801  156.7452 C   0  0  0  0  0  0  0  0  0  0  0  0
  148.8436  141.8404  156.6339 O   0  0  0  0  0  0  0  0  0  0  0  0
  150.7749  140.8909  157.4078 N   0  0  0  0  0  0  0  0  0  0  0  0
  151.3658  141.9670  158.1215 C   0  0  0  0  0  0  0  0  0  0  0  0
  151.2790  143.3239  157.7286 C   0  0  0  0  0  0  0  0  0  0  0  0
  151.8896  144.3131  158.5232 C   0  0  0  0  0  0  0  0  0  0  0  0
  152.5691  143.9377  159.6987 C   0  0  0  0  0  0  0  0  0  0  0  0
  152.6243  142.5725  160.0706 C   0  0  0  0  0  0  0  0  0  0  0  0
  153.2803  142.1148  161.2338 N   0  0  0  0  0  0  0  0  0  0  0  0
  154.1352  140.9365  161.1677 C   0  0  0  0  0  0  0  0  0  0  0  0
  153.1646  142.8716  162.4755 C   0  0  0  0  0  0  0  0  0  0  0  0
  152.0169  141.6639  159.2672 N   0  3  0  0  0  0  0  0  0  0  0  0
  148.2750  139.9908  153.9949 C   0  0  0  0  0  0  0  0  0  0  0  0
  147.0902  139.5586  153.1147 C   0  0  0  0  0  0  0  0  0  0  0  0
  144.9709  137.9242  152.4338 H   0  0  0  0  0  0  0  0  0  0  0  0
  145.9790  136.5514  151.9590 H   0  0  0  0  0  0  0  0  0  0  0  0
  146.1072  138.0766  151.0875 H   0  0  0  0  0  0  0  0  0  0  0  0
  145.9581  137.7217  154.8073 H   0  0  0  0  0  0  0  0  0  0  0  0
  146.8744  136.3491  154.2176 H   0  0  0  0  0  0  0  0  0  0  0  0
  147.9579  137.3572  156.2269 H   0  0  0  0  0  0  0  0  0  0  0  0
  149.0054  137.4140  154.8287 H   0  0  0  0  0  0  0  0  0  0  0  0
  147.2999  139.7067  155.9007 H   0  0  0  0  0  0  0  0  0  0  0  0
  150.0523  138.9510  156.3285 H   0  0  0  0  0  0  0  0  0  0  0  0
  151.3349  140.0539  157.3373 H   0  0  0  0  0  0  0  0  0  0  0  0
  150.7457  143.6252  156.8394 H   0  0  0  0  0  0  0  0  0  0  0  0
  151.8335  145.3525  158.2353 H   0  0  0  0  0  0  0  0  0  0  0  0
  153.0340  144.7066  160.2976 H   0  0  0  0  0  0  0  0  0  0  0  0
  154.9380  141.0857  160.4450 H   0  0  0  0  0  0  0  0  0  0  0  0
  153.5580  140.0597  160.8728 H   0  0  0  0  0  0  0  0  0  0  0  0
  154.5923  140.7234  162.1340 H   0  0  0  0  0  0  0  0  0  0  0  0
  152.1209  142.9501  162.7817 H   0  0  0  0  0  0  0  0  0  0  0  0
  153.5666  143.8773  162.3504 H   0  0  0  0  0  0  0  0  0  0  0  0
  153.7132  142.3913  163.2860 H   0  0  0  0  0  0  0  0  0  0  0  0
  148.2882  141.0781  154.0810 H   0  0  0  0  0  0  0  0  0  0  0  0
  149.2099  139.7086  153.5080 H   0  0  0  0  0  0  0  0  0  0  0  0
  147.2005  139.9916  152.1198 H   0  0  0  0  0  0  0  0  0  0  0  0
  146.1562  139.9437  153.5271 H   0  0  0  0  0  0  0  0  0  0  0  0
  147.8934  137.7750  152.6136 H   0  0  0  0  0  0  0  0  0  0  0  0
  152.0615  140.6833  159.5439 H   0  0  0  0  0  0  0  0  0  0  0  0
  1  2  1  0  0  0  0
  1 21  1  0  0  0  0
  1 22  1  0  0  0  0
  1 23  1  0  0  0  0
  2 20  1  0  0  0  0
  2  3  1  0  0  0  0
  2 44  1  0  0  0  0
  3  4  1  0  0  0  0
  3 24  1  0  0  0  0
  3 25  1  0  0  0  0
  4  5  1  0  0  0  0
  4 26  1  0  0  0  0
  4 27  1  0  0  0  0
  5  6  1  0  0  0  0
  5 19  1  0  0  0  0
  5 28  1  0  0  0  0
  6  7  1  0  0  0  0
  6 29  1  0  0  0  0
  7  8  2  0  0  0  0
  7  9  1  0  0  0  0
  9 10  1  0  0  0  0
  9 30  1  0  0  0  0
 10 18  1  0  0  0  0
 10 11  2  0  0  0  0
 11 12  1  0  0  0  0
 11 31  1  0  0  0  0
 12 13  2  0  0  0  0
 12 32  1  0  0  0  0
 13 14  1  0  0  0  0
 13 33  1  0  0  0  0
 14 15  1  0  0  0  0
 14 18  2  0  0  0  0
 15 16  1  0  0  0  0
 15 17  1  0  0  0  0
 16 34  1  0  0  0  0
 16 35  1  0  0  0  0
 16 36  1  0  0  0  0
 17 37  1  0  0  0  0
 17 38  1  0  0  0  0
 17 39  1  0  0  0  0
 18 45  1  0  0  0  0
 19 20  1  0  0  0  0
 19 40  1  0  0  0  0
 19 41  1  0  0  0  0
 20 42  1  0  0  0  0
 20 43  1  0  0  0  0
M  CHG  1   2   1
M  CHG  1  18   1
M  END
> <s_m_source_file>
AV-unprocessed.smi

> <i_m_source_file_index>
2547

> <i_lp_mmshare_version>
43012

> <i_f3d_flags>
0

> <s_epik_input>
W0NIM11OMVtDSDJdW0NIMl1bQ0hdKFtDSDJdW0NIMl0xKVtOSF1DKD1PKVtOSF1jMltjSF1bY0hdW2NIXWMobjIpTihbQ0gzXSlbQ0gzXQ==

> <s_epik_cmdline>
J2VwaWtfcHl0aG9uJywgJy1waCcsICc3LjAnLCAnLXRuJywgJzgnLCAnLW1hJywgJzIwMCcsICctbWV0YWxfYmluZGluZycsICctaW1hZScsICc8aW5maWxlLm1hZT4nLCAnLW9tYWUnLCAnPG91dGZpbGUubWFlPic=

> <r_lp_tautomer_probability>
0.999994

> <r_epik_Ionization_Penalty>
2.17028

> <r_epik_Ionization_Penalty_Charging>
2.10368

> <r_epik_Ionization_Penalty_Neutral>
0.0666017

> <r_epik_State_Penalty>
2.2357

> <r_epik_Charging_Adjusted_Penalty>
4.33938

> <i_epik_Tot_Q>
2

> <i_epik_Tot_abs_Q>
2

> <r_epik_Metal_State_Penalty>
2.25749

> <b_epik_Metal_Only>
0

> <s_lp_Force_Field>
OPLS_2005

> <r_lp_Energy>
26.2357

> <b_lp_Chiralities_Consistent>
1

> <s_lp_Variant>
AV-unprocessed.smi:2547-3

> <Gold.Version>
5.8.1

> <Gold.Id.Protein>
6NUR|6NUR_protein|mol2

> <Gold.PLP.Fitness>
42.3011

> <Gold.PLP.PLP>
-38.5633

> <Gold.PLP.part.hbond>
-1.0000

> <Gold.PLP.part.metal>
0.0000

> <Gold.PLP.part.buried>
-3.7692

> <Gold.PLP.part.nonpolar>
-34.8136

> <Gold.PLP.part.repulsive>
0.8806

> <Gold.PLP.ligand.clash>
0.0000

> <Gold.PLP.ligand.torsion>
1.1335

> <Gold.PLP.Chemscore.Hbond>
2.0000

> <Gold.PLP.Chemscore.CHOScore>
0.0000

> <Gold.PLP.Chemscore.Metal>
0.0000

> <Gold.Chemscore.Hbonds>
donor molecule, donor type, donor heavy atom, donor atom, acceptor molecule, acceptor atom, score
      L1  H     2    44       P1  7948  1.89

> <Gold.PLP.Chemscore.Internal.Correction>
0.0049

> <Gold.Rescore>
     Score         DG    S(hbond)    S(metal)    S(lipo)     H(rot)  DE(clash)    DE(int)     intcor
     13.25     -15.78       0.81        0.00      86.80       1.00       0.56       1.97       ----

> <Gold.Chemscore.Fitness>
13.2451

> <Gold.Chemscore.DG>
-15.7785

> <Gold.Chemscore.ZeroCoef>
-5.4800

> <Gold.Chemscore.Hbond>
0.8093

> <Gold.Chemscore.Metal>
0.0000

> <Gold.Chemscore.Lipo>
86.7975

> <Gold.Chemscore.Internal_Hbond>
0.0000

> <Gold.Chemscore.DEClash>
0.5598

> <Gold.Chemscore.DEInternal>
1.9736

> <Gold.Chemscore.Rot>
1.0000

> <Gold.Chemscore.Internal.Correction>
   9.000000E+99

> <Gold.Chemscore.Hbonds>
donor molecule, donor type, donor heavy atom, donor atom, acceptor molecule, acceptor atom, score
      L1  H     2    44       P1  7948  0.87

> <Gold.Chemscore.Hbond.Weighted>
-2.7032

> <Gold.Chemscore.Metal.Weighted>
-0.0000

> <Gold.Chemscore.Lipo.Weighted>
-10.1553

> <Gold.Chemscore.Internal_Hbond.Weighted>
0.0000

> <Gold.Chemscore.DEClash.Weighted>
0.5598

> <Gold.Chemscore.DEInternal.Weighted>
1.9736

> <Gold.Chemscore.Rot.Weighted>
2.5600

> <Gold.Chemscore.Internal.Correction.Weighted>
   9.000000E+99

> <Gold.Protein.RotatedTorsions>
[ 6907 6896 6895 6894 ] final  -52.51 input  -60.11 | X-H torsion
[ 7974 7965 7964 7962 ] final  135.65 input  175.53 | X-H torsion
[ 8008 7997 7996 7995 ] final  -22.86 input   59.86 | X-H torsion
[ 10167 10162 10161 10158 ] final -141.99 input  -65.29 | X-H torsion
[ 10718 10713 10712 10709 ] final   93.47 input   66.30 | X-H torsion
[ 10763 10752 10751 10750 ] final  -40.54 input  -60.55 | X-H torsion
[ 11005 11000 10999 10996 ] final   41.49 input  -57.11 | X-H torsion

> <Gold.Protein.ActiveResidues>
 VAL166  LYS551  ARG553  GLY616  TRP617  ASP618  TYR619  PRO620  LYS621  CYS622 
 ASP623  PHE694  ASN695  SER759  ASP760  ASP761  ALA762  ILE779  LEU786  VAL792 
 PHE793  MET794  SER795  GLU796  ALA797  LYS798  CYS799  TRP800  GLU811  SER814 

> <Gold.Protein.RotatedAtoms>
  150.8511  134.7836  159.7009 H   0  0  0  0  0  0  0  0  0  0  0  0  # atno 6907 bound_to 6896
  152.4576  134.5254  159.9805 H   0  0  0  0  0  0  0  0  0  0  0  0  # atno 6908 bound_to 6896
  151.5375  133.3400  159.2965 H   0  0  0  0  0  0  0  0  0  0  0  0  # atno 6909 bound_to 6896
  144.9642  139.4677  143.5465 H   0  0  0  0  0  0  0  0  0  0  0  0  # atno 7974 bound_to 7965
  154.4619  140.1996  156.0222 H   0  0  0  0  0  0  0  0  0  0  0  0  # atno 8008 bound_to 7997
  156.0855  140.3265  155.7720 H   0  0  0  0  0  0  0  0  0  0  0  0  # atno 8009 bound_to 7997
  155.5042  140.0556  157.2925 H   0  0  0  0  0  0  0  0  0  0  0  0  # atno 8010 bound_to 7997
  139.8132  143.7675  152.2664 H   0  0  0  0  0  0  0  0  0  0  0  0  # atno 10167 bound_to 10162
  157.6954  131.0479  150.4039 H   0  0  0  0  0  0  0  0  0  0  0  0  # atno 10718 bound_to 10713
  153.9477  135.6754  153.4744 H   0  0  0  0  0  0  0  0  0  0  0  0  # atno 10763 bound_to 10752
  153.0900  135.4879  154.8668 H   0  0  0  0  0  0  0  0  0  0  0  0  # atno 10764 bound_to 10752
  154.7342  135.3145  154.8798 H   0  0  0  0  0  0  0  0  0  0  0  0  # atno 10765 bound_to 10752
  140.1829  134.4081  155.8189 H   0  0  0  0  0  0  0  0  0  0  0  0  # atno 11005 bound_to 11000
  146.3362  139.8812  142.8824 LP  0  0  0  0  0  0  0  0  0  0  0  0  # atno 17320 bound_to 7965
  145.2655  141.0091  143.3802 LP  0  0  0  0  0  0  0  0  0  0  0  0  # atno 17321 bound_to 7965
  139.7830  144.7438  151.0061 LP  0  0  0  0  0  0  0  0  0  0  0  0  # atno 17342 bound_to 10162
  140.7817  143.4522  151.0397 LP  0  0  0  0  0  0  0  0  0  0  0  0  # atno 17343 bound_to 10162
  156.4430  130.3995  149.6685 LP  0  0  0  0  0  0  0  0  0  0  0  0  # atno 17370 bound_to 10713
  156.3862  130.7604  151.2601 LP  0  0  0  0  0  0  0  0  0  0  0  0  # atno 17371 bound_to 10713
  141.2224  133.7009  156.7962 LP  0  0  0  0  0  0  0  0  0  0  0  0  # atno 17394 bound_to 11000
  140.2246  134.8731  157.3413 LP  0  0  0  0  0  0  0  0  0  0  0  0  # atno 17395 bound_to 11000

$$$$
