AV-unprocessed.smi:34|AV-procd|sdf|234|dock5
  -GOLD-   2262015573D 1   1.00000     0.00000
 Structure written by MMmdl.
 54 58  0  0  0  0  0  0  0  0  2 V2000
  154.9952  141.3014  159.1419 O   0  0  0  0  0  0  0  0  0  0  0  0
  154.1860  141.4686  160.0572 C   0  0  0  0  0  0  0  0  0  0  0  0
  153.9945  140.6899  161.1521 N   0  5  0  0  0  0  0  0  0  0  0  0
  153.8669  139.3618  161.0113 C   0  0  0  0  0  0  0  0  0  0  0  0
  153.1380  138.8450  159.9887 N   0  0  0  0  0  0  0  0  0  0  0  0
  153.0089  137.5197  159.8515 C   0  0  0  0  0  0  0  0  0  0  0  0
  153.5194  136.5424  160.6077 N   0  0  0  0  0  0  0  0  0  0  0  0
  154.2646  137.0519  161.6309 C   0  0  0  0  0  0  0  0  0  0  0  0
  154.4853  138.4343  161.8939 C   0  0  0  0  0  0  0  0  0  0  0  0
  155.2899  138.5980  163.0123 N   0  0  0  0  0  0  0  0  0  0  0  0
  155.5114  137.3350  163.3729 C   0  0  0  0  0  0  0  0  0  0  0  0
  154.9444  136.3676  162.6213 N   0  0  0  0  0  0  0  0  0  0  0  0
  155.0042  134.8796  162.7828 C   0  0  1  0  0  0  0  0  0  0  0  0
  156.3436  134.5023  162.9283 O   0  0  0  0  0  0  0  0  0  0  0  0
  156.5998  134.1565  164.2853 C   0  0  2  0  0  0  0  0  0  0  0  0
  157.8204  133.2358  164.3770 C   0  0  0  0  0  0  0  0  0  0  0  0
  157.7736  132.5270  165.6043 O   0  0  0  0  0  0  0  0  0  0  0  0
  158.0324  133.1648  166.7620 C   0  0  0  0  0  0  0  0  0  0  0  0
  158.2400  134.3774  166.8413 O   0  0  0  0  0  0  0  0  0  0  0  0
  158.0404  132.2496  167.9397 C   0  0  0  0  0  0  0  0  0  0  0  0
  158.5037  132.7299  169.1869 C   0  0  0  0  0  0  0  0  0  0  0  0
  158.5237  131.8895  170.3168 C   0  0  0  0  0  0  0  0  0  0  0  0
  158.0804  130.5583  170.2135 C   0  0  0  0  0  0  0  0  0  0  0  0
  157.6164  130.0684  168.9787 C   0  0  0  0  0  0  0  0  0  0  0  0
  157.5953  130.9075  167.8474 C   0  0  0  0  0  0  0  0  0  0  0  0
  155.2904  133.4793  164.6733 C   0  0  1  0  0  0  0  0  0  0  0  0
  155.1314  133.3183  165.9881 F   0  0  0  0  0  0  0  0  0  0  0  0
  154.2495  134.3900  164.0422 C   0  0  1  0  0  0  0  0  0  0  0  0
  153.8751  135.4324  164.9293 O   0  0  0  0  0  0  0  0  0  0  0  0
  153.3209  142.7002  160.0436 C   0  0  0  0  0  0  0  0  0  0  0  0
  152.6827  143.1212  161.2327 C   0  0  0  0  0  0  0  0  0  0  0  0
  151.8933  144.2876  161.2478 C   0  0  0  0  0  0  0  0  0  0  0  0
  151.7412  145.0514  160.0754 C   0  0  0  0  0  0  0  0  0  0  0  0
  152.3820  144.6496  158.8885 C   0  0  0  0  0  0  0  0  0  0  0  0
  153.1713  143.4831  158.8725 C   0  0  0  0  0  0  0  0  0  0  0  0
  152.4089  137.1956  159.0141 H   0  0  0  0  0  0  0  0  0  0  0  0
  156.1187  137.1038  164.2355 H   0  0  0  0  0  0  0  0  0  0  0  0
  154.6056  134.4815  161.8488 H   0  0  0  0  0  0  0  0  0  0  0  0
  156.7452  135.0591  164.8815 H   0  0  0  0  0  0  0  0  0  0  0  0
  157.8096  132.5177  163.5561 H   0  0  0  0  0  0  0  0  0  0  0  0
  158.7406  133.8164  164.2965 H   0  0  0  0  0  0  0  0  0  0  0  0
  158.8492  133.7485  169.2910 H   0  0  0  0  0  0  0  0  0  0  0  0
  158.8798  132.2676  171.2638 H   0  0  0  0  0  0  0  0  0  0  0  0
  158.0962  129.9139  171.0801 H   0  0  0  0  0  0  0  0  0  0  0  0
  157.2756  129.0467  168.8986 H   0  0  0  0  0  0  0  0  0  0  0  0
  157.2324  130.5000  166.9151 H   0  0  0  0  0  0  0  0  0  0  0  0
  155.2354  132.4880  164.2205 H   0  0  0  0  0  0  0  0  0  0  0  0
  153.3556  133.8393  163.7477 H   0  0  0  0  0  0  0  0  0  0  0  0
  154.2757  135.2699  165.7698 H   0  0  0  0  0  0  0  0  0  0  0  0
  152.7930  142.5483  162.1421 H   0  0  0  0  0  0  0  0  0  0  0  0
  151.4068  144.5971  162.1609 H   0  0  0  0  0  0  0  0  0  0  0  0
  151.1374  145.9467  160.0874 H   0  0  0  0  0  0  0  0  0  0  0  0
  152.2729  145.2381  157.9895 H   0  0  0  0  0  0  0  0  0  0  0  0
  153.6643  143.1987  157.9542 H   0  0  0  0  0  0  0  0  0  0  0  0
  1  2  2  0  0  0  0
  2  3  1  0  0  0  0
  2 30  1  0  0  0  0
  3  4  1  0  0  0  0
  4  9  1  0  0  0  0
  4  5  2  0  0  0  0
  5  6  1  0  0  0  0
  6  7  2  0  0  0  0
  6 36  1  0  0  0  0
  7  8  1  0  0  0  0
  8 12  1  0  0  0  0
  8  9  2  0  0  0  0
  9 10  1  0  0  0  0
 10 11  2  0  0  0  0
 11 12  1  0  0  0  0
 11 37  1  0  0  0  0
 12 13  1  0  0  0  0
 13 28  1  0  0  0  0
 13 14  1  0  0  0  0
 13 38  1  0  0  0  0
 14 15  1  0  0  0  0
 15 16  1  0  0  0  0
 15 26  1  0  0  0  0
 15 39  1  0  0  0  0
 16 17  1  0  0  0  0
 16 40  1  0  0  0  0
 16 41  1  0  0  0  0
 17 18  1  0  0  0  0
 18 19  2  0  0  0  0
 18 20  1  0  0  0  0
 20 25  1  0  0  0  0
 20 21  2  0  0  0  0
 21 22  1  0  0  0  0
 21 42  1  0  0  0  0
 22 23  2  0  0  0  0
 22 43  1  0  0  0  0
 23 24  1  0  0  0  0
 23 44  1  0  0  0  0
 24 25  2  0  0  0  0
 24 45  1  0  0  0  0
 25 46  1  0  0  0  0
 26 27  1  0  0  0  0
 26 28  1  0  0  0  0
 26 47  1  0  0  0  0
 28 29  1  0  0  0  0
 28 48  1  0  0  0  0
 29 49  1  0  0  0  0
 30 35  1  0  0  0  0
 30 31  2  0  0  0  0
 31 32  1  0  0  0  0
 31 50  1  0  0  0  0
 32 33  2  0  0  0  0
 32 51  1  0  0  0  0
 33 34  1  0  0  0  0
 33 52  1  0  0  0  0
 34 35  2  0  0  0  0
 34 53  1  0  0  0  0
 35 54  1  0  0  0  0
M  CHG  1   3  -1
M  END
> <s_m_source_file>
AV-unprocessed.smi

> <i_m_source_file_index>
34

> <i_lp_mmshare_version>
43012

> <i_f3d_flags>
0

> <s_epik_input>
W2NIXTFbY0hdW2NIXVtjSF1bY0hdYzFDKD1PKVtOSF1jKG5bY0hdbjIpYyhjMjMpbltjSF1uM1tDQEBIXTRPW0NASF0oW0NAQEhdKEYpW0NASF00W09IXSlbQ0gyXU9DKD1PKWM1W2NIXVtjSF1bY0hdW2NIXVtjSF01

> <s_epik_cmdline>
J2VwaWtfcHl0aG9uJywgJy1waCcsICc3LjAnLCAnLXRuJywgJzgnLCAnLW1hJywgJzIwMCcsICctbWV0YWxfYmluZGluZycsICctaW1hZScsICc8aW5maWxlLm1hZT4nLCAnLW9tYWUnLCAnPG91dGZpbGUubWFlPic=

> <r_lp_tautomer_probability>
1

> <r_epik_Ionization_Penalty>
4.33227

> <r_epik_Ionization_Penalty_Charging>
3.41027

> <r_epik_Ionization_Penalty_Neutral>
0.922001

> <r_epik_State_Penalty>
3.41358

> <r_epik_Charging_Adjusted_Penalty>
6.82385

> <i_epik_Tot_Q>
-1

> <i_epik_Tot_abs_Q>
1

> <r_epik_Metal_State_Penalty>
0.496292

> <b_epik_Metal_Only>
1

> <s_epik_Chemistry_Notes>
This compound has an ester and may undergo hydrolysis at high or low pH. This compound contains an acetal/aminal-like group ( X-CH(R)-Y where X, Y are N, S, or O) that may be acid/base labile, releasing an aldehyde.

> <s_lp_Force_Field>
OPLS_2005

> <r_lp_Energy>
50.8657

> <b_lp_Chiralities_Consistent>
1

> <s_lp_Variant>
AV-unprocessed.smi:34-20

> <Gold.Version>
5.8.1

> <Gold.Id.Protein>
6NUR|6NUR_protein|mol2

> <Gold.PLP.Fitness>
54.8499

> <Gold.PLP.PLP>
-55.3747

> <Gold.PLP.part.hbond>
-2.7336

> <Gold.PLP.part.metal>
0.0000

> <Gold.PLP.part.buried>
-1.3946

> <Gold.PLP.part.nonpolar>
-51.3165

> <Gold.PLP.part.repulsive>
0.0456

> <Gold.PLP.ligand.clash>
1.5562

> <Gold.PLP.ligand.torsion>
1.2553

> <Gold.PLP.Chemscore.Hbond>
1.0356

> <Gold.PLP.Chemscore.CHOScore>
0.0000

> <Gold.PLP.Chemscore.Metal>
0.0000

> <Gold.Chemscore.Hbonds>
donor molecule, donor type, donor heavy atom, donor atom, acceptor molecule, acceptor atom, score
      P1  H  6896  6909       L1     7  0.73
      P1  H  7997  8008       L1     1  0.22

> <Gold.PLP.Chemscore.Internal.Correction>
0.4353

> <Gold.Rescore>
     Score         DG    S(hbond)    S(metal)    S(lipo)     H(rot)  DE(clash)    DE(int)     intcor
     10.34     -17.61       1.14        0.00     130.21       2.69       1.99       5.28       ----

> <Gold.Chemscore.Fitness>
10.3419

> <Gold.Chemscore.DG>
-17.6119

> <Gold.Chemscore.ZeroCoef>
-5.4800

> <Gold.Chemscore.Hbond>
1.1361

> <Gold.Chemscore.Metal>
0.0000

> <Gold.Chemscore.Lipo>
130.2109

> <Gold.Chemscore.Internal_Hbond>
0.0000

> <Gold.Chemscore.DEClash>
1.9851

> <Gold.Chemscore.DEInternal>
5.2848

> <Gold.Chemscore.Rot>
2.6944

> <Gold.Chemscore.Internal.Correction>
   9.000000E+99

> <Gold.Chemscore.Hbonds>
donor molecule, donor type, donor heavy atom, donor atom, acceptor molecule, acceptor atom, score
      P1  H  6896  6909       L1     7  0.19
      P1  H  7997  8008       L1     1  0.21

> <Gold.Chemscore.Hbond.Weighted>
-3.7947

> <Gold.Chemscore.Metal.Weighted>
-0.0000

> <Gold.Chemscore.Lipo.Weighted>
-15.2347

> <Gold.Chemscore.Internal_Hbond.Weighted>
0.0000

> <Gold.Chemscore.DEClash.Weighted>
1.9851

> <Gold.Chemscore.DEInternal.Weighted>
5.2848

> <Gold.Chemscore.Rot.Weighted>
6.8975

> <Gold.Chemscore.Internal.Correction.Weighted>
   9.000000E+99

> <Gold.Protein.RotatedTorsions>
[ 6907 6896 6895 6894 ] final  159.72 input  -60.11 | X-H torsion
[ 7974 7965 7964 7962 ] final  -78.90 input  175.53 | X-H torsion
[ 8008 7997 7996 7995 ] final -129.81 input   59.86 | X-H torsion
[ 10167 10162 10161 10158 ] final  106.26 input  -65.29 | X-H torsion
[ 10718 10713 10712 10709 ] final  -43.13 input   66.30 | X-H torsion
[ 10763 10752 10751 10750 ] final  125.85 input  -60.55 | X-H torsion
[ 11005 11000 10999 10996 ] final  -36.02 input  -57.11 | X-H torsion

> <Gold.Protein.ActiveResidues>
 VAL166  LYS551  ARG553  GLY616  TRP617  ASP618  TYR619  PRO620  LYS621  CYS622 
 ASP623  PHE694  ASN695  SER759  ASP760  ASP761  ALA762  ILE779  LEU786  VAL792 
 PHE793  MET794  SER795  GLU796  ALA797  LYS798  CYS799  TRP800  GLU811  SER814 

> <Gold.Protein.RotatedAtoms>
  151.9814  133.3759  159.4108 H   0  0  0  0  0  0  0  0  0  0  0  0  # atno 6907 bound_to 6896
  150.6934  134.4034  159.5138 H   0  0  0  0  0  0  0  0  0  0  0  0  # atno 6908 bound_to 6896
  152.1754  134.8799  160.0581 H   0  0  0  0  0  0  0  0  0  0  0  0  # atno 6909 bound_to 6896
  145.5803  140.9449  143.1347 H   0  0  0  0  0  0  0  0  0  0  0  0  # atno 7974 bound_to 7965
  155.2854  140.0446  157.3019 H   0  0  0  0  0  0  0  0  0  0  0  0  # atno 8008 bound_to 7997
  154.5572  140.2335  155.8359 H   0  0  0  0  0  0  0  0  0  0  0  0  # atno 8009 bound_to 7997
  156.2017  140.3024  155.9548 H   0  0  0  0  0  0  0  0  0  0  0  0  # atno 8010 bound_to 7997
  139.7024  144.7092  151.1164 H   0  0  0  0  0  0  0  0  0  0  0  0  # atno 10167 bound_to 10162
  156.2523  130.4189  149.8636 H   0  0  0  0  0  0  0  0  0  0  0  0  # atno 10718 bound_to 10713
  153.6839  135.3310  155.3185 H   0  0  0  0  0  0  0  0  0  0  0  0  # atno 10763 bound_to 10752
  154.8458  135.4415  154.1578 H   0  0  0  0  0  0  0  0  0  0  0  0  # atno 10764 bound_to 10752
  153.2602  135.6990  153.7664 H   0  0  0  0  0  0  0  0  0  0  0  0  # atno 10765 bound_to 10752
  140.9842  133.7039  156.1737 H   0  0  0  0  0  0  0  0  0  0  0  0  # atno 11005 bound_to 11000
  144.7397  139.7484  143.7315 LP  0  0  0  0  0  0  0  0  0  0  0  0  # atno 17320 bound_to 7965
  146.1721  139.4876  142.9921 LP  0  0  0  0  0  0  0  0  0  0  0  0  # atno 17321 bound_to 7965
  140.7713  143.5406  150.9317 LP  0  0  0  0  0  0  0  0  0  0  0  0  # atno 17342 bound_to 10162
  139.9088  143.6746  152.3119 LP  0  0  0  0  0  0  0  0  0  0  0  0  # atno 17343 bound_to 10162
  156.6180  130.8614  151.3469 LP  0  0  0  0  0  0  0  0  0  0  0  0  # atno 17370 bound_to 10713
  157.7219  130.9570  150.1473 LP  0  0  0  0  0  0  0  0  0  0  0  0  # atno 17371 bound_to 10713
  140.7139  134.4431  157.5580 LP  0  0  0  0  0  0  0  0  0  0  0  0  # atno 17394 bound_to 11000
  139.8963  134.8662  156.2092 LP  0  0  0  0  0  0  0  0  0  0  0  0  # atno 17395 bound_to 11000

$$$$
