AV-unprocessed.smi:1235|AV-procd|sdf|5177|dock3
  -GOLD-   22720 4253D 1   1.00000     0.00000
 Structure written by MMmdl.
 50 51  0  0  0  0  0  0  0  0  2 V2000
  154.4582  138.1432  159.4638 C   0  0  0  0  0  0  0  0  0  0  0  0
  154.3114  138.4364  158.0853 O   0  0  0  0  0  0  0  0  0  0  0  0
  152.9786  138.2701  157.6331 C   0  0  0  0  0  0  0  0  0  0  0  0
  152.9406  138.4841  156.1123 C   0  0  0  0  0  0  0  0  0  0  0  0
  151.6420  138.1030  155.5480 N   0  0  0  0  0  0  0  0  0  0  0  0
  151.4216  136.7361  155.5135 N   0  0  0  0  0  0  0  0  0  0  0  0
  150.3193  136.2677  155.0239 C   0  0  0  0  0  0  0  0  0  0  0  0
  150.0459  134.8046  154.9644 C   0  0  0  0  0  0  0  0  0  0  0  0
  150.3134  134.0530  155.9033 O   0  0  0  0  0  0  0  0  0  0  0  0
  149.4889  134.3671  153.8204 N   0  0  0  0  0  0  0  0  0  0  0  0
  149.1130  132.9860  153.5430 C   0  0  0  0  0  0  0  0  0  0  0  0
  147.6089  132.8557  153.2285 C   0  0  0  0  0  0  0  0  0  0  0  0
  147.2284  131.5122  152.7140 N   0  3  2  0  0  0  0  0  0  0  0  0
  145.8445  131.4967  152.1664 C   0  0  0  0  0  0  0  0  0  0  0  0
  145.5413  130.1756  151.4418 C   0  0  0  0  0  0  0  0  0  0  0  0
  145.7773  128.9741  152.3630 C   0  0  0  0  0  0  0  0  0  0  0  0
  147.2032  129.0236  152.9280 C   0  0  0  0  0  0  0  0  0  0  0  0
  147.5066  130.3631  153.6329 C   0  0  2  0  0  0  0  0  0  0  0  0
  146.7961  130.4762  154.9989 C   0  0  0  0  0  0  0  0  0  0  0  0
  149.2957  137.1602  154.5071 C   0  0  0  0  0  0  0  0  0  0  0  0
  149.5257  138.4910  154.5465 C   0  0  0  0  0  0  0  0  0  0  0  0
  150.7662  139.0473  155.0892 C   0  0  0  0  0  0  0  0  0  0  0  0
  151.0034  140.2542  155.1258 O   0  0  0  0  0  0  0  0  0  0  0  0
  155.4962  138.2925  159.7610 H   0  0  0  0  0  0  0  0  0  0  0  0
  154.1931  137.1068  159.6768 H   0  0  0  0  0  0  0  0  0  0  0  0
  153.8353  138.7971  160.0757 H   0  0  0  0  0  0  0  0  0  0  0  0
  152.6215  137.2705  157.8854 H   0  0  0  0  0  0  0  0  0  0  0  0
  152.3255  138.9892  158.1304 H   0  0  0  0  0  0  0  0  0  0  0  0
  153.1484  139.5322  155.8890 H   0  0  0  0  0  0  0  0  0  0  0  0
  153.7451  137.9219  155.6349 H   0  0  0  0  0  0  0  0  0  0  0  0
  149.2995  135.0479  153.0984 H   0  0  0  0  0  0  0  0  0  0  0  0
  149.7148  132.5951  152.7207 H   0  0  0  0  0  0  0  0  0  0  0  0
  149.3755  132.4082  154.4284 H   0  0  0  0  0  0  0  0  0  0  0  0
  147.0075  133.1161  154.0996 H   0  0  0  0  0  0  0  0  0  0  0  0
  147.3547  133.5908  152.4638 H   0  0  0  0  0  0  0  0  0  0  0  0
  145.1227  131.6674  152.9658 H   0  0  0  0  0  0  0  0  0  0  0  0
  145.7214  132.3177  151.4591 H   0  0  0  0  0  0  0  0  0  0  0  0
  144.5112  130.1745  151.0843 H   0  0  0  0  0  0  0  0  0  0  0  0
  146.1751  130.0896  150.5581 H   0  0  0  0  0  0  0  0  0  0  0  0
  145.0493  128.9779  153.1747 H   0  0  0  0  0  0  0  0  0  0  0  0
  145.6236  128.0445  151.8140 H   0  0  0  0  0  0  0  0  0  0  0  0
  147.3626  128.1895  153.6125 H   0  0  0  0  0  0  0  0  0  0  0  0
  147.9121  128.8810  152.1109 H   0  0  0  0  0  0  0  0  0  0  0  0
  148.5770  130.3494  153.8344 H   0  0  0  0  0  0  0  0  0  0  0  0
  147.0088  129.6027  155.6158 H   0  0  0  0  0  0  0  0  0  0  0  0
  145.7131  130.5458  154.9005 H   0  0  0  0  0  0  0  0  0  0  0  0
  147.1362  131.3449  155.5620 H   0  0  0  0  0  0  0  0  0  0  0  0
  148.3710  136.7776  154.1001 H   0  0  0  0  0  0  0  0  0  0  0  0
  148.7731  139.1659  154.1659 H   0  0  0  0  0  0  0  0  0  0  0  0
  147.8241  131.3602  151.9124 H   0  0  0  0  0  0  0  0  0  0  0  0
  1  2  1  0  0  0  0
  1 24  1  0  0  0  0
  1 25  1  0  0  0  0
  1 26  1  0  0  0  0
  2  3  1  0  0  0  0
  3  4  1  0  0  0  0
  3 27  1  0  0  0  0
  3 28  1  0  0  0  0
  4  5  1  0  0  0  0
  4 29  1  0  0  0  0
  4 30  1  0  0  0  0
  5 22  1  0  0  0  0
  5  6  1  0  0  0  0
  6  7  2  0  0  0  0
  7  8  1  0  0  0  0
  7 20  1  0  0  0  0
  8  9  2  0  0  0  0
  8 10  1  0  0  0  0
 10 11  1  0  0  0  0
 10 31  1  0  0  0  0
 11 12  1  0  0  0  0
 11 32  1  0  0  0  0
 11 33  1  0  0  0  0
 12 13  1  0  0  0  0
 12 34  1  0  0  0  0
 12 35  1  0  0  0  0
 13 18  1  0  0  0  0
 13 14  1  0  0  0  0
 13 50  1  0  0  0  0
 14 15  1  0  0  0  0
 14 36  1  0  0  0  0
 14 37  1  0  0  0  0
 15 16  1  0  0  0  0
 15 38  1  0  0  0  0
 15 39  1  0  0  0  0
 16 17  1  0  0  0  0
 16 40  1  0  0  0  0
 16 41  1  0  0  0  0
 17 18  1  0  0  0  0
 17 42  1  0  0  0  0
 17 43  1  0  0  0  0
 18 19  1  0  0  0  0
 18 44  1  0  0  0  0
 19 45  1  0  0  0  0
 19 46  1  0  0  0  0
 19 47  1  0  0  0  0
 20 21  2  0  0  0  0
 20 48  1  0  0  0  0
 21 22  1  0  0  0  0
 21 49  1  0  0  0  0
 22 23  2  0  0  0  0
M  CHG  1  13   1
M  END
> <s_m_source_file>
AV-unprocessed.smi

> <i_m_source_file_index>
1235

> <i_lp_mmshare_version>
43012

> <i_f3d_flags>
0

> <s_epik_input>
W0NIM11PW0NIMl1bQ0gyXW4xbmMoW2NIXVtjSF1jMT1PKUMoPU8pW05IXVtDSDJdW0NIMl1OMltDSDJdW0NIMl1bQ0gyXVtDSDJdW0NASF0yW0NIM10=

> <s_epik_cmdline>
J2VwaWtfcHl0aG9uJywgJy1waCcsICc3LjAnLCAnLXRuJywgJzgnLCAnLW1hJywgJzIwMCcsICctbWV0YWxfYmluZGluZycsICctaW1hZScsICc8aW5maWxlLm1hZT4nLCAnLW9tYWUnLCAnPG91dGZpbGUubWFlPic=

> <r_lp_tautomer_probability>
1

> <r_epik_Ionization_Penalty>
0.00271975

> <r_epik_Ionization_Penalty_Charging>
0.00271407

> <r_epik_Ionization_Penalty_Neutral>
5.6803e-06

> <r_epik_State_Penalty>
0.00189271

> <r_epik_Charging_Adjusted_Penalty>
0.00460678

> <i_epik_Tot_Q>
1

> <i_epik_Tot_abs_Q>
1

> <r_epik_Metal_State_Penalty>
-0

> <b_epik_Metal_Only>
0

> <s_lp_Force_Field>
OPLS_2005

> <r_lp_Energy>
40.192

> <b_lp_Chiralities_Consistent>
1

> <s_lp_Variant>
AV-unprocessed.smi:1235-3

> <Gold.Version>
5.8.1

> <Gold.Id.Protein>
6NUR|6NUR_protein|mol2

> <Gold.PLP.Fitness>
44.6444

> <Gold.PLP.PLP>
-32.8757

> <Gold.PLP.part.hbond>
-5.4507

> <Gold.PLP.part.metal>
0.0000

> <Gold.PLP.part.buried>
-0.8148

> <Gold.PLP.part.nonpolar>
-27.8441

> <Gold.PLP.part.repulsive>
0.1684

> <Gold.PLP.ligand.clash>
0.0000

> <Gold.PLP.ligand.torsion>
0.8990

> <Gold.PLP.Chemscore.Hbond>
4.4500

> <Gold.PLP.Chemscore.CHOScore>
0.0000

> <Gold.PLP.Chemscore.Metal>
0.0000

> <Gold.Chemscore.Hbonds>
donor molecule, donor type, donor heavy atom, donor atom, acceptor molecule, acceptor atom, score
      L1  H    10    31       P1  7948  0.50
      L1  H    13    50       P1 10747  0.93
      P1  H  7989  7998       L1    23  1.00
      P1  H  7997  8010       L1     2  1.00
      P1  H 10752 10764       L1     6  0.84

> <Gold.PLP.Chemscore.Internal.Correction>
0.2168

> <Gold.Rescore>
     Score         DG    S(hbond)    S(metal)    S(lipo)     H(rot)  DE(clash)    DE(int)     intcor
     18.65     -22.81       3.54        0.00      90.76       2.00       3.12       1.04       ----

> <Gold.Chemscore.Fitness>
18.6479

> <Gold.Chemscore.DG>
-22.8106

> <Gold.Chemscore.ZeroCoef>
-5.4800

> <Gold.Chemscore.Hbond>
3.5441

> <Gold.Chemscore.Metal>
0.0000

> <Gold.Chemscore.Lipo>
90.7581

> <Gold.Chemscore.Internal_Hbond>
0.0000

> <Gold.Chemscore.DEClash>
3.1234

> <Gold.Chemscore.DEInternal>
1.0394

> <Gold.Chemscore.Rot>
2.0020

> <Gold.Chemscore.Internal.Correction>
   9.000000E+99

> <Gold.Chemscore.Hbonds>
donor molecule, donor type, donor heavy atom, donor atom, acceptor molecule, acceptor atom, score
      L1  H    10    31       P1  7948  0.02
      L1  H    13    50       P1 10747  0.89
      P1  H  7989  7998       L1    23  0.81
      P1  H  7997  8010       L1     2  0.38
      P1  H 10752 10764       L1     6  0.46

> <Gold.Chemscore.Hbond.Weighted>
-11.8371

> <Gold.Chemscore.Metal.Weighted>
-0.0000

> <Gold.Chemscore.Lipo.Weighted>
-10.6187

> <Gold.Chemscore.Internal_Hbond.Weighted>
0.0000

> <Gold.Chemscore.DEClash.Weighted>
3.1234

> <Gold.Chemscore.DEInternal.Weighted>
1.0394

> <Gold.Chemscore.Rot.Weighted>
5.1252

> <Gold.Chemscore.Internal.Correction.Weighted>
   9.000000E+99

> <Gold.Protein.RotatedTorsions>
[ 6907 6896 6895 6894 ] final  125.77 input  -60.11 | X-H torsion
[ 7974 7965 7964 7962 ] final   77.58 input  175.53 | X-H torsion
[ 8008 7997 7996 7995 ] final   16.92 input   59.86 | X-H torsion
[ 10167 10162 10161 10158 ] final  148.45 input  -65.29 | X-H torsion
[ 10718 10713 10712 10709 ] final   78.77 input   66.30 | X-H torsion
[ 10763 10752 10751 10750 ] final  -51.87 input  -60.55 | X-H torsion
[ 11005 11000 10999 10996 ] final   22.38 input  -57.11 | X-H torsion

> <Gold.Protein.ActiveResidues>
 VAL166  LYS551  ARG553  GLY616  TRP617  ASP618  TYR619  PRO620  LYS621  CYS622 
 ASP623  PHE694  ASN695  SER759  ASP760  ASP761  ALA762  ILE779  LEU786  VAL792 
 PHE793  MET794  SER795  GLU796  ALA797  LYS798  CYS799  TRP800  GLU811  SER814 

> <Gold.Protein.RotatedAtoms>
  152.3962  133.6751  159.6278 H   0  0  0  0  0  0  0  0  0  0  0  0  # atno 6907 bound_to 6896
  150.7861  133.8869  159.3311 H   0  0  0  0  0  0  0  0  0  0  0  0  # atno 6908 bound_to 6896
  151.6645  135.0986  160.0237 H   0  0  0  0  0  0  0  0  0  0  0  0  # atno 6909 bound_to 6896
  145.6882  139.2544  143.1775 H   0  0  0  0  0  0  0  0  0  0  0  0  # atno 7974 bound_to 7965
  154.8840  140.2977  155.5409 H   0  0  0  0  0  0  0  0  0  0  0  0  # atno 8008 bound_to 7997
  156.3022  140.2437  156.3780 H   0  0  0  0  0  0  0  0  0  0  0  0  # atno 8009 bound_to 7997
  154.8688  140.0402  157.1700 H   0  0  0  0  0  0  0  0  0  0  0  0  # atno 8010 bound_to 7997
  139.4875  144.5678  151.7111 H   0  0  0  0  0  0  0  0  0  0  0  0  # atno 10167 bound_to 10162
  157.6756  130.9884  150.1835 H   0  0  0  0  0  0  0  0  0  0  0  0  # atno 10718 bound_to 10713
  154.1335  135.6516  153.4927 H   0  0  0  0  0  0  0  0  0  0  0  0  # atno 10763 bound_to 10752
  153.0188  135.5298  154.6977 H   0  0  0  0  0  0  0  0  0  0  0  0  # atno 10764 bound_to 10752
  154.6218  135.2965  155.0288 H   0  0  0  0  0  0  0  0  0  0  0  0  # atno 10765 bound_to 10752
  140.3812  134.1919  155.7663 H   0  0  0  0  0  0  0  0  0  0  0  0  # atno 11005 bound_to 11000
  146.0905  140.7661  142.9598 LP  0  0  0  0  0  0  0  0  0  0  0  0  # atno 17320 bound_to 7965
  144.7005  140.3629  143.7160 LP  0  0  0  0  0  0  0  0  0  0  0  0  # atno 17321 bound_to 7965
  140.5260  144.0805  150.6037 LP  0  0  0  0  0  0  0  0  0  0  0  0  # atno 17342 bound_to 10162
  140.3779  143.2818  152.0204 LP  0  0  0  0  0  0  0  0  0  0  0  0  # atno 17343 bound_to 10162
  156.2562  130.3706  149.8179 LP  0  0  0  0  0  0  0  0  0  0  0  0  # atno 17370 bound_to 10713
  156.5937  130.8517  151.3414 LP  0  0  0  0  0  0  0  0  0  0  0  0  # atno 17371 bound_to 10713
  141.1923  133.8176  157.0846 LP  0  0  0  0  0  0  0  0  0  0  0  0  # atno 17394 bound_to 11000
  140.0477  134.9822  157.1079 LP  0  0  0  0  0  0  0  0  0  0  0  0  # atno 17395 bound_to 11000

$$$$
