AV-unprocessed.smi:188|AV-procd|sdf|1472|dock7
  -GOLD-   2262019293D 1   1.00000     0.00000
 Structure written by MMmdl.
 49 53  0  0  0  0  0  0  0  0  1 V2000
  143.5545  132.0581  148.1233 O   0  0  0  0  0  0  0  0  0  0  0  0
  144.0565  132.6822  149.0551 C   0  0  0  0  0  0  0  0  0  0  0  0
  145.2500  132.4465  149.6076 N   0  0  0  0  0  0  0  0  0  0  0  0
  145.5272  133.2876  150.6020 C   0  0  0  0  0  0  0  0  0  0  0  0
  146.5511  133.3003  151.2831 O   0  0  0  0  0  0  0  0  0  0  0  0
  144.3470  134.2460  150.7592 C   0  0  0  0  0  0  0  0  0  0  0  0
  144.7207  135.7215  150.4866 C   0  0  0  0  0  0  0  0  0  0  0  0
  145.4948  136.3584  151.6561 C   0  0  0  0  0  0  0  0  0  0  0  0
  144.7793  136.1799  152.9196 N   0  0  0  0  0  0  0  0  0  0  0  0
  145.2048  136.9870  153.9249 C   0  0  0  0  0  0  0  0  0  0  0  0
  144.8887  136.6906  155.2142 N   0  0  0  0  0  0  0  0  0  0  0  0
  145.3152  137.4710  156.2113 C   0  0  0  0  0  0  0  0  0  0  0  0
  146.0531  138.5804  156.1448 N   0  0  0  0  0  0  0  0  0  0  0  0
  146.3630  138.8928  154.8544 C   0  0  0  0  0  0  0  0  0  0  0  0
  145.9857  138.1553  153.6958 C   0  0  0  0  0  0  0  0  0  0  0  0
  146.4795  138.7804  152.5569 N   0  0  0  0  0  0  0  0  0  0  0  0
  147.1199  139.8205  153.0161 C   0  0  0  0  0  0  0  0  0  0  0  0
  147.0927  139.9713  154.3846 N   0  0  0  0  0  0  0  0  0  0  0  0
  147.7182  141.0390  155.1514 C   0  0  0  0  0  0  0  0  0  0  0  0
  148.9427  140.5935  155.9787 C   0  0  0  0  0  0  0  0  0  0  0  0
  149.8844  139.7150  155.1361 C   0  0  0  0  0  0  0  0  0  0  0  0
  150.1809  140.3206  153.8937 O   0  0  0  0  0  0  0  0  0  0  0  0
  149.6534  141.6961  156.7775 C   0  0  0  0  0  0  0  0  0  0  0  0
  149.6115  140.9188  157.9924 O   0  0  0  0  0  0  0  0  0  0  0  0
  148.6377  140.0470  157.3805 C   0  0  0  0  0  0  0  0  0  0  0  0
  144.4488  134.7948  153.2609 C   0  0  0  0  0  0  0  0  0  0  0  0
  143.6456  134.1240  152.1314 C   0  0  0  0  0  0  0  0  0  0  0  0
  143.5034  133.7199  149.6971 N   0  0  0  0  0  0  0  0  0  0  0  0
  145.8729  131.7119  149.3048 H   0  0  0  0  0  0  0  0  0  0  0  0
  145.3091  135.8068  149.5717 H   0  0  0  0  0  0  0  0  0  0  0  0
  143.8100  136.2966  150.3127 H   0  0  0  0  0  0  0  0  0  0  0  0
  146.4841  135.9091  151.7467 H   0  0  0  0  0  0  0  0  0  0  0  0
  145.6579  137.4135  151.4392 H   0  0  0  0  0  0  0  0  0  0  0  0
  145.0230  137.1620  157.2040 H   0  0  0  0  0  0  0  0  0  0  0  0
  147.6256  140.5172  152.3634 H   0  0  0  0  0  0  0  0  0  0  0  0
  147.9941  141.8311  154.4542 H   0  0  0  0  0  0  0  0  0  0  0  0
  146.9607  141.4777  155.8020 H   0  0  0  0  0  0  0  0  0  0  0  0
  150.8147  139.4999  155.6619 H   0  0  0  0  0  0  0  0  0  0  0  0
  149.4248  138.7470  154.9332 H   0  0  0  0  0  0  0  0  0  0  0  0
  149.7299  139.8449  153.2127 H   0  0  0  0  0  0  0  0  0  0  0  0
  150.6703  141.9048  156.4432 H   0  0  0  0  0  0  0  0  0  0  0  0
  149.0797  142.6183  156.8780 H   0  0  0  0  0  0  0  0  0  0  0  0
  147.6265  140.2624  157.7300 H   0  0  0  0  0  0  0  0  0  0  0  0
  148.8780  138.9912  157.5107 H   0  0  0  0  0  0  0  0  0  0  0  0
  145.3675  134.2403  153.4551 H   0  0  0  0  0  0  0  0  0  0  0  0
  143.8618  134.7688  154.1801 H   0  0  0  0  0  0  0  0  0  0  0  0
  142.6606  134.5897  152.0742 H   0  0  0  0  0  0  0  0  0  0  0  0
  143.4691  133.0771  152.3827 H   0  0  0  0  0  0  0  0  0  0  0  0
  142.5967  134.1064  149.4777 H   0  0  0  0  0  0  0  0  0  0  0  0
  1  2  2  0  0  0  0
  2 28  1  0  0  0  0
  2  3  1  0  0  0  0
  3  4  1  0  0  0  0
  3 29  1  0  0  0  0
  4  5  2  0  0  0  0
  4  6  1  0  0  0  0
  6 27  1  0  0  0  0
  6  7  1  0  0  0  0
  6 28  1  0  0  0  0
  7  8  1  0  0  0  0
  7 30  1  0  0  0  0
  7 31  1  0  0  0  0
  8  9  1  0  0  0  0
  8 32  1  0  0  0  0
  8 33  1  0  0  0  0
  9 10  1  0  0  0  0
  9 26  1  0  0  0  0
 10 15  1  0  0  0  0
 10 11  2  0  0  0  0
 11 12  1  0  0  0  0
 12 13  2  0  0  0  0
 12 34  1  0  0  0  0
 13 14  1  0  0  0  0
 14 18  1  0  0  0  0
 14 15  2  0  0  0  0
 15 16  1  0  0  0  0
 16 17  2  0  0  0  0
 17 18  1  0  0  0  0
 17 35  1  0  0  0  0
 18 19  1  0  0  0  0
 19 20  1  0  0  0  0
 19 36  1  0  0  0  0
 19 37  1  0  0  0  0
 20 25  1  0  0  0  0
 20 21  1  0  0  0  0
 20 23  1  0  0  0  0
 21 22  1  0  0  0  0
 21 38  1  0  0  0  0
 21 39  1  0  0  0  0
 22 40  1  0  0  0  0
 23 24  1  0  0  0  0
 23 41  1  0  0  0  0
 23 42  1  0  0  0  0
 24 25  1  0  0  0  0
 25 43  1  0  0  0  0
 25 44  1  0  0  0  0
 26 27  1  0  0  0  0
 26 45  1  0  0  0  0
 26 46  1  0  0  0  0
 27 47  1  0  0  0  0
 27 48  1  0  0  0  0
 28 49  1  0  0  0  0
M  END
> <s_m_source_file>
AV-unprocessed.smi

> <i_m_source_file_index>
188

> <i_lp_mmshare_version>
43012

> <i_f3d_flags>
0

> <s_epik_input>
Tz1DKFtOSF0xKVtOSF1DKD1PKUMxMltDSDJdW0NIMl1OKFtDSDJdW0NIMl0yKWMobltjSF1uMyljKGMzNCluW2NIXW40W0NIMl1DNShbQ0gyXVtPSF0pW0NIMl1PW0NIMl01

> <s_epik_cmdline>
J2VwaWtfcHl0aG9uJywgJy1waCcsICc3LjAnLCAnLXRuJywgJzgnLCAnLW1hJywgJzIwMCcsICctbWV0YWxfYmluZGluZycsICctaW1hZScsICc8aW5maWxlLm1hZT4nLCAnLW9tYWUnLCAnPG91dGZpbGUubWFlPic=

> <r_lp_tautomer_probability>
1

> <r_epik_Ionization_Penalty>
0.00868263

> <r_epik_Ionization_Penalty_Charging>
0

> <r_epik_Ionization_Penalty_Neutral>
0.00868263

> <r_epik_State_Penalty>
0.00519311

> <r_epik_Charging_Adjusted_Penalty>
0.00519311

> <i_epik_Tot_Q>
0

> <i_epik_Tot_abs_Q>
0

> <r_epik_Metal_State_Penalty>
0.404007

> <b_epik_Metal_Only>
0

> <s_lp_Force_Field>
OPLS_2005

> <r_lp_Energy>
48.5208

> <b_lp_Chiralities_Consistent>
1

> <s_lp_Variant>
AV-unprocessed.smi:188-1

> <Gold.Version>
5.8.1

> <Gold.Id.Protein>
6NUR|6NUR_protein|mol2

> <Gold.PLP.Fitness>
43.6103

> <Gold.PLP.PLP>
-33.2806

> <Gold.PLP.part.hbond>
-4.2008

> <Gold.PLP.part.metal>
0.0000

> <Gold.PLP.part.buried>
-6.0997

> <Gold.PLP.part.nonpolar>
-24.0022

> <Gold.PLP.part.repulsive>
1.2046

> <Gold.PLP.ligand.clash>
0.0000

> <Gold.PLP.ligand.torsion>
1.0188

> <Gold.PLP.Chemscore.Hbond>
2.9954

> <Gold.PLP.Chemscore.CHOScore>
0.8840

> <Gold.PLP.Chemscore.Metal>
0.0000

> <Gold.Chemscore.Hbonds>
donor molecule, donor type, donor heavy atom, donor atom, acceptor molecule, acceptor atom, score
      L1  H    22    40       P1  7957  0.62
      L1  H    28    49       P1 10186  1.00
      P1  H  7989  7998       L1    22  0.80
      P1  H 10785 10796       L1     1  0.53
      L1  C    17    35       P1  7957  0.91

> <Gold.PLP.Chemscore.Internal.Correction>
0.7293

> <Gold.Rescore>
     Score         DG    S(hbond)    S(metal)    S(lipo)     H(rot)  DE(clash)    DE(int)     intcor
     11.33     -14.27       3.14        0.00      48.59       2.88       0.46       2.48       ----

> <Gold.Chemscore.Fitness>
11.3318

> <Gold.Chemscore.DG>
-14.2706

> <Gold.Chemscore.ZeroCoef>
-5.4800

> <Gold.Chemscore.Hbond>
3.1350

> <Gold.Chemscore.Metal>
0.0000

> <Gold.Chemscore.Lipo>
48.5869

> <Gold.Chemscore.Internal_Hbond>
0.0000

> <Gold.Chemscore.DEClash>
0.4620

> <Gold.Chemscore.DEInternal>
2.4768

> <Gold.Chemscore.Rot>
2.8770

> <Gold.Chemscore.Internal.Correction>
   9.000000E+99

> <Gold.Chemscore.Hbonds>
donor molecule, donor type, donor heavy atom, donor atom, acceptor molecule, acceptor atom, score
      L1  H    22    40       P1  7957  0.60
      L1  H    28    49       P1 10186  0.99
      P1  H  7989  7998       L1    22  0.68
      P1  H 10785 10796       L1     1  0.36

> <Gold.Chemscore.Hbond.Weighted>
-10.4710

> <Gold.Chemscore.Metal.Weighted>
-0.0000

> <Gold.Chemscore.Lipo.Weighted>
-5.6847

> <Gold.Chemscore.Internal_Hbond.Weighted>
0.0000

> <Gold.Chemscore.DEClash.Weighted>
0.4620

> <Gold.Chemscore.DEInternal.Weighted>
2.4768

> <Gold.Chemscore.Rot.Weighted>
7.3651

> <Gold.Chemscore.Internal.Correction.Weighted>
   9.000000E+99

> <Gold.Protein.RotatedTorsions>
[ 6907 6896 6895 6894 ] final  -55.31 input  -60.11 | X-H torsion
[ 7974 7965 7964 7962 ] final   15.01 input  175.53 | X-H torsion
[ 8008 7997 7996 7995 ] final  -45.13 input   59.86 | X-H torsion
[ 10167 10162 10161 10158 ] final  169.83 input  -65.29 | X-H torsion
[ 10718 10713 10712 10709 ] final -118.05 input   66.30 | X-H torsion
[ 10763 10752 10751 10750 ] final  159.00 input  -60.55 | X-H torsion
[ 11005 11000 10999 10996 ] final   35.60 input  -57.11 | X-H torsion

> <Gold.Protein.ActiveResidues>
 VAL166  LYS551  ARG553  GLY616  TRP617  ASP618  TYR619  PRO620  LYS621  CYS622 
 ASP623  PHE694  ASN695  SER759  ASP760  ASP761  ALA762  ILE779  LEU786  VAL792 
 PHE793  MET794  SER795  GLU796  ALA797  LYS798  CYS799  TRP800  GLU811  SER814 

> <Gold.Protein.RotatedAtoms>
  150.8263  134.7495  159.6815 H   0  0  0  0  0  0  0  0  0  0  0  0  # atno 6907 bound_to 6896
  152.4373  134.5657  159.9917 H   0  0  0  0  0  0  0  0  0  0  0  0  # atno 6908 bound_to 6896
  151.5829  133.3338  159.3048 H   0  0  0  0  0  0  0  0  0  0  0  0  # atno 6909 bound_to 6896
  146.2290  139.8957  142.8547 H   0  0  0  0  0  0  0  0  0  0  0  0  # atno 7974 bound_to 7965
  154.3999  140.1404  156.3798 H   0  0  0  0  0  0  0  0  0  0  0  0  # atno 8008 bound_to 7997
  155.8015  140.3476  155.5385 H   0  0  0  0  0  0  0  0  0  0  0  0  # atno 8009 bound_to 7997
  155.8479  140.0937  157.1684 H   0  0  0  0  0  0  0  0  0  0  0  0  # atno 8010 bound_to 7997
  139.5002  144.3663  151.9772 H   0  0  0  0  0  0  0  0  0  0  0  0  # atno 10167 bound_to 10162
  156.1078  130.6224  150.9242 H   0  0  0  0  0  0  0  0  0  0  0  0  # atno 10718 bound_to 10713
  154.2249  135.2780  155.2911 H   0  0  0  0  0  0  0  0  0  0  0  0  # atno 10763 bound_to 10752
  154.5672  135.5629  153.7064 H   0  0  0  0  0  0  0  0  0  0  0  0  # atno 10764 bound_to 10752
  153.0033  135.6312  154.2389 H   0  0  0  0  0  0  0  0  0  0  0  0  # atno 10765 bound_to 10752
  140.2410  134.3415  155.7926 H   0  0  0  0  0  0  0  0  0  0  0  0  # atno 11005 bound_to 11000
  145.2373  140.9996  143.3956 LP  0  0  0  0  0  0  0  0  0  0  0  0  # atno 17320 bound_to 7965
  144.9480  139.4114  143.6416 LP  0  0  0  0  0  0  0  0  0  0  0  0  # atno 17321 bound_to 7965
  140.3099  144.3550  150.6037 LP  0  0  0  0  0  0  0  0  0  0  0  0  # atno 17342 bound_to 10162
  140.5807  143.2173  151.7433 LP  0  0  0  0  0  0  0  0  0  0  0  0  # atno 17343 bound_to 10162
  157.6256  131.0926  150.8539 LP  0  0  0  0  0  0  0  0  0  0  0  0  # atno 17370 bound_to 10713
  156.8655  130.5128  149.5300 LP  0  0  0  0  0  0  0  0  0  0  0  0  # atno 17371 bound_to 10713
  141.2210  133.7299  156.8885 LP  0  0  0  0  0  0  0  0  0  0  0  0  # atno 17394 bound_to 11000
  140.1653  134.9137  157.2766 LP  0  0  0  0  0  0  0  0  0  0  0  0  # atno 17395 bound_to 11000

$$$$
