AV-unprocessed.smi:3338|AV-procd|sdf|12875|dock9
  -GOLD-   2272019273D 1   1.00000     0.00000
 Structure written by MMmdl.
 44 45  0  0  0  0  0  0  0  0  2 V2000
  146.7266  129.2675  151.9740 C   0  0  0  0  0  0  0  0  0  0  0  0
  146.1364  130.4125  152.8156 C   0  0  2  0  0  0  0  0  0  0  0  0
  145.2312  131.3506  151.9964 C   0  0  0  0  0  0  0  0  0  0  0  0
  146.0594  132.2560  151.0745 C   0  0  0  0  0  0  0  0  0  0  0  0
  147.1391  133.0098  151.8671 C   0  0  0  0  0  0  0  0  0  0  0  0
  148.0133  132.0693  152.6148 N   0  3  1  0  0  0  0  0  0  0  0  0
  149.1511  132.7655  153.2674 C   0  0  0  0  0  0  0  0  0  0  0  0
  148.7188  133.5754  154.5004 C   0  0  0  0  0  0  0  0  0  0  0  0
  148.6839  134.9970  154.1882 N   0  0  0  0  0  0  0  0  0  0  0  0
  148.9800  135.9711  155.0622 C   0  0  0  0  0  0  0  0  0  0  0  0
  149.2817  135.7448  156.2346 O   0  0  0  0  0  0  0  0  0  0  0  0
  148.9215  137.4115  154.5235 C   0  0  1  0  0  0  0  0  0  0  0  0
  147.9979  138.3286  155.3497 C   0  0  0  0  0  0  0  0  0  0  0  0
  150.2624  137.9727  154.3981 N   0  0  0  0  0  0  0  0  0  0  0  0
  151.3664  137.4088  153.7912 C   0  0  0  0  0  0  0  0  0  0  0  0
  152.4051  138.2835  153.9338 C   0  0  0  0  0  0  0  0  0  0  0  0
  151.8356  139.3703  154.6533 C   0  0  0  0  0  0  0  0  0  0  0  0
  150.5568  139.1807  154.9334 N   0  0  0  0  0  0  0  0  0  0  0  0
  147.2278  131.2183  153.5506 C   0  0  0  0  0  0  0  0  0  0  0  0
  147.4007  129.6350  151.2001 H   0  0  0  0  0  0  0  0  0  0  0  0
  145.9387  128.6953  151.4832 H   0  0  0  0  0  0  0  0  0  0  0  0
  147.2914  128.5751  152.5988 H   0  0  0  0  0  0  0  0  0  0  0  0
  145.5105  129.9421  153.5753 H   0  0  0  0  0  0  0  0  0  0  0  0
  144.5084  130.7764  151.4159 H   0  0  0  0  0  0  0  0  0  0  0  0
  144.6493  131.9733  152.6774 H   0  0  0  0  0  0  0  0  0  0  0  0
  146.5263  131.6619  150.2884 H   0  0  0  0  0  0  0  0  0  0  0  0
  145.4053  132.9677  150.5697 H   0  0  0  0  0  0  0  0  0  0  0  0
  147.7384  133.6017  151.1741 H   0  0  0  0  0  0  0  0  0  0  0  0
  146.6763  133.7099  152.5648 H   0  0  0  0  0  0  0  0  0  0  0  0
  149.8833  132.0252  153.5939 H   0  0  0  0  0  0  0  0  0  0  0  0
  149.6596  133.4027  152.5419 H   0  0  0  0  0  0  0  0  0  0  0  0
  147.7301  133.2724  154.8454 H   0  0  0  0  0  0  0  0  0  0  0  0
  149.4158  133.4038  155.3225 H   0  0  0  0  0  0  0  0  0  0  0  0
  148.4426  135.2599  153.2436 H   0  0  0  0  0  0  0  0  0  0  0  0
  148.5016  137.3537  153.5180 H   0  0  0  0  0  0  0  0  0  0  0  0
  146.9818  137.9344  155.3874 H   0  0  0  0  0  0  0  0  0  0  0  0
  147.9444  139.3240  154.9079 H   0  0  0  0  0  0  0  0  0  0  0  0
  148.3479  138.4425  156.3767 H   0  0  0  0  0  0  0  0  0  0  0  0
  151.3221  136.4416  153.3124 H   0  0  0  0  0  0  0  0  0  0  0  0
  153.4180  138.1657  153.5779 H   0  0  0  0  0  0  0  0  0  0  0  0
  152.3102  140.2839  154.9800 H   0  0  0  0  0  0  0  0  0  0  0  0
  146.7671  131.8556  154.3072 H   0  0  0  0  0  0  0  0  0  0  0  0
  147.8798  130.5285  154.0852 H   0  0  0  0  0  0  0  0  0  0  0  0
  148.4154  131.4518  151.9238 H   0  0  0  0  0  0  0  0  0  0  0  0
  1  2  1  0  0  0  0
  1 20  1  0  0  0  0
  1 21  1  0  0  0  0
  1 22  1  0  0  0  0
  2 19  1  0  0  0  0
  2  3  1  0  0  0  0
  2 23  1  0  0  0  0
  3  4  1  0  0  0  0
  3 24  1  0  0  0  0
  3 25  1  0  0  0  0
  4  5  1  0  0  0  0
  4 26  1  0  0  0  0
  4 27  1  0  0  0  0
  5  6  1  0  0  0  0
  5 28  1  0  0  0  0
  5 29  1  0  0  0  0
  6  7  1  0  0  0  0
  6 19  1  0  0  0  0
  6 44  1  0  0  0  0
  7  8  1  0  0  0  0
  7 30  1  0  0  0  0
  7 31  1  0  0  0  0
  8  9  1  0  0  0  0
  8 32  1  0  0  0  0
  8 33  1  0  0  0  0
  9 10  1  0  0  0  0
  9 34  1  0  0  0  0
 10 11  2  0  0  0  0
 10 12  1  0  0  0  0
 12 13  1  0  0  0  0
 12 14  1  0  0  0  0
 12 35  1  0  0  0  0
 13 36  1  0  0  0  0
 13 37  1  0  0  0  0
 13 38  1  0  0  0  0
 14 18  1  0  0  0  0
 14 15  1  0  0  0  0
 15 16  2  0  0  0  0
 15 39  1  0  0  0  0
 16 17  1  0  0  0  0
 16 40  1  0  0  0  0
 17 18  2  0  0  0  0
 17 41  1  0  0  0  0
 19 42  1  0  0  0  0
 19 43  1  0  0  0  0
M  CHG  1   6   1
M  END
> <s_m_source_file>
AV-unprocessed.smi

> <i_m_source_file_index>
3338

> <i_lp_mmshare_version>
43012

> <i_f3d_flags>
0

> <s_epik_input>
W0NIM11bQ0BASF0xW0NIMl1bQ0gyXVtDSDJdTihbQ0gyXTEpW0NIMl1bQ0gyXVtOSF1DKD1PKVtDQEhdKFtDSDNdKW4yW2NIXVtjSF1bY0hdbjI=

> <s_epik_cmdline>
J2VwaWtfcHl0aG9uJywgJy1waCcsICc3LjAnLCAnLXRuJywgJzgnLCAnLW1hJywgJzIwMCcsICctbWV0YWxfYmluZGluZycsICctaW1hZScsICc8aW5maWxlLm1hZT4nLCAnLW9tYWUnLCAnPG91dGZpbGUubWFlPic=

> <r_lp_tautomer_probability>
1

> <r_epik_Ionization_Penalty>
0.00225707

> <r_epik_Ionization_Penalty_Charging>
0.00223709

> <r_epik_Ionization_Penalty_Neutral>
1.99775e-05

> <r_epik_State_Penalty>
0.00153978

> <r_epik_Charging_Adjusted_Penalty>
0.00377687

> <i_epik_Tot_Q>
1

> <i_epik_Tot_abs_Q>
1

> <r_epik_Metal_State_Penalty>
-0

> <b_epik_Metal_Only>
0

> <s_lp_Force_Field>
OPLS_2005

> <r_lp_Energy>
23.0994

> <b_lp_Chiralities_Consistent>
1

> <s_lp_Variant>
AV-unprocessed.smi:3338-7

> <Gold.Version>
5.8.1

> <Gold.Id.Protein>
6NUR|6NUR_protein|mol2

> <Gold.PLP.Fitness>
40.3215

> <Gold.PLP.PLP>
-32.7883

> <Gold.PLP.part.hbond>
-2.0000

> <Gold.PLP.part.metal>
0.0000

> <Gold.PLP.part.buried>
-3.2195

> <Gold.PLP.part.nonpolar>
-28.1941

> <Gold.PLP.part.repulsive>
0.0604

> <Gold.PLP.ligand.clash>
0.0000

> <Gold.PLP.ligand.torsion>
0.7985

> <Gold.PLP.Chemscore.Hbond>
2.0000

> <Gold.PLP.Chemscore.CHOScore>
1.0000

> <Gold.PLP.Chemscore.Metal>
0.0000

> <Gold.Chemscore.Hbonds>
donor molecule, donor type, donor heavy atom, donor atom, acceptor molecule, acceptor atom, score
      L1  H     6    44       P1 10747  1.00
      L1  H     9    34       P1  7948  0.88
      L1  C    15    39       P1  7949  0.63

> <Gold.PLP.Chemscore.Internal.Correction>
0.1302

> <Gold.Rescore>
     Score         DG    S(hbond)    S(metal)    S(lipo)     H(rot)  DE(clash)    DE(int)     intcor
     16.39     -17.33       1.98        0.00      83.31       1.76       0.03       0.91       ----

> <Gold.Chemscore.Fitness>
16.3921

> <Gold.Chemscore.DG>
-17.3322

> <Gold.Chemscore.ZeroCoef>
-5.4800

> <Gold.Chemscore.Hbond>
1.9767

> <Gold.Chemscore.Metal>
0.0000

> <Gold.Chemscore.Lipo>
83.3147

> <Gold.Chemscore.Internal_Hbond>
0.0000

> <Gold.Chemscore.DEClash>
0.0310

> <Gold.Chemscore.DEInternal>
0.9092

> <Gold.Chemscore.Rot>
1.7570

> <Gold.Chemscore.Internal.Correction>
   9.000000E+99

> <Gold.Chemscore.Hbonds>
donor molecule, donor type, donor heavy atom, donor atom, acceptor molecule, acceptor atom, score
      L1  H     6    44       P1 10747  0.99
      L1  H     9    34       P1  7948  0.82

> <Gold.Chemscore.Hbond.Weighted>
-6.6023

> <Gold.Chemscore.Metal.Weighted>
-0.0000

> <Gold.Chemscore.Lipo.Weighted>
-9.7478

> <Gold.Chemscore.Internal_Hbond.Weighted>
0.0000

> <Gold.Chemscore.DEClash.Weighted>
0.0310

> <Gold.Chemscore.DEInternal.Weighted>
0.9092

> <Gold.Chemscore.Rot.Weighted>
4.4979

> <Gold.Chemscore.Internal.Correction.Weighted>
   9.000000E+99

> <Gold.Protein.RotatedTorsions>
[ 6907 6896 6895 6894 ] final  -77.30 input  -60.11 | X-H torsion
[ 7974 7965 7964 7962 ] final  -30.76 input  175.53 | X-H torsion
[ 8008 7997 7996 7995 ] final   96.68 input   59.86 | X-H torsion
[ 10167 10162 10161 10158 ] final   75.45 input  -65.29 | X-H torsion
[ 10718 10713 10712 10709 ] final -129.44 input   66.30 | X-H torsion
[ 10763 10752 10751 10750 ] final  161.56 input  -60.55 | X-H torsion
[ 11005 11000 10999 10996 ] final  -40.43 input  -57.11 | X-H torsion

> <Gold.Protein.ActiveResidues>
 VAL166  LYS551  ARG553  GLY616  TRP617  ASP618  TYR619  PRO620  LYS621  CYS622 
 ASP623  PHE694  ASN695  SER759  ASP760  ASP761  ALA762  ILE779  LEU786  VAL792 
 PHE793  MET794  SER795  GLU796  ALA797  LYS798  CYS799  TRP800  GLU811  SER814 

> <Gold.Protein.RotatedAtoms>
  150.7003  134.4444  159.5306 H   0  0  0  0  0  0  0  0  0  0  0  0  # atno 6907 bound_to 6896
  152.2148  134.8465  160.0502 H   0  0  0  0  0  0  0  0  0  0  0  0  # atno 6908 bound_to 6896
  151.9338  133.3583  159.3977 H   0  0  0  0  0  0  0  0  0  0  0  0  # atno 6909 bound_to 6896
  146.1118  140.5582  142.8774 H   0  0  0  0  0  0  0  0  0  0  0  0  # atno 7974 bound_to 7965
  156.0821  140.3269  155.7708 H   0  0  0  0  0  0  0  0  0  0  0  0  # atno 8008 bound_to 7997
  155.5135  140.0579  157.2936 H   0  0  0  0  0  0  0  0  0  0  0  0  # atno 8009 bound_to 7997
  154.4588  140.1956  156.0319 H   0  0  0  0  0  0  0  0  0  0  0  0  # atno 8010 bound_to 7997
  140.0028  144.5673  150.7723 H   0  0  0  0  0  0  0  0  0  0  0  0  # atno 10167 bound_to 10162
  156.2047  130.6880  151.0580 H   0  0  0  0  0  0  0  0  0  0  0  0  # atno 10718 bound_to 10713
  154.2649  135.2767  155.2763 H   0  0  0  0  0  0  0  0  0  0  0  0  # atno 10763 bound_to 10752
  154.5352  135.5718  153.6796 H   0  0  0  0  0  0  0  0  0  0  0  0  # atno 10764 bound_to 10752
  152.9955  135.6237  154.2801 H   0  0  0  0  0  0  0  0  0  0  0  0  # atno 10765 bound_to 10752
  141.0174  133.6879  156.2320 H   0  0  0  0  0  0  0  0  0  0  0  0  # atno 11005 bound_to 11000
  144.7518  140.5210  143.6796 LP  0  0  0  0  0  0  0  0  0  0  0  0  # atno 17320 bound_to 7965
  145.5647  139.1481  143.3321 LP  0  0  0  0  0  0  0  0  0  0  0  0  # atno 17321 bound_to 7965
  140.7412  143.2815  151.3585 LP  0  0  0  0  0  0  0  0  0  0  0  0  # atno 17342 bound_to 10162
  139.6260  144.0814  152.2434 LP  0  0  0  0  0  0  0  0  0  0  0  0  # atno 17343 bound_to 10162
  157.7005  131.0777  150.6833 LP  0  0  0  0  0  0  0  0  0  0  0  0  # atno 17370 bound_to 10713
  156.6892  130.4590  149.5605 LP  0  0  0  0  0  0  0  0  0  0  0  0  # atno 17371 bound_to 10713
  140.6632  134.4946  157.5584 LP  0  0  0  0  0  0  0  0  0  0  0  0  # atno 17394 bound_to 11000
  139.9125  134.8315  156.1479 LP  0  0  0  0  0  0  0  0  0  0  0  0  # atno 17395 bound_to 11000

$$$$
