AV-unprocessed.smi:247|AV-procd|sdf|1894|dock4
  -GOLD-   2262020563D 1   1.00000     0.00000
 Structure written by MMmdl.
 61 65  0  0  0  0  0  0  0  0  1 V2000
  148.5702  140.7643  153.3239 O   0  0  0  0  0  0  0  0  0  0  0  0
  148.3043  139.8674  154.3846 C   0  0  0  0  0  0  0  0  0  0  0  0
  149.5746  139.4553  155.1797 C   0  0  0  0  0  0  0  0  0  0  0  0
  149.1577  138.4387  156.2895 C   0  0  0  0  0  0  0  0  0  0  0  0
  148.9199  137.0792  155.8250 N   0  0  0  0  0  0  0  0  0  0  0  0
  149.8609  136.1931  155.3501 C   0  0  0  0  0  0  0  0  0  0  0  0
  149.3995  135.0244  154.9991 N   0  0  0  0  0  0  0  0  0  0  0  0
  148.0381  135.1015  155.2672 C   0  0  0  0  0  0  0  0  0  0  0  0
  146.9486  134.1947  155.1325 C   0  0  0  0  0  0  0  0  0  0  0  0
  147.0978  132.9428  154.6266 N   0  0  0  0  0  0  0  0  0  0  0  0
  147.7849  131.9781  155.4791 C   0  0  0  0  0  0  0  0  0  0  0  0
  148.6356  131.1092  154.5483 C   0  0  0  0  0  0  0  0  0  0  0  0
  147.9541  131.2590  153.1923 C   0  0  0  0  0  0  0  0  0  0  0  0
  147.4648  132.7128  153.2286 C   0  0  1  0  0  0  0  0  0  0  0  0
  146.3607  133.0887  152.1952 C   0  0  1  0  0  0  0  0  0  0  0  0
  145.3229  131.9502  152.0835 C   0  0  0  0  0  0  0  0  0  0  0  0
  144.3594  132.2375  151.0760 O   0  0  0  0  0  0  0  0  0  0  0  0
  143.5914  133.4003  151.3597 C   0  0  0  0  0  0  0  0  0  0  0  0
  144.5153  134.6246  151.4057 C   0  0  0  0  0  0  0  0  0  0  0  0
  145.6221  134.4272  152.4515 C   0  0  2  0  0  0  0  0  0  0  0  0
  146.4986  135.5327  152.3628 O   0  0  0  0  0  0  0  0  0  0  0  0
  145.7232  134.6300  155.5284 N   0  0  0  0  0  0  0  0  0  0  0  0
  145.5689  135.8626  156.0198 C   0  0  0  0  0  0  0  0  0  0  0  0
  146.4900  136.8115  156.1962 N   0  0  0  0  0  0  0  0  0  0  0  0
  147.7230  136.3830  155.8013 C   0  0  0  0  0  0  0  0  0  0  0  0
  150.6300  138.8592  154.2122 C   0  0  0  0  0  0  0  0  0  0  0  0
  151.9939  138.6460  154.8929 C   0  0  0  0  0  0  0  0  0  0  0  0
  152.4628  139.8769  155.4297 O   0  0  0  0  0  0  0  0  0  0  0  0
  151.6091  140.4088  156.4356 C   0  0  0  0  0  0  0  0  0  0  0  0
  150.2134  140.6990  155.8506 C   0  0  0  0  0  0  0  0  0  0  0  0
  148.9400  140.2764  152.6039 H   0  0  0  0  0  0  0  0  0  0  0  0
  147.5779  140.3374  155.0485 H   0  0  0  0  0  0  0  0  0  0  0  0
  147.8177  138.9937  153.9511 H   0  0  0  0  0  0  0  0  0  0  0  0
  149.9057  138.3811  157.0787 H   0  0  0  0  0  0  0  0  0  0  0  0
  148.2485  138.7859  156.7823 H   0  0  0  0  0  0  0  0  0  0  0  0
  150.9083  136.4442  155.2664 H   0  0  0  0  0  0  0  0  0  0  0  0
  148.4022  132.4568  156.2409 H   0  0  0  0  0  0  0  0  0  0  0  0
  147.0356  131.3694  155.9861 H   0  0  0  0  0  0  0  0  0  0  0  0
  149.6480  131.5117  154.4943 H   0  0  0  0  0  0  0  0  0  0  0  0
  148.7035  130.0729  154.8802 H   0  0  0  0  0  0  0  0  0  0  0  0
  148.6279  131.0571  152.3593 H   0  0  0  0  0  0  0  0  0  0  0  0
  147.1241  130.5563  153.1350 H   0  0  0  0  0  0  0  0  0  0  0  0
  148.3352  133.3393  153.0260 H   0  0  0  0  0  0  0  0  0  0  0  0
  146.8309  133.1646  151.2144 H   0  0  0  0  0  0  0  0  0  0  0  0
  145.8195  131.0156  151.8213 H   0  0  0  0  0  0  0  0  0  0  0  0
  144.8169  131.7817  153.0352 H   0  0  0  0  0  0  0  0  0  0  0  0
  142.8407  133.5264  150.5793 H   0  0  0  0  0  0  0  0  0  0  0  0
  143.0553  133.2785  152.3022 H   0  0  0  0  0  0  0  0  0  0  0  0
  144.9562  134.7760  150.4191 H   0  0  0  0  0  0  0  0  0  0  0  0
  143.9361  135.5211  151.6306 H   0  0  0  0  0  0  0  0  0  0  0  0
  145.1651  134.4293  153.4402 H   0  0  0  0  0  0  0  0  0  0  0  0
  147.3828  135.2075  152.2844 H   0  0  0  0  0  0  0  0  0  0  0  0
  144.5629  136.1272  156.3109 H   0  0  0  0  0  0  0  0  0  0  0  0
  150.2782  137.9295  153.7670 H   0  0  0  0  0  0  0  0  0  0  0  0
  150.7880  139.5386  153.3740 H   0  0  0  0  0  0  0  0  0  0  0  0
  151.9410  137.8883  155.6749 H   0  0  0  0  0  0  0  0  0  0  0  0
  152.7193  138.2881  154.1624 H   0  0  0  0  0  0  0  0  0  0  0  0
  151.5591  139.7284  157.2859 H   0  0  0  0  0  0  0  0  0  0  0  0
  152.0503  141.3332  156.8084 H   0  0  0  0  0  0  0  0  0  0  0  0
  150.3291  141.5023  155.1228 H   0  0  0  0  0  0  0  0  0  0  0  0
  149.5573  141.0927  156.6277 H   0  0  0  0  0  0  0  0  0  0  0  0
  1  2  1  0  0  0  0
  1 31  1  0  0  0  0
  2  3  1  0  0  0  0
  2 32  1  0  0  0  0
  2 33  1  0  0  0  0
  3 30  1  0  0  0  0
  3  4  1  0  0  0  0
  3 26  1  0  0  0  0
  4  5  1  0  0  0  0
  4 34  1  0  0  0  0
  4 35  1  0  0  0  0
  5 25  1  0  0  0  0
  5  6  1  0  0  0  0
  6  7  2  0  0  0  0
  6 36  1  0  0  0  0
  7  8  1  0  0  0  0
  8 25  2  0  0  0  0
  8  9  1  0  0  0  0
  9 10  1  0  0  0  0
  9 22  2  0  0  0  0
 10 14  1  0  0  0  0
 10 11  1  0  0  0  0
 11 12  1  0  0  0  0
 11 37  1  0  0  0  0
 11 38  1  0  0  0  0
 12 13  1  0  0  0  0
 12 39  1  0  0  0  0
 12 40  1  0  0  0  0
 13 14  1  0  0  0  0
 13 41  1  0  0  0  0
 13 42  1  0  0  0  0
 14 15  1  0  0  0  0
 14 43  1  0  0  0  0
 15 20  1  0  0  0  0
 15 16  1  0  0  0  0
 15 44  1  0  0  0  0
 16 17  1  0  0  0  0
 16 45  1  0  0  0  0
 16 46  1  0  0  0  0
 17 18  1  0  0  0  0
 18 19  1  0  0  0  0
 18 47  1  0  0  0  0
 18 48  1  0  0  0  0
 19 20  1  0  0  0  0
 19 49  1  0  0  0  0
 19 50  1  0  0  0  0
 20 21  1  0  0  0  0
 20 51  1  0  0  0  0
 21 52  1  0  0  0  0
 22 23  1  0  0  0  0
 23 24  2  0  0  0  0
 23 53  1  0  0  0  0
 24 25  1  0  0  0  0
 26 27  1  0  0  0  0
 26 54  1  0  0  0  0
 26 55  1  0  0  0  0
 27 28  1  0  0  0  0
 27 56  1  0  0  0  0
 27 57  1  0  0  0  0
 28 29  1  0  0  0  0
 29 30  1  0  0  0  0
 29 58  1  0  0  0  0
 29 59  1  0  0  0  0
 30 60  1  0  0  0  0
 30 61  1  0  0  0  0
M  END
> <s_m_source_file>
AV-unprocessed.smi

> <i_m_source_file_index>
247

> <i_lp_mmshare_version>
43012

> <i_f3d_flags>
0

> <s_epik_input>
W0NIMl0xW0NIMl1PW0NIMl1bQ0gyXUMxKFtDSDJdW09IXSlbQ0gyXW4oW2NIXW4yKWMoYzIzKW5bY0hdbmMzTjRbQ0gyXVtDSDJdW0NIMl1bQ0BIXTRbQ0BASF01W0NIMl1PW0NIMl1bQ0gyXVtDQEhdNVtPSF0=

> <s_epik_cmdline>
J2VwaWtfcHl0aG9uJywgJy1waCcsICc3LjAnLCAnLXRuJywgJzgnLCAnLW1hJywgJzIwMCcsICctbWV0YWxfYmluZGluZycsICctaW1hZScsICc8aW5maWxlLm1hZT4nLCAnLW9tYWUnLCAnPG91dGZpbGUubWFlPic=

> <r_lp_tautomer_probability>
1

> <r_epik_Ionization_Penalty>
0.00362597

> <r_epik_Ionization_Penalty_Charging>
0

> <r_epik_Ionization_Penalty_Neutral>
0.00362597

> <r_epik_State_Penalty>
0.00241433

> <r_epik_Charging_Adjusted_Penalty>
0.00241433

> <i_epik_Tot_Q>
0

> <i_epik_Tot_abs_Q>
0

> <r_epik_Metal_State_Penalty>
-0

> <b_epik_Metal_Only>
0

> <s_lp_Force_Field>
OPLS_2005

> <r_lp_Energy>
58.3113

> <b_lp_Chiralities_Consistent>
1

> <s_lp_Variant>
AV-unprocessed.smi:247-7

> <Gold.Version>
5.8.1

> <Gold.Id.Protein>
6NUR|6NUR_protein|mol2

> <Gold.PLP.Fitness>
42.9068

> <Gold.PLP.PLP>
-36.0572

> <Gold.PLP.part.hbond>
-3.9624

> <Gold.PLP.part.metal>
0.0000

> <Gold.PLP.part.buried>
-5.9177

> <Gold.PLP.part.nonpolar>
-28.3205

> <Gold.PLP.part.repulsive>
0.3836

> <Gold.PLP.ligand.clash>
0.0296

> <Gold.PLP.ligand.torsion>
0.7611

> <Gold.PLP.Chemscore.Hbond>
2.6677

> <Gold.PLP.Chemscore.CHOScore>
0.0000

> <Gold.PLP.Chemscore.Metal>
0.0000

> <Gold.Chemscore.Hbonds>
donor molecule, donor type, donor heavy atom, donor atom, acceptor molecule, acceptor atom, score
      L1  H     1    31       P1  7957  1.00
      L1  H    21    52       P1  7948  0.56
      P1  H  7989  7998       L1    28  0.07
      P1  H  7997  8008       L1    28  0.60

> <Gold.PLP.Chemscore.Internal.Correction>
0.3982

> <Gold.Rescore>
     Score         DG    S(hbond)    S(metal)    S(lipo)     H(rot)  DE(clash)    DE(int)     intcor
     12.37     -15.02       2.27        0.00      87.44       3.23       1.27       1.38       ----

> <Gold.Chemscore.Fitness>
12.3696

> <Gold.Chemscore.DG>
-15.0218

> <Gold.Chemscore.ZeroCoef>
-5.4800

> <Gold.Chemscore.Hbond>
2.2677

> <Gold.Chemscore.Metal>
0.0000

> <Gold.Chemscore.Lipo>
87.4444

> <Gold.Chemscore.Internal_Hbond>
0.0000

> <Gold.Chemscore.DEClash>
1.2714

> <Gold.Chemscore.DEInternal>
1.3808

> <Gold.Chemscore.Rot>
3.2278

> <Gold.Chemscore.Internal.Correction>
   9.000000E+99

> <Gold.Chemscore.Hbonds>
donor molecule, donor type, donor heavy atom, donor atom, acceptor molecule, acceptor atom, score
      L1  H     1    31       P1  7957  0.98
      L1  H    21    52       P1  7948  0.56
      P1  H  7997  8008       L1    28  0.53

> <Gold.Chemscore.Hbond.Weighted>
-7.5741

> <Gold.Chemscore.Metal.Weighted>
-0.0000

> <Gold.Chemscore.Lipo.Weighted>
-10.2310

> <Gold.Chemscore.Internal_Hbond.Weighted>
0.0000

> <Gold.Chemscore.DEClash.Weighted>
1.2714

> <Gold.Chemscore.DEInternal.Weighted>
1.3808

> <Gold.Chemscore.Rot.Weighted>
8.2633

> <Gold.Chemscore.Internal.Correction.Weighted>
   9.000000E+99

> <Gold.Protein.RotatedTorsions>
[ 6907 6896 6895 6894 ] final   69.89 input  -60.11 | X-H torsion
[ 7974 7965 7964 7962 ] final  164.27 input  175.53 | X-H torsion
[ 8008 7997 7996 7995 ] final   -2.51 input   59.86 | X-H torsion
[ 10167 10162 10161 10158 ] final   17.84 input  -65.29 | X-H torsion
[ 10718 10713 10712 10709 ] final   13.38 input   66.30 | X-H torsion
[ 10763 10752 10751 10750 ] final  179.77 input  -60.55 | X-H torsion
[ 11005 11000 10999 10996 ] final -123.53 input  -57.11 | X-H torsion

> <Gold.Protein.ActiveResidues>
 VAL166  LYS551  ARG553  GLY616  TRP617  ASP618  TYR619  PRO620  LYS621  CYS622 
 ASP623  PHE694  ASN695  SER759  ASP760  ASP761  ALA762  ILE779  LEU786  VAL792 
 PHE793  MET794  SER795  GLU796  ALA797  LYS798  CYS799  TRP800  GLU811  SER814 

> <Gold.Protein.RotatedAtoms>
  152.4715  134.4949  159.9706 H   0  0  0  0  0  0  0  0  0  0  0  0  # atno 6907 bound_to 6896
  151.4975  133.3505  159.2871 H   0  0  0  0  0  0  0  0  0  0  0  0  # atno 6908 bound_to 6896
  150.8727  134.8132  159.7228 H   0  0  0  0  0  0  0  0  0  0  0  0  # atno 6909 bound_to 6896
  144.7552  139.8302  143.6352 H   0  0  0  0  0  0  0  0  0  0  0  0  # atno 7974 bound_to 7965
  154.6349  140.2532  155.7390 H   0  0  0  0  0  0  0  0  0  0  0  0  # atno 8008 bound_to 7997
  156.2499  140.2899  156.0637 H   0  0  0  0  0  0  0  0  0  0  0  0  # atno 8009 bound_to 7997
  155.1686  140.0386  157.2848 H   0  0  0  0  0  0  0  0  0  0  0  0  # atno 8010 bound_to 7997
  140.5696  143.9185  150.6703 H   0  0  0  0  0  0  0  0  0  0  0  0  # atno 10167 bound_to 10162
  157.0238  130.6165  149.5725 H   0  0  0  0  0  0  0  0  0  0  0  0  # atno 10718 bound_to 10713
  154.5249  135.2796  155.1230 H   0  0  0  0  0  0  0  0  0  0  0  0  # atno 10763 bound_to 10752
  154.2773  135.6292  153.5337 H   0  0  0  0  0  0  0  0  0  0  0  0  # atno 10764 bound_to 10752
  152.9944  135.5643  154.5747 H   0  0  0  0  0  0  0  0  0  0  0  0  # atno 10765 bound_to 10752
  140.9911  134.0537  157.3652 H   0  0  0  0  0  0  0  0  0  0  0  0  # atno 11005 bound_to 11000
  146.1554  139.4650  143.0022 LP  0  0  0  0  0  0  0  0  0  0  0  0  # atno 17320 bound_to 7965
  145.6803  141.0193  143.1610 LP  0  0  0  0  0  0  0  0  0  0  0  0  # atno 17321 bound_to 7965
  140.2657  143.3492  152.1283 LP  0  0  0  0  0  0  0  0  0  0  0  0  # atno 17342 bound_to 10162
  139.5111  144.6894  151.5799 LP  0  0  0  0  0  0  0  0  0  0  0  0  # atno 17343 bound_to 10162
  156.0093  130.5183  150.7935 LP  0  0  0  0  0  0  0  0  0  0  0  0  # atno 17370 bound_to 10713
  157.5230  131.0932  151.0054 LP  0  0  0  0  0  0  0  0  0  0  0  0  # atno 17371 bound_to 10713
  139.8993  135.0158  156.7189 LP  0  0  0  0  0  0  0  0  0  0  0  0  # atno 17394 bound_to 11000
  140.7038  133.9283  155.8041 LP  0  0  0  0  0  0  0  0  0  0  0  0  # atno 17395 bound_to 11000

$$$$
