AV-unprocessed.smi:290|AV-procd|sdf|2232|dock7
  -GOLD-   2262022 93D 1   1.00000     0.00000
 Structure written by MMmdl.
 59 62  0  0  0  0  0  0  0  0  2 V2000
  151.3881  145.5299  158.9573 C   0  0  0  0  0  0  0  0  0  0  0  0
  151.7604  144.3712  158.0160 C   0  0  1  0  0  0  0  0  0  0  0  0
  153.0492  143.9109  158.4276 O   0  0  0  0  0  0  0  0  0  0  0  0
  153.0246  142.5132  158.6828 C   0  0  0  0  0  0  0  0  0  0  0  0
  151.5730  142.2281  159.0363 C   0  0  0  0  0  0  0  0  0  0  0  0
  150.8245  143.1376  158.0691 C   0  0  1  0  0  0  0  0  0  0  0  0
  149.5495  143.4355  158.6119 O   0  0  0  0  0  0  0  0  0  0  0  0
  150.6216  142.5305  156.6552 C   0  0  0  0  0  0  0  0  0  0  0  0
  150.1463  141.1552  156.6579 N   0  0  0  0  0  0  0  0  0  0  0  0
  149.2925  140.5764  157.5703 C   0  0  0  0  0  0  0  0  0  0  0  0
  149.0108  139.3205  157.3512 N   0  0  0  0  0  0  0  0  0  0  0  0
  149.7183  139.0134  156.1951 C   0  0  0  0  0  0  0  0  0  0  0  0
  149.8686  137.8405  155.4026 C   0  0  0  0  0  0  0  0  0  0  0  0
  149.2732  136.6558  155.6614 N   0  0  0  0  0  0  0  0  0  0  0  0
  147.8259  136.7127  155.8052 C   0  0  0  0  0  0  0  0  0  0  0  0
  147.2610  135.6611  154.8573 C   0  0  0  0  0  0  0  0  0  0  0  0
  148.3999  134.6459  154.6876 C   0  0  1  0  0  0  0  0  0  0  0  0
  148.2298  133.8651  153.4237 N   0  3  1  0  0  0  0  0  0  0  0  0
  149.3336  132.9275  153.1064 C   0  0  0  0  0  0  0  0  0  0  0  0
  146.9053  133.1909  153.3400 C   0  0  0  0  0  0  0  0  0  0  0  0
  146.6187  132.6632  151.9246 C   0  0  0  0  0  0  0  0  0  0  0  0
  147.1393  131.3586  151.7793 O   0  0  0  0  0  0  0  0  0  0  0  0
  149.6436  135.5663  154.7591 C   0  0  2  0  0  0  0  0  0  0  0  0
  150.9298  134.8930  155.2814 C   0  0  0  0  0  0  0  0  0  0  0  0
  150.6588  137.9098  154.3041 N   0  0  0  0  0  0  0  0  0  0  0  0
  151.2691  139.0576  153.9931 C   0  0  0  0  0  0  0  0  0  0  0  0
  151.2243  140.2279  154.6341 N   0  0  0  0  0  0  0  0  0  0  0  0
  150.4306  140.1581  155.7413 C   0  0  0  0  0  0  0  0  0  0  0  0
  148.4117  133.9664  155.5422 H   0  0  0  0  0  0  0  0  0  0  0  0
  149.8351  135.9789  153.7675 H   0  0  0  0  0  0  0  0  0  0  0  0
  150.4296  145.9716  158.6844 H   0  0  0  0  0  0  0  0  0  0  0  0
  152.1363  146.3215  158.9109 H   0  0  0  0  0  0  0  0  0  0  0  0
  151.3237  145.1961  159.9935 H   0  0  0  0  0  0  0  0  0  0  0  0
  151.8310  144.7585  156.9986 H   0  0  0  0  0  0  0  0  0  0  0  0
  153.3192  141.9749  157.7812 H   0  0  0  0  0  0  0  0  0  0  0  0
  153.7138  142.2406  159.4822 H   0  0  0  0  0  0  0  0  0  0  0  0
  151.3121  141.1731  158.9669 H   0  0  0  0  0  0  0  0  0  0  0  0
  151.3934  142.5395  160.0667 H   0  0  0  0  0  0  0  0  0  0  0  0
  149.0564  143.9205  157.9682 H   0  0  0  0  0  0  0  0  0  0  0  0
  149.9089  143.1328  156.0902 H   0  0  0  0  0  0  0  0  0  0  0  0
  151.5529  142.5651  156.0887 H   0  0  0  0  0  0  0  0  0  0  0  0
  148.8847  141.1192  158.4110 H   0  0  0  0  0  0  0  0  0  0  0  0
  147.5816  136.4588  156.8371 H   0  0  0  0  0  0  0  0  0  0  0  0
  147.4064  137.6999  155.6043 H   0  0  0  0  0  0  0  0  0  0  0  0
  146.3382  135.2256  155.2402 H   0  0  0  0  0  0  0  0  0  0  0  0
  147.0342  136.1307  153.8987 H   0  0  0  0  0  0  0  0  0  0  0  0
  149.4757  132.2040  153.9098 H   0  0  0  0  0  0  0  0  0  0  0  0
  150.2682  133.4604  152.9348 H   0  0  0  0  0  0  0  0  0  0  0  0
  149.1274  132.3700  152.1933 H   0  0  0  0  0  0  0  0  0  0  0  0
  146.8707  132.3721  154.0603 H   0  0  0  0  0  0  0  0  0  0  0  0
  146.0951  133.8608  153.6273 H   0  0  0  0  0  0  0  0  0  0  0  0
  145.5525  132.6576  151.6999 H   0  0  0  0  0  0  0  0  0  0  0  0
  147.0957  133.3048  151.1833 H   0  0  0  0  0  0  0  0  0  0  0  0
  147.7481  131.3532  151.0559 H   0  0  0  0  0  0  0  0  0  0  0  0
  151.2811  134.0862  154.6434 H   0  0  0  0  0  0  0  0  0  0  0  0
  150.7784  134.4790  156.2787 H   0  0  0  0  0  0  0  0  0  0  0  0
  151.7456  135.6133  155.3486 H   0  0  0  0  0  0  0  0  0  0  0  0
  151.8807  139.0356  153.1030 H   0  0  0  0  0  0  0  0  0  0  0  0
  148.2336  134.5546  152.6850 H   0  0  0  0  0  0  0  0  0  0  0  0
  1  2  1  0  0  0  0
  1 31  1  0  0  0  0
  1 32  1  0  0  0  0
  1 33  1  0  0  0  0
  2  6  1  0  0  0  0
  2  3  1  0  0  0  0
  2 34  1  0  0  0  0
  3  4  1  0  0  0  0
  4  5  1  0  0  0  0
  4 35  1  0  0  0  0
  4 36  1  0  0  0  0
  5  6  1  0  0  0  0
  5 37  1  0  0  0  0
  5 38  1  0  0  0  0
  6  7  1  0  0  0  0
  6  8  1  0  0  0  0
  7 39  1  0  0  0  0
  8  9  1  0  0  0  0
  8 40  1  0  0  0  0
  8 41  1  0  0  0  0
  9 28  1  0  0  0  0
  9 10  1  0  0  0  0
 10 11  2  0  0  0  0
 10 42  1  0  0  0  0
 11 12  1  0  0  0  0
 12 28  2  0  0  0  0
 12 13  1  0  0  0  0
 13 14  1  0  0  0  0
 13 25  2  0  0  0  0
 14 23  1  0  0  0  0
 14 15  1  0  0  0  0
 15 16  1  0  0  0  0
 15 43  1  0  0  0  0
 15 44  1  0  0  0  0
 16 17  1  0  0  0  0
 16 45  1  0  0  0  0
 16 46  1  0  0  0  0
 17 29  1  0  0  0  0
 17 18  1  0  0  0  0
 17 23  1  0  0  0  0
 18 19  1  0  0  0  0
 18 20  1  0  0  0  0
 18 59  1  0  0  0  0
 19 47  1  0  0  0  0
 19 48  1  0  0  0  0
 19 49  1  0  0  0  0
 20 21  1  0  0  0  0
 20 50  1  0  0  0  0
 20 51  1  0  0  0  0
 21 22  1  0  0  0  0
 21 52  1  0  0  0  0
 21 53  1  0  0  0  0
 22 54  1  0  0  0  0
 23 30  1  0  0  0  0
 23 24  1  0  0  0  0
 24 55  1  0  0  0  0
 24 56  1  0  0  0  0
 24 57  1  0  0  0  0
 25 26  1  0  0  0  0
 26 27  2  0  0  0  0
 26 58  1  0  0  0  0
 27 28  1  0  0  0  0
M  CHG  1  18   1
M  END
> <s_m_source_file>
AV-unprocessed.smi

> <i_m_source_file_index>
290

> <i_lp_mmshare_version>
43012

> <i_f3d_flags>
0

> <s_epik_input>
W0NIMl0xW0NIMl1PW0NAQEhdKFtDSDNdKVtDQEBdMShbT0hdKVtDSDJdbihbY0hdbjIpYyhjMjMpbltjSF1uYzNONFtDSDJdW0NIMl1bQ0BIXShbQ0BIXTRbQ0gzXSlOKFtDSDNdKVtDSDJdW0NIMl1bT0hd

> <s_epik_cmdline>
J2VwaWtfcHl0aG9uJywgJy1waCcsICc3LjAnLCAnLXRuJywgJzgnLCAnLW1hJywgJzIwMCcsICctbWV0YWxfYmluZGluZycsICctaW1hZScsICc8aW5maWxlLm1hZT4nLCAnLW9tYWUnLCAnPG91dGZpbGUubWFlPic=

> <r_lp_tautomer_probability>
1

> <r_epik_Ionization_Penalty>
0.0036983

> <r_epik_Ionization_Penalty_Charging>
0.0032725

> <r_epik_Ionization_Penalty_Neutral>
0.000425798

> <r_epik_State_Penalty>
-0

> <r_epik_Charging_Adjusted_Penalty>
0.0032725

> <i_epik_Tot_Q>
1

> <i_epik_Tot_abs_Q>
1

> <r_epik_Metal_State_Penalty>
-0

> <b_epik_Metal_Only>
0

> <s_lp_Force_Field>
OPLS_2005

> <r_lp_Energy>
64.3392

> <b_lp_Chiralities_Consistent>
1

> <s_lp_Variant>
AV-unprocessed.smi:290-18

> <Gold.Version>
5.8.1

> <Gold.Id.Protein>
6NUR|6NUR_protein|mol2

> <Gold.PLP.Fitness>
58.3983

> <Gold.PLP.PLP>
-44.7842

> <Gold.PLP.part.hbond>
-4.5313

> <Gold.PLP.part.metal>
0.0000

> <Gold.PLP.part.buried>
-7.0933

> <Gold.PLP.part.nonpolar>
-33.9459

> <Gold.PLP.part.repulsive>
0.2754

> <Gold.PLP.ligand.clash>
0.0000

> <Gold.PLP.ligand.torsion>
0.8385

> <Gold.PLP.Chemscore.Hbond>
5.0000

> <Gold.PLP.Chemscore.CHOScore>
0.0000

> <Gold.PLP.Chemscore.Metal>
0.0000

> <Gold.Chemscore.Hbonds>
donor molecule, donor type, donor heavy atom, donor atom, acceptor molecule, acceptor atom, score
      L1  H     7    39       P1  8028  0.02
      L1  H    18    59       P1  7948  2.00
      L1  H    22    54       P1 10747  1.00
      P1  H  7989  7998       L1    27  0.29

> <Gold.PLP.Chemscore.Internal.Correction>
0.2912

> <Gold.Rescore>
     Score         DG    S(hbond)    S(metal)    S(lipo)     H(rot)  DE(clash)    DE(int)     intcor
     14.16     -16.23       2.72        0.00      94.59       3.67       0.25       1.83       ----

> <Gold.Chemscore.Fitness>
14.1595

> <Gold.Chemscore.DG>
-16.2333

> <Gold.Chemscore.ZeroCoef>
-5.4800

> <Gold.Chemscore.Hbond>
2.7156

> <Gold.Chemscore.Metal>
0.0000

> <Gold.Chemscore.Lipo>
94.5949

> <Gold.Chemscore.Internal_Hbond>
0.0000

> <Gold.Chemscore.DEClash>
0.2458

> <Gold.Chemscore.DEInternal>
1.8279

> <Gold.Chemscore.Rot>
3.6658

> <Gold.Chemscore.Internal.Correction>
   9.000000E+99

> <Gold.Chemscore.Hbonds>
donor molecule, donor type, donor heavy atom, donor atom, acceptor molecule, acceptor atom, score
      L1  H    18    59       P1  7948  0.37
      L1  H    22    54       P1 10747  0.93
      P1  H  7989  7998       L1    27  0.01

> <Gold.Chemscore.Hbond.Weighted>
-9.0701

> <Gold.Chemscore.Metal.Weighted>
-0.0000

> <Gold.Chemscore.Lipo.Weighted>
-11.0676

> <Gold.Chemscore.Internal_Hbond.Weighted>
0.0000

> <Gold.Chemscore.DEClash.Weighted>
0.2458

> <Gold.Chemscore.DEInternal.Weighted>
1.8279

> <Gold.Chemscore.Rot.Weighted>
9.3844

> <Gold.Chemscore.Internal.Correction.Weighted>
   9.000000E+99

> <Gold.Protein.RotatedTorsions>
[ 6907 6896 6895 6894 ] final  157.44 input  -60.11 | X-H torsion
[ 7974 7965 7964 7962 ] final -121.80 input  175.53 | X-H torsion
[ 8008 7997 7996 7995 ] final   16.76 input   59.86 | X-H torsion
[ 10167 10162 10161 10158 ] final -101.68 input  -65.29 | X-H torsion
[ 10718 10713 10712 10709 ] final -113.84 input   66.30 | X-H torsion
[ 10763 10752 10751 10750 ] final   87.50 input  -60.55 | X-H torsion
[ 11005 11000 10999 10996 ] final   83.93 input  -57.11 | X-H torsion

> <Gold.Protein.ActiveResidues>
 VAL166  LYS551  ARG553  GLY616  TRP617  ASP618  TYR619  PRO620  LYS621  CYS622 
 ASP623  PHE694  ASN695  SER759  ASP760  ASP761  ALA762  ILE779  LEU786  VAL792 
 PHE793  MET794  SER795  GLU796  ALA797  LYS798  CYS799  TRP800  GLU811  SER814 

> <Gold.Protein.RotatedAtoms>
  152.0150  133.3876  159.4234 H   0  0  0  0  0  0  0  0  0  0  0  0  # atno 6907 bound_to 6896
  150.6895  134.3688  159.4992 H   0  0  0  0  0  0  0  0  0  0  0  0  # atno 6908 bound_to 6896
  152.1454  134.9029  160.0602 H   0  0  0  0  0  0  0  0  0  0  0  0  # atno 6909 bound_to 6896
  145.0364  140.8109  143.4293 H   0  0  0  0  0  0  0  0  0  0  0  0  # atno 7974 bound_to 7965
  154.8816  140.2974  155.5422 H   0  0  0  0  0  0  0  0  0  0  0  0  # atno 8008 bound_to 7997
  156.3022  140.2441  156.3753 H   0  0  0  0  0  0  0  0  0  0  0  0  # atno 8009 bound_to 7997
  154.8711  140.0401  157.1714 H   0  0  0  0  0  0  0  0  0  0  0  0  # atno 8010 bound_to 7997
  140.2388  143.3554  152.0821 H   0  0  0  0  0  0  0  0  0  0  0  0  # atno 10167 bound_to 10162
  156.0792  130.5994  150.8695 H   0  0  0  0  0  0  0  0  0  0  0  0  # atno 10718 bound_to 10713
  153.1675  135.4541  154.9857 H   0  0  0  0  0  0  0  0  0  0  0  0  # atno 10763 bound_to 10752
  154.7942  135.3231  154.7708 H   0  0  0  0  0  0  0  0  0  0  0  0  # atno 10764 bound_to 10752
  153.8189  135.6948  153.4884 H   0  0  0  0  0  0  0  0  0  0  0  0  # atno 10765 bound_to 10752
  139.9016  134.8180  156.2376 H   0  0  0  0  0  0  0  0  0  0  0  0  # atno 11005 bound_to 11000
  145.1704  139.2407  143.5345 LP  0  0  0  0  0  0  0  0  0  0  0  0  # atno 17320 bound_to 7965
  146.3504  140.1454  142.8593 LP  0  0  0  0  0  0  0  0  0  0  0  0  # atno 17321 bound_to 7965
  139.5084  144.6850  151.5911 LP  0  0  0  0  0  0  0  0  0  0  0  0  # atno 17342 bound_to 10162
  140.6130  143.9401  150.6467 LP  0  0  0  0  0  0  0  0  0  0  0  0  # atno 17343 bound_to 10162
  157.5901  131.0944  150.9132 LP  0  0  0  0  0  0  0  0  0  0  0  0  # atno 17370 bound_to 10713
  156.9310  130.5350  149.5279 LP  0  0  0  0  0  0  0  0  0  0  0  0  # atno 17371 bound_to 10713
  141.0305  133.6991  156.1423 LP  0  0  0  0  0  0  0  0  0  0  0  0  # atno 17394 bound_to 11000
  140.7102  134.4469  157.5582 LP  0  0  0  0  0  0  0  0  0  0  0  0  # atno 17395 bound_to 11000

$$$$
