AV-unprocessed.smi:693|AV-procd|sdf|3374|dock7
  -GOLD-   22720 0353D 1   1.00000     0.00000
 Structure written by MMmdl.
 47 48  0  0  0  0  0  0  0  0  2 V2000
  153.4383  143.1152  163.1869 C   0  0  0  0  0  0  0  0  0  0  0  0
  152.9260  142.6386  161.8444 C   0  0  0  0  0  0  0  0  0  0  0  0
  153.3758  141.4408  161.2485 C   0  0  0  0  0  0  0  0  0  0  0  0
  152.8574  141.0591  159.9936 C   0  0  0  0  0  0  0  0  0  0  0  0
  151.9014  141.8827  159.3594 C   0  0  0  0  0  0  0  0  0  0  0  0
  151.3234  141.5012  158.0110 C   0  0  0  0  0  0  0  0  0  0  0  0
  151.0156  142.7324  157.1428 C   0  0  0  0  0  0  0  0  0  0  0  0
  149.9955  142.4415  156.1427 N   0  0  0  0  0  0  0  0  0  0  0  0
  150.0077  141.3937  155.3009 C   0  0  0  0  0  0  0  0  0  0  0  0
  150.9261  140.5722  155.2957 O   0  0  0  0  0  0  0  0  0  0  0  0
  148.9482  141.3322  154.4545 N   0  0  0  0  0  0  0  0  0  0  0  0
  147.8587  142.3166  154.3535 C   0  0  0  0  0  0  0  0  0  0  0  0
  146.6131  141.7306  155.0375 C   0  0  0  0  0  0  0  0  0  0  0  0
  146.2251  140.3779  154.4105 C   0  0  0  0  0  0  0  0  0  0  0  0
  147.4262  139.4016  154.3170 C   0  0  1  0  0  0  0  0  0  0  0  0
  147.1015  138.1032  153.5426 C   0  0  0  0  0  0  0  0  0  0  0  0
  146.2707  138.3259  152.2743 C   0  0  0  0  0  0  0  0  0  0  0  0
  144.9455  138.3984  152.4215 N   0  0  0  0  0  0  0  0  0  0  0  0
  146.8115  138.4086  151.1737 O   0  0  0  0  0  0  0  0  0  0  0  0
  148.6381  140.1220  153.6827 C   0  0  0  0  0  0  0  0  0  0  0  0
  151.4887  143.0688  160.0033 C   0  0  0  0  0  0  0  0  0  0  0  0
  152.0089  143.3994  161.2056 N   0  3  0  0  0  0  0  0  0  0  0  0
  154.0028  142.3302  163.6912 H   0  0  0  0  0  0  0  0  0  0  0  0
  152.6097  143.4053  163.8337 H   0  0  0  0  0  0  0  0  0  0  0  0
  154.0931  143.9770  163.0569 H   0  0  0  0  0  0  0  0  0  0  0  0
  154.1090  140.8209  161.7440 H   0  0  0  0  0  0  0  0  0  0  0  0
  153.1913  140.1444  159.5257 H   0  0  0  0  0  0  0  0  0  0  0  0
  152.0323  140.8463  157.5026 H   0  0  0  0  0  0  0  0  0  0  0  0
  150.4169  140.9132  158.1618 H   0  0  0  0  0  0  0  0  0  0  0  0
  150.6503  143.5470  157.7685 H   0  0  0  0  0  0  0  0  0  0  0  0
  151.9215  143.0965  156.6550 H   0  0  0  0  0  0  0  0  0  0  0  0
  149.2172  143.0819  156.0843 H   0  0  0  0  0  0  0  0  0  0  0  0
  148.0960  143.2895  154.7835 H   0  0  0  0  0  0  0  0  0  0  0  0
  147.6471  142.5124  153.3012 H   0  0  0  0  0  0  0  0  0  0  0  0
  146.8105  141.5977  156.1021 H   0  0  0  0  0  0  0  0  0  0  0  0
  145.7790  142.4285  154.9617 H   0  0  0  0  0  0  0  0  0  0  0  0
  145.4130  139.9406  154.9905 H   0  0  0  0  0  0  0  0  0  0  0  0
  145.8279  140.5544  153.4100 H   0  0  0  0  0  0  0  0  0  0  0  0
  147.7104  139.1229  155.3335 H   0  0  0  0  0  0  0  0  0  0  0  0
  148.0257  137.5937  153.2671 H   0  0  0  0  0  0  0  0  0  0  0  0
  146.5630  137.4132  154.1940 H   0  0  0  0  0  0  0  0  0  0  0  0
  144.3554  138.5434  151.6152 H   0  0  0  0  0  0  0  0  0  0  0  0
  144.5379  138.3069  153.3407 H   0  0  0  0  0  0  0  0  0  0  0  0
  148.4142  140.3988  152.6513 H   0  0  0  0  0  0  0  0  0  0  0  0
  149.4912  139.4444  153.6220 H   0  0  0  0  0  0  0  0  0  0  0  0
  150.7625  143.7577  159.5964 H   0  0  0  0  0  0  0  0  0  0  0  0
  151.6955  144.2622  161.6513 H   0  0  0  0  0  0  0  0  0  0  0  0
  1  2  1  0  0  0  0
  1 23  1  0  0  0  0
  1 24  1  0  0  0  0
  1 25  1  0  0  0  0
  2 22  1  0  0  0  0
  2  3  2  0  0  0  0
  3  4  1  0  0  0  0
  3 26  1  0  0  0  0
  4  5  2  0  0  0  0
  4 27  1  0  0  0  0
  5  6  1  0  0  0  0
  5 21  1  0  0  0  0
  6  7  1  0  0  0  0
  6 28  1  0  0  0  0
  6 29  1  0  0  0  0
  7  8  1  0  0  0  0
  7 30  1  0  0  0  0
  7 31  1  0  0  0  0
  8  9  1  0  0  0  0
  8 32  1  0  0  0  0
  9 10  2  0  0  0  0
  9 11  1  0  0  0  0
 11 20  1  0  0  0  0
 11 12  1  0  0  0  0
 12 13  1  0  0  0  0
 12 33  1  0  0  0  0
 12 34  1  0  0  0  0
 13 14  1  0  0  0  0
 13 35  1  0  0  0  0
 13 36  1  0  0  0  0
 14 15  1  0  0  0  0
 14 37  1  0  0  0  0
 14 38  1  0  0  0  0
 15 16  1  0  0  0  0
 15 20  1  0  0  0  0
 15 39  1  0  0  0  0
 16 17  1  0  0  0  0
 16 40  1  0  0  0  0
 16 41  1  0  0  0  0
 17 18  1  0  0  0  0
 17 19  2  0  0  0  0
 18 42  1  0  0  0  0
 18 43  1  0  0  0  0
 20 44  1  0  0  0  0
 20 45  1  0  0  0  0
 21 22  2  0  0  0  0
 21 46  1  0  0  0  0
 22 47  1  0  0  0  0
M  CHG  1  22   1
M  END
> <s_m_source_file>
AV-unprocessed.smi

> <i_m_source_file_index>
693

> <i_lp_mmshare_version>
43012

> <i_f3d_flags>
0

> <s_epik_input>
W0NIM11jMVtjSF1bY0hdYyhbY0hdbjEpW0NIMl1bQ0gyXVtOSF1DKD1PKU4yW0NIMl1bQ0gyXVtDSDJdW0NASF0oW0NIMl0yKVtDSDJdQyg9TylbTkgyXQ==

> <s_epik_cmdline>
J2VwaWtfcHl0aG9uJywgJy1waCcsICc3LjAnLCAnLXRuJywgJzgnLCAnLW1hJywgJzIwMCcsICctbWV0YWxfYmluZGluZycsICctaW1hZScsICc8aW5maWxlLm1hZT4nLCAnLW9tYWUnLCAnPG91dGZpbGUubWFlPic=

> <r_epik_Ionization_Penalty>
1.41666

> <r_epik_Ionization_Penalty_Charging>
1.4166

> <r_epik_Ionization_Penalty_Neutral>
5.77403e-05

> <r_epik_State_Penalty>
1.50002

> <r_epik_Charging_Adjusted_Penalty>
2.91662

> <i_epik_Tot_Q>
1

> <i_epik_Tot_abs_Q>
1

> <r_epik_Metal_State_Penalty>
1.55252

> <b_epik_Metal_Only>
0

> <s_lp_Force_Field>
OPLS_2005

> <r_lp_Energy>
32.8943

> <b_lp_Chiralities_Consistent>
1

> <s_lp_Variant>
AV-unprocessed.smi:693-3

> <Gold.Version>
5.8.1

> <Gold.Id.Protein>
6NUR|6NUR_protein|mol2

> <Gold.PLP.Fitness>
51.8055

> <Gold.PLP.PLP>
-42.6703

> <Gold.PLP.part.hbond>
-4.5937

> <Gold.PLP.part.metal>
0.0000

> <Gold.PLP.part.buried>
0.1165

> <Gold.PLP.part.nonpolar>
-39.6873

> <Gold.PLP.part.repulsive>
0.8475

> <Gold.PLP.ligand.clash>
0.0000

> <Gold.PLP.ligand.torsion>
1.1054

> <Gold.PLP.Chemscore.Hbond>
3.7600

> <Gold.PLP.Chemscore.CHOScore>
0.0000

> <Gold.PLP.Chemscore.Metal>
0.0000

> <Gold.Chemscore.Hbonds>
donor molecule, donor type, donor heavy atom, donor atom, acceptor molecule, acceptor atom, score
      L1  H     8    32       P1  8028  0.80
      L1  H    18    42       P1 10171  1.00
      P1  H  7954  7966       L1    19  1.00
      P1  H  7989  7998       L1    10  0.94

> <Gold.PLP.Chemscore.Internal.Correction>
0.0659

> <Gold.Rescore>
     Score         DG    S(hbond)    S(metal)    S(lipo)     H(rot)  DE(clash)    DE(int)     intcor
     18.37     -22.72       3.12        0.00     109.50       2.34       2.39       1.96       ----

> <Gold.Chemscore.Fitness>
18.3742

> <Gold.Chemscore.DG>
-22.7208

> <Gold.Chemscore.ZeroCoef>
-5.4800

> <Gold.Chemscore.Hbond>
3.1161

> <Gold.Chemscore.Metal>
0.0000

> <Gold.Chemscore.Lipo>
109.5016

> <Gold.Chemscore.Internal_Hbond>
0.0000

> <Gold.Chemscore.DEClash>
2.3863

> <Gold.Chemscore.DEInternal>
1.9604

> <Gold.Chemscore.Rot>
2.3354

> <Gold.Chemscore.Internal.Correction>
   9.000000E+99

> <Gold.Chemscore.Hbonds>
donor molecule, donor type, donor heavy atom, donor atom, acceptor molecule, acceptor atom, score
      L1  H     8    32       P1  8028  0.80
      L1  H    18    42       P1 10171  0.99
      P1  H  7954  7966       L1    19  0.98
      P1  H  7989  7998       L1    10  0.23

> <Gold.Chemscore.Hbond.Weighted>
-10.4076

> <Gold.Chemscore.Metal.Weighted>
-0.0000

> <Gold.Chemscore.Lipo.Weighted>
-12.8117

> <Gold.Chemscore.Internal_Hbond.Weighted>
0.0000

> <Gold.Chemscore.DEClash.Weighted>
2.3863

> <Gold.Chemscore.DEInternal.Weighted>
1.9604

> <Gold.Chemscore.Rot.Weighted>
5.9785

> <Gold.Chemscore.Internal.Correction.Weighted>
   9.000000E+99

> <Gold.Protein.RotatedTorsions>
[ 6907 6896 6895 6894 ] final -136.61 input  -60.11 | X-H torsion
[ 7974 7965 7964 7962 ] final   94.63 input  175.53 | X-H torsion
[ 8008 7997 7996 7995 ] final  126.76 input   59.86 | X-H torsion
[ 10167 10162 10161 10158 ] final   60.82 input  -65.29 | X-H torsion
[ 10718 10713 10712 10709 ] final  -70.81 input   66.30 | X-H torsion
[ 10763 10752 10751 10750 ] final   71.09 input  -60.55 | X-H torsion
[ 11005 11000 10999 10996 ] final  156.70 input  -57.11 | X-H torsion

> <Gold.Protein.ActiveResidues>
 VAL166  LYS551  ARG553  GLY616  TRP617  ASP618  TYR619  PRO620  LYS621  CYS622 
 ASP623  PHE694  ASN695  SER759  ASP760  ASP761  ALA762  ILE779  LEU786  VAL792 
 PHE793  MET794  SER795  GLU796  ALA797  LYS798  CYS799  TRP800  GLU811  SER814 

> <Gold.Protein.RotatedAtoms>
  151.0122  133.5954  159.2681 H   0  0  0  0  0  0  0  0  0  0  0  0  # atno 6907 bound_to 6896
  151.3102  135.0791  159.9279 H   0  0  0  0  0  0  0  0  0  0  0  0  # atno 6908 bound_to 6896
  152.5302  133.9788  159.7851 H   0  0  0  0  0  0  0  0  0  0  0  0  # atno 6909 bound_to 6896
  145.4630  139.2286  143.2977 H   0  0  0  0  0  0  0  0  0  0  0  0  # atno 7974 bound_to 7965
  156.2873  140.2685  156.2164 H   0  0  0  0  0  0  0  0  0  0  0  0  # atno 8008 bound_to 7997
  155.0213  140.0386  157.2456 H   0  0  0  0  0  0  0  0  0  0  0  0  # atno 8009 bound_to 7997
  154.7433  140.2729  155.6359 H   0  0  0  0  0  0  0  0  0  0  0  0  # atno 8010 bound_to 7997
  140.1615  144.4366  150.6707 H   0  0  0  0  0  0  0  0  0  0  0  0  # atno 10167 bound_to 10162
  156.0391  130.4339  150.2351 H   0  0  0  0  0  0  0  0  0  0  0  0  # atno 10718 bound_to 10713
  153.0378  135.5150  154.7540 H   0  0  0  0  0  0  0  0  0  0  0  0  # atno 10763 bound_to 10752
  154.6501  135.2924  154.9999 H   0  0  0  0  0  0  0  0  0  0  0  0  # atno 10764 bound_to 10752
  154.0886  135.6653  153.4901 H   0  0  0  0  0  0  0  0  0  0  0  0  # atno 10765 bound_to 10752
  140.1700  134.8550  157.2679 H   0  0  0  0  0  0  0  0  0  0  0  0  # atno 11005 bound_to 11000
  146.2440  140.5401  142.8922 LP  0  0  0  0  0  0  0  0  0  0  0  0  # atno 17320 bound_to 7965
  144.7991  140.6179  143.6490 LP  0  0  0  0  0  0  0  0  0  0  0  0  # atno 17321 bound_to 7965
  140.6640  143.2261  151.5788 LP  0  0  0  0  0  0  0  0  0  0  0  0  # atno 17342 bound_to 10162
  139.5379  144.2729  152.1290 LP  0  0  0  0  0  0  0  0  0  0  0  0  # atno 17343 bound_to 10162
  157.0448  131.0045  151.3272 LP  0  0  0  0  0  0  0  0  0  0  0  0  # atno 17370 bound_to 10713
  157.5183  130.7982  149.7781 LP  0  0  0  0  0  0  0  0  0  0  0  0  # atno 17371 bound_to 10713
  140.2388  134.3820  155.7489 LP  0  0  0  0  0  0  0  0  0  0  0  0  # atno 17394 bound_to 11000
  141.2216  133.7254  156.8757 LP  0  0  0  0  0  0  0  0  0  0  0  0  # atno 17395 bound_to 11000

$$$$
