AV-unprocessed.smi:6|AV-procd|sdf|41|dock9
  -GOLD-   2262015153D 1   1.00000     0.00000
 Structure written by MMmdl.
 36 37  0  0  0  0  0  0  0  0  2 V2000
  152.5552  143.7086  160.4598 C   0  0  0  0  0  0  0  0  0  0  0  0
  152.9828  142.3500  159.8826 C   0  0  0  0  0  0  0  0  0  0  0  0
  154.5080  142.1921  159.7843 C   0  0  0  0  0  0  0  0  0  0  0  0
  152.2924  142.0500  158.5582 C   0  0  0  0  0  0  0  0  0  0  0  0
  151.4927  143.0014  158.0649 N   0  0  0  0  0  0  0  0  0  0  0  0
  150.8786  142.7347  156.8922 C   0  0  0  0  0  0  0  0  0  0  0  0
  151.0669  141.5133  156.2152 C   0  0  0  0  0  0  0  0  0  0  0  0
  151.9291  140.5794  156.8260 C   0  0  0  0  0  0  0  0  0  0  0  0
  152.1638  139.3485  156.1986 N   0  0  0  0  0  0  0  0  0  0  0  0
  151.0919  138.7154  155.4404 C   0  0  0  0  0  0  0  0  0  0  0  0
  151.0216  137.2110  155.6542 C   0  0  0  0  0  0  0  0  0  0  0  0
  150.8912  136.3445  154.6279 C   0  0  0  0  0  0  0  0  0  0  0  0
  150.8526  134.9537  154.8180 N   0  0  0  0  0  0  0  0  0  0  0  0
  150.6996  134.0954  153.6408 C   0  0  0  0  0  0  0  0  0  0  0  0
  150.9601  134.4292  156.0718 C   0  0  0  0  0  0  0  0  0  0  0  0
  150.9248  133.2056  156.2082 O   0  0  0  0  0  0  0  0  0  0  0  0
  151.1040  135.2839  157.1300 N   0  5  0  0  0  0  0  0  0  0  0  0
  151.1469  136.6426  157.0015 C   0  0  0  0  0  0  0  0  0  0  0  0
  151.2849  137.3893  157.9700 O   0  0  0  0  0  0  0  0  0  0  0  0
  152.5411  140.8593  158.0010 N   0  0  0  0  0  0  0  0  0  0  0  0
  151.4734  143.7570  160.5871 H   0  0  0  0  0  0  0  0  0  0  0  0
  152.8512  144.5303  159.8065 H   0  0  0  0  0  0  0  0  0  0  0  0
  153.0108  143.8807  161.4350 H   0  0  0  0  0  0  0  0  0  0  0  0
  152.6456  141.5980  160.5984 H   0  0  0  0  0  0  0  0  0  0  0  0
  154.7763  141.1923  159.4424 H   0  0  0  0  0  0  0  0  0  0  0  0
  154.9820  142.3482  160.7537 H   0  0  0  0  0  0  0  0  0  0  0  0
  154.9389  142.9103  159.0858 H   0  0  0  0  0  0  0  0  0  0  0  0
  150.2332  143.5015  156.4900 H   0  0  0  0  0  0  0  0  0  0  0  0
  150.5739  141.3066  155.2768 H   0  0  0  0  0  0  0  0  0  0  0  0
  153.1104  139.1476  155.9088 H   0  0  0  0  0  0  0  0  0  0  0  0
  150.1360  139.1529  155.7313 H   0  0  0  0  0  0  0  0  0  0  0  0
  151.2269  138.9219  154.3779 H   0  0  0  0  0  0  0  0  0  0  0  0
  150.8090  136.6664  153.6002 H   0  0  0  0  0  0  0  0  0  0  0  0
  149.7988  133.4862  153.7272 H   0  0  0  0  0  0  0  0  0  0  0  0
  151.5552  133.4256  153.5432 H   0  0  0  0  0  0  0  0  0  0  0  0
  150.6215  134.6640  152.7137 H   0  0  0  0  0  0  0  0  0  0  0  0
  1  2  1  0  0  0  0
  1 21  1  0  0  0  0
  1 22  1  0  0  0  0
  1 23  1  0  0  0  0
  2  3  1  0  0  0  0
  2  4  1  0  0  0  0
  2 24  1  0  0  0  0
  3 25  1  0  0  0  0
  3 26  1  0  0  0  0
  3 27  1  0  0  0  0
  4 20  1  0  0  0  0
  4  5  2  0  0  0  0
  5  6  1  0  0  0  0
  6  7  2  0  0  0  0
  6 28  1  0  0  0  0
  7  8  1  0  0  0  0
  7 29  1  0  0  0  0
  8  9  1  0  0  0  0
  8 20  2  0  0  0  0
  9 10  1  0  0  0  0
  9 30  1  0  0  0  0
 10 11  1  0  0  0  0
 10 31  1  0  0  0  0
 10 32  1  0  0  0  0
 11 18  1  0  0  0  0
 11 12  2  0  0  0  0
 12 13  1  0  0  0  0
 12 33  1  0  0  0  0
 13 14  1  0  0  0  0
 13 15  1  0  0  0  0
 14 34  1  0  0  0  0
 14 35  1  0  0  0  0
 14 36  1  0  0  0  0
 15 16  2  0  0  0  0
 15 17  1  0  0  0  0
 17 18  1  0  0  0  0
 18 19  2  0  0  0  0
M  CHG  1  17  -1
M  END
> <s_m_source_file>
AV-unprocessed.smi

> <i_m_source_file_index>
6

> <i_lp_mmshare_version>
43012

> <i_f3d_flags>
0

> <s_epik_input>
W0NIM11bQ0hdKFtDSDNdKWMxbltjSF1bY0hdYyhuMSlbTkhdW0NIMl1jMltjSF1uKFtDSDNdKWMoPU8pW25IXWMyPU8=

> <s_epik_cmdline>
J2VwaWtfcHl0aG9uJywgJy1waCcsICc3LjAnLCAnLXRuJywgJzgnLCAnLW1hJywgJzIwMCcsICctbWV0YWxfYmluZGluZycsICctaW1hZScsICc8aW5maWxlLm1hZT4nLCAnLW9tYWUnLCAnPG91dGZpbGUubWFlPic=

> <r_lp_tautomer_probability>
0.999537

> <r_epik_Ionization_Penalty>
4.10508

> <r_epik_Ionization_Penalty_Charging>
6.01221e-07

> <r_epik_Ionization_Penalty_Neutral>
4.10508

> <r_epik_State_Penalty>
4.24889

> <r_epik_Charging_Adjusted_Penalty>
4.24889

> <i_epik_Tot_Q>
-1

> <i_epik_Tot_abs_Q>
1

> <r_epik_Metal_State_Penalty>
1.04429

> <b_epik_Metal_Only>
1

> <s_lp_Force_Field>
OPLS_2005

> <r_lp_Energy>
13.2658

> <b_lp_Chiralities_Consistent>
1

> <s_lp_Variant>
AV-unprocessed.smi:6-3

> <Gold.Version>
5.8.1

> <Gold.Id.Protein>
6NUR|6NUR_protein|mol2

> <Gold.PLP.Fitness>
41.1691

> <Gold.PLP.PLP>
-30.7945

> <Gold.PLP.part.hbond>
-1.0000

> <Gold.PLP.part.metal>
0.0000

> <Gold.PLP.part.buried>
-5.7110

> <Gold.PLP.part.nonpolar>
-25.3536

> <Gold.PLP.part.repulsive>
0.1199

> <Gold.PLP.ligand.clash>
0.0000

> <Gold.PLP.ligand.torsion>
0.5836

> <Gold.PLP.Chemscore.Hbond>
1.8880

> <Gold.PLP.Chemscore.CHOScore>
1.9331

> <Gold.PLP.Chemscore.Metal>
0.0000

> <Gold.Chemscore.Hbonds>
donor molecule, donor type, donor heavy atom, donor atom, acceptor molecule, acceptor atom, score
      L1  C     6    28       P1  8028  0.90
      L1  C    12    33       P1  7948  0.16
      L1  C    12    33       P1  7949  0.79

> <Gold.PLP.Chemscore.Internal.Correction>
0.0786

> <Gold.Rescore>
     Score         DG    S(hbond)    S(metal)    S(lipo)     H(rot)  DE(clash)    DE(int)     intcor
      9.42     -11.27       0.62        0.00      67.32       1.62       0.01       1.85       ----

> <Gold.Chemscore.Fitness>
9.4153

> <Gold.Chemscore.DG>
-11.2723

> <Gold.Chemscore.ZeroCoef>
-5.4800

> <Gold.Chemscore.Hbond>
0.6173

> <Gold.Chemscore.Metal>
0.0000

> <Gold.Chemscore.Lipo>
67.3230

> <Gold.Chemscore.Internal_Hbond>
0.0000

> <Gold.Chemscore.DEClash>
0.0069

> <Gold.Chemscore.DEInternal>
1.8501

> <Gold.Chemscore.Rot>
1.6196

> <Gold.Chemscore.Internal.Correction>
   9.000000E+99

> <Gold.Chemscore.Hbond.Weighted>
-2.0618

> <Gold.Chemscore.Metal.Weighted>
-0.0000

> <Gold.Chemscore.Lipo.Weighted>
-7.8768

> <Gold.Chemscore.Internal_Hbond.Weighted>
0.0000

> <Gold.Chemscore.DEClash.Weighted>
0.0069

> <Gold.Chemscore.DEInternal.Weighted>
1.8501

> <Gold.Chemscore.Rot.Weighted>
4.1463

> <Gold.Chemscore.Internal.Correction.Weighted>
   9.000000E+99

> <Gold.Protein.RotatedTorsions>
[ 6907 6896 6895 6894 ] final   35.56 input  -60.11 | X-H torsion
[ 7974 7965 7964 7962 ] final   33.03 input  175.53 | X-H torsion
[ 8008 7997 7996 7995 ] final   27.30 input   59.86 | X-H torsion
[ 10167 10162 10161 10158 ] final  172.16 input  -65.29 | X-H torsion
[ 10718 10713 10712 10709 ] final  148.56 input   66.30 | X-H torsion
[ 10763 10752 10751 10750 ] final  120.35 input  -60.55 | X-H torsion
[ 11005 11000 10999 10996 ] final -102.43 input  -57.11 | X-H torsion

> <Gold.Protein.ActiveResidues>
 VAL166  LYS551  ARG553  GLY616  TRP617  ASP618  TYR619  PRO620  LYS621  CYS622 
 ASP623  PHE694  ASN695  SER759  ASP760  ASP761  ALA762  ILE779  LEU786  VAL792 
 PHE793  MET794  SER795  GLU796  ALA797  LYS798  CYS799  TRP800  GLU811  SER814 

> <Gold.Protein.RotatedAtoms>
  152.1178  134.9228  160.0564 H   0  0  0  0  0  0  0  0  0  0  0  0  # atno 6907 bound_to 6896
  152.0380  133.3960  159.4333 H   0  0  0  0  0  0  0  0  0  0  0  0  # atno 6908 bound_to 6896
  150.6847  134.3367  159.4894 H   0  0  0  0  0  0  0  0  0  0  0  0  # atno 6909 bound_to 6896
  146.1448  139.6450  142.9139 H   0  0  0  0  0  0  0  0  0  0  0  0  # atno 7974 bound_to 7965
  155.0407  140.3169  155.4725 H   0  0  0  0  0  0  0  0  0  0  0  0  # atno 8008 bound_to 7997
  156.2855  140.2163  156.5474 H   0  0  0  0  0  0  0  0  0  0  0  0  # atno 8009 bound_to 7997
  154.7292  140.0483  157.0699 H   0  0  0  0  0  0  0  0  0  0  0  0  # atno 8010 bound_to 7997
  139.5068  144.3405  152.0023 H   0  0  0  0  0  0  0  0  0  0  0  0  # atno 10167 bound_to 10162
  157.3071  131.0881  151.1345 H   0  0  0  0  0  0  0  0  0  0  0  0  # atno 10718 bound_to 10713
  153.5971  135.3455  155.2932 H   0  0  0  0  0  0  0  0  0  0  0  0  # atno 10763 bound_to 10752
  154.8642  135.4218  154.2453 H   0  0  0  0  0  0  0  0  0  0  0  0  # atno 10764 bound_to 10752
  153.3273  135.7042  153.7049 H   0  0  0  0  0  0  0  0  0  0  0  0  # atno 10765 bound_to 10752
  141.1189  133.8558  157.1358 H   0  0  0  0  0  0  0  0  0  0  0  0  # atno 11005 bound_to 11000
  145.4964  141.0438  143.2565 LP  0  0  0  0  0  0  0  0  0  0  0  0  # atno 17320 bound_to 7965
  144.7833  139.6479  143.7145 LP  0  0  0  0  0  0  0  0  0  0  0  0  # atno 17321 bound_to 7965
  140.2843  144.3825  150.6109 LP  0  0  0  0  0  0  0  0  0  0  0  0  # atno 17342 bound_to 10162
  140.5995  143.2167  151.7100 LP  0  0  0  0  0  0  0  0  0  0  0  0  # atno 17343 bound_to 10162
  157.2681  130.6691  149.6006 LP  0  0  0  0  0  0  0  0  0  0  0  0  # atno 17370 bound_to 10713
  155.9675  130.4487  150.5631 LP  0  0  0  0  0  0  0  0  0  0  0  0  # atno 17371 bound_to 10713
  140.0132  134.9979  157.0438 LP  0  0  0  0  0  0  0  0  0  0  0  0  # atno 17394 bound_to 11000
  140.4564  134.1529  155.7186 LP  0  0  0  0  0  0  0  0  0  0  0  0  # atno 17395 bound_to 11000

$$$$
