AV-unprocessed.smi:3147|AV-procd|sdf|11987|dock1
  -GOLD-   2272017393D 1   1.00000     0.00000
 Structure written by MMmdl.
 37 38  0  0  0  0  0  0  0  0  2 V2000
  151.3188  142.5745  156.9942 C   0  0  0  0  0  0  0  0  0  0  0  0
  150.5634  141.7063  156.0450 C   0  0  0  0  0  0  0  0  0  0  0  0
  149.5049  142.1721  155.3104 N   0  3  0  0  0  0  0  0  0  0  0  0
  149.0089  141.2050  154.5371 C   0  0  0  0  0  0  0  0  0  0  0  0
  149.7434  140.1111  154.7675 N   0  0  0  0  0  0  0  0  0  0  0  0
  149.4805  138.8400  154.0748 C   0  0  0  0  0  0  0  0  0  0  0  0
  149.2222  137.6819  155.0449 C   0  0  0  0  0  0  0  0  0  0  0  0
  149.4080  137.8198  156.2547 O   0  0  0  0  0  0  0  0  0  0  0  0
  148.7864  136.5408  154.4910 N   0  0  0  0  0  0  0  0  0  0  0  0
  148.4314  135.3295  155.2247 C   0  0  0  0  0  0  0  0  0  0  0  0
  149.1573  134.0805  154.6902 C   0  0  2  0  0  0  0  0  0  0  0  0
  148.5080  133.3954  153.4874 C   0  0  0  0  0  0  0  0  0  0  0  0
  149.1526  132.0289  153.5480 C   0  0  0  0  0  0  0  0  0  0  0  0
  149.2439  131.7768  155.0528 C   0  0  0  0  0  0  0  0  0  0  0  0
  149.2493  133.0592  155.6783 O   0  0  0  0  0  0  0  0  0  0  0  0
  150.7212  140.3843  155.6984 C   0  0  0  0  0  0  0  0  0  0  0  0
  151.7148  139.3685  156.1602 C   0  0  0  0  0  0  0  0  0  0  0  0
  151.5309  142.0313  157.9155 H   0  0  0  0  0  0  0  0  0  0  0  0
  150.7434  143.4665  157.2440 H   0  0  0  0  0  0  0  0  0  0  0  0
  152.2637  142.8835  156.5467 H   0  0  0  0  0  0  0  0  0  0  0  0
  148.1800  141.2930  153.8573 H   0  0  0  0  0  0  0  0  0  0  0  0
  148.6222  138.9844  153.4175 H   0  0  0  0  0  0  0  0  0  0  0  0
  150.3359  138.5998  153.4418 H   0  0  0  0  0  0  0  0  0  0  0  0
  148.6659  136.5147  153.4887 H   0  0  0  0  0  0  0  0  0  0  0  0
  148.7013  135.4839  156.2695 H   0  0  0  0  0  0  0  0  0  0  0  0
  147.3520  135.1707  155.2120 H   0  0  0  0  0  0  0  0  0  0  0  0
  150.1785  134.3565  154.4220 H   0  0  0  0  0  0  0  0  0  0  0  0
  147.4295  133.2985  153.6155 H   0  0  0  0  0  0  0  0  0  0  0  0
  148.6968  133.9158  152.5481 H   0  0  0  0  0  0  0  0  0  0  0  0
  148.5853  131.2618  153.0203 H   0  0  0  0  0  0  0  0  0  0  0  0
  150.1529  132.0713  153.1143 H   0  0  0  0  0  0  0  0  0  0  0  0
  148.3722  131.2235  155.4022 H   0  0  0  0  0  0  0  0  0  0  0  0
  150.1341  131.2056  155.3171 H   0  0  0  0  0  0  0  0  0  0  0  0
  152.3239  139.7698  156.9701 H   0  0  0  0  0  0  0  0  0  0  0  0
  152.3750  139.0911  155.3386 H   0  0  0  0  0  0  0  0  0  0  0  0
  151.2081  138.4738  156.5222 H   0  0  0  0  0  0  0  0  0  0  0  0
  149.1482  143.1188  155.3442 H   0  0  0  0  0  0  0  0  0  0  0  0
  1  2  1  0  0  0  0
  1 18  1  0  0  0  0
  1 19  1  0  0  0  0
  1 20  1  0  0  0  0
  2 16  2  0  0  0  0
  2  3  1  0  0  0  0
  3  4  2  0  0  0  0
  3 37  1  0  0  0  0
  4  5  1  0  0  0  0
  4 21  1  0  0  0  0
  5  6  1  0  0  0  0
  5 16  1  0  0  0  0
  6  7  1  0  0  0  0
  6 22  1  0  0  0  0
  6 23  1  0  0  0  0
  7  8  2  0  0  0  0
  7  9  1  0  0  0  0
  9 10  1  0  0  0  0
  9 24  1  0  0  0  0
 10 11  1  0  0  0  0
 10 25  1  0  0  0  0
 10 26  1  0  0  0  0
 11 15  1  0  0  0  0
 11 12  1  0  0  0  0
 11 27  1  0  0  0  0
 12 13  1  0  0  0  0
 12 28  1  0  0  0  0
 12 29  1  0  0  0  0
 13 14  1  0  0  0  0
 13 30  1  0  0  0  0
 13 31  1  0  0  0  0
 14 15  1  0  0  0  0
 14 32  1  0  0  0  0
 14 33  1  0  0  0  0
 16 17  1  0  0  0  0
 17 34  1  0  0  0  0
 17 35  1  0  0  0  0
 17 36  1  0  0  0  0
M  CHG  1   3   1
M  END
> <s_m_source_file>
AV-unprocessed.smi

> <i_m_source_file_index>
3147

> <i_lp_mmshare_version>
43012

> <i_f3d_flags>
0

> <s_epik_input>
W0NIM11jMW5bY0hdbihjMVtDSDNdKVtDSDJdQyg9TylbTkhdW0NIMl1bQ0BASF0yW0NIMl1bQ0gyXVtDSDJdTzI=

> <s_epik_cmdline>
J2VwaWtfcHl0aG9uJywgJy1waCcsICc3LjAnLCAnLXRuJywgJzgnLCAnLW1hJywgJzIwMCcsICctbWV0YWxfYmluZGluZycsICctaW1hZScsICc8aW5maWxlLm1hZT4nLCAnLW9tYWUnLCAnPG91dGZpbGUubWFlPic=

> <r_lp_tautomer_probability>
1

> <r_epik_Ionization_Penalty>
0.131257

> <r_epik_Ionization_Penalty_Charging>
0

> <r_epik_Ionization_Penalty_Neutral>
0.131257

> <r_epik_State_Penalty>
0.12065

> <r_epik_Charging_Adjusted_Penalty>
0.12065

> <i_epik_Tot_Q>
1

> <i_epik_Tot_abs_Q>
1

> <r_epik_Metal_State_Penalty>
0.448684

> <b_epik_Metal_Only>
0

> <s_lp_Force_Field>
OPLS_2005

> <r_lp_Energy>
20.508

> <b_lp_Chiralities_Consistent>
1

> <s_lp_Variant>
AV-unprocessed.smi:3147-1

> <Gold.Version>
5.8.1

> <Gold.Id.Protein>
6NUR|6NUR_protein|mol2

> <Gold.PLP.Fitness>
39.1752

> <Gold.PLP.PLP>
-30.9134

> <Gold.PLP.part.hbond>
-2.0000

> <Gold.PLP.part.metal>
0.0000

> <Gold.PLP.part.buried>
-3.3309

> <Gold.PLP.part.nonpolar>
-25.7961

> <Gold.PLP.part.repulsive>
0.2096

> <Gold.PLP.ligand.clash>
0.0000

> <Gold.PLP.ligand.torsion>
0.3716

> <Gold.PLP.Chemscore.Hbond>
3.0000

> <Gold.PLP.Chemscore.CHOScore>
0.0000

> <Gold.PLP.Chemscore.Metal>
0.0000

> <Gold.Chemscore.Hbonds>
donor molecule, donor type, donor heavy atom, donor atom, acceptor molecule, acceptor atom, score
      L1  H     3    37       P1  8028  2.00
      L1  H     9    24       P1  7948  1.00

> <Gold.PLP.Chemscore.Internal.Correction>
0.0049

> <Gold.Rescore>
     Score         DG    S(hbond)    S(metal)    S(lipo)     H(rot)  DE(clash)    DE(int)     intcor
     14.49     -14.82       1.98        0.00      61.68       1.76       0.02       0.30       ----

> <Gold.Chemscore.Fitness>
14.4907

> <Gold.Chemscore.DG>
-14.8154

> <Gold.Chemscore.ZeroCoef>
-5.4800

> <Gold.Chemscore.Hbond>
1.9815

> <Gold.Chemscore.Metal>
0.0000

> <Gold.Chemscore.Lipo>
61.6848

> <Gold.Chemscore.Internal_Hbond>
0.0000

> <Gold.Chemscore.DEClash>
0.0217

> <Gold.Chemscore.DEInternal>
0.3030

> <Gold.Chemscore.Rot>
1.7577

> <Gold.Chemscore.Internal.Correction>
   9.000000E+99

> <Gold.Chemscore.Hbonds>
donor molecule, donor type, donor heavy atom, donor atom, acceptor molecule, acceptor atom, score
      L1  H     3    37       P1  8028  1.00
      L1  H     9    24       P1  7948  0.99

> <Gold.Chemscore.Hbond.Weighted>
-6.6181

> <Gold.Chemscore.Metal.Weighted>
-0.0000

> <Gold.Chemscore.Lipo.Weighted>
-7.2171

> <Gold.Chemscore.Internal_Hbond.Weighted>
0.0000

> <Gold.Chemscore.DEClash.Weighted>
0.0217

> <Gold.Chemscore.DEInternal.Weighted>
0.3030

> <Gold.Chemscore.Rot.Weighted>
4.4998

> <Gold.Chemscore.Internal.Correction.Weighted>
   9.000000E+99

> <Gold.Protein.RotatedTorsions>
[ 6907 6896 6895 6894 ] final   70.77 input  -60.11 | X-H torsion
[ 7974 7965 7964 7962 ] final  107.30 input  175.53 | X-H torsion
[ 8008 7997 7996 7995 ] final  166.82 input   59.86 | X-H torsion
[ 10167 10162 10161 10158 ] final   10.33 input  -65.29 | X-H torsion
[ 10718 10713 10712 10709 ] final -176.50 input   66.30 | X-H torsion
[ 10763 10752 10751 10750 ] final -123.02 input  -60.55 | X-H torsion
[ 11005 11000 10999 10996 ] final   22.12 input  -57.11 | X-H torsion

> <Gold.Protein.ActiveResidues>
 VAL166  LYS551  ARG553  GLY616  TRP617  ASP618  TYR619  PRO620  LYS621  CYS622 
 ASP623  PHE694  ASN695  SER759  ASP760  ASP761  ALA762  ILE779  LEU786  VAL792 
 PHE793  MET794  SER795  GLU796  ALA797  LYS798  CYS799  TRP800  GLU811  SER814 

> <Gold.Protein.RotatedAtoms>
  152.4769  134.4820  159.9668 H   0  0  0  0  0  0  0  0  0  0  0  0  # atno 6907 bound_to 6896
  151.4834  133.3535  159.2849 H   0  0  0  0  0  0  0  0  0  0  0  0  # atno 6908 bound_to 6896
  150.8814  134.8232  159.7289 H   0  0  0  0  0  0  0  0  0  0  0  0  # atno 6909 bound_to 6896
  145.2954  139.2586  143.3842 H   0  0  0  0  0  0  0  0  0  0  0  0  # atno 7974 bound_to 7965
  156.1686  140.1633  156.8487 H   0  0  0  0  0  0  0  0  0  0  0  0  # atno 8008 bound_to 7997
  154.5233  140.0773  156.8247 H   0  0  0  0  0  0  0  0  0  0  0  0  # atno 8009 bound_to 7997
  155.3559  140.3392  155.4242 H   0  0  0  0  0  0  0  0  0  0  0  0  # atno 8010 bound_to 7997
  140.6201  143.8223  150.7164 H   0  0  0  0  0  0  0  0  0  0  0  0  # atno 10167 bound_to 10162
  156.8156  130.9601  151.3114 H   0  0  0  0  0  0  0  0  0  0  0  0  # atno 10718 bound_to 10713
  154.8700  135.4113  154.2876 H   0  0  0  0  0  0  0  0  0  0  0  0  # atno 10763 bound_to 10752
  153.3757  135.7009  153.6609 H   0  0  0  0  0  0  0  0  0  0  0  0  # atno 10764 bound_to 10752
  153.5452  135.3640  155.2707 H   0  0  0  0  0  0  0  0  0  0  0  0  # atno 10765 bound_to 10752
  140.3840  134.1890  155.7663 H   0  0  0  0  0  0  0  0  0  0  0  0  # atno 11005 bound_to 11000
  146.3170  140.3456  142.8651 LP  0  0  0  0  0  0  0  0  0  0  0  0  # atno 17320 bound_to 7965
  144.9137  140.7788  143.5791 LP  0  0  0  0  0  0  0  0  0  0  0  0  # atno 17321 bound_to 7965
  140.1811  143.4114  152.1932 LP  0  0  0  0  0  0  0  0  0  0  0  0  # atno 17342 bound_to 10162
  139.5431  144.7274  151.4669 LP  0  0  0  0  0  0  0  0  0  0  0  0  # atno 17343 bound_to 10162
  157.6483  130.8863  149.9583 LP  0  0  0  0  0  0  0  0  0  0  0  0  # atno 17370 bound_to 10713
  156.1019  130.3655  150.0203 LP  0  0  0  0  0  0  0  0  0  0  0  0  # atno 17371 bound_to 10713
  141.1914  133.8197  157.0882 LP  0  0  0  0  0  0  0  0  0  0  0  0  # atno 17394 bound_to 11000
  140.0457  134.9832  157.1044 LP  0  0  0  0  0  0  0  0  0  0  0  0  # atno 17395 bound_to 11000

$$$$
