AV-unprocessed.smi:1701|AV-procd|sdf|6833|dock5
  -GOLD-   22720 8 13D 1   1.00000     0.00000
 Structure written by MMmdl.
 54 56  0  0  0  0  0  0  0  0  2 V2000
  152.0513  145.0892  158.9156 C   0  0  0  0  0  0  0  0  0  0  0  0
  151.6426  143.9702  157.9448 C   0  0  0  0  0  0  0  0  0  0  0  0
  151.6592  142.6446  158.5620 N   0  0  0  0  0  0  0  0  0  0  0  0
  152.8089  142.3163  159.4077 C   0  0  0  0  0  0  0  0  0  0  0  0
  152.6752  142.8547  160.8412 C   0  0  0  0  0  0  0  0  0  0  0  0
  151.0975  141.6251  157.7632 C   0  0  0  0  0  0  0  0  0  0  0  0
  150.9543  141.8222  156.3713 C   0  0  0  0  0  0  0  0  0  0  0  0
  150.4066  140.7902  155.5875 C   0  0  0  0  0  0  0  0  0  0  0  0
  150.0138  139.5873  156.2058 C   0  0  0  0  0  0  0  0  0  0  0  0
  149.4835  138.5638  155.3744 N   0  0  0  0  0  0  0  0  0  0  0  0
  148.7616  137.4763  155.7095 C   0  0  0  0  0  0  0  0  0  0  0  0
  148.3653  137.2153  156.8422 O   0  0  0  0  0  0  0  0  0  0  0  0
  148.4891  136.6574  154.6768 N   0  0  0  0  0  0  0  0  0  0  0  0
  147.7352  135.3997  154.6801 C   0  0  2  0  0  0  0  0  0  0  0  0
  148.6056  134.1861  154.3005 C   0  0  0  0  0  0  0  0  0  0  0  0
  147.7086  133.3293  153.4022 C   0  0  0  0  0  0  0  0  0  0  0  0
  146.8961  134.3300  152.7015 N   0  3  1  0  0  0  0  0  0  0  0  0
  145.7328  133.8709  151.9159 C   0  0  0  0  0  0  0  0  0  0  0  0
  145.1704  135.0751  151.1306 C   0  0  0  0  0  0  0  0  0  0  0  0
  144.8864  136.2886  152.0446 C   0  0  0  0  0  0  0  0  0  0  0  0
  146.0990  136.6346  152.9357 C   0  0  0  0  0  0  0  0  0  0  0  0
  146.5466  135.3675  153.6875 C   0  0  2  0  0  0  0  0  0  0  0  0
  150.2048  139.4776  157.6044 C   0  0  0  0  0  0  0  0  0  0  0  0
  150.7288  140.4658  158.3597 N   0  0  0  0  0  0  0  0  0  0  0  0
  152.0168  146.0592  158.4200 H   0  0  0  0  0  0  0  0  0  0  0  0
  153.0665  144.9453  159.2864 H   0  0  0  0  0  0  0  0  0  0  0  0
  151.3833  145.1345  159.7761 H   0  0  0  0  0  0  0  0  0  0  0  0
  150.6360  144.1649  157.5734 H   0  0  0  0  0  0  0  0  0  0  0  0
  152.2884  143.9928  157.0672 H   0  0  0  0  0  0  0  0  0  0  0  0
  152.9613  141.2365  159.4247 H   0  0  0  0  0  0  0  0  0  0  0  0
  153.7072  142.7404  158.9579 H   0  0  0  0  0  0  0  0  0  0  0  0
  153.5712  142.6296  161.4195 H   0  0  0  0  0  0  0  0  0  0  0  0
  151.8288  142.4149  161.3681 H   0  0  0  0  0  0  0  0  0  0  0  0
  152.5442  143.9370  160.8426 H   0  0  0  0  0  0  0  0  0  0  0  0
  151.2489  142.7512  155.9057 H   0  0  0  0  0  0  0  0  0  0  0  0
  150.2900  140.9254  154.5219 H   0  0  0  0  0  0  0  0  0  0  0  0
  149.6738  138.6755  154.3898 H   0  0  0  0  0  0  0  0  0  0  0  0
  148.8735  136.9322  153.7842 H   0  0  0  0  0  0  0  0  0  0  0  0
  147.3498  135.2137  155.6844 H   0  0  0  0  0  0  0  0  0  0  0  0
  149.4786  134.5090  153.7306 H   0  0  0  0  0  0  0  0  0  0  0  0
  148.9671  133.6383  155.1716 H   0  0  0  0  0  0  0  0  0  0  0  0
  148.2769  132.7069  152.7103 H   0  0  0  0  0  0  0  0  0  0  0  0
  147.0650  132.6843  154.0027 H   0  0  0  0  0  0  0  0  0  0  0  0
  146.0402  133.0828  151.2278 H   0  0  0  0  0  0  0  0  0  0  0  0
  144.9748  133.4478  152.5772 H   0  0  0  0  0  0  0  0  0  0  0  0
  145.8900  135.3691  150.3652 H   0  0  0  0  0  0  0  0  0  0  0  0
  144.2624  134.7853  150.6007 H   0  0  0  0  0  0  0  0  0  0  0  0
  144.6056  137.1534  151.4423 H   0  0  0  0  0  0  0  0  0  0  0  0
  144.0274  136.0649  152.6786 H   0  0  0  0  0  0  0  0  0  0  0  0
  146.9146  137.0234  152.3245 H   0  0  0  0  0  0  0  0  0  0  0  0
  145.8217  137.4223  153.6360 H   0  0  0  0  0  0  0  0  0  0  0  0
  145.6889  135.0012  154.2561 H   0  0  0  0  0  0  0  0  0  0  0  0
  149.9584  138.5836  158.1538 H   0  0  0  0  0  0  0  0  0  0  0  0
  147.5253  134.7721  152.0467 H   0  0  0  0  0  0  0  0  0  0  0  0
  1  2  1  0  0  0  0
  1 25  1  0  0  0  0
  1 26  1  0  0  0  0
  1 27  1  0  0  0  0
  2  3  1  0  0  0  0
  2 28  1  0  0  0  0
  2 29  1  0  0  0  0
  3  4  1  0  0  0  0
  3  6  1  0  0  0  0
  4  5  1  0  0  0  0
  4 30  1  0  0  0  0
  4 31  1  0  0  0  0
  5 32  1  0  0  0  0
  5 33  1  0  0  0  0
  5 34  1  0  0  0  0
  6 24  1  0  0  0  0
  6  7  2  0  0  0  0
  7  8  1  0  0  0  0
  7 35  1  0  0  0  0
  8  9  2  0  0  0  0
  8 36  1  0  0  0  0
  9 10  1  0  0  0  0
  9 23  1  0  0  0  0
 10 11  1  0  0  0  0
 10 37  1  0  0  0  0
 11 12  2  0  0  0  0
 11 13  1  0  0  0  0
 13 14  1  0  0  0  0
 13 38  1  0  0  0  0
 14 22  1  0  0  0  0
 14 15  1  0  0  0  0
 14 39  1  0  0  0  0
 15 16  1  0  0  0  0
 15 40  1  0  0  0  0
 15 41  1  0  0  0  0
 16 17  1  0  0  0  0
 16 42  1  0  0  0  0
 16 43  1  0  0  0  0
 17 22  1  0  0  0  0
 17 18  1  0  0  0  0
 17 54  1  0  0  0  0
 18 19  1  0  0  0  0
 18 44  1  0  0  0  0
 18 45  1  0  0  0  0
 19 20  1  0  0  0  0
 19 46  1  0  0  0  0
 19 47  1  0  0  0  0
 20 21  1  0  0  0  0
 20 48  1  0  0  0  0
 20 49  1  0  0  0  0
 21 22  1  0  0  0  0
 21 50  1  0  0  0  0
 21 51  1  0  0  0  0
 22 52  1  0  0  0  0
 23 24  2  0  0  0  0
 23 53  1  0  0  0  0
M  CHG  1  17   1
M  END
> <s_m_source_file>
AV-unprocessed.smi

> <i_m_source_file_index>
1701

> <i_lp_mmshare_version>
43012

> <i_f3d_flags>
0

> <s_epik_input>
W0NIM11bQ0gyXU4oW0NIMl1bQ0gzXSljMVtjSF1bY0hdYyhbY0hdbjEpW05IXUMoPU8pW05IXVtDQEhdKFtDSDJdW0NIMl0yKVtDQEBIXShOMjMpW0NIMl1bQ0gyXVtDSDJdW0NIMl0z

> <s_epik_cmdline>
J2VwaWtfcHl0aG9uJywgJy1waCcsICc3LjAnLCAnLXRuJywgJzgnLCAnLW1hJywgJzIwMCcsICctbWV0YWxfYmluZGluZycsICctaW1hZScsICc8aW5maWxlLm1hZT4nLCAnLW9tYWUnLCAnPG91dGZpbGUubWFlPic=

> <r_lp_tautomer_probability>
1

> <r_epik_Ionization_Penalty>
0.56662

> <r_epik_Ionization_Penalty_Charging>
0.000974069

> <r_epik_Ionization_Penalty_Neutral>
0.565646

> <r_epik_State_Penalty>
2.0247

> <r_epik_Charging_Adjusted_Penalty>
2.02568

> <i_epik_Tot_Q>
1

> <i_epik_Tot_abs_Q>
1

> <r_epik_Metal_State_Penalty>
1.51504

> <b_epik_Metal_Only>
0

> <s_lp_Force_Field>
OPLS_2005

> <r_lp_Energy>
60.4427

> <b_lp_Chiralities_Consistent>
1

> <s_lp_Variant>
AV-unprocessed.smi:1701-13

> <Gold.Version>
5.8.1

> <Gold.Id.Protein>
6NUR|6NUR_protein|mol2

> <Gold.PLP.Fitness>
46.4879

> <Gold.PLP.PLP>
-39.6084

> <Gold.PLP.part.hbond>
-2.0000

> <Gold.PLP.part.metal>
0.0000

> <Gold.PLP.part.buried>
-2.1696

> <Gold.PLP.part.nonpolar>
-35.1019

> <Gold.PLP.part.repulsive>
0.0368

> <Gold.PLP.ligand.clash>
0.0000

> <Gold.PLP.ligand.torsion>
0.9089

> <Gold.PLP.Chemscore.Hbond>
2.6063

> <Gold.PLP.Chemscore.CHOScore>
0.0000

> <Gold.PLP.Chemscore.Metal>
0.0000

> <Gold.Chemscore.Hbonds>
donor molecule, donor type, donor heavy atom, donor atom, acceptor molecule, acceptor atom, score
      L1  H    13    38       P1  7948  0.78
      L1  H    17    54       P1  7948  1.79

> <Gold.PLP.Chemscore.Internal.Correction>
0.8782

> <Gold.Rescore>
     Score         DG    S(hbond)    S(metal)    S(lipo)     H(rot)  DE(clash)    DE(int)     intcor
     17.20     -18.45       1.45        0.00     100.89       1.44       0.16       1.09       ----

> <Gold.Chemscore.Fitness>
17.1978

> <Gold.Chemscore.DG>
-18.4485

> <Gold.Chemscore.ZeroCoef>
-5.4800

> <Gold.Chemscore.Hbond>
1.4526

> <Gold.Chemscore.Metal>
0.0000

> <Gold.Chemscore.Lipo>
100.8906

> <Gold.Chemscore.Internal_Hbond>
0.0000

> <Gold.Chemscore.DEClash>
0.1600

> <Gold.Chemscore.DEInternal>
1.0907

> <Gold.Chemscore.Rot>
1.4404

> <Gold.Chemscore.Internal.Correction>
   9.000000E+99

> <Gold.Chemscore.Hbonds>
donor molecule, donor type, donor heavy atom, donor atom, acceptor molecule, acceptor atom, score
      L1  H    13    38       P1  7948  0.72
      L1  H    17    54       P1  7948  0.66

> <Gold.Chemscore.Hbond.Weighted>
-4.8518

> <Gold.Chemscore.Metal.Weighted>
-0.0000

> <Gold.Chemscore.Lipo.Weighted>
-11.8042

> <Gold.Chemscore.Internal_Hbond.Weighted>
0.0000

> <Gold.Chemscore.DEClash.Weighted>
0.1600

> <Gold.Chemscore.DEInternal.Weighted>
1.0907

> <Gold.Chemscore.Rot.Weighted>
3.6875

> <Gold.Chemscore.Internal.Correction.Weighted>
   9.000000E+99

> <Gold.Protein.RotatedTorsions>
[ 6907 6896 6895 6894 ] final  152.52 input  -60.11 | X-H torsion
[ 7974 7965 7964 7962 ] final  -43.94 input  175.53 | X-H torsion
[ 8008 7997 7996 7995 ] final   69.66 input   59.86 | X-H torsion
[ 10167 10162 10161 10158 ] final  -50.78 input  -65.29 | X-H torsion
[ 10718 10713 10712 10709 ] final  -32.59 input   66.30 | X-H torsion
[ 10763 10752 10751 10750 ] final -111.83 input  -60.55 | X-H torsion
[ 11005 11000 10999 10996 ] final   44.13 input  -57.11 | X-H torsion

> <Gold.Protein.ActiveResidues>
 VAL166  LYS551  ARG553  GLY616  TRP617  ASP618  TYR619  PRO620  LYS621  CYS622 
 ASP623  PHE694  ASN695  SER759  ASP760  ASP761  ALA762  ILE779  LEU786  VAL792 
 PHE793  MET794  SER795  GLU796  ALA797  LYS798  CYS799  TRP800  GLU811  SER814 

> <Gold.Protein.RotatedAtoms>
  152.0856  133.4174  159.4520 H   0  0  0  0  0  0  0  0  0  0  0  0  # atno 6907 bound_to 6896
  150.6862  134.2932  159.4684 H   0  0  0  0  0  0  0  0  0  0  0  0  # atno 6908 bound_to 6896
  152.0778  134.9491  160.0624 H   0  0  0  0  0  0  0  0  0  0  0  0  # atno 6909 bound_to 6896
  145.9969  140.7118  142.9289 H   0  0  0  0  0  0  0  0  0  0  0  0  # atno 7974 bound_to 7965
  155.7270  140.3492  155.5042 H   0  0  0  0  0  0  0  0  0  0  0  0  # atno 8008 bound_to 7997
  155.9218  140.1068  157.1223 H   0  0  0  0  0  0  0  0  0  0  0  0  # atno 8009 bound_to 7997
  154.4071  140.1248  156.4676 H   0  0  0  0  0  0  0  0  0  0  0  0  # atno 8010 bound_to 7997
  140.6621  143.2644  151.4409 H   0  0  0  0  0  0  0  0  0  0  0  0  # atno 10167 bound_to 10162
  156.3731  130.4343  149.7529 H   0  0  0  0  0  0  0  0  0  0  0  0  # atno 10718 bound_to 10713
  154.8320  135.4513  154.1100 H   0  0  0  0  0  0  0  0  0  0  0  0  # atno 10763 bound_to 10752
  153.2365  135.6911  153.7837 H   0  0  0  0  0  0  0  0  0  0  0  0  # atno 10764 bound_to 10752
  153.7201  135.3343  155.3241 H   0  0  0  0  0  0  0  0  0  0  0  0  # atno 10765 bound_to 10752
  140.1580  134.4377  155.8336 H   0  0  0  0  0  0  0  0  0  0  0  0  # atno 11005 bound_to 11000
  144.6907  140.3166  143.7239 LP  0  0  0  0  0  0  0  0  0  0  0  0  # atno 17320 bound_to 7965
  145.7546  139.1804  143.2302 LP  0  0  0  0  0  0  0  0  0  0  0  0  # atno 17321 bound_to 7965
  139.5858  144.1609  152.2026 LP  0  0  0  0  0  0  0  0  0  0  0  0  # atno 17342 bound_to 10162
  140.0948  144.5590  150.7030 LP  0  0  0  0  0  0  0  0  0  0  0  0  # atno 17343 bound_to 10162
  156.4649  130.7969  151.2989 LP  0  0  0  0  0  0  0  0  0  0  0  0  # atno 17370 bound_to 10713
  157.7486  131.0054  150.3112 LP  0  0  0  0  0  0  0  0  0  0  0  0  # atno 17371 bound_to 10713
  141.2206  133.6901  156.7543 LP  0  0  0  0  0  0  0  0  0  0  0  0  # atno 17394 bound_to 11000
  140.2524  134.8530  157.3680 LP  0  0  0  0  0  0  0  0  0  0  0  0  # atno 17395 bound_to 11000

$$$$
