AV-unprocessed.smi:283|AV-procd|sdf|2133|dock9
  -GOLD-   2262021453D 1   1.00000     0.00000
 Structure written by MMmdl.
 48 51  0  0  0  0  0  0  0  0  1 V2000
  152.6121  140.7698  158.5027 C   0  0  0  0  0  0  0  0  0  0  0  0
  151.2782  141.4490  158.1645 C   0  0  2  0  0  0  0  0  0  0  0  0
  151.0258  141.3606  156.7271 N   0  0  0  0  0  0  0  0  0  0  0  0
  150.6133  140.2040  156.1612 C   0  0  0  0  0  0  0  0  0  0  0  0
  150.6059  140.0440  154.8120 N   0  0  0  0  0  0  0  0  0  0  0  0
  150.1890  138.8919  154.2792 C   0  0  0  0  0  0  0  0  0  0  0  0
  149.7446  137.7987  154.9016 N   0  0  0  0  0  0  0  0  0  0  0  0
  149.7449  137.9537  156.2571 C   0  0  0  0  0  0  0  0  0  0  0  0
  150.1634  139.1196  156.9578 C   0  0  0  0  0  0  0  0  0  0  0  0
  150.0310  138.9210  158.3256 N   0  0  0  0  0  0  0  0  0  0  0  0
  149.5593  137.7073  158.4233 C   0  0  0  0  0  0  0  0  0  0  0  0
  149.3536  137.0530  157.2289 N   0  0  0  0  0  0  0  0  0  0  0  0
  148.8106  135.6729  157.0362 C   0  0  2  0  0  0  0  0  0  0  0  0
  149.8378  134.7540  157.2542 O   0  0  0  0  0  0  0  0  0  0  0  0
  149.7532  133.7377  156.2684 C   0  0  2  0  0  0  0  0  0  0  0  0
  151.0179  132.8562  156.1882 C   0  0  0  0  0  0  0  0  0  0  0  0
  151.6190  132.6087  157.4417 O   0  0  0  0  0  0  0  0  0  0  0  0
  149.2027  134.4233  155.0084 C   0  0  2  0  0  0  0  0  0  0  0  0
  150.2036  135.0361  154.2205 O   0  0  0  0  0  0  0  0  0  0  0  0
  148.2845  135.4918  155.5961 C   0  0  1  0  0  0  0  0  0  0  0  0
  146.9501  135.0237  155.5996 O   0  0  0  0  0  0  0  0  0  0  0  0
  151.2454  142.8724  158.7262 C   0  0  0  0  0  0  0  0  0  0  0  0
  152.4549  143.5252  159.0604 C   0  0  0  0  0  0  0  0  0  0  0  0
  152.4450  144.8319  159.5832 C   0  0  0  0  0  0  0  0  0  0  0  0
  151.2234  145.4987  159.7851 C   0  0  0  0  0  0  0  0  0  0  0  0
  150.0135  144.8552  159.4664 C   0  0  0  0  0  0  0  0  0  0  0  0
  150.0174  143.5475  158.9412 C   0  0  0  0  0  0  0  0  0  0  0  0
  148.4998  142.8019  158.5798 Cl  0  0  0  0  0  0  0  0  0  0  0  0
  148.0391  135.5719  157.8011 H   0  0  0  0  0  0  0  0  0  0  0  0
  148.9587  133.0800  156.6265 H   0  0  0  0  0  0  0  0  0  0  0  0
  148.6724  133.7140  154.3713 H   0  0  0  0  0  0  0  0  0  0  0  0
  148.3217  136.4304  155.0396 H   0  0  0  0  0  0  0  0  0  0  0  0
  152.7798  140.7506  159.5800 H   0  0  0  0  0  0  0  0  0  0  0  0
  153.4521  141.2930  158.0446 H   0  0  0  0  0  0  0  0  0  0  0  0
  152.6290  139.7380  158.1503 H   0  0  0  0  0  0  0  0  0  0  0  0
  150.4915  140.8661  158.6426 H   0  0  0  0  0  0  0  0  0  0  0  0
  151.0400  142.2372  156.2261 H   0  0  0  0  0  0  0  0  0  0  0  0
  150.2139  138.8379  153.2009 H   0  0  0  0  0  0  0  0  0  0  0  0
  149.3404  137.2536  159.3789 H   0  0  0  0  0  0  0  0  0  0  0  0
  150.7775  131.9016  155.7193 H   0  0  0  0  0  0  0  0  0  0  0  0
  151.7600  133.3408  155.5533 H   0  0  0  0  0  0  0  0  0  0  0  0
  152.4241  132.1343  157.3010 H   0  0  0  0  0  0  0  0  0  0  0  0
  149.7843  135.6076  153.5952 H   0  0  0  0  0  0  0  0  0  0  0  0
  146.9302  134.1796  156.0238 H   0  0  0  0  0  0  0  0  0  0  0  0
  153.4018  143.0260  158.9172 H   0  0  0  0  0  0  0  0  0  0  0  0
  153.3753  145.3216  159.8305 H   0  0  0  0  0  0  0  0  0  0  0  0
  151.2140  146.5011  160.1872 H   0  0  0  0  0  0  0  0  0  0  0  0
  149.0767  145.3683  159.6276 H   0  0  0  0  0  0  0  0  0  0  0  0
  1  2  1  0  0  0  0
  1 33  1  0  0  0  0
  1 34  1  0  0  0  0
  1 35  1  0  0  0  0
  2  3  1  0  0  0  0
  2 22  1  0  0  0  0
  2 36  1  0  0  0  0
  3  4  1  0  0  0  0
  3 37  1  0  0  0  0
  4  9  1  0  0  0  0
  4  5  2  0  0  0  0
  5  6  1  0  0  0  0
  6  7  2  0  0  0  0
  6 38  1  0  0  0  0
  7  8  1  0  0  0  0
  8 12  1  0  0  0  0
  8  9  2  0  0  0  0
  9 10  1  0  0  0  0
 10 11  2  0  0  0  0
 11 12  1  0  0  0  0
 11 39  1  0  0  0  0
 12 13  1  0  0  0  0
 13 29  1  0  0  0  0
 13 20  1  0  0  0  0
 13 14  1  0  0  0  0
 14 15  1  0  0  0  0
 15 30  1  0  0  0  0
 15 16  1  0  0  0  0
 15 18  1  0  0  0  0
 16 17  1  0  0  0  0
 16 40  1  0  0  0  0
 16 41  1  0  0  0  0
 17 42  1  0  0  0  0
 18 31  1  0  0  0  0
 18 19  1  0  0  0  0
 18 20  1  0  0  0  0
 19 43  1  0  0  0  0
 20 32  1  0  0  0  0
 20 21  1  0  0  0  0
 21 44  1  0  0  0  0
 22 27  1  0  0  0  0
 22 23  2  0  0  0  0
 23 24  1  0  0  0  0
 23 45  1  0  0  0  0
 24 25  2  0  0  0  0
 24 46  1  0  0  0  0
 25 26  1  0  0  0  0
 25 47  1  0  0  0  0
 26 27  2  0  0  0  0
 26 48  1  0  0  0  0
 27 28  1  0  0  0  0
M  END
> <s_m_source_file>
AV-unprocessed.smi

> <i_m_source_file_index>
283

> <i_lp_mmshare_version>
43012

> <i_f3d_flags>
0

> <s_epik_input>
Q2xjMVtjSF1bY0hdW2NIXVtjSF1jMVtDQEhdKFtDSDNdKVtOSF1jKG5bY0hdbjIpYyhjMjMpbltjSF1uM1tDQEBIXTRPW0NASF0oW0NIMl1bT0hdKVtDQEBIXShbT0hdKVtDQEhdNFtPSF0=

> <s_epik_cmdline>
J2VwaWtfcHl0aG9uJywgJy1waCcsICc3LjAnLCAnLXRuJywgJzgnLCAnLW1hJywgJzIwMCcsICctbWV0YWxfYmluZGluZycsICctaW1hZScsICc8aW5maWxlLm1hZT4nLCAnLW9tYWUnLCAnPG91dGZpbGUubWFlPic=

> <r_lp_tautomer_probability>
1

> <r_epik_Ionization_Penalty>
0.000266407

> <r_epik_Ionization_Penalty_Charging>
0

> <r_epik_Ionization_Penalty_Neutral>
0.000266407

> <r_epik_State_Penalty>
-0

> <r_epik_Charging_Adjusted_Penalty>
0

> <i_epik_Tot_Q>
0

> <i_epik_Tot_abs_Q>
0

> <r_epik_Metal_State_Penalty>
-0

> <b_epik_Metal_Only>
0

> <s_epik_Chemistry_Notes>
This compound contains an acetal/aminal-like group ( X-CH(R)-Y where X, Y are N, S, or O) that may be acid/base labile, releasing an aldehyde.

> <s_lp_Force_Field>
OPLS_2005

> <r_lp_Energy>
46.8878

> <b_lp_Chiralities_Consistent>
1

> <s_lp_Variant>
AV-unprocessed.smi:283-9

> <Gold.Version>
5.8.1

> <Gold.Id.Protein>
6NUR|6NUR_protein|mol2

> <Gold.PLP.Fitness>
46.4177

> <Gold.PLP.PLP>
-37.9812

> <Gold.PLP.part.hbond>
-4.1544

> <Gold.PLP.part.metal>
0.0000

> <Gold.PLP.part.buried>
-6.5384

> <Gold.PLP.part.nonpolar>
-27.3408

> <Gold.PLP.part.repulsive>
0.2958

> <Gold.PLP.ligand.clash>
0.0000

> <Gold.PLP.ligand.torsion>
1.5163

> <Gold.PLP.Chemscore.Hbond>
2.8000

> <Gold.PLP.Chemscore.CHOScore>
1.0000

> <Gold.PLP.Chemscore.Metal>
0.0000

> <Gold.Chemscore.Hbonds>
donor molecule, donor type, donor heavy atom, donor atom, acceptor molecule, acceptor atom, score
      L1  H    19    43       P1  7948  0.65
      P1  H  6896  6907       L1    17  0.98
      P1  H  7989  7998       L1     5  1.00
      L1  C     6    38       P1  7957  1.00

> <Gold.PLP.Chemscore.Internal.Correction>
0.0691

> <Gold.Rescore>
     Score         DG    S(hbond)    S(metal)    S(lipo)     H(rot)  DE(clash)    DE(int)     intcor
      9.64     -14.29       2.41        0.00      96.13       4.10       0.26       4.39       ----

> <Gold.Chemscore.Fitness>
9.6368

> <Gold.Chemscore.DG>
-14.2857

> <Gold.Chemscore.ZeroCoef>
-5.4800

> <Gold.Chemscore.Hbond>
2.4092

> <Gold.Chemscore.Metal>
0.0000

> <Gold.Chemscore.Lipo>
96.1266

> <Gold.Chemscore.Internal_Hbond>
0.0000

> <Gold.Chemscore.DEClash>
0.2572

> <Gold.Chemscore.DEInternal>
4.3917

> <Gold.Chemscore.Rot>
4.0968

> <Gold.Chemscore.Internal.Correction>
   9.000000E+99

> <Gold.Chemscore.Hbonds>
donor molecule, donor type, donor heavy atom, donor atom, acceptor molecule, acceptor atom, score
      L1  H    19    43       P1  7948  0.05
      P1  H  6896  6907       L1    17  0.88
      P1  H  7989  7998       L1     5  0.55

> <Gold.Chemscore.Hbond.Weighted>
-8.0468

> <Gold.Chemscore.Metal.Weighted>
-0.0000

> <Gold.Chemscore.Lipo.Weighted>
-11.2468

> <Gold.Chemscore.Internal_Hbond.Weighted>
0.0000

> <Gold.Chemscore.DEClash.Weighted>
0.2572

> <Gold.Chemscore.DEInternal.Weighted>
4.3917

> <Gold.Chemscore.Rot.Weighted>
10.4879

> <Gold.Chemscore.Internal.Correction.Weighted>
   9.000000E+99

> <Gold.Protein.RotatedTorsions>
[ 6907 6896 6895 6894 ] final -155.93 input  -60.11 | X-H torsion
[ 7974 7965 7964 7962 ] final   80.28 input  175.53 | X-H torsion
[ 8008 7997 7996 7995 ] final  132.97 input   59.86 | X-H torsion
[ 10167 10162 10161 10158 ] final   -6.65 input  -65.29 | X-H torsion
[ 10718 10713 10712 10709 ] final -117.59 input   66.30 | X-H torsion
[ 10763 10752 10751 10750 ] final -154.73 input  -60.55 | X-H torsion
[ 11005 11000 10999 10996 ] final   76.60 input  -57.11 | X-H torsion

> <Gold.Protein.ActiveResidues>
 VAL166  LYS551  ARG553  GLY616  TRP617  ASP618  TYR619  PRO620  LYS621  CYS622 
 ASP623  PHE694  ASN695  SER759  ASP760  ASP761  ALA762  ILE779  LEU786  VAL792 
 PHE793  MET794  SER795  GLU796  ALA797  LYS798  CYS799  TRP800  GLU811  SER814 

> <Gold.Protein.RotatedAtoms>
  151.2800  133.4214  159.2626 H   0  0  0  0  0  0  0  0  0  0  0  0  # atno 6907 bound_to 6896
  151.0369  134.9580  159.8151 H   0  0  0  0  0  0  0  0  0  0  0  0  # atno 6908 bound_to 6896
  152.5357  134.2759  159.9041 H   0  0  0  0  0  0  0  0  0  0  0  0  # atno 6909 bound_to 6896
  145.6533  139.2453  143.1964 H   0  0  0  0  0  0  0  0  0  0  0  0  # atno 7974 bound_to 7965
  156.2988  140.2533  156.3177 H   0  0  0  0  0  0  0  0  0  0  0  0  # atno 8008 bound_to 7997
  154.9265  140.0399  157.2045 H   0  0  0  0  0  0  0  0  0  0  0  0  # atno 8009 bound_to 7997
  154.8259  140.2868  155.5759 H   0  0  0  0  0  0  0  0  0  0  0  0  # atno 8010 bound_to 7997
  140.7004  143.6170  150.8649 H   0  0  0  0  0  0  0  0  0  0  0  0  # atno 10167 bound_to 10162
  156.1045  130.6199  150.9184 H   0  0  0  0  0  0  0  0  0  0  0  0  # atno 10718 bound_to 10713
  154.7838  135.3183  154.7931 H   0  0  0  0  0  0  0  0  0  0  0  0  # atno 10763 bound_to 10752
  153.8636  135.6851  153.4785 H   0  0  0  0  0  0  0  0  0  0  0  0  # atno 10764 bound_to 10752
  153.1483  135.4710  154.9537 H   0  0  0  0  0  0  0  0  0  0  0  0  # atno 10765 bound_to 10752
  139.9291  134.7614  156.1416 H   0  0  0  0  0  0  0  0  0  0  0  0  # atno 11005 bound_to 11000
  146.1186  140.7338  142.9468 LP  0  0  0  0  0  0  0  0  0  0  0  0  # atno 17320 bound_to 7965
  144.7115  140.4055  143.7077 LP  0  0  0  0  0  0  0  0  0  0  0  0  # atno 17321 bound_to 7965
  139.9892  143.5866  152.2916 LP  0  0  0  0  0  0  0  0  0  0  0  0  # atno 17342 bound_to 10162
  139.6515  144.7661  151.2139 LP  0  0  0  0  0  0  0  0  0  0  0  0  # atno 17343 bound_to 10162
  157.6220  131.0929  150.8605 LP  0  0  0  0  0  0  0  0  0  0  0  0  # atno 17370 bound_to 10713
  156.8726  130.5151  149.5296 LP  0  0  0  0  0  0  0  0  0  0  0  0  # atno 17371 bound_to 10713
  141.0868  133.6730  156.2455 LP  0  0  0  0  0  0  0  0  0  0  0  0  # atno 17394 bound_to 11000
  140.6252  134.5321  157.5553 LP  0  0  0  0  0  0  0  0  0  0  0  0  # atno 17395 bound_to 11000

$$$$
