AV-unprocessed.smi:2083|AV-procd|sdf|8493|dock6
  -GOLD-   2272011203D 1   1.00000     0.00000
 Structure written by MMmdl.
 45 46  0  0  0  0  0  0  0  0  2 V2000
  138.3742  137.1296  153.8101 C   0  0  0  0  0  0  0  0  0  0  0  0
  139.8548  137.1932  153.9665 C   0  0  0  0  0  0  0  0  0  0  0  0
  140.7933  138.1078  153.5781 C   0  0  0  0  0  0  0  0  0  0  0  0
  142.0068  137.5404  154.0498 C   0  0  0  0  0  0  0  0  0  0  0  0
  143.2479  138.1933  153.8361 N   0  0  0  0  0  0  0  0  0  0  0  0
  144.4587  137.8117  154.2773 C   0  0  0  0  0  0  0  0  0  0  0  0
  144.6788  136.8339  154.9926 O   0  0  0  0  0  0  0  0  0  0  0  0
  145.4224  138.6349  153.8395 N   0  0  0  0  0  0  0  0  0  0  0  0
  146.8442  138.4912  154.1398 C   0  0  0  0  0  0  0  0  0  0  0  0
  147.6141  139.8319  154.0663 C   0  0  1  0  0  0  0  0  0  0  0  0
  146.7833  141.0287  154.5784 C   0  0  0  0  0  0  0  0  0  0  0  0
  148.9438  139.7153  154.7348 N   0  3  2  0  0  0  0  0  0  0  0  0
  149.6680  141.0000  154.9390 C   0  0  0  0  0  0  0  0  0  0  0  0
  150.8903  140.7988  155.8478 C   0  0  0  0  0  0  0  0  0  0  0  0
  151.8281  139.7259  155.2756 C   0  0  0  0  0  0  0  0  0  0  0  0
  151.0727  138.4131  154.9947 C   0  0  1  0  0  0  0  0  0  0  0  0
  150.7382  137.6341  156.2789 C   0  0  0  0  0  0  0  0  0  0  0  0
  149.8224  138.6775  154.1292 C   0  0  0  0  0  0  0  0  0  0  0  0
  141.8261  136.3840  154.6690 N   0  0  0  0  0  0  0  0  0  0  0  0
  140.4459  136.1555  154.6186 O   0  0  0  0  0  0  0  0  0  0  0  0
  137.9870  138.0551  153.3838 H   0  0  0  0  0  0  0  0  0  0  0  0
  137.8898  136.9732  154.7740 H   0  0  0  0  0  0  0  0  0  0  0  0
  138.0909  136.3087  153.1512 H   0  0  0  0  0  0  0  0  0  0  0  0
  140.6331  139.0318  153.0426 H   0  0  0  0  0  0  0  0  0  0  0  0
  143.2103  139.0309  153.2745 H   0  0  0  0  0  0  0  0  0  0  0  0
  145.1548  139.4177  153.2603 H   0  0  0  0  0  0  0  0  0  0  0  0
  146.9164  138.0600  155.1376 H   0  0  0  0  0  0  0  0  0  0  0  0
  147.2861  137.7624  153.4581 H   0  0  0  0  0  0  0  0  0  0  0  0
  147.8139  140.0131  153.0094 H   0  0  0  0  0  0  0  0  0  0  0  0
  145.8907  141.1760  153.9702 H   0  0  0  0  0  0  0  0  0  0  0  0
  147.3492  141.9592  154.5367 H   0  0  0  0  0  0  0  0  0  0  0  0
  146.4514  140.8823  155.6064 H   0  0  0  0  0  0  0  0  0  0  0  0
  149.9927  141.4028  153.9787 H   0  0  0  0  0  0  0  0  0  0  0  0
  149.0114  141.7438  155.3886 H   0  0  0  0  0  0  0  0  0  0  0  0
  151.4300  141.7401  155.9568 H   0  0  0  0  0  0  0  0  0  0  0  0
  150.5642  140.5164  156.8493 H   0  0  0  0  0  0  0  0  0  0  0  0
  152.2644  140.0944  154.3461 H   0  0  0  0  0  0  0  0  0  0  0  0
  152.6631  139.5507  155.9549 H   0  0  0  0  0  0  0  0  0  0  0  0
  151.7399  137.7734  154.4155 H   0  0  0  0  0  0  0  0  0  0  0  0
  150.0506  138.1830  156.9223 H   0  0  0  0  0  0  0  0  0  0  0  0
  151.6396  137.4278  156.8568 H   0  0  0  0  0  0  0  0  0  0  0  0
  150.2746  136.6754  156.0446 H   0  0  0  0  0  0  0  0  0  0  0  0
  149.2716  137.7453  153.9973 H   0  0  0  0  0  0  0  0  0  0  0  0
  150.1287  139.0007  153.1333 H   0  0  0  0  0  0  0  0  0  0  0  0
  148.7360  139.3671  155.6600 H   0  0  0  0  0  0  0  0  0  0  0  0
  1  2  1  0  0  0  0
  1 21  1  0  0  0  0
  1 22  1  0  0  0  0
  1 23  1  0  0  0  0
  2 20  1  0  0  0  0
  2  3  2  0  0  0  0
  3  4  1  0  0  0  0
  3 24  1  0  0  0  0
  4  5  1  0  0  0  0
  4 19  2  0  0  0  0
  5  6  1  0  0  0  0
  5 25  1  0  0  0  0
  6  7  2  0  0  0  0
  6  8  1  0  0  0  0
  8  9  1  0  0  0  0
  8 26  1  0  0  0  0
  9 10  1  0  0  0  0
  9 27  1  0  0  0  0
  9 28  1  0  0  0  0
 10 11  1  0  0  0  0
 10 12  1  0  0  0  0
 10 29  1  0  0  0  0
 11 30  1  0  0  0  0
 11 31  1  0  0  0  0
 11 32  1  0  0  0  0
 12 18  1  0  0  0  0
 12 13  1  0  0  0  0
 12 45  1  0  0  0  0
 13 14  1  0  0  0  0
 13 33  1  0  0  0  0
 13 34  1  0  0  0  0
 14 15  1  0  0  0  0
 14 35  1  0  0  0  0
 14 36  1  0  0  0  0
 15 16  1  0  0  0  0
 15 37  1  0  0  0  0
 15 38  1  0  0  0  0
 16 17  1  0  0  0  0
 16 18  1  0  0  0  0
 16 39  1  0  0  0  0
 17 40  1  0  0  0  0
 17 41  1  0  0  0  0
 17 42  1  0  0  0  0
 18 43  1  0  0  0  0
 18 44  1  0  0  0  0
 19 20  1  0  0  0  0
M  CHG  1  12   1
M  END
> <s_m_source_file>
AV-unprocessed.smi

> <i_m_source_file_index>
2083

> <i_lp_mmshare_version>
43012

> <i_f3d_flags>
0

> <s_epik_input>
W0NIM11jMVtjSF1jKG5vMSlbTkhdQyg9TylbTkhdW0NIMl1bQ0BIXShbQ0gzXSlOMltDSDJdW0NIMl1bQ0gyXVtDQEBIXShbQ0gzXSlbQ0gyXTI=

> <s_epik_cmdline>
J2VwaWtfcHl0aG9uJywgJy1waCcsICc3LjAnLCAnLXRuJywgJzgnLCAnLW1hJywgJzIwMCcsICctbWV0YWxfYmluZGluZycsICctaW1hZScsICc8aW5maWxlLm1hZT4nLCAnLW9tYWUnLCAnPG91dGZpbGUubWFlPic=

> <r_epik_Ionization_Penalty>
0.00216453

> <r_epik_Ionization_Penalty_Charging>
0.00212879

> <r_epik_Ionization_Penalty_Neutral>
3.57418e-05

> <r_epik_State_Penalty>
0.00146033

> <r_epik_Charging_Adjusted_Penalty>
0.00358912

> <i_epik_Tot_Q>
1

> <i_epik_Tot_abs_Q>
1

> <r_epik_Metal_State_Penalty>
0.0215827

> <b_epik_Metal_Only>
0

> <s_lp_Force_Field>
OPLS_2005

> <r_lp_Energy>
19.7178

> <b_lp_Chiralities_Consistent>
1

> <s_lp_Variant>
AV-unprocessed.smi:2083-4

> <Gold.Version>
5.8.1

> <Gold.Id.Protein>
6NUR|6NUR_protein|mol2

> <Gold.PLP.Fitness>
39.2734

> <Gold.PLP.PLP>
-31.4257

> <Gold.PLP.part.hbond>
-3.0000

> <Gold.PLP.part.metal>
0.0000

> <Gold.PLP.part.buried>
-3.7224

> <Gold.PLP.part.nonpolar>
-25.3614

> <Gold.PLP.part.repulsive>
0.1772

> <Gold.PLP.ligand.clash>
0.0000

> <Gold.PLP.ligand.torsion>
0.4850

> <Gold.PLP.Chemscore.Hbond>
2.9040

> <Gold.PLP.Chemscore.CHOScore>
0.0000

> <Gold.PLP.Chemscore.Metal>
0.0000

> <Gold.Chemscore.Hbonds>
donor molecule, donor type, donor heavy atom, donor atom, acceptor molecule, acceptor atom, score
      L1  H     5    25       P1 10175  1.00
      L1  H     8    26       P1 10175  0.94
      P1  H 11000 11005       L1    20  0.94

> <Gold.PLP.Chemscore.Internal.Correction>
0.1057

> <Gold.Rescore>
     Score         DG    S(hbond)    S(metal)    S(lipo)     H(rot)  DE(clash)    DE(int)     intcor
     17.35     -19.14       2.76        0.00      71.93       1.55       0.05       1.74       ----

> <Gold.Chemscore.Fitness>
17.3519

> <Gold.Chemscore.DG>
-19.1430

> <Gold.Chemscore.ZeroCoef>
-5.4800

> <Gold.Chemscore.Hbond>
2.7570

> <Gold.Chemscore.Metal>
0.0000

> <Gold.Chemscore.Lipo>
71.9306

> <Gold.Chemscore.Internal_Hbond>
0.0000

> <Gold.Chemscore.DEClash>
0.0507

> <Gold.Chemscore.DEInternal>
1.7403

> <Gold.Chemscore.Rot>
1.5474

> <Gold.Chemscore.Internal.Correction>
   9.000000E+99

> <Gold.Chemscore.Hbonds>
donor molecule, donor type, donor heavy atom, donor atom, acceptor molecule, acceptor atom, score
      L1  H     5    25       P1 10175  1.00
      L1  H     8    26       P1 10175  0.89
      P1  H 11000 11005       L1    20  0.52

> <Gold.Chemscore.Hbond.Weighted>
-9.2083

> <Gold.Chemscore.Metal.Weighted>
-0.0000

> <Gold.Chemscore.Lipo.Weighted>
-8.4159

> <Gold.Chemscore.Internal_Hbond.Weighted>
0.0000

> <Gold.Chemscore.DEClash.Weighted>
0.0507

> <Gold.Chemscore.DEInternal.Weighted>
1.7403

> <Gold.Chemscore.Rot.Weighted>
3.9612

> <Gold.Chemscore.Internal.Correction.Weighted>
   9.000000E+99

> <Gold.Protein.RotatedTorsions>
[ 6907 6896 6895 6894 ] final   14.11 input  -60.11 | X-H torsion
[ 7974 7965 7964 7962 ] final   76.57 input  175.53 | X-H torsion
[ 8008 7997 7996 7995 ] final  164.41 input   59.86 | X-H torsion
[ 10167 10162 10161 10158 ] final   41.89 input  -65.29 | X-H torsion
[ 10718 10713 10712 10709 ] final -108.78 input   66.30 | X-H torsion
[ 10763 10752 10751 10750 ] final  161.90 input  -60.55 | X-H torsion
[ 11005 11000 10999 10996 ] final   59.68 input  -57.11 | X-H torsion

> <Gold.Protein.ActiveResidues>
 VAL166  LYS551  ARG553  GLY616  TRP617  ASP618  TYR619  PRO620  LYS621  CYS622 
 ASP623  PHE694  ASN695  SER759  ASP760  ASP761  ALA762  ILE779  LEU786  VAL792 
 PHE793  MET794  SER795  GLU796  ALA797  LYS798  CYS799  TRP800  GLU811  SER814 

> <Gold.Protein.RotatedAtoms>
  151.7971  135.0719  160.0394 H   0  0  0  0  0  0  0  0  0  0  0  0  # atno 6907 bound_to 6896
  152.3115  133.5754  159.5692 H   0  0  0  0  0  0  0  0  0  0  0  0  # atno 6908 bound_to 6896
  150.7322  134.0061  159.3696 H   0  0  0  0  0  0  0  0  0  0  0  0  # atno 6909 bound_to 6896
  145.7012  139.2583  143.1704 H   0  0  0  0  0  0  0  0  0  0  0  0  # atno 7974 bound_to 7965
  156.1882  140.1697  156.8143 H   0  0  0  0  0  0  0  0  0  0  0  0  # atno 8008 bound_to 7997
  154.5440  140.0731  156.8589 H   0  0  0  0  0  0  0  0  0  0  0  0  # atno 8009 bound_to 7997
  155.3159  140.3370  155.4245 H   0  0  0  0  0  0  0  0  0  0  0  0  # atno 8010 bound_to 7997
  140.3599  144.2242  150.6139 H   0  0  0  0  0  0  0  0  0  0  0  0  # atno 10167 bound_to 10162
  156.0503  130.5730  150.8008 H   0  0  0  0  0  0  0  0  0  0  0  0  # atno 10718 bound_to 10713
  154.2701  135.2766  155.2741 H   0  0  0  0  0  0  0  0  0  0  0  0  # atno 10763 bound_to 10752
  154.5309  135.5730  153.6761 H   0  0  0  0  0  0  0  0  0  0  0  0  # atno 10764 bound_to 10752
  152.9946  135.6227  154.2856 H   0  0  0  0  0  0  0  0  0  0  0  0  # atno 10765 bound_to 10752
  140.0286  134.6045  155.9537 H   0  0  0  0  0  0  0  0  0  0  0  0  # atno 11005 bound_to 11000
  146.0796  140.7779  142.9648 LP  0  0  0  0  0  0  0  0  0  0  0  0  # atno 17320 bound_to 7965
  144.6968  140.3468  143.7189 LP  0  0  0  0  0  0  0  0  0  0  0  0  # atno 17321 bound_to 7965
  140.5137  143.2283  151.8496 LP  0  0  0  0  0  0  0  0  0  0  0  0  # atno 17342 bound_to 10162
  139.4815  144.4919  151.9174 LP  0  0  0  0  0  0  0  0  0  0  0  0  # atno 17343 bound_to 10162
  157.5422  131.0941  150.9812 LP  0  0  0  0  0  0  0  0  0  0  0  0  # atno 17370 bound_to 10713
  157.0092  130.5630  149.5319 LP  0  0  0  0  0  0  0  0  0  0  0  0  # atno 17371 bound_to 10713
  141.1818  133.6548  156.5051 LP  0  0  0  0  0  0  0  0  0  0  0  0  # atno 17394 bound_to 11000
  140.4263  134.7142  157.4918 LP  0  0  0  0  0  0  0  0  0  0  0  0  # atno 17395 bound_to 11000

$$$$
