AV-unprocessed.smi:103|AV-procd|sdf|987|dock2
  -GOLD-   2262017563D 1   1.00000     0.00000
 Structure written by MMmdl.
 53 55  0  0  0  0  0  0  0  0  1 V2000
  146.9285  133.2519  151.2839 C   0  0  0  0  0  0  0  0  0  0  0  0
  146.7924  133.1980  152.7999 C   0  0  0  0  0  0  0  0  0  0  0  0
  146.3322  132.2083  153.3694 O   0  0  0  0  0  0  0  0  0  0  0  0
  147.2237  134.3212  153.3937 O   0  0  0  0  0  0  0  0  0  0  0  0
  146.9437  134.5372  154.7669 C   0  0  0  0  0  0  0  0  0  0  0  0
  147.8582  133.6513  155.6250 C   0  0  2  0  0  0  0  0  0  0  0  0
  147.3781  133.5601  156.9579 O   0  0  0  0  0  0  0  0  0  0  0  0
  148.4185  133.0959  157.7535 C   0  0  2  0  0  0  0  0  0  0  0  0
  148.1881  133.5695  159.1517 N   0  0  0  0  0  0  0  0  0  0  0  0
  148.0432  132.8510  160.3214 C   0  0  0  0  0  0  0  0  0  0  0  0
  148.0628  131.0697  160.4851 S   0  0  0  0  0  0  0  0  0  0  0  0
  149.0600  130.8392  162.0123 C   0  0  0  0  0  0  0  0  0  0  0  0
  146.6785  130.6436  160.7400 O   0  0  0  0  0  0  0  0  0  0  0  0
  148.8079  130.5392  159.3325 O   0  0  0  0  0  0  0  0  0  0  0  0
  147.7796  133.5374  161.4004 N   0  0  0  0  0  0  0  0  0  0  0  0
  147.8065  134.8508  160.9522 C   0  0  0  0  0  0  0  0  0  0  0  0
  147.6315  136.1106  161.5783 C   0  0  0  0  0  0  0  0  0  0  0  0
  147.3766  136.2480  162.8868 N   0  0  0  0  0  0  0  0  0  0  0  0
  147.7271  137.2283  160.8207 N   0  0  0  0  0  0  0  0  0  0  0  0
  147.9800  137.1184  159.5124 C   0  0  0  0  0  0  0  0  0  0  0  0
  148.1630  136.0121  158.7867 N   0  0  0  0  0  0  0  0  0  0  0  0
  148.0677  134.8850  159.5525 C   0  0  0  0  0  0  0  0  0  0  0  0
  149.7096  133.7031  157.1821 C   0  0  1  0  0  0  0  0  0  0  0  0
  150.8341  132.8215  157.2524 O   0  0  0  0  0  0  0  0  0  0  0  0
  151.1321  131.9125  156.2973 C   0  0  0  0  0  0  0  0  0  0  0  0
  152.4233  131.1649  156.6003 C   0  0  0  0  0  0  0  0  0  0  0  0
  150.4731  131.6665  155.2878 O   0  0  0  0  0  0  0  0  0  0  0  0
  149.3037  134.1564  155.7749 C   0  0  2  0  0  0  0  0  0  0  0  0
  149.3677  135.5765  155.6919 O   0  0  0  0  0  0  0  0  0  0  0  0
  150.5550  136.2056  155.7252 C   0  0  0  0  0  0  0  0  0  0  0  0
  150.4247  137.7012  155.4727 C   0  0  0  0  0  0  0  0  0  0  0  0
  151.6485  135.6804  155.9354 O   0  0  0  0  0  0  0  0  0  0  0  0
  146.5845  134.2137  150.9038 H   0  0  0  0  0  0  0  0  0  0  0  0
  146.3344  132.4651  150.8182 H   0  0  0  0  0  0  0  0  0  0  0  0
  147.9706  133.1163  150.9942 H   0  0  0  0  0  0  0  0  0  0  0  0
  147.1259  135.5872  155.0009 H   0  0  0  0  0  0  0  0  0  0  0  0
  145.8944  134.3288  154.9810 H   0  0  0  0  0  0  0  0  0  0  0  0
  147.8860  132.6442  155.2059 H   0  0  0  0  0  0  0  0  0  0  0  0
  148.3886  132.0089  157.7824 H   0  0  0  0  0  0  0  0  0  0  0  0
  149.1496  129.7751  162.2287 H   0  0  0  0  0  0  0  0  0  0  0  0
  148.5731  131.3402  162.8482 H   0  0  0  0  0  0  0  0  0  0  0  0
  150.0528  131.2638  161.8640 H   0  0  0  0  0  0  0  0  0  0  0  0
  147.3013  135.4296  163.4740 H   0  0  0  0  0  0  0  0  0  0  0  0
  147.2621  137.1692  163.2841 H   0  0  0  0  0  0  0  0  0  0  0  0
  148.0423  138.0493  158.9684 H   0  0  0  0  0  0  0  0  0  0  0  0
  149.9612  134.5829  157.7752 H   0  0  0  0  0  0  0  0  0  0  0  0
  153.2400  131.8680  156.7647 H   0  0  0  0  0  0  0  0  0  0  0  0
  152.6917  130.5110  155.7703 H   0  0  0  0  0  0  0  0  0  0  0  0
  152.3036  130.5552  157.4959 H   0  0  0  0  0  0  0  0  0  0  0  0
  149.9262  133.7154  154.9949 H   0  0  0  0  0  0  0  0  0  0  0  0
  149.9493  137.8827  154.5087 H   0  0  0  0  0  0  0  0  0  0  0  0
  151.4060  138.1758  155.4691 H   0  0  0  0  0  0  0  0  0  0  0  0
  149.8192  138.1648  156.2518 H   0  0  0  0  0  0  0  0  0  0  0  0
  1  2  1  0  0  0  0
  1 33  1  0  0  0  0
  1 34  1  0  0  0  0
  1 35  1  0  0  0  0
  2  3  2  0  0  0  0
  2  4  1  0  0  0  0
  4  5  1  0  0  0  0
  5  6  1  0  0  0  0
  5 36  1  0  0  0  0
  5 37  1  0  0  0  0
  6 28  1  0  0  0  0
  6  7  1  0  0  0  0
  6 38  1  0  0  0  0
  7  8  1  0  0  0  0
  8  9  1  0  0  0  0
  8 23  1  0  0  0  0
  8 39  1  0  0  0  0
  9 22  1  0  0  0  0
  9 10  1  0  0  0  0
 10 11  1  0  0  0  0
 10 15  2  0  0  0  0
 11 12  1  0  0  0  0
 11 13  2  0  0  0  0
 11 14  2  0  0  0  0
 12 40  1  0  0  0  0
 12 41  1  0  0  0  0
 12 42  1  0  0  0  0
 15 16  1  0  0  0  0
 16 22  2  0  0  0  0
 16 17  1  0  0  0  0
 17 18  1  0  0  0  0
 17 19  2  0  0  0  0
 18 43  1  0  0  0  0
 18 44  1  0  0  0  0
 19 20  1  0  0  0  0
 20 21  2  0  0  0  0
 20 45  1  0  0  0  0
 21 22  1  0  0  0  0
 23 24  1  0  0  0  0
 23 28  1  0  0  0  0
 23 46  1  0  0  0  0
 24 25  1  0  0  0  0
 25 26  1  0  0  0  0
 25 27  2  0  0  0  0
 26 47  1  0  0  0  0
 26 48  1  0  0  0  0
 26 49  1  0  0  0  0
 28 29  1  0  0  0  0
 28 50  1  0  0  0  0
 29 30  1  0  0  0  0
 30 31  1  0  0  0  0
 30 32  2  0  0  0  0
 31 51  1  0  0  0  0
 31 52  1  0  0  0  0
 31 53  1  0  0  0  0
M  END
> <s_m_source_file>
AV-unprocessed.smi

> <i_m_source_file_index>
103

> <i_lp_mmshare_version>
43012

> <i_f3d_flags>
0

> <s_epik_input>
W0NIM11DKD1PKU9bQ0gyXVtDQEBIXTFPW0NASF0oW0NAQEhdKE9DKD1PKVtDSDNdKVtDQEhdMU9DKD1PKVtDSDNdKW4oYyhuMilTKD1PKSg9TylbQ0gzXSljKGMyMyluW2NIXW5jM1tOSDJd

> <s_epik_cmdline>
J2VwaWtfcHl0aG9uJywgJy1waCcsICc3LjAnLCAnLXRuJywgJzgnLCAnLW1hJywgJzIwMCcsICctbWV0YWxfYmluZGluZycsICctaW1hZScsICc8aW5maWxlLm1hZT4nLCAnLW9tYWUnLCAnPG91dGZpbGUubWFlPic=

> <r_lp_tautomer_probability>
1

> <r_epik_Ionization_Penalty>
1.51338e-05

> <r_epik_Ionization_Penalty_Charging>
0

> <r_epik_Ionization_Penalty_Neutral>
1.51338e-05

> <r_epik_State_Penalty>
-0

> <r_epik_Charging_Adjusted_Penalty>
0

> <i_epik_Tot_Q>
0

> <i_epik_Tot_abs_Q>
0

> <r_epik_Metal_State_Penalty>
-0

> <b_epik_Metal_Only>
0

> <s_epik_Chemistry_Notes>
This compound has an ester and may undergo hydrolysis at high or low pH. This compound contains an acetal/aminal-like group ( X-CH(R)-Y where X, Y are N, S, or O) that may be acid/base labile, releasing an aldehyde.

> <s_lp_Force_Field>
OPLS_2005

> <r_lp_Energy>
18.7655

> <b_lp_Chiralities_Consistent>
1

> <s_lp_Variant>
AV-unprocessed.smi:103-11

> <Gold.Version>
5.8.1

> <Gold.Id.Protein>
6NUR|6NUR_protein|mol2

> <Gold.PLP.Fitness>
37.7889

> <Gold.PLP.PLP>
-30.9889

> <Gold.PLP.part.hbond>
-3.6942

> <Gold.PLP.part.metal>
0.0000

> <Gold.PLP.part.buried>
-7.1223

> <Gold.PLP.part.nonpolar>
-21.8705

> <Gold.PLP.part.repulsive>
1.4899

> <Gold.PLP.ligand.clash>
0.0000

> <Gold.PLP.ligand.torsion>
1.8461

> <Gold.PLP.Chemscore.Hbond>
2.6880

> <Gold.PLP.Chemscore.CHOScore>
0.0000

> <Gold.PLP.Chemscore.Metal>
0.0000

> <Gold.Chemscore.Hbonds>
donor molecule, donor type, donor heavy atom, donor atom, acceptor molecule, acceptor atom, score
      P1  H  6931  6943       L1    19  0.83
      P1  H  6934  6947       L1    19  0.90
      P1  H 10752 10764       L1    32  0.88

> <Gold.PLP.Chemscore.Internal.Correction>
2.4282

> <Gold.Rescore>
     Score         DG    S(hbond)    S(metal)    S(lipo)     H(rot)  DE(clash)    DE(int)     intcor
      1.56      -5.84       1.90        0.00      41.69       4.25       0.02       4.26       ----

> <Gold.Chemscore.Fitness>
1.5636

> <Gold.Chemscore.DG>
-5.8447

> <Gold.Chemscore.ZeroCoef>
-5.4800

> <Gold.Chemscore.Hbond>
1.9030

> <Gold.Chemscore.Metal>
0.0000

> <Gold.Chemscore.Lipo>
41.6861

> <Gold.Chemscore.Internal_Hbond>
0.0000

> <Gold.Chemscore.DEClash>
0.0245

> <Gold.Chemscore.DEInternal>
4.2566

> <Gold.Chemscore.Rot>
4.2456

> <Gold.Chemscore.Internal.Correction>
   9.000000E+99

> <Gold.Chemscore.Hbonds>
donor molecule, donor type, donor heavy atom, donor atom, acceptor molecule, acceptor atom, score
      P1  H  6931  6943       L1    19  0.19
      P1  H  6934  6947       L1    19  0.26
      P1  H 10752 10764       L1    32  0.86

> <Gold.Chemscore.Hbond.Weighted>
-6.3561

> <Gold.Chemscore.Metal.Weighted>
-0.0000

> <Gold.Chemscore.Lipo.Weighted>
-4.8773

> <Gold.Chemscore.Internal_Hbond.Weighted>
0.0000

> <Gold.Chemscore.DEClash.Weighted>
0.0245

> <Gold.Chemscore.DEInternal.Weighted>
4.2566

> <Gold.Chemscore.Rot.Weighted>
10.8687

> <Gold.Chemscore.Internal.Correction.Weighted>
   9.000000E+99

> <Gold.Protein.RotatedTorsions>
[ 6907 6896 6895 6894 ] final  163.33 input  -60.11 | X-H torsion
[ 7974 7965 7964 7962 ] final  169.80 input  175.53 | X-H torsion
[ 8008 7997 7996 7995 ] final   48.14 input   59.86 | X-H torsion
[ 10167 10162 10161 10158 ] final   91.24 input  -65.29 | X-H torsion
[ 10718 10713 10712 10709 ] final  130.26 input   66.30 | X-H torsion
[ 10763 10752 10751 10750 ] final  -60.00 input  -60.55 | X-H torsion
[ 11005 11000 10999 10996 ] final -111.34 input  -57.11 | X-H torsion

> <Gold.Protein.ActiveResidues>
 VAL166  LYS551  ARG553  GLY616  TRP617  ASP618  TYR619  PRO620  LYS621  CYS622 
 ASP623  PHE694  ASN695  SER759  ASP760  ASP761  ALA762  ILE779  LEU786  VAL792 
 PHE793  MET794  SER795  GLU796  ALA797  LYS798  CYS799  TRP800  GLU811  SER814 

> <Gold.Protein.RotatedAtoms>
  151.9269  133.3600  159.3916 H   0  0  0  0  0  0  0  0  0  0  0  0  # atno 6907 bound_to 6896
  150.7025  134.4578  159.5375 H   0  0  0  0  0  0  0  0  0  0  0  0  # atno 6908 bound_to 6896
  152.2211  134.8412  160.0536 H   0  0  0  0  0  0  0  0  0  0  0  0  # atno 6909 bound_to 6896
  144.7343  139.9108  143.6415 H   0  0  0  0  0  0  0  0  0  0  0  0  # atno 7974 bound_to 7965
  155.3806  140.3428  155.4246 H   0  0  0  0  0  0  0  0  0  0  0  0  # atno 8008 bound_to 7997
  156.1612  140.1601  156.8642 H   0  0  0  0  0  0  0  0  0  0  0  0  # atno 8009 bound_to 7997
  154.5142  140.0782  156.8030 H   0  0  0  0  0  0  0  0  0  0  0  0  # atno 8010 bound_to 7997
  139.8394  144.6648  150.9302 H   0  0  0  0  0  0  0  0  0  0  0  0  # atno 10167 bound_to 10162
  157.5079  131.1096  150.9335 H   0  0  0  0  0  0  0  0  0  0  0  0  # atno 10718 bound_to 10713
  154.2625  135.6305  153.5280 H   0  0  0  0  0  0  0  0  0  0  0  0  # atno 10763 bound_to 10752
  152.9893  135.5591  154.5689 H   0  0  0  0  0  0  0  0  0  0  0  0  # atno 10764 bound_to 10752
  154.5241  135.2884  155.1212 H   0  0  0  0  0  0  0  0  0  0  0  0  # atno 10765 bound_to 10752
  141.0740  133.9333  157.2428 H   0  0  0  0  0  0  0  0  0  0  0  0  # atno 11005 bound_to 11000
  146.1002  139.3997  143.0351 LP  0  0  0  0  0  0  0  0  0  0  0  0  # atno 17320 bound_to 7965
  145.7589  140.9943  143.1210 LP  0  0  0  0  0  0  0  0  0  0  0  0  # atno 17321 bound_to 7965
  140.7799  143.3927  151.1283 LP  0  0  0  0  0  0  0  0  0  0  0  0  # atno 17342 bound_to 10162
  139.7574  143.8687  152.3092 LP  0  0  0  0  0  0  0  0  0  0  0  0  # atno 17343 bound_to 10162
  156.9985  130.5591  149.5309 LP  0  0  0  0  0  0  0  0  0  0  0  0  # atno 17370 bound_to 10713
  156.0270  130.5363  150.8432 LP  0  0  0  0  0  0  0  0  0  0  0  0  # atno 17371 bound_to 10713
  139.9552  135.0167  156.9108 LP  0  0  0  0  0  0  0  0  0  0  0  0  # atno 17394 bound_to 11000
  140.5613  134.0532  155.7400 LP  0  0  0  0  0  0  0  0  0  0  0  0  # atno 17395 bound_to 11000

$$$$
