AV-unprocessed.smi:3056|AV-procd|sdf|11648|dock4
  -GOLD-   2272017 43D 1   1.00000     0.00000
 Structure written by MMmdl.
 48 49  0  0  0  0  0  0  0  0  2 V2000
  151.1895  142.5022  158.3368 C   0  0  0  0  0  0  0  0  0  0  0  0
  151.0736  141.3067  157.4356 C   0  0  0  0  0  0  0  0  0  0  0  0
  151.4199  139.9573  157.7248 C   0  0  0  0  0  0  0  0  0  0  0  0
  151.1884  139.1419  156.7099 N   0  0  0  0  0  0  0  0  0  0  0  0
  150.6958  139.9357  155.7318 N   0  0  0  0  0  0  0  0  0  0  0  0
  150.2907  139.3844  154.4408 C   0  0  1  0  0  0  0  0  0  0  0  0
  150.7079  137.9068  154.2626 C   0  0  0  0  0  0  0  0  0  0  0  0
  148.7912  139.6582  154.1367 C   0  0  1  0  0  0  0  0  0  0  0  0
  148.4915  141.1608  154.0132 C   0  0  0  0  0  0  0  0  0  0  0  0
  148.3118  138.9617  152.9188 N   0  3  0  0  0  0  0  0  0  0  0  0
  146.8456  138.9345  152.7298 C   0  0  0  0  0  0  0  0  0  0  0  0
  146.4552  138.1539  151.4704 C   0  0  0  0  0  0  0  0  0  0  0  0
  147.0228  138.4476  150.4187 O   0  0  0  0  0  0  0  0  0  0  0  0
  145.5095  137.1860  151.5399 N   0  0  0  0  0  0  0  0  0  0  0  0
  144.9131  136.7375  152.8001 C   0  0  0  0  0  0  0  0  0  0  0  0
  145.3371  135.2757  153.0334 C   0  0  0  0  0  0  0  0  0  0  0  0
  144.9310  134.4720  151.9268 O   0  0  0  0  0  0  0  0  0  0  0  0
  145.4634  134.9077  150.6764 C   0  0  1  0  0  0  0  0  0  0  0  0
  144.9604  133.9576  149.5842 C   0  0  0  0  0  0  0  0  0  0  0  0
  145.0233  136.3635  150.4294 C   0  0  0  0  0  0  0  0  0  0  0  0
  150.6126  141.2479  156.1512 C   0  0  0  0  0  0  0  0  0  0  0  0
  151.7610  142.2776  159.2378 H   0  0  0  0  0  0  0  0  0  0  0  0
  150.2110  142.8595  158.6577 H   0  0  0  0  0  0  0  0  0  0  0  0
  151.6897  143.3337  157.8401 H   0  0  0  0  0  0  0  0  0  0  0  0
  151.8258  139.5477  158.6381 H   0  0  0  0  0  0  0  0  0  0  0  0
  150.8659  139.9478  153.7044 H   0  0  0  0  0  0  0  0  0  0  0  0
  150.5321  137.5603  153.2449 H   0  0  0  0  0  0  0  0  0  0  0  0
  150.1645  137.2429  154.9357 H   0  0  0  0  0  0  0  0  0  0  0  0
  151.7726  137.7773  154.4601 H   0  0  0  0  0  0  0  0  0  0  0  0
  148.2003  139.3090  154.9852 H   0  0  0  0  0  0  0  0  0  0  0  0
  148.8144  141.7019  154.9033 H   0  0  0  0  0  0  0  0  0  0  0  0
  147.4213  141.3356  153.8978 H   0  0  0  0  0  0  0  0  0  0  0  0
  148.9882  141.6077  153.1519 H   0  0  0  0  0  0  0  0  0  0  0  0
  148.6936  139.4538  152.1236 H   0  0  0  0  0  0  0  0  0  0  0  0
  146.3329  138.5212  153.5961 H   0  0  0  0  0  0  0  0  0  0  0  0
  146.4849  139.9587  152.6242 H   0  0  0  0  0  0  0  0  0  0  0  0
  145.2101  137.3475  153.6541 H   0  0  0  0  0  0  0  0  0  0  0  0
  143.8265  136.8108  152.7377 H   0  0  0  0  0  0  0  0  0  0  0  0
  146.4174  135.2019  153.1687 H   0  0  0  0  0  0  0  0  0  0  0  0
  144.8742  134.8874  153.9407 H   0  0  0  0  0  0  0  0  0  0  0  0
  146.5531  134.8535  150.7130 H   0  0  0  0  0  0  0  0  0  0  0  0
  145.3428  134.2446  148.6049 H   0  0  0  0  0  0  0  0  0  0  0  0
  143.8715  133.9590  149.5310 H   0  0  0  0  0  0  0  0  0  0  0  0
  145.2829  132.9345  149.7794 H   0  0  0  0  0  0  0  0  0  0  0  0
  143.9346  136.4250  150.3895 H   0  0  0  0  0  0  0  0  0  0  0  0
  145.3682  136.7007  149.4558 H   0  0  0  0  0  0  0  0  0  0  0  0
  150.2331  142.0268  155.5061 H   0  0  0  0  0  0  0  0  0  0  0  0
  148.6732  138.0185  152.9117 H   0  0  0  0  0  0  0  0  0  0  0  0
  1  2  1  0  0  0  0
  1 22  1  0  0  0  0
  1 23  1  0  0  0  0
  1 24  1  0  0  0  0
  2 21  2  0  0  0  0
  2  3  1  0  0  0  0
  3  4  2  0  0  0  0
  3 25  1  0  0  0  0
  4  5  1  0  0  0  0
  5  6  1  0  0  0  0
  5 21  1  0  0  0  0
  6  7  1  0  0  0  0
  6  8  1  0  0  0  0
  6 26  1  0  0  0  0
  7 27  1  0  0  0  0
  7 28  1  0  0  0  0
  7 29  1  0  0  0  0
  8  9  1  0  0  0  0
  8 10  1  0  0  0  0
  8 30  1  0  0  0  0
  9 31  1  0  0  0  0
  9 32  1  0  0  0  0
  9 33  1  0  0  0  0
 10 11  1  0  0  0  0
 10 34  1  0  0  0  0
 10 48  1  0  0  0  0
 11 12  1  0  0  0  0
 11 35  1  0  0  0  0
 11 36  1  0  0  0  0
 12 13  2  0  0  0  0
 12 14  1  0  0  0  0
 14 20  1  0  0  0  0
 14 15  1  0  0  0  0
 15 16  1  0  0  0  0
 15 37  1  0  0  0  0
 15 38  1  0  0  0  0
 16 17  1  0  0  0  0
 16 39  1  0  0  0  0
 16 40  1  0  0  0  0
 17 18  1  0  0  0  0
 18 19  1  0  0  0  0
 18 20  1  0  0  0  0
 18 41  1  0  0  0  0
 19 42  1  0  0  0  0
 19 43  1  0  0  0  0
 19 44  1  0  0  0  0
 20 45  1  0  0  0  0
 20 46  1  0  0  0  0
 21 47  1  0  0  0  0
M  CHG  1  10   1
M  END
> <s_m_source_file>
AV-unprocessed.smi

> <i_m_source_file_index>
3056

> <i_lp_mmshare_version>
43012

> <i_f3d_flags>
0

> <s_epik_input>
W0NIM11jMVtjSF1ubihbY0hdMSlbQ0BIXShbQ0gzXSlbQ0BIXShbQ0gzXSlbTkhdW0NIMl1DKD1PKU4yW0NIMl1bQ0gyXU9bQ0BASF0oW0NIM10pW0NIMl0y

> <s_epik_cmdline>
J2VwaWtfcHl0aG9uJywgJy1waCcsICc3LjAnLCAnLXRuJywgJzgnLCAnLW1hJywgJzIwMCcsICctbWV0YWxfYmluZGluZycsICctaW1hZScsICc8aW5maWxlLm1hZT4nLCAnLW9tYWUnLCAnPG91dGZpbGUubWFlPic=

> <r_lp_tautomer_probability>
1

> <r_epik_Ionization_Penalty>
0.233715

> <r_epik_Ionization_Penalty_Charging>
0.233698

> <r_epik_Ionization_Penalty_Neutral>
1.68157e-05

> <r_epik_State_Penalty>
0.225221

> <r_epik_Charging_Adjusted_Penalty>
0.458919

> <i_epik_Tot_Q>
1

> <i_epik_Tot_abs_Q>
1

> <r_epik_Metal_State_Penalty>
0.225535

> <b_epik_Metal_Only>
0

> <s_lp_Force_Field>
OPLS_2005

> <r_lp_Energy>
30.0079

> <b_lp_Chiralities_Consistent>
1

> <s_lp_Variant>
AV-unprocessed.smi:3056-4

> <Gold.Version>
5.8.1

> <Gold.Id.Protein>
6NUR|6NUR_protein|mol2

> <Gold.PLP.Fitness>
50.8512

> <Gold.PLP.PLP>
-38.7947

> <Gold.PLP.part.hbond>
-3.0000

> <Gold.PLP.part.metal>
0.0000

> <Gold.PLP.part.buried>
-0.9338

> <Gold.PLP.part.nonpolar>
-36.8144

> <Gold.PLP.part.repulsive>
1.8194

> <Gold.PLP.ligand.clash>
0.0000

> <Gold.PLP.ligand.torsion>
0.3506

> <Gold.PLP.Chemscore.Hbond>
3.4522

> <Gold.PLP.Chemscore.CHOScore>
0.7137

> <Gold.PLP.Chemscore.Metal>
0.0000

> <Gold.Chemscore.Hbonds>
donor molecule, donor type, donor heavy atom, donor atom, acceptor molecule, acceptor atom, score
      L1  H    10    34       P1  7957  0.76
      L1  H    10    48       P1  7948  1.75
      P1  H  7954  7966       L1    13  0.48

> <Gold.PLP.Chemscore.Internal.Correction>
0.2600

> <Gold.Rescore>
     Score         DG    S(hbond)    S(metal)    S(lipo)     H(rot)  DE(clash)    DE(int)     intcor
     18.48     -20.32       2.69        0.00      88.00       1.74       0.81       1.04       ----

> <Gold.Chemscore.Fitness>
18.4779

> <Gold.Chemscore.DG>
-20.3237

> <Gold.Chemscore.ZeroCoef>
-5.4800

> <Gold.Chemscore.Hbond>
2.6918

> <Gold.Chemscore.Metal>
0.0000

> <Gold.Chemscore.Lipo>
87.9965

> <Gold.Chemscore.Internal_Hbond>
0.0000

> <Gold.Chemscore.DEClash>
0.8097

> <Gold.Chemscore.DEInternal>
1.0361

> <Gold.Chemscore.Rot>
1.7354

> <Gold.Chemscore.Internal.Correction>
   9.000000E+99

> <Gold.Chemscore.Hbonds>
donor molecule, donor type, donor heavy atom, donor atom, acceptor molecule, acceptor atom, score
      L1  H    10    34       P1  7957  0.77
      L1  H    10    48       P1  7948  0.80
      P1  H  7954  7966       L1    13  0.48

> <Gold.Chemscore.Hbond.Weighted>
-8.9907

> <Gold.Chemscore.Metal.Weighted>
-0.0000

> <Gold.Chemscore.Lipo.Weighted>
-10.2956

> <Gold.Chemscore.Internal_Hbond.Weighted>
0.0000

> <Gold.Chemscore.DEClash.Weighted>
0.8097

> <Gold.Chemscore.DEInternal.Weighted>
1.0361

> <Gold.Chemscore.Rot.Weighted>
4.4426

> <Gold.Chemscore.Internal.Correction.Weighted>
   9.000000E+99

> <Gold.Protein.RotatedTorsions>
[ 6907 6896 6895 6894 ] final  114.89 input  -60.11 | X-H torsion
[ 7974 7965 7964 7962 ] final  168.31 input  175.53 | X-H torsion
[ 8008 7997 7996 7995 ] final  -15.36 input   59.86 | X-H torsion
[ 10167 10162 10161 10158 ] final  -97.10 input  -65.29 | X-H torsion
[ 10718 10713 10712 10709 ] final  -55.83 input   66.30 | X-H torsion
[ 10763 10752 10751 10750 ] final  -99.88 input  -60.55 | X-H torsion
[ 11005 11000 10999 10996 ] final  -14.24 input  -57.11 | X-H torsion

> <Gold.Protein.ActiveResidues>
 VAL166  LYS551  ARG553  GLY616  TRP617  ASP618  TYR619  PRO620  LYS621  CYS622 
 ASP623  PHE694  ASN695  SER759  ASP760  ASP761  ALA762  ILE779  LEU786  VAL792 
 PHE793  MET794  SER795  GLU796  ALA797  LYS798  CYS799  TRP800  GLU811  SER814 

> <Gold.Protein.RotatedAtoms>
  152.4775  133.8173  159.7034 H   0  0  0  0  0  0  0  0  0  0  0  0  # atno 6907 bound_to 6896
  150.8802  133.7374  159.2941 H   0  0  0  0  0  0  0  0  0  0  0  0  # atno 6908 bound_to 6896
  151.4880  135.1059  159.9848 H   0  0  0  0  0  0  0  0  0  0  0  0  # atno 6909 bound_to 6896
  144.7393  139.8889  143.6401 H   0  0  0  0  0  0  0  0  0  0  0  0  # atno 7974 bound_to 7965
  154.5136  140.2198  155.9108 H   0  0  0  0  0  0  0  0  0  0  0  0  # atno 8008 bound_to 7997
  156.1581  140.3148  155.8727 H   0  0  0  0  0  0  0  0  0  0  0  0  # atno 8009 bound_to 7997
  155.3805  140.0472  157.3034 H   0  0  0  0  0  0  0  0  0  0  0  0  # atno 8010 bound_to 7997
  140.2870  143.3246  152.0384 H   0  0  0  0  0  0  0  0  0  0  0  0  # atno 10167 bound_to 10162
  156.1337  130.4158  150.0223 H   0  0  0  0  0  0  0  0  0  0  0  0  # atno 10718 bound_to 10713
  154.7534  135.4955  153.9331 H   0  0  0  0  0  0  0  0  0  0  0  0  # atno 10763 bound_to 10752
  153.1169  135.6722  153.9410 H   0  0  0  0  0  0  0  0  0  0  0  0  # atno 10764 bound_to 10752
  153.9154  135.3094  155.3427 H   0  0  0  0  0  0  0  0  0  0  0  0  # atno 10765 bound_to 10752
  140.7844  133.8337  155.9321 H   0  0  0  0  0  0  0  0  0  0  0  0  # atno 11005 bound_to 11000
  146.1157  139.4167  143.0260 LP  0  0  0  0  0  0  0  0  0  0  0  0  # atno 17320 bound_to 7965
  145.7379  141.0019  143.1317 LP  0  0  0  0  0  0  0  0  0  0  0  0  # atno 17321 bound_to 7965
  139.4948  144.6552  151.6588 LP  0  0  0  0  0  0  0  0  0  0  0  0  # atno 17342 bound_to 10162
  140.5764  144.0021  150.6244 LP  0  0  0  0  0  0  0  0  0  0  0  0  # atno 17343 bound_to 10162
  156.8128  130.9331  151.3643 LP  0  0  0  0  0  0  0  0  0  0  0  0  # atno 17370 bound_to 10713
  157.6512  130.8886  149.9637 LP  0  0  0  0  0  0  0  0  0  0  0  0  # atno 17371 bound_to 10713
  140.9451  134.1851  157.4769 LP  0  0  0  0  0  0  0  0  0  0  0  0  # atno 17394 bound_to 11000
  139.8738  134.9887  156.5425 LP  0  0  0  0  0  0  0  0  0  0  0  0  # atno 17395 bound_to 11000

$$$$
