AV-unprocessed.smi:194|AV-procd|sdf|1522|dock3
  -GOLD-   2262019363D 1   1.00000     0.00000
 Structure written by MMmdl.
 53 55  0  0  0  0  0  0  0  0  1 V2000
  148.8942  141.3135  154.9314 C   0  0  0  0  0  0  0  0  0  0  0  0
  148.5960  139.9958  155.6653 C   0  0  2  0  0  0  0  0  0  0  0  0
  149.5122  138.8568  155.1680 C   0  0  0  0  0  0  0  0  0  0  0  0
  151.2707  139.1754  155.6815 S   0  0  2  0  0  0  0  0  0  0  0  0
  151.5610  137.6207  156.6509 C   0  0  0  0  0  0  0  0  0  0  0  0
  151.2362  140.3286  156.6862 O   0  0  0  0  0  0  0  0  0  0  0  0
  147.1695  139.6562  155.5690 N   0  0  0  0  0  0  0  0  0  0  0  0
  146.3132  139.6867  156.7511 C   0  0  0  0  0  0  0  0  0  0  0  0
  146.7441  138.9584  154.4835 C   0  0  0  0  0  0  0  0  0  0  0  0
  147.2836  139.2675  153.2751 N   0  0  0  0  0  0  0  0  0  0  0  0
  146.8933  138.6240  152.1722 C   0  0  0  0  0  0  0  0  0  0  0  0
  145.9884  137.6522  152.0514 N   0  0  0  0  0  0  0  0  0  0  0  0
  145.4383  137.3342  153.2579 C   0  0  0  0  0  0  0  0  0  0  0  0
  145.7591  137.9266  154.5138 C   0  0  0  0  0  0  0  0  0  0  0  0
  145.0151  137.3184  155.5191 N   0  0  0  0  0  0  0  0  0  0  0  0
  144.2936  136.4296  154.8945 C   0  0  0  0  0  0  0  0  0  0  0  0
  144.4683  136.3842  153.5302 N   0  0  0  0  0  0  0  0  0  0  0  0
  143.7969  135.4889  152.5993 C   0  0  0  0  0  0  0  0  0  0  0  0
  144.7060  134.4395  151.8894 C   0  0  0  0  0  0  0  0  0  0  0  0
  145.7014  135.1321  150.9099 C   0  0  0  0  0  0  0  0  0  0  0  0
  145.0717  135.9030  149.9061 O   0  0  0  0  0  0  0  0  0  0  0  0
  145.4417  133.5492  152.9238 C   0  0  0  0  0  0  0  0  0  0  0  0
  146.0852  132.3071  152.2844 C   0  0  0  0  0  0  0  0  0  0  0  0
  145.0883  131.5357  151.6268 O   0  0  0  0  0  0  0  0  0  0  0  0
  144.4655  132.2357  150.5578 C   0  0  0  0  0  0  0  0  0  0  0  0
  143.7663  133.5040  151.0858 C   0  0  0  0  0  0  0  0  0  0  0  0
  149.9338  141.6111  155.0703 H   0  0  0  0  0  0  0  0  0  0  0  0
  148.2680  142.1227  155.3086 H   0  0  0  0  0  0  0  0  0  0  0  0
  148.7169  141.2259  153.8592 H   0  0  0  0  0  0  0  0  0  0  0  0
  148.8547  140.1822  156.7063 H   0  0  0  0  0  0  0  0  0  0  0  0
  149.1957  137.8976  155.5768 H   0  0  0  0  0  0  0  0  0  0  0  0
  149.4695  138.7632  154.0825 H   0  0  0  0  0  0  0  0  0  0  0  0
  151.4770  136.7386  156.0180 H   0  0  0  0  0  0  0  0  0  0  0  0
  150.8405  137.5385  157.4645 H   0  0  0  0  0  0  0  0  0  0  0  0
  152.5631  137.6353  157.0791 H   0  0  0  0  0  0  0  0  0  0  0  0
  145.2600  139.7180  156.4700 H   0  0  0  0  0  0  0  0  0  0  0  0
  146.5109  140.5684  157.3589 H   0  0  0  0  0  0  0  0  0  0  0  0
  146.4800  138.8058  157.3713 H   0  0  0  0  0  0  0  0  0  0  0  0
  147.3733  138.9334  151.2555 H   0  0  0  0  0  0  0  0  0  0  0  0
  143.5994  135.7850  155.4138 H   0  0  0  0  0  0  0  0  0  0  0  0
  143.0028  134.9837  153.1511 H   0  0  0  0  0  0  0  0  0  0  0  0
  143.2902  136.1034  151.8538 H   0  0  0  0  0  0  0  0  0  0  0  0
  146.3732  135.8082  151.4353 H   0  0  0  0  0  0  0  0  0  0  0  0
  146.3382  134.3890  150.4286 H   0  0  0  0  0  0  0  0  0  0  0  0
  145.4866  135.7160  149.0779 H   0  0  0  0  0  0  0  0  0  0  0  0
  146.1985  134.1152  153.4670 H   0  0  0  0  0  0  0  0  0  0  0  0
  144.7288  133.2081  153.6755 H   0  0  0  0  0  0  0  0  0  0  0  0
  146.8771  132.5811  151.5860 H   0  0  0  0  0  0  0  0  0  0  0  0
  146.5476  131.6914  153.0562 H   0  0  0  0  0  0  0  0  0  0  0  0
  145.1968  132.4656  149.7830 H   0  0  0  0  0  0  0  0  0  0  0  0
  143.7301  131.5761  150.0970 H   0  0  0  0  0  0  0  0  0  0  0  0
  142.9405  133.1833  151.7225 H   0  0  0  0  0  0  0  0  0  0  0  0
  143.3104  134.0457  150.2560 H   0  0  0  0  0  0  0  0  0  0  0  0
  1  2  1  0  0  0  0
  1 27  1  0  0  0  0
  1 28  1  0  0  0  0
  1 29  1  0  0  0  0
  2  3  1  0  0  0  0
  2  7  1  0  0  0  0
  2 30  1  0  0  0  0
  3  4  1  0  0  0  0
  3 31  1  0  0  0  0
  3 32  1  0  0  0  0
  4  5  1  0  0  0  0
  4  6  2  0  0  0  0
  5 33  1  0  0  0  0
  5 34  1  0  0  0  0
  5 35  1  0  0  0  0
  7  8  1  0  0  0  0
  7  9  1  0  0  0  0
  8 36  1  0  0  0  0
  8 37  1  0  0  0  0
  8 38  1  0  0  0  0
  9 14  1  0  0  0  0
  9 10  2  0  0  0  0
 10 11  1  0  0  0  0
 11 12  2  0  0  0  0
 11 39  1  0  0  0  0
 12 13  1  0  0  0  0
 13 17  1  0  0  0  0
 13 14  2  0  0  0  0
 14 15  1  0  0  0  0
 15 16  2  0  0  0  0
 16 17  1  0  0  0  0
 16 40  1  0  0  0  0
 17 18  1  0  0  0  0
 18 19  1  0  0  0  0
 18 41  1  0  0  0  0
 18 42  1  0  0  0  0
 19 26  1  0  0  0  0
 19 20  1  0  0  0  0
 19 22  1  0  0  0  0
 20 21  1  0  0  0  0
 20 43  1  0  0  0  0
 20 44  1  0  0  0  0
 21 45  1  0  0  0  0
 22 23  1  0  0  0  0
 22 46  1  0  0  0  0
 22 47  1  0  0  0  0
 23 24  1  0  0  0  0
 23 48  1  0  0  0  0
 23 49  1  0  0  0  0
 24 25  1  0  0  0  0
 25 26  1  0  0  0  0
 25 50  1  0  0  0  0
 25 51  1  0  0  0  0
 26 52  1  0  0  0  0
 26 53  1  0  0  0  0
M  END
> <s_m_source_file>
AV-unprocessed.smi

> <i_m_source_file_index>
194

> <i_lp_mmshare_version>
43012

> <i_f3d_flags>
0

> <s_epik_input>
W0NIM11bU0BAXSg9TylbQ0gyXVtDQEBIXShbQ0gzXSlOKFtDSDNdKWMobltjSF1uMSljKGMxMiluW2NIXW4yW0NIMl1DMyhbQ0gyXVtPSF0pW0NIMl1bQ0gyXU9bQ0gyXVtDSDJdMw==

> <s_epik_cmdline>
J2VwaWtfcHl0aG9uJywgJy1waCcsICc3LjAnLCAnLXRuJywgJzgnLCAnLW1hJywgJzIwMCcsICctbWV0YWxfYmluZGluZycsICctaW1hZScsICc8aW5maWxlLm1hZT4nLCAnLW9tYWUnLCAnPG91dGZpbGUubWFlPic=

> <r_lp_tautomer_probability>
1

> <r_epik_Ionization_Penalty>
0.00101625

> <r_epik_Ionization_Penalty_Charging>
0

> <r_epik_Ionization_Penalty_Neutral>
0.00101625

> <r_epik_State_Penalty>
0.000568005

> <r_epik_Charging_Adjusted_Penalty>
0.000568005

> <i_epik_Tot_Q>
0

> <i_epik_Tot_abs_Q>
0

> <r_epik_Metal_State_Penalty>
-0

> <b_epik_Metal_Only>
0

> <s_lp_Force_Field>
OPLS_2005

> <r_lp_Energy>
28.7742

> <b_lp_Chiralities_Consistent>
1

> <s_lp_Variant>
AV-unprocessed.smi:194-3

> <Gold.Version>
5.8.1

> <Gold.Id.Protein>
6NUR|6NUR_protein|mol2

> <Gold.PLP.Fitness>
38.9008

> <Gold.PLP.PLP>
-35.2369

> <Gold.PLP.part.hbond>
-2.0000

> <Gold.PLP.part.metal>
0.0000

> <Gold.PLP.part.buried>
-6.6963

> <Gold.PLP.part.nonpolar>
-27.8585

> <Gold.PLP.part.repulsive>
1.1932

> <Gold.PLP.ligand.clash>
0.0000

> <Gold.PLP.ligand.torsion>
0.9354

> <Gold.PLP.Chemscore.Hbond>
1.0000

> <Gold.PLP.Chemscore.CHOScore>
0.6367

> <Gold.PLP.Chemscore.Metal>
0.0000

> <Gold.Chemscore.Hbonds>
donor molecule, donor type, donor heavy atom, donor atom, acceptor molecule, acceptor atom, score
      L1  H    21    45       P1  7921  1.00
      L1  C    11    39       P1  7957  0.91

> <Gold.PLP.Chemscore.Internal.Correction>
0.6248

> <Gold.Rescore>
     Score         DG    S(hbond)    S(metal)    S(lipo)     H(rot)  DE(clash)    DE(int)     intcor
      4.07      -8.45       1.00        0.00      63.15       3.03       0.10       4.28       ----

> <Gold.Chemscore.Fitness>
4.0655

> <Gold.Chemscore.DG>
-8.4522

> <Gold.Chemscore.ZeroCoef>
-5.4800

> <Gold.Chemscore.Hbond>
0.9997

> <Gold.Chemscore.Metal>
0.0000

> <Gold.Chemscore.Lipo>
63.1518

> <Gold.Chemscore.Internal_Hbond>
0.0000

> <Gold.Chemscore.DEClash>
0.1049

> <Gold.Chemscore.DEInternal>
4.2818

> <Gold.Chemscore.Rot>
3.0295

> <Gold.Chemscore.Internal.Correction>
   9.000000E+99

> <Gold.Chemscore.Hbonds>
donor molecule, donor type, donor heavy atom, donor atom, acceptor molecule, acceptor atom, score
      L1  H    21    45       P1  7921  1.00

> <Gold.Chemscore.Hbond.Weighted>
-3.3390

> <Gold.Chemscore.Metal.Weighted>
-0.0000

> <Gold.Chemscore.Lipo.Weighted>
-7.3888

> <Gold.Chemscore.Internal_Hbond.Weighted>
0.0000

> <Gold.Chemscore.DEClash.Weighted>
0.1049

> <Gold.Chemscore.DEInternal.Weighted>
4.2818

> <Gold.Chemscore.Rot.Weighted>
7.7555

> <Gold.Chemscore.Internal.Correction.Weighted>
   9.000000E+99

> <Gold.Protein.RotatedTorsions>
[ 6907 6896 6895 6894 ] final   41.78 input  -60.11 | X-H torsion
[ 7974 7965 7964 7962 ] final   85.58 input  175.53 | X-H torsion
[ 8008 7997 7996 7995 ] final -174.50 input   59.86 | X-H torsion
[ 10167 10162 10161 10158 ] final  162.34 input  -65.29 | X-H torsion
[ 10718 10713 10712 10709 ] final  155.41 input   66.30 | X-H torsion
[ 10763 10752 10751 10750 ] final   44.75 input  -60.55 | X-H torsion
[ 11005 11000 10999 10996 ] final  -54.69 input  -57.11 | X-H torsion

> <Gold.Protein.ActiveResidues>
 VAL166  LYS551  ARG553  GLY616  TRP617  ASP618  TYR619  PRO620  LYS621  CYS622 
 ASP623  PHE694  ASN695  SER759  ASP760  ASP761  ALA762  ILE779  LEU786  VAL792 
 PHE793  MET794  SER795  GLU796  ALA797  LYS798  CYS799  TRP800  GLU811  SER814 

> <Gold.Protein.RotatedAtoms>
  152.1995  134.8600  160.0509 H   0  0  0  0  0  0  0  0  0  0  0  0  # atno 6907 bound_to 6896
  151.9459  133.3646  159.3990 H   0  0  0  0  0  0  0  0  0  0  0  0  # atno 6908 bound_to 6896
  150.6952  134.4315  159.5294 H   0  0  0  0  0  0  0  0  0  0  0  0  # atno 6909 bound_to 6896
  145.5836  139.2328  143.2339 H   0  0  0  0  0  0  0  0  0  0  0  0  # atno 7974 bound_to 7965
  155.9709  140.1163  157.0813 H   0  0  0  0  0  0  0  0  0  0  0  0  # atno 8008 bound_to 7997
  154.4156  140.1163  156.5373 H   0  0  0  0  0  0  0  0  0  0  0  0  # atno 8009 bound_to 7997
  155.6597  140.3473  155.4780 H   0  0  0  0  0  0  0  0  0  0  0  0  # atno 8010 bound_to 7997
  139.4859  144.4447  151.8907 H   0  0  0  0  0  0  0  0  0  0  0  0  # atno 10167 bound_to 10162
  157.2187  131.0713  151.1925 H   0  0  0  0  0  0  0  0  0  0  0  0  # atno 10718 bound_to 10713
  152.9836  135.6061  154.3325 H   0  0  0  0  0  0  0  0  0  0  0  0  # atno 10763 bound_to 10752
  154.3027  135.2772  155.2605 H   0  0  0  0  0  0  0  0  0  0  0  0  # atno 10764 bound_to 10752
  154.4850  135.5907  153.6473 H   0  0  0  0  0  0  0  0  0  0  0  0  # atno 10765 bound_to 10752
  141.1038  133.6615  156.4358 H   0  0  0  0  0  0  0  0  0  0  0  0  # atno 11005 bound_to 11000
  146.1698  140.6662  142.9238 LP  0  0  0  0  0  0  0  0  0  0  0  0  # atno 17320 bound_to 7965
  144.7383  140.4870  143.6888 LP  0  0  0  0  0  0  0  0  0  0  0  0  # atno 17321 bound_to 7965
  140.3901  144.2627  150.5900 LP  0  0  0  0  0  0  0  0  0  0  0  0  # atno 17342 bound_to 10162
  140.5154  143.2279  151.8471 LP  0  0  0  0  0  0  0  0  0  0  0  0  # atno 17343 bound_to 10162
  157.3598  130.7125  149.6494 LP  0  0  0  0  0  0  0  0  0  0  0  0  # atno 17370 bound_to 10713
  155.9684  130.4229  150.4536 LP  0  0  0  0  0  0  0  0  0  0  0  0  # atno 17371 bound_to 10713
  140.4955  134.6535  157.5228 LP  0  0  0  0  0  0  0  0  0  0  0  0  # atno 17394 bound_to 11000
  139.9899  134.7001  155.9707 LP  0  0  0  0  0  0  0  0  0  0  0  0  # atno 17395 bound_to 11000

$$$$
