AV-unprocessed.smi:2401|AV-procd|sdf|9504|dock7
  -GOLD-   2272013133D 1   1.00000     0.00000
 Structure written by MMmdl.
 34 35  0  0  0  0  0  0  0  0  1 V2000
  152.2044  144.3863  160.0429 C   0  0  0  0  0  0  0  0  0  0  0  0
  151.8633  143.2699  159.0716 C   0  0  0  0  0  0  0  0  0  0  0  0
  150.7702  143.5108  158.2344 N   0  0  0  0  0  0  0  0  0  0  0  0
  150.4037  142.6140  157.3781 C   0  0  0  0  0  0  0  0  0  0  0  0
  151.0789  141.3883  157.2589 N   0  0  0  0  0  0  0  0  0  0  0  0
  150.5533  140.4483  156.2543 C   0  0  0  0  0  0  0  0  0  0  0  0
  149.9037  141.1762  155.0564 C   0  0  1  0  0  0  0  0  0  0  0  0
  150.0665  140.3789  153.8998 O   0  0  0  0  0  0  0  0  0  0  0  0
  148.4351  141.4667  155.3257 C   0  0  0  0  0  0  0  0  0  0  0  0
  147.6125  142.0216  154.3202 C   0  0  0  0  0  0  0  0  0  0  0  0
  146.2526  142.2813  154.5785 C   0  0  0  0  0  0  0  0  0  0  0  0
  145.7059  141.9851  155.8421 C   0  0  0  0  0  0  0  0  0  0  0  0
  144.0402  142.3042  156.1588 Cl  0  0  0  0  0  0  0  0  0  0  0  0
  146.5200  141.4265  156.8463 C   0  0  0  0  0  0  0  0  0  0  0  0
  147.8800  141.1667  156.5883 C   0  0  0  0  0  0  0  0  0  0  0  0
  152.1528  141.0712  158.0388 C   0  0  0  0  0  0  0  0  0  0  0  0
  152.7309  139.9876  157.9335 O   0  0  0  0  0  0  0  0  0  0  0  0
  152.5600  142.1026  159.0065 C   0  0  0  0  0  0  0  0  0  0  0  0
  153.7583  141.7843  159.8921 C   0  0  0  0  0  0  0  0  0  0  0  0
  153.2221  144.7407  159.8773 H   0  0  0  0  0  0  0  0  0  0  0  0
  152.1194  144.0356  161.0719 H   0  0  0  0  0  0  0  0  0  0  0  0
  151.5314  145.2363  159.9236 H   0  0  0  0  0  0  0  0  0  0  0  0
  149.5545  142.7503  156.7060 H   0  0  0  0  0  0  0  0  0  0  0  0
  151.3091  139.7392  155.9091 H   0  0  0  0  0  0  0  0  0  0  0  0
  149.8035  139.8229  156.7430 H   0  0  0  0  0  0  0  0  0  0  0  0
  150.4083  142.1259  154.8729 H   0  0  0  0  0  0  0  0  0  0  0  0
  149.5415  140.7482  153.2060 H   0  0  0  0  0  0  0  0  0  0  0  0
  148.0215  142.2484  153.3464 H   0  0  0  0  0  0  0  0  0  0  0  0
  145.6300  142.7073  153.8055 H   0  0  0  0  0  0  0  0  0  0  0  0
  146.1028  141.1956  157.8156 H   0  0  0  0  0  0  0  0  0  0  0  0
  148.4951  140.7349  157.3644 H   0  0  0  0  0  0  0  0  0  0  0  0
  153.5590  140.8924  160.4870 H   0  0  0  0  0  0  0  0  0  0  0  0
  154.0093  142.5887  160.5814 H   0  0  0  0  0  0  0  0  0  0  0  0
  154.6387  141.5926  159.2779 H   0  0  0  0  0  0  0  0  0  0  0  0
  1  2  1  0  0  0  0
  1 20  1  0  0  0  0
  1 21  1  0  0  0  0
  1 22  1  0  0  0  0
  2 18  2  0  0  0  0
  2  3  1  0  0  0  0
  3  4  2  0  0  0  0
  4  5  1  0  0  0  0
  4 23  1  0  0  0  0
  5  6  1  0  0  0  0
  5 16  1  0  0  0  0
  6  7  1  0  0  0  0
  6 24  1  0  0  0  0
  6 25  1  0  0  0  0
  7  8  1  0  0  0  0
  7  9  1  0  0  0  0
  7 26  1  0  0  0  0
  8 27  1  0  0  0  0
  9 15  1  0  0  0  0
  9 10  2  0  0  0  0
 10 11  1  0  0  0  0
 10 28  1  0  0  0  0
 11 12  2  0  0  0  0
 11 29  1  0  0  0  0
 12 13  1  0  0  0  0
 12 14  1  0  0  0  0
 14 15  2  0  0  0  0
 14 30  1  0  0  0  0
 15 31  1  0  0  0  0
 16 17  2  0  0  0  0
 16 18  1  0  0  0  0
 18 19  1  0  0  0  0
 19 32  1  0  0  0  0
 19 33  1  0  0  0  0
 19 34  1  0  0  0  0
M  END
> <s_m_source_file>
AV-unprocessed.smi

> <i_m_source_file_index>
2401

> <i_lp_mmshare_version>
43012

> <i_f3d_flags>
0

> <s_epik_input>
W0NIM11jMW5bY0hdbihjKD1PKWMxW0NIM10pW0NIMl1bQ0BIXShbT0hdKWMyW2NIXVtjSF1jKENsKVtjSF1bY0hdMg==

> <s_epik_cmdline>
J2VwaWtfcHl0aG9uJywgJy1waCcsICc3LjAnLCAnLXRuJywgJzgnLCAnLW1hJywgJzIwMCcsICctbWV0YWxfYmluZGluZycsICctaW1hZScsICc8aW5maWxlLm1hZT4nLCAnLW9tYWUnLCAnPG91dGZpbGUubWFlPic=

> <r_lp_tautomer_probability>
1

> <r_epik_Ionization_Penalty>
5.07713e-05

> <r_epik_Ionization_Penalty_Charging>
7.56727e-08

> <r_epik_Ionization_Penalty_Neutral>
5.06957e-05

> <r_epik_State_Penalty>
-0

> <r_epik_Charging_Adjusted_Penalty>
7.56727e-08

> <i_epik_Tot_Q>
0

> <i_epik_Tot_abs_Q>
0

> <r_epik_Metal_State_Penalty>
-0

> <b_epik_Metal_Only>
0

> <s_lp_Force_Field>
OPLS_2005

> <r_lp_Energy>
18.5783

> <b_lp_Chiralities_Consistent>
1

> <s_lp_Variant>
AV-unprocessed.smi:2401-2

> <Gold.Version>
5.8.1

> <Gold.Id.Protein>
6NUR|6NUR_protein|mol2

> <Gold.PLP.Fitness>
45.1754

> <Gold.PLP.PLP>
-37.7329

> <Gold.PLP.part.hbond>
-2.8505

> <Gold.PLP.part.metal>
0.0000

> <Gold.PLP.part.buried>
-3.1427

> <Gold.PLP.part.nonpolar>
-31.8372

> <Gold.PLP.part.repulsive>
0.1421

> <Gold.PLP.ligand.clash>
0.0000

> <Gold.PLP.ligand.torsion>
0.8009

> <Gold.PLP.Chemscore.Hbond>
2.0722

> <Gold.PLP.Chemscore.CHOScore>
0.9400

> <Gold.PLP.Chemscore.Metal>
0.0000

> <Gold.Chemscore.Hbonds>
donor molecule, donor type, donor heavy atom, donor atom, acceptor molecule, acceptor atom, score
      L1  H     8    27       P1  7957  0.31
      P1  H  7989  7998       L1     8  0.71
      P1  H  7997  8010       L1    17  0.94
      L1  C     4    23       P1  8028  0.94

> <Gold.PLP.Chemscore.Internal.Correction>
0.0077

> <Gold.Rescore>
     Score         DG    S(hbond)    S(metal)    S(lipo)     H(rot)  DE(clash)    DE(int)     intcor
     13.66     -14.80       1.50        0.00      78.96       1.93       0.28       0.87       ----

> <Gold.Chemscore.Fitness>
13.6561

> <Gold.Chemscore.DG>
-14.7983

> <Gold.Chemscore.ZeroCoef>
-5.4800

> <Gold.Chemscore.Hbond>
1.5005

> <Gold.Chemscore.Metal>
0.0000

> <Gold.Chemscore.Lipo>
78.9590

> <Gold.Chemscore.Internal_Hbond>
0.0000

> <Gold.Chemscore.DEClash>
0.2753

> <Gold.Chemscore.DEInternal>
0.8669

> <Gold.Chemscore.Rot>
1.9265

> <Gold.Chemscore.Internal.Correction>
   9.000000E+99

> <Gold.Chemscore.Hbonds>
donor molecule, donor type, donor heavy atom, donor atom, acceptor molecule, acceptor atom, score
      L1  H     8    27       P1  7957  0.31
      P1  H  7989  7998       L1     8  0.06
      P1  H  7997  8010       L1    17  0.80

> <Gold.Chemscore.Hbond.Weighted>
-5.0118

> <Gold.Chemscore.Metal.Weighted>
-0.0000

> <Gold.Chemscore.Lipo.Weighted>
-9.2382

> <Gold.Chemscore.Internal_Hbond.Weighted>
0.0000

> <Gold.Chemscore.DEClash.Weighted>
0.2753

> <Gold.Chemscore.DEInternal.Weighted>
0.8669

> <Gold.Chemscore.Rot.Weighted>
4.9317

> <Gold.Chemscore.Internal.Correction.Weighted>
   9.000000E+99

> <Gold.Protein.RotatedTorsions>
[ 6907 6896 6895 6894 ] final   59.48 input  -60.11 | X-H torsion
[ 7974 7965 7964 7962 ] final -173.43 input  175.53 | X-H torsion
[ 8008 7997 7996 7995 ] final   38.43 input   59.86 | X-H torsion
[ 10167 10162 10161 10158 ] final  -74.20 input  -65.29 | X-H torsion
[ 10718 10713 10712 10709 ] final  -68.24 input   66.30 | X-H torsion
[ 10763 10752 10751 10750 ] final  178.97 input  -60.55 | X-H torsion
[ 11005 11000 10999 10996 ] final -104.59 input  -57.11 | X-H torsion

> <Gold.Protein.ActiveResidues>
 VAL166  LYS551  ARG553  GLY616  TRP617  ASP618  TYR619  PRO620  LYS621  CYS622 
 ASP623  PHE694  ASN695  SER759  ASP760  ASP761  ALA762  ILE779  LEU786  VAL792 
 PHE793  MET794  SER795  GLU796  ALA797  LYS798  CYS799  TRP800  GLU811  SER814 

> <Gold.Protein.RotatedAtoms>
  152.3918  134.6428  160.0104 H   0  0  0  0  0  0  0  0  0  0  0  0  # atno 6907 bound_to 6896
  151.6660  133.3310  159.3193 H   0  0  0  0  0  0  0  0  0  0  0  0  # atno 6908 bound_to 6896
  150.7833  134.6840  159.6504 H   0  0  0  0  0  0  0  0  0  0  0  0  # atno 6909 bound_to 6896
  144.7138  140.1623  143.6375 H   0  0  0  0  0  0  0  0  0  0  0  0  # atno 7974 bound_to 7965
  155.2201  140.3330  155.4317 H   0  0  0  0  0  0  0  0  0  0  0  0  # atno 8008 bound_to 7997
  156.2337  140.1862  156.7224 H   0  0  0  0  0  0  0  0  0  0  0  0  # atno 8009 bound_to 7997
  154.6021  140.0621  156.9368 H   0  0  0  0  0  0  0  0  0  0  0  0  # atno 8010 bound_to 7997
  140.5047  143.2355  151.7694 H   0  0  0  0  0  0  0  0  0  0  0  0  # atno 10167 bound_to 10162
  156.0515  130.4291  150.1971 H   0  0  0  0  0  0  0  0  0  0  0  0  # atno 10718 bound_to 10713
  154.5146  135.2790  155.1314 H   0  0  0  0  0  0  0  0  0  0  0  0  # atno 10763 bound_to 10752
  154.2896  135.6269  153.5383 H   0  0  0  0  0  0  0  0  0  0  0  0  # atno 10764 bound_to 10752
  152.9925  135.5671  154.5619 H   0  0  0  0  0  0  0  0  0  0  0  0  # atno 10765 bound_to 10752
  141.1093  133.8736  157.1630 H   0  0  0  0  0  0  0  0  0  0  0  0  # atno 11005 bound_to 11000
  145.9019  139.2435  143.1488 LP  0  0  0  0  0  0  0  0  0  0  0  0  # atno 17320 bound_to 7965
  145.9802  140.8689  143.0118 LP  0  0  0  0  0  0  0  0  0  0  0  0  # atno 17321 bound_to 7965
  139.4880  144.4474  151.9694 LP  0  0  0  0  0  0  0  0  0  0  0  0  # atno 17342 bound_to 10162
  140.3564  144.3026  150.5940 LP  0  0  0  0  0  0  0  0  0  0  0  0  # atno 17343 bound_to 10162
  157.0054  130.9935  151.3380 LP  0  0  0  0  0  0  0  0  0  0  0  0  # atno 17370 bound_to 10713
  157.5446  130.8142  149.8071 LP  0  0  0  0  0  0  0  0  0  0  0  0  # atno 17371 bound_to 10713
  139.9979  135.0039  157.0123 LP  0  0  0  0  0  0  0  0  0  0  0  0  # atno 17394 bound_to 11000
  140.4818  134.1282  155.7218 LP  0  0  0  0  0  0  0  0  0  0  0  0  # atno 17395 bound_to 11000

$$$$
