AV-unprocessed.smi:2065|AV-procd|sdf|8417|dock4
  -GOLD-   2272011113D 1   1.00000     0.00000
 Structure written by MMmdl.
 38 39  0  0  0  0  0  0  0  0  1 V2000
  153.9381  141.4738  161.4458 C   0  0  0  0  0  0  0  0  0  0  0  0
  153.0806  142.1391  160.4104 C   0  0  0  0  0  0  0  0  0  0  0  0
  152.2372  141.5217  159.4417 C   0  0  0  0  0  0  0  0  0  0  0  0
  151.7059  142.5939  158.7784 C   0  0  0  0  0  0  0  0  0  0  0  0
  150.8190  142.6085  157.7486 N   0  0  0  0  0  0  0  0  0  0  0  0
  150.3734  141.5783  157.0090 C   0  0  0  0  0  0  0  0  0  0  0  0
  150.7121  140.4022  157.1439 O   0  0  0  0  0  0  0  0  0  0  0  0
  149.4997  141.9949  156.0813 N   0  0  0  0  0  0  0  0  0  0  0  0
  148.8043  141.1418  155.1180 C   0  0  2  0  0  0  0  0  0  0  0  0
  147.9478  141.9960  154.1481 C   0  0  0  0  0  0  0  0  0  0  0  0
  146.7506  141.2785  153.4904 C   0  0  0  0  0  0  0  0  0  0  0  0
  147.0838  139.9600  152.7631 C   0  0  0  0  0  0  0  0  0  0  0  0
  147.8086  138.8716  153.5914 C   0  0  0  0  0  0  0  0  0  0  0  0
  147.6110  138.9794  155.0364 N   0  0  0  0  0  0  0  0  0  0  0  0
  148.0603  139.9832  155.8094 C   0  0  0  0  0  0  0  0  0  0  0  0
  147.8687  139.9932  157.0248 O   0  0  0  0  0  0  0  0  0  0  0  0
  152.2080  143.7517  159.3292 N   0  0  0  0  0  0  0  0  0  0  0  0
  151.9411  145.1315  158.9730 C   0  0  0  0  0  0  0  0  0  0  0  0
  153.0594  143.4654  160.3378 N   0  0  0  0  0  0  0  0  0  0  0  0
  153.8078  140.3916  161.4288 H   0  0  0  0  0  0  0  0  0  0  0  0
  153.6860  141.8217  162.4479 H   0  0  0  0  0  0  0  0  0  0  0  0
  154.9940  141.6832  161.2743 H   0  0  0  0  0  0  0  0  0  0  0  0
  152.0632  140.4685  159.2808 H   0  0  0  0  0  0  0  0  0  0  0  0
  150.4570  143.5189  157.5059 H   0  0  0  0  0  0  0  0  0  0  0  0
  149.2770  142.9791  156.0461 H   0  0  0  0  0  0  0  0  0  0  0  0
  149.5846  140.6626  154.5253 H   0  0  0  0  0  0  0  0  0  0  0  0
  147.5556  142.8633  154.6814 H   0  0  0  0  0  0  0  0  0  0  0  0
  148.5955  142.4002  153.3691 H   0  0  0  0  0  0  0  0  0  0  0  0
  145.9831  141.0903  154.2424 H   0  0  0  0  0  0  0  0  0  0  0  0
  146.2847  141.9610  152.7789 H   0  0  0  0  0  0  0  0  0  0  0  0
  146.1453  139.5426  152.3968 H   0  0  0  0  0  0  0  0  0  0  0  0
  147.6731  140.1750  151.8710 H   0  0  0  0  0  0  0  0  0  0  0  0
  147.4699  137.8860  153.2712 H   0  0  0  0  0  0  0  0  0  0  0  0
  148.8776  138.8892  153.3766 H   0  0  0  0  0  0  0  0  0  0  0  0
  147.1114  138.2258  155.4865 H   0  0  0  0  0  0  0  0  0  0  0  0
  152.1337  145.2794  157.9099 H   0  0  0  0  0  0  0  0  0  0  0  0
  152.5796  145.8070  159.5442 H   0  0  0  0  0  0  0  0  0  0  0  0
  150.8976  145.3675  159.1827 H   0  0  0  0  0  0  0  0  0  0  0  0
  1  2  1  0  0  0  0
  1 20  1  0  0  0  0
  1 21  1  0  0  0  0
  1 22  1  0  0  0  0
  2 19  2  0  0  0  0
  2  3  1  0  0  0  0
  3  4  2  0  0  0  0
  3 23  1  0  0  0  0
  4  5  1  0  0  0  0
  4 17  1  0  0  0  0
  5  6  1  0  0  0  0
  5 24  1  0  0  0  0
  6  7  2  0  0  0  0
  6  8  1  0  0  0  0
  8  9  1  0  0  0  0
  8 25  1  0  0  0  0
  9 15  1  0  0  0  0
  9 10  1  0  0  0  0
  9 26  1  0  0  0  0
 10 11  1  0  0  0  0
 10 27  1  0  0  0  0
 10 28  1  0  0  0  0
 11 12  1  0  0  0  0
 11 29  1  0  0  0  0
 11 30  1  0  0  0  0
 12 13  1  0  0  0  0
 12 31  1  0  0  0  0
 12 32  1  0  0  0  0
 13 14  1  0  0  0  0
 13 33  1  0  0  0  0
 13 34  1  0  0  0  0
 14 15  1  0  0  0  0
 14 35  1  0  0  0  0
 15 16  2  0  0  0  0
 17 18  1  0  0  0  0
 17 19  1  0  0  0  0
 18 36  1  0  0  0  0
 18 37  1  0  0  0  0
 18 38  1  0  0  0  0
M  END
> <s_m_source_file>
AV-unprocessed.smi

> <i_m_source_file_index>
2065

> <i_lp_mmshare_version>
43012

> <i_f3d_flags>
0

> <s_epik_input>
W0NIM11jMVtjSF1jKG4objEpW0NIM10pW05IXUMoPU8pW05IXVtDQEBIXTJbQ0gyXVtDSDJdW0NIMl1bQ0gyXVtOSF1DMj1P

> <s_epik_cmdline>
J2VwaWtfcHl0aG9uJywgJy1waCcsICc3LjAnLCAnLXRuJywgJzgnLCAnLW1hJywgJzIwMCcsICctbWV0YWxfYmluZGluZycsICctaW1hZScsICc8aW5maWxlLm1hZT4nLCAnLW9tYWUnLCAnPG91dGZpbGUubWFlPic=

> <r_lp_tautomer_probability>
1

> <r_epik_Ionization_Penalty>
8.1752e-05

> <r_epik_Ionization_Penalty_Charging>
0

> <r_epik_Ionization_Penalty_Neutral>
8.1752e-05

> <r_epik_State_Penalty>
-0

> <r_epik_Charging_Adjusted_Penalty>
0

> <i_epik_Tot_Q>
0

> <i_epik_Tot_abs_Q>
0

> <r_epik_Metal_State_Penalty>
-0

> <b_epik_Metal_Only>
0

> <s_lp_Force_Field>
OPLS_2005

> <r_lp_Energy>
15.6016

> <b_lp_Chiralities_Consistent>
1

> <s_lp_Variant>
AV-unprocessed.smi:2065-1

> <Gold.Version>
5.8.1

> <Gold.Id.Protein>
6NUR|6NUR_protein|mol2

> <Gold.PLP.Fitness>
39.0451

> <Gold.PLP.PLP>
-36.0872

> <Gold.PLP.part.hbond>
-1.0000

> <Gold.PLP.part.metal>
0.0000

> <Gold.PLP.part.buried>
-1.3382

> <Gold.PLP.part.nonpolar>
-32.7041

> <Gold.PLP.part.repulsive>
0.1199

> <Gold.PLP.ligand.clash>
0.0000

> <Gold.PLP.ligand.torsion>
0.0470

> <Gold.PLP.Chemscore.Hbond>
1.0000

> <Gold.PLP.Chemscore.CHOScore>
0.0000

> <Gold.PLP.Chemscore.Metal>
0.0000

> <Gold.Chemscore.Hbonds>
donor molecule, donor type, donor heavy atom, donor atom, acceptor molecule, acceptor atom, score
      L1  H     8    25       P1  8028  1.00

> <Gold.PLP.Chemscore.Internal.Correction>
0.0519

> <Gold.Rescore>
     Score         DG    S(hbond)    S(metal)    S(lipo)     H(rot)  DE(clash)    DE(int)     intcor
     14.34     -15.58       1.00        0.00      79.64       1.00       0.02       1.22       ----

> <Gold.Chemscore.Fitness>
14.3402

> <Gold.Chemscore.DG>
-15.5783

> <Gold.Chemscore.ZeroCoef>
-5.4800

> <Gold.Chemscore.Hbond>
1.0001

> <Gold.Chemscore.Metal>
0.0000

> <Gold.Chemscore.Lipo>
79.6405

> <Gold.Chemscore.Internal_Hbond>
0.0000

> <Gold.Chemscore.DEClash>
0.0196

> <Gold.Chemscore.DEInternal>
1.2185

> <Gold.Chemscore.Rot>
1.0000

> <Gold.Chemscore.Internal.Correction>
   9.000000E+99

> <Gold.Chemscore.Hbonds>
donor molecule, donor type, donor heavy atom, donor atom, acceptor molecule, acceptor atom, score
      L1  H     8    25       P1  8028  1.00

> <Gold.Chemscore.Hbond.Weighted>
-3.3403

> <Gold.Chemscore.Metal.Weighted>
-0.0000

> <Gold.Chemscore.Lipo.Weighted>
-9.3179

> <Gold.Chemscore.Internal_Hbond.Weighted>
0.0000

> <Gold.Chemscore.DEClash.Weighted>
0.0196

> <Gold.Chemscore.DEInternal.Weighted>
1.2185

> <Gold.Chemscore.Rot.Weighted>
2.5600

> <Gold.Chemscore.Internal.Correction.Weighted>
   9.000000E+99

> <Gold.Protein.RotatedTorsions>
[ 6907 6896 6895 6894 ] final  168.60 input  -60.11 | X-H torsion
[ 7974 7965 7964 7962 ] final   80.56 input  175.53 | X-H torsion
[ 8008 7997 7996 7995 ] final  -81.43 input   59.86 | X-H torsion
[ 10167 10162 10161 10158 ] final  -13.28 input  -65.29 | X-H torsion
[ 10718 10713 10712 10709 ] final   16.07 input   66.30 | X-H torsion
[ 10763 10752 10751 10750 ] final    0.05 input  -60.55 | X-H torsion
[ 11005 11000 10999 10996 ] final  -68.99 input  -57.11 | X-H torsion

> <Gold.Protein.ActiveResidues>
 VAL166  LYS551  ARG553  GLY616  TRP617  ASP618  TYR619  PRO620  LYS621  CYS622 
 ASP623  PHE694  ASN695  SER759  ASP760  ASP761  ALA762  ILE779  LEU786  VAL792 
 PHE793  MET794  SER795  GLU796  ALA797  LYS798  CYS799  TRP800  GLU811  SER814 

> <Gold.Protein.RotatedAtoms>
  151.8451  133.3430  159.3655 H   0  0  0  0  0  0  0  0  0  0  0  0  # atno 6907 bound_to 6896
  150.7223  134.5354  159.5730 H   0  0  0  0  0  0  0  0  0  0  0  0  # atno 6908 bound_to 6896
  152.2835  134.7802  160.0443 H   0  0  0  0  0  0  0  0  0  0  0  0  # atno 6909 bound_to 6896
  145.6496  139.2444  143.1984 H   0  0  0  0  0  0  0  0  0  0  0  0  # atno 7974 bound_to 7965
  154.5982  140.0648  156.9333 H   0  0  0  0  0  0  0  0  0  0  0  0  # atno 8008 bound_to 7997
  155.2177  140.3327  155.4301 H   0  0  0  0  0  0  0  0  0  0  0  0  # atno 8009 bound_to 7997
  156.2301  140.1837  156.7248 H   0  0  0  0  0  0  0  0  0  0  0  0  # atno 8010 bound_to 7997
  140.7179  143.5443  150.9373 H   0  0  0  0  0  0  0  0  0  0  0  0  # atno 10167 bound_to 10162
  157.0626  130.6315  149.5789 H   0  0  0  0  0  0  0  0  0  0  0  0  # atno 10718 bound_to 10713
  153.3257  135.6972  153.6992 H   0  0  0  0  0  0  0  0  0  0  0  0  # atno 10763 bound_to 10752
  153.5814  135.3497  155.2877 H   0  0  0  0  0  0  0  0  0  0  0  0  # atno 10764 bound_to 10752
  154.8607  135.4296  154.2432 H   0  0  0  0  0  0  0  0  0  0  0  0  # atno 10765 bound_to 10752
  141.1544  133.6753  156.6530 H   0  0  0  0  0  0  0  0  0  0  0  0  # atno 11005 bound_to 11000
  146.1214  140.7303  142.9455 LP  0  0  0  0  0  0  0  0  0  0  0  0  # atno 17320 bound_to 7965
  144.7127  140.4099  143.7068 LP  0  0  0  0  0  0  0  0  0  0  0  0  # atno 17321 bound_to 7965
  139.9166  143.6655  152.3105 LP  0  0  0  0  0  0  0  0  0  0  0  0  # atno 17342 bound_to 10162
  139.7058  144.7628  151.1196 LP  0  0  0  0  0  0  0  0  0  0  0  0  # atno 17343 bound_to 10162
  155.9974  130.5045  150.7532 LP  0  0  0  0  0  0  0  0  0  0  0  0  # atno 17370 bound_to 10713
  157.4943  131.0913  151.0390 LP  0  0  0  0  0  0  0  0  0  0  0  0  # atno 17371 bound_to 10713
  140.3305  134.7932  157.4323 LP  0  0  0  0  0  0  0  0  0  0  0  0  # atno 17394 bound_to 11000
  140.1020  134.5459  155.8344 LP  0  0  0  0  0  0  0  0  0  0  0  0  # atno 17395 bound_to 11000

$$$$
