AV-unprocessed.smi:2074|AV-procd|sdf|8455|dock2
  -GOLD-   2272011153D 1   1.00000     0.00000
 Structure written by MMmdl.
 44 45  0  0  0  0  0  0  0  0  2 V2000
  150.2790  143.0703  157.5611 C   0  0  0  0  0  0  0  0  0  0  0  0
  150.5464  141.7990  156.8075 C   0  0  0  0  0  0  0  0  0  0  0  0
  151.5142  140.9938  157.2115 N   0  0  0  0  0  0  0  0  0  0  0  0
  151.5110  139.9145  156.3228 O   0  0  0  0  0  0  0  0  0  0  0  0
  150.5266  140.1130  155.4097 C   0  0  0  0  0  0  0  0  0  0  0  0
  150.3604  139.0596  154.3669 C   0  0  0  0  0  0  0  0  0  0  0  0
  149.8741  141.2894  155.6593 C   0  0  0  0  0  0  0  0  0  0  0  0
  148.7217  141.9027  154.9059 C   0  0  0  0  0  0  0  0  0  0  0  0
  147.6055  140.8710  154.7453 C   0  0  0  0  0  0  0  0  0  0  0  0
  146.8669  140.6117  155.6949 O   0  0  0  0  0  0  0  0  0  0  0  0
  147.4944  140.2905  153.5395 N   0  0  0  0  0  0  0  0  0  0  0  0
  146.4716  139.3199  153.1561 C   0  0  0  0  0  0  0  0  0  0  0  0
  146.5674  137.9786  153.9373 C   0  0  1  0  0  0  0  0  0  0  0  0
  145.6014  137.9811  155.1474 C   0  0  0  0  0  0  0  0  0  0  0  0
  146.3316  136.7829  153.0585 N   0  3  0  0  0  0  0  0  0  0  0  0
  146.2286  135.4892  153.7923 C   0  0  0  0  0  0  0  0  0  0  0  0
  145.9868  134.3099  152.8347 C   0  0  0  0  0  0  0  0  0  0  0  0
  144.8196  134.5460  152.0645 O   0  0  0  0  0  0  0  0  0  0  0  0
  144.9643  135.7040  151.2584 C   0  0  0  0  0  0  0  0  0  0  0  0
  145.1554  136.9377  152.1560 C   0  0  0  0  0  0  0  0  0  0  0  0
  150.0974  143.9001  156.8781 H   0  0  0  0  0  0  0  0  0  0  0  0
  151.1213  143.3470  158.1968 H   0  0  0  0  0  0  0  0  0  0  0  0
  149.4011  142.9667  158.1987 H   0  0  0  0  0  0  0  0  0  0  0  0
  149.3215  138.9909  154.0442 H   0  0  0  0  0  0  0  0  0  0  0  0
  150.6579  138.0825  154.7478 H   0  0  0  0  0  0  0  0  0  0  0  0
  150.9718  139.2833  153.4927 H   0  0  0  0  0  0  0  0  0  0  0  0
  148.3295  142.7827  155.4169 H   0  0  0  0  0  0  0  0  0  0  0  0
  149.0329  142.2438  153.9178 H   0  0  0  0  0  0  0  0  0  0  0  0
  148.1508  140.5670  152.8236 H   0  0  0  0  0  0  0  0  0  0  0  0
  145.4705  139.7433  153.2532 H   0  0  0  0  0  0  0  0  0  0  0  0
  146.6375  139.1597  152.0916 H   0  0  0  0  0  0  0  0  0  0  0  0
  147.5851  137.9025  154.3239 H   0  0  0  0  0  0  0  0  0  0  0  0
  145.7463  138.8528  155.7840 H   0  0  0  0  0  0  0  0  0  0  0  0
  145.7488  137.1279  155.8068 H   0  0  0  0  0  0  0  0  0  0  0  0
  144.5607  137.9826  154.8220 H   0  0  0  0  0  0  0  0  0  0  0  0
  147.1487  135.2716  154.3321 H   0  0  0  0  0  0  0  0  0  0  0  0
  145.4227  135.5477  154.5255 H   0  0  0  0  0  0  0  0  0  0  0  0
  146.8468  134.1553  152.1809 H   0  0  0  0  0  0  0  0  0  0  0  0
  145.8520  133.3891  153.4026 H   0  0  0  0  0  0  0  0  0  0  0  0
  145.8037  135.5861  150.5709 H   0  0  0  0  0  0  0  0  0  0  0  0
  144.0688  135.8208  150.6475 H   0  0  0  0  0  0  0  0  0  0  0  0
  144.2570  137.1057  152.7520 H   0  0  0  0  0  0  0  0  0  0  0  0
  145.2707  137.7975  151.4996 H   0  0  0  0  0  0  0  0  0  0  0  0
  147.1434  136.7026  152.4627 H   0  0  0  0  0  0  0  0  0  0  0  0
  1  2  1  0  0  0  0
  1 21  1  0  0  0  0
  1 22  1  0  0  0  0
  1 23  1  0  0  0  0
  2  7  1  0  0  0  0
  2  3  2  0  0  0  0
  3  4  1  0  0  0  0
  4  5  1  0  0  0  0
  5  6  1  0  0  0  0
  5  7  2  0  0  0  0
  6 24  1  0  0  0  0
  6 25  1  0  0  0  0
  6 26  1  0  0  0  0
  7  8  1  0  0  0  0
  8  9  1  0  0  0  0
  8 27  1  0  0  0  0
  8 28  1  0  0  0  0
  9 10  2  0  0  0  0
  9 11  1  0  0  0  0
 11 12  1  0  0  0  0
 11 29  1  0  0  0  0
 12 13  1  0  0  0  0
 12 30  1  0  0  0  0
 12 31  1  0  0  0  0
 13 14  1  0  0  0  0
 13 15  1  0  0  0  0
 13 32  1  0  0  0  0
 14 33  1  0  0  0  0
 14 34  1  0  0  0  0
 14 35  1  0  0  0  0
 15 20  1  0  0  0  0
 15 16  1  0  0  0  0
 15 44  1  0  0  0  0
 16 17  1  0  0  0  0
 16 36  1  0  0  0  0
 16 37  1  0  0  0  0
 17 18  1  0  0  0  0
 17 38  1  0  0  0  0
 17 39  1  0  0  0  0
 18 19  1  0  0  0  0
 19 20  1  0  0  0  0
 19 40  1  0  0  0  0
 19 41  1  0  0  0  0
 20 42  1  0  0  0  0
 20 43  1  0  0  0  0
M  CHG  1  15   1
M  END
> <s_m_source_file>
AV-unprocessed.smi

> <i_m_source_file_index>
2074

> <i_lp_mmshare_version>
43012

> <i_f3d_flags>
0

> <s_epik_input>
W0NIM11jMW5vYyhbQ0gzXSljMVtDSDJdQyg9TylbTkhdW0NIMl1bQ0BIXShbQ0gzXSlOMltDSDJdW0NIMl1PW0NIMl1bQ0gyXTI=

> <s_epik_cmdline>
J2VwaWtfcHl0aG9uJywgJy1waCcsICc3LjAnLCAnLXRuJywgJzgnLCAnLW1hJywgJzIwMCcsICctbWV0YWxfYmluZGluZycsICctaW1hZScsICc8aW5maWxlLm1hZT4nLCAnLW9tYWUnLCAnPG91dGZpbGUubWFlPic=

> <r_epik_Ionization_Penalty>
0.663207

> <r_epik_Ionization_Penalty_Charging>
0.663207

> <r_epik_Ionization_Penalty_Neutral>
1.0751e-07

> <r_epik_State_Penalty>
0.682743

> <r_epik_Charging_Adjusted_Penalty>
1.34595

> <i_epik_Tot_Q>
1

> <i_epik_Tot_abs_Q>
1

> <r_epik_Metal_State_Penalty>
0.682743

> <b_epik_Metal_Only>
0

> <s_lp_Force_Field>
OPLS_2005

> <r_lp_Energy>
15.6967

> <b_lp_Chiralities_Consistent>
1

> <s_lp_Variant>
AV-unprocessed.smi:2074-4

> <Gold.Version>
5.8.1

> <Gold.Id.Protein>
6NUR|6NUR_protein|mol2

> <Gold.PLP.Fitness>
38.6827

> <Gold.PLP.PLP>
-31.7014

> <Gold.PLP.part.hbond>
-2.3619

> <Gold.PLP.part.metal>
0.0000

> <Gold.PLP.part.buried>
-2.1053

> <Gold.PLP.part.nonpolar>
-26.6916

> <Gold.PLP.part.repulsive>
0.2583

> <Gold.PLP.ligand.clash>
0.0000

> <Gold.PLP.ligand.torsion>
1.0426

> <Gold.PLP.Chemscore.Hbond>
3.0000

> <Gold.PLP.Chemscore.CHOScore>
0.0000

> <Gold.PLP.Chemscore.Metal>
0.0000

> <Gold.Chemscore.Hbonds>
donor molecule, donor type, donor heavy atom, donor atom, acceptor molecule, acceptor atom, score
      L1  H    11    29       P1  7957  0.42
      L1  H    15    44       P1  7948  2.00

> <Gold.PLP.Chemscore.Internal.Correction>
0.0665

> <Gold.Rescore>
     Score         DG    S(hbond)    S(metal)    S(lipo)     H(rot)  DE(clash)    DE(int)     intcor
     14.77     -16.06       1.98        0.00      73.04       1.80       0.07       1.22       ----

> <Gold.Chemscore.Fitness>
14.7688

> <Gold.Chemscore.DG>
-16.0555

> <Gold.Chemscore.ZeroCoef>
-5.4800

> <Gold.Chemscore.Hbond>
1.9844

> <Gold.Chemscore.Metal>
0.0000

> <Gold.Chemscore.Lipo>
73.0394

> <Gold.Chemscore.Internal_Hbond>
0.0000

> <Gold.Chemscore.DEClash>
0.0655

> <Gold.Chemscore.DEInternal>
1.2212

> <Gold.Chemscore.Rot>
1.7961

> <Gold.Chemscore.Internal.Correction>
   9.000000E+99

> <Gold.Chemscore.Hbonds>
donor molecule, donor type, donor heavy atom, donor atom, acceptor molecule, acceptor atom, score
      L1  H    11    29       P1  7957  0.39
      L1  H    15    44       P1  7948  0.99

> <Gold.Chemscore.Hbond.Weighted>
-6.6280

> <Gold.Chemscore.Metal.Weighted>
-0.0000

> <Gold.Chemscore.Lipo.Weighted>
-8.5456

> <Gold.Chemscore.Internal_Hbond.Weighted>
0.0000

> <Gold.Chemscore.DEClash.Weighted>
0.0655

> <Gold.Chemscore.DEInternal.Weighted>
1.2212

> <Gold.Chemscore.Rot.Weighted>
4.5980

> <Gold.Chemscore.Internal.Correction.Weighted>
   9.000000E+99

> <Gold.Protein.RotatedTorsions>
[ 6907 6896 6895 6894 ] final  135.94 input  -60.11 | X-H torsion
[ 7974 7965 7964 7962 ] final  165.12 input  175.53 | X-H torsion
[ 8008 7997 7996 7995 ] final -117.65 input   59.86 | X-H torsion
[ 10167 10162 10161 10158 ] final  141.30 input  -65.29 | X-H torsion
[ 10718 10713 10712 10709 ] final  149.35 input   66.30 | X-H torsion
[ 10763 10752 10751 10750 ] final -119.00 input  -60.55 | X-H torsion
[ 11005 11000 10999 10996 ] final  -73.32 input  -57.11 | X-H torsion

> <Gold.Protein.ActiveResidues>
 VAL166  LYS551  ARG553  GLY616  TRP617  ASP618  TYR619  PRO620  LYS621  CYS622 
 ASP623  PHE694  ASN695  SER759  ASP760  ASP761  ALA762  ILE779  LEU786  VAL792 
 PHE793  MET794  SER795  GLU796  ALA797  LYS798  CYS799  TRP800  GLU811  SER814 

> <Gold.Protein.RotatedAtoms>
  152.2949  133.5598  159.5580 H   0  0  0  0  0  0  0  0  0  0  0  0  # atno 6907 bound_to 6896
  150.7251  134.0375  159.3763 H   0  0  0  0  0  0  0  0  0  0  0  0  # atno 6908 bound_to 6896
  151.8278  135.0631  160.0484 H   0  0  0  0  0  0  0  0  0  0  0  0  # atno 6909 bound_to 6896
  144.7516  139.8424  143.6364 H   0  0  0  0  0  0  0  0  0  0  0  0  # atno 7974 bound_to 7965
  155.0871  140.0394  157.2657 H   0  0  0  0  0  0  0  0  0  0  0  0  # atno 8008 bound_to 7997
  154.6861  140.2643  155.6834 H   0  0  0  0  0  0  0  0  0  0  0  0  # atno 8009 bound_to 7997
  156.2712  140.2769  156.1423 H   0  0  0  0  0  0  0  0  0  0  0  0  # atno 8010 bound_to 7997
  139.5024  144.6180  151.6118 H   0  0  0  0  0  0  0  0  0  0  0  0  # atno 10167 bound_to 10162
  157.2972  131.0864  151.1418 H   0  0  0  0  0  0  0  0  0  0  0  0  # atno 10718 bound_to 10713
  154.8604  135.4254  154.2229 H   0  0  0  0  0  0  0  0  0  0  0  0  # atno 10763 bound_to 10752
  153.3230  135.6983  153.7019 H   0  0  0  0  0  0  0  0  0  0  0  0  # atno 10764 bound_to 10752
  153.6066  135.3527  155.2938 H   0  0  0  0  0  0  0  0  0  0  0  0  # atno 10765 bound_to 10752
  141.1621  133.6874  156.7194 H   0  0  0  0  0  0  0  0  0  0  0  0  # atno 11005 bound_to 11000
  146.1473  139.4546  143.0071 LP  0  0  0  0  0  0  0  0  0  0  0  0  # atno 17320 bound_to 7965
  145.6924  141.0160  143.1548 LP  0  0  0  0  0  0  0  0  0  0  0  0  # atno 17321 bound_to 7965
  140.5874  143.9840  150.6303 LP  0  0  0  0  0  0  0  0  0  0  0  0  # atno 17342 bound_to 10162
  140.3009  143.3261  152.0972 LP  0  0  0  0  0  0  0  0  0  0  0  0  # atno 17343 bound_to 10162
  157.2791  130.6741  149.6057 LP  0  0  0  0  0  0  0  0  0  0  0  0  # atno 17370 bound_to 10713
  155.9669  130.4455  150.5505 LP  0  0  0  0  0  0  0  0  0  0  0  0  # atno 17371 bound_to 10713
  140.2827  134.8304  157.3947 LP  0  0  0  0  0  0  0  0  0  0  0  0  # atno 17394 bound_to 11000
  140.1418  134.4962  155.8025 LP  0  0  0  0  0  0  0  0  0  0  0  0  # atno 17395 bound_to 11000

$$$$
