AV-unprocessed.smi:1114|AV-procd|sdf|4801|dock4
  -GOLD-   22720 3343D 1   1.00000     0.00000
 Structure written by MMmdl.
 53 55  0  0  0  0  0  0  0  0  2 V2000
  144.4341  133.1520  149.3629 C   0  0  0  0  0  0  0  0  0  0  0  0
  144.0566  133.7108  150.7367 C   0  0  0  0  0  0  0  0  0  0  0  0
  143.7302  132.9124  151.6154 O   0  0  0  0  0  0  0  0  0  0  0  0
  144.0956  135.0495  150.9412 N   0  0  0  0  0  0  0  0  0  0  0  0
  143.8155  135.6627  152.2450 C   0  0  0  0  0  0  0  0  0  0  0  0
  145.1245  136.2342  152.8195 C   0  0  0  0  0  0  0  0  0  0  0  0
  145.7841  137.2286  151.8399 C   0  0  0  0  0  0  0  0  0  0  0  0
  147.1021  137.6080  152.3413 N   0  0  0  0  0  0  0  0  0  0  0  0
  147.3449  138.6076  153.2015 C   0  0  0  0  0  0  0  0  0  0  0  0
  146.4658  139.3322  153.6674 O   0  0  0  0  0  0  0  0  0  0  0  0
  148.6544  138.6933  153.4933 N   0  0  0  0  0  0  0  0  0  0  0  0
  149.3090  139.6372  154.3298 C   0  0  0  0  0  0  0  0  0  0  0  0
  150.4536  139.2147  155.0365 C   0  0  0  0  0  0  0  0  0  0  0  0
  151.1451  140.1248  155.8623 C   0  0  0  0  0  0  0  0  0  0  0  0
  150.6956  141.4653  155.9669 C   0  0  0  0  0  0  0  0  0  0  0  0
  151.3216  142.4475  156.7667 N   0  0  0  0  0  0  0  0  0  0  0  0
  151.0706  143.8535  156.4439 C   0  0  0  0  0  0  0  0  0  0  0  0
  152.1058  144.7771  157.1088 C   0  0  0  0  0  0  0  0  0  0  0  0
  152.1886  144.5196  158.6195 C   0  0  0  0  0  0  0  0  0  0  0  0
  152.4884  143.0367  158.8783 C   0  0  0  0  0  0  0  0  0  0  0  0
  151.4494  142.1329  158.1932 C   0  0  0  0  0  0  0  0  0  0  0  0
  149.5978  141.8249  155.2586 N   0  3  0  0  0  0  0  0  0  0  0  0
  148.9031  140.9858  154.4607 C   0  0  0  0  0  0  0  0  0  0  0  0
  145.8873  136.6307  150.4173 C   0  0  0  0  0  0  0  0  0  0  0  0
  144.5393  136.0466  149.9591 C   0  0  0  0  0  0  0  0  0  0  0  0
  145.4521  133.4367  149.0950 H   0  0  0  0  0  0  0  0  0  0  0  0
  143.7494  133.5161  148.5966 H   0  0  0  0  0  0  0  0  0  0  0  0
  144.3829  132.0626  149.3635 H   0  0  0  0  0  0  0  0  0  0  0  0
  143.0808  136.4593  152.1197 H   0  0  0  0  0  0  0  0  0  0  0  0
  143.3747  134.9625  152.9557 H   0  0  0  0  0  0  0  0  0  0  0  0
  144.9284  136.7231  153.7744 H   0  0  0  0  0  0  0  0  0  0  0  0
  145.8092  135.4106  153.0288 H   0  0  0  0  0  0  0  0  0  0  0  0
  145.1519  138.1176  151.7953 H   0  0  0  0  0  0  0  0  0  0  0  0
  147.8847  137.0623  152.0113 H   0  0  0  0  0  0  0  0  0  0  0  0
  149.2446  137.9727  153.1039 H   0  0  0  0  0  0  0  0  0  0  0  0
  150.8027  138.1957  154.9518 H   0  0  0  0  0  0  0  0  0  0  0  0
  152.0193  139.7767  156.3909 H   0  0  0  0  0  0  0  0  0  0  0  0
  151.1149  144.0074  155.3653 H   0  0  0  0  0  0  0  0  0  0  0  0
  150.0650  144.1212  156.7712 H   0  0  0  0  0  0  0  0  0  0  0  0
  153.0853  144.6112  156.6577 H   0  0  0  0  0  0  0  0  0  0  0  0
  151.8511  145.8204  156.9195 H   0  0  0  0  0  0  0  0  0  0  0  0
  152.9612  145.1451  159.0675 H   0  0  0  0  0  0  0  0  0  0  0  0
  151.2460  144.7956  159.0941 H   0  0  0  0  0  0  0  0  0  0  0  0
  153.4848  142.7949  158.5054 H   0  0  0  0  0  0  0  0  0  0  0  0
  152.5032  142.8397  159.9505 H   0  0  0  0  0  0  0  0  0  0  0  0
  150.4748  142.2643  158.6651 H   0  0  0  0  0  0  0  0  0  0  0  0
  151.7371  141.0942  158.3531 H   0  0  0  0  0  0  0  0  0  0  0  0
  148.0625  141.4344  153.9531 H   0  0  0  0  0  0  0  0  0  0  0  0
  146.2171  137.3926  149.7103 H   0  0  0  0  0  0  0  0  0  0  0  0
  146.6431  135.8440  150.3985 H   0  0  0  0  0  0  0  0  0  0  0  0
  144.6311  135.6543  148.9474 H   0  0  0  0  0  0  0  0  0  0  0  0
  143.7939  136.8407  149.8948 H   0  0  0  0  0  0  0  0  0  0  0  0
  149.2745  142.7897  155.3321 H   0  0  0  0  0  0  0  0  0  0  0  0
  1  2  1  0  0  0  0
  1 26  1  0  0  0  0
  1 27  1  0  0  0  0
  1 28  1  0  0  0  0
  2  3  2  0  0  0  0
  2  4  1  0  0  0  0
  4 25  1  0  0  0  0
  4  5  1  0  0  0  0
  5  6  1  0  0  0  0
  5 29  1  0  0  0  0
  5 30  1  0  0  0  0
  6  7  1  0  0  0  0
  6 31  1  0  0  0  0
  6 32  1  0  0  0  0
  7  8  1  0  0  0  0
  7 24  1  0  0  0  0
  7 33  1  0  0  0  0
  8  9  1  0  0  0  0
  8 34  1  0  0  0  0
  9 10  2  0  0  0  0
  9 11  1  0  0  0  0
 11 12  1  0  0  0  0
 11 35  1  0  0  0  0
 12 23  1  0  0  0  0
 12 13  2  0  0  0  0
 13 14  1  0  0  0  0
 13 36  1  0  0  0  0
 14 15  2  0  0  0  0
 14 37  1  0  0  0  0
 15 16  1  0  0  0  0
 15 22  1  0  0  0  0
 16 21  1  0  0  0  0
 16 17  1  0  0  0  0
 17 18  1  0  0  0  0
 17 38  1  0  0  0  0
 17 39  1  0  0  0  0
 18 19  1  0  0  0  0
 18 40  1  0  0  0  0
 18 41  1  0  0  0  0
 19 20  1  0  0  0  0
 19 42  1  0  0  0  0
 19 43  1  0  0  0  0
 20 21  1  0  0  0  0
 20 44  1  0  0  0  0
 20 45  1  0  0  0  0
 21 46  1  0  0  0  0
 21 47  1  0  0  0  0
 22 23  2  0  0  0  0
 22 53  1  0  0  0  0
 23 48  1  0  0  0  0
 24 25  1  0  0  0  0
 24 49  1  0  0  0  0
 24 50  1  0  0  0  0
 25 51  1  0  0  0  0
 25 52  1  0  0  0  0
M  CHG  1  22   1
M  END
> <s_m_source_file>
AV-unprocessed.smi

> <i_m_source_file_index>
1114

> <i_lp_mmshare_version>
43012

> <i_f3d_flags>
0

> <s_epik_input>
W0NIM11DKD1PKU4xW0NIMl1bQ0gyXVtDSF0oW0NIMl1bQ0gyXTEpW05IXUMoPU8pW05IXWMyW2NIXVtjSF1jKG5bY0hdMilOM1tDSDJdW0NIMl1bQ0gyXVtDSDJdW0NIMl0z

> <s_epik_cmdline>
J2VwaWtfcHl0aG9uJywgJy1waCcsICc3LjAnLCAnLXRuJywgJzgnLCAnLW1hJywgJzIwMCcsICctbWV0YWxfYmluZGluZycsICctaW1hZScsICc8aW5maWxlLm1hZT4nLCAnLW9tYWUnLCAnPG91dGZpbGUubWFlPic=

> <r_lp_tautomer_probability>
0.999994

> <r_epik_Ionization_Penalty>
1.08953

> <r_epik_Ionization_Penalty_Charging>
1.08951

> <r_epik_Ionization_Penalty_Neutral>
2.1351e-05

> <r_epik_State_Penalty>
1.14567

> <r_epik_Charging_Adjusted_Penalty>
2.23518

> <i_epik_Tot_Q>
1

> <i_epik_Tot_abs_Q>
1

> <r_epik_Metal_State_Penalty>
1.23466

> <b_epik_Metal_Only>
0

> <s_lp_Force_Field>
OPLS_2005

> <r_lp_Energy>
44.385

> <b_lp_Chiralities_Consistent>
1

> <s_lp_Variant>
AV-unprocessed.smi:1114-2

> <Gold.Version>
5.8.1

> <Gold.Id.Protein>
6NUR|6NUR_protein|mol2

> <Gold.PLP.Fitness>
49.7829

> <Gold.PLP.PLP>
-41.6636

> <Gold.PLP.part.hbond>
-3.4217

> <Gold.PLP.part.metal>
0.0000

> <Gold.PLP.part.buried>
5.2764

> <Gold.PLP.part.nonpolar>
-45.5843

> <Gold.PLP.part.repulsive>
0.7225

> <Gold.PLP.ligand.clash>
0.0000

> <Gold.PLP.ligand.torsion>
0.9009

> <Gold.PLP.Chemscore.Hbond>
3.1309

> <Gold.PLP.Chemscore.CHOScore>
0.0000

> <Gold.PLP.Chemscore.Metal>
0.0000

> <Gold.Chemscore.Hbonds>
donor molecule, donor type, donor heavy atom, donor atom, acceptor molecule, acceptor atom, score
      L1  H     8    34       P1  7948  0.54
      L1  H    11    35       P1  7948  0.56
      L1  H    22    53       P1  8028  2.00

> <Gold.PLP.Chemscore.Internal.Correction>
0.5284

> <Gold.Rescore>
     Score         DG    S(hbond)    S(metal)    S(lipo)     H(rot)  DE(clash)    DE(int)     intcor
     18.64     -24.29       2.27        0.00     122.30       1.21       4.18       1.47       ----

> <Gold.Chemscore.Fitness>
18.6367

> <Gold.Chemscore.DG>
-24.2859

> <Gold.Chemscore.ZeroCoef>
-5.4800

> <Gold.Chemscore.Hbond>
2.2743

> <Gold.Chemscore.Metal>
0.0000

> <Gold.Chemscore.Lipo>
122.2954

> <Gold.Chemscore.Internal_Hbond>
0.0000

> <Gold.Chemscore.DEClash>
4.1837

> <Gold.Chemscore.DEInternal>
1.4654

> <Gold.Chemscore.Rot>
1.2105

> <Gold.Chemscore.Internal.Correction>
   9.000000E+99

> <Gold.Chemscore.Hbonds>
donor molecule, donor type, donor heavy atom, donor atom, acceptor molecule, acceptor atom, score
      L1  H     8    34       P1  7948  0.52
      L1  H    11    35       P1  7948  0.54
      L1  H    22    53       P1  8028  0.97

> <Gold.Chemscore.Hbond.Weighted>
-7.5963

> <Gold.Chemscore.Metal.Weighted>
-0.0000

> <Gold.Chemscore.Lipo.Weighted>
-14.3086

> <Gold.Chemscore.Internal_Hbond.Weighted>
0.0000

> <Gold.Chemscore.DEClash.Weighted>
4.1837

> <Gold.Chemscore.DEInternal.Weighted>
1.4654

> <Gold.Chemscore.Rot.Weighted>
3.0990

> <Gold.Chemscore.Internal.Correction.Weighted>
   9.000000E+99

> <Gold.Protein.RotatedTorsions>
[ 6907 6896 6895 6894 ] final  157.88 input  -60.11 | X-H torsion
[ 7974 7965 7964 7962 ] final   27.70 input  175.53 | X-H torsion
[ 8008 7997 7996 7995 ] final    4.24 input   59.86 | X-H torsion
[ 10167 10162 10161 10158 ] final  -74.40 input  -65.29 | X-H torsion
[ 10718 10713 10712 10709 ] final  167.35 input   66.30 | X-H torsion
[ 10763 10752 10751 10750 ] final   73.49 input  -60.55 | X-H torsion
[ 11005 11000 10999 10996 ] final -154.36 input  -57.11 | X-H torsion

> <Gold.Protein.ActiveResidues>
 VAL166  LYS551  ARG553  GLY616  TRP617  ASP618  TYR619  PRO620  LYS621  CYS622 
 ASP623  PHE694  ASN695  SER759  ASP760  ASP761  ALA762  ILE779  LEU786  VAL792 
 PHE793  MET794  SER795  GLU796  ALA797  LYS798  CYS799  TRP800  GLU811  SER814 

> <Gold.Protein.RotatedAtoms>
  152.0086  133.3852  159.4210 H   0  0  0  0  0  0  0  0  0  0  0  0  # atno 6907 bound_to 6896
  150.6902  134.3755  159.5020 H   0  0  0  0  0  0  0  0  0  0  0  0  # atno 6908 bound_to 6896
  152.1513  134.8986  160.0598 H   0  0  0  0  0  0  0  0  0  0  0  0  # atno 6909 bound_to 6896
  146.1770  139.7156  142.8927 H   0  0  0  0  0  0  0  0  0  0  0  0  # atno 7974 bound_to 7965
  154.7135  140.2697  155.6607 H   0  0  0  0  0  0  0  0  0  0  0  0  # atno 8008 bound_to 7997
  156.2802  140.2748  156.1708 H   0  0  0  0  0  0  0  0  0  0  0  0  # atno 8009 bound_to 7997
  155.0603  140.0371  157.2564 H   0  0  0  0  0  0  0  0  0  0  0  0  # atno 8010 bound_to 7997
  140.5030  143.2358  151.7721 H   0  0  0  0  0  0  0  0  0  0  0  0  # atno 10167 bound_to 10162
  157.0527  131.0318  151.2675 H   0  0  0  0  0  0  0  0  0  0  0  0  # atno 10718 bound_to 10713
  153.0525  135.5061  154.7902 H   0  0  0  0  0  0  0  0  0  0  0  0  # atno 10763 bound_to 10752
  154.6753  135.2959  154.9689 H   0  0  0  0  0  0  0  0  0  0  0  0  # atno 10764 bound_to 10752
  154.0494  135.6706  153.4851 H   0  0  0  0  0  0  0  0  0  0  0  0  # atno 10765 bound_to 10752
  140.6981  134.3967  157.5212 H   0  0  0  0  0  0  0  0  0  0  0  0  # atno 11005 bound_to 11000
  145.4184  141.0404  143.2977 LP  0  0  0  0  0  0  0  0  0  0  0  0  # atno 17320 bound_to 7965
  144.8252  139.5723  143.6969 LP  0  0  0  0  0  0  0  0  0  0  0  0  # atno 17321 bound_to 7965
  139.4876  144.4496  151.9669 LP  0  0  0  0  0  0  0  0  0  0  0  0  # atno 17342 bound_to 10162
  140.3586  144.3001  150.5937 LP  0  0  0  0  0  0  0  0  0  0  0  0  # atno 17343 bound_to 10162
  157.5017  130.7884  149.7612 LP  0  0  0  0  0  0  0  0  0  0  0  0  # atno 17370 bound_to 10713
  156.0002  130.3884  150.2634 LP  0  0  0  0  0  0  0  0  0  0  0  0  # atno 17371 bound_to 10713
  139.8904  134.8805  156.2370 LP  0  0  0  0  0  0  0  0  0  0  0  0  # atno 17394 bound_to 11000
  141.0186  133.7054  156.1230 LP  0  0  0  0  0  0  0  0  0  0  0  0  # atno 17395 bound_to 11000

$$$$
