AV-unprocessed.smi:2368|AV-procd|sdf|9432|dock3
  -GOLD-   2272013 63D 1   1.00000     0.00000
 Structure written by MMmdl.
 36 37  0  0  0  0  0  0  0  0  2 V2000
  150.7412  141.2624  155.7709 C   0  0  0  0  0  0  0  0  0  0  0  0
  149.4758  141.0535  154.9618 C   0  0  0  0  0  0  0  0  0  0  0  0
  148.6686  142.1203  154.7712 N   0  3  0  0  0  0  0  0  0  0  0  0
  147.5138  142.0534  154.0767 C   0  0  0  0  0  0  0  0  0  0  0  0
  147.1065  140.8317  153.5066 C   0  0  0  0  0  0  0  0  0  0  0  0
  147.9247  139.6835  153.6600 C   0  0  0  0  0  0  0  0  0  0  0  0
  147.5805  138.4080  153.1303 N   0  0  0  0  0  0  0  0  0  0  0  0
  146.3688  137.8314  153.0556 C   0  0  0  0  0  0  0  0  0  0  0  0
  145.3187  138.3288  153.4612 O   0  0  0  0  0  0  0  0  0  0  0  0
  146.4372  136.6325  152.4601 N   0  0  0  0  0  0  0  0  0  0  0  0
  145.2957  135.7556  152.2232 C   0  0  1  0  0  0  0  0  0  0  0  0
  145.1639  135.4422  150.7582 C   0  0  0  0  0  0  0  0  0  0  0  0
  145.1456  134.1341  150.5122 C   0  0  0  0  0  0  0  0  0  0  0  0
  145.2706  133.3012  151.7609 C   0  0  1  0  0  0  0  0  0  0  0  0
  146.4159  132.2799  151.6614 C   0  0  0  0  0  0  0  0  0  0  0  0
  146.2439  131.4629  150.5231 O   0  0  0  0  0  0  0  0  0  0  0  0
  145.4651  134.3595  152.8784 C   0  0  0  0  0  0  0  0  0  0  0  0
  149.1200  139.7991  154.4124 C   0  0  0  0  0  0  0  0  0  0  0  0
  150.1441  138.4237  154.6547 Cl  0  0  0  0  0  0  0  0  0  0  0  0
  144.3723  136.2334  152.5553 H   0  0  0  0  0  0  0  0  0  0  0  0
  144.3226  132.7804  151.9013 H   0  0  0  0  0  0  0  0  0  0  0  0
  151.6201  141.0352  155.1670 H   0  0  0  0  0  0  0  0  0  0  0  0
  150.7449  140.6094  156.6441 H   0  0  0  0  0  0  0  0  0  0  0  0
  150.8268  142.2922  156.1193 H   0  0  0  0  0  0  0  0  0  0  0  0
  146.9502  142.9721  154.0035 H   0  0  0  0  0  0  0  0  0  0  0  0
  146.1684  140.7967  152.9740 H   0  0  0  0  0  0  0  0  0  0  0  0
  148.3347  137.9108  152.6789 H   0  0  0  0  0  0  0  0  0  0  0  0
  147.3386  136.2987  152.1516 H   0  0  0  0  0  0  0  0  0  0  0  0
  145.0763  136.2156  150.0094 H   0  0  0  0  0  0  0  0  0  0  0  0
  145.0428  133.6889  149.5334 H   0  0  0  0  0  0  0  0  0  0  0  0
  147.3753  132.7915  151.5762 H   0  0  0  0  0  0  0  0  0  0  0  0
  146.4609  131.6536  152.5533 H   0  0  0  0  0  0  0  0  0  0  0  0
  147.0941  131.2779  150.1539 H   0  0  0  0  0  0  0  0  0  0  0  0
  146.4535  134.2603  153.3304 H   0  0  0  0  0  0  0  0  0  0  0  0
  144.7411  134.2163  153.6812 H   0  0  0  0  0  0  0  0  0  0  0  0
  148.9418  143.0162  155.1757 H   0  0  0  0  0  0  0  0  0  0  0  0
  1  2  1  0  0  0  0
  1 22  1  0  0  0  0
  1 23  1  0  0  0  0
  1 24  1  0  0  0  0
  2 18  1  0  0  0  0
  2  3  2  0  0  0  0
  3  4  1  0  0  0  0
  3 36  1  0  0  0  0
  4  5  2  0  0  0  0
  4 25  1  0  0  0  0
  5  6  1  0  0  0  0
  5 26  1  0  0  0  0
  6  7  1  0  0  0  0
  6 18  2  0  0  0  0
  7  8  1  0  0  0  0
  7 27  1  0  0  0  0
  8  9  2  0  0  0  0
  8 10  1  0  0  0  0
 10 11  1  0  0  0  0
 10 28  1  0  0  0  0
 11 20  1  0  0  0  0
 11 17  1  0  0  0  0
 11 12  1  0  0  0  0
 12 13  2  0  0  0  0
 12 29  1  0  0  0  0
 13 14  1  0  0  0  0
 13 30  1  0  0  0  0
 14 21  1  0  0  0  0
 14 15  1  0  0  0  0
 14 17  1  0  0  0  0
 15 16  1  0  0  0  0
 15 31  1  0  0  0  0
 15 32  1  0  0  0  0
 16 33  1  0  0  0  0
 17 34  1  0  0  0  0
 17 35  1  0  0  0  0
 18 19  1  0  0  0  0
M  CHG  1   3   1
M  END
> <s_m_source_file>
AV-unprocessed.smi

> <i_m_source_file_index>
2368

> <i_lp_mmshare_version>
43012

> <i_f3d_flags>
0

> <s_epik_input>
W0NIM11jMW5bY0hdW2NIXWMoYzFDbClbTkhdQyg9TylbTkhdW0NAQEhdMltDSF09W0NIXVtDQEBIXShbQ0gyXTIpW0NIMl1bT0hd

> <s_epik_cmdline>
J2VwaWtfcHl0aG9uJywgJy1waCcsICc3LjAnLCAnLXRuJywgJzgnLCAnLW1hJywgJzIwMCcsICctbWV0YWxfYmluZGluZycsICctaW1hZScsICc8aW5maWxlLm1hZT4nLCAnLW9tYWUnLCAnPG91dGZpbGUubWFlPic=

> <r_epik_Ionization_Penalty>
2.4467

> <r_epik_Ionization_Penalty_Charging>
2.44668

> <r_epik_Ionization_Penalty_Neutral>
1.95078e-05

> <r_epik_State_Penalty>
2.60786

> <r_epik_Charging_Adjusted_Penalty>
5.05454

> <i_epik_Tot_Q>
1

> <i_epik_Tot_abs_Q>
1

> <r_epik_Metal_State_Penalty>
2.61736

> <b_epik_Metal_Only>
0

> <s_lp_Force_Field>
OPLS_2005

> <r_lp_Energy>
25.3195

> <b_lp_Chiralities_Consistent>
1

> <s_lp_Variant>
AV-unprocessed.smi:2368-8

> <Gold.Version>
5.8.1

> <Gold.Id.Protein>
6NUR|6NUR_protein|mol2

> <Gold.PLP.Fitness>
48.3120

> <Gold.PLP.PLP>
-34.0469

> <Gold.PLP.part.hbond>
-4.2553

> <Gold.PLP.part.metal>
0.0000

> <Gold.PLP.part.buried>
-3.3072

> <Gold.PLP.part.nonpolar>
-28.3867

> <Gold.PLP.part.repulsive>
1.8559

> <Gold.PLP.ligand.clash>
0.0000

> <Gold.PLP.ligand.torsion>
0.3156

> <Gold.PLP.Chemscore.Hbond>
4.9600

> <Gold.PLP.Chemscore.CHOScore>
0.0000

> <Gold.PLP.Chemscore.Metal>
0.0000

> <Gold.Chemscore.Hbonds>
donor molecule, donor type, donor heavy atom, donor atom, acceptor molecule, acceptor atom, score
      L1  H     3    36       P1  8028  2.00
      L1  H     7    27       P1  7948  0.96
      L1  H    10    28       P1  7948  1.00
      L1  H    16    33       P1 10747  1.00

> <Gold.PLP.Chemscore.Internal.Correction>
0.0162

> <Gold.Rescore>
     Score         DG    S(hbond)    S(metal)    S(lipo)     H(rot)  DE(clash)    DE(int)     intcor
     21.94     -23.37       3.94        0.00      79.87       1.81       0.56       0.87       ----

> <Gold.Chemscore.Fitness>
21.9386

> <Gold.Chemscore.DG>
-23.3743

> <Gold.Chemscore.ZeroCoef>
-5.4800

> <Gold.Chemscore.Hbond>
3.9441

> <Gold.Chemscore.Metal>
0.0000

> <Gold.Chemscore.Lipo>
79.8692

> <Gold.Chemscore.Internal_Hbond>
0.0000

> <Gold.Chemscore.DEClash>
0.5625

> <Gold.Chemscore.DEInternal>
0.8732

> <Gold.Chemscore.Rot>
1.8061

> <Gold.Chemscore.Internal.Correction>
   9.000000E+99

> <Gold.Chemscore.Hbonds>
donor molecule, donor type, donor heavy atom, donor atom, acceptor molecule, acceptor atom, score
      L1  H     3    36       P1  8028  1.00
      L1  H     7    27       P1  7948  0.91
      L1  H    10    28       P1  7948  0.99
      L1  H    16    33       P1 10747  0.98

> <Gold.Chemscore.Hbond.Weighted>
-13.1733

> <Gold.Chemscore.Metal.Weighted>
-0.0000

> <Gold.Chemscore.Lipo.Weighted>
-9.3447

> <Gold.Chemscore.Internal_Hbond.Weighted>
0.0000

> <Gold.Chemscore.DEClash.Weighted>
0.5625

> <Gold.Chemscore.DEInternal.Weighted>
0.8732

> <Gold.Chemscore.Rot.Weighted>
4.6237

> <Gold.Chemscore.Internal.Correction.Weighted>
   9.000000E+99

> <Gold.Protein.RotatedTorsions>
[ 6907 6896 6895 6894 ] final  -49.06 input  -60.11 | X-H torsion
[ 7974 7965 7964 7962 ] final  -48.92 input  175.53 | X-H torsion
[ 8008 7997 7996 7995 ] final  -87.00 input   59.86 | X-H torsion
[ 10167 10162 10161 10158 ] final  143.98 input  -65.29 | X-H torsion
[ 10718 10713 10712 10709 ] final -134.06 input   66.30 | X-H torsion
[ 10763 10752 10751 10750 ] final   50.65 input  -60.55 | X-H torsion
[ 11005 11000 10999 10996 ] final  -88.15 input  -57.11 | X-H torsion

> <Gold.Protein.ActiveResidues>
 VAL166  LYS551  ARG553  GLY616  TRP617  ASP618  TYR619  PRO620  LYS621  CYS622 
 ASP623  PHE694  ASN695  SER759  ASP760  ASP761  ALA762  ILE779  LEU786  VAL792 
 PHE793  MET794  SER795  GLU796  ALA797  LYS798  CYS799  TRP800  GLU811  SER814 

> <Gold.Protein.RotatedAtoms>
  150.8843  134.8239  159.7247 H   0  0  0  0  0  0  0  0  0  0  0  0  # atno 6907 bound_to 6896
  152.4798  134.4747  159.9656 H   0  0  0  0  0  0  0  0  0  0  0  0  # atno 6908 bound_to 6896
  151.4818  133.3506  159.2875 H   0  0  0  0  0  0  0  0  0  0  0  0  # atno 6909 bound_to 6896
  145.9460  140.7617  142.9528 H   0  0  0  0  0  0  0  0  0  0  0  0  # atno 7974 bound_to 7965
  154.6583  140.0571  157.0033 H   0  0  0  0  0  0  0  0  0  0  0  0  # atno 8008 bound_to 7997
  155.1267  140.3252  155.4465 H   0  0  0  0  0  0  0  0  0  0  0  0  # atno 8009 bound_to 7997
  156.2607  140.1988  156.6388 H   0  0  0  0  0  0  0  0  0  0  0  0  # atno 8010 bound_to 7997
  139.4957  144.6004  151.6494 H   0  0  0  0  0  0  0  0  0  0  0  0  # atno 10167 bound_to 10162
  156.2515  130.7156  151.1056 H   0  0  0  0  0  0  0  0  0  0  0  0  # atno 10718 bound_to 10713
  152.9784  135.5872  154.4287 H   0  0  0  0  0  0  0  0  0  0  0  0  # atno 10763 bound_to 10752
  154.3902  135.2768  155.2161 H   0  0  0  0  0  0  0  0  0  0  0  0  # atno 10764 bound_to 10752
  154.4036  135.6098  153.5966 H   0  0  0  0  0  0  0  0  0  0  0  0  # atno 10765 bound_to 10752
  141.1606  133.7553  156.9409 H   0  0  0  0  0  0  0  0  0  0  0  0  # atno 11005 bound_to 11000
  144.6787  140.2357  143.7350 LP  0  0  0  0  0  0  0  0  0  0  0  0  # atno 17320 bound_to 7965
  145.8235  139.2054  143.1924 LP  0  0  0  0  0  0  0  0  0  0  0  0  # atno 17321 bound_to 7965
  140.5652  144.0202  150.6189 LP  0  0  0  0  0  0  0  0  0  0  0  0  # atno 17342 bound_to 10162
  140.3301  143.3083  152.0696 LP  0  0  0  0  0  0  0  0  0  0  0  0  # atno 17343 bound_to 10162
  157.7216  131.0678  150.6111 LP  0  0  0  0  0  0  0  0  0  0  0  0  # atno 17370 bound_to 10713
  156.6192  130.4401  149.5829 LP  0  0  0  0  0  0  0  0  0  0  0  0  # atno 17371 bound_to 10713
  140.1322  134.9348  157.2353 LP  0  0  0  0  0  0  0  0  0  0  0  0  # atno 17394 bound_to 11000
  140.2939  134.3209  155.7307 LP  0  0  0  0  0  0  0  0  0  0  0  0  # atno 17395 bound_to 11000

$$$$
