AV-unprocessed.smi:224|AV-procd|sdf|1710|dock4
  -GOLD-   2262020173D 1   1.00000     0.00000
 Structure written by MMmdl.
 56 59  0  0  0  0  0  0  0  0  2 V2000
  145.9218  139.0798  154.3340 C   0  0  0  0  0  0  0  0  0  0  0  0
  147.2373  139.2138  153.5561 C   0  0  1  0  0  0  0  0  0  0  0  0
  146.9801  138.9107  152.1999 O   0  0  0  0  0  0  0  0  0  0  0  0
  147.8256  140.6359  153.6591 C   0  0  0  0  0  0  0  0  0  0  0  0
  148.6362  140.8643  154.8876 N   0  3  1  0  0  0  0  0  0  0  0  0
  147.8583  140.5962  156.1262 C   0  0  0  0  0  0  0  0  0  0  0  0
  148.6531  140.9904  157.3835 C   0  0  0  0  0  0  0  0  0  0  0  0
  149.9715  140.3616  157.3927 N   0  0  0  0  0  0  0  0  0  0  0  0
  150.1340  139.1517  157.9941 C   0  0  0  0  0  0  0  0  0  0  0  0
  151.3885  138.6786  158.2234 N   0  0  0  0  0  0  0  0  0  0  0  0
  151.5710  137.5033  158.8312 C   0  0  0  0  0  0  0  0  0  0  0  0
  150.6533  136.6486  159.2837 N   0  0  0  0  0  0  0  0  0  0  0  0
  149.3913  137.1066  159.0471 C   0  0  0  0  0  0  0  0  0  0  0  0
  149.0445  138.3323  158.4100 C   0  0  0  0  0  0  0  0  0  0  0  0
  147.6612  138.4421  158.3271 N   0  0  0  0  0  0  0  0  0  0  0  0
  147.2174  137.3542  158.8945 C   0  0  0  0  0  0  0  0  0  0  0  0
  148.1884  136.5006  159.3660 N   0  0  0  0  0  0  0  0  0  0  0  0
  147.9757  135.2267  160.0370 C   0  0  0  0  0  0  0  0  0  0  0  0
  147.2658  135.3599  161.4050 C   0  0  1  0  0  0  0  0  0  0  0  0
  147.1030  134.0683  161.9665 O   0  0  0  0  0  0  0  0  0  0  0  0
  148.0409  136.2182  162.3959 C   0  0  0  0  0  0  0  0  0  0  0  0
  146.9400  136.7739  163.2892 C   0  0  0  0  0  0  0  0  0  0  0  0
  145.8932  137.0491  162.3736 O   0  0  0  0  0  0  0  0  0  0  0  0
  145.8867  136.0498  161.3575 C   0  0  0  0  0  0  0  0  0  0  0  0
  150.7610  140.6238  156.1911 C   0  0  0  0  0  0  0  0  0  0  0  0
  149.9982  140.2424  154.9019 C   0  0  1  0  0  0  0  0  0  0  0  0
  149.9837  138.7172  154.6641 C   0  0  0  0  0  0  0  0  0  0  0  0
  146.0724  139.2865  155.3939 H   0  0  0  0  0  0  0  0  0  0  0  0
  145.5160  138.0710  154.2513 H   0  0  0  0  0  0  0  0  0  0  0  0
  145.1661  139.7741  153.9646 H   0  0  0  0  0  0  0  0  0  0  0  0
  147.9353  138.4769  153.9517 H   0  0  0  0  0  0  0  0  0  0  0  0
  147.5329  139.4520  151.6570 H   0  0  0  0  0  0  0  0  0  0  0  0
  148.4591  140.8077  152.7873 H   0  0  0  0  0  0  0  0  0  0  0  0
  147.0318  141.3807  153.5961 H   0  0  0  0  0  0  0  0  0  0  0  0
  146.9262  141.1617  156.1056 H   0  0  0  0  0  0  0  0  0  0  0  0
  147.5806  139.5424  156.1643 H   0  0  0  0  0  0  0  0  0  0  0  0
  148.7972  142.0713  157.3982 H   0  0  0  0  0  0  0  0  0  0  0  0
  148.0925  140.7514  158.2882 H   0  0  0  0  0  0  0  0  0  0  0  0
  152.5989  137.2063  158.9780 H   0  0  0  0  0  0  0  0  0  0  0  0
  146.1617  137.1439  158.9887 H   0  0  0  0  0  0  0  0  0  0  0  0
  147.3964  134.5839  159.3729 H   0  0  0  0  0  0  0  0  0  0  0  0
  148.9440  134.7404  160.1620 H   0  0  0  0  0  0  0  0  0  0  0  0
  146.5541  134.1426  162.7323 H   0  0  0  0  0  0  0  0  0  0  0  0
  148.8076  135.6717  162.9468 H   0  0  0  0  0  0  0  0  0  0  0  0
  148.5295  137.0452  161.8786 H   0  0  0  0  0  0  0  0  0  0  0  0
  146.6070  136.0277  164.0122 H   0  0  0  0  0  0  0  0  0  0  0  0
  147.2459  137.6686  163.8315 H   0  0  0  0  0  0  0  0  0  0  0  0
  145.7083  136.5487  160.4058 H   0  0  0  0  0  0  0  0  0  0  0  0
  145.0656  135.3493  161.5167 H   0  0  0  0  0  0  0  0  0  0  0  0
  150.9832  141.6914  156.1745 H   0  0  0  0  0  0  0  0  0  0  0  0
  151.7269  140.1221  156.2084 H   0  0  0  0  0  0  0  0  0  0  0  0
  150.5733  140.6811  154.0877 H   0  0  0  0  0  0  0  0  0  0  0  0
  150.9897  138.3048  154.7478 H   0  0  0  0  0  0  0  0  0  0  0  0
  149.6247  138.4671  153.6662 H   0  0  0  0  0  0  0  0  0  0  0  0
  149.3573  138.1921  155.3842 H   0  0  0  0  0  0  0  0  0  0  0  0
  148.8075  141.8598  154.9028 H   0  0  0  0  0  0  0  0  0  0  0  0
  1  2  1  0  0  0  0
  1 28  1  0  0  0  0
  1 29  1  0  0  0  0
  1 30  1  0  0  0  0
  2  3  1  0  0  0  0
  2  4  1  0  0  0  0
  2 31  1  0  0  0  0
  3 32  1  0  0  0  0
  4  5  1  0  0  0  0
  4 33  1  0  0  0  0
  4 34  1  0  0  0  0
  5 26  1  0  0  0  0
  5  6  1  0  0  0  0
  5 56  1  0  0  0  0
  6  7  1  0  0  0  0
  6 35  1  0  0  0  0
  6 36  1  0  0  0  0
  7  8  1  0  0  0  0
  7 37  1  0  0  0  0
  7 38  1  0  0  0  0
  8  9  1  0  0  0  0
  8 25  1  0  0  0  0
  9 14  1  0  0  0  0
  9 10  2  0  0  0  0
 10 11  1  0  0  0  0
 11 12  2  0  0  0  0
 11 39  1  0  0  0  0
 12 13  1  0  0  0  0
 13 17  1  0  0  0  0
 13 14  2  0  0  0  0
 14 15  1  0  0  0  0
 15 16  2  0  0  0  0
 16 17  1  0  0  0  0
 16 40  1  0  0  0  0
 17 18  1  0  0  0  0
 18 19  1  0  0  0  0
 18 41  1  0  0  0  0
 18 42  1  0  0  0  0
 19 24  1  0  0  0  0
 19 20  1  0  0  0  0
 19 21  1  0  0  0  0
 20 43  1  0  0  0  0
 21 22  1  0  0  0  0
 21 44  1  0  0  0  0
 21 45  1  0  0  0  0
 22 23  1  0  0  0  0
 22 46  1  0  0  0  0
 22 47  1  0  0  0  0
 23 24  1  0  0  0  0
 24 48  1  0  0  0  0
 24 49  1  0  0  0  0
 25 26  1  0  0  0  0
 25 50  1  0  0  0  0
 25 51  1  0  0  0  0
 26 27  1  0  0  0  0
 26 52  1  0  0  0  0
 27 53  1  0  0  0  0
 27 54  1  0  0  0  0
 27 55  1  0  0  0  0
M  CHG  1   5   1
M  END
> <s_m_source_file>
AV-unprocessed.smi

> <i_m_source_file_index>
224

> <i_lp_mmshare_version>
43012

> <i_f3d_flags>
0

> <s_epik_input>
W0NIM11bQ0BIXShbT0hdKVtDSDJdTjFbQ0gyXVtDSDJdTihbQ0gyXVtDQEhdMVtDSDNdKWMobltjSF1uMiljKGMyMyluW2NIXW4zW0NIMl1bQ0BAXTQoW09IXSlbQ0gyXVtDSDJdT1tDSDJdNA==

> <s_epik_cmdline>
J2VwaWtfcHl0aG9uJywgJy1waCcsICc3LjAnLCAnLXRuJywgJzgnLCAnLW1hJywgJzIwMCcsICctbWV0YWxfYmluZGluZycsICctaW1hZScsICc8aW5maWxlLm1hZT4nLCAnLW9tYWUnLCAnPG91dGZpbGUubWFlPic=

> <r_lp_tautomer_probability>
1

> <r_epik_Ionization_Penalty>
0.00516958

> <r_epik_Ionization_Penalty_Charging>
0.00509693

> <r_epik_Ionization_Penalty_Neutral>
7.26542e-05

> <r_epik_State_Penalty>
-0

> <r_epik_Charging_Adjusted_Penalty>
0.00509693

> <i_epik_Tot_Q>
1

> <i_epik_Tot_abs_Q>
1

> <r_epik_Metal_State_Penalty>
-0

> <b_epik_Metal_Only>
0

> <s_lp_Force_Field>
OPLS_2005

> <r_lp_Energy>
49.6762

> <b_lp_Chiralities_Consistent>
1

> <s_lp_Variant>
AV-unprocessed.smi:224-4

> <Gold.Version>
5.8.1

> <Gold.Id.Protein>
6NUR|6NUR_protein|mol2

> <Gold.PLP.Fitness>
42.2220

> <Gold.PLP.PLP>
-37.4233

> <Gold.PLP.part.hbond>
-3.6727

> <Gold.PLP.part.metal>
0.0000

> <Gold.PLP.part.buried>
-5.5195

> <Gold.PLP.part.nonpolar>
-29.1497

> <Gold.PLP.part.repulsive>
0.1123

> <Gold.PLP.ligand.clash>
0.0000

> <Gold.PLP.ligand.torsion>
0.7735

> <Gold.PLP.Chemscore.Hbond>
2.0000

> <Gold.PLP.Chemscore.CHOScore>
0.0000

> <Gold.PLP.Chemscore.Metal>
0.0000

> <Gold.Chemscore.Hbonds>
donor molecule, donor type, donor heavy atom, donor atom, acceptor molecule, acceptor atom, score
      L1  H     3    32       P1  7957  0.60
      P1  H  6896  6908       L1    12  1.00

> <Gold.PLP.Chemscore.Internal.Correction>
0.3458

> <Gold.Rescore>
     Score         DG    S(hbond)    S(metal)    S(lipo)     H(rot)  DE(clash)    DE(int)     intcor
     10.52     -13.87       1.97        0.00      81.68       3.02       0.29       3.06       ----

> <Gold.Chemscore.Fitness>
10.5172

> <Gold.Chemscore.DG>
-13.8669

> <Gold.Chemscore.ZeroCoef>
-5.4800

> <Gold.Chemscore.Hbond>
1.9670

> <Gold.Chemscore.Metal>
0.0000

> <Gold.Chemscore.Lipo>
81.6780

> <Gold.Chemscore.Internal_Hbond>
0.0000

> <Gold.Chemscore.DEClash>
0.2869

> <Gold.Chemscore.DEInternal>
3.0628

> <Gold.Chemscore.Rot>
3.0231

> <Gold.Chemscore.Internal.Correction>
   9.000000E+99

> <Gold.Chemscore.Hbonds>
donor molecule, donor type, donor heavy atom, donor atom, acceptor molecule, acceptor atom, score
      L1  H     3    32       P1  7957  0.59
      P1  H  6896  6908       L1    12  0.98

> <Gold.Chemscore.Hbond.Weighted>
-6.5697

> <Gold.Chemscore.Metal.Weighted>
-0.0000

> <Gold.Chemscore.Lipo.Weighted>
-9.5563

> <Gold.Chemscore.Internal_Hbond.Weighted>
0.0000

> <Gold.Chemscore.DEClash.Weighted>
0.2869

> <Gold.Chemscore.DEInternal.Weighted>
3.0628

> <Gold.Chemscore.Rot.Weighted>
7.7391

> <Gold.Chemscore.Internal.Correction.Weighted>
   9.000000E+99

> <Gold.Protein.RotatedTorsions>
[ 6907 6896 6895 6894 ] final -157.57 input  -60.11 | X-H torsion
[ 7974 7965 7964 7962 ] final  -46.18 input  175.53 | X-H torsion
[ 8008 7997 7996 7995 ] final  143.48 input   59.86 | X-H torsion
[ 10167 10162 10161 10158 ] final  -88.58 input  -65.29 | X-H torsion
[ 10718 10713 10712 10709 ] final -137.10 input   66.30 | X-H torsion
[ 10763 10752 10751 10750 ] final -156.39 input  -60.55 | X-H torsion
[ 11005 11000 10999 10996 ] final   30.71 input  -57.11 | X-H torsion

> <Gold.Protein.ActiveResidues>
 VAL166  LYS551  ARG553  GLY616  TRP617  ASP618  TYR619  PRO620  LYS621  CYS622 
 ASP623  PHE694  ASN695  SER759  ASP760  ASP761  ALA762  ILE779  LEU786  VAL792 
 PHE793  MET794  SER795  GLU796  ALA797  LYS798  CYS799  TRP800  GLU811  SER814 

> <Gold.Protein.RotatedAtoms>
  151.3049  133.4106  159.2642 H   0  0  0  0  0  0  0  0  0  0  0  0  # atno 6907 bound_to 6896
  151.0164  134.9436  159.8046 H   0  0  0  0  0  0  0  0  0  0  0  0  # atno 6908 bound_to 6896
  152.5313  134.3012  159.9132 H   0  0  0  0  0  0  0  0  0  0  0  0  # atno 6909 bound_to 6896
  145.9745  140.7348  142.9394 H   0  0  0  0  0  0  0  0  0  0  0  0  # atno 7974 bound_to 7965
  156.2929  140.2261  156.4897 H   0  0  0  0  0  0  0  0  0  0  0  0  # atno 8008 bound_to 7997
  154.7781  140.0462  157.1127 H   0  0  0  0  0  0  0  0  0  0  0  0  # atno 8009 bound_to 7997
  154.9792  140.3076  155.4957 H   0  0  0  0  0  0  0  0  0  0  0  0  # atno 8010 bound_to 7997
  140.3733  143.2783  151.9473 H   0  0  0  0  0  0  0  0  0  0  0  0  # atno 10167 bound_to 10162
  156.2844  130.7339  151.1346 H   0  0  0  0  0  0  0  0  0  0  0  0  # atno 10718 bound_to 10713
  154.7716  135.3147  154.8177 H   0  0  0  0  0  0  0  0  0  0  0  0  # atno 10763 bound_to 10752
  153.8911  135.6825  153.4765 H   0  0  0  0  0  0  0  0  0  0  0  0  # atno 10764 bound_to 10752
  153.1331  135.4771  154.9315 H   0  0  0  0  0  0  0  0  0  0  0  0  # atno 10765 bound_to 10752
  140.2916  134.2858  155.7775 H   0  0  0  0  0  0  0  0  0  0  0  0  # atno 11005 bound_to 11000
  144.6845  140.2804  143.7293 LP  0  0  0  0  0  0  0  0  0  0  0  0  # atno 17320 bound_to 7965
  145.7858  139.1908  143.2131 LP  0  0  0  0  0  0  0  0  0  0  0  0  # atno 17321 bound_to 7965
  139.4801  144.5886  151.7810 LP  0  0  0  0  0  0  0  0  0  0  0  0  # atno 17342 bound_to 10162
  140.5011  144.1167  150.5971 LP  0  0  0  0  0  0  0  0  0  0  0  0  # atno 17343 bound_to 10162
  157.7324  131.0600  150.5630 LP  0  0  0  0  0  0  0  0  0  0  0  0  # atno 17370 bound_to 10713
  156.5739  130.4287  149.6007 LP  0  0  0  0  0  0  0  0  0  0  0  0  # atno 17371 bound_to 10713
  141.2145  133.7588  156.9632 LP  0  0  0  0  0  0  0  0  0  0  0  0  # atno 17394 bound_to 11000
  140.1191  134.9429  157.2177 LP  0  0  0  0  0  0  0  0  0  0  0  0  # atno 17395 bound_to 11000

$$$$
