AV-unprocessed.smi:1375|AV-procd|sdf|5589|dock5
  -GOLD-   22720 5193D 1   1.00000     0.00000
 Structure written by MMmdl.
 36 37  0  0  0  0  0  0  0  0  1 V2000
  146.3717  150.9782  160.4135 C   0  0  0  0  0  0  0  0  0  0  0  0
  146.0099  149.6978  159.7424 C   0  0  0  0  0  0  0  0  0  0  0  0
  145.9895  148.5163  160.3648 N   0  0  0  0  0  0  0  0  0  0  0  0
  145.6184  147.4676  159.5172 C   0  0  0  0  0  0  0  0  0  0  0  0
  145.5375  146.0682  160.0473 C   0  0  0  0  0  0  0  0  0  0  0  0
  146.8507  145.6222  160.7116 C   0  0  0  0  0  0  0  0  0  0  0  0
  147.9072  145.4146  159.7284 N   0  0  0  0  0  0  0  0  0  0  0  0
  149.1488  144.9835  160.0080 C   0  0  0  0  0  0  0  0  0  0  0  0
  149.5340  144.7183  161.1453 O   0  0  0  0  0  0  0  0  0  0  0  0
  149.9520  144.8503  158.9374 N   0  0  0  0  0  0  0  0  0  0  0  0
  151.3474  144.4059  158.9070 C   0  0  0  0  0  0  0  0  0  0  0  0
  151.4654  142.8680  158.9781 C   0  0  0  0  0  0  0  0  0  0  0  0
  152.4831  142.5688  160.0801 C   0  0  0  0  0  0  0  0  0  0  0  0
  152.3504  143.7436  161.0432 C   0  0  0  0  0  0  0  0  0  0  0  0
  152.1089  144.9466  160.1313 C   0  0  0  0  0  0  0  0  0  0  0  0
  145.3525  147.8771  158.2344 C   0  0  0  0  0  0  0  0  0  0  0  0
  145.5614  149.5960  158.0442 S   0  0  0  0  0  0  0  0  0  0  0  0
  146.7748  150.7902  161.4092 H   0  0  0  0  0  0  0  0  0  0  0  0
  145.4893  151.6114  160.5068 H   0  0  0  0  0  0  0  0  0  0  0  0
  147.1232  151.5072  159.8272 H   0  0  0  0  0  0  0  0  0  0  0  0
  144.7194  145.9949  160.7650 H   0  0  0  0  0  0  0  0  0  0  0  0
  145.2864  145.3798  159.2392 H   0  0  0  0  0  0  0  0  0  0  0  0
  147.1898  146.3833  161.4148 H   0  0  0  0  0  0  0  0  0  0  0  0
  146.6956  144.7107  161.2913 H   0  0  0  0  0  0  0  0  0  0  0  0
  147.6775  145.6057  158.7640 H   0  0  0  0  0  0  0  0  0  0  0  0
  149.5437  145.0704  158.0404 H   0  0  0  0  0  0  0  0  0  0  0  0
  151.8318  144.7843  158.0050 H   0  0  0  0  0  0  0  0  0  0  0  0
  150.5079  142.4211  159.2505 H   0  0  0  0  0  0  0  0  0  0  0  0
  151.7615  142.4337  158.0227 H   0  0  0  0  0  0  0  0  0  0  0  0
  152.3084  141.6069  160.5629 H   0  0  0  0  0  0  0  0  0  0  0  0
  153.4889  142.5525  159.6581 H   0  0  0  0  0  0  0  0  0  0  0  0
  151.4857  143.5929  161.6908 H   0  0  0  0  0  0  0  0  0  0  0  0
  153.2271  143.8678  161.6795 H   0  0  0  0  0  0  0  0  0  0  0  0
  153.0704  145.3469  159.8069 H   0  0  0  0  0  0  0  0  0  0  0  0
  151.5860  145.7535  160.6473 H   0  0  0  0  0  0  0  0  0  0  0  0
  145.0455  147.2735  157.3932 H   0  0  0  0  0  0  0  0  0  0  0  0
  1  2  1  0  0  0  0
  1 18  1  0  0  0  0
  1 19  1  0  0  0  0
  1 20  1  0  0  0  0
  2 17  1  0  0  0  0
  2  3  2  0  0  0  0
  3  4  1  0  0  0  0
  4  5  1  0  0  0  0
  4 16  2  0  0  0  0
  5  6  1  0  0  0  0
  5 21  1  0  0  0  0
  5 22  1  0  0  0  0
  6  7  1  0  0  0  0
  6 23  1  0  0  0  0
  6 24  1  0  0  0  0
  7  8  1  0  0  0  0
  7 25  1  0  0  0  0
  8  9  2  0  0  0  0
  8 10  1  0  0  0  0
 10 11  1  0  0  0  0
 10 26  1  0  0  0  0
 11 15  1  0  0  0  0
 11 12  1  0  0  0  0
 11 27  1  0  0  0  0
 12 13  1  0  0  0  0
 12 28  1  0  0  0  0
 12 29  1  0  0  0  0
 13 14  1  0  0  0  0
 13 30  1  0  0  0  0
 13 31  1  0  0  0  0
 14 15  1  0  0  0  0
 14 32  1  0  0  0  0
 14 33  1  0  0  0  0
 15 34  1  0  0  0  0
 15 35  1  0  0  0  0
 16 17  1  0  0  0  0
 16 36  1  0  0  0  0
M  END
> <s_m_source_file>
AV-unprocessed.smi

> <i_m_source_file_index>
1375

> <i_lp_mmshare_version>
43012

> <i_f3d_flags>
0

> <s_epik_input>
W0NIM11jMW5jKFtjSF1zMSlbQ0gyXVtDSDJdW05IXUMoPU8pW05IXVtDSF0yW0NIMl1bQ0gyXVtDSDJdW0NIMl0y

> <s_epik_cmdline>
J2VwaWtfcHl0aG9uJywgJy1waCcsICc3LjAnLCAnLXRuJywgJzgnLCAnLW1hJywgJzIwMCcsICctbWV0YWxfYmluZGluZycsICctaW1hZScsICc8aW5maWxlLm1hZT4nLCAnLW9tYWUnLCAnPG91dGZpbGUubWFlPic=

> <r_epik_Ionization_Penalty>
0.00202185

> <r_epik_Ionization_Penalty_Charging>
0

> <r_epik_Ionization_Penalty_Neutral>
0.00202185

> <r_epik_State_Penalty>
0.00133629

> <r_epik_Charging_Adjusted_Penalty>
0.00133629

> <i_epik_Tot_Q>
0

> <i_epik_Tot_abs_Q>
0

> <r_epik_Metal_State_Penalty>
-0

> <b_epik_Metal_Only>
0

> <s_lp_Force_Field>
OPLS_2005

> <r_lp_Energy>
21.3593

> <b_lp_Chiralities_Consistent>
1

> <s_lp_Variant>
AV-unprocessed.smi:1375-1

> <Gold.Version>
5.8.1

> <Gold.Id.Protein>
6NUR|6NUR_protein|mol2

> <Gold.PLP.Fitness>
49.5830

> <Gold.PLP.PLP>
-45.0795

> <Gold.PLP.part.hbond>
-3.4019

> <Gold.PLP.part.metal>
0.0000

> <Gold.PLP.part.buried>
-8.0224

> <Gold.PLP.part.nonpolar>
-35.3956

> <Gold.PLP.part.repulsive>
1.4784

> <Gold.PLP.ligand.clash>
0.0000

> <Gold.PLP.ligand.torsion>
0.3609

> <Gold.PLP.Chemscore.Hbond>
1.7344

> <Gold.PLP.Chemscore.CHOScore>
0.0000

> <Gold.PLP.Chemscore.Metal>
0.0000

> <Gold.Chemscore.Hbonds>
donor molecule, donor type, donor heavy atom, donor atom, acceptor molecule, acceptor atom, score
      L1  H     7    25       P1  8029  0.99
      L1  H    10    26       P1  8029  0.73

> <Gold.PLP.Chemscore.Internal.Correction>
0.0221

> <Gold.Rescore>
     Score         DG    S(hbond)    S(metal)    S(lipo)     H(rot)  DE(clash)    DE(int)     intcor
     14.84     -17.90       1.02        0.00     109.95       1.51       0.16       2.90       ----

> <Gold.Chemscore.Fitness>
14.8400

> <Gold.Chemscore.DG>
-17.9008

> <Gold.Chemscore.ZeroCoef>
-5.4800

> <Gold.Chemscore.Hbond>
1.0214

> <Gold.Chemscore.Metal>
0.0000

> <Gold.Chemscore.Lipo>
109.9525

> <Gold.Chemscore.Internal_Hbond>
0.0000

> <Gold.Chemscore.DEClash>
0.1591

> <Gold.Chemscore.DEInternal>
2.9016

> <Gold.Chemscore.Rot>
1.5060

> <Gold.Chemscore.Internal.Correction>
   9.000000E+99

> <Gold.Chemscore.Hbonds>
donor molecule, donor type, donor heavy atom, donor atom, acceptor molecule, acceptor atom, score
      L1  H     7    25       P1  8029  0.93
      L1  H    10    26       P1  8029  0.14

> <Gold.Chemscore.Hbond.Weighted>
-3.4116

> <Gold.Chemscore.Metal.Weighted>
-0.0000

> <Gold.Chemscore.Lipo.Weighted>
-12.8644

> <Gold.Chemscore.Internal_Hbond.Weighted>
0.0000

> <Gold.Chemscore.DEClash.Weighted>
0.1591

> <Gold.Chemscore.DEInternal.Weighted>
2.9016

> <Gold.Chemscore.Rot.Weighted>
3.8553

> <Gold.Chemscore.Internal.Correction.Weighted>
   9.000000E+99

> <Gold.Protein.RotatedTorsions>
[ 6907 6896 6895 6894 ] final   50.32 input  -60.11 | X-H torsion
[ 7974 7965 7964 7962 ] final   -8.93 input  175.53 | X-H torsion
[ 8008 7997 7996 7995 ] final   20.41 input   59.86 | X-H torsion
[ 10167 10162 10161 10158 ] final   -6.01 input  -65.29 | X-H torsion
[ 10718 10713 10712 10709 ] final -129.86 input   66.30 | X-H torsion
[ 10763 10752 10751 10750 ] final   -3.47 input  -60.55 | X-H torsion
[ 11005 11000 10999 10996 ] final -125.27 input  -57.11 | X-H torsion

> <Gold.Protein.ActiveResidues>
 VAL166  LYS551  ARG553  GLY616  TRP617  ASP618  TYR619  PRO620  LYS621  CYS622 
 ASP623  PHE694  ASN695  SER759  ASP760  ASP761  ALA762  ILE779  LEU786  VAL792 
 PHE793  MET794  SER795  GLU796  ALA797  LYS798  CYS799  TRP800  GLU811  SER814 

> <Gold.Protein.RotatedAtoms>
  152.3005  134.7617  160.0358 H   0  0  0  0  0  0  0  0  0  0  0  0  # atno 6907 bound_to 6896
  151.8132  133.3379  159.3569 H   0  0  0  0  0  0  0  0  0  0  0  0  # atno 6908 bound_to 6896
  150.7271  134.5574  159.5869 H   0  0  0  0  0  0  0  0  0  0  0  0  # atno 6909 bound_to 6896
  146.2266  140.2542  142.8348 H   0  0  0  0  0  0  0  0  0  0  0  0  # atno 7974 bound_to 7965
  154.9352  140.3045  155.5148 H   0  0  0  0  0  0  0  0  0  0  0  0  # atno 8008 bound_to 7997
  156.3000  140.2346  156.4353 H   0  0  0  0  0  0  0  0  0  0  0  0  # atno 8009 bound_to 7997
  154.8199  140.0424  157.1391 H   0  0  0  0  0  0  0  0  0  0  0  0  # atno 8010 bound_to 7997
  140.6983  143.6242  150.8583 H   0  0  0  0  0  0  0  0  0  0  0  0  # atno 10167 bound_to 10162
  156.2087  130.6905  151.0625 H   0  0  0  0  0  0  0  0  0  0  0  0  # atno 10718 bound_to 10713
  153.3718  135.6995  153.6632 H   0  0  0  0  0  0  0  0  0  0  0  0  # atno 10763 bound_to 10752
  153.5279  135.3598  155.2663 H   0  0  0  0  0  0  0  0  0  0  0  0  # atno 10764 bound_to 10752
  154.8682  135.4173  154.2997 H   0  0  0  0  0  0  0  0  0  0  0  0  # atno 10765 bound_to 10752
  140.9775  134.0720  157.3802 H   0  0  0  0  0  0  0  0  0  0  0  0  # atno 11005 bound_to 11000
  144.9389  140.8056  143.5643 LP  0  0  0  0  0  0  0  0  0  0  0  0  # atno 17320 bound_to 7965
  145.2491  139.2039  143.4952 LP  0  0  0  0  0  0  0  0  0  0  0  0  # atno 17321 bound_to 7965
  139.9962  143.5793  152.2892 LP  0  0  0  0  0  0  0  0  0  0  0  0  # atno 17342 bound_to 10162
  139.6466  144.7658  151.2231 LP  0  0  0  0  0  0  0  0  0  0  0  0  # atno 17343 bound_to 10162
  157.7027  131.0769  150.6769 LP  0  0  0  0  0  0  0  0  0  0  0  0  # atno 17370 bound_to 10713
  156.6828  130.4572  149.5623 LP  0  0  0  0  0  0  0  0  0  0  0  0  # atno 17371 bound_to 10713
  139.8936  135.0131  156.6909 LP  0  0  0  0  0  0  0  0  0  0  0  0  # atno 17394 bound_to 11000
  140.7237  133.9119  155.8164 LP  0  0  0  0  0  0  0  0  0  0  0  0  # atno 17395 bound_to 11000

$$$$
