AV-unprocessed.smi:373|AV-procd|sdf|2450|dock4
  -GOLD-   2262022393D 1   1.00000     0.00000
 Structure written by MMmdl.
 40 41  0  0  0  0  0  0  0  0  1 V2000
  151.2990  145.1169  159.0352 C   0  0  0  0  0  0  0  0  0  0  0  0
  151.1140  144.6087  160.4701 C   0  0  0  0  0  0  0  0  0  0  0  0
  151.8770  143.3074  160.7482 C   0  0  0  0  0  0  0  0  0  0  0  0
  152.9535  143.1928  159.8282 O   0  0  0  0  0  0  0  0  0  0  0  0
  152.8575  142.0872  158.9401 C   0  0  1  0  0  0  0  0  0  0  0  0
  153.0091  140.8068  159.7795 C   0  0  0  0  0  0  0  0  0  0  0  0
  152.8203  139.5613  158.8996 C   0  0  0  0  0  0  0  0  0  0  0  0
  151.4782  139.6167  158.1521 C   0  0  0  0  0  0  0  0  0  0  0  0
  151.3562  140.8629  157.3995 N   0  0  0  0  0  0  0  0  0  0  0  0
  150.3005  140.8453  156.4696 C   0  0  0  0  0  0  0  0  0  0  0  0
  149.2244  141.6291  156.7227 N   0  0  0  0  0  0  0  0  0  0  0  0
  148.1878  141.6097  155.8589 C   0  0  0  0  0  0  0  0  0  0  0  0
  148.1554  140.8047  154.6985 C   0  0  0  0  0  0  0  0  0  0  0  0
  146.9915  140.8294  153.7505 C   0  0  0  0  0  0  0  0  0  0  0  0
  145.8297  141.2597  154.2522 N   0  0  0  0  0  0  0  0  0  0  0  0
  147.0998  140.4215  152.5957 O   0  0  0  0  0  0  0  0  0  0  0  0
  149.2839  140.0023  154.4279 C   0  0  0  0  0  0  0  0  0  0  0  0
  150.3711  140.0148  155.3235 C   0  0  0  0  0  0  0  0  0  0  0  0
  151.7598  139.0409  154.9839 Cl  0  0  0  0  0  0  0  0  0  0  0  0
  151.5042  142.0802  158.1972 C   0  0  0  0  0  0  0  0  0  0  0  0
  150.7533  146.0481  158.8809 H   0  0  0  0  0  0  0  0  0  0  0  0
  150.9307  144.3925  158.3084 H   0  0  0  0  0  0  0  0  0  0  0  0
  152.3501  145.3067  158.8165 H   0  0  0  0  0  0  0  0  0  0  0  0
  151.4557  145.3774  161.1639 H   0  0  0  0  0  0  0  0  0  0  0  0
  150.0527  144.4620  160.6741 H   0  0  0  0  0  0  0  0  0  0  0  0
  152.2372  143.2990  161.7771 H   0  0  0  0  0  0  0  0  0  0  0  0
  151.2003  142.4597  160.6319 H   0  0  0  0  0  0  0  0  0  0  0  0
  153.6749  142.1217  158.2174 H   0  0  0  0  0  0  0  0  0  0  0  0
  153.9891  140.7834  160.2575 H   0  0  0  0  0  0  0  0  0  0  0  0
  152.2698  140.8019  160.5818 H   0  0  0  0  0  0  0  0  0  0  0  0
  153.6363  139.4953  158.1787 H   0  0  0  0  0  0  0  0  0  0  0  0
  152.8710  138.6594  159.5099 H   0  0  0  0  0  0  0  0  0  0  0  0
  151.3903  138.7553  157.4896 H   0  0  0  0  0  0  0  0  0  0  0  0
  150.6532  139.5520  158.8629 H   0  0  0  0  0  0  0  0  0  0  0  0
  147.3638  142.2620  156.1099 H   0  0  0  0  0  0  0  0  0  0  0  0
  145.0099  141.3056  153.6648 H   0  0  0  0  0  0  0  0  0  0  0  0
  145.7783  141.5437  155.2199 H   0  0  0  0  0  0  0  0  0  0  0  0
  149.3213  139.3796  153.5456 H   0  0  0  0  0  0  0  0  0  0  0  0
  150.6878  142.1436  158.9182 H   0  0  0  0  0  0  0  0  0  0  0  0
  151.4245  142.9475  157.5416 H   0  0  0  0  0  0  0  0  0  0  0  0
  1  2  1  0  0  0  0
  1 21  1  0  0  0  0
  1 22  1  0  0  0  0
  1 23  1  0  0  0  0
  2  3  1  0  0  0  0
  2 24  1  0  0  0  0
  2 25  1  0  0  0  0
  3  4  1  0  0  0  0
  3 26  1  0  0  0  0
  3 27  1  0  0  0  0
  4  5  1  0  0  0  0
  5 20  1  0  0  0  0
  5  6  1  0  0  0  0
  5 28  1  0  0  0  0
  6  7  1  0  0  0  0
  6 29  1  0  0  0  0
  6 30  1  0  0  0  0
  7  8  1  0  0  0  0
  7 31  1  0  0  0  0
  7 32  1  0  0  0  0
  8  9  1  0  0  0  0
  8 33  1  0  0  0  0
  8 34  1  0  0  0  0
  9 10  1  0  0  0  0
  9 20  1  0  0  0  0
 10 18  1  0  0  0  0
 10 11  2  0  0  0  0
 11 12  1  0  0  0  0
 12 13  2  0  0  0  0
 12 35  1  0  0  0  0
 13 14  1  0  0  0  0
 13 17  1  0  0  0  0
 14 15  1  0  0  0  0
 14 16  2  0  0  0  0
 15 36  1  0  0  0  0
 15 37  1  0  0  0  0
 17 18  2  0  0  0  0
 17 38  1  0  0  0  0
 18 19  1  0  0  0  0
 20 39  1  0  0  0  0
 20 40  1  0  0  0  0
M  END
> <s_m_source_file>
AV-unprocessed.smi

> <i_m_source_file_index>
373

> <i_lp_mmshare_version>
43012

> <i_f3d_flags>
0

> <s_epik_input>
W0NIM11bQ0gyXVtDSDJdT1tDQEBIXTFbQ0gyXVtDSDJdW0NIMl1OKFtDSDJdMSljMm5bY0hdYyhDKD1PKVtOSDJdKVtjSF1jMkNs

> <s_epik_cmdline>
J2VwaWtfcHl0aG9uJywgJy1waCcsICc3LjAnLCAnLXRuJywgJzgnLCAnLW1hJywgJzIwMCcsICctbWV0YWxfYmluZGluZycsICctaW1hZScsICc8aW5maWxlLm1hZT4nLCAnLW9tYWUnLCAnPG91dGZpbGUubWFlPic=

> <r_lp_tautomer_probability>
1

> <r_epik_Ionization_Penalty>
3.23666e-05

> <r_epik_Ionization_Penalty_Charging>
0

> <r_epik_Ionization_Penalty_Neutral>
3.23666e-05

> <r_epik_State_Penalty>
-0

> <r_epik_Charging_Adjusted_Penalty>
0

> <i_epik_Tot_Q>
0

> <i_epik_Tot_abs_Q>
0

> <r_epik_Metal_State_Penalty>
-0

> <b_epik_Metal_Only>
0

> <s_lp_Force_Field>
OPLS_2005

> <r_lp_Energy>
19.6268

> <b_lp_Chiralities_Consistent>
1

> <s_lp_Variant>
AV-unprocessed.smi:373-2

> <Gold.Version>
5.8.1

> <Gold.Id.Protein>
6NUR|6NUR_protein|mol2

> <Gold.PLP.Fitness>
39.6270

> <Gold.PLP.PLP>
-38.4085

> <Gold.PLP.part.hbond>
-1.0000

> <Gold.PLP.part.metal>
0.0000

> <Gold.PLP.part.buried>
-6.1277

> <Gold.PLP.part.nonpolar>
-32.9179

> <Gold.PLP.part.repulsive>
1.8569

> <Gold.PLP.ligand.clash>
0.0000

> <Gold.PLP.ligand.torsion>
1.2609

> <Gold.PLP.Chemscore.Hbond>
0.9913

> <Gold.PLP.Chemscore.CHOScore>
0.1614

> <Gold.PLP.Chemscore.Metal>
0.0000

> <Gold.Chemscore.Hbonds>
donor molecule, donor type, donor heavy atom, donor atom, acceptor molecule, acceptor atom, score
      L1  H    15    36       P1 10175  1.00
      L1  C    12    35       P1  8028  0.02

> <Gold.PLP.Chemscore.Internal.Correction>
0.2823

> <Gold.Rescore>
     Score         DG    S(hbond)    S(metal)    S(lipo)     H(rot)  DE(clash)    DE(int)     intcor
     15.30     -16.74       0.95        0.00     103.41       1.57       0.25       1.18       ----

> <Gold.Chemscore.Fitness>
15.3002

> <Gold.Chemscore.DG>
-16.7380

> <Gold.Chemscore.ZeroCoef>
-5.4800

> <Gold.Chemscore.Hbond>
0.9505

> <Gold.Chemscore.Metal>
0.0000

> <Gold.Chemscore.Lipo>
103.4103

> <Gold.Chemscore.Internal_Hbond>
0.0000

> <Gold.Chemscore.DEClash>
0.2533

> <Gold.Chemscore.DEInternal>
1.1845

> <Gold.Chemscore.Rot>
1.5687

> <Gold.Chemscore.Internal.Correction>
   9.000000E+99

> <Gold.Chemscore.Hbonds>
donor molecule, donor type, donor heavy atom, donor atom, acceptor molecule, acceptor atom, score
      L1  H    15    36       P1 10175  0.33

> <Gold.Chemscore.Hbond.Weighted>
-3.1748

> <Gold.Chemscore.Metal.Weighted>
-0.0000

> <Gold.Chemscore.Lipo.Weighted>
-12.0990

> <Gold.Chemscore.Internal_Hbond.Weighted>
0.0000

> <Gold.Chemscore.DEClash.Weighted>
0.2533

> <Gold.Chemscore.DEInternal.Weighted>
1.1845

> <Gold.Chemscore.Rot.Weighted>
4.0158

> <Gold.Chemscore.Internal.Correction.Weighted>
   9.000000E+99

> <Gold.Protein.RotatedTorsions>
[ 6907 6896 6895 6894 ] final    6.44 input  -60.11 | X-H torsion
[ 7974 7965 7964 7962 ] final  167.36 input  175.53 | X-H torsion
[ 8008 7997 7996 7995 ] final -118.01 input   59.86 | X-H torsion
[ 10167 10162 10161 10158 ] final -101.84 input  -65.29 | X-H torsion
[ 10718 10713 10712 10709 ] final -157.90 input   66.30 | X-H torsion
[ 10763 10752 10751 10750 ] final  -77.83 input  -60.55 | X-H torsion
[ 11005 11000 10999 10996 ] final   62.95 input  -57.11 | X-H torsion

> <Gold.Protein.ActiveResidues>
 VAL166  LYS551  ARG553  GLY616  TRP617  ASP618  TYR619  PRO620  LYS621  CYS622 
 ASP623  PHE694  ASN695  SER759  ASP760  ASP761  ALA762  ILE779  LEU786  VAL792 
 PHE793  MET794  SER795  GLU796  ALA797  LYS798  CYS799  TRP800  GLU811  SER814 

> <Gold.Protein.RotatedAtoms>
  151.6738  135.0972  160.0202 H   0  0  0  0  0  0  0  0  0  0  0  0  # atno 6907 bound_to 6896
  152.3876  133.6628  159.6220 H   0  0  0  0  0  0  0  0  0  0  0  0  # atno 6908 bound_to 6896
  150.7798  133.8926  159.3359 H   0  0  0  0  0  0  0  0  0  0  0  0  # atno 6909 bound_to 6896
  144.7427  139.8749  143.6392 H   0  0  0  0  0  0  0  0  0  0  0  0  # atno 7974 bound_to 7965
  155.0928  140.0395  157.2674 H   0  0  0  0  0  0  0  0  0  0  0  0  # atno 8008 bound_to 7997
  154.6818  140.2634  155.6875 H   0  0  0  0  0  0  0  0  0  0  0  0  # atno 8009 bound_to 7997
  156.2697  140.2777  156.1365 H   0  0  0  0  0  0  0  0  0  0  0  0  # atno 8010 bound_to 7997
  140.2370  143.3566  152.0836 H   0  0  0  0  0  0  0  0  0  0  0  0  # atno 10167 bound_to 10162
  156.5467  130.8587  151.2766 H   0  0  0  0  0  0  0  0  0  0  0  0  # atno 10718 bound_to 10713
  154.5180  135.5750  153.6658 H   0  0  0  0  0  0  0  0  0  0  0  0  # atno 10763 bound_to 10752
  152.9911  135.6175  154.2792 H   0  0  0  0  0  0  0  0  0  0  0  0  # atno 10764 bound_to 10752
  154.2711  135.2853  155.2717 H   0  0  0  0  0  0  0  0  0  0  0  0  # atno 10765 bound_to 10752
  140.0058  134.6372  155.9858 H   0  0  0  0  0  0  0  0  0  0  0  0  # atno 11005 bound_to 11000
  146.1253  139.4278  143.0202 LP  0  0  0  0  0  0  0  0  0  0  0  0  # atno 17320 bound_to 7965
  145.7244  141.0064  143.1385 LP  0  0  0  0  0  0  0  0  0  0  0  0  # atno 17321 bound_to 7965
  139.5090  144.6860  151.5886 LP  0  0  0  0  0  0  0  0  0  0  0  0  # atno 17342 bound_to 10162
  140.6142  143.9379  150.6476 LP  0  0  0  0  0  0  0  0  0  0  0  0  # atno 17343 bound_to 10162
  157.7395  130.9833  150.2319 LP  0  0  0  0  0  0  0  0  0  0  0  0  # atno 17370 bound_to 10713
  156.2922  130.3747  149.7831 LP  0  0  0  0  0  0  0  0  0  0  0  0  # atno 17371 bound_to 10713
  141.1675  133.6537  156.4533 LP  0  0  0  0  0  0  0  0  0  0  0  0  # atno 17394 bound_to 11000
  140.4645  134.6811  157.5101 LP  0  0  0  0  0  0  0  0  0  0  0  0  # atno 17395 bound_to 11000

$$$$
