AV-unprocessed.smi:1005|AV-procd|sdf|4386|dock1
  -GOLD-   22720 2313D 1   1.00000     0.00000
 Structure written by MMmdl.
 55 57  0  0  0  0  0  0  0  0  1 V2000
  153.1201  142.4657  161.4942 C   0  0  0  0  0  0  0  0  0  0  0  0
  152.4871  142.2223  160.1353 C   0  0  0  0  0  0  0  0  0  0  0  0
  152.8499  141.0682  159.4050 C   0  0  0  0  0  0  0  0  0  0  0  0
  152.2855  140.8059  158.1375 C   0  0  0  0  0  0  0  0  0  0  0  0
  152.4915  139.7529  157.2627 N   0  0  0  0  0  0  0  0  0  0  0  0
  151.6804  140.0757  156.2597 C   0  0  0  0  0  0  0  0  0  0  0  0
  150.9781  141.2194  156.3773 N   0  0  0  0  0  0  0  0  0  0  0  0
  150.0380  141.7744  155.4194 C   0  0  0  0  0  0  0  0  0  0  0  0
  149.3716  140.6949  154.5425 C   0  0  2  0  0  0  0  0  0  0  0  0
  149.4267  141.1530  153.2066 O   0  0  0  0  0  0  0  0  0  0  0  0
  147.8988  140.4076  154.9176 C   0  0  0  0  0  0  0  0  0  0  0  0
  147.0771  141.5940  155.1533 N   0  0  0  0  0  0  0  0  0  0  0  0
  146.6999  142.2283  153.8954 C   0  0  0  0  0  0  0  0  0  0  0  0
  145.8444  143.4861  154.1199 C   0  0  0  0  0  0  0  0  0  0  0  0
  144.6839  143.1480  154.8725 O   0  0  0  0  0  0  0  0  0  0  0  0
  144.9880  142.5435  156.1275 C   0  0  1  0  0  0  0  0  0  0  0  0
  143.6964  142.2561  156.9226 C   0  0  0  0  0  0  0  0  0  0  0  0
  142.7379  143.3579  157.0558 N   0  0  0  0  0  0  0  0  0  0  0  0
  142.0387  143.6564  155.8117 C   0  0  0  0  0  0  0  0  0  0  0  0
  143.4022  144.5540  157.5546 C   0  0  0  0  0  0  0  0  0  0  0  0
  145.8673  141.2930  155.9148 C   0  0  0  0  0  0  0  0  0  0  0  0
  151.3414  141.7377  157.6156 C   0  0  0  0  0  0  0  0  0  0  0  0
  150.9702  142.8881  158.3340 C   0  0  0  0  0  0  0  0  0  0  0  0
  151.5441  143.1353  159.5987 C   0  0  0  0  0  0  0  0  0  0  0  0
  151.1394  144.3823  160.3650 C   0  0  0  0  0  0  0  0  0  0  0  0
  153.8092  141.6641  161.7619 H   0  0  0  0  0  0  0  0  0  0  0  0
  152.3545  142.5203  162.2683 H   0  0  0  0  0  0  0  0  0  0  0  0
  153.6795  143.4015  161.4925 H   0  0  0  0  0  0  0  0  0  0  0  0
  153.5676  140.3719  159.8137 H   0  0  0  0  0  0  0  0  0  0  0  0
  151.5965  139.4474  155.3850 H   0  0  0  0  0  0  0  0  0  0  0  0
  149.2822  142.3452  155.9612 H   0  0  0  0  0  0  0  0  0  0  0  0
  150.5793  142.4863  154.7945 H   0  0  0  0  0  0  0  0  0  0  0  0
  149.9580  139.7779  154.6123 H   0  0  0  0  0  0  0  0  0  0  0  0
  149.4921  140.4040  152.6342 H   0  0  0  0  0  0  0  0  0  0  0  0
  147.4404  139.8565  154.0974 H   0  0  0  0  0  0  0  0  0  0  0  0
  147.8478  139.7321  155.7732 H   0  0  0  0  0  0  0  0  0  0  0  0
  147.5950  142.5001  153.3346 H   0  0  0  0  0  0  0  0  0  0  0  0
  146.1462  141.5215  153.2755 H   0  0  0  0  0  0  0  0  0  0  0  0
  146.4160  144.2533  154.6443 H   0  0  0  0  0  0  0  0  0  0  0  0
  145.5380  143.9123  153.1646 H   0  0  0  0  0  0  0  0  0  0  0  0
  145.5616  143.2724  156.7032 H   0  0  0  0  0  0  0  0  0  0  0  0
  143.1957  141.4293  156.4167 H   0  0  0  0  0  0  0  0  0  0  0  0
  143.9604  141.8762  157.9106 H   0  0  0  0  0  0  0  0  0  0  0  0
  141.3864  144.5215  155.9341 H   0  0  0  0  0  0  0  0  0  0  0  0
  141.4044  142.8262  155.5048 H   0  0  0  0  0  0  0  0  0  0  0  0
  142.7408  143.8733  155.0059 H   0  0  0  0  0  0  0  0  0  0  0  0
  142.6857  145.3624  157.7033 H   0  0  0  0  0  0  0  0  0  0  0  0
  144.1656  144.9003  156.8569 H   0  0  0  0  0  0  0  0  0  0  0  0
  143.8816  144.3599  158.5146 H   0  0  0  0  0  0  0  0  0  0  0  0
  145.2937  140.5235  155.3962 H   0  0  0  0  0  0  0  0  0  0  0  0
  146.1306  140.8820  156.8891 H   0  0  0  0  0  0  0  0  0  0  0  0
  150.2508  143.5753  157.9136 H   0  0  0  0  0  0  0  0  0  0  0  0
  150.3930  144.9601  159.8190 H   0  0  0  0  0  0  0  0  0  0  0  0
  152.0041  145.0248  160.5318 H   0  0  0  0  0  0  0  0  0  0  0  0
  150.7131  144.1157  161.3323 H   0  0  0  0  0  0  0  0  0  0  0  0
  1  2  1  0  0  0  0
  1 26  1  0  0  0  0
  1 27  1  0  0  0  0
  1 28  1  0  0  0  0
  2 24  1  0  0  0  0
  2  3  2  0  0  0  0
  3  4  1  0  0  0  0
  3 29  1  0  0  0  0
  4 22  2  0  0  0  0
  4  5  1  0  0  0  0
  5  6  2  0  0  0  0
  6  7  1  0  0  0  0
  6 30  1  0  0  0  0
  7  8  1  0  0  0  0
  7 22  1  0  0  0  0
  8  9  1  0  0  0  0
  8 31  1  0  0  0  0
  8 32  1  0  0  0  0
  9 10  1  0  0  0  0
  9 11  1  0  0  0  0
  9 33  1  0  0  0  0
 10 34  1  0  0  0  0
 11 12  1  0  0  0  0
 11 35  1  0  0  0  0
 11 36  1  0  0  0  0
 12 21  1  0  0  0  0
 12 13  1  0  0  0  0
 13 14  1  0  0  0  0
 13 37  1  0  0  0  0
 13 38  1  0  0  0  0
 14 15  1  0  0  0  0
 14 39  1  0  0  0  0
 14 40  1  0  0  0  0
 15 16  1  0  0  0  0
 16 17  1  0  0  0  0
 16 21  1  0  0  0  0
 16 41  1  0  0  0  0
 17 18  1  0  0  0  0
 17 42  1  0  0  0  0
 17 43  1  0  0  0  0
 18 19  1  0  0  0  0
 18 20  1  0  0  0  0
 19 44  1  0  0  0  0
 19 45  1  0  0  0  0
 19 46  1  0  0  0  0
 20 47  1  0  0  0  0
 20 48  1  0  0  0  0
 20 49  1  0  0  0  0
 21 50  1  0  0  0  0
 21 51  1  0  0  0  0
 22 23  1  0  0  0  0
 23 24  2  0  0  0  0
 23 52  1  0  0  0  0
 24 25  1  0  0  0  0
 25 53  1  0  0  0  0
 25 54  1  0  0  0  0
 25 55  1  0  0  0  0
M  END
> <s_m_source_file>
AV-unprocessed.smi

> <i_m_source_file_index>
1005

> <i_lp_mmshare_version>
43012

> <i_f3d_flags>
0

> <s_epik_input>
W0NIM11jKFtjSF0xKWMoW0NIM10pW2NIXWMoYzEyKW4oW2NIXW4yKVtDSDJdW0NASF0oW09IXSlbQ0gyXU4zW0NIMl1bQ0gyXU9bQ0BIXShbQ0gyXTMpW0NIMl1OKFtDSDNdKVtDSDNd

> <s_epik_cmdline>
J2VwaWtfcHl0aG9uJywgJy1waCcsICc3LjAnLCAnLXRuJywgJzgnLCAnLW1hJywgJzIwMCcsICctbWV0YWxfYmluZGluZycsICctaW1hZScsICc8aW5maWxlLm1hZT4nLCAnLW9tYWUnLCAnPG91dGZpbGUubWFlPic=

> <r_epik_Ionization_Penalty>
2.78613

> <r_epik_Ionization_Penalty_Charging>
0

> <r_epik_Ionization_Penalty_Neutral>
2.78613

> <r_epik_State_Penalty>
2.57336

> <r_epik_Charging_Adjusted_Penalty>
2.57336

> <i_epik_Tot_Q>
0

> <i_epik_Tot_abs_Q>
0

> <r_epik_Metal_State_Penalty>
2.49087

> <b_epik_Metal_Only>
0

> <s_lp_Force_Field>
OPLS_2005

> <r_lp_Energy>
41.5619

> <b_lp_Chiralities_Consistent>
1

> <s_lp_Variant>
AV-unprocessed.smi:1005-25

> <Gold.Version>
5.8.1

> <Gold.Id.Protein>
6NUR|6NUR_protein|mol2

> <Gold.PLP.Fitness>
52.9978

> <Gold.PLP.PLP>
-47.0442

> <Gold.PLP.part.hbond>
-3.2662

> <Gold.PLP.part.metal>
0.0000

> <Gold.PLP.part.buried>
-6.1506

> <Gold.PLP.part.nonpolar>
-36.9699

> <Gold.PLP.part.repulsive>
0.2935

> <Gold.PLP.ligand.clash>
0.0000

> <Gold.PLP.ligand.torsion>
1.3710

> <Gold.PLP.Chemscore.Hbond>
2.7424

> <Gold.PLP.Chemscore.CHOScore>
0.0000

> <Gold.PLP.Chemscore.Metal>
0.0000

> <Gold.Chemscore.Hbonds>
donor molecule, donor type, donor heavy atom, donor atom, acceptor molecule, acceptor atom, score
      L1  H    10    34       P1  7957  0.80
      P1  H  7997  8009       L1     5  1.00
      P1  H  8011  8017       L1    10  1.00

> <Gold.PLP.Chemscore.Internal.Correction>
0.4683

> <Gold.Rescore>
     Score         DG    S(hbond)    S(metal)    S(lipo)     H(rot)  DE(clash)    DE(int)     intcor
     17.88     -20.87       2.21        0.00     118.52       2.29       0.18       2.81       ----

> <Gold.Chemscore.Fitness>
17.8826

> <Gold.Chemscore.DG>
-20.8667

> <Gold.Chemscore.ZeroCoef>
-5.4800

> <Gold.Chemscore.Hbond>
2.2099

> <Gold.Chemscore.Metal>
0.0000

> <Gold.Chemscore.Lipo>
118.5203

> <Gold.Chemscore.Internal_Hbond>
0.0000

> <Gold.Chemscore.DEClash>
0.1769

> <Gold.Chemscore.DEInternal>
2.8072

> <Gold.Chemscore.Rot>
2.2895

> <Gold.Chemscore.Internal.Correction>
   9.000000E+99

> <Gold.Chemscore.Hbonds>
donor molecule, donor type, donor heavy atom, donor atom, acceptor molecule, acceptor atom, score
      L1  H    10    34       P1  7957  0.74
      P1  H  7997  8009       L1     5  0.20
      P1  H  8011  8017       L1    10  0.53

> <Gold.Chemscore.Hbond.Weighted>
-7.3810

> <Gold.Chemscore.Metal.Weighted>
-0.0000

> <Gold.Chemscore.Lipo.Weighted>
-13.8669

> <Gold.Chemscore.Internal_Hbond.Weighted>
0.0000

> <Gold.Chemscore.DEClash.Weighted>
0.1769

> <Gold.Chemscore.DEInternal.Weighted>
2.8072

> <Gold.Chemscore.Rot.Weighted>
5.8612

> <Gold.Chemscore.Internal.Correction.Weighted>
   9.000000E+99

> <Gold.Protein.RotatedTorsions>
[ 6907 6896 6895 6894 ] final  146.42 input  -60.11 | X-H torsion
[ 7974 7965 7964 7962 ] final  -56.29 input  175.53 | X-H torsion
[ 8008 7997 7996 7995 ] final -179.14 input   59.86 | X-H torsion
[ 10167 10162 10161 10158 ] final  123.73 input  -65.29 | X-H torsion
[ 10718 10713 10712 10709 ] final   80.93 input   66.30 | X-H torsion
[ 10763 10752 10751 10750 ] final -174.41 input  -60.55 | X-H torsion
[ 11005 11000 10999 10996 ] final   -7.85 input  -57.11 | X-H torsion

> <Gold.Protein.ActiveResidues>
 VAL166  LYS551  ARG553  GLY616  TRP617  ASP618  TYR619  PRO620  LYS621  CYS622 
 ASP623  PHE694  ASN695  SER759  ASP760  ASP761  ALA762  ILE779  LEU786  VAL792 
 PHE793  MET794  SER795  GLU796  ALA797  LYS798  CYS799  TRP800  GLU811  SER814 

> <Gold.Protein.RotatedAtoms>
  152.1681  133.4625  159.4894 H   0  0  0  0  0  0  0  0  0  0  0  0  # atno 6907 bound_to 6896
  150.6916  134.1988  159.4323 H   0  0  0  0  0  0  0  0  0  0  0  0  # atno 6908 bound_to 6896
  151.9893  134.9987  160.0611 H   0  0  0  0  0  0  0  0  0  0  0  0  # atno 6909 bound_to 6896
  145.8644  140.8262  142.9920 H   0  0  0  0  0  0  0  0  0  0  0  0  # atno 7974 bound_to 7965
  156.0271  140.1274  157.0297 H   0  0  0  0  0  0  0  0  0  0  0  0  # atno 8008 bound_to 7997
  154.4334  140.1057  156.6116 H   0  0  0  0  0  0  0  0  0  0  0  0  # atno 8009 bound_to 7997
  155.5861  140.3468  155.4556 H   0  0  0  0  0  0  0  0  0  0  0  0  # atno 8010 bound_to 7997
  139.5782  144.6974  151.3597 H   0  0  0  0  0  0  0  0  0  0  0  0  # atno 10167 bound_to 10162
  157.6819  130.9981  150.2151 H   0  0  0  0  0  0  0  0  0  0  0  0  # atno 10718 bound_to 10713
  154.5965  135.2850  155.0581 H   0  0  0  0  0  0  0  0  0  0  0  0  # atno 10763 bound_to 10752
  154.1862  135.6448  153.5051 H   0  0  0  0  0  0  0  0  0  0  0  0  # atno 10764 bound_to 10752
  153.0140  135.5435  154.6669 H   0  0  0  0  0  0  0  0  0  0  0  0  # atno 10765 bound_to 10752
  140.7172  133.8859  155.8794 H   0  0  0  0  0  0  0  0  0  0  0  0  # atno 11005 bound_to 11000
  144.6726  140.1143  143.7453 LP  0  0  0  0  0  0  0  0  0  0  0  0  # atno 17320 bound_to 7965
  145.9211  139.2546  143.1381 LP  0  0  0  0  0  0  0  0  0  0  0  0  # atno 17321 bound_to 7965
  140.7063  143.7505  150.7488 LP  0  0  0  0  0  0  0  0  0  0  0  0  # atno 17342 bound_to 10162
  140.1030  143.4770  152.2414 LP  0  0  0  0  0  0  0  0  0  0  0  0  # atno 17343 bound_to 10162
  156.2814  130.3734  149.7932 LP  0  0  0  0  0  0  0  0  0  0  0  0  # atno 17370 bound_to 10713
  156.5619  130.8387  151.3331 LP  0  0  0  0  0  0  0  0  0  0  0  0  # atno 17371 bound_to 10713
  141.0034  134.1119  157.4294 LP  0  0  0  0  0  0  0  0  0  0  0  0  # atno 17394 bound_to 11000
  139.8857  135.0074  156.6450 LP  0  0  0  0  0  0  0  0  0  0  0  0  # atno 17395 bound_to 11000

$$$$
