AV-unprocessed.smi:299|AV-procd|sdf|2265|dock1
  -GOLD-   2262022153D 1   1.00000     0.00000
 Structure written by MMmdl.
 42 43  0  0  0  0  0  0  0  0  2 V2000
  147.1013  129.2289  153.2650 C   0  0  0  0  0  0  0  0  0  0  0  0
  146.3956  130.4964  152.7397 C   0  0  2  0  0  0  0  0  0  0  0  0
  145.4589  130.0896  151.5803 C   0  0  0  0  0  0  0  0  0  0  0  0
  144.7068  131.2888  150.9996 C   0  0  0  0  0  0  0  0  0  0  0  0
  145.7128  132.3538  150.5659 C   0  0  0  0  0  0  0  0  0  0  0  0
  146.6241  132.7464  151.7373 C   0  0  0  0  0  0  0  0  0  0  0  0
  147.3487  131.5714  152.3048 N   0  3  1  0  0  0  0  0  0  0  0  0
  148.3275  131.9746  153.3576 C   0  0  0  0  0  0  0  0  0  0  0  0
  149.0323  133.3141  153.0668 C   0  0  0  0  0  0  0  0  0  0  0  0
  150.0043  133.7181  154.1881 C   0  0  0  0  0  0  0  0  0  0  0  0
  150.1057  135.1676  154.3112 N   0  0  0  0  0  0  0  0  0  0  0  0
  150.6631  135.8160  155.3470 C   0  0  0  0  0  0  0  0  0  0  0  0
  151.1416  135.2408  156.3241 O   0  0  0  0  0  0  0  0  0  0  0  0
  150.6687  137.3457  155.2854 C   0  0  0  0  0  0  0  0  0  0  0  0
  152.0104  137.8759  155.1231 N   0  0  0  0  0  0  0  0  0  0  0  0
  152.4522  138.9630  154.4875 C   0  0  0  0  0  0  0  0  0  0  0  0
  153.7678  139.0821  154.5780 N   0  0  0  0  0  0  0  0  0  0  0  0
  154.1324  137.9777  155.3297 N   0  0  0  0  0  0  0  0  0  0  0  0
  153.0938  137.2587  155.6569 N   0  0  0  0  0  0  0  0  0  0  0  0
  146.3883  128.4157  153.4041 H   0  0  0  0  0  0  0  0  0  0  0  0
  147.5689  129.3849  154.2367 H   0  0  0  0  0  0  0  0  0  0  0  0
  147.8632  128.8795  152.5673 H   0  0  0  0  0  0  0  0  0  0  0  0
  145.7822  130.8997  153.5474 H   0  0  0  0  0  0  0  0  0  0  0  0
  146.0375  129.6077  150.7907 H   0  0  0  0  0  0  0  0  0  0  0  0
  144.7361  129.3489  151.9251 H   0  0  0  0  0  0  0  0  0  0  0  0
  144.0966  130.9774  150.1512 H   0  0  0  0  0  0  0  0  0  0  0  0
  144.0245  131.6992  151.7451 H   0  0  0  0  0  0  0  0  0  0  0  0
  146.3162  131.9790  149.7379 H   0  0  0  0  0  0  0  0  0  0  0  0
  145.1858  133.2325  150.1927 H   0  0  0  0  0  0  0  0  0  0  0  0
  147.3242  133.4922  151.3661 H   0  0  0  0  0  0  0  0  0  0  0  0
  146.0388  133.2275  152.5226 H   0  0  0  0  0  0  0  0  0  0  0  0
  147.8336  132.0066  154.3299 H   0  0  0  0  0  0  0  0  0  0  0  0
  149.1172  131.2313  153.4368 H   0  0  0  0  0  0  0  0  0  0  0  0
  149.5795  133.2430  152.1258 H   0  0  0  0  0  0  0  0  0  0  0  0
  148.2990  134.1104  152.9451 H   0  0  0  0  0  0  0  0  0  0  0  0
  149.6967  133.2798  155.1393 H   0  0  0  0  0  0  0  0  0  0  0  0
  151.0006  133.3290  153.9766 H   0  0  0  0  0  0  0  0  0  0  0  0
  149.7341  135.7175  153.5502 H   0  0  0  0  0  0  0  0  0  0  0  0
  150.0519  137.6801  154.4504 H   0  0  0  0  0  0  0  0  0  0  0  0
  150.2324  137.7615  156.1949 H   0  0  0  0  0  0  0  0  0  0  0  0
  151.8158  139.6593  153.9614 H   0  0  0  0  0  0  0  0  0  0  0  0
  147.8905  131.1748  151.5503 H   0  0  0  0  0  0  0  0  0  0  0  0
  1  2  1  0  0  0  0
  1 20  1  0  0  0  0
  1 21  1  0  0  0  0
  1 22  1  0  0  0  0
  2  7  1  0  0  0  0
  2  3  1  0  0  0  0
  2 23  1  0  0  0  0
  3  4  1  0  0  0  0
  3 24  1  0  0  0  0
  3 25  1  0  0  0  0
  4  5  1  0  0  0  0
  4 26  1  0  0  0  0
  4 27  1  0  0  0  0
  5  6  1  0  0  0  0
  5 28  1  0  0  0  0
  5 29  1  0  0  0  0
  6  7  1  0  0  0  0
  6 30  1  0  0  0  0
  6 31  1  0  0  0  0
  7  8  1  0  0  0  0
  7 42  1  0  0  0  0
  8  9  1  0  0  0  0
  8 32  1  0  0  0  0
  8 33  1  0  0  0  0
  9 10  1  0  0  0  0
  9 34  1  0  0  0  0
  9 35  1  0  0  0  0
 10 11  1  0  0  0  0
 10 36  1  0  0  0  0
 10 37  1  0  0  0  0
 11 12  1  0  0  0  0
 11 38  1  0  0  0  0
 12 13  2  0  0  0  0
 12 14  1  0  0  0  0
 14 15  1  0  0  0  0
 14 39  1  0  0  0  0
 14 40  1  0  0  0  0
 15 19  1  0  0  0  0
 15 16  1  0  0  0  0
 16 17  2  0  0  0  0
 16 41  1  0  0  0  0
 17 18  1  0  0  0  0
 18 19  2  0  0  0  0
M  CHG  1   7   1
M  END
> <s_m_source_file>
AV-unprocessed.smi

> <i_m_source_file_index>
299

> <i_lp_mmshare_version>
43012

> <i_f3d_flags>
0

> <s_epik_input>
W0NIM11bQ0BASF0xW0NIMl1bQ0gyXVtDSDJdW0NIMl1OMVtDSDJdW0NIMl1bQ0gyXVtOSF1DKD1PKVtDSDJdbjJbY0hdbm5uMg==

> <s_epik_cmdline>
J2VwaWtfcHl0aG9uJywgJy1waCcsICc3LjAnLCAnLXRuJywgJzgnLCAnLW1hJywgJzIwMCcsICctbWV0YWxfYmluZGluZycsICctaW1hZScsICc8aW5maWxlLm1hZT4nLCAnLW9tYWUnLCAnPG91dGZpbGUubWFlPic=

> <r_lp_tautomer_probability>
1

> <r_epik_Ionization_Penalty>
0.000544863

> <r_epik_Ionization_Penalty_Charging>
0.000543475

> <r_epik_Ionization_Penalty_Neutral>
1.38784e-06

> <r_epik_State_Penalty>
0.000340025

> <r_epik_Charging_Adjusted_Penalty>
0.0008835

> <i_epik_Tot_Q>
1

> <i_epik_Tot_abs_Q>
1

> <r_epik_Metal_State_Penalty>
-0

> <b_epik_Metal_Only>
0

> <s_lp_Force_Field>
OPLS_2005

> <r_lp_Energy>
24.2757

> <b_lp_Chiralities_Consistent>
1

> <s_lp_Variant>
AV-unprocessed.smi:299-1

> <Gold.Version>
5.8.1

> <Gold.Id.Protein>
6NUR|6NUR_protein|mol2

> <Gold.PLP.Fitness>
47.5931

> <Gold.PLP.PLP>
-38.4347

> <Gold.PLP.part.hbond>
-6.0565

> <Gold.PLP.part.metal>
0.0000

> <Gold.PLP.part.buried>
-6.0567

> <Gold.PLP.part.nonpolar>
-26.5010

> <Gold.PLP.part.repulsive>
0.0580

> <Gold.PLP.ligand.clash>
0.0000

> <Gold.PLP.ligand.torsion>
0.9044

> <Gold.PLP.Chemscore.Hbond>
3.5900

> <Gold.PLP.Chemscore.CHOScore>
0.0000

> <Gold.PLP.Chemscore.Metal>
0.0000

> <Gold.Chemscore.Hbonds>
donor molecule, donor type, donor heavy atom, donor atom, acceptor molecule, acceptor atom, score
      L1  H     7    42       P1 10747  1.00
      L1  H    11    38       P1  7948  0.70
      P1  H  7997  8009       L1    17  0.65
      P1  H 10752 10764       L1    19  0.42

> <Gold.PLP.Chemscore.Internal.Correction>
0.1972

> <Gold.Rescore>
     Score         DG    S(hbond)    S(metal)    S(lipo)     H(rot)  DE(clash)    DE(int)     intcor
     12.55     -14.63       2.45        0.00      73.08       2.97       0.07       2.01       ----

> <Gold.Chemscore.Fitness>
12.5473

> <Gold.Chemscore.DG>
-14.6252

> <Gold.Chemscore.ZeroCoef>
-5.4800

> <Gold.Chemscore.Hbond>
2.4530

> <Gold.Chemscore.Metal>
0.0000

> <Gold.Chemscore.Lipo>
73.0765

> <Gold.Chemscore.Internal_Hbond>
0.0000

> <Gold.Chemscore.DEClash>
0.0727

> <Gold.Chemscore.DEInternal>
2.0052

> <Gold.Chemscore.Rot>
2.9680

> <Gold.Chemscore.Internal.Correction>
   9.000000E+99

> <Gold.Chemscore.Hbonds>
donor molecule, donor type, donor heavy atom, donor atom, acceptor molecule, acceptor atom, score
      L1  H     7    42       P1 10747  1.00
      L1  H    11    38       P1  7948  0.07
      P1  H  7997  8009       L1    17  0.06
      P1  H 10752 10764       L1    19  0.29

> <Gold.Chemscore.Hbond.Weighted>
-8.1932

> <Gold.Chemscore.Metal.Weighted>
-0.0000

> <Gold.Chemscore.Lipo.Weighted>
-8.5500

> <Gold.Chemscore.Internal_Hbond.Weighted>
0.0000

> <Gold.Chemscore.DEClash.Weighted>
0.0727

> <Gold.Chemscore.DEInternal.Weighted>
2.0052

> <Gold.Chemscore.Rot.Weighted>
7.5980

> <Gold.Chemscore.Internal.Correction.Weighted>
   9.000000E+99

> <Gold.Protein.RotatedTorsions>
[ 6907 6896 6895 6894 ] final  126.79 input  -60.11 | X-H torsion
[ 7974 7965 7964 7962 ] final  -45.44 input  175.53 | X-H torsion
[ 8008 7997 7996 7995 ] final -120.42 input   59.86 | X-H torsion
[ 10167 10162 10161 10158 ] final  -55.80 input  -65.29 | X-H torsion
[ 10718 10713 10712 10709 ] final   75.21 input   66.30 | X-H torsion
[ 10763 10752 10751 10750 ] final  -24.02 input  -60.55 | X-H torsion
[ 11005 11000 10999 10996 ] final -165.94 input  -57.11 | X-H torsion

> <Gold.Protein.ActiveResidues>
 VAL166  LYS551  ARG553  GLY616  TRP617  ASP618  TYR619  PRO620  LYS621  CYS622 
 ASP623  PHE694  ASN695  SER759  ASP760  ASP761  ALA762  ILE779  LEU786  VAL792 
 PHE793  MET794  SER795  GLU796  ALA797  LYS798  CYS799  TRP800  GLU811  SER814 

> <Gold.Protein.RotatedAtoms>
  152.3871  133.6627  159.6207 H   0  0  0  0  0  0  0  0  0  0  0  0  # atno 6907 bound_to 6896
  150.7788  133.9016  159.3352 H   0  0  0  0  0  0  0  0  0  0  0  0  # atno 6908 bound_to 6896
  151.6810  135.0963  160.0267 H   0  0  0  0  0  0  0  0  0  0  0  0  # atno 6909 bound_to 6896
  145.9821  140.7273  142.9358 H   0  0  0  0  0  0  0  0  0  0  0  0  # atno 7974 bound_to 7965
  155.1315  140.0400  157.2776 H   0  0  0  0  0  0  0  0  0  0  0  0  # atno 8008 bound_to 7997
  154.6539  140.2575  155.7157 H   0  0  0  0  0  0  0  0  0  0  0  0  # atno 8009 bound_to 7997
  156.2589  140.2830  156.0984 H   0  0  0  0  0  0  0  0  0  0  0  0  # atno 8010 bound_to 7997
  140.6354  143.2479  151.5132 H   0  0  0  0  0  0  0  0  0  0  0  0  # atno 10167 bound_to 10162
  157.6624  130.9715  150.1320 H   0  0  0  0  0  0  0  0  0  0  0  0  # atno 10718 bound_to 10713
  153.6771  135.6969  153.5129 H   0  0  0  0  0  0  0  0  0  0  0  0  # atno 10763 bound_to 10752
  153.2513  135.4274  155.0799 H   0  0  0  0  0  0  0  0  0  0  0  0  # atno 10764 bound_to 10752
  154.8410  135.3532  154.6315 H   0  0  0  0  0  0  0  0  0  0  0  0  # atno 10765 bound_to 10752
  140.5700  134.5247  157.5160 H   0  0  0  0  0  0  0  0  0  0  0  0  # atno 11005 bound_to 11000
  144.6864  140.2925  143.7276 LP  0  0  0  0  0  0  0  0  0  0  0  0  # atno 17320 bound_to 7965
  145.7755  139.1872  143.2188 LP  0  0  0  0  0  0  0  0  0  0  0  0  # atno 17321 bound_to 7965
  139.5565  144.2263  152.1620 LP  0  0  0  0  0  0  0  0  0  0  0  0  # atno 17342 bound_to 10162
  140.1518  144.5107  150.6683 LP  0  0  0  0  0  0  0  0  0  0  0  0  # atno 17343 bound_to 10162
  156.2165  130.3670  149.8607 LP  0  0  0  0  0  0  0  0  0  0  0  0  # atno 17370 bound_to 10713
  156.6472  130.8729  151.3525 LP  0  0  0  0  0  0  0  0  0  0  0  0  # atno 17371 bound_to 10713
  139.9366  134.7864  156.0786 LP  0  0  0  0  0  0  0  0  0  0  0  0  # atno 17394 bound_to 11000
  141.1062  133.6659  156.2869 LP  0  0  0  0  0  0  0  0  0  0  0  0  # atno 17395 bound_to 11000

$$$$
