AV-unprocessed.smi:835|AV-procd|sdf|3888|dock7
  -GOLD-   22720 1343D 1   1.00000     0.00000
 Structure written by MMmdl.
 41 43  0  0  0  0  0  0  0  0  2 V2000
  145.7002  129.3920  152.0096 C   0  0  0  0  0  0  0  0  0  0  0  0
  145.7027  130.8671  151.7358 C   0  0  0  0  0  0  0  0  0  0  0  0
  146.4851  131.8758  152.3701 C   0  0  0  0  0  0  0  0  0  0  0  0
  146.0805  133.0163  151.7317 C   0  0  0  0  0  0  0  0  0  0  0  0
  146.4922  134.2976  151.9264 N   0  0  0  0  0  0  0  0  0  0  0  0
  145.7526  135.4194  151.9715 C   0  0  0  0  0  0  0  0  0  0  0  0
  144.5306  135.4776  151.8341 O   0  0  0  0  0  0  0  0  0  0  0  0
  146.5184  136.4982  152.1880 N   0  0  0  0  0  0  0  0  0  0  0  0
  146.0140  137.8636  152.2902 C   0  0  2  0  0  0  0  0  0  0  0  0
  146.6754  138.8562  151.3302 C   0  0  0  0  0  0  0  0  0  0  0  0
  146.6127  140.2057  152.0662 C   0  0  0  0  0  0  0  0  0  0  0  0
  146.1327  139.9236  153.4392 N   0  3  2  0  0  0  0  0  0  0  0  0
  146.7447  140.7695  154.4853 C   0  0  0  0  0  0  0  0  0  0  0  0
  146.9013  142.2149  154.0773 C   0  0  0  0  0  0  0  0  0  0  0  0
  148.1074  141.3012  154.1107 C   0  0  0  0  0  0  0  0  0  0  0  0
  146.3045  138.4766  153.6562 C   0  0  0  0  0  0  0  0  0  0  0  0
  145.1292  132.6865  150.7920 N   0  0  0  0  0  0  0  0  0  0  0  0
  144.4058  133.5439  149.8735 C   0  0  0  0  0  0  0  0  0  0  0  0
  144.8976  131.3560  150.7994 N   0  0  0  0  0  0  0  0  0  0  0  0
  146.5076  129.1161  152.6882 H   0  0  0  0  0  0  0  0  0  0  0  0
  145.8308  128.8199  151.0907 H   0  0  0  0  0  0  0  0  0  0  0  0
  144.7610  129.0804  152.4671 H   0  0  0  0  0  0  0  0  0  0  0  0
  147.2134  131.7585  153.1581 H   0  0  0  0  0  0  0  0  0  0  0  0
  147.4866  134.4130  152.0551 H   0  0  0  0  0  0  0  0  0  0  0  0
  147.5141  136.3652  152.2901 H   0  0  0  0  0  0  0  0  0  0  0  0
  144.9339  137.8695  152.1286 H   0  0  0  0  0  0  0  0  0  0  0  0
  147.7178  138.5837  151.1580 H   0  0  0  0  0  0  0  0  0  0  0  0
  146.1773  138.8860  150.3605 H   0  0  0  0  0  0  0  0  0  0  0  0
  147.5991  140.6717  152.0792 H   0  0  0  0  0  0  0  0  0  0  0  0
  145.9255  140.8980  151.5791 H   0  0  0  0  0  0  0  0  0  0  0  0
  146.5188  140.5070  155.5177 H   0  0  0  0  0  0  0  0  0  0  0  0
  146.5277  142.5188  153.1009 H   0  0  0  0  0  0  0  0  0  0  0  0
  146.8256  142.9683  154.8588 H   0  0  0  0  0  0  0  0  0  0  0  0
  148.8253  141.4537  154.9142 H   0  0  0  0  0  0  0  0  0  0  0  0
  148.5351  140.9971  153.1570 H   0  0  0  0  0  0  0  0  0  0  0  0
  145.6366  138.1055  154.4342 H   0  0  0  0  0  0  0  0  0  0  0  0
  147.3326  138.2688  153.9596 H   0  0  0  0  0  0  0  0  0  0  0  0
  143.7396  134.1999  150.4339 H   0  0  0  0  0  0  0  0  0  0  0  0
  143.8142  132.9483  149.1770 H   0  0  0  0  0  0  0  0  0  0  0  0
  145.1107  134.1514  149.3058 H   0  0  0  0  0  0  0  0  0  0  0  0
  145.1379  140.0990  153.4393 H   0  0  0  0  0  0  0  0  0  0  0  0
  1  2  1  0  0  0  0
  1 20  1  0  0  0  0
  1 21  1  0  0  0  0
  1 22  1  0  0  0  0
  2 19  2  0  0  0  0
  2  3  1  0  0  0  0
  3  4  2  0  0  0  0
  3 23  1  0  0  0  0
  4  5  1  0  0  0  0
  4 17  1  0  0  0  0
  5  6  1  0  0  0  0
  5 24  1  0  0  0  0
  6  7  2  0  0  0  0
  6  8  1  0  0  0  0
  8  9  1  0  0  0  0
  8 25  1  0  0  0  0
  9 16  1  0  0  0  0
  9 10  1  0  0  0  0
  9 26  1  0  0  0  0
 10 11  1  0  0  0  0
 10 27  1  0  0  0  0
 10 28  1  0  0  0  0
 11 12  1  0  0  0  0
 11 29  1  0  0  0  0
 11 30  1  0  0  0  0
 12 13  1  0  0  0  0
 12 16  1  0  0  0  0
 12 41  1  0  0  0  0
 13 15  1  0  0  0  0
 13 14  1  0  0  0  0
 13 31  1  0  0  0  0
 14 15  1  0  0  0  0
 14 32  1  0  0  0  0
 14 33  1  0  0  0  0
 15 34  1  0  0  0  0
 15 35  1  0  0  0  0
 16 36  1  0  0  0  0
 16 37  1  0  0  0  0
 17 18  1  0  0  0  0
 17 19  1  0  0  0  0
 18 38  1  0  0  0  0
 18 39  1  0  0  0  0
 18 40  1  0  0  0  0
M  CHG  1  12   1
M  END
> <s_m_source_file>
AV-unprocessed.smi

> <i_m_source_file_index>
835

> <i_lp_mmshare_version>
43012

> <i_f3d_flags>
0

> <s_epik_input>
W0NIM11jMVtjSF1jKG4objEpW0NIM10pW05IXUMoPU8pW05IXVtDQEBIXTJbQ0gyXVtDSDJdTihbQ0gyXTIpW0NIXTNbQ0gyXVtDSDJdMw==

> <s_epik_cmdline>
J2VwaWtfcHl0aG9uJywgJy1waCcsICc3LjAnLCAnLXRuJywgJzgnLCAnLW1hJywgJzIwMCcsICctbWV0YWxfYmluZGluZycsICctaW1hZScsICc8aW5maWxlLm1hZT4nLCAnLW9tYWUnLCAnPG91dGZpbGUubWFlPic=

> <r_lp_tautomer_probability>
1

> <r_epik_Ionization_Penalty>
0.000700689

> <r_epik_Ionization_Penalty_Charging>
0.000627528

> <r_epik_Ionization_Penalty_Neutral>
7.31611e-05

> <r_epik_State_Penalty>
0.00039643

> <r_epik_Charging_Adjusted_Penalty>
0.00102396

> <i_epik_Tot_Q>
1

> <i_epik_Tot_abs_Q>
1

> <r_epik_Metal_State_Penalty>
-0

> <b_epik_Metal_Only>
0

> <s_lp_Force_Field>
OPLS_2005

> <r_lp_Energy>
38.0167

> <b_lp_Chiralities_Consistent>
1

> <s_lp_Variant>
AV-unprocessed.smi:835-3

> <Gold.Version>
5.8.1

> <Gold.Id.Protein>
6NUR|6NUR_protein|mol2

> <Gold.PLP.Fitness>
43.2248

> <Gold.PLP.PLP>
-34.9468

> <Gold.PLP.part.hbond>
-2.5755

> <Gold.PLP.part.metal>
0.0000

> <Gold.PLP.part.buried>
-0.5119

> <Gold.PLP.part.nonpolar>
-33.4375

> <Gold.PLP.part.repulsive>
0.3387

> <Gold.PLP.ligand.clash>
0.0000

> <Gold.PLP.ligand.torsion>
0.9959

> <Gold.PLP.Chemscore.Hbond>
3.0019

> <Gold.PLP.Chemscore.CHOScore>
0.0000

> <Gold.PLP.Chemscore.Metal>
0.0000

> <Gold.Chemscore.Hbonds>
donor molecule, donor type, donor heavy atom, donor atom, acceptor molecule, acceptor atom, score
      L1  H     5    24       P1  7948  0.23
      L1  H     8    25       P1  7948  0.91
      L1  H    12    41       P1 10175  1.89

> <Gold.PLP.Chemscore.Internal.Correction>
1.2641

> <Gold.Rescore>
     Score         DG    S(hbond)    S(metal)    S(lipo)     H(rot)  DE(clash)    DE(int)     intcor
     14.99     -18.43       1.81        0.00      85.56       1.22       1.10       2.34       ----

> <Gold.Chemscore.Fitness>
14.9926

> <Gold.Chemscore.DG>
-18.4300

> <Gold.Chemscore.ZeroCoef>
-5.4800

> <Gold.Chemscore.Hbond>
1.8149

> <Gold.Chemscore.Metal>
0.0000

> <Gold.Chemscore.Lipo>
85.5603

> <Gold.Chemscore.Internal_Hbond>
0.0000

> <Gold.Chemscore.DEClash>
1.1002

> <Gold.Chemscore.DEInternal>
2.3372

> <Gold.Chemscore.Rot>
1.2196

> <Gold.Chemscore.Internal.Correction>
   9.000000E+99

> <Gold.Chemscore.Hbonds>
donor molecule, donor type, donor heavy atom, donor atom, acceptor molecule, acceptor atom, score
      L1  H     5    24       P1  7948  0.13
      L1  H     8    25       P1  7948  0.86
      L1  H    12    41       P1 10175  0.91

> <Gold.Chemscore.Hbond.Weighted>
-6.0618

> <Gold.Chemscore.Metal.Weighted>
-0.0000

> <Gold.Chemscore.Lipo.Weighted>
-10.0106

> <Gold.Chemscore.Internal_Hbond.Weighted>
0.0000

> <Gold.Chemscore.DEClash.Weighted>
1.1002

> <Gold.Chemscore.DEInternal.Weighted>
2.3372

> <Gold.Chemscore.Rot.Weighted>
3.1223

> <Gold.Chemscore.Internal.Correction.Weighted>
   9.000000E+99

> <Gold.Protein.RotatedTorsions>
[ 6907 6896 6895 6894 ] final  -83.28 input  -60.11 | X-H torsion
[ 7974 7965 7964 7962 ] final -153.38 input  175.53 | X-H torsion
[ 8008 7997 7996 7995 ] final   48.06 input   59.86 | X-H torsion
[ 10167 10162 10161 10158 ] final  101.76 input  -65.29 | X-H torsion
[ 10718 10713 10712 10709 ] final -159.68 input   66.30 | X-H torsion
[ 10763 10752 10751 10750 ] final   40.89 input  -60.55 | X-H torsion
[ 11005 11000 10999 10996 ] final  123.94 input  -57.11 | X-H torsion

> <Gold.Protein.ActiveResidues>
 VAL166  LYS551  ARG553  GLY616  TRP617  ASP618  TYR619  PRO620  LYS621  CYS622 
 ASP623  PHE694  ASN695  SER759  ASP760  ASP761  ALA762  ILE779  LEU786  VAL792 
 PHE793  MET794  SER795  GLU796  ALA797  LYS798  CYS799  TRP800  GLU811  SER814 

> <Gold.Protein.RotatedAtoms>
  150.6887  134.3536  159.4919 H   0  0  0  0  0  0  0  0  0  0  0  0  # atno 6907 bound_to 6896
  152.1374  134.9086  160.0565 H   0  0  0  0  0  0  0  0  0  0  0  0  # atno 6908 bound_to 6896
  152.0233  133.3872  159.4304 H   0  0  0  0  0  0  0  0  0  0  0  0  # atno 6909 bound_to 6896
  144.7744  140.4534  143.5884 H   0  0  0  0  0  0  0  0  0  0  0  0  # atno 7974 bound_to 7965
  155.3794  140.3428  155.4246 H   0  0  0  0  0  0  0  0  0  0  0  0  # atno 8008 bound_to 7997
  156.1619  140.1603  156.8631 H   0  0  0  0  0  0  0  0  0  0  0  0  # atno 8009 bound_to 7997
  154.5147  140.0781  156.8041 H   0  0  0  0  0  0  0  0  0  0  0  0  # atno 8010 bound_to 7997
  139.7409  144.7011  151.0576 H   0  0  0  0  0  0  0  0  0  0  0  0  # atno 10167 bound_to 10162
  156.5714  130.8690  151.2839 H   0  0  0  0  0  0  0  0  0  0  0  0  # atno 10718 bound_to 10713
  152.9923  135.6178  154.2699 H   0  0  0  0  0  0  0  0  0  0  0  0  # atno 10763 bound_to 10752
  154.2433  135.2788  155.2847 H   0  0  0  0  0  0  0  0  0  0  0  0  # atno 10764 bound_to 10752
  154.5351  135.5777  153.6849 H   0  0  0  0  0  0  0  0  0  0  0  0  # atno 10765 bound_to 10752
  139.9336  134.9640  156.8335 H   0  0  0  0  0  0  0  0  0  0  0  0  # atno 11005 bound_to 11000
  145.6230  139.1526  143.3012 LP  0  0  0  0  0  0  0  0  0  0  0  0  # atno 17320 bound_to 7965
  146.1913  140.6339  142.9144 LP  0  0  0  0  0  0  0  0  0  0  0  0  # atno 17321 bound_to 7965
  140.7786  143.4925  150.9875 LP  0  0  0  0  0  0  0  0  0  0  0  0  # atno 17342 bound_to 10162
  139.8613  143.7310  152.3173 LP  0  0  0  0  0  0  0  0  0  0  0  0  # atno 17343 bound_to 10162
  157.7347  130.9750  150.2043 LP  0  0  0  0  0  0  0  0  0  0  0  0  # atno 17370 bound_to 10713
  156.2711  130.3722  149.8031 LP  0  0  0  0  0  0  0  0  0  0  0  0  # atno 17371 bound_to 10713
  140.6136  134.0059  155.7587 LP  0  0  0  0  0  0  0  0  0  0  0  0  # atno 17394 bound_to 11000
  141.0938  133.9876  157.3194 LP  0  0  0  0  0  0  0  0  0  0  0  0  # atno 17395 bound_to 11000

$$$$
