AV-unprocessed.smi:998|AV-procd|sdf|4350|dock4
  -GOLD-   22720 2253D 1   1.00000     0.00000
 Structure written by MMmdl.
 45 47  0  0  0  0  0  0  0  0  2 V2000
  146.5053  134.0744  151.0723 C   0  0  0  0  0  0  0  0  0  0  0  0
  144.8165  134.4068  151.7215 S   0  0  0  0  0  0  0  0  0  0  0  0
  143.8431  133.8053  150.7975 O   0  0  0  0  0  0  0  0  0  0  0  0
  144.7929  134.0436  153.1464 O   0  0  0  0  0  0  0  0  0  0  0  0
  144.6501  136.1350  151.6131 N   0  0  0  0  0  0  0  0  0  0  0  0
  145.5799  136.9183  150.7791 C   0  0  0  0  0  0  0  0  0  0  0  0
  146.6846  137.5732  151.6292 C   0  0  0  0  0  0  0  0  0  0  0  0
  146.1203  138.3254  152.7477 N   0  0  0  0  0  0  0  0  0  0  0  0
  146.9516  139.2528  153.4153 C   0  0  0  0  0  0  0  0  0  0  0  0
  148.2486  138.9491  153.9005 C   0  0  0  0  0  0  0  0  0  0  0  0
  149.0080  139.9462  154.5467 C   0  0  0  0  0  0  0  0  0  0  0  0
  148.4798  141.2447  154.7007 C   0  0  0  0  0  0  0  0  0  0  0  0
  149.2825  142.2107  155.3679 N   0  0  0  0  0  0  0  0  0  0  0  0
  150.2312  142.0176  156.3014 C   0  0  0  0  0  0  0  0  0  0  0  0
  150.5649  140.9258  156.7610 O   0  0  0  0  0  0  0  0  0  0  0  0
  150.7697  143.1815  156.6902 N   0  0  0  0  0  0  0  0  0  0  0  0
  151.7886  143.3330  157.6786 C   0  0  0  0  0  0  0  0  0  0  0  0
  151.4581  144.1538  158.9066 C   0  0  0  0  0  0  0  0  0  0  0  0
  152.3892  144.7096  157.8645 C   0  0  0  0  0  0  0  0  0  0  0  0
  147.1773  141.4967  154.2082 C   0  0  0  0  0  0  0  0  0  0  0  0
  146.4844  140.5117  153.5971 N   0  3  0  0  0  0  0  0  0  0  0  0
  145.2055  137.5491  153.5857 C   0  0  0  0  0  0  0  0  0  0  0  0
  144.0924  136.8984  152.7445 C   0  0  0  0  0  0  0  0  0  0  0  0
  146.6896  133.0005  151.1002 H   0  0  0  0  0  0  0  0  0  0  0  0
  147.2473  134.5742  151.6924 H   0  0  0  0  0  0  0  0  0  0  0  0
  146.5831  134.4176  150.0422 H   0  0  0  0  0  0  0  0  0  0  0  0
  146.0168  136.2910  150.0026 H   0  0  0  0  0  0  0  0  0  0  0  0
  145.0094  137.6925  150.2644 H   0  0  0  0  0  0  0  0  0  0  0  0
  147.3744  136.8221  152.0125 H   0  0  0  0  0  0  0  0  0  0  0  0
  147.2581  138.2372  150.9821 H   0  0  0  0  0  0  0  0  0  0  0  0
  148.6775  137.9636  153.7990 H   0  0  0  0  0  0  0  0  0  0  0  0
  149.9946  139.7105  154.9190 H   0  0  0  0  0  0  0  0  0  0  0  0
  149.0816  143.1729  155.1380 H   0  0  0  0  0  0  0  0  0  0  0  0
  150.4308  144.0292  156.2596 H   0  0  0  0  0  0  0  0  0  0  0  0
  152.4635  142.4924  157.8349 H   0  0  0  0  0  0  0  0  0  0  0  0
  150.4643  144.5924  158.9753 H   0  0  0  0  0  0  0  0  0  0  0  0
  151.8938  143.8381  159.8525 H   0  0  0  0  0  0  0  0  0  0  0  0
  153.4470  144.7650  158.1139 H   0  0  0  0  0  0  0  0  0  0  0  0
  152.0161  145.5182  157.2386 H   0  0  0  0  0  0  0  0  0  0  0  0
  146.6520  142.4367  154.2812 H   0  0  0  0  0  0  0  0  0  0  0  0
  145.7776  136.7898  154.1175 H   0  0  0  0  0  0  0  0  0  0  0  0
  144.7359  138.1715  154.3470 H   0  0  0  0  0  0  0  0  0  0  0  0
  143.4355  137.6732  152.3466 H   0  0  0  0  0  0  0  0  0  0  0  0
  143.4696  136.2566  153.3670 H   0  0  0  0  0  0  0  0  0  0  0  0
  145.5511  140.7325  153.2490 H   0  0  0  0  0  0  0  0  0  0  0  0
  1  2  1  0  0  0  0
  1 24  1  0  0  0  0
  1 25  1  0  0  0  0
  1 26  1  0  0  0  0
  2  3  2  0  0  0  0
  2  4  2  0  0  0  0
  2  5  1  0  0  0  0
  5 23  1  0  0  0  0
  5  6  1  0  0  0  0
  6  7  1  0  0  0  0
  6 27  1  0  0  0  0
  6 28  1  0  0  0  0
  7  8  1  0  0  0  0
  7 29  1  0  0  0  0
  7 30  1  0  0  0  0
  8  9  1  0  0  0  0
  8 22  1  0  0  0  0
  9 21  1  0  0  0  0
  9 10  2  0  0  0  0
 10 11  1  0  0  0  0
 10 31  1  0  0  0  0
 11 12  2  0  0  0  0
 11 32  1  0  0  0  0
 12 13  1  0  0  0  0
 12 20  1  0  0  0  0
 13 14  1  0  0  0  0
 13 33  1  0  0  0  0
 14 15  2  0  0  0  0
 14 16  1  0  0  0  0
 16 17  1  0  0  0  0
 16 34  1  0  0  0  0
 17 19  1  0  0  0  0
 17 18  1  0  0  0  0
 17 35  1  0  0  0  0
 18 19  1  0  0  0  0
 18 36  1  0  0  0  0
 18 37  1  0  0  0  0
 19 38  1  0  0  0  0
 19 39  1  0  0  0  0
 20 21  2  0  0  0  0
 20 40  1  0  0  0  0
 21 45  1  0  0  0  0
 22 23  1  0  0  0  0
 22 41  1  0  0  0  0
 22 42  1  0  0  0  0
 23 43  1  0  0  0  0
 23 44  1  0  0  0  0
M  CHG  1  21   1
M  END
> <s_m_source_file>
AV-unprocessed.smi

> <i_m_source_file_index>
998

> <i_lp_mmshare_version>
43012

> <i_f3d_flags>
0

> <s_epik_input>
W0NIM11TKD1PKSg9TylOMVtDSDJdW0NIMl1OKFtDSDJdW0NIMl0xKWMyW2NIXVtjSF1jKFtjSF1uMilbTkhdQyg9TylbTkhdW0NIXTNbQ0gyXVtDSDJdMw==

> <s_epik_cmdline>
J2VwaWtfcHl0aG9uJywgJy1waCcsICc3LjAnLCAnLXRuJywgJzgnLCAnLW1hJywgJzIwMCcsICctbWV0YWxfYmluZGluZycsICctaW1hZScsICc8aW5maWxlLm1hZT4nLCAnLW9tYWUnLCAnPG91dGZpbGUubWFlPic=

> <r_lp_tautomer_probability>
0.999994

> <r_epik_Ionization_Penalty>
1.4485

> <r_epik_Ionization_Penalty_Charging>
1.44848

> <r_epik_Ionization_Penalty_Neutral>
2.21562e-05

> <r_epik_State_Penalty>
1.53448

> <r_epik_Charging_Adjusted_Penalty>
2.98296

> <i_epik_Tot_Q>
1

> <i_epik_Tot_abs_Q>
1

> <r_epik_Metal_State_Penalty>
1.58455

> <b_epik_Metal_Only>
0

> <s_lp_Force_Field>
OPLS_2005

> <r_lp_Energy>
37.0823

> <b_lp_Chiralities_Consistent>
1

> <s_lp_Variant>
AV-unprocessed.smi:998-2

> <Gold.Version>
5.8.1

> <Gold.Id.Protein>
6NUR|6NUR_protein|mol2

> <Gold.PLP.Fitness>
46.3610

> <Gold.PLP.PLP>
-36.0673

> <Gold.PLP.part.hbond>
-3.0000

> <Gold.PLP.part.metal>
0.0000

> <Gold.PLP.part.buried>
1.2980

> <Gold.PLP.part.nonpolar>
-36.3230

> <Gold.PLP.part.repulsive>
0.8167

> <Gold.PLP.ligand.clash>
0.0000

> <Gold.PLP.ligand.torsion>
1.8246

> <Gold.PLP.Chemscore.Hbond>
3.8080

> <Gold.PLP.Chemscore.CHOScore>
0.0000

> <Gold.PLP.Chemscore.Metal>
0.0000

> <Gold.Chemscore.Hbonds>
donor molecule, donor type, donor heavy atom, donor atom, acceptor molecule, acceptor atom, score
      L1  H    13    33       P1  8028  0.99
      L1  H    16    34       P1  8028  0.82
      L1  H    21    45       P1 10175  1.98

> <Gold.PLP.Chemscore.Internal.Correction>
2.5188

> <Gold.Rescore>
     Score         DG    S(hbond)    S(metal)    S(lipo)     H(rot)  DE(clash)    DE(int)     intcor
     16.42     -22.23       2.89        0.00      87.85       1.25       2.73       3.08       ----

> <Gold.Chemscore.Fitness>
16.4188

> <Gold.Chemscore.DG>
-22.2282

> <Gold.Chemscore.ZeroCoef>
-5.4800

> <Gold.Chemscore.Hbond>
2.8934

> <Gold.Chemscore.Metal>
0.0000

> <Gold.Chemscore.Lipo>
87.8535

> <Gold.Chemscore.Internal_Hbond>
0.0000

> <Gold.Chemscore.DEClash>
2.7316

> <Gold.Chemscore.DEInternal>
3.0778

> <Gold.Chemscore.Rot>
1.2479

> <Gold.Chemscore.Internal.Correction>
   9.000000E+99

> <Gold.Chemscore.Hbonds>
donor molecule, donor type, donor heavy atom, donor atom, acceptor molecule, acceptor atom, score
      L1  H    13    33       P1  8028  0.93
      L1  H    16    34       P1  8028  0.80
      L1  H    21    45       P1 10175  0.72

> <Gold.Chemscore.Hbond.Weighted>
-9.6639

> <Gold.Chemscore.Metal.Weighted>
-0.0000

> <Gold.Chemscore.Lipo.Weighted>
-10.2789

> <Gold.Chemscore.Internal_Hbond.Weighted>
0.0000

> <Gold.Chemscore.DEClash.Weighted>
2.7316

> <Gold.Chemscore.DEInternal.Weighted>
3.0778

> <Gold.Chemscore.Rot.Weighted>
3.1945

> <Gold.Chemscore.Internal.Correction.Weighted>
   9.000000E+99

> <Gold.Protein.RotatedTorsions>
[ 6907 6896 6895 6894 ] final    1.00 input  -60.11 | X-H torsion
[ 7974 7965 7964 7962 ] final -156.25 input  175.53 | X-H torsion
[ 8008 7997 7996 7995 ] final -144.28 input   59.86 | X-H torsion
[ 10167 10162 10161 10158 ] final   31.26 input  -65.29 | X-H torsion
[ 10718 10713 10712 10709 ] final  167.95 input   66.30 | X-H torsion
[ 10763 10752 10751 10750 ] final -140.86 input  -60.55 | X-H torsion
[ 11005 11000 10999 10996 ] final   71.05 input  -57.11 | X-H torsion

> <Gold.Protein.ActiveResidues>
 VAL166  LYS551  ARG553  GLY616  TRP617  ASP618  TYR619  PRO620  LYS621  CYS622 
 ASP623  PHE694  ASN695  SER759  ASP760  ASP761  ALA762  ILE779  LEU786  VAL792 
 PHE793  MET794  SER795  GLU796  ALA797  LYS798  CYS799  TRP800  GLU811  SER814 

> <Gold.Protein.RotatedAtoms>
  151.5855  135.1056  160.0026 H   0  0  0  0  0  0  0  0  0  0  0  0  # atno 6907 bound_to 6896
  152.4332  133.7311  159.6598 H   0  0  0  0  0  0  0  0  0  0  0  0  # atno 6908 bound_to 6896
  150.8227  133.8154  159.3155 H   0  0  0  0  0  0  0  0  0  0  0  0  # atno 6909 bound_to 6896
  144.7602  140.4136  143.5982 H   0  0  0  0  0  0  0  0  0  0  0  0  # atno 7974 bound_to 7965
  155.5243  140.0594  157.2901 H   0  0  0  0  0  0  0  0  0  0  0  0  # atno 8008 bound_to 7997
  154.4506  140.1947  156.0475 H   0  0  0  0  0  0  0  0  0  0  0  0  # atno 8009 bound_to 7997
  156.0697  140.3261  155.7564 H   0  0  0  0  0  0  0  0  0  0  0  0  # atno 8010 bound_to 7997
  140.4605  144.0914  150.6211 H   0  0  0  0  0  0  0  0  0  0  0  0  # atno 10167 bound_to 10162
  157.0442  131.0295  151.2703 H   0  0  0  0  0  0  0  0  0  0  0  0  # atno 10718 bound_to 10713
  154.8564  135.3541  154.5776 H   0  0  0  0  0  0  0  0  0  0  0  0  # atno 10763 bound_to 10752
  153.6387  135.6999  153.5254 H   0  0  0  0  0  0  0  0  0  0  0  0  # atno 10764 bound_to 10752
  153.2989  135.4212  155.1193 H   0  0  0  0  0  0  0  0  0  0  0  0  # atno 10765 bound_to 10752
  139.9564  134.7137  156.0744 H   0  0  0  0  0  0  0  0  0  0  0  0  # atno 11005 bound_to 11000
  145.6645  139.1587  143.2789 LP  0  0  0  0  0  0  0  0  0  0  0  0  # atno 17320 bound_to 7965
  146.1656  140.6723  142.9257 LP  0  0  0  0  0  0  0  0  0  0  0  0  # atno 17321 bound_to 7965
  140.4099  143.2662  151.9845 LP  0  0  0  0  0  0  0  0  0  0  0  0  # atno 17342 bound_to 10162
  139.4806  144.5924  151.7749 LP  0  0  0  0  0  0  0  0  0  0  0  0  # atno 17343 bound_to 10162
  157.5081  130.7921  149.7675 LP  0  0  0  0  0  0  0  0  0  0  0  0  # atno 17370 bound_to 10713
  156.0028  130.3871  150.2541 LP  0  0  0  0  0  0  0  0  0  0  0  0  # atno 17371 bound_to 10713
  141.1236  133.6605  156.3278 LP  0  0  0  0  0  0  0  0  0  0  0  0  # atno 17394 bound_to 11000
  140.5599  134.5944  157.5431 LP  0  0  0  0  0  0  0  0  0  0  0  0  # atno 17395 bound_to 11000

$$$$
