AV-unprocessed.smi:3315|AV-procd|sdf|12750|dock5
  -GOLD-   2272019 83D 1   1.00000     0.00000
 Structure written by MMmdl.
 37 38  0  0  0  0  0  0  0  0  1 V2000
  146.3112  142.8594  154.1722 C   0  0  0  0  0  0  0  0  0  0  0  0
  146.6186  141.5880  154.7309 O   0  0  0  0  0  0  0  0  0  0  0  0
  147.7278  140.8721  154.1696 C   0  0  2  0  0  0  0  0  0  0  0  0
  149.0302  141.6578  154.3677 C   0  0  0  0  0  0  0  0  0  0  0  0
  147.3673  140.3444  152.7670 C   0  0  0  0  0  0  0  0  0  0  0  0
  146.6931  139.1663  153.4674 C   0  0  1  0  0  0  0  0  0  0  0  0
  146.8733  137.9059  152.7547 N   0  0  0  0  0  0  0  0  0  0  0  0
  145.8749  137.0717  152.4338 C   0  0  0  0  0  0  0  0  0  0  0  0
  144.6963  137.2875  152.7156 O   0  0  0  0  0  0  0  0  0  0  0  0
  146.3350  135.9903  151.7825 N   0  0  0  0  0  0  0  0  0  0  0  0
  145.5982  134.8947  151.2629 C   0  0  0  0  0  0  0  0  0  0  0  0
  144.1993  134.8715  150.9895 C   0  0  0  0  0  0  0  0  0  0  0  0
  144.0074  133.6086  150.5067 C   0  0  0  0  0  0  0  0  0  0  0  0
  145.1786  132.9194  150.4842 O   0  0  0  0  0  0  0  0  0  0  0  0
  146.1937  133.7524  150.9698 N   0  0  0  0  0  0  0  0  0  0  0  0
  147.6573  139.3889  154.6608 C   0  0  0  0  0  0  0  0  0  0  0  0
  148.9836  138.6053  154.6347 C   0  0  0  0  0  0  0  0  0  0  0  0
  147.0648  139.1575  156.0552 C   0  0  0  0  0  0  0  0  0  0  0  0
  145.3614  143.2055  154.5792 H   0  0  0  0  0  0  0  0  0  0  0  0
  146.2122  142.8250  153.0879 H   0  0  0  0  0  0  0  0  0  0  0  0
  147.0624  143.6046  154.4327 H   0  0  0  0  0  0  0  0  0  0  0  0
  149.8998  141.0900  154.0391 H   0  0  0  0  0  0  0  0  0  0  0  0
  149.1827  141.9113  155.4169 H   0  0  0  0  0  0  0  0  0  0  0  0
  149.0403  142.5841  153.7939 H   0  0  0  0  0  0  0  0  0  0  0  0
  146.6892  140.9623  152.1797 H   0  0  0  0  0  0  0  0  0  0  0  0
  148.2443  140.0624  152.1818 H   0  0  0  0  0  0  0  0  0  0  0  0
  145.6522  139.3890  153.7139 H   0  0  0  0  0  0  0  0  0  0  0  0
  147.8149  137.6575  152.4887 H   0  0  0  0  0  0  0  0  0  0  0  0
  147.3330  135.9448  151.6387 H   0  0  0  0  0  0  0  0  0  0  0  0
  143.4511  135.6388  151.1165 H   0  0  0  0  0  0  0  0  0  0  0  0
  143.1377  133.0754  150.1520 H   0  0  0  0  0  0  0  0  0  0  0  0
  148.8273  137.5419  154.8201 H   0  0  0  0  0  0  0  0  0  0  0  0
  149.6755  138.9656  155.3968 H   0  0  0  0  0  0  0  0  0  0  0  0
  149.4928  138.6878  153.6745 H   0  0  0  0  0  0  0  0  0  0  0  0
  146.9995  138.0953  156.2935 H   0  0  0  0  0  0  0  0  0  0  0  0
  146.0545  139.5577  156.1407 H   0  0  0  0  0  0  0  0  0  0  0  0
  147.6690  139.6334  156.8279 H   0  0  0  0  0  0  0  0  0  0  0  0
  1  2  1  0  0  0  0
  1 19  1  0  0  0  0
  1 20  1  0  0  0  0
  1 21  1  0  0  0  0
  2  3  1  0  0  0  0
  3 16  1  0  0  0  0
  3  4  1  0  0  0  0
  3  5  1  0  0  0  0
  4 22  1  0  0  0  0
  4 23  1  0  0  0  0
  4 24  1  0  0  0  0
  5  6  1  0  0  0  0
  5 25  1  0  0  0  0
  5 26  1  0  0  0  0
  6  7  1  0  0  0  0
  6 16  1  0  0  0  0
  6 27  1  0  0  0  0
  7  8  1  0  0  0  0
  7 28  1  0  0  0  0
  8  9  2  0  0  0  0
  8 10  1  0  0  0  0
 10 11  1  0  0  0  0
 10 29  1  0  0  0  0
 11 15  2  0  0  0  0
 11 12  1  0  0  0  0
 12 13  2  0  0  0  0
 12 30  1  0  0  0  0
 13 14  1  0  0  0  0
 13 31  1  0  0  0  0
 14 15  1  0  0  0  0
 16 17  1  0  0  0  0
 16 18  1  0  0  0  0
 17 32  1  0  0  0  0
 17 33  1  0  0  0  0
 17 34  1  0  0  0  0
 18 35  1  0  0  0  0
 18 36  1  0  0  0  0
 18 37  1  0  0  0  0
M  END
> <s_m_source_file>
AV-unprocessed.smi

> <i_m_source_file_index>
3315

> <i_lp_mmshare_version>
43012

> <i_f3d_flags>
0

> <s_epik_input>
W0NIM11PW0NAQF0xKFtDSDNdKVtDSDJdW0NASF0oQzEoW0NIM10pW0NIM10pW05IXUMoPU8pW05IXWMyW2NIXVtjSF1vbjI=

> <s_epik_cmdline>
J2VwaWtfcHl0aG9uJywgJy1waCcsICc3LjAnLCAnLXRuJywgJzgnLCAnLW1hJywgJzIwMCcsICctbWV0YWxfYmluZGluZycsICctaW1hZScsICc8aW5maWxlLm1hZT4nLCAnLW9tYWUnLCAnPG91dGZpbGUubWFlPic=

> <r_lp_tautomer_probability>
1

> <r_epik_Ionization_Penalty>
2.28875e-05

> <r_epik_Ionization_Penalty_Charging>
0

> <r_epik_Ionization_Penalty_Neutral>
2.28875e-05

> <r_epik_State_Penalty>
-0

> <r_epik_Charging_Adjusted_Penalty>
0

> <i_epik_Tot_Q>
0

> <i_epik_Tot_abs_Q>
0

> <r_epik_Metal_State_Penalty>
-0

> <b_epik_Metal_Only>
0

> <s_lp_Force_Field>
OPLS_2005

> <r_lp_Energy>
24.1983

> <b_lp_Chiralities_Consistent>
1

> <s_lp_Variant>
AV-unprocessed.smi:3315-2

> <Gold.Version>
5.8.1

> <Gold.Id.Protein>
6NUR|6NUR_protein|mol2

> <Gold.PLP.Fitness>
32.7573

> <Gold.PLP.PLP>
-24.7655

> <Gold.PLP.part.hbond>
-2.0000

> <Gold.PLP.part.metal>
0.0000

> <Gold.PLP.part.buried>
-1.1421

> <Gold.PLP.part.nonpolar>
-23.0209

> <Gold.PLP.part.repulsive>
0.8125

> <Gold.PLP.ligand.clash>
0.0000

> <Gold.PLP.ligand.torsion>
0.2641

> <Gold.PLP.Chemscore.Hbond>
1.9120

> <Gold.PLP.Chemscore.CHOScore>
0.8024

> <Gold.PLP.Chemscore.Metal>
0.0000

> <Gold.Chemscore.Hbonds>
donor molecule, donor type, donor heavy atom, donor atom, acceptor molecule, acceptor atom, score
      L1  H     7    28       P1  7948  0.91
      L1  H    10    29       P1  7948  1.00
      L1  C    13    31       P1 10186  0.66

> <Gold.PLP.Chemscore.Internal.Correction>
0.3769

> <Gold.Rescore>
     Score         DG    S(hbond)    S(metal)    S(lipo)     H(rot)  DE(clash)    DE(int)     intcor
     13.37     -14.94       1.92        0.00      54.54       1.30       0.30       1.28       ----

> <Gold.Chemscore.Fitness>
13.3684

> <Gold.Chemscore.DG>
-14.9436

> <Gold.Chemscore.ZeroCoef>
-5.4800

> <Gold.Chemscore.Hbond>
1.9221

> <Gold.Chemscore.Metal>
0.0000

> <Gold.Chemscore.Lipo>
54.5435

> <Gold.Chemscore.Internal_Hbond>
0.0000

> <Gold.Chemscore.DEClash>
0.2954

> <Gold.Chemscore.DEInternal>
1.2798

> <Gold.Chemscore.Rot>
1.3038

> <Gold.Chemscore.Internal.Correction>
   9.000000E+99

> <Gold.Chemscore.Hbonds>
donor molecule, donor type, donor heavy atom, donor atom, acceptor molecule, acceptor atom, score
      L1  H     7    28       P1  7948  0.89
      L1  H    10    29       P1  7948  0.99

> <Gold.Chemscore.Hbond.Weighted>
-6.4198

> <Gold.Chemscore.Metal.Weighted>
-0.0000

> <Gold.Chemscore.Lipo.Weighted>
-6.3816

> <Gold.Chemscore.Internal_Hbond.Weighted>
0.0000

> <Gold.Chemscore.DEClash.Weighted>
0.2954

> <Gold.Chemscore.DEInternal.Weighted>
1.2798

> <Gold.Chemscore.Rot.Weighted>
3.3377

> <Gold.Chemscore.Internal.Correction.Weighted>
   9.000000E+99

> <Gold.Protein.RotatedTorsions>
[ 6907 6896 6895 6894 ] final  -62.44 input  -60.11 | X-H torsion
[ 7974 7965 7964 7962 ] final  117.07 input  175.53 | X-H torsion
[ 8008 7997 7996 7995 ] final  -23.63 input   59.86 | X-H torsion
[ 10167 10162 10161 10158 ] final   64.23 input  -65.29 | X-H torsion
[ 10718 10713 10712 10709 ] final  171.73 input   66.30 | X-H torsion
[ 10763 10752 10751 10750 ] final  171.85 input  -60.55 | X-H torsion
[ 11005 11000 10999 10996 ] final   34.37 input  -57.11 | X-H torsion

> <Gold.Protein.ActiveResidues>
 VAL166  LYS551  ARG553  GLY616  TRP617  ASP618  TYR619  PRO620  LYS621  CYS622 
 ASP623  PHE694  ASN695  SER759  ASP760  ASP761  ALA762  ILE779  LEU786  VAL792 
 PHE793  MET794  SER795  GLU796  ALA797  LYS798  CYS799  TRP800  GLU811  SER814 

> <Gold.Protein.RotatedAtoms>
  150.7715  134.6570  159.6318 H   0  0  0  0  0  0  0  0  0  0  0  0  # atno 6907 bound_to 6896
  152.3770  134.6646  160.0165 H   0  0  0  0  0  0  0  0  0  0  0  0  # atno 6908 bound_to 6896
  151.6988  133.3274  159.3297 H   0  0  0  0  0  0  0  0  0  0  0  0  # atno 6909 bound_to 6896
  145.1718  139.3097  143.4463 H   0  0  0  0  0  0  0  0  0  0  0  0  # atno 7974 bound_to 7965
  154.4574  140.1975  156.0340 H   0  0  0  0  0  0  0  0  0  0  0  0  # atno 8008 bound_to 7997
  156.0774  140.3276  155.7622 H   0  0  0  0  0  0  0  0  0  0  0  0  # atno 8009 bound_to 7997
  155.5167  140.0566  157.2905 H   0  0  0  0  0  0  0  0  0  0  0  0  # atno 8010 bound_to 7997
  140.1244  144.4701  150.6901 H   0  0  0  0  0  0  0  0  0  0  0  0  # atno 10167 bound_to 10162
  156.9893  131.0143  151.2861 H   0  0  0  0  0  0  0  0  0  0  0  0  # atno 10718 bound_to 10713
  154.4177  135.2757  155.1996 H   0  0  0  0  0  0  0  0  0  0  0  0  # atno 10763 bound_to 10752
  154.3954  135.6056  153.5870 H   0  0  0  0  0  0  0  0  0  0  0  0  # atno 10764 bound_to 10752
  152.9832  135.5913  154.4468 H   0  0  0  0  0  0  0  0  0  0  0  0  # atno 10765 bound_to 10752
  140.2535  134.3275  155.7882 H   0  0  0  0  0  0  0  0  0  0  0  0  # atno 11005 bound_to 11000
  146.3467  140.1867  142.8589 LP  0  0  0  0  0  0  0  0  0  0  0  0  # atno 17320 bound_to 7965
  145.0225  140.8805  143.5158 LP  0  0  0  0  0  0  0  0  0  0  0  0  # atno 17321 bound_to 7965
  140.6853  143.2347  151.5276 LP  0  0  0  0  0  0  0  0  0  0  0  0  # atno 17342 bound_to 10162
  139.5552  144.2295  152.1599 LP  0  0  0  0  0  0  0  0  0  0  0  0  # atno 17343 bound_to 10162
  157.5470  130.8157  149.8098 LP  0  0  0  0  0  0  0  0  0  0  0  0  # atno 17370 bound_to 10713
  156.0213  130.3794  150.1953 LP  0  0  0  0  0  0  0  0  0  0  0  0  # atno 17371 bound_to 10713
  141.2198  133.7367  156.9075 LP  0  0  0  0  0  0  0  0  0  0  0  0  # atno 17394 bound_to 11000
  140.1534  134.9214  157.2622 LP  0  0  0  0  0  0  0  0  0  0  0  0  # atno 17395 bound_to 11000

$$$$
