AV-unprocessed.smi:1512|AV-procd|sdf|6105|dock3
  -GOLD-   22720 6233D 1   1.00000     0.00000
 Structure written by MMmdl.
 44 46  0  0  0  0  0  0  0  0  3 V2000
  150.3002  138.6145  154.9629 C   0  0  0  0  0  0  0  0  0  0  0  0
  149.5469  139.8801  155.4045 C   0  0  1  0  0  0  0  0  0  0  0  0
  150.4834  140.8483  155.9642 N   0  0  0  0  0  0  0  0  0  0  0  0
  150.3820  141.4550  157.1589 C   0  0  0  0  0  0  0  0  0  0  0  0
  149.5140  141.1709  157.9828 O   0  0  0  0  0  0  0  0  0  0  0  0
  151.3880  142.5747  157.4812 C   0  0  0  0  0  0  0  0  0  0  0  0
  152.1029  142.4070  158.7618 N   0  0  0  0  0  0  0  0  0  0  0  0
  151.9429  143.4260  159.7194 C   0  0  0  0  0  0  0  0  0  0  0  0
  152.5225  143.3613  160.9264 C   0  0  0  0  0  0  0  0  0  0  0  0
  153.3178  142.1994  161.2410 C   0  0  0  0  0  0  0  0  0  0  0  0
  153.4854  141.2071  160.3371 C   0  0  0  0  0  0  0  0  0  0  0  0
  154.2690  140.0579  160.7255 N   0  3  0  0  0  0  0  0  0  0  0  0
  154.7571  140.0283  161.8512 O   0  0  0  0  0  0  0  0  0  0  0  0
  154.4338  139.1577  159.9078 O   0  5  0  0  0  0  0  0  0  0  0  0
  152.8696  141.2961  158.9976 C   0  0  0  0  0  0  0  0  0  0  0  0
  153.0200  140.4296  158.1344 O   0  0  0  0  0  0  0  0  0  0  0  0
  148.7845  140.5505  154.2372 C   0  0  2  0  0  0  0  0  0  0  0  0
  148.1777  141.9366  154.5604 C   0  0  0  0  0  0  0  0  0  0  0  0
  146.7326  141.8091  154.0454 C   0  0  2  0  0  0  0  0  0  0  0  0
  145.9320  140.9233  155.0170 C   0  0  0  0  0  0  0  0  0  0  0  0
  146.4894  139.5173  154.7288 C   0  0  0  0  0  0  0  0  0  0  0  0
  147.5676  139.7870  153.6585 C   0  0  1  0  0  0  0  0  0  0  0  0
  146.8972  140.8875  152.8416 C   0  0  0  0  0  0  0  0  0  0  0  0
  149.6131  137.8596  154.5802 H   0  0  0  0  0  0  0  0  0  0  0  0
  150.8420  138.1660  155.7961 H   0  0  0  0  0  0  0  0  0  0  0  0
  151.0227  138.8367  154.1771 H   0  0  0  0  0  0  0  0  0  0  0  0
  148.8376  139.6107  156.1871 H   0  0  0  0  0  0  0  0  0  0  0  0
  151.2383  141.1372  155.3592 H   0  0  0  0  0  0  0  0  0  0  0  0
  152.1061  142.6428  156.6621 H   0  0  0  0  0  0  0  0  0  0  0  0
  150.8501  143.5233  157.4627 H   0  0  0  0  0  0  0  0  0  0  0  0
  151.3220  144.2554  159.4130 H   0  0  0  0  0  0  0  0  0  0  0  0
  152.3879  144.1530  161.6489 H   0  0  0  0  0  0  0  0  0  0  0  0
  153.7637  142.1237  162.2222 H   0  0  0  0  0  0  0  0  0  0  0  0
  149.4968  140.6875  153.4210 H   0  0  0  0  0  0  0  0  0  0  0  0
  148.2043  142.1807  155.6234 H   0  0  0  0  0  0  0  0  0  0  0  0
  148.7173  142.7228  154.0305 H   0  0  0  0  0  0  0  0  0  0  0  0
  146.2574  142.7674  153.8344 H   0  0  0  0  0  0  0  0  0  0  0  0
  146.0697  141.2203  156.0574 H   0  0  0  0  0  0  0  0  0  0  0  0
  144.8650  140.9661  154.7955 H   0  0  0  0  0  0  0  0  0  0  0  0
  146.8714  139.0213  155.6198 H   0  0  0  0  0  0  0  0  0  0  0  0
  145.7040  138.8796  154.3210 H   0  0  0  0  0  0  0  0  0  0  0  0
  147.8398  138.9026  153.0818 H   0  0  0  0  0  0  0  0  0  0  0  0
  145.9484  140.5813  152.3975 H   0  0  0  0  0  0  0  0  0  0  0  0
  147.5379  141.3039  152.0619 H   0  0  0  0  0  0  0  0  0  0  0  0
  1  2  1  0  0  0  0
  1 24  1  0  0  0  0
  1 25  1  0  0  0  0
  1 26  1  0  0  0  0
  2  3  1  0  0  0  0
  2 17  1  0  0  0  0
  2 27  1  0  0  0  0
  3  4  1  0  0  0  0
  3 28  1  0  0  0  0
  4  5  2  0  0  0  0
  4  6  1  0  0  0  0
  6  7  1  0  0  0  0
  6 29  1  0  0  0  0
  6 30  1  0  0  0  0
  7 15  1  0  0  0  0
  7  8  1  0  0  0  0
  8  9  2  0  0  0  0
  8 31  1  0  0  0  0
  9 10  1  0  0  0  0
  9 32  1  0  0  0  0
 10 11  2  0  0  0  0
 10 33  1  0  0  0  0
 11 12  1  0  0  0  0
 11 15  1  0  0  0  0
 12 13  2  0  0  0  0
 12 14  1  0  0  0  0
 15 16  2  0  0  0  0
 17 22  1  0  0  0  0
 17 18  1  0  0  0  0
 17 34  1  0  0  0  0
 18 19  1  0  0  0  0
 18 35  1  0  0  0  0
 18 36  1  0  0  0  0
 19 23  1  0  0  0  0
 19 20  1  0  0  0  0
 19 37  1  0  0  0  0
 20 21  1  0  0  0  0
 20 38  1  0  0  0  0
 20 39  1  0  0  0  0
 21 22  1  0  0  0  0
 21 40  1  0  0  0  0
 21 41  1  0  0  0  0
 22 23  1  0  0  0  0
 22 42  1  0  0  0  0
 23 43  1  0  0  0  0
 23 44  1  0  0  0  0
M  CHG  1  12   1
M  CHG  1  14  -1
M  END
> <s_m_source_file>
AV-unprocessed.smi

> <i_m_source_file_index>
1512

> <i_lp_mmshare_version>
43012

> <i_f3d_flags>
0

> <s_epik_input>
W0NIMl0xW0NIMl1bQ0BIXShbQ0gyXTIpW0NAQEhdKFtDSDJdW0NAQEhdMTIpW0NASF0oW0NIM10pW05IXUMoPU8pW0NIMl1uM1tjSF1bY0hdW2NIXWMoW04rXSg9TylbTy1dKWMzPU8=

> <s_epik_cmdline>
J2VwaWtfcHl0aG9uJywgJy1waCcsICc3LjAnLCAnLXRuJywgJzgnLCAnLW1hJywgJzIwMCcsICctbWV0YWxfYmluZGluZycsICctaW1hZScsICc8aW5maWxlLm1hZT4nLCAnLW9tYWUnLCAnPG91dGZpbGUubWFlPic=

> <r_lp_tautomer_probability>
1

> <r_epik_Ionization_Penalty>
2.17697e-08

> <r_epik_Ionization_Penalty_Charging>
1.42735e-10

> <r_epik_Ionization_Penalty_Neutral>
2.16269e-08

> <r_epik_State_Penalty>
-0

> <r_epik_Charging_Adjusted_Penalty>
1.42735e-10

> <i_epik_Tot_Q>
0

> <i_epik_Tot_abs_Q>
2

> <r_epik_Metal_State_Penalty>
-0

> <b_epik_Metal_Only>
0

> <s_lp_Force_Field>
OPLS_2005

> <r_lp_Energy>
64.4109

> <b_lp_Chiralities_Consistent>
1

> <s_lp_Variant>
AV-unprocessed.smi:1512-6

> <Gold.Version>
5.8.1

> <Gold.Id.Protein>
6NUR|6NUR_protein|mol2

> <Gold.PLP.Fitness>
45.0604

> <Gold.PLP.PLP>
-43.0837

> <Gold.PLP.part.hbond>
-1.0000

> <Gold.PLP.part.metal>
0.0000

> <Gold.PLP.part.buried>
-3.3868

> <Gold.PLP.part.nonpolar>
-38.4123

> <Gold.PLP.part.repulsive>
0.1236

> <Gold.PLP.ligand.clash>
0.0000

> <Gold.PLP.ligand.torsion>
0.2198

> <Gold.PLP.Chemscore.Hbond>
0.8000

> <Gold.PLP.Chemscore.CHOScore>
0.0000

> <Gold.PLP.Chemscore.Metal>
0.0000

> <Gold.Chemscore.Hbonds>
donor molecule, donor type, donor heavy atom, donor atom, acceptor molecule, acceptor atom, score
      P1  H  7997  8010       L1    16  0.82

> <Gold.PLP.Chemscore.Internal.Correction>
0.0162

> <Gold.Rescore>
     Score         DG    S(hbond)    S(metal)    S(lipo)     H(rot)  DE(clash)    DE(int)     intcor
     13.48     -15.68       0.81        0.00     102.19       1.75       0.33       1.86       ----

> <Gold.Chemscore.Fitness>
13.4809

> <Gold.Chemscore.DG>
-15.6755

> <Gold.Chemscore.ZeroCoef>
-5.4800

> <Gold.Chemscore.Hbond>
0.8121

> <Gold.Chemscore.Metal>
0.0000

> <Gold.Chemscore.Lipo>
102.1920

> <Gold.Chemscore.Internal_Hbond>
0.0000

> <Gold.Chemscore.DEClash>
0.3339

> <Gold.Chemscore.DEInternal>
1.8607

> <Gold.Chemscore.Rot>
1.7474

> <Gold.Chemscore.Internal.Correction>
   9.000000E+99

> <Gold.Chemscore.Hbonds>
donor molecule, donor type, donor heavy atom, donor atom, acceptor molecule, acceptor atom, score
      P1  H  7997  8010       L1    16  0.80

> <Gold.Chemscore.Hbond.Weighted>
-2.7123

> <Gold.Chemscore.Metal.Weighted>
-0.0000

> <Gold.Chemscore.Lipo.Weighted>
-11.9565

> <Gold.Chemscore.Internal_Hbond.Weighted>
0.0000

> <Gold.Chemscore.DEClash.Weighted>
0.3339

> <Gold.Chemscore.DEInternal.Weighted>
1.8607

> <Gold.Chemscore.Rot.Weighted>
4.4733

> <Gold.Chemscore.Internal.Correction.Weighted>
   9.000000E+99

> <Gold.Protein.RotatedTorsions>
[ 6907 6896 6895 6894 ] final  142.55 input  -60.11 | X-H torsion
[ 7974 7965 7964 7962 ] final  -87.49 input  175.53 | X-H torsion
[ 8008 7997 7996 7995 ] final   33.11 input   59.86 | X-H torsion
[ 10167 10162 10161 10158 ] final  -20.96 input  -65.29 | X-H torsion
[ 10718 10713 10712 10709 ] final  134.65 input   66.30 | X-H torsion
[ 10763 10752 10751 10750 ] final  -25.13 input  -60.55 | X-H torsion
[ 11005 11000 10999 10996 ] final  140.64 input  -57.11 | X-H torsion

> <Gold.Protein.ActiveResidues>
 VAL166  LYS551  ARG553  GLY616  TRP617  ASP618  TYR619  PRO620  LYS621  CYS622 
 ASP623  PHE694  ASN695  SER759  ASP760  ASP761  ALA762  ILE779  LEU786  VAL792 
 PHE793  MET794  SER795  GLU796  ALA797  LYS798  CYS799  TRP800  GLU811  SER814 

> <Gold.Protein.RotatedAtoms>
  152.2174  133.4957  159.5142 H   0  0  0  0  0  0  0  0  0  0  0  0  # atno 6907 bound_to 6896
  150.7004  134.1388  159.4106 H   0  0  0  0  0  0  0  0  0  0  0  0  # atno 6908 bound_to 6896
  151.9308  135.0257  160.0580 H   0  0  0  0  0  0  0  0  0  0  0  0  # atno 6909 bound_to 6896
  145.4658  140.9560  143.1944 H   0  0  0  0  0  0  0  0  0  0  0  0  # atno 7974 bound_to 7965
  155.1333  140.3259  155.4469 H   0  0  0  0  0  0  0  0  0  0  0  0  # atno 8008 bound_to 7997
  156.2627  140.2006  156.6400 H   0  0  0  0  0  0  0  0  0  0  0  0  # atno 8009 bound_to 7997
  154.6596  140.0549  157.0034 H   0  0  0  0  0  0  0  0  0  0  0  0  # atno 8010 bound_to 7997
  140.7279  143.4673  151.0296 H   0  0  0  0  0  0  0  0  0  0  0  0  # atno 10167 bound_to 10162
  157.4651  131.1076  150.9873 H   0  0  0  0  0  0  0  0  0  0  0  0  # atno 10718 bound_to 10713
  153.6949  135.6959  153.5079 H   0  0  0  0  0  0  0  0  0  0  0  0  # atno 10763 bound_to 10752
  153.2385  135.4314  155.0672 H   0  0  0  0  0  0  0  0  0  0  0  0  # atno 10764 bound_to 10752
  154.8361  135.3502  154.6490 H   0  0  0  0  0  0  0  0  0  0  0  0  # atno 10765 bound_to 10752
  140.0342  134.9337  157.0721 H   0  0  0  0  0  0  0  0  0  0  0  0  # atno 11005 bound_to 11000
  144.7975  139.6205  143.7086 LP  0  0  0  0  0  0  0  0  0  0  0  0  # atno 17320 bound_to 7965
  146.2425  139.6031  142.9482 LP  0  0  0  0  0  0  0  0  0  0  0  0  # atno 17321 bound_to 7965
  139.8362  143.7625  152.3180 LP  0  0  0  0  0  0  0  0  0  0  0  0  # atno 17342 bound_to 10162
  139.7758  144.7461  151.0159 LP  0  0  0  0  0  0  0  0  0  0  0  0  # atno 17343 bound_to 10162
  157.0657  130.5843  149.5393 LP  0  0  0  0  0  0  0  0  0  0  0  0  # atno 17370 bound_to 10713
  156.0046  130.5131  150.7786 LP  0  0  0  0  0  0  0  0  0  0  0  0  # atno 17371 bound_to 10713
  140.4175  134.1916  155.7164 LP  0  0  0  0  0  0  0  0  0  0  0  0  # atno 17394 bound_to 11000
  141.1848  133.8336  157.1127 LP  0  0  0  0  0  0  0  0  0  0  0  0  # atno 17395 bound_to 11000

$$$$
