AV-unprocessed.smi:102|AV-procd|sdf|971|dock5
  -GOLD-   2262017523D 1   1.00000     0.00000
 Structure written by MMmdl.
 43 44  0  0  0  0  0  0  0  0  2 V2000
  152.4216  144.7808  158.6860 C   0  0  0  0  0  0  0  0  0  0  0  0
  151.8777  143.4810  159.2646 C   0  0  0  0  0  0  0  0  0  0  0  0
  151.3496  143.4428  160.3762 O   0  0  0  0  0  0  0  0  0  0  0  0
  152.0490  142.4402  158.4363 O   0  0  0  0  0  0  0  0  0  0  0  0
  151.6554  141.1429  158.8525 C   0  0  0  0  0  0  0  0  0  0  0  0
  150.3549  140.7485  158.1395 C   0  0  2  0  0  0  0  0  0  0  0  0
  149.8638  139.5037  158.6107 O   0  0  0  0  0  0  0  0  0  0  0  0
  148.9524  139.0207  157.6768 C   0  0  2  0  0  0  0  0  0  0  0  0
  149.0051  137.5089  157.7169 N   0  0  0  0  0  0  0  0  0  0  0  0
  149.4405  136.8019  156.6081 C   0  0  0  0  0  0  0  0  0  0  0  0
  149.5729  135.4605  156.6352 C   0  0  0  0  0  0  0  0  0  0  0  0
  149.9957  134.8071  155.5393 F   0  0  0  0  0  0  0  0  0  0  0  0
  149.2742  134.7312  157.8652 C   0  0  0  0  0  0  0  0  0  0  0  0
  149.3644  133.5044  157.8771 O   0  0  0  0  0  0  0  0  0  0  0  0
  148.9118  135.4566  158.9621 N   0  5  0  0  0  0  0  0  0  0  0  0
  148.7936  136.8171  158.9431 C   0  0  0  0  0  0  0  0  0  0  0  0
  148.5067  137.4726  159.9445 O   0  0  0  0  0  0  0  0  0  0  0  0
  149.3227  139.6040  156.2977 C   0  0  1  0  0  0  0  0  0  0  0  0
  148.2457  140.3580  155.7570 O   0  0  0  0  0  0  0  0  0  0  0  0
  148.4248  141.0787  154.6362 C   0  0  0  0  0  0  0  0  0  0  0  0
  147.1091  141.5578  154.0379 C   0  0  0  0  0  0  0  0  0  0  0  0
  149.5056  141.3460  154.1106 O   0  0  0  0  0  0  0  0  0  0  0  0
  150.4860  140.5348  156.6267 C   0  0  2  0  0  0  0  0  0  0  0  0
  151.7256  139.9156  156.2975 O   0  0  0  0  0  0  0  0  0  0  0  0
  151.8956  139.3256  155.1017 C   0  0  0  0  0  0  0  0  0  0  0  0
  153.1783  138.5075  155.0374 C   0  0  0  0  0  0  0  0  0  0  0  0
  151.1302  139.4007  154.1405 O   0  0  0  0  0  0  0  0  0  0  0  0
  152.0732  144.9162  157.6618 H   0  0  0  0  0  0  0  0  0  0  0  0
  153.5116  144.7664  158.6834 H   0  0  0  0  0  0  0  0  0  0  0  0
  152.0884  145.6329  159.2789 H   0  0  0  0  0  0  0  0  0  0  0  0
  152.4462  140.4376  158.5933 H   0  0  0  0  0  0  0  0  0  0  0  0
  151.5250  141.1083  159.9351 H   0  0  0  0  0  0  0  0  0  0  0  0
  149.5905  141.5079  158.3146 H   0  0  0  0  0  0  0  0  0  0  0  0
  147.9467  139.3261  157.9665 H   0  0  0  0  0  0  0  0  0  0  0  0
  149.6953  137.3252  155.6995 H   0  0  0  0  0  0  0  0  0  0  0  0
  149.6243  138.8289  155.5931 H   0  0  0  0  0  0  0  0  0  0  0  0
  146.5603  142.1597  154.7623 H   0  0  0  0  0  0  0  0  0  0  0  0
  146.4910  140.7062  153.7536 H   0  0  0  0  0  0  0  0  0  0  0  0
  147.2907  142.1649  153.1507 H   0  0  0  0  0  0  0  0  0  0  0  0
  150.4072  141.4898  156.1041 H   0  0  0  0  0  0  0  0  0  0  0  0
  154.0450  139.1499  155.1935 H   0  0  0  0  0  0  0  0  0  0  0  0
  153.2768  138.0232  154.0655 H   0  0  0  0  0  0  0  0  0  0  0  0
  153.1737  137.7370  155.8087 H   0  0  0  0  0  0  0  0  0  0  0  0
  1  2  1  0  0  0  0
  1 28  1  0  0  0  0
  1 29  1  0  0  0  0
  1 30  1  0  0  0  0
  2  3  2  0  0  0  0
  2  4  1  0  0  0  0
  4  5  1  0  0  0  0
  5  6  1  0  0  0  0
  5 31  1  0  0  0  0
  5 32  1  0  0  0  0
  6 23  1  0  0  0  0
  6  7  1  0  0  0  0
  6 33  1  0  0  0  0
  7  8  1  0  0  0  0
  8  9  1  0  0  0  0
  8 18  1  0  0  0  0
  8 34  1  0  0  0  0
  9 16  1  0  0  0  0
  9 10  1  0  0  0  0
 10 11  2  0  0  0  0
 10 35  1  0  0  0  0
 11 12  1  0  0  0  0
 11 13  1  0  0  0  0
 13 14  2  0  0  0  0
 13 15  1  0  0  0  0
 15 16  1  0  0  0  0
 16 17  2  0  0  0  0
 18 19  1  0  0  0  0
 18 23  1  0  0  0  0
 18 36  1  0  0  0  0
 19 20  1  0  0  0  0
 20 21  1  0  0  0  0
 20 22  2  0  0  0  0
 21 37  1  0  0  0  0
 21 38  1  0  0  0  0
 21 39  1  0  0  0  0
 23 24  1  0  0  0  0
 23 40  1  0  0  0  0
 24 25  1  0  0  0  0
 25 26  1  0  0  0  0
 25 27  2  0  0  0  0
 26 41  1  0  0  0  0
 26 42  1  0  0  0  0
 26 43  1  0  0  0  0
M  CHG  1  15  -1
M  END
> <s_m_source_file>
AV-unprocessed.smi

> <i_m_source_file_index>
102

> <i_lp_mmshare_version>
43012

> <i_f3d_flags>
0

> <s_epik_input>
W0NIM11DKD1PKU9bQ0gyXVtDQEBIXTFPW0NASF0oW0NAQEhdKE9DKD1PKVtDSDNdKVtDQEhdMU9DKD1PKVtDSDNdKW4yW2NIXWMoRiljKD1PKVtuSF1jMj1P

> <s_epik_cmdline>
J2VwaWtfcHl0aG9uJywgJy1waCcsICc3LjAnLCAnLXRuJywgJzgnLCAnLW1hJywgJzIwMCcsICctbWV0YWxfYmluZGluZycsICctaW1hZScsICc8aW5maWxlLm1hZT4nLCAnLW9tYWUnLCAnPG91dGZpbGUubWFlPic=

> <r_epik_Ionization_Penalty>
1.40304

> <r_epik_Ionization_Penalty_Charging>
1.43915e-08

> <r_epik_Ionization_Penalty_Neutral>
1.40304

> <r_epik_State_Penalty>
1.48536

> <r_epik_Charging_Adjusted_Penalty>
1.48536

> <i_epik_Tot_Q>
-1

> <i_epik_Tot_abs_Q>
1

> <r_epik_Metal_State_Penalty>
0.00663881

> <b_epik_Metal_Only>
0

> <s_epik_Chemistry_Notes>
This compound has an ester and may undergo hydrolysis at high or low pH. This compound contains an acetal/aminal-like group ( X-CH(R)-Y where X, Y are N, S, or O) that may be acid/base labile, releasing an aldehyde.

> <s_lp_Force_Field>
OPLS_2005

> <r_lp_Energy>
22.9576

> <b_lp_Chiralities_Consistent>
1

> <s_lp_Variant>
AV-unprocessed.smi:102-27

> <Gold.Version>
5.8.1

> <Gold.Id.Protein>
6NUR|6NUR_protein|mol2

> <Gold.PLP.Fitness>
43.5604

> <Gold.PLP.PLP>
-36.5829

> <Gold.PLP.part.hbond>
-6.6737

> <Gold.PLP.part.metal>
0.0000

> <Gold.PLP.part.buried>
-0.9094

> <Gold.PLP.part.nonpolar>
-28.3030

> <Gold.PLP.part.repulsive>
0.4843

> <Gold.PLP.ligand.clash>
0.0000

> <Gold.PLP.ligand.torsion>
0.7627

> <Gold.PLP.Chemscore.Hbond>
2.7640

> <Gold.PLP.Chemscore.CHOScore>
0.0000

> <Gold.PLP.Chemscore.Metal>
0.0000

> <Gold.Chemscore.Hbonds>
donor molecule, donor type, donor heavy atom, donor atom, acceptor molecule, acceptor atom, score
      P1  H  6896  6908       L1    14  0.40
      P1  H  6931  6943       L1    17  0.30
      P1  H  6934  6947       L1    17  0.20
      P1  H  7989  7998       L1    27  1.00
      P1  H  8011  8017       L1    22  0.61

> <Gold.PLP.Chemscore.Internal.Correction>
0.2108

> <Gold.Rescore>
     Score         DG    S(hbond)    S(metal)    S(lipo)     H(rot)  DE(clash)    DE(int)     intcor
      1.82      -8.62       2.22        0.00      50.94       4.00       0.31       6.49       ----

> <Gold.Chemscore.Fitness>
1.8164

> <Gold.Chemscore.DG>
-8.6164

> <Gold.Chemscore.ZeroCoef>
-5.4800

> <Gold.Chemscore.Hbond>
2.2168

> <Gold.Chemscore.Metal>
0.0000

> <Gold.Chemscore.Lipo>
50.9385

> <Gold.Chemscore.Internal_Hbond>
0.0000

> <Gold.Chemscore.DEClash>
0.3082

> <Gold.Chemscore.DEInternal>
6.4918

> <Gold.Chemscore.Rot>
3.9951

> <Gold.Chemscore.Internal.Correction>
   9.000000E+99

> <Gold.Chemscore.Hbonds>
donor molecule, donor type, donor heavy atom, donor atom, acceptor molecule, acceptor atom, score
      P1  H  6896  6908       L1    14  0.01
      P1  H  6931  6943       L1    17  0.30
      P1  H  6934  6947       L1    17  0.20
      P1  H  7989  7998       L1    27  0.25
      P1  H  8011  8017       L1    22  0.59

> <Gold.Chemscore.Hbond.Weighted>
-7.4040

> <Gold.Chemscore.Metal.Weighted>
-0.0000

> <Gold.Chemscore.Lipo.Weighted>
-5.9598

> <Gold.Chemscore.Internal_Hbond.Weighted>
0.0000

> <Gold.Chemscore.DEClash.Weighted>
0.3082

> <Gold.Chemscore.DEInternal.Weighted>
6.4918

> <Gold.Chemscore.Rot.Weighted>
10.2274

> <Gold.Chemscore.Internal.Correction.Weighted>
   9.000000E+99

> <Gold.Protein.RotatedTorsions>
[ 6907 6896 6895 6894 ] final  113.01 input  -60.11 | X-H torsion
[ 7974 7965 7964 7962 ] final -143.91 input  175.53 | X-H torsion
[ 8008 7997 7996 7995 ] final  138.78 input   59.86 | X-H torsion
[ 10167 10162 10161 10158 ] final   73.05 input  -65.29 | X-H torsion
[ 10718 10713 10712 10709 ] final  -23.71 input   66.30 | X-H torsion
[ 10763 10752 10751 10750 ] final -116.37 input  -60.55 | X-H torsion
[ 11005 11000 10999 10996 ] final   39.23 input  -57.11 | X-H torsion

> <Gold.Protein.ActiveResidues>
 VAL166  LYS551  ARG553  GLY616  TRP617  ASP618  TYR619  PRO620  LYS621  CYS622 
 ASP623  PHE694  ASN695  SER759  ASP760  ASP761  ALA762  ILE779  LEU786  VAL792 
 PHE793  MET794  SER795  GLU796  ALA797  LYS798  CYS799  TRP800  GLU811  SER814 

> <Gold.Protein.RotatedAtoms>
  152.4885  133.8435  159.7164 H   0  0  0  0  0  0  0  0  0  0  0  0  # atno 6907 bound_to 6896
  150.8992  133.7131  159.2890 H   0  0  0  0  0  0  0  0  0  0  0  0  # atno 6908 bound_to 6896
  151.4578  135.1039  159.9768 H   0  0  0  0  0  0  0  0  0  0  0  0  # atno 6909 bound_to 6896
  144.8335  140.5775  143.5499 H   0  0  0  0  0  0  0  0  0  0  0  0  # atno 7974 bound_to 7965
  156.2995  140.2384  156.4130 H   0  0  0  0  0  0  0  0  0  0  0  0  # atno 8008 bound_to 7997
  154.8424  140.0428  157.1570 H   0  0  0  0  0  0  0  0  0  0  0  0  # atno 8009 bound_to 7997
  154.9088  140.2987  155.5281 H   0  0  0  0  0  0  0  0  0  0  0  0  # atno 8010 bound_to 7997
  140.0286  144.5483  150.7525 H   0  0  0  0  0  0  0  0  0  0  0  0  # atno 10167 bound_to 10162
  156.4874  130.4559  149.6775 H   0  0  0  0  0  0  0  0  0  0  0  0  # atno 10718 bound_to 10713
  154.8517  135.4348  154.1811 H   0  0  0  0  0  0  0  0  0  0  0  0  # atno 10763 bound_to 10752
  153.2901  135.6961  153.7307 H   0  0  0  0  0  0  0  0  0  0  0  0  # atno 10764 bound_to 10752
  153.6477  135.3457  155.3065 H   0  0  0  0  0  0  0  0  0  0  0  0  # atno 10765 bound_to 10752
  140.2048  134.3826  155.8078 H   0  0  0  0  0  0  0  0  0  0  0  0  # atno 11005 bound_to 11000
  145.4845  139.1493  143.3744 LP  0  0  0  0  0  0  0  0  0  0  0  0  # atno 17320 bound_to 7965
  146.2636  140.4981  142.8843 LP  0  0  0  0  0  0  0  0  0  0  0  0  # atno 17321 bound_to 7965
  140.7312  143.2691  151.3946 LP  0  0  0  0  0  0  0  0  0  0  0  0  # atno 17342 bound_to 10162
  139.6091  144.1135  152.2280 LP  0  0  0  0  0  0  0  0  0  0  0  0  # atno 17343 bound_to 10162
  156.3460  130.7407  151.2359 LP  0  0  0  0  0  0  0  0  0  0  0  0  # atno 17370 bound_to 10713
  157.7477  131.0390  150.4531 LP  0  0  0  0  0  0  0  0  0  0  0  0  # atno 17371 bound_to 10713
  141.2227  133.7113  156.8319 LP  0  0  0  0  0  0  0  0  0  0  0  0  # atno 17394 bound_to 11000
  140.2014  134.8894  157.3173 LP  0  0  0  0  0  0  0  0  0  0  0  0  # atno 17395 bound_to 11000

$$$$
