AV-unprocessed.smi:621|AV-procd|sdf|3089|dock1
  -GOLD-   22720 0 13D 1   1.00000     0.00000
 Structure written by MMmdl.
 36 37  0  0  0  0  0  0  0  0  1 V2000
  150.6522  140.6766  156.4541 O   0  0  0  0  0  0  0  0  0  0  0  0
  150.1393  141.7509  156.1388 C   0  0  0  0  0  0  0  0  0  0  0  0
  149.1575  141.9087  155.2334 N   0  0  0  0  0  0  0  0  0  0  0  0
  148.5029  140.9104  154.4636 C   0  0  0  0  0  0  0  0  0  0  0  0
  147.5021  141.3907  153.5887 C   0  0  0  0  0  0  0  0  0  0  0  0
  146.7918  140.4804  152.7822 C   0  0  0  0  0  0  0  0  0  0  0  0
  147.1011  139.1115  152.8711 C   0  0  0  0  0  0  0  0  0  0  0  0
  148.1116  138.7171  153.7671 C   0  0  0  0  0  0  0  0  0  0  0  0
  148.7937  139.5876  154.5409 N   0  0  0  0  0  0  0  0  0  0  0  0
  150.4981  142.9282  156.6723 N   0  0  0  0  0  0  0  0  0  0  0  0
  151.5282  143.1230  157.6903 C   0  0  0  0  0  0  0  0  0  0  0  0
  151.3220  142.1117  158.8407 C   0  0  0  0  0  0  0  0  0  0  0  0
  152.5265  142.0227  159.7926 C   0  0  0  0  0  0  0  0  0  0  0  0
  152.5312  143.0316  160.9543 C   0  0  0  0  0  0  0  0  0  0  0  0
  152.0830  144.4653  160.6213 C   0  0  0  0  0  0  0  0  0  0  0  0
  152.4967  144.9804  159.2332 C   0  0  0  0  0  0  0  0  0  0  0  0
  151.4919  144.5980  158.1327 C   0  0  0  0  0  0  0  0  0  0  0  0
  148.8367  142.8532  155.0813 H   0  0  0  0  0  0  0  0  0  0  0  0
  147.2770  142.4460  153.5332 H   0  0  0  0  0  0  0  0  0  0  0  0
  146.0236  140.8276  152.1072 H   0  0  0  0  0  0  0  0  0  0  0  0
  146.5781  138.3831  152.2692 H   0  0  0  0  0  0  0  0  0  0  0  0
  148.3795  137.6755  153.8659 H   0  0  0  0  0  0  0  0  0  0  0  0
  150.0202  143.7575  156.3516 H   0  0  0  0  0  0  0  0  0  0  0  0
  152.5022  142.9385  157.2332 H   0  0  0  0  0  0  0  0  0  0  0  0
  150.4049  142.3231  159.3923 H   0  0  0  0  0  0  0  0  0  0  0  0
  151.1828  141.1211  158.4053 H   0  0  0  0  0  0  0  0  0  0  0  0
  152.5626  141.0213  160.2226 H   0  0  0  0  0  0  0  0  0  0  0  0
  153.4494  142.1186  159.2197 H   0  0  0  0  0  0  0  0  0  0  0  0
  151.8973  142.6556  161.7583 H   0  0  0  0  0  0  0  0  0  0  0  0
  153.5394  143.0616  161.3691 H   0  0  0  0  0  0  0  0  0  0  0  0
  151.0002  144.5419  160.7267 H   0  0  0  0  0  0  0  0  0  0  0  0
  152.4916  145.1298  161.3835 H   0  0  0  0  0  0  0  0  0  0  0  0
  152.5339  146.0694  159.2792 H   0  0  0  0  0  0  0  0  0  0  0  0
  153.5071  144.6600  158.9763 H   0  0  0  0  0  0  0  0  0  0  0  0
  151.6947  145.2196  157.2595 H   0  0  0  0  0  0  0  0  0  0  0  0
  150.4843  144.8657  158.4540 H   0  0  0  0  0  0  0  0  0  0  0  0
  1  2  2  0  0  0  0
  2  3  1  0  0  0  0
  2 10  1  0  0  0  0
  3  4  1  0  0  0  0
  3 18  1  0  0  0  0
  4  9  1  0  0  0  0
  4  5  2  0  0  0  0
  5  6  1  0  0  0  0
  5 19  1  0  0  0  0
  6  7  2  0  0  0  0
  6 20  1  0  0  0  0
  7  8  1  0  0  0  0
  7 21  1  0  0  0  0
  8  9  2  0  0  0  0
  8 22  1  0  0  0  0
 10 11  1  0  0  0  0
 10 23  1  0  0  0  0
 11 17  1  0  0  0  0
 11 12  1  0  0  0  0
 11 24  1  0  0  0  0
 12 13  1  0  0  0  0
 12 25  1  0  0  0  0
 12 26  1  0  0  0  0
 13 14  1  0  0  0  0
 13 27  1  0  0  0  0
 13 28  1  0  0  0  0
 14 15  1  0  0  0  0
 14 29  1  0  0  0  0
 14 30  1  0  0  0  0
 15 16  1  0  0  0  0
 15 31  1  0  0  0  0
 15 32  1  0  0  0  0
 16 17  1  0  0  0  0
 16 33  1  0  0  0  0
 16 34  1  0  0  0  0
 17 35  1  0  0  0  0
 17 36  1  0  0  0  0
M  END
> <s_m_source_file>
AV-unprocessed.smi

> <i_m_source_file_index>
621

> <i_lp_mmshare_version>
43012

> <i_f3d_flags>
0

> <s_epik_input>
bjFbY0hdW2NIXVtjSF1bY0hdYzFbTkhdQyg9TylbTkhdW0NIXTJbQ0gyXVtDSDJdW0NIMl1bQ0gyXVtDSDJdW0NIMl0y

> <s_epik_cmdline>
J2VwaWtfcHl0aG9uJywgJy1waCcsICc3LjAnLCAnLXRuJywgJzgnLCAnLW1hJywgJzIwMCcsICctbWV0YWxfYmluZGluZycsICctaW1hZScsICc8aW5maWxlLm1hZT4nLCAnLW9tYWUnLCAnPG91dGZpbGUubWFlPic=

> <r_lp_tautomer_probability>
1

> <r_epik_Ionization_Penalty>
5.35129e-05

> <r_epik_Ionization_Penalty_Charging>
0

> <r_epik_Ionization_Penalty_Neutral>
5.35129e-05

> <r_epik_State_Penalty>
-0

> <r_epik_Charging_Adjusted_Penalty>
0

> <i_epik_Tot_Q>
0

> <i_epik_Tot_abs_Q>
0

> <r_epik_Metal_State_Penalty>
-0

> <b_epik_Metal_Only>
0

> <s_lp_Force_Field>
OPLS_2005

> <r_lp_Energy>
17.2973

> <b_lp_Chiralities_Consistent>
1

> <s_lp_Variant>
AV-unprocessed.smi:621-1

> <Gold.Version>
5.8.1

> <Gold.Id.Protein>
6NUR|6NUR_protein|mol2

> <Gold.PLP.Fitness>
47.6019

> <Gold.PLP.PLP>
-39.3194

> <Gold.PLP.part.hbond>
-2.0000

> <Gold.PLP.part.metal>
0.0000

> <Gold.PLP.part.buried>
-3.5090

> <Gold.PLP.part.nonpolar>
-33.2771

> <Gold.PLP.part.repulsive>
0.3698

> <Gold.PLP.ligand.clash>
0.0000

> <Gold.PLP.ligand.torsion>
0.0866

> <Gold.PLP.Chemscore.Hbond>
1.9760

> <Gold.PLP.Chemscore.CHOScore>
0.8379

> <Gold.PLP.Chemscore.Metal>
0.0000

> <Gold.Chemscore.Hbonds>
donor molecule, donor type, donor heavy atom, donor atom, acceptor molecule, acceptor atom, score
      L1  H     3    18       P1  8028  0.98
      L1  H    10    23       P1  8028  1.00
      L1  C     8    22       P1  7948  0.84

> <Gold.PLP.Chemscore.Internal.Correction>
0.0141

> <Gold.Rescore>
     Score         DG    S(hbond)    S(metal)    S(lipo)     H(rot)  DE(clash)    DE(int)     intcor
     19.19     -22.03       1.92        0.00     108.38       1.00       0.22       2.62       ----

> <Gold.Chemscore.Fitness>
19.1904

> <Gold.Chemscore.DG>
-22.0276

> <Gold.Chemscore.ZeroCoef>
-5.4800

> <Gold.Chemscore.Hbond>
1.9242

> <Gold.Chemscore.Metal>
0.0000

> <Gold.Chemscore.Lipo>
108.3834

> <Gold.Chemscore.Internal_Hbond>
0.0000

> <Gold.Chemscore.DEClash>
0.2212

> <Gold.Chemscore.DEInternal>
2.6160

> <Gold.Chemscore.Rot>
1.0000

> <Gold.Chemscore.Internal.Correction>
   9.000000E+99

> <Gold.Chemscore.Hbonds>
donor molecule, donor type, donor heavy atom, donor atom, acceptor molecule, acceptor atom, score
      L1  H     3    18       P1  8028  0.91
      L1  H    10    23       P1  8028  0.99

> <Gold.Chemscore.Hbond.Weighted>
-6.4268

> <Gold.Chemscore.Metal.Weighted>
-0.0000

> <Gold.Chemscore.Lipo.Weighted>
-12.6809

> <Gold.Chemscore.Internal_Hbond.Weighted>
0.0000

> <Gold.Chemscore.DEClash.Weighted>
0.2212

> <Gold.Chemscore.DEInternal.Weighted>
2.6160

> <Gold.Chemscore.Rot.Weighted>
2.5600

> <Gold.Chemscore.Internal.Correction.Weighted>
   9.000000E+99

> <Gold.Protein.RotatedTorsions>
[ 6907 6896 6895 6894 ] final  117.28 input  -60.11 | X-H torsion
[ 7974 7965 7964 7962 ] final  -55.58 input  175.53 | X-H torsion
[ 8008 7997 7996 7995 ] final -111.03 input   59.86 | X-H torsion
[ 10167 10162 10161 10158 ] final -172.99 input  -65.29 | X-H torsion
[ 10718 10713 10712 10709 ] final  137.96 input   66.30 | X-H torsion
[ 10763 10752 10751 10750 ] final  -98.69 input  -60.55 | X-H torsion
[ 11005 11000 10999 10996 ] final -166.85 input  -57.11 | X-H torsion

> <Gold.Protein.ActiveResidues>
 VAL166  LYS551  ARG553  GLY616  TRP617  ASP618  TYR619  PRO620  LYS621  CYS622 
 ASP623  PHE694  ASN695  SER759  ASP760  ASP761  ALA762  ILE779  LEU786  VAL792 
 PHE793  MET794  SER795  GLU796  ALA797  LYS798  CYS799  TRP800  GLU811  SER814 

> <Gold.Protein.RotatedAtoms>
  152.4623  133.7847  159.6869 H   0  0  0  0  0  0  0  0  0  0  0  0  # atno 6907 bound_to 6896
  150.8571  133.7688  159.3011 H   0  0  0  0  0  0  0  0  0  0  0  0  # atno 6908 bound_to 6896
  151.5265  135.1071  159.9944 H   0  0  0  0  0  0  0  0  0  0  0  0  # atno 6909 bound_to 6896
  145.8725  140.8205  142.9881 H   0  0  0  0  0  0  0  0  0  0  0  0  # atno 7974 bound_to 7965
  154.9836  140.0396  157.2288 H   0  0  0  0  0  0  0  0  0  0  0  0  # atno 8008 bound_to 7997
  154.7692  140.2798  155.6129 H   0  0  0  0  0  0  0  0  0  0  0  0  # atno 8009 bound_to 7997
  156.2918  140.2613  156.2490 H   0  0  0  0  0  0  0  0  0  0  0  0  # atno 8010 bound_to 7997
  139.5713  144.1634  152.1388 H   0  0  0  0  0  0  0  0  0  0  0  0  # atno 10167 bound_to 10162
  157.4305  131.1048  151.0255 H   0  0  0  0  0  0  0  0  0  0  0  0  # atno 10718 bound_to 10713
  154.7436  135.5000  153.9164 H   0  0  0  0  0  0  0  0  0  0  0  0  # atno 10763 bound_to 10752
  153.1068  135.6699  153.9580 H   0  0  0  0  0  0  0  0  0  0  0  0  # atno 10764 bound_to 10752
  153.9350  135.3074  155.3423 H   0  0  0  0  0  0  0  0  0  0  0  0  # atno 10765 bound_to 10752
  140.5598  134.5345  157.5141 H   0  0  0  0  0  0  0  0  0  0  0  0  # atno 11005 bound_to 11000
  144.6726  140.1261  143.7447 LP  0  0  0  0  0  0  0  0  0  0  0  0  # atno 17320 bound_to 7965
  145.9120  139.2492  143.1432 LP  0  0  0  0  0  0  0  0  0  0  0  0  # atno 17321 bound_to 7965
  140.1168  144.5409  150.6889 LP  0  0  0  0  0  0  0  0  0  0  0  0  # atno 17342 bound_to 10162
  140.6998  143.2427  151.4898 LP  0  0  0  0  0  0  0  0  0  0  0  0  # atno 17343 bound_to 10162
  157.1153  130.6039  149.5492 LP  0  0  0  0  0  0  0  0  0  0  0  0  # atno 17370 bound_to 10713
  155.9911  130.4965  150.7287 LP  0  0  0  0  0  0  0  0  0  0  0  0  # atno 17371 bound_to 10713
  139.9413  134.7781  156.0671 LP  0  0  0  0  0  0  0  0  0  0  0  0  # atno 17394 bound_to 11000
  141.1121  133.6639  156.3005 LP  0  0  0  0  0  0  0  0  0  0  0  0  # atno 17395 bound_to 11000

$$$$
