AV-unprocessed.smi:1108|AV-procd|sdf|4788|dock2
  -GOLD-   22720 3333D 1   1.00000     0.00000
 Structure written by MMmdl.
 31 32  0  0  0  0  0  0  0  0  1 V2000
  148.5425  140.4808  157.0522 C   0  0  0  0  0  0  0  0  0  0  0  0
  149.8419  140.8251  156.3114 C   0  0  1  0  0  0  0  0  0  0  0  0
  149.7196  140.5328  154.8001 C   0  0  0  0  0  0  0  0  0  0  0  0
  148.4204  140.8929  154.2602 N   0  0  0  0  0  0  0  0  0  0  0  0
  147.7488  142.0922  154.3720 C   0  0  0  0  0  0  0  0  0  0  0  0
  146.5743  141.9652  153.6875 C   0  0  0  0  0  0  0  0  0  0  0  0
  146.6158  140.6325  153.1903 C   0  0  0  0  0  0  0  0  0  0  0  0
  147.7195  139.9914  153.5391 N   0  0  0  0  0  0  0  0  0  0  0  0
  150.1632  142.2330  156.5452 N   0  0  0  0  0  0  0  0  0  0  0  0
  151.1455  142.6895  157.3363 C   0  0  0  0  0  0  0  0  0  0  0  0
  151.8982  141.9682  157.9911 O   0  0  0  0  0  0  0  0  0  0  0  0
  151.2180  144.0267  157.3140 N   0  0  0  0  0  0  0  0  0  0  0  0
  152.1711  144.8131  158.0283 C   0  0  0  0  0  0  0  0  0  0  0  0
  152.5380  144.3719  159.4287 C   0  0  0  0  0  0  0  0  0  0  0  0
  151.6814  145.5917  159.2297 C   0  0  0  0  0  0  0  0  0  0  0  0
  148.2885  139.4276  156.9282 H   0  0  0  0  0  0  0  0  0  0  0  0
  147.7037  141.0709  156.6814 H   0  0  0  0  0  0  0  0  0  0  0  0
  148.6378  140.6710  158.1217 H   0  0  0  0  0  0  0  0  0  0  0  0
  150.6266  140.1916  156.7294 H   0  0  0  0  0  0  0  0  0  0  0  0
  150.4783  141.0887  154.2473 H   0  0  0  0  0  0  0  0  0  0  0  0
  149.9012  139.4761  154.5987 H   0  0  0  0  0  0  0  0  0  0  0  0
  148.1618  142.9286  154.9165 H   0  0  0  0  0  0  0  0  0  0  0  0
  145.8039  142.7108  153.5602 H   0  0  0  0  0  0  0  0  0  0  0  0
  145.8814  140.1149  152.5910 H   0  0  0  0  0  0  0  0  0  0  0  0
  149.6011  142.9113  156.0526 H   0  0  0  0  0  0  0  0  0  0  0  0
  150.5531  144.5281  156.7436 H   0  0  0  0  0  0  0  0  0  0  0  0
  152.9693  145.2770  157.4507 H   0  0  0  0  0  0  0  0  0  0  0  0
  152.0566  143.4797  159.8249 H   0  0  0  0  0  0  0  0  0  0  0  0
  153.5664  144.5266  159.7489 H   0  0  0  0  0  0  0  0  0  0  0  0
  152.1370  146.5622  159.4164 H   0  0  0  0  0  0  0  0  0  0  0  0
  150.6277  145.5147  159.4914 H   0  0  0  0  0  0  0  0  0  0  0  0
  1  2  1  0  0  0  0
  1 16  1  0  0  0  0
  1 17  1  0  0  0  0
  1 18  1  0  0  0  0
  2  3  1  0  0  0  0
  2  9  1  0  0  0  0
  2 19  1  0  0  0  0
  3  4  1  0  0  0  0
  3 20  1  0  0  0  0
  3 21  1  0  0  0  0
  4  8  1  0  0  0  0
  4  5  1  0  0  0  0
  5  6  2  0  0  0  0
  5 22  1  0  0  0  0
  6  7  1  0  0  0  0
  6 23  1  0  0  0  0
  7  8  2  0  0  0  0
  7 24  1  0  0  0  0
  9 10  1  0  0  0  0
  9 25  1  0  0  0  0
 10 11  2  0  0  0  0
 10 12  1  0  0  0  0
 12 13  1  0  0  0  0
 12 26  1  0  0  0  0
 13 15  1  0  0  0  0
 13 14  1  0  0  0  0
 13 27  1  0  0  0  0
 14 15  1  0  0  0  0
 14 28  1  0  0  0  0
 14 29  1  0  0  0  0
 15 30  1  0  0  0  0
 15 31  1  0  0  0  0
M  END
> <s_m_source_file>
AV-unprocessed.smi

> <i_m_source_file_index>
1108

> <i_lp_mmshare_version>
43012

> <i_f3d_flags>
0

> <s_epik_input>
W0NIMl0xW0NIMl1bQ0hdMVtOSF1DKD1PKVtOSF1bQ0BIXShbQ0gzXSlbQ0gyXW4yW2NIXVtjSF1bY0hdbjI=

> <s_epik_cmdline>
J2VwaWtfcHl0aG9uJywgJy1waCcsICc3LjAnLCAnLXRuJywgJzgnLCAnLW1hJywgJzIwMCcsICctbWV0YWxfYmluZGluZycsICctaW1hZScsICc8aW5maWxlLm1hZT4nLCAnLW9tYWUnLCAnPG91dGZpbGUubWFlPic=

> <r_lp_tautomer_probability>
1

> <r_epik_Ionization_Penalty>
7.55353e-05

> <r_epik_Ionization_Penalty_Charging>
0

> <r_epik_Ionization_Penalty_Neutral>
7.55353e-05

> <r_epik_State_Penalty>
-0

> <r_epik_Charging_Adjusted_Penalty>
0

> <i_epik_Tot_Q>
0

> <i_epik_Tot_abs_Q>
0

> <r_epik_Metal_State_Penalty>
-0

> <b_epik_Metal_Only>
0

> <s_lp_Force_Field>
OPLS_2005

> <r_lp_Energy>
13.7301

> <b_lp_Chiralities_Consistent>
1

> <s_lp_Variant>
AV-unprocessed.smi:1108-2

> <Gold.Version>
5.8.1

> <Gold.Id.Protein>
6NUR|6NUR_protein|mol2

> <Gold.PLP.Fitness>
43.3831

> <Gold.PLP.PLP>
-32.5938

> <Gold.PLP.part.hbond>
-2.0000

> <Gold.PLP.part.metal>
0.0000

> <Gold.PLP.part.buried>
-1.6985

> <Gold.PLP.part.nonpolar>
-30.4577

> <Gold.PLP.part.repulsive>
1.2296

> <Gold.PLP.ligand.clash>
0.0000

> <Gold.PLP.ligand.torsion>
0.6250

> <Gold.PLP.Chemscore.Hbond>
2.0000

> <Gold.PLP.Chemscore.CHOScore>
1.9937

> <Gold.PLP.Chemscore.Metal>
0.0000

> <Gold.Chemscore.Hbonds>
donor molecule, donor type, donor heavy atom, donor atom, acceptor molecule, acceptor atom, score
      L1  H     9    25       P1  8028  1.00
      L1  H    12    26       P1  8028  1.00
      L1  C     5    22       P1  8028  1.00
      L1  C     7    24       P1 10175  0.97

> <Gold.PLP.Chemscore.Internal.Correction>
0.0582

> <Gold.Rescore>
     Score         DG    S(hbond)    S(metal)    S(lipo)     H(rot)  DE(clash)    DE(int)     intcor
     11.83     -14.15       1.28        0.00      74.97       1.71       1.98       0.34       ----

> <Gold.Chemscore.Fitness>
11.8277

> <Gold.Chemscore.DG>
-14.1482

> <Gold.Chemscore.ZeroCoef>
-5.4800

> <Gold.Chemscore.Hbond>
1.2778

> <Gold.Chemscore.Metal>
0.0000

> <Gold.Chemscore.Lipo>
74.9702

> <Gold.Chemscore.Internal_Hbond>
0.0000

> <Gold.Chemscore.DEClash>
1.9776

> <Gold.Chemscore.DEInternal>
0.3429

> <Gold.Chemscore.Rot>
1.7075

> <Gold.Chemscore.Internal.Correction>
   9.000000E+99

> <Gold.Chemscore.Hbonds>
donor molecule, donor type, donor heavy atom, donor atom, acceptor molecule, acceptor atom, score
      L1  H     9    25       P1  8028  0.96
      L1  H    12    26       P1  8028  0.91

> <Gold.Chemscore.Hbond.Weighted>
-4.2680

> <Gold.Chemscore.Metal.Weighted>
-0.0000

> <Gold.Chemscore.Lipo.Weighted>
-8.7715

> <Gold.Chemscore.Internal_Hbond.Weighted>
0.0000

> <Gold.Chemscore.DEClash.Weighted>
1.9776

> <Gold.Chemscore.DEInternal.Weighted>
0.3429

> <Gold.Chemscore.Rot.Weighted>
4.3713

> <Gold.Chemscore.Internal.Correction.Weighted>
   9.000000E+99

> <Gold.Protein.RotatedTorsions>
[ 6907 6896 6895 6894 ] final  -89.21 input  -60.11 | X-H torsion
[ 7974 7965 7964 7962 ] final   73.06 input  175.53 | X-H torsion
[ 8008 7997 7996 7995 ] final -113.89 input   59.86 | X-H torsion
[ 10167 10162 10161 10158 ] final -124.22 input  -65.29 | X-H torsion
[ 10718 10713 10712 10709 ] final  109.52 input   66.30 | X-H torsion
[ 10763 10752 10751 10750 ] final  -91.78 input  -60.55 | X-H torsion
[ 11005 11000 10999 10996 ] final   85.89 input  -57.11 | X-H torsion

> <Gold.Protein.ActiveResidues>
 VAL166  LYS551  ARG553  GLY616  TRP617  ASP618  TYR619  PRO620  LYS621  CYS622 
 ASP623  PHE694  ASN695  SER759  ASP760  ASP761  ALA762  ILE779  LEU786  VAL792 
 PHE793  MET794  SER795  GLU796  ALA797  LYS798  CYS799  TRP800  GLU811  SER814 

> <Gold.Protein.RotatedAtoms>
  150.6872  134.2622  159.4553 H   0  0  0  0  0  0  0  0  0  0  0  0  # atno 6907 bound_to 6896
  152.0551  134.9627  160.0584 H   0  0  0  0  0  0  0  0  0  0  0  0  # atno 6908 bound_to 6896
  152.1076  133.4248  159.4653 H   0  0  0  0  0  0  0  0  0  0  0  0  # atno 6909 bound_to 6896
  145.7456  139.2739  143.1461 H   0  0  0  0  0  0  0  0  0  0  0  0  # atno 7974 bound_to 7965
  155.0277  140.0393  157.2462 H   0  0  0  0  0  0  0  0  0  0  0  0  # atno 8008 bound_to 7997
  154.7323  140.2733  155.6422 H   0  0  0  0  0  0  0  0  0  0  0  0  # atno 8009 bound_to 7997
  156.2844  140.2681  156.2027 H   0  0  0  0  0  0  0  0  0  0  0  0  # atno 8010 bound_to 7997
  139.9951  143.5600  152.2326 H   0  0  0  0  0  0  0  0  0  0  0  0  # atno 10167 bound_to 10162
  157.6537  131.0915  150.6466 H   0  0  0  0  0  0  0  0  0  0  0  0  # atno 10718 bound_to 10713
  154.6795  135.5255  153.8244 H   0  0  0  0  0  0  0  0  0  0  0  0  # atno 10763 bound_to 10752
  153.0555  135.6549  154.0598 H   0  0  0  0  0  0  0  0  0  0  0  0  # atno 10764 bound_to 10752
  154.0487  135.2971  155.3323 H   0  0  0  0  0  0  0  0  0  0  0  0  # atno 10765 bound_to 10752
  139.8959  134.8317  156.2644 H   0  0  0  0  0  0  0  0  0  0  0  0  # atno 11005 bound_to 11000
  146.0406  140.8169  142.9831 LP  0  0  0  0  0  0  0  0  0  0  0  0  # atno 17320 bound_to 7965
  144.6861  140.2904  143.7279 LP  0  0  0  0  0  0  0  0  0  0  0  0  # atno 17321 bound_to 7965
  139.6312  144.7644  151.2533 LP  0  0  0  0  0  0  0  0  0  0  0  0  # atno 17342 bound_to 10162
  140.7440  143.6476  150.8277 LP  0  0  0  0  0  0  0  0  0  0  0  0  # atno 17343 bound_to 10162
  156.6775  130.4557  149.5638 LP  0  0  0  0  0  0  0  0  0  0  0  0  # atno 17370 bound_to 10713
  156.1953  130.6586  151.1107 LP  0  0  0  0  0  0  0  0  0  0  0  0  # atno 17371 bound_to 10713
  141.0141  133.7078  156.1160 LP  0  0  0  0  0  0  0  0  0  0  0  0  # atno 17394 bound_to 11000
  140.7326  134.4238  157.5564 LP  0  0  0  0  0  0  0  0  0  0  0  0  # atno 17395 bound_to 11000

$$$$
