AV-unprocessed.smi:2073|AV-procd|sdf|8450|dock10
  -GOLD-   2272011143D 1   1.00000     0.00000
 Structure written by MMmdl.
 28 28  0  0  0  0  0  0  0  0  1 V2000
  152.8272  144.7812  157.9830 C   0  0  0  0  0  0  0  0  0  0  0  0
  151.3947  144.2293  158.0742 C   0  0  0  0  0  0  0  0  0  0  0  0
  150.8906  144.2244  159.5266 C   0  0  0  0  0  0  0  0  0  0  0  0
  151.3142  142.8222  157.4663 C   0  0  0  0  0  0  0  0  0  0  0  0
  151.9977  141.9141  157.9413 O   0  0  0  0  0  0  0  0  0  0  0  0
  150.4738  142.6797  156.4237 N   0  0  0  0  0  0  0  0  0  0  0  0
  150.2060  141.5118  155.6630 C   0  0  0  0  0  0  0  0  0  0  0  0
  150.9980  140.4344  155.6331 N   0  0  0  0  0  0  0  0  0  0  0  0
  150.5022  139.4343  154.7897 C   0  0  0  0  0  0  0  0  0  0  0  0
  151.2628  138.1510  154.6231 C   0  0  0  0  0  0  0  0  0  0  0  0
  152.5694  138.2014  155.4173 C   0  0  0  0  0  0  0  0  0  0  0  0
  152.6967  137.3472  156.4367 N   0  0  0  0  0  0  0  0  0  0  0  0
  153.4540  138.9987  155.1130 O   0  0  0  0  0  0  0  0  0  0  0  0
  149.3112  139.7716  154.1929 C   0  0  0  0  0  0  0  0  0  0  0  0
  148.7727  141.3632  154.6582 S   0  0  0  0  0  0  0  0  0  0  0  0
  153.1902  144.7762  156.9543 H   0  0  0  0  0  0  0  0  0  0  0  0
  153.5232  144.1955  158.5852 H   0  0  0  0  0  0  0  0  0  0  0  0
  152.8708  145.8109  158.3387 H   0  0  0  0  0  0  0  0  0  0  0  0
  150.7456  144.8912  157.4982 H   0  0  0  0  0  0  0  0  0  0  0  0
  149.8770  143.8269  159.5939 H   0  0  0  0  0  0  0  0  0  0  0  0
  150.8723  145.2352  159.9346 H   0  0  0  0  0  0  0  0  0  0  0  0
  151.5292  143.6201  160.1723 H   0  0  0  0  0  0  0  0  0  0  0  0
  149.9736  143.5083  156.1367 H   0  0  0  0  0  0  0  0  0  0  0  0
  150.6669  137.2993  154.9547 H   0  0  0  0  0  0  0  0  0  0  0  0
  151.4907  137.9739  153.5712 H   0  0  0  0  0  0  0  0  0  0  0  0
  153.5467  137.3381  156.9825 H   0  0  0  0  0  0  0  0  0  0  0  0
  151.9469  136.7064  156.6519 H   0  0  0  0  0  0  0  0  0  0  0  0
  148.7224  139.1819  153.5061 H   0  0  0  0  0  0  0  0  0  0  0  0
  1  2  1  0  0  0  0
  1 16  1  0  0  0  0
  1 17  1  0  0  0  0
  1 18  1  0  0  0  0
  2  3  1  0  0  0  0
  2  4  1  0  0  0  0
  2 19  1  0  0  0  0
  3 20  1  0  0  0  0
  3 21  1  0  0  0  0
  3 22  1  0  0  0  0
  4  5  2  0  0  0  0
  4  6  1  0  0  0  0
  6  7  1  0  0  0  0
  6 23  1  0  0  0  0
  7 15  1  0  0  0  0
  7  8  2  0  0  0  0
  8  9  1  0  0  0  0
  9 10  1  0  0  0  0
  9 14  2  0  0  0  0
 10 11  1  0  0  0  0
 10 24  1  0  0  0  0
 10 25  1  0  0  0  0
 11 12  1  0  0  0  0
 11 13  2  0  0  0  0
 12 26  1  0  0  0  0
 12 27  1  0  0  0  0
 14 15  1  0  0  0  0
 14 28  1  0  0  0  0
M  END
> <s_m_source_file>
AV-unprocessed.smi

> <i_m_source_file_index>
2073

> <i_lp_mmshare_version>
43012

> <i_f3d_flags>
0

> <s_epik_input>
W0NIM11bQ0hdKFtDSDNdKUMoPU8pW05IXWMxbmMoW2NIXXMxKVtDSDJdQyg9TylbTkgyXQ==

> <s_epik_cmdline>
J2VwaWtfcHl0aG9uJywgJy1waCcsICc3LjAnLCAnLXRuJywgJzgnLCAnLW1hJywgJzIwMCcsICctbWV0YWxfYmluZGluZycsICctaW1hZScsICc8aW5maWxlLm1hZT4nLCAnLW9tYWUnLCAnPG91dGZpbGUubWFlPic=

> <r_lp_tautomer_probability>
1

> <r_epik_Ionization_Penalty>
0.000158353

> <r_epik_Ionization_Penalty_Charging>
0

> <r_epik_Ionization_Penalty_Neutral>
0.000158353

> <r_epik_State_Penalty>
-0

> <r_epik_Charging_Adjusted_Penalty>
0

> <i_epik_Tot_Q>
0

> <i_epik_Tot_abs_Q>
0

> <r_epik_Metal_State_Penalty>
0.0986865

> <b_epik_Metal_Only>
0

> <s_lp_Force_Field>
OPLS_2005

> <r_lp_Energy>
2.86857

> <b_lp_Chiralities_Consistent>
1

> <s_lp_Variant>
AV-unprocessed.smi:2073-1

> <Gold.Version>
5.8.1

> <Gold.Id.Protein>
6NUR|6NUR_protein|mol2

> <Gold.PLP.Fitness>
41.0498

> <Gold.PLP.PLP>
-33.7085

> <Gold.PLP.part.hbond>
-2.5508

> <Gold.PLP.part.metal>
0.0000

> <Gold.PLP.part.buried>
-2.8789

> <Gold.PLP.part.nonpolar>
-28.6268

> <Gold.PLP.part.repulsive>
0.2610

> <Gold.PLP.ligand.clash>
0.0000

> <Gold.PLP.ligand.torsion>
0.1207

> <Gold.PLP.Chemscore.Hbond>
2.0000

> <Gold.PLP.Chemscore.CHOScore>
0.5219

> <Gold.PLP.Chemscore.Metal>
0.0000

> <Gold.Chemscore.Hbonds>
donor molecule, donor type, donor heavy atom, donor atom, acceptor molecule, acceptor atom, score
      L1  H     6    23       P1  8028  1.00
      P1  H  7997  8009       L1    13  1.00
      L1  C    14    28       P1  7957  0.32

> <Gold.PLP.Chemscore.Internal.Correction>
0.0171

> <Gold.Rescore>
     Score         DG    S(hbond)    S(metal)    S(lipo)     H(rot)  DE(clash)    DE(int)     intcor
     12.10     -14.99       1.95        0.00      67.75       1.93       0.25       2.64       ----

> <Gold.Chemscore.Fitness>
12.0950

> <Gold.Chemscore.DG>
-14.9853

> <Gold.Chemscore.ZeroCoef>
-5.4800

> <Gold.Chemscore.Hbond>
1.9537

> <Gold.Chemscore.Metal>
0.0000

> <Gold.Chemscore.Lipo>
67.7493

> <Gold.Chemscore.Internal_Hbond>
0.0000

> <Gold.Chemscore.DEClash>
0.2520

> <Gold.Chemscore.DEInternal>
2.6383

> <Gold.Chemscore.Rot>
1.9323

> <Gold.Chemscore.Internal.Correction>
   9.000000E+99

> <Gold.Chemscore.Hbonds>
donor molecule, donor type, donor heavy atom, donor atom, acceptor molecule, acceptor atom, score
      L1  H     6    23       P1  8028  1.00
      P1  H  7997  8009       L1    13  0.98

> <Gold.Chemscore.Hbond.Weighted>
-6.5254

> <Gold.Chemscore.Metal.Weighted>
-0.0000

> <Gold.Chemscore.Lipo.Weighted>
-7.9267

> <Gold.Chemscore.Internal_Hbond.Weighted>
0.0000

> <Gold.Chemscore.DEClash.Weighted>
0.2520

> <Gold.Chemscore.DEInternal.Weighted>
2.6383

> <Gold.Chemscore.Rot.Weighted>
4.9468

> <Gold.Chemscore.Internal.Correction.Weighted>
   9.000000E+99

> <Gold.Protein.RotatedTorsions>
[ 6907 6896 6895 6894 ] final   39.06 input  -60.11 | X-H torsion
[ 7974 7965 7964 7962 ] final -103.47 input  175.53 | X-H torsion
[ 8008 7997 7996 7995 ] final -132.27 input   59.86 | X-H torsion
[ 10167 10162 10161 10158 ] final  177.68 input  -65.29 | X-H torsion
[ 10718 10713 10712 10709 ] final  -53.78 input   66.30 | X-H torsion
[ 10763 10752 10751 10750 ] final  151.08 input  -60.55 | X-H torsion
[ 11005 11000 10999 10996 ] final  -91.10 input  -57.11 | X-H torsion

> <Gold.Protein.ActiveResidues>
 VAL166  LYS551  ARG553  GLY616  TRP617  ASP618  TYR619  PRO620  LYS621  CYS622 
 ASP623  PHE694  ASN695  SER759  ASP760  ASP761  ALA762  ILE779  LEU786  VAL792 
 PHE793  MET794  SER795  GLU796  ALA797  LYS798  CYS799  TRP800  GLU811  SER814 

> <Gold.Protein.RotatedAtoms>
  152.1647  134.8884  160.0538 H   0  0  0  0  0  0  0  0  0  0  0  0  # atno 6907 bound_to 6896
  151.9866  133.3771  159.4136 H   0  0  0  0  0  0  0  0  0  0  0  0  # atno 6908 bound_to 6896
  150.6893  134.3904  159.5117 H   0  0  0  0  0  0  0  0  0  0  0  0  # atno 6909 bound_to 6896
  145.2555  140.9252  143.3070 H   0  0  0  0  0  0  0  0  0  0  0  0  # atno 7974 bound_to 7965
  155.3262  140.0464  157.3041 H   0  0  0  0  0  0  0  0  0  0  0  0  # atno 8008 bound_to 7997
  154.5353  140.2270  155.8699 H   0  0  0  0  0  0  0  0  0  0  0  0  # atno 8009 bound_to 7997
  156.1829  140.3069  155.9189 H   0  0  0  0  0  0  0  0  0  0  0  0  # atno 8010 bound_to 7997
  139.5263  144.2770  152.0579 H   0  0  0  0  0  0  0  0  0  0  0  0  # atno 10167 bound_to 10162
  156.1506  130.4151  149.9951 H   0  0  0  0  0  0  0  0  0  0  0  0  # atno 10718 bound_to 10713
  154.0980  135.2847  155.3257 H   0  0  0  0  0  0  0  0  0  0  0  0  # atno 10763 bound_to 10752
  154.6575  135.5347  153.7979 H   0  0  0  0  0  0  0  0  0  0  0  0  # atno 10764 bound_to 10752
  153.0389  135.6525  154.1145 H   0  0  0  0  0  0  0  0  0  0  0  0  # atno 10765 bound_to 10752
  141.1552  133.7734  156.9831 H   0  0  0  0  0  0  0  0  0  0  0  0  # atno 11005 bound_to 11000
  144.9465  139.4131  143.6423 LP  0  0  0  0  0  0  0  0  0  0  0  0  # atno 17320 bound_to 7965
  146.3290  139.8450  142.8883 LP  0  0  0  0  0  0  0  0  0  0  0  0  # atno 17321 bound_to 7965
  140.2227  144.4450  150.6335 LP  0  0  0  0  0  0  0  0  0  0  0  0  # atno 17342 bound_to 10162
  140.6408  143.2203  151.6294 LP  0  0  0  0  0  0  0  0  0  0  0  0  # atno 17343 bound_to 10162
  156.7810  130.9221  151.3646 LP  0  0  0  0  0  0  0  0  0  0  0  0  # atno 17370 bound_to 10713
  157.6654  130.9003  149.9920 LP  0  0  0  0  0  0  0  0  0  0  0  0  # atno 17371 bound_to 10713
  140.1052  134.9510  157.1984 LP  0  0  0  0  0  0  0  0  0  0  0  0  # atno 17394 bound_to 11000
  140.3265  134.2857  155.7236 LP  0  0  0  0  0  0  0  0  0  0  0  0  # atno 17395 bound_to 11000

$$$$
