AV-unprocessed.smi:2061|AV-procd|sdf|8374|dock9
  -GOLD-   2272011 53D 1   1.00000     0.00000
 Structure written by MMmdl.
 44 45  0  0  0  0  0  0  0  0  2 V2000
  146.3772  133.6814  162.1350 C   0  0  0  0  0  0  0  0  0  0  0  0
  147.2107  134.6271  161.3395 C   0  0  0  0  0  0  0  0  0  0  0  0
  147.5864  135.9252  161.5387 C   0  0  0  0  0  0  0  0  0  0  0  0
  148.3737  136.2153  160.3908 C   0  0  0  0  0  0  0  0  0  0  0  0
  148.9875  137.3795  160.1290 N   0  5  0  0  0  0  0  0  0  0  0  0
  149.5270  137.6060  158.9089 C   0  0  0  0  0  0  0  0  0  0  0  0
  149.3568  136.9221  157.8972 O   0  0  0  0  0  0  0  0  0  0  0  0
  150.3038  138.6985  158.8609 N   0  0  0  0  0  0  0  0  0  0  0  0
  151.0227  139.2075  157.6938 C   0  0  0  0  0  0  0  0  0  0  0  0
  150.8042  140.7297  157.4610 C   0  0  2  0  0  0  0  0  0  0  0  0
  150.6057  140.9875  155.9453 C   0  0  0  0  0  0  0  0  0  0  0  0
  151.8744  141.5712  158.0491 N   0  0  0  0  0  0  0  0  0  0  0  0
  151.4813  142.9796  158.1677 C   0  0  0  0  0  0  0  0  0  0  0  0
  152.5786  143.8598  158.7958 C   0  0  1  0  0  0  0  0  0  0  0  0
  152.1213  145.3104  158.9817 C   0  0  0  0  0  0  0  0  0  0  0  0
  152.9244  143.3353  160.0713 O   0  0  0  0  0  0  0  0  0  0  0  0
  153.3903  141.9936  160.0028 C   0  0  1  0  0  0  0  0  0  0  0  0
  153.7585  141.5404  161.4196 C   0  0  0  0  0  0  0  0  0  0  0  0
  152.2966  141.1081  159.3754 C   0  0  0  0  0  0  0  0  0  0  0  0
  148.4807  135.1792  159.5759 N   0  0  0  0  0  0  0  0  0  0  0  0
  147.7328  134.1582  160.1743 O   0  0  0  0  0  0  0  0  0  0  0  0
  146.8947  133.3872  163.0480 H   0  0  0  0  0  0  0  0  0  0  0  0
  146.1549  132.7785  161.5659 H   0  0  0  0  0  0  0  0  0  0  0  0
  145.4309  134.1442  162.4156 H   0  0  0  0  0  0  0  0  0  0  0  0
  147.3358  136.5673  162.3697 H   0  0  0  0  0  0  0  0  0  0  0  0
  150.4061  139.2232  159.7170 H   0  0  0  0  0  0  0  0  0  0  0  0
  152.0666  138.9879  157.9088 H   0  0  0  0  0  0  0  0  0  0  0  0
  150.7740  138.6499  156.7894 H   0  0  0  0  0  0  0  0  0  0  0  0
  149.8652  140.9920  157.9510 H   0  0  0  0  0  0  0  0  0  0  0  0
  149.8340  140.3518  155.5142 H   0  0  0  0  0  0  0  0  0  0  0  0
  151.5268  140.8060  155.3907 H   0  0  0  0  0  0  0  0  0  0  0  0
  150.2773  142.0038  155.7340 H   0  0  0  0  0  0  0  0  0  0  0  0
  151.2619  143.3990  157.1875 H   0  0  0  0  0  0  0  0  0  0  0  0
  150.5672  143.0577  158.7584 H   0  0  0  0  0  0  0  0  0  0  0  0
  153.4631  143.8522  158.1563 H   0  0  0  0  0  0  0  0  0  0  0  0
  151.8535  145.7630  158.0267 H   0  0  0  0  0  0  0  0  0  0  0  0
  152.9132  145.9146  159.4249 H   0  0  0  0  0  0  0  0  0  0  0  0
  151.2511  145.3691  159.6364 H   0  0  0  0  0  0  0  0  0  0  0  0
  154.2873  141.9608  159.3817 H   0  0  0  0  0  0  0  0  0  0  0  0
  154.1371  140.5180  161.4182 H   0  0  0  0  0  0  0  0  0  0  0  0
  152.8934  141.5762  162.0824 H   0  0  0  0  0  0  0  0  0  0  0  0
  154.5315  142.1806  161.8456 H   0  0  0  0  0  0  0  0  0  0  0  0
  151.4335  141.0640  160.0417 H   0  0  0  0  0  0  0  0  0  0  0  0
  152.7045  140.1012  159.3170 H   0  0  0  0  0  0  0  0  0  0  0  0
  1  2  1  0  0  0  0
  1 22  1  0  0  0  0
  1 23  1  0  0  0  0
  1 24  1  0  0  0  0
  2 21  1  0  0  0  0
  2  3  2  0  0  0  0
  3  4  1  0  0  0  0
  3 25  1  0  0  0  0
  4  5  1  0  0  0  0
  4 20  2  0  0  0  0
  5  6  1  0  0  0  0
  6  7  2  0  0  0  0
  6  8  1  0  0  0  0
  8  9  1  0  0  0  0
  8 26  1  0  0  0  0
  9 10  1  0  0  0  0
  9 27  1  0  0  0  0
  9 28  1  0  0  0  0
 10 11  1  0  0  0  0
 10 12  1  0  0  0  0
 10 29  1  0  0  0  0
 11 30  1  0  0  0  0
 11 31  1  0  0  0  0
 11 32  1  0  0  0  0
 12 19  1  0  0  0  0
 12 13  1  0  0  0  0
 13 14  1  0  0  0  0
 13 33  1  0  0  0  0
 13 34  1  0  0  0  0
 14 15  1  0  0  0  0
 14 16  1  0  0  0  0
 14 35  1  0  0  0  0
 15 36  1  0  0  0  0
 15 37  1  0  0  0  0
 15 38  1  0  0  0  0
 16 17  1  0  0  0  0
 17 18  1  0  0  0  0
 17 19  1  0  0  0  0
 17 39  1  0  0  0  0
 18 40  1  0  0  0  0
 18 41  1  0  0  0  0
 18 42  1  0  0  0  0
 19 43  1  0  0  0  0
 19 44  1  0  0  0  0
 20 21  1  0  0  0  0
M  CHG  1   5  -1
M  END
> <s_m_source_file>
AV-unprocessed.smi

> <i_m_source_file_index>
2061

> <i_lp_mmshare_version>
43012

> <i_f3d_flags>
0

> <s_epik_input>
W0NIM11jMVtjSF1jKG5vMSlbTkhdQyg9TylbTkhdW0NIMl1bQ0BIXShbQ0gzXSlOMltDSDJdW0NAQEhdKFtDSDNdKU9bQ0BASF0oW0NIM10pW0NIMl0y

> <s_epik_cmdline>
J2VwaWtfcHl0aG9uJywgJy1waCcsICc3LjAnLCAnLXRuJywgJzgnLCAnLW1hJywgJzIwMCcsICctbWV0YWxfYmluZGluZycsICctaW1hZScsICc8aW5maWxlLm1hZT4nLCAnLW9tYWUnLCAnPG91dGZpbGUubWFlPic=

> <r_epik_Ionization_Penalty>
6.88367

> <r_epik_Ionization_Penalty_Charging>
6.57198

> <r_epik_Ionization_Penalty_Neutral>
0.311681

> <r_epik_State_Penalty>
6.77619

> <r_epik_Charging_Adjusted_Penalty>
13.3482

> <i_epik_Tot_Q>
-1

> <i_epik_Tot_abs_Q>
1

> <r_epik_Metal_State_Penalty>
2.70524

> <b_epik_Metal_Only>
1

> <s_lp_Force_Field>
OPLS_2005

> <r_lp_Energy>
21.032

> <b_lp_Chiralities_Consistent>
1

> <s_lp_Variant>
AV-unprocessed.smi:2061-15

> <Gold.Version>
5.8.1

> <Gold.Id.Protein>
6NUR|6NUR_protein|mol2

> <Gold.PLP.Fitness>
47.1301

> <Gold.PLP.PLP>
-43.1974

> <Gold.PLP.part.hbond>
-2.3454

> <Gold.PLP.part.metal>
0.0000

> <Gold.PLP.part.buried>
-6.5208

> <Gold.PLP.part.nonpolar>
-35.8526

> <Gold.PLP.part.repulsive>
0.2038

> <Gold.PLP.ligand.clash>
0.0000

> <Gold.PLP.ligand.torsion>
0.8928

> <Gold.PLP.Chemscore.Hbond>
1.8873

> <Gold.PLP.Chemscore.CHOScore>
0.0000

> <Gold.PLP.Chemscore.Metal>
0.0000

> <Gold.Chemscore.Hbonds>
donor molecule, donor type, donor heavy atom, donor atom, acceptor molecule, acceptor atom, score
      P1  H  6896  6909       L1    20  0.42
      P1  H  6931  6943       L1     5  0.86

> <Gold.PLP.Chemscore.Internal.Correction>
0.0566

> <Gold.Rescore>
     Score         DG    S(hbond)    S(metal)    S(lipo)     H(rot)  DE(clash)    DE(int)     intcor
     15.07     -17.70       1.23        0.00     102.63       1.52       0.12       2.51       ----

> <Gold.Chemscore.Fitness>
15.0741

> <Gold.Chemscore.DG>
-17.6975

> <Gold.Chemscore.ZeroCoef>
-5.4800

> <Gold.Chemscore.Hbond>
1.2271

> <Gold.Chemscore.Metal>
0.0000

> <Gold.Chemscore.Lipo>
102.6293

> <Gold.Chemscore.Internal_Hbond>
0.0000

> <Gold.Chemscore.DEClash>
0.1171

> <Gold.Chemscore.DEInternal>
2.5063

> <Gold.Chemscore.Rot>
1.5190

> <Gold.Chemscore.Internal.Correction>
   9.000000E+99

> <Gold.Chemscore.Hbonds>
donor molecule, donor type, donor heavy atom, donor atom, acceptor molecule, acceptor atom, score
      P1  H  6896  6909       L1    20  0.17
      P1  H  6931  6943       L1     5  0.19

> <Gold.Chemscore.Hbond.Weighted>
-4.0985

> <Gold.Chemscore.Metal.Weighted>
-0.0000

> <Gold.Chemscore.Lipo.Weighted>
-12.0076

> <Gold.Chemscore.Internal_Hbond.Weighted>
0.0000

> <Gold.Chemscore.DEClash.Weighted>
0.1171

> <Gold.Chemscore.DEInternal.Weighted>
2.5063

> <Gold.Chemscore.Rot.Weighted>
3.8886

> <Gold.Chemscore.Internal.Correction.Weighted>
   9.000000E+99

> <Gold.Protein.RotatedTorsions>
[ 6907 6896 6895 6894 ] final   45.15 input  -60.11 | X-H torsion
[ 7974 7965 7964 7962 ] final   99.24 input  175.53 | X-H torsion
[ 8008 7997 7996 7995 ] final  154.17 input   59.86 | X-H torsion
[ 10167 10162 10161 10158 ] final  -76.35 input  -65.29 | X-H torsion
[ 10718 10713 10712 10709 ] final  -51.69 input   66.30 | X-H torsion
[ 10763 10752 10751 10750 ] final  -63.07 input  -60.55 | X-H torsion
[ 11005 11000 10999 10996 ] final   49.21 input  -57.11 | X-H torsion

> <Gold.Protein.ActiveResidues>
 VAL166  LYS551  ARG553  GLY616  TRP617  ASP618  TYR619  PRO620  LYS621  CYS622 
 ASP623  PHE694  ASN695  SER759  ASP760  ASP761  ALA762  ILE779  LEU786  VAL792 
 PHE793  MET794  SER795  GLU796  ALA797  LYS798  CYS799  TRP800  GLU811  SER814 

> <Gold.Protein.RotatedAtoms>
  152.2411  134.8227  160.0459 H   0  0  0  0  0  0  0  0  0  0  0  0  # atno 6907 bound_to 6896
  151.8941  133.3518  159.3816 H   0  0  0  0  0  0  0  0  0  0  0  0  # atno 6908 bound_to 6896
  150.7054  134.4820  159.5519 H   0  0  0  0  0  0  0  0  0  0  0  0  # atno 6909 bound_to 6896
  145.4015  139.2347  143.3298 H   0  0  0  0  0  0  0  0  0  0  0  0  # atno 7974 bound_to 7965
  156.2545  140.1974  156.6604 H   0  0  0  0  0  0  0  0  0  0  0  0  # atno 8008 bound_to 7997
  154.6469  140.0576  156.9936 H   0  0  0  0  0  0  0  0  0  0  0  0  # atno 8009 bound_to 7997
  155.1478  140.3248  155.4440 H   0  0  0  0  0  0  0  0  0  0  0  0  # atno 8010 bound_to 7997
  140.4865  143.2390  151.7976 H   0  0  0  0  0  0  0  0  0  0  0  0  # atno 10167 bound_to 10162
  156.1687  130.4149  149.9680 H   0  0  0  0  0  0  0  0  0  0  0  0  # atno 10718 bound_to 10713
  154.3095  135.6218  153.5459 H   0  0  0  0  0  0  0  0  0  0  0  0  # atno 10763 bound_to 10752
  152.9831  135.5697  154.5194 H   0  0  0  0  0  0  0  0  0  0  0  0  # atno 10764 bound_to 10752
  154.4840  135.2864  155.1525 H   0  0  0  0  0  0  0  0  0  0  0  0  # atno 10765 bound_to 10752
  140.1124  134.4938  155.8667 H   0  0  0  0  0  0  0  0  0  0  0  0  # atno 11005 bound_to 11000
  146.2750  140.4713  142.8799 LP  0  0  0  0  0  0  0  0  0  0  0  0  # atno 17320 bound_to 7965
  144.8371  140.6799  143.6253 LP  0  0  0  0  0  0  0  0  0  0  0  0  # atno 17321 bound_to 7965
  139.4843  144.4705  151.9431 LP  0  0  0  0  0  0  0  0  0  0  0  0  # atno 17342 bound_to 10162
  140.3791  144.2758  150.5910 LP  0  0  0  0  0  0  0  0  0  0  0  0  # atno 17343 bound_to 10162
  156.7486  130.9107  151.3636 LP  0  0  0  0  0  0  0  0  0  0  0  0  # atno 17370 bound_to 10713
  157.6787  130.9119  150.0214 LP  0  0  0  0  0  0  0  0  0  0  0  0  # atno 17371 bound_to 10713
  141.2133  133.6732  156.6730 LP  0  0  0  0  0  0  0  0  0  0  0  0  # atno 17394 bound_to 11000
  140.3074  134.8114  157.4148 LP  0  0  0  0  0  0  0  0  0  0  0  0  # atno 17395 bound_to 11000

$$$$
