AV-unprocessed.smi:2592|AV-procd|sdf|10161|dock6
  -GOLD-   2272014173D 1   1.00000     0.00000
 Structure written by MMmdl.
 42 43  0  0  0  0  0  0  0  0  3 V2000
  153.0373  142.4869  161.6841 C   0  0  0  0  0  0  0  0  0  0  0  0
  152.5450  142.3492  160.2763 C   0  0  0  0  0  0  0  0  0  0  0  0
  152.7981  141.1723  159.5670 N   0  0  0  0  0  0  0  0  0  0  0  0
  152.2974  141.1747  158.3277 C   0  0  0  0  0  0  0  0  0  0  0  0
  152.4323  140.1418  157.4799 N   0  5  0  0  0  0  0  0  0  0  0  0
  151.4158  139.8087  156.6530 C   0  0  0  0  0  0  0  0  0  0  0  0
  150.6397  140.5890  156.0962 O   0  0  0  0  0  0  0  0  0  0  0  0
  151.2956  138.4887  156.4508 N   0  0  0  0  0  0  0  0  0  0  0  0
  150.3107  137.8434  155.5898 C   0  0  0  0  0  0  0  0  0  0  0  0
  150.8868  136.5817  154.9267 C   0  0  0  0  0  0  0  0  0  0  0  0
  150.2001  135.2963  155.4150 C   0  0  0  0  0  0  0  0  0  0  0  0
  149.2013  134.7877  154.4422 N   0  3  0  0  0  0  0  0  0  0  0  0
  149.4857  133.3973  154.0133 C   0  0  0  0  0  0  0  0  0  0  0  0
  148.4578  132.9344  152.9667 C   0  0  0  0  0  0  0  0  0  0  0  0
  147.1460  133.0499  153.5029 O   0  0  0  0  0  0  0  0  0  0  0  0
  146.8254  134.3943  153.8377 C   0  0  0  0  0  0  0  0  0  0  0  0
  147.7985  134.9065  154.9129 C   0  0  0  0  0  0  0  0  0  0  0  0
  151.4762  142.6903  157.9537 S   0  0  0  0  0  0  0  0  0  0  0  0
  151.8408  143.2798  159.5534 C   0  0  0  0  0  0  0  0  0  0  0  0
  151.3995  144.6367  159.9908 C   0  0  0  0  0  0  0  0  0  0  0  0
  153.8185  143.2440  161.7533 H   0  0  0  0  0  0  0  0  0  0  0  0
  153.4515  141.5509  162.0605 H   0  0  0  0  0  0  0  0  0  0  0  0
  152.2302  142.7812  162.3553 H   0  0  0  0  0  0  0  0  0  0  0  0
  151.9490  137.8867  156.9305 H   0  0  0  0  0  0  0  0  0  0  0  0
  149.4478  137.5825  156.2026 H   0  0  0  0  0  0  0  0  0  0  0  0
  149.9549  138.5473  154.8355 H   0  0  0  0  0  0  0  0  0  0  0  0
  150.7846  136.6715  153.8457 H   0  0  0  0  0  0  0  0  0  0  0  0
  151.9565  136.5229  155.1319 H   0  0  0  0  0  0  0  0  0  0  0  0
  150.9704  134.5377  155.5626 H   0  0  0  0  0  0  0  0  0  0  0  0
  149.7294  135.4526  156.3869 H   0  0  0  0  0  0  0  0  0  0  0  0
  150.4893  133.3366  153.5906 H   0  0  0  0  0  0  0  0  0  0  0  0
  149.4613  132.7353  154.8803 H   0  0  0  0  0  0  0  0  0  0  0  0
  148.5431  133.5199  152.0500 H   0  0  0  0  0  0  0  0  0  0  0  0
  148.6386  131.8934  152.6975 H   0  0  0  0  0  0  0  0  0  0  0  0
  146.8629  135.0234  152.9468 H   0  0  0  0  0  0  0  0  0  0  0  0
  145.8014  134.4307  154.2097 H   0  0  0  0  0  0  0  0  0  0  0  0
  147.6701  134.3345  155.8333 H   0  0  0  0  0  0  0  0  0  0  0  0
  147.5585  135.9432  155.1455 H   0  0  0  0  0  0  0  0  0  0  0  0
  150.5592  144.5635  160.6814 H   0  0  0  0  0  0  0  0  0  0  0  0
  151.0860  145.2424  159.1405 H   0  0  0  0  0  0  0  0  0  0  0  0
  152.2084  145.1639  160.4969 H   0  0  0  0  0  0  0  0  0  0  0  0
  149.2861  135.3623  153.6158 H   0  0  0  0  0  0  0  0  0  0  0  0
  1  2  1  0  0  0  0
  1 21  1  0  0  0  0
  1 22  1  0  0  0  0
  1 23  1  0  0  0  0
  2 19  2  0  0  0  0
  2  3  1  0  0  0  0
  3  4  2  0  0  0  0
  4  5  1  0  0  0  0
  4 18  1  0  0  0  0
  5  6  1  0  0  0  0
  6  7  2  0  0  0  0
  6  8  1  0  0  0  0
  8  9  1  0  0  0  0
  8 24  1  0  0  0  0
  9 10  1  0  0  0  0
  9 25  1  0  0  0  0
  9 26  1  0  0  0  0
 10 11  1  0  0  0  0
 10 27  1  0  0  0  0
 10 28  1  0  0  0  0
 11 12  1  0  0  0  0
 11 29  1  0  0  0  0
 11 30  1  0  0  0  0
 12 17  1  0  0  0  0
 12 13  1  0  0  0  0
 12 42  1  0  0  0  0
 13 14  1  0  0  0  0
 13 31  1  0  0  0  0
 13 32  1  0  0  0  0
 14 15  1  0  0  0  0
 14 33  1  0  0  0  0
 14 34  1  0  0  0  0
 15 16  1  0  0  0  0
 16 17  1  0  0  0  0
 16 35  1  0  0  0  0
 16 36  1  0  0  0  0
 17 37  1  0  0  0  0
 17 38  1  0  0  0  0
 18 19  1  0  0  0  0
 19 20  1  0  0  0  0
 20 39  1  0  0  0  0
 20 40  1  0  0  0  0
 20 41  1  0  0  0  0
M  CHG  1   5  -1
M  CHG  1  12   1
M  END
> <s_m_source_file>
AV-unprocessed.smi

> <i_m_source_file_index>
2592

> <i_lp_mmshare_version>
43012

> <i_f3d_flags>
0

> <s_epik_input>
W0NIM11jMW5jKHNjMVtDSDNdKVtOSF1DKD1PKVtOSF1bQ0gyXVtDSDJdW0NIMl1OMltDSDJdW0NIMl1PW0NIMl1bQ0gyXTI=

> <s_epik_cmdline>
J2VwaWtfcHl0aG9uJywgJy1waCcsICc3LjAnLCAnLXRuJywgJzgnLCAnLW1hJywgJzIwMCcsICctbWV0YWxfYmluZGluZycsICctaW1hZScsICc8aW5maWxlLm1hZT4nLCAnLW9tYWUnLCAnPG91dGZpbGUubWFlPic=

> <r_lp_tautomer_probability>
0.999

> <r_epik_Ionization_Penalty>
7.73516

> <r_epik_Ionization_Penalty_Charging>
6.31615

> <r_epik_Ionization_Penalty_Neutral>
1.41901

> <r_epik_State_Penalty>
6.31054

> <r_epik_Charging_Adjusted_Penalty>
12.6267

> <i_epik_Tot_Q>
0

> <i_epik_Tot_abs_Q>
2

> <r_epik_Metal_State_Penalty>
2.25864

> <b_epik_Metal_Only>
1

> <s_lp_Force_Field>
OPLS_2005

> <r_lp_Energy>
6.70997

> <b_lp_Chiralities_Consistent>
1

> <s_lp_Variant>
AV-unprocessed.smi:2592-3

> <Gold.Version>
5.8.1

> <Gold.Id.Protein>
6NUR|6NUR_protein|mol2

> <Gold.PLP.Fitness>
44.3197

> <Gold.PLP.PLP>
-36.4652

> <Gold.PLP.part.hbond>
-2.0000

> <Gold.PLP.part.metal>
0.0000

> <Gold.PLP.part.buried>
-5.4349

> <Gold.PLP.part.nonpolar>
-28.7376

> <Gold.PLP.part.repulsive>
0.2035

> <Gold.PLP.ligand.clash>
0.0000

> <Gold.PLP.ligand.torsion>
2.1095

> <Gold.PLP.Chemscore.Hbond>
4.0000

> <Gold.PLP.Chemscore.CHOScore>
0.0000

> <Gold.PLP.Chemscore.Metal>
0.0000

> <Gold.Chemscore.Hbonds>
donor molecule, donor type, donor heavy atom, donor atom, acceptor molecule, acceptor atom, score
      L1  H    12    42       P1  7948  2.00
      P1  H  7997  8009       L1     5  1.59

> <Gold.PLP.Chemscore.Internal.Correction>
0.0734

> <Gold.Rescore>
     Score         DG    S(hbond)    S(metal)    S(lipo)     H(rot)  DE(clash)    DE(int)     intcor
     13.51     -16.85       1.67        0.00      86.98       1.72       0.06       3.28       ----

> <Gold.Chemscore.Fitness>
13.5106

> <Gold.Chemscore.DG>
-16.8524

> <Gold.Chemscore.ZeroCoef>
-5.4800

> <Gold.Chemscore.Hbond>
1.6727

> <Gold.Chemscore.Metal>
0.0000

> <Gold.Chemscore.Lipo>
86.9828

> <Gold.Chemscore.Internal_Hbond>
0.0000

> <Gold.Chemscore.DEClash>
0.0584

> <Gold.Chemscore.DEInternal>
3.2834

> <Gold.Chemscore.Rot>
1.7154

> <Gold.Chemscore.Internal.Correction>
   9.000000E+99

> <Gold.Chemscore.Hbonds>
donor molecule, donor type, donor heavy atom, donor atom, acceptor molecule, acceptor atom, score
      L1  H    12    42       P1  7948  0.30
      P1  H  7997  8009       L1     5  0.55

> <Gold.Chemscore.Hbond.Weighted>
-5.5868

> <Gold.Chemscore.Metal.Weighted>
-0.0000

> <Gold.Chemscore.Lipo.Weighted>
-10.1770

> <Gold.Chemscore.Internal_Hbond.Weighted>
0.0000

> <Gold.Chemscore.DEClash.Weighted>
0.0584

> <Gold.Chemscore.DEInternal.Weighted>
3.2834

> <Gold.Chemscore.Rot.Weighted>
4.3914

> <Gold.Chemscore.Internal.Correction.Weighted>
   9.000000E+99

> <Gold.Protein.RotatedTorsions>
[ 6907 6896 6895 6894 ] final  150.09 input  -60.11 | X-H torsion
[ 7974 7965 7964 7962 ] final   29.41 input  175.53 | X-H torsion
[ 8008 7997 7996 7995 ] final -178.68 input   59.86 | X-H torsion
[ 10167 10162 10161 10158 ] final -151.94 input  -65.29 | X-H torsion
[ 10718 10713 10712 10709 ] final -136.42 input   66.30 | X-H torsion
[ 10763 10752 10751 10750 ] final  155.13 input  -60.55 | X-H torsion
[ 11005 11000 10999 10996 ] final  -68.73 input  -57.11 | X-H torsion

> <Gold.Protein.ActiveResidues>
 VAL166  LYS551  ARG553  GLY616  TRP617  ASP618  TYR619  PRO620  LYS621  CYS622 
 ASP623  PHE694  ASN695  SER759  ASP760  ASP761  ALA762  ILE779  LEU786  VAL792 
 PHE793  MET794  SER795  GLU796  ALA797  LYS798  CYS799  TRP800  GLU811  SER814 

> <Gold.Protein.RotatedAtoms>
  152.1192  133.4344  159.4667 H   0  0  0  0  0  0  0  0  0  0  0  0  # atno 6907 bound_to 6896
  150.6871  134.2555  159.4537 H   0  0  0  0  0  0  0  0  0  0  0  0  # atno 6908 bound_to 6896
  152.0430  134.9699  160.0624 H   0  0  0  0  0  0  0  0  0  0  0  0  # atno 6909 bound_to 6896
  146.1673  139.6925  142.8992 H   0  0  0  0  0  0  0  0  0  0  0  0  # atno 7974 bound_to 7965
  156.0216  140.1262  157.0351 H   0  0  0  0  0  0  0  0  0  0  0  0  # atno 8008 bound_to 7997
  154.4314  140.1067  156.6042 H   0  0  0  0  0  0  0  0  0  0  0  0  # atno 8009 bound_to 7997
  155.5936  140.3469  155.4575 H   0  0  0  0  0  0  0  0  0  0  0  0  # atno 8010 bound_to 7997
  139.7224  143.8936  152.2508 H   0  0  0  0  0  0  0  0  0  0  0  0  # atno 10167 bound_to 10162
  156.2769  130.7298  151.1283 H   0  0  0  0  0  0  0  0  0  0  0  0  # atno 10718 bound_to 10713
  154.1634  135.2808  155.3102 H   0  0  0  0  0  0  0  0  0  0  0  0  # atno 10763 bound_to 10752
  154.6129  135.5492  153.7496 H   0  0  0  0  0  0  0  0  0  0  0  0  # atno 10764 bound_to 10752
  153.0185  135.6420  154.1776 H   0  0  0  0  0  0  0  0  0  0  0  0  # atno 10765 bound_to 10752
  141.1538  133.6747  156.6490 H   0  0  0  0  0  0  0  0  0  0  0  0  # atno 11005 bound_to 11000
  145.4434  141.0424  143.2845 LP  0  0  0  0  0  0  0  0  0  0  0  0  # atno 17320 bound_to 7965
  144.8111  139.5961  143.7029 LP  0  0  0  0  0  0  0  0  0  0  0  0  # atno 17321 bound_to 7965
  139.8836  144.7004  150.8850 LP  0  0  0  0  0  0  0  0  0  0  0  0  # atno 17342 bound_to 10162
  140.7756  143.3642  151.1771 LP  0  0  0  0  0  0  0  0  0  0  0  0  # atno 17343 bound_to 10162
  157.7302  131.0618  150.5738 LP  0  0  0  0  0  0  0  0  0  0  0  0  # atno 17370 bound_to 10713
  156.5840  130.4312  149.5965 LP  0  0  0  0  0  0  0  0  0  0  0  0  # atno 17371 bound_to 10713
  140.3335  134.7909  157.4344 LP  0  0  0  0  0  0  0  0  0  0  0  0  # atno 17394 bound_to 11000
  140.0997  134.5489  155.8364 LP  0  0  0  0  0  0  0  0  0  0  0  0  # atno 17395 bound_to 11000

$$$$
