AV-unprocessed.smi:977|AV-procd|sdf|4306|dock3
  -GOLD-   22720 2213D 1   1.00000     0.00000
 Structure written by MMmdl.
 37 38  0  0  0  0  0  0  0  0  1 V2000
  151.2597  138.1264  154.4866 C   0  0  0  0  0  0  0  0  0  0  0  0
  150.3224  139.2981  154.3899 C   0  0  0  0  0  0  0  0  0  0  0  0
  150.6698  140.4499  154.9451 N   0  0  0  0  0  0  0  0  0  0  0  0
  149.5896  141.3275  154.7630 O   0  0  0  0  0  0  0  0  0  0  0  0
  148.6027  140.6771  154.0927 C   0  0  0  0  0  0  0  0  0  0  0  0
  147.3529  141.4421  153.8152 C   0  0  0  0  0  0  0  0  0  0  0  0
  149.0250  139.4119  153.8098 C   0  0  0  0  0  0  0  0  0  0  0  0
  148.2518  138.4307  153.1410 N   0  0  0  0  0  0  0  0  0  0  0  0
  146.9230  138.2675  153.2247 C   0  0  0  0  0  0  0  0  0  0  0  0
  146.1815  138.9213  153.9581 O   0  0  0  0  0  0  0  0  0  0  0  0
  146.4983  137.2819  152.4208 N   0  0  0  0  0  0  0  0  0  0  0  0
  145.1096  136.8524  152.2683 C   0  0  2  0  0  0  0  0  0  0  0  0
  144.5677  136.4571  153.6509 C   0  0  0  0  0  0  0  0  0  0  0  0
  145.0167  135.6950  151.2494 C   0  0  1  0  0  0  0  0  0  0  0  0
  145.9748  134.5315  151.5258 C   0  0  0  0  0  0  0  0  0  0  0  0
  145.2309  133.3561  150.9355 C   0  0  0  0  0  0  0  0  0  0  0  0
  143.7958  133.6913  151.3184 C   0  0  0  0  0  0  0  0  0  0  0  0
  143.7128  135.1105  151.2573 O   0  0  0  0  0  0  0  0  0  0  0  0
  150.7113  137.1870  154.5581 H   0  0  0  0  0  0  0  0  0  0  0  0
  151.8973  138.1969  155.3685 H   0  0  0  0  0  0  0  0  0  0  0  0
  151.9092  138.0710  153.6130 H   0  0  0  0  0  0  0  0  0  0  0  0
  146.5700  140.7894  153.4288 H   0  0  0  0  0  0  0  0  0  0  0  0
  147.5362  142.2232  153.0776 H   0  0  0  0  0  0  0  0  0  0  0  0
  146.9792  141.9150  154.7236 H   0  0  0  0  0  0  0  0  0  0  0  0
  148.7657  137.7440  152.6087 H   0  0  0  0  0  0  0  0  0  0  0  0
  147.1847  136.7998  151.8593 H   0  0  0  0  0  0  0  0  0  0  0  0
  144.5106  137.6896  151.9054 H   0  0  0  0  0  0  0  0  0  0  0  0
  143.5129  136.1865  153.6032 H   0  0  0  0  0  0  0  0  0  0  0  0
  144.6579  137.2825  154.3579 H   0  0  0  0  0  0  0  0  0  0  0  0
  145.1114  135.6057  154.0618 H   0  0  0  0  0  0  0  0  0  0  0  0
  145.1952  136.0688  150.2398 H   0  0  0  0  0  0  0  0  0  0  0  0
  146.9602  134.6777  151.0828 H   0  0  0  0  0  0  0  0  0  0  0  0
  146.1021  134.3829  152.5991 H   0  0  0  0  0  0  0  0  0  0  0  0
  145.3416  133.3450  149.8504 H   0  0  0  0  0  0  0  0  0  0  0  0
  145.5636  132.3947  151.3274 H   0  0  0  0  0  0  0  0  0  0  0  0
  143.0633  133.2181  150.6643 H   0  0  0  0  0  0  0  0  0  0  0  0
  143.5920  133.3761  152.3423 H   0  0  0  0  0  0  0  0  0  0  0  0
  1  2  1  0  0  0  0
  1 19  1  0  0  0  0
  1 20  1  0  0  0  0
  1 21  1  0  0  0  0
  2  7  1  0  0  0  0
  2  3  2  0  0  0  0
  3  4  1  0  0  0  0
  4  5  1  0  0  0  0
  5  6  1  0  0  0  0
  5  7  2  0  0  0  0
  6 22  1  0  0  0  0
  6 23  1  0  0  0  0
  6 24  1  0  0  0  0
  7  8  1  0  0  0  0
  8  9  1  0  0  0  0
  8 25  1  0  0  0  0
  9 10  2  0  0  0  0
  9 11  1  0  0  0  0
 11 12  1  0  0  0  0
 11 26  1  0  0  0  0
 12 13  1  0  0  0  0
 12 14  1  0  0  0  0
 12 27  1  0  0  0  0
 13 28  1  0  0  0  0
 13 29  1  0  0  0  0
 13 30  1  0  0  0  0
 14 18  1  0  0  0  0
 14 15  1  0  0  0  0
 14 31  1  0  0  0  0
 15 16  1  0  0  0  0
 15 32  1  0  0  0  0
 15 33  1  0  0  0  0
 16 17  1  0  0  0  0
 16 34  1  0  0  0  0
 16 35  1  0  0  0  0
 17 18  1  0  0  0  0
 17 36  1  0  0  0  0
 17 37  1  0  0  0  0
M  END
> <s_m_source_file>
AV-unprocessed.smi

> <i_m_source_file_index>
977

> <i_lp_mmshare_version>
43012

> <i_f3d_flags>
0

> <s_epik_input>
W0NIM11jMW5vYyhbQ0gzXSljMVtOSF1DKD1PKVtOSF1bQ0BIXShbQ0gzXSlbQ0BASF0yW0NIMl1bQ0gyXVtDSDJdTzI=

> <s_epik_cmdline>
J2VwaWtfcHl0aG9uJywgJy1waCcsICc3LjAnLCAnLXRuJywgJzgnLCAnLW1hJywgJzIwMCcsICctbWV0YWxfYmluZGluZycsICctaW1hZScsICc8aW5maWxlLm1hZT4nLCAnLW9tYWUnLCAnPG91dGZpbGUubWFlPic=

> <r_lp_tautomer_probability>
1

> <r_epik_Ionization_Penalty>
3.41601e-05

> <r_epik_Ionization_Penalty_Charging>
0

> <r_epik_Ionization_Penalty_Neutral>
3.41601e-05

> <r_epik_State_Penalty>
-0

> <r_epik_Charging_Adjusted_Penalty>
0

> <i_epik_Tot_Q>
0

> <i_epik_Tot_abs_Q>
0

> <r_epik_Metal_State_Penalty>
-0

> <b_epik_Metal_Only>
0

> <s_lp_Force_Field>
OPLS_2005

> <r_lp_Energy>
19.7512

> <b_lp_Chiralities_Consistent>
1

> <s_lp_Variant>
AV-unprocessed.smi:977-3

> <Gold.Version>
5.8.1

> <Gold.Id.Protein>
6NUR|6NUR_protein|mol2

> <Gold.PLP.Fitness>
38.0798

> <Gold.PLP.PLP>
-31.3699

> <Gold.PLP.part.hbond>
-4.6792

> <Gold.PLP.part.metal>
0.0000

> <Gold.PLP.part.buried>
-1.9785

> <Gold.PLP.part.nonpolar>
-25.5751

> <Gold.PLP.part.repulsive>
0.6767

> <Gold.PLP.ligand.clash>
0.0000

> <Gold.PLP.ligand.torsion>
0.3612

> <Gold.PLP.Chemscore.Hbond>
2.3800

> <Gold.PLP.Chemscore.CHOScore>
0.0000

> <Gold.PLP.Chemscore.Metal>
0.0000

> <Gold.Chemscore.Hbonds>
donor molecule, donor type, donor heavy atom, donor atom, acceptor molecule, acceptor atom, score
      L1  H     8    25       P1  7948  1.00
      L1  H    11    26       P1  7948  0.88
      P1  H  7989  7998       L1     3  0.52

> <Gold.PLP.Chemscore.Internal.Correction>
0.2924

> <Gold.Rescore>
     Score         DG    S(hbond)    S(metal)    S(lipo)     H(rot)  DE(clash)    DE(int)     intcor
     15.89     -16.54       1.94        0.00      65.83       1.22       0.15       0.49       ----

> <Gold.Chemscore.Fitness>
15.8941

> <Gold.Chemscore.DG>
-16.5364

> <Gold.Chemscore.ZeroCoef>
-5.4800

> <Gold.Chemscore.Hbond>
1.9394

> <Gold.Chemscore.Metal>
0.0000

> <Gold.Chemscore.Lipo>
65.8271

> <Gold.Chemscore.Internal_Hbond>
0.0000

> <Gold.Chemscore.DEClash>
0.1509

> <Gold.Chemscore.DEInternal>
0.4913

> <Gold.Chemscore.Rot>
1.2200

> <Gold.Chemscore.Internal.Correction>
   9.000000E+99

> <Gold.Chemscore.Hbonds>
donor molecule, donor type, donor heavy atom, donor atom, acceptor molecule, acceptor atom, score
      L1  H     8    25       P1  7948  0.98
      L1  H    11    26       P1  7948  0.87
      P1  H  7989  7998       L1     3  0.01

> <Gold.Chemscore.Hbond.Weighted>
-6.4778

> <Gold.Chemscore.Metal.Weighted>
-0.0000

> <Gold.Chemscore.Lipo.Weighted>
-7.7018

> <Gold.Chemscore.Internal_Hbond.Weighted>
0.0000

> <Gold.Chemscore.DEClash.Weighted>
0.1509

> <Gold.Chemscore.DEInternal.Weighted>
0.4913

> <Gold.Chemscore.Rot.Weighted>
3.1232

> <Gold.Chemscore.Internal.Correction.Weighted>
   9.000000E+99

> <Gold.Protein.RotatedTorsions>
[ 6907 6896 6895 6894 ] final -143.42 input  -60.11 | X-H torsion
[ 7974 7965 7964 7962 ] final  -33.81 input  175.53 | X-H torsion
[ 8008 7997 7996 7995 ] final -105.24 input   59.86 | X-H torsion
[ 10167 10162 10161 10158 ] final  117.21 input  -65.29 | X-H torsion
[ 10718 10713 10712 10709 ] final  157.60 input   66.30 | X-H torsion
[ 10763 10752 10751 10750 ] final  -35.34 input  -60.55 | X-H torsion
[ 11005 11000 10999 10996 ] final  150.17 input  -57.11 | X-H torsion

> <Gold.Protein.ActiveResidues>
 VAL166  LYS551  ARG553  GLY616  TRP617  ASP618  TYR619  PRO620  LYS621  CYS622 
 ASP623  PHE694  ASN695  SER759  ASP760  ASP761  ALA762  ILE779  LEU786  VAL792 
 PHE793  MET794  SER795  GLU796  ALA797  LYS798  CYS799  TRP800  GLU811  SER814 

> <Gold.Protein.RotatedAtoms>
  151.1002  133.5249  159.2610 H   0  0  0  0  0  0  0  0  0  0  0  0  # atno 6907 bound_to 6896
  151.2083  135.0470  159.8910 H   0  0  0  0  0  0  0  0  0  0  0  0  # atno 6908 bound_to 6896
  152.5442  134.0821  159.8293 H   0  0  0  0  0  0  0  0  0  0  0  0  # atno 6909 bound_to 6896
  146.0880  140.5962  142.8877 H   0  0  0  0  0  0  0  0  0  0  0  0  # atno 7974 bound_to 7965
  154.8969  140.0414  157.1871 H   0  0  0  0  0  0  0  0  0  0  0  0  # atno 8008 bound_to 7997
  154.8483  140.2925  155.5593 H   0  0  0  0  0  0  0  0  0  0  0  0  # atno 8009 bound_to 7997
  156.2995  140.2469  156.3437 H   0  0  0  0  0  0  0  0  0  0  0  0  # atno 8010 bound_to 7997
  139.6194  144.7098  151.2668 H   0  0  0  0  0  0  0  0  0  0  0  0  # atno 10167 bound_to 10162
  157.1892  131.0650  151.2089 H   0  0  0  0  0  0  0  0  0  0  0  0  # atno 10718 bound_to 10713
  153.8616  135.6839  153.4782 H   0  0  0  0  0  0  0  0  0  0  0  0  # atno 10763 bound_to 10752
  153.1338  135.4686  154.9389 H   0  0  0  0  0  0  0  0  0  0  0  0  # atno 10764 bound_to 10752
  154.7756  135.3252  154.8049 H   0  0  0  0  0  0  0  0  0  0  0  0  # atno 10765 bound_to 10752
  140.1108  134.8925  157.1933 H   0  0  0  0  0  0  0  0  0  0  0  0  # atno 11005 bound_to 11000
  144.7340  140.4753  143.6917 LP  0  0  0  0  0  0  0  0  0  0  0  0  # atno 17320 bound_to 7965
  145.6093  139.1511  143.3085 LP  0  0  0  0  0  0  0  0  0  0  0  0  # atno 17321 bound_to 7965
  140.7372  143.6685  150.8102 LP  0  0  0  0  0  0  0  0  0  0  0  0  # atno 17342 bound_to 10162
  140.0293  143.5460  152.2767 LP  0  0  0  0  0  0  0  0  0  0  0  0  # atno 17343 bound_to 10162
  157.3877  130.7265  149.6675 LP  0  0  0  0  0  0  0  0  0  0  0  0  # atno 17370 bound_to 10713
  155.9714  130.4155  150.4184 LP  0  0  0  0  0  0  0  0  0  0  0  0  # atno 17371 bound_to 10713
  140.3094  134.3041  155.7270 LP  0  0  0  0  0  0  0  0  0  0  0  0  # atno 17394 bound_to 11000
  141.2129  133.7641  156.9755 LP  0  0  0  0  0  0  0  0  0  0  0  0  # atno 17395 bound_to 11000

$$$$
