AV-unprocessed.smi:1153|AV-procd|sdf|4899|dock6
  -GOLD-   22720 3473D 1   1.00000     0.00000
 Structure written by MMmdl.
 26 27  0  0  0  0  0  0  0  0  1 V2000
  153.9089  138.5893  157.8551 O   0  0  0  0  0  0  0  0  0  0  0  0
  153.0240  139.1981  158.4583 C   0  0  0  0  0  0  0  0  0  0  0  0
  153.2609  139.7234  159.8792 C   0  0  0  0  0  0  0  0  0  0  0  0
  153.0257  141.1541  159.9888 N   0  0  0  0  0  0  0  0  0  0  0  0
  153.2727  141.9850  161.0610 C   0  0  0  0  0  0  0  0  0  0  0  0
  152.8879  143.2430  160.6967 C   0  0  0  0  0  0  0  0  0  0  0  0
  152.4064  143.0864  159.3643 C   0  0  0  0  0  0  0  0  0  0  0  0
  151.8471  144.1382  158.4428 C   0  0  0  0  0  0  0  0  0  0  0  0
  152.8082  144.9922  158.0913 F   0  0  0  0  0  0  0  0  0  0  0  0
  151.3525  143.5732  157.3414 F   0  0  0  0  0  0  0  0  0  0  0  0
  150.8717  144.8092  159.0555 F   0  0  0  0  0  0  0  0  0  0  0  0
  152.4898  141.8293  158.9495 N   0  0  0  0  0  0  0  0  0  0  0  0
  151.8148  139.4502  157.9354 N   0  0  0  0  0  0  0  0  0  0  0  0
  151.3749  139.0586  156.6355 C   0  0  0  0  0  0  0  0  0  0  0  0
  152.2550  139.4182  155.4579 C   0  0  0  0  0  0  0  0  0  0  0  0
  150.9612  140.1529  155.6752 C   0  0  0  0  0  0  0  0  0  0  0  0
  152.6067  139.1917  160.5716 H   0  0  0  0  0  0  0  0  0  0  0  0
  154.2877  139.5221  160.1876 H   0  0  0  0  0  0  0  0  0  0  0  0
  153.6998  141.6160  161.9819 H   0  0  0  0  0  0  0  0  0  0  0  0
  152.9422  144.1422  161.2923 H   0  0  0  0  0  0  0  0  0  0  0  0
  151.1536  139.9608  158.5024 H   0  0  0  0  0  0  0  0  0  0  0  0
  150.8278  138.1205  156.5537 H   0  0  0  0  0  0  0  0  0  0  0  0
  153.1787  139.9580  155.6579 H   0  0  0  0  0  0  0  0  0  0  0  0
  152.2989  138.7119  154.6312 H   0  0  0  0  0  0  0  0  0  0  0  0
  150.1409  139.9376  154.9935 H   0  0  0  0  0  0  0  0  0  0  0  0
  151.0212  141.1835  156.0201 H   0  0  0  0  0  0  0  0  0  0  0  0
  1  2  2  0  0  0  0
  2  3  1  0  0  0  0
  2 13  1  0  0  0  0
  3  4  1  0  0  0  0
  3 17  1  0  0  0  0
  3 18  1  0  0  0  0
  4 12  1  0  0  0  0
  4  5  1  0  0  0  0
  5  6  2  0  0  0  0
  5 19  1  0  0  0  0
  6  7  1  0  0  0  0
  6 20  1  0  0  0  0
  7  8  1  0  0  0  0
  7 12  2  0  0  0  0
  8  9  1  0  0  0  0
  8 10  1  0  0  0  0
  8 11  1  0  0  0  0
 13 14  1  0  0  0  0
 13 21  1  0  0  0  0
 14 16  1  0  0  0  0
 14 15  1  0  0  0  0
 14 22  1  0  0  0  0
 15 16  1  0  0  0  0
 15 23  1  0  0  0  0
 15 24  1  0  0  0  0
 16 25  1  0  0  0  0
 16 26  1  0  0  0  0
M  END
> <s_m_source_file>
AV-unprocessed.smi

> <i_m_source_file_index>
1153

> <i_lp_mmshare_version>
43012

> <i_f3d_flags>
0

> <s_epik_input>
W0NIMl0xW0NIMl1bQ0hdMVtOSF1DKD1PKVtDSDJdbjJbY0hdW2NIXWMobjIpQyhGKShGKUY=

> <s_epik_cmdline>
J2VwaWtfcHl0aG9uJywgJy1waCcsICc3LjAnLCAnLXRuJywgJzgnLCAnLW1hJywgJzIwMCcsICctbWV0YWxfYmluZGluZycsICctaW1hZScsICc8aW5maWxlLm1hZT4nLCAnLW9tYWUnLCAnPG91dGZpbGUubWFlPic=

> <r_lp_tautomer_probability>
1

> <r_epik_Ionization_Penalty>
7.21317e-08

> <r_epik_Ionization_Penalty_Charging>
0

> <r_epik_Ionization_Penalty_Neutral>
7.21317e-08

> <r_epik_State_Penalty>
-0

> <r_epik_Charging_Adjusted_Penalty>
0

> <i_epik_Tot_Q>
0

> <i_epik_Tot_abs_Q>
0

> <r_epik_Metal_State_Penalty>
-0

> <b_epik_Metal_Only>
0

> <s_lp_Force_Field>
OPLS_2005

> <r_lp_Energy>
18.4383

> <b_lp_Chiralities_Consistent>
1

> <s_lp_Variant>
AV-unprocessed.smi:1153-1

> <Gold.Version>
5.8.1

> <Gold.Id.Protein>
6NUR|6NUR_protein|mol2

> <Gold.PLP.Fitness>
41.6800

> <Gold.PLP.PLP>
-39.2565

> <Gold.PLP.part.hbond>
-1.0000

> <Gold.PLP.part.metal>
0.0000

> <Gold.PLP.part.buried>
-3.8920

> <Gold.PLP.part.nonpolar>
-34.9806

> <Gold.PLP.part.repulsive>
0.0720

> <Gold.PLP.ligand.clash>
0.0000

> <Gold.PLP.ligand.torsion>
0.2740

> <Gold.PLP.Chemscore.Hbond>
0.9760

> <Gold.PLP.Chemscore.CHOScore>
0.0000

> <Gold.PLP.Chemscore.Metal>
0.0000

> <Gold.Chemscore.Hbonds>
donor molecule, donor type, donor heavy atom, donor atom, acceptor molecule, acceptor atom, score
      P1  H  7997  8008       L1     1  0.96

> <Gold.PLP.Chemscore.Internal.Correction>
0.0435

> <Gold.Rescore>
     Score         DG    S(hbond)    S(metal)    S(lipo)     H(rot)  DE(clash)    DE(int)     intcor
     12.05     -13.16       0.93        0.00      75.01       1.64       0.96       0.15       ----

> <Gold.Chemscore.Fitness>
12.0493

> <Gold.Chemscore.DG>
-13.1632

> <Gold.Chemscore.ZeroCoef>
-5.4800

> <Gold.Chemscore.Hbond>
0.9278

> <Gold.Chemscore.Metal>
0.0000

> <Gold.Chemscore.Lipo>
75.0062

> <Gold.Chemscore.Internal_Hbond>
0.0000

> <Gold.Chemscore.DEClash>
0.9650

> <Gold.Chemscore.DEInternal>
0.1490

> <Gold.Chemscore.Rot>
1.6372

> <Gold.Chemscore.Internal.Correction>
   9.000000E+99

> <Gold.Chemscore.Hbonds>
donor molecule, donor type, donor heavy atom, donor atom, acceptor molecule, acceptor atom, score
      P1  H  7997  8008       L1     1  0.24

> <Gold.Chemscore.Hbond.Weighted>
-3.0988

> <Gold.Chemscore.Metal.Weighted>
-0.0000

> <Gold.Chemscore.Lipo.Weighted>
-8.7757

> <Gold.Chemscore.Internal_Hbond.Weighted>
0.0000

> <Gold.Chemscore.DEClash.Weighted>
0.9650

> <Gold.Chemscore.DEInternal.Weighted>
0.1490

> <Gold.Chemscore.Rot.Weighted>
4.1913

> <Gold.Chemscore.Internal.Correction.Weighted>
   9.000000E+99

> <Gold.Protein.RotatedTorsions>
[ 6907 6896 6895 6894 ] final -154.72 input  -60.11 | X-H torsion
[ 7974 7965 7964 7962 ] final -114.87 input  175.53 | X-H torsion
[ 8008 7997 7996 7995 ] final -107.85 input   59.86 | X-H torsion
[ 10167 10162 10161 10158 ] final -154.04 input  -65.29 | X-H torsion
[ 10718 10713 10712 10709 ] final -105.76 input   66.30 | X-H torsion
[ 10763 10752 10751 10750 ] final -138.97 input  -60.55 | X-H torsion
[ 11005 11000 10999 10996 ] final -100.34 input  -57.11 | X-H torsion

> <Gold.Protein.ActiveResidues>
 VAL166  LYS551  ARG553  GLY616  TRP617  ASP618  TYR619  PRO620  LYS621  CYS622 
 ASP623  PHE694  ASN695  SER759  ASP760  ASP761  ALA762  ILE779  LEU786  VAL792 
 PHE793  MET794  SER795  GLU796  ALA797  LYS798  CYS799  TRP800  GLU811  SER814 

> <Gold.Protein.RotatedAtoms>
  151.2617  133.4298  159.2616 H   0  0  0  0  0  0  0  0  0  0  0  0  # atno 6907 bound_to 6896
  151.0524  134.9682  159.8229 H   0  0  0  0  0  0  0  0  0  0  0  0  # atno 6908 bound_to 6896
  152.5385  134.2571  159.8974 H   0  0  0  0  0  0  0  0  0  0  0  0  # atno 6909 bound_to 6896
  145.1151  140.8635  143.3847 H   0  0  0  0  0  0  0  0  0  0  0  0  # atno 7974 bound_to 7965
  154.9355  140.0404  157.2070 H   0  0  0  0  0  0  0  0  0  0  0  0  # atno 8008 bound_to 7997
  154.8119  140.2869  155.5825 H   0  0  0  0  0  0  0  0  0  0  0  0  # atno 8009 bound_to 7997
  156.2972  140.2535  156.3009 H   0  0  0  0  0  0  0  0  0  0  0  0  # atno 8010 bound_to 7997
  139.7046  143.9207  152.2443 H   0  0  0  0  0  0  0  0  0  0  0  0  # atno 10167 bound_to 10162
  156.0360  130.5580  150.7585 H   0  0  0  0  0  0  0  0  0  0  0  0  # atno 10718 bound_to 10713
  154.8622  135.3596  154.5470 H   0  0  0  0  0  0  0  0  0  0  0  0  # atno 10763 bound_to 10752
  153.6090  135.7010  153.5359 H   0  0  0  0  0  0  0  0  0  0  0  0  # atno 10764 bound_to 10752
  153.3226  135.4147  155.1390 H   0  0  0  0  0  0  0  0  0  0  0  0  # atno 10765 bound_to 10752
  141.1274  133.8391  157.1090 H   0  0  0  0  0  0  0  0  0  0  0  0  # atno 11005 bound_to 11000
  145.0803  139.2965  143.5787 LP  0  0  0  0  0  0  0  0  0  0  0  0  # atno 17320 bound_to 7965
  146.3524  140.0307  142.8651 LP  0  0  0  0  0  0  0  0  0  0  0  0  # atno 17321 bound_to 7965
  139.9059  144.6885  150.8615 LP  0  0  0  0  0  0  0  0  0  0  0  0  # atno 17342 bound_to 10162
  140.7718  143.3479  151.2073 LP  0  0  0  0  0  0  0  0  0  0  0  0  # atno 17343 bound_to 10162
  157.5111  131.0925  151.0197 LP  0  0  0  0  0  0  0  0  0  0  0  0  # atno 17370 bound_to 10713
  157.0552  130.5803  149.5377 LP  0  0  0  0  0  0  0  0  0  0  0  0  # atno 17371 bound_to 10713
  140.0287  134.9912  157.0737 LP  0  0  0  0  0  0  0  0  0  0  0  0  # atno 17394 bound_to 11000
  140.4321  134.1770  155.7168 LP  0  0  0  0  0  0  0  0  0  0  0  0  # atno 17395 bound_to 11000

$$$$
