AV-unprocessed.smi:1953|AV-procd|sdf|7893|dock7
  -GOLD-   2272010 53D 1   1.00000     0.00000
 Structure written by MMmdl.
 43 45  0  0  0  0  0  0  0  0  1 V2000
  146.4613  138.3031  159.1898 N   0  0  0  0  0  0  0  0  0  0  0  0
  146.9764  138.8168  158.2896 C   0  0  0  0  0  0  0  0  0  0  0  0
  147.6270  139.4674  157.2009 C   0  0  0  0  0  0  0  0  0  0  0  0
  146.9368  140.1609  156.2723 C   0  0  0  0  0  0  0  0  0  0  0  0
  147.5514  140.8076  155.2224 N   0  0  0  0  0  0  0  0  0  0  0  0
  146.7927  141.4195  154.1682 C   0  0  0  0  0  0  0  0  0  0  0  0
  146.9190  142.9078  153.9061 C   0  0  0  0  0  0  0  0  0  0  0  0
  145.6585  142.3560  154.5245 C   0  0  0  0  0  0  0  0  0  0  0  0
  148.9460  140.6928  155.0364 C   0  0  0  0  0  0  0  0  0  0  0  0
  149.5030  141.1992  154.0589 O   0  0  0  0  0  0  0  0  0  0  0  0
  149.6878  139.9761  156.0070 N   0  0  0  0  0  0  0  0  0  0  0  0
  151.1575  139.9055  155.8544 C   0  0  0  0  0  0  0  0  0  0  0  0
  151.9118  140.5649  157.0183 C   0  0  0  0  0  0  0  0  0  0  0  0
  152.7489  139.9336  157.6651 O   0  0  0  0  0  0  0  0  0  0  0  0
  151.6069  141.8478  157.2650 N   0  0  0  0  0  0  0  0  0  0  0  0
  152.1836  142.6638  158.3291 C   0  0  0  0  0  0  0  0  0  0  0  0
  151.9791  141.9905  159.7033 C   0  0  0  0  0  0  0  0  0  0  0  0
  152.5028  142.8737  160.8471 C   0  0  0  0  0  0  0  0  0  0  0  0
  151.8565  144.2672  160.8166 C   0  0  0  0  0  0  0  0  0  0  0  0
  152.0669  144.9443  159.4534 C   0  0  0  0  0  0  0  0  0  0  0  0
  151.5428  144.0647  158.3069 C   0  0  0  0  0  0  0  0  0  0  0  0
  149.0817  139.3505  157.1264 C   0  0  0  0  0  0  0  0  0  0  0  0
  149.7586  138.7544  157.9658 O   0  0  0  0  0  0  0  0  0  0  0  0
  145.8613  140.2212  156.3580 H   0  0  0  0  0  0  0  0  0  0  0  0
  146.6331  140.7966  153.2898 H   0  0  0  0  0  0  0  0  0  0  0  0
  147.5739  143.4908  154.5512 H   0  0  0  0  0  0  0  0  0  0  0  0
  146.8691  143.2403  152.8714 H   0  0  0  0  0  0  0  0  0  0  0  0
  144.7671  142.3222  153.9018 H   0  0  0  0  0  0  0  0  0  0  0  0
  145.4836  142.5746  155.5761 H   0  0  0  0  0  0  0  0  0  0  0  0
  151.5059  138.8758  155.7656 H   0  0  0  0  0  0  0  0  0  0  0  0
  151.4645  140.3691  154.9150 H   0  0  0  0  0  0  0  0  0  0  0  0
  150.9124  142.2894  156.6800 H   0  0  0  0  0  0  0  0  0  0  0  0
  153.2541  142.7768  158.1463 H   0  0  0  0  0  0  0  0  0  0  0  0
  150.9189  141.7867  159.8606 H   0  0  0  0  0  0  0  0  0  0  0  0
  152.4852  141.0249  159.7311 H   0  0  0  0  0  0  0  0  0  0  0  0
  152.3073  142.3933  161.8061 H   0  0  0  0  0  0  0  0  0  0  0  0
  153.5862  142.9712  160.7653 H   0  0  0  0  0  0  0  0  0  0  0  0
  150.7887  144.1801  161.0212 H   0  0  0  0  0  0  0  0  0  0  0  0
  152.2739  144.8884  161.6095 H   0  0  0  0  0  0  0  0  0  0  0  0
  151.5651  145.9122  159.4379 H   0  0  0  0  0  0  0  0  0  0  0  0
  153.1289  145.1439  159.3045 H   0  0  0  0  0  0  0  0  0  0  0  0
  151.7414  144.5516  157.3513 H   0  0  0  0  0  0  0  0  0  0  0  0
  150.4584  143.9764  158.3890 H   0  0  0  0  0  0  0  0  0  0  0  0
  1  2  3  0  0  0  0
  2  3  1  0  0  0  0
  3 22  1  0  0  0  0
  3  4  2  0  0  0  0
  4  5  1  0  0  0  0
  4 24  1  0  0  0  0
  5  6  1  0  0  0  0
  5  9  1  0  0  0  0
  6  8  1  0  0  0  0
  6  7  1  0  0  0  0
  6 25  1  0  0  0  0
  7  8  1  0  0  0  0
  7 26  1  0  0  0  0
  7 27  1  0  0  0  0
  8 28  1  0  0  0  0
  8 29  1  0  0  0  0
  9 10  2  0  0  0  0
  9 11  1  0  0  0  0
 11 12  1  0  0  0  0
 11 22  1  0  0  0  0
 12 13  1  0  0  0  0
 12 30  1  0  0  0  0
 12 31  1  0  0  0  0
 13 14  2  0  0  0  0
 13 15  1  0  0  0  0
 15 16  1  0  0  0  0
 15 32  1  0  0  0  0
 16 21  1  0  0  0  0
 16 17  1  0  0  0  0
 16 33  1  0  0  0  0
 17 18  1  0  0  0  0
 17 34  1  0  0  0  0
 17 35  1  0  0  0  0
 18 19  1  0  0  0  0
 18 36  1  0  0  0  0
 18 37  1  0  0  0  0
 19 20  1  0  0  0  0
 19 38  1  0  0  0  0
 19 39  1  0  0  0  0
 20 21  1  0  0  0  0
 20 40  1  0  0  0  0
 20 41  1  0  0  0  0
 21 42  1  0  0  0  0
 21 43  1  0  0  0  0
 22 23  2  0  0  0  0
M  END
> <s_m_source_file>
AV-unprocessed.smi

> <i_m_source_file_index>
1953

> <i_lp_mmshare_version>
43012

> <i_f3d_flags>
0

> <s_epik_input>
TiNDYzFbY0hdbihbQ0hdMltDSDJdW0NIMl0yKWMoPU8pbihjMT1PKVtDSDJdQyg9TylbTkhdW0NIXTNbQ0gyXVtDSDJdW0NIMl1bQ0gyXVtDSDJdMw==

> <s_epik_cmdline>
J2VwaWtfcHl0aG9uJywgJy1waCcsICc3LjAnLCAnLXRuJywgJzgnLCAnLW1hJywgJzIwMCcsICctbWV0YWxfYmluZGluZycsICctaW1hZScsICc8aW5maWxlLm1hZT4nLCAnLW9tYWUnLCAnPG91dGZpbGUubWFlPic=

> <r_lp_tautomer_probability>
1

> <r_epik_Ionization_Penalty>
1.91355e-08

> <r_epik_Ionization_Penalty_Charging>
8.86257e-11

> <r_epik_Ionization_Penalty_Neutral>
1.90469e-08

> <r_epik_State_Penalty>
-0

> <r_epik_Charging_Adjusted_Penalty>
8.86257e-11

> <i_epik_Tot_Q>
0

> <i_epik_Tot_abs_Q>
0

> <r_epik_Metal_State_Penalty>
-0

> <b_epik_Metal_Only>
0

> <s_lp_Force_Field>
OPLS_2005

> <r_lp_Energy>
34.5376

> <b_lp_Chiralities_Consistent>
1

> <s_lp_Variant>
AV-unprocessed.smi:1953-1

> <Gold.Version>
5.8.1

> <Gold.Id.Protein>
6NUR|6NUR_protein|mol2

> <Gold.PLP.Fitness>
44.5283

> <Gold.PLP.PLP>
-37.7252

> <Gold.PLP.part.hbond>
-4.0000

> <Gold.PLP.part.metal>
0.0000

> <Gold.PLP.part.buried>
-1.0213

> <Gold.PLP.part.nonpolar>
-32.4503

> <Gold.PLP.part.repulsive>
0.3291

> <Gold.PLP.ligand.clash>
0.0000

> <Gold.PLP.ligand.torsion>
0.2728

> <Gold.PLP.Chemscore.Hbond>
2.3835

> <Gold.PLP.Chemscore.CHOScore>
0.0000

> <Gold.PLP.Chemscore.Metal>
0.0000

> <Gold.Chemscore.Hbonds>
donor molecule, donor type, donor heavy atom, donor atom, acceptor molecule, acceptor atom, score
      P1  H  6934  6947       L1     1  0.53
      P1  H  7989  7998       L1    10  0.22
      P1  H  7997  8009       L1    14  0.98
      P1  H  8011  8017       L1    10  0.59

> <Gold.PLP.Chemscore.Internal.Correction>
0.1983

> <Gold.Rescore>
     Score         DG    S(hbond)    S(metal)    S(lipo)     H(rot)  DE(clash)    DE(int)     intcor
     15.64     -18.75       1.95        0.00      95.47       1.73       0.93       2.18       ----

> <Gold.Chemscore.Fitness>
15.6379

> <Gold.Chemscore.DG>
-18.7461

> <Gold.Chemscore.ZeroCoef>
-5.4800

> <Gold.Chemscore.Hbond>
1.9533

> <Gold.Chemscore.Metal>
0.0000

> <Gold.Chemscore.Lipo>
95.4728

> <Gold.Chemscore.Internal_Hbond>
0.0000

> <Gold.Chemscore.DEClash>
0.9263

> <Gold.Chemscore.DEInternal>
2.1820

> <Gold.Chemscore.Rot>
1.7298

> <Gold.Chemscore.Internal.Correction>
   9.000000E+99

> <Gold.Chemscore.Hbonds>
donor molecule, donor type, donor heavy atom, donor atom, acceptor molecule, acceptor atom, score
      P1  H  6934  6947       L1     1  0.38
      P1  H  7989  7998       L1    10  0.21
      P1  H  7997  8009       L1    14  0.86
      P1  H  8011  8017       L1    10  0.59

> <Gold.Chemscore.Hbond.Weighted>
-6.5241

> <Gold.Chemscore.Metal.Weighted>
-0.0000

> <Gold.Chemscore.Lipo.Weighted>
-11.1703

> <Gold.Chemscore.Internal_Hbond.Weighted>
0.0000

> <Gold.Chemscore.DEClash.Weighted>
0.9263

> <Gold.Chemscore.DEInternal.Weighted>
2.1820

> <Gold.Chemscore.Rot.Weighted>
4.4284

> <Gold.Chemscore.Internal.Correction.Weighted>
   9.000000E+99

> <Gold.Protein.RotatedTorsions>
[ 6907 6896 6895 6894 ] final   99.25 input  -60.11 | X-H torsion
[ 7974 7965 7964 7962 ] final  -21.30 input  175.53 | X-H torsion
[ 8008 7997 7996 7995 ] final  154.39 input   59.86 | X-H torsion
[ 10167 10162 10161 10158 ] final  -22.85 input  -65.29 | X-H torsion
[ 10718 10713 10712 10709 ] final   52.11 input   66.30 | X-H torsion
[ 10763 10752 10751 10750 ] final  -60.67 input  -60.55 | X-H torsion
[ 11005 11000 10999 10996 ] final  -72.49 input  -57.11 | X-H torsion

> <Gold.Protein.ActiveResidues>
 VAL166  LYS551  ARG553  GLY616  TRP617  ASP618  TYR619  PRO620  LYS621  CYS622 
 ASP623  PHE694  ASN695  SER759  ASP760  ASP761  ALA762  ILE779  LEU786  VAL792 
 PHE793  MET794  SER795  GLU796  ALA797  LYS798  CYS799  TRP800  GLU811  SER814 

> <Gold.Protein.RotatedAtoms>
  152.5395  134.0456  159.8086 H   0  0  0  0  0  0  0  0  0  0  0  0  # atno 6907 bound_to 6896
  151.0606  133.5540  159.2642 H   0  0  0  0  0  0  0  0  0  0  0  0  # atno 6908 bound_to 6896
  151.2440  135.0607  159.9090 H   0  0  0  0  0  0  0  0  0  0  0  0  # atno 6909 bound_to 6896
  146.1741  140.4322  142.8521 H   0  0  0  0  0  0  0  0  0  0  0  0  # atno 7974 bound_to 7965
  156.2533  140.1968  156.6639 H   0  0  0  0  0  0  0  0  0  0  0  0  # atno 8008 bound_to 7997
  154.6443  140.0579  156.9908 H   0  0  0  0  0  0  0  0  0  0  0  0  # atno 8009 bound_to 7997
  155.1514  140.3251  155.4433 H   0  0  0  0  0  0  0  0  0  0  0  0  # atno 8010 bound_to 7997
  140.7287  143.4497  151.0534 H   0  0  0  0  0  0  0  0  0  0  0  0  # atno 10167 bound_to 10162
  157.5044  130.8459  149.8356 H   0  0  0  0  0  0  0  0  0  0  0  0  # atno 10718 bound_to 10713
  154.2727  135.6287  153.5316 H   0  0  0  0  0  0  0  0  0  0  0  0  # atno 10763 bound_to 10752
  152.9877  135.5614  154.5582 H   0  0  0  0  0  0  0  0  0  0  0  0  # atno 10764 bound_to 10752
  154.5155  135.2879  155.1282 H   0  0  0  0  0  0  0  0  0  0  0  0  # atno 10765 bound_to 10752
  141.1609  133.6848  156.7067 H   0  0  0  0  0  0  0  0  0  0  0  0  # atno 11005 bound_to 11000
  144.8208  140.6546  143.6354 LP  0  0  0  0  0  0  0  0  0  0  0  0  # atno 17320 bound_to 7965
  145.4261  139.1556  143.4047 LP  0  0  0  0  0  0  0  0  0  0  0  0  # atno 17321 bound_to 7965
  139.8172  143.7869  152.3175 LP  0  0  0  0  0  0  0  0  0  0  0  0  # atno 17342 bound_to 10162
  139.7939  144.7400  150.9916 LP  0  0  0  0  0  0  0  0  0  0  0  0  # atno 17343 bound_to 10162
  156.0249  130.3783  150.1852 LP  0  0  0  0  0  0  0  0  0  0  0  0  # atno 17370 bound_to 10713
  157.0042  130.9931  151.3383 LP  0  0  0  0  0  0  0  0  0  0  0  0  # atno 17371 bound_to 10713
  140.2918  134.8235  157.4023 LP  0  0  0  0  0  0  0  0  0  0  0  0  # atno 17394 bound_to 11000
  140.1340  134.5058  155.8083 LP  0  0  0  0  0  0  0  0  0  0  0  0  # atno 17395 bound_to 11000

$$$$
