AV-unprocessed.smi:2822|AV-procd|sdf|10875|dock4
  -GOLD-   2272015313D 1   1.00000     0.00000
 Structure written by MMmdl.
 40 42  0  0  0  0  0  0  0  0  2 V2000
  142.5372  134.0054  152.4959 Cl  0  0  0  0  0  0  0  0  0  0  0  0
  143.9365  133.3180  151.7473 C   0  0  0  0  0  0  0  0  0  0  0  0
  143.9626  131.9413  151.4447 C   0  0  0  0  0  0  0  0  0  0  0  0
  145.0132  131.3280  150.8606 N   0  0  0  0  0  0  0  0  0  0  0  0
  146.0896  132.0814  150.5547 C   0  0  0  0  0  0  0  0  0  0  0  0
  146.1681  133.4646  150.8134 C   0  0  0  0  0  0  0  0  0  0  0  0
  145.0657  134.1061  151.4259 C   0  0  0  0  0  0  0  0  0  0  0  0
  145.0578  135.4775  151.7228 N   0  0  0  0  0  0  0  0  0  0  0  0
  146.1276  136.3509  151.2654 C   0  0  0  0  0  0  0  0  0  0  0  0
  145.9723  137.7707  151.8280 C   0  0  1  0  0  0  0  0  0  0  0  0
  146.1017  137.7950  153.3621 C   0  0  0  0  0  0  0  0  0  0  0  0
  146.0159  139.1839  153.8703 N   0  3  1  0  0  0  0  0  0  0  0  0
  146.0953  139.2519  155.3516 C   0  0  0  0  0  0  0  0  0  0  0  0
  145.9078  140.6940  155.8501 C   0  0  0  0  0  0  0  0  0  0  0  0
  146.9298  141.6345  155.1986 C   0  0  0  0  0  0  0  0  0  0  0  0
  146.8467  141.5239  153.6703 C   0  0  0  0  0  0  0  0  0  0  0  0
  147.0153  140.0637  153.2051 C   0  0  2  0  0  0  0  0  0  0  0  0
  146.8849  139.9448  151.6741 C   0  0  0  0  0  0  0  0  0  0  0  0
  147.0058  138.5836  151.2821 O   0  0  0  0  0  0  0  0  0  0  0  0
  143.1149  131.3140  151.6783 H   0  0  0  0  0  0  0  0  0  0  0  0
  146.9164  131.5657  150.0891 H   0  0  0  0  0  0  0  0  0  0  0  0
  147.0642  134.0012  150.5409 H   0  0  0  0  0  0  0  0  0  0  0  0
  144.2043  135.8968  152.0643 H   0  0  0  0  0  0  0  0  0  0  0  0
  147.0790  135.9332  151.5967 H   0  0  0  0  0  0  0  0  0  0  0  0
  146.1444  136.3762  150.1752 H   0  0  0  0  0  0  0  0  0  0  0  0
  144.9963  138.1665  151.5391 H   0  0  0  0  0  0  0  0  0  0  0  0
  145.3094  137.1945  153.8111 H   0  0  0  0  0  0  0  0  0  0  0  0
  147.0515  137.3521  153.6672 H   0  0  0  0  0  0  0  0  0  0  0  0
  145.3271  138.6125  155.7885 H   0  0  0  0  0  0  0  0  0  0  0  0
  147.0590  138.8635  155.6844 H   0  0  0  0  0  0  0  0  0  0  0  0
  144.8971  141.0340  155.6204 H   0  0  0  0  0  0  0  0  0  0  0  0
  146.0077  140.7298  156.9354 H   0  0  0  0  0  0  0  0  0  0  0  0
  146.7502  142.6633  155.5125 H   0  0  0  0  0  0  0  0  0  0  0  0
  147.9354  141.3765  155.5337 H   0  0  0  0  0  0  0  0  0  0  0  0
  145.8854  141.9122  153.3301 H   0  0  0  0  0  0  0  0  0  0  0  0
  147.6123  142.1530  153.2146 H   0  0  0  0  0  0  0  0  0  0  0  0
  148.0109  139.7194  153.4911 H   0  0  0  0  0  0  0  0  0  0  0  0
  145.9333  140.3501  151.3258 H   0  0  0  0  0  0  0  0  0  0  0  0
  147.6719  140.5188  151.1840 H   0  0  0  0  0  0  0  0  0  0  0  0
  145.1040  139.5330  153.6116 H   0  0  0  0  0  0  0  0  0  0  0  0
  1  2  1  0  0  0  0
  2  7  1  0  0  0  0
  2  3  2  0  0  0  0
  3  4  1  0  0  0  0
  3 20  1  0  0  0  0
  4  5  2  0  0  0  0
  5  6  1  0  0  0  0
  5 21  1  0  0  0  0
  6  7  2  0  0  0  0
  6 22  1  0  0  0  0
  7  8  1  0  0  0  0
  8  9  1  0  0  0  0
  8 23  1  0  0  0  0
  9 10  1  0  0  0  0
  9 24  1  0  0  0  0
  9 25  1  0  0  0  0
 10 19  1  0  0  0  0
 10 11  1  0  0  0  0
 10 26  1  0  0  0  0
 11 12  1  0  0  0  0
 11 27  1  0  0  0  0
 11 28  1  0  0  0  0
 12 17  1  0  0  0  0
 12 13  1  0  0  0  0
 12 40  1  0  0  0  0
 13 14  1  0  0  0  0
 13 29  1  0  0  0  0
 13 30  1  0  0  0  0
 14 15  1  0  0  0  0
 14 31  1  0  0  0  0
 14 32  1  0  0  0  0
 15 16  1  0  0  0  0
 15 33  1  0  0  0  0
 15 34  1  0  0  0  0
 16 17  1  0  0  0  0
 16 35  1  0  0  0  0
 16 36  1  0  0  0  0
 17 18  1  0  0  0  0
 17 37  1  0  0  0  0
 18 19  1  0  0  0  0
 18 38  1  0  0  0  0
 18 39  1  0  0  0  0
M  CHG  1  12   1
M  END
> <s_m_source_file>
AV-unprocessed.smi

> <i_m_source_file_index>
2822

> <i_lp_mmshare_version>
43012

> <i_f3d_flags>
0

> <s_epik_input>
Q2xjMVtjSF1uW2NIXVtjSF1jMVtOSF1bQ0gyXVtDQEhdKFtDSDJdMilPW0NIMl1bQ0BASF0oTjIzKVtDSDJdW0NIMl1bQ0gyXVtDSDJdMw==

> <s_epik_cmdline>
J2VwaWtfcHl0aG9uJywgJy1waCcsICc3LjAnLCAnLXRuJywgJzgnLCAnLW1hJywgJzIwMCcsICctbWV0YWxfYmluZGluZycsICctaW1hZScsICc8aW5maWxlLm1hZT4nLCAnLW9tYWUnLCAnPG91dGZpbGUubWFlPic=

> <r_lp_tautomer_probability>
0.999999

> <r_epik_Ionization_Penalty>
0.88937

> <r_epik_Ionization_Penalty_Charging>
0.0803403

> <r_epik_Ionization_Penalty_Neutral>
0.80903

> <r_epik_State_Penalty>
0.931884

> <r_epik_Charging_Adjusted_Penalty>
1.01222

> <i_epik_Tot_Q>
1

> <i_epik_Tot_abs_Q>
1

> <r_epik_Metal_State_Penalty>
0.0782275

> <b_epik_Metal_Only>
0

> <s_lp_Force_Field>
OPLS_2005

> <r_lp_Energy>
28.742

> <b_lp_Chiralities_Consistent>
1

> <s_lp_Variant>
AV-unprocessed.smi:2822-16

> <Gold.Version>
5.8.1

> <Gold.Id.Protein>
6NUR|6NUR_protein|mol2

> <Gold.PLP.Fitness>
40.7380

> <Gold.PLP.PLP>
-28.8317

> <Gold.PLP.part.hbond>
-2.0837

> <Gold.PLP.part.metal>
0.0000

> <Gold.PLP.part.buried>
3.2761

> <Gold.PLP.part.nonpolar>
-31.1935

> <Gold.PLP.part.repulsive>
1.3997

> <Gold.PLP.ligand.clash>
0.0000

> <Gold.PLP.ligand.torsion>
0.0360

> <Gold.PLP.Chemscore.Hbond>
2.9920

> <Gold.PLP.Chemscore.CHOScore>
1.0000

> <Gold.PLP.Chemscore.Metal>
0.0000

> <Gold.Chemscore.Hbonds>
donor molecule, donor type, donor heavy atom, donor atom, acceptor molecule, acceptor atom, score
      L1  H    12    40       P1 10175  1.92
      P1  H  7954  7966       L1    19  1.00
      L1  C     5    21       P1 10747  1.00

> <Gold.PLP.Chemscore.Internal.Correction>
0.0023

> <Gold.Rescore>
     Score         DG    S(hbond)    S(metal)    S(lipo)     H(rot)  DE(clash)    DE(int)     intcor
     17.02     -20.11       1.91        0.00      96.02       1.17       2.94       0.15       ----

> <Gold.Chemscore.Fitness>
17.0228

> <Gold.Chemscore.DG>
-20.1102

> <Gold.Chemscore.ZeroCoef>
-5.4800

> <Gold.Chemscore.Hbond>
1.9129

> <Gold.Chemscore.Metal>
0.0000

> <Gold.Chemscore.Lipo>
96.0216

> <Gold.Chemscore.Internal_Hbond>
0.0000

> <Gold.Chemscore.DEClash>
2.9414

> <Gold.Chemscore.DEInternal>
0.1459

> <Gold.Chemscore.Rot>
1.1693

> <Gold.Chemscore.Internal.Correction>
   9.000000E+99

> <Gold.Chemscore.Hbonds>
donor molecule, donor type, donor heavy atom, donor atom, acceptor molecule, acceptor atom, score
      L1  H    12    40       P1 10175  0.89
      P1  H  7954  7966       L1    19  0.94

> <Gold.Chemscore.Hbond.Weighted>
-6.3890

> <Gold.Chemscore.Metal.Weighted>
-0.0000

> <Gold.Chemscore.Lipo.Weighted>
-11.2345

> <Gold.Chemscore.Internal_Hbond.Weighted>
0.0000

> <Gold.Chemscore.DEClash.Weighted>
2.9414

> <Gold.Chemscore.DEInternal.Weighted>
0.1459

> <Gold.Chemscore.Rot.Weighted>
2.9934

> <Gold.Chemscore.Internal.Correction.Weighted>
   9.000000E+99

> <Gold.Protein.RotatedTorsions>
[ 6907 6896 6895 6894 ] final   98.58 input  -60.11 | X-H torsion
[ 7974 7965 7964 7962 ] final   73.49 input  175.53 | X-H torsion
[ 8008 7997 7996 7995 ] final   60.74 input   59.86 | X-H torsion
[ 10167 10162 10161 10158 ] final   20.76 input  -65.29 | X-H torsion
[ 10718 10713 10712 10709 ] final   30.25 input   66.30 | X-H torsion
[ 10763 10752 10751 10750 ] final   48.02 input  -60.55 | X-H torsion
[ 11005 11000 10999 10996 ] final -174.49 input  -57.11 | X-H torsion

> <Gold.Protein.ActiveResidues>
 VAL166  LYS551  ARG553  GLY616  TRP617  ASP618  TYR619  PRO620  LYS621  CYS622 
 ASP623  PHE694  ASN695  SER759  ASP760  ASP761  ALA762  ILE779  LEU786  VAL792 
 PHE793  MET794  SER795  GLU796  ALA797  LYS798  CYS799  TRP800  GLU811  SER814 

> <Gold.Protein.RotatedAtoms>
  152.5407  134.0559  159.8130 H   0  0  0  0  0  0  0  0  0  0  0  0  # atno 6907 bound_to 6896
  151.0694  133.5471  159.2635 H   0  0  0  0  0  0  0  0  0  0  0  0  # atno 6908 bound_to 6896
  151.2340  135.0573  159.9053 H   0  0  0  0  0  0  0  0  0  0  0  0  # atno 6909 bound_to 6896
  145.7403  139.2718  143.1490 H   0  0  0  0  0  0  0  0  0  0  0  0  # atno 7974 bound_to 7965
  155.5872  140.3492  155.4556 H   0  0  0  0  0  0  0  0  0  0  0  0  # atno 8008 bound_to 7997
  156.0328  140.1278  157.0264 H   0  0  0  0  0  0  0  0  0  0  0  0  # atno 8009 bound_to 7997
  154.4359  140.1040  156.6110 H   0  0  0  0  0  0  0  0  0  0  0  0  # atno 8010 bound_to 7997
  140.5479  143.9562  150.6559 H   0  0  0  0  0  0  0  0  0  0  0  0  # atno 10167 bound_to 10162
  157.2571  130.7143  149.6435 H   0  0  0  0  0  0  0  0  0  0  0  0  # atno 10718 bound_to 10713
  152.9795  135.5957  154.3858 H   0  0  0  0  0  0  0  0  0  0  0  0  # atno 10763 bound_to 10752
  154.3518  135.2767  155.2370 H   0  0  0  0  0  0  0  0  0  0  0  0  # atno 10764 bound_to 10752
  154.4406  135.6014  153.6182 H   0  0  0  0  0  0  0  0  0  0  0  0  # atno 10765 bound_to 10752
  140.4740  134.6138  157.4893 H   0  0  0  0  0  0  0  0  0  0  0  0  # atno 11005 bound_to 11000
  146.0454  140.8123  142.9808 LP  0  0  0  0  0  0  0  0  0  0  0  0  # atno 17320 bound_to 7965
  144.6872  140.2973  143.7269 LP  0  0  0  0  0  0  0  0  0  0  0  0  # atno 17321 bound_to 7965
  140.2980  143.3280  152.0999 LP  0  0  0  0  0  0  0  0  0  0  0  0  # atno 17342 bound_to 10162
  139.5015  144.6715  151.6232 LP  0  0  0  0  0  0  0  0  0  0  0  0  # atno 17343 bound_to 10162
  155.9665  130.4409  150.5319 LP  0  0  0  0  0  0  0  0  0  0  0  0  # atno 17370 bound_to 10713
  157.3215  131.0683  151.1928 LP  0  0  0  0  0  0  0  0  0  0  0  0  # atno 17371 bound_to 10713
  139.9867  134.7049  155.9761 LP  0  0  0  0  0  0  0  0  0  0  0  0  # atno 17394 bound_to 11000
  141.1563  133.6542  156.4173 LP  0  0  0  0  0  0  0  0  0  0  0  0  # atno 17395 bound_to 11000

$$$$
