AV-unprocessed.smi:3024|AV-procd|sdf|11503|dock4
  -GOLD-   2272016443D 1   1.00000     0.00000
 Structure written by MMmdl.
 31 32  0  0  0  0  0  0  0  0  1 V2000
  150.3202  140.5086  156.6005 O   0  0  0  0  0  0  0  0  0  0  0  0
  149.9658  141.6765  156.4418 C   0  0  0  0  0  0  0  0  0  0  0  0
  149.0655  142.0595  155.5255 N   0  0  0  0  0  0  0  0  0  0  0  0
  148.3960  141.1693  154.5836 C   0  0  0  0  0  0  0  0  0  0  0  0
  146.8912  141.4719  154.4940 C   0  0  2  0  0  0  0  0  0  0  0  0
  146.5759  142.9092  154.0841 C   0  0  0  0  0  0  0  0  0  0  0  0
  145.1932  143.1546  154.6689 C   0  0  0  0  0  0  0  0  0  0  0  0
  144.9956  142.0036  155.6598 C   0  0  0  0  0  0  0  0  0  0  0  0
  146.2694  141.3842  155.7661 O   0  0  0  0  0  0  0  0  0  0  0  0
  150.4001  142.7249  157.1621 N   0  0  0  0  0  0  0  0  0  0  0  0
  151.3536  142.7372  158.2156 C   0  0  0  0  0  0  0  0  0  0  0  0
  151.8398  141.4989  158.6831 C   0  0  0  0  0  0  0  0  0  0  0  0
  152.7722  141.4812  159.7376 C   0  0  0  0  0  0  0  0  0  0  0  0
  153.1770  142.7100  160.2938 C   0  0  0  0  0  0  0  0  0  0  0  0
  152.7100  143.9033  159.8700 N   0  0  0  0  0  0  0  0  0  0  0  0
  151.8172  143.9131  158.8564 C   0  0  0  0  0  0  0  0  0  0  0  0
  148.8303  143.0395  155.4695 H   0  0  0  0  0  0  0  0  0  0  0  0
  148.8621  141.2204  153.5981 H   0  0  0  0  0  0  0  0  0  0  0  0
  148.5400  140.1488  154.9390 H   0  0  0  0  0  0  0  0  0  0  0  0
  146.4019  140.7775  153.8078 H   0  0  0  0  0  0  0  0  0  0  0  0
  147.2896  143.5967  154.5402 H   0  0  0  0  0  0  0  0  0  0  0  0
  146.6126  143.0555  153.0043 H   0  0  0  0  0  0  0  0  0  0  0  0
  145.1484  144.1249  155.1648 H   0  0  0  0  0  0  0  0  0  0  0  0
  144.4222  143.1358  153.8978 H   0  0  0  0  0  0  0  0  0  0  0  0
  144.6419  142.3435  156.6336 H   0  0  0  0  0  0  0  0  0  0  0  0
  144.2776  141.2811  155.2696 H   0  0  0  0  0  0  0  0  0  0  0  0
  149.9536  143.6097  156.9713 H   0  0  0  0  0  0  0  0  0  0  0  0
  151.5073  140.5724  158.2381 H   0  0  0  0  0  0  0  0  0  0  0  0
  153.1668  140.5485  160.1125 H   0  0  0  0  0  0  0  0  0  0  0  0
  153.8898  142.7344  161.1048 H   0  0  0  0  0  0  0  0  0  0  0  0
  151.4609  144.8932  158.5804 H   0  0  0  0  0  0  0  0  0  0  0  0
  1  2  2  0  0  0  0
  2  3  1  0  0  0  0
  2 10  1  0  0  0  0
  3  4  1  0  0  0  0
  3 17  1  0  0  0  0
  4  5  1  0  0  0  0
  4 18  1  0  0  0  0
  4 19  1  0  0  0  0
  5  9  1  0  0  0  0
  5  6  1  0  0  0  0
  5 20  1  0  0  0  0
  6  7  1  0  0  0  0
  6 21  1  0  0  0  0
  6 22  1  0  0  0  0
  7  8  1  0  0  0  0
  7 23  1  0  0  0  0
  7 24  1  0  0  0  0
  8  9  1  0  0  0  0
  8 25  1  0  0  0  0
  8 26  1  0  0  0  0
 10 11  1  0  0  0  0
 10 27  1  0  0  0  0
 11 16  1  0  0  0  0
 11 12  2  0  0  0  0
 12 13  1  0  0  0  0
 12 28  1  0  0  0  0
 13 14  2  0  0  0  0
 13 29  1  0  0  0  0
 14 15  1  0  0  0  0
 14 30  1  0  0  0  0
 15 16  2  0  0  0  0
 16 31  1  0  0  0  0
M  END
> <s_m_source_file>
AV-unprocessed.smi

> <i_m_source_file_index>
3024

> <i_lp_mmshare_version>
43012

> <i_f3d_flags>
0

> <s_epik_input>
W2NIXTFuW2NIXVtjSF1bY0hdYzFbTkhdQyg9TylbTkhdW0NIMl1bQ0BASF0yW0NIMl1bQ0gyXVtDSDJdTzI=

> <s_epik_cmdline>
J2VwaWtfcHl0aG9uJywgJy1waCcsICc3LjAnLCAnLXRuJywgJzgnLCAnLW1hJywgJzIwMCcsICctbWV0YWxfYmluZGluZycsICctaW1hZScsICc8aW5maWxlLm1hZT4nLCAnLW9tYWUnLCAnPG91dGZpbGUubWFlPic=

> <r_epik_Ionization_Penalty>
0.00471982

> <r_epik_Ionization_Penalty_Charging>
0

> <r_epik_Ionization_Penalty_Neutral>
0.00471982

> <r_epik_State_Penalty>
0.00339234

> <r_epik_Charging_Adjusted_Penalty>
0.00339234

> <i_epik_Tot_Q>
0

> <i_epik_Tot_abs_Q>
0

> <r_epik_Metal_State_Penalty>
-0

> <b_epik_Metal_Only>
0

> <s_lp_Force_Field>
OPLS_2005

> <r_lp_Energy>
19.771

> <b_lp_Chiralities_Consistent>
1

> <s_lp_Variant>
AV-unprocessed.smi:3024-1

> <Gold.Version>
5.8.1

> <Gold.Id.Protein>
6NUR|6NUR_protein|mol2

> <Gold.PLP.Fitness>
39.5892

> <Gold.PLP.PLP>
-33.9195

> <Gold.PLP.part.hbond>
-2.0000

> <Gold.PLP.part.metal>
0.0000

> <Gold.PLP.part.buried>
-5.9081

> <Gold.PLP.part.nonpolar>
-27.1685

> <Gold.PLP.part.repulsive>
0.3131

> <Gold.PLP.ligand.clash>
0.0000

> <Gold.PLP.ligand.torsion>
0.1092

> <Gold.PLP.Chemscore.Hbond>
1.9600

> <Gold.PLP.Chemscore.CHOScore>
0.0000

> <Gold.PLP.Chemscore.Metal>
0.0000

> <Gold.Chemscore.Hbonds>
donor molecule, donor type, donor heavy atom, donor atom, acceptor molecule, acceptor atom, score
      L1  H     3    17       P1  8028  1.00
      L1  H    10    27       P1  8028  0.96

> <Gold.PLP.Chemscore.Internal.Correction>
0.0082

> <Gold.Rescore>
     Score         DG    S(hbond)    S(metal)    S(lipo)     H(rot)  DE(clash)    DE(int)     intcor
     16.95     -18.50       1.98        0.00      82.00       1.24       0.00       1.55       ----

> <Gold.Chemscore.Fitness>
16.9493

> <Gold.Chemscore.DG>
-18.5025

> <Gold.Chemscore.ZeroCoef>
-5.4800

> <Gold.Chemscore.Hbond>
1.9760

> <Gold.Chemscore.Metal>
0.0000

> <Gold.Chemscore.Lipo>
82.0048

> <Gold.Chemscore.Internal_Hbond>
0.0000

> <Gold.Chemscore.DEClash>
0.0015

> <Gold.Chemscore.DEInternal>
1.5517

> <Gold.Chemscore.Rot>
1.2390

> <Gold.Chemscore.Internal.Correction>
   9.000000E+99

> <Gold.Chemscore.Hbonds>
donor molecule, donor type, donor heavy atom, donor atom, acceptor molecule, acceptor atom, score
      L1  H     3    17       P1  8028  1.00
      L1  H    10    27       P1  8028  0.87

> <Gold.Chemscore.Hbond.Weighted>
-6.5997

> <Gold.Chemscore.Metal.Weighted>
-0.0000

> <Gold.Chemscore.Lipo.Weighted>
-9.5946

> <Gold.Chemscore.Internal_Hbond.Weighted>
0.0000

> <Gold.Chemscore.DEClash.Weighted>
0.0015

> <Gold.Chemscore.DEInternal.Weighted>
1.5517

> <Gold.Chemscore.Rot.Weighted>
3.1718

> <Gold.Chemscore.Internal.Correction.Weighted>
   9.000000E+99

> <Gold.Protein.RotatedTorsions>
[ 6907 6896 6895 6894 ] final  -68.45 input  -60.11 | X-H torsion
[ 7974 7965 7964 7962 ] final -105.44 input  175.53 | X-H torsion
[ 8008 7997 7996 7995 ] final -123.76 input   59.86 | X-H torsion
[ 10167 10162 10161 10158 ] final  -91.55 input  -65.29 | X-H torsion
[ 10718 10713 10712 10709 ] final  159.68 input   66.30 | X-H torsion
[ 10763 10752 10751 10750 ] final  115.67 input  -60.55 | X-H torsion
[ 11005 11000 10999 10996 ] final  -73.56 input  -57.11 | X-H torsion

> <Gold.Protein.ActiveResidues>
 VAL166  LYS551  ARG553  GLY616  TRP617  ASP618  TYR619  PRO620  LYS621  CYS622 
 ASP623  PHE694  ASN695  SER759  ASP760  ASP761  ALA762  ILE779  LEU786  VAL792 
 PHE793  MET794  SER795  GLU796  ALA797  LYS798  CYS799  TRP800  GLU811  SER814 

> <Gold.Protein.RotatedAtoms>
  150.7355  134.5737  159.5902 H   0  0  0  0  0  0  0  0  0  0  0  0  # atno 6907 bound_to 6896
  152.3169  134.7425  160.0332 H   0  0  0  0  0  0  0  0  0  0  0  0  # atno 6908 bound_to 6896
  151.7954  133.3328  159.3548 H   0  0  0  0  0  0  0  0  0  0  0  0  # atno 6909 bound_to 6896
  145.2305  140.9168  143.3207 H   0  0  0  0  0  0  0  0  0  0  0  0  # atno 7974 bound_to 7965
  155.1857  140.0412  157.2891 H   0  0  0  0  0  0  0  0  0  0  0  0  # atno 8008 bound_to 7997
  154.6173  140.2492  155.7566 H   0  0  0  0  0  0  0  0  0  0  0  0  # atno 8009 bound_to 7997
  156.2413  140.2902  156.0464 H   0  0  0  0  0  0  0  0  0  0  0  0  # atno 8010 bound_to 7997
  140.3437  143.2928  151.9805 H   0  0  0  0  0  0  0  0  0  0  0  0  # atno 10167 bound_to 10162
  157.1609  131.0587  151.2232 H   0  0  0  0  0  0  0  0  0  0  0  0  # atno 10718 bound_to 10713
  153.5257  135.3588  155.2652 H   0  0  0  0  0  0  0  0  0  0  0  0  # atno 10763 bound_to 10752
  154.8731  135.4056  154.3209 H   0  0  0  0  0  0  0  0  0  0  0  0  # atno 10764 bound_to 10752
  153.3888  135.7071  153.6578 H   0  0  0  0  0  0  0  0  0  0  0  0  # atno 10765 bound_to 10752
  141.1624  133.6882  156.7230 H   0  0  0  0  0  0  0  0  0  0  0  0  # atno 11005 bound_to 11000
  144.9681  139.3909  143.6322 LP  0  0  0  0  0  0  0  0  0  0  0  0  # atno 17320 bound_to 7965
  146.3354  139.8766  142.8831 LP  0  0  0  0  0  0  0  0  0  0  0  0  # atno 17321 bound_to 7965
  139.4836  144.6135  151.7390 LP  0  0  0  0  0  0  0  0  0  0  0  0  # atno 17342 bound_to 10162
  140.5284  144.0769  150.6045 LP  0  0  0  0  0  0  0  0  0  0  0  0  # atno 17343 bound_to 10162
  157.4133  130.7397  149.6856 LP  0  0  0  0  0  0  0  0  0  0  0  0  # atno 17370 bound_to 10713
  155.9754  130.4089  150.3853 LP  0  0  0  0  0  0  0  0  0  0  0  0  # atno 17371 bound_to 10713
  140.2802  134.8323  157.3926 LP  0  0  0  0  0  0  0  0  0  0  0  0  # atno 17394 bound_to 11000
  140.1440  134.4935  155.8010 LP  0  0  0  0  0  0  0  0  0  0  0  0  # atno 17395 bound_to 11000

$$$$
