AV-unprocessed.smi:302|AV-procd|sdf|2273|dock6
  -GOLD-   2262022163D 1   1.00000     0.00000
 Structure written by MMmdl.
 44 45  0  0  0  0  0  0  0  0  1 V2000
  155.1474  141.3959  169.7235 C   0  0  0  0  0  0  0  0  0  0  0  0
  155.2796  141.8780  168.2772 C   0  0  0  0  0  0  0  0  0  0  0  0
  155.6029  140.7642  167.4529 O   0  0  0  0  0  0  0  0  0  0  0  0
  156.2102  141.0830  166.2028 C   0  0  1  0  0  0  0  0  0  0  0  0
  156.6971  139.7565  165.5844 C   0  0  0  0  0  0  0  0  0  0  0  0
  157.5271  138.8847  166.5393 C   0  0  0  0  0  0  0  0  0  0  0  0
  155.2007  141.8123  165.2984 C   0  0  0  0  0  0  0  0  0  0  0  0
  154.5444  142.7494  165.7520 O   0  0  0  0  0  0  0  0  0  0  0  0
  155.1035  141.3488  164.0385 N   0  0  0  0  0  0  0  0  0  0  0  0
  154.2570  141.8017  162.9909 C   0  0  0  0  0  0  0  0  0  0  0  0
  153.3666  142.8960  163.1030 C   0  0  0  0  0  0  0  0  0  0  0  0
  152.5872  143.2561  161.9872 C   0  0  0  0  0  0  0  0  0  0  0  0
  152.7271  142.5201  160.7928 C   0  0  0  0  0  0  0  0  0  0  0  0
  151.9468  142.8717  159.6825 N   0  0  0  0  0  0  0  0  0  0  0  0
  151.9512  141.8648  158.6286 C   0  0  0  0  0  0  0  0  0  0  0  0
  150.9720  142.2675  157.5124 C   0  0  0  0  0  0  0  0  0  0  0  0
  151.3074  143.5644  157.0263 O   0  0  0  0  0  0  0  0  0  0  0  0
  151.2309  144.5551  158.0477 C   0  0  0  0  0  0  0  0  0  0  0  0
  152.2196  144.2106  159.1749 C   0  0  0  0  0  0  0  0  0  0  0  0
  153.5892  141.4828  160.6729 N   0  0  0  0  0  0  0  0  0  0  0  0
  154.3335  141.1431  161.7463 C   0  0  0  0  0  0  0  0  0  0  0  0
  154.9110  142.2252  170.3906 H   0  0  0  0  0  0  0  0  0  0  0  0
  156.0745  140.9403  170.0714 H   0  0  0  0  0  0  0  0  0  0  0  0
  154.3533  140.6546  169.8174 H   0  0  0  0  0  0  0  0  0  0  0  0
  154.3450  142.3437  167.9629 H   0  0  0  0  0  0  0  0  0  0  0  0
  156.0639  142.6332  168.2103 H   0  0  0  0  0  0  0  0  0  0  0  0
  157.0800  141.7186  166.3815 H   0  0  0  0  0  0  0  0  0  0  0  0
  155.8280  139.1821  165.2623 H   0  0  0  0  0  0  0  0  0  0  0  0
  157.2740  139.9536  164.6795 H   0  0  0  0  0  0  0  0  0  0  0  0
  157.7939  137.9403  166.0648 H   0  0  0  0  0  0  0  0  0  0  0  0
  156.9681  138.6539  167.4462 H   0  0  0  0  0  0  0  0  0  0  0  0
  158.4550  139.3765  166.8321 H   0  0  0  0  0  0  0  0  0  0  0  0
  155.6492  140.5254  163.8291 H   0  0  0  0  0  0  0  0  0  0  0  0
  153.2741  143.4707  164.0111 H   0  0  0  0  0  0  0  0  0  0  0  0
  151.8969  144.0847  162.0492 H   0  0  0  0  0  0  0  0  0  0  0  0
  152.9572  141.7629  158.2184 H   0  0  0  0  0  0  0  0  0  0  0  0
  151.6703  140.8952  159.0418 H   0  0  0  0  0  0  0  0  0  0  0  0
  151.0255  141.5546  156.6897 H   0  0  0  0  0  0  0  0  0  0  0  0
  149.9431  142.2587  157.8758 H   0  0  0  0  0  0  0  0  0  0  0  0
  151.4728  145.5278  157.6192 H   0  0  0  0  0  0  0  0  0  0  0  0
  150.2110  144.6201  158.4308 H   0  0  0  0  0  0  0  0  0  0  0  0
  152.1345  144.9372  159.9839 H   0  0  0  0  0  0  0  0  0  0  0  0
  153.2419  144.2631  158.7980 H   0  0  0  0  0  0  0  0  0  0  0  0
  155.0085  140.3113  161.6066 H   0  0  0  0  0  0  0  0  0  0  0  0
  1  2  1  0  0  0  0
  1 22  1  0  0  0  0
  1 23  1  0  0  0  0
  1 24  1  0  0  0  0
  2  3  1  0  0  0  0
  2 25  1  0  0  0  0
  2 26  1  0  0  0  0
  3  4  1  0  0  0  0
  4  5  1  0  0  0  0
  4  7  1  0  0  0  0
  4 27  1  0  0  0  0
  5  6  1  0  0  0  0
  5 28  1  0  0  0  0
  5 29  1  0  0  0  0
  6 30  1  0  0  0  0
  6 31  1  0  0  0  0
  6 32  1  0  0  0  0
  7  8  2  0  0  0  0
  7  9  1  0  0  0  0
  9 10  1  0  0  0  0
  9 33  1  0  0  0  0
 10 21  1  0  0  0  0
 10 11  2  0  0  0  0
 11 12  1  0  0  0  0
 11 34  1  0  0  0  0
 12 13  2  0  0  0  0
 12 35  1  0  0  0  0
 13 14  1  0  0  0  0
 13 20  1  0  0  0  0
 14 19  1  0  0  0  0
 14 15  1  0  0  0  0
 15 16  1  0  0  0  0
 15 36  1  0  0  0  0
 15 37  1  0  0  0  0
 16 17  1  0  0  0  0
 16 38  1  0  0  0  0
 16 39  1  0  0  0  0
 17 18  1  0  0  0  0
 18 19  1  0  0  0  0
 18 40  1  0  0  0  0
 18 41  1  0  0  0  0
 19 42  1  0  0  0  0
 19 43  1  0  0  0  0
 20 21  2  0  0  0  0
 21 44  1  0  0  0  0
M  END
> <s_m_source_file>
AV-unprocessed.smi

> <i_m_source_file_index>
302

> <i_lp_mmshare_version>
43012

> <i_f3d_flags>
0

> <s_epik_input>
W0NIM11bQ0gyXU9bQ0BIXShbQ0gyXVtDSDNdKUMoPU8pW05IXWMxW2NIXVtjSF1jKG5bY0hdMSlOMltDSDJdW0NIMl1PW0NIMl1bQ0gyXTI=

> <s_epik_cmdline>
J2VwaWtfcHl0aG9uJywgJy1waCcsICc3LjAnLCAnLXRuJywgJzgnLCAnLW1hJywgJzIwMCcsICctbWV0YWxfYmluZGluZycsICctaW1hZScsICc8aW5maWxlLm1hZT4nLCAnLW9tYWUnLCAnPG91dGZpbGUubWFlPic=

> <r_lp_tautomer_probability>
1

> <r_epik_Ionization_Penalty>
0.000497413

> <r_epik_Ionization_Penalty_Charging>
0

> <r_epik_Ionization_Penalty_Neutral>
0.000497413

> <r_epik_State_Penalty>
0.000308489

> <r_epik_Charging_Adjusted_Penalty>
0.000308489

> <i_epik_Tot_Q>
0

> <i_epik_Tot_abs_Q>
0

> <r_epik_Metal_State_Penalty>
-0

> <b_epik_Metal_Only>
0

> <s_lp_Force_Field>
OPLS_2005

> <r_lp_Energy>
26.1218

> <b_lp_Chiralities_Consistent>
1

> <s_lp_Variant>
AV-unprocessed.smi:302-2

> <Gold.Version>
5.8.1

> <Gold.Id.Protein>
6NUR|6NUR_protein|mol2

> <Gold.PLP.Fitness>
41.6186

> <Gold.PLP.PLP>
-43.3690

> <Gold.PLP.part.hbond>
-1.8990

> <Gold.PLP.part.metal>
0.0000

> <Gold.PLP.part.buried>
-5.4813

> <Gold.PLP.part.nonpolar>
-36.8497

> <Gold.PLP.part.repulsive>
1.0740

> <Gold.PLP.ligand.clash>
0.6441

> <Gold.PLP.ligand.torsion>
0.6258

> <Gold.PLP.Chemscore.Hbond>
0.0000

> <Gold.PLP.Chemscore.CHOScore>
0.0000

> <Gold.PLP.Chemscore.Metal>
0.0000

> <Gold.PLP.Chemscore.Internal.Correction>
0.1453

> <Gold.Rescore>
     Score         DG    S(hbond)    S(metal)    S(lipo)     H(rot)  DE(clash)    DE(int)     intcor
      9.35     -12.90       0.00        0.00      99.03       1.63       0.34       3.21       ----

> <Gold.Chemscore.Fitness>
9.3513

> <Gold.Chemscore.DG>
-12.9044

> <Gold.Chemscore.ZeroCoef>
-5.4800

> <Gold.Chemscore.Hbond>
0.0000

> <Gold.Chemscore.Metal>
0.0000

> <Gold.Chemscore.Lipo>
99.0341

> <Gold.Chemscore.Internal_Hbond>
0.0000

> <Gold.Chemscore.DEClash>
0.3434

> <Gold.Chemscore.DEInternal>
3.2097

> <Gold.Chemscore.Rot>
1.6260

> <Gold.Chemscore.Internal.Correction>
   9.000000E+99

> <Gold.Chemscore.Hbond.Weighted>
-0.0000

> <Gold.Chemscore.Metal.Weighted>
-0.0000

> <Gold.Chemscore.Lipo.Weighted>
-11.5870

> <Gold.Chemscore.Internal_Hbond.Weighted>
0.0000

> <Gold.Chemscore.DEClash.Weighted>
0.3434

> <Gold.Chemscore.DEInternal.Weighted>
3.2097

> <Gold.Chemscore.Rot.Weighted>
4.1626

> <Gold.Chemscore.Internal.Correction.Weighted>
   9.000000E+99

> <Gold.Protein.RotatedTorsions>
[ 6907 6896 6895 6894 ] final  162.27 input  -60.11 | X-H torsion
[ 7974 7965 7964 7962 ] final -174.46 input  175.53 | X-H torsion
[ 8008 7997 7996 7995 ] final  -58.95 input   59.86 | X-H torsion
[ 10167 10162 10161 10158 ] final  156.22 input  -65.29 | X-H torsion
[ 10718 10713 10712 10709 ] final  140.71 input   66.30 | X-H torsion
[ 10763 10752 10751 10750 ] final  -90.34 input  -60.55 | X-H torsion
[ 11005 11000 10999 10996 ] final  -55.29 input  -57.11 | X-H torsion

> <Gold.Protein.ActiveResidues>
 VAL166  LYS551  ARG553  GLY616  TRP617  ASP618  TYR619  PRO620  LYS621  CYS622 
 ASP623  PHE694  ASN695  SER759  ASP760  ASP761  ALA762  ILE779  LEU786  VAL792 
 PHE793  MET794  SER795  GLU796  ALA797  LYS798  CYS799  TRP800  GLU811  SER814 

> <Gold.Protein.RotatedAtoms>
  151.9430  133.3643  159.3971 H   0  0  0  0  0  0  0  0  0  0  0  0  # atno 6907 bound_to 6896
  150.6995  134.4419  159.5305 H   0  0  0  0  0  0  0  0  0  0  0  0  # atno 6908 bound_to 6896
  152.2079  134.8528  160.0551 H   0  0  0  0  0  0  0  0  0  0  0  0  # atno 6909 bound_to 6896
  144.7132  140.1469  143.6387 H   0  0  0  0  0  0  0  0  0  0  0  0  # atno 7974 bound_to 7965
  154.4331  140.1072  156.6038 H   0  0  0  0  0  0  0  0  0  0  0  0  # atno 8008 bound_to 7997
  155.5882  140.3491  155.4540 H   0  0  0  0  0  0  0  0  0  0  0  0  # atno 8009 bound_to 7997
  156.0266  140.1251  157.0291 H   0  0  0  0  0  0  0  0  0  0  0  0  # atno 8010 bound_to 7997
  139.4821  144.5028  151.8143 H   0  0  0  0  0  0  0  0  0  0  0  0  # atno 10167 bound_to 10162
  157.4002  131.1016  151.0559 H   0  0  0  0  0  0  0  0  0  0  0  0  # atno 10718 bound_to 10713
  154.6647  135.5308  153.8062 H   0  0  0  0  0  0  0  0  0  0  0  0  # atno 10763 bound_to 10752
  153.0464  135.6514  154.0817 H   0  0  0  0  0  0  0  0  0  0  0  0  # atno 10764 bound_to 10752
  154.0722  135.2953  155.3286 H   0  0  0  0  0  0  0  0  0  0  0  0  # atno 10765 bound_to 10752
  141.1067  133.6613  156.4448 H   0  0  0  0  0  0  0  0  0  0  0  0  # atno 11005 bound_to 11000
  145.9152  139.2511  143.1414 LP  0  0  0  0  0  0  0  0  0  0  0  0  # atno 17320 bound_to 7965
  145.9676  140.8786  143.0179 LP  0  0  0  0  0  0  0  0  0  0  0  0  # atno 17321 bound_to 7965
  140.4523  144.1838  150.5898 LP  0  0  0  0  0  0  0  0  0  0  0  0  # atno 17342 bound_to 10162
  140.4572  143.2463  151.9269 LP  0  0  0  0  0  0  0  0  0  0  0  0  # atno 17343 bound_to 10162
  157.1561  130.6205  149.5596 LP  0  0  0  0  0  0  0  0  0  0  0  0  # atno 17370 bound_to 10713
  155.9821  130.4833  150.6864 LP  0  0  0  0  0  0  0  0  0  0  0  0  # atno 17371 bound_to 10713
  140.4884  134.6598  157.5200 LP  0  0  0  0  0  0  0  0  0  0  0  0  # atno 17394 bound_to 11000
  139.9940  134.6940  155.9641 LP  0  0  0  0  0  0  0  0  0  0  0  0  # atno 17395 bound_to 11000

$$$$
