AV-unprocessed.smi:794|AV-procd|sdf|3756|dock10
  -GOLD-   22720 1193D 1   1.00000     0.00000
 Structure written by MMmdl.
 41 43  0  0  0  0  0  0  0  0  1 V2000
  143.7005  132.9730  151.0546 C   0  0  0  0  0  0  0  0  0  0  0  0
  143.9619  134.1689  151.9178 C   0  0  0  0  0  0  0  0  0  0  0  0
  145.2567  134.6889  152.0038 N   0  0  0  0  0  0  0  0  0  0  0  0
  145.3232  135.7516  152.8120 C   0  0  0  0  0  0  0  0  0  0  0  0
  146.5117  136.4779  153.0852 N   0  0  0  0  0  0  0  0  0  0  0  0
  146.7500  137.3314  154.0963 C   0  0  0  0  0  0  0  0  0  0  0  0
  145.9455  137.6289  154.9798 O   0  0  0  0  0  0  0  0  0  0  0  0
  147.9931  137.8282  154.0257 N   0  0  0  0  0  0  0  0  0  0  0  0
  148.5880  138.7588  154.9826 C   0  0  2  0  0  0  0  0  0  0  0  0
  147.6722  139.9860  155.1861 C   0  0  1  0  0  0  0  0  0  0  0  0
  148.1179  140.7283  156.4587 C   0  0  0  0  0  0  0  0  0  0  0  0
  149.4458  141.3733  156.0191 C   0  0  0  0  0  0  0  0  0  0  0  0
  149.5873  140.9112  154.5523 C   0  0  2  0  0  0  0  0  0  0  0  0
  148.1351  140.9454  154.0932 C   0  0  0  0  0  0  0  0  0  0  0  0
  149.8966  139.3984  154.4498 C   0  0  1  0  0  0  0  0  0  0  0  0
  151.1811  138.9465  155.1710 C   0  0  0  0  0  0  0  0  0  0  0  0
  152.2725  139.7429  154.7632 O   0  0  0  0  0  0  0  0  0  0  0  0
  143.7820  136.1871  153.5300 S   0  0  0  0  0  0  0  0  0  0  0  0
  143.0420  134.8555  152.6763 C   0  0  0  0  0  0  0  0  0  0  0  0
  141.5832  134.5722  152.8145 C   0  0  0  0  0  0  0  0  0  0  0  0
  143.2518  132.1640  151.6311 H   0  0  0  0  0  0  0  0  0  0  0  0
  144.6182  132.5882  150.6085 H   0  0  0  0  0  0  0  0  0  0  0  0
  143.0175  133.2187  150.2415 H   0  0  0  0  0  0  0  0  0  0  0  0
  147.2703  136.3268  152.4368 H   0  0  0  0  0  0  0  0  0  0  0  0
  148.5812  137.5286  153.2619 H   0  0  0  0  0  0  0  0  0  0  0  0
  148.7456  138.2560  155.9389 H   0  0  0  0  0  0  0  0  0  0  0  0
  146.6067  139.7529  155.1764 H   0  0  0  0  0  0  0  0  0  0  0  0
  147.3934  141.4953  156.7356 H   0  0  0  0  0  0  0  0  0  0  0  0
  148.2397  140.0609  157.3127 H   0  0  0  0  0  0  0  0  0  0  0  0
  149.3700  142.4604  156.0694 H   0  0  0  0  0  0  0  0  0  0  0  0
  150.2857  141.0799  156.6477 H   0  0  0  0  0  0  0  0  0  0  0  0
  150.2630  141.5326  153.9638 H   0  0  0  0  0  0  0  0  0  0  0  0
  147.9883  140.5583  153.0835 H   0  0  0  0  0  0  0  0  0  0  0  0
  147.6797  141.9350  154.1642 H   0  0  0  0  0  0  0  0  0  0  0  0
  150.0123  139.1716  153.3876 H   0  0  0  0  0  0  0  0  0  0  0  0
  151.0664  139.0498  156.2503 H   0  0  0  0  0  0  0  0  0  0  0  0
  151.4118  137.9014  154.9651 H   0  0  0  0  0  0  0  0  0  0  0  0
  152.8618  139.2095  154.2520 H   0  0  0  0  0  0  0  0  0  0  0  0
  141.0902  134.5993  151.8425 H   0  0  0  0  0  0  0  0  0  0  0  0
  141.0967  135.3053  153.4582 H   0  0  0  0  0  0  0  0  0  0  0  0
  141.4216  133.5851  153.2475 H   0  0  0  0  0  0  0  0  0  0  0  0
  1  2  1  0  0  0  0
  1 21  1  0  0  0  0
  1 22  1  0  0  0  0
  1 23  1  0  0  0  0
  2 19  2  0  0  0  0
  2  3  1  0  0  0  0
  3  4  2  0  0  0  0
  4  5  1  0  0  0  0
  4 18  1  0  0  0  0
  5  6  1  0  0  0  0
  5 24  1  0  0  0  0
  6  7  2  0  0  0  0
  6  8  1  0  0  0  0
  8  9  1  0  0  0  0
  8 25  1  0  0  0  0
  9 15  1  0  0  0  0
  9 10  1  0  0  0  0
  9 26  1  0  0  0  0
 10 14  1  0  0  0  0
 10 11  1  0  0  0  0
 10 27  1  0  0  0  0
 11 12  1  0  0  0  0
 11 28  1  0  0  0  0
 11 29  1  0  0  0  0
 12 13  1  0  0  0  0
 12 30  1  0  0  0  0
 12 31  1  0  0  0  0
 13 14  1  0  0  0  0
 13 15  1  0  0  0  0
 13 32  1  0  0  0  0
 14 33  1  0  0  0  0
 14 34  1  0  0  0  0
 15 16  1  0  0  0  0
 15 35  1  0  0  0  0
 16 17  1  0  0  0  0
 16 36  1  0  0  0  0
 16 37  1  0  0  0  0
 17 38  1  0  0  0  0
 18 19  1  0  0  0  0
 19 20  1  0  0  0  0
 20 39  1  0  0  0  0
 20 40  1  0  0  0  0
 20 41  1  0  0  0  0
M  END
> <s_m_source_file>
AV-unprocessed.smi

> <i_m_source_file_index>
794

> <i_lp_mmshare_version>
43012

> <i_f3d_flags>
0

> <s_epik_input>
W0NIM11jMW5jKHNjMVtDSDNdKVtOSF1DKD1PKVtOSF1bQ0BIXShbQ0BASF0yMylbQ0BIXShbQ0gyXVtPSF0pW0NAQEhdKFtDSDJdMylbQ0gyXVtDSDJdMg==

> <s_epik_cmdline>
J2VwaWtfcHl0aG9uJywgJy1waCcsICc3LjAnLCAnLXRuJywgJzgnLCAnLW1hJywgJzIwMCcsICctbWV0YWxfYmluZGluZycsICctaW1hZScsICc8aW5maWxlLm1hZT4nLCAnLW9tYWUnLCAnPG91dGZpbGUubWFlPic=

> <r_lp_tautomer_probability>
0.999

> <r_epik_Ionization_Penalty>
0.000713029

> <r_epik_Ionization_Penalty_Charging>
0

> <r_epik_Ionization_Penalty_Neutral>
0.000713029

> <r_epik_State_Penalty>
0.000177984

> <r_epik_Charging_Adjusted_Penalty>
0.000177984

> <i_epik_Tot_Q>
0

> <i_epik_Tot_abs_Q>
0

> <r_epik_Metal_State_Penalty>
-0

> <b_epik_Metal_Only>
0

> <s_lp_Force_Field>
OPLS_2005

> <r_lp_Energy>
47.5891

> <b_lp_Chiralities_Consistent>
1

> <s_lp_Variant>
AV-unprocessed.smi:794-1

> <Gold.Version>
5.8.1

> <Gold.Id.Protein>
6NUR|6NUR_protein|mol2

> <Gold.PLP.Fitness>
37.9389

> <Gold.PLP.PLP>
-30.2102

> <Gold.PLP.part.hbond>
-2.9948

> <Gold.PLP.part.metal>
0.0000

> <Gold.PLP.part.buried>
-3.7949

> <Gold.PLP.part.nonpolar>
-22.7978

> <Gold.PLP.part.repulsive>
0.1526

> <Gold.PLP.ligand.clash>
0.0000

> <Gold.PLP.ligand.torsion>
0.2139

> <Gold.PLP.Chemscore.Hbond>
2.7120

> <Gold.PLP.Chemscore.CHOScore>
0.0000

> <Gold.PLP.Chemscore.Metal>
0.0000

> <Gold.Chemscore.Hbonds>
donor molecule, donor type, donor heavy atom, donor atom, acceptor molecule, acceptor atom, score
      L1  H     5    24       P1  7948  1.00
      L1  H     8    25       P1  7948  0.99
      P1  H  7989  7998       L1    17  0.74

> <Gold.PLP.Chemscore.Internal.Correction>
0.0206

> <Gold.Rescore>
     Score         DG    S(hbond)    S(metal)    S(lipo)     H(rot)  DE(clash)    DE(int)     intcor
     13.90     -16.60       2.13        0.00      73.24       1.78       0.11       2.58       ----

> <Gold.Chemscore.Fitness>
13.9033

> <Gold.Chemscore.DG>
-16.5971

> <Gold.Chemscore.ZeroCoef>
-5.4800

> <Gold.Chemscore.Hbond>
2.1271

> <Gold.Chemscore.Metal>
0.0000

> <Gold.Chemscore.Lipo>
73.2376

> <Gold.Chemscore.Internal_Hbond>
0.0000

> <Gold.Chemscore.DEClash>
0.1123

> <Gold.Chemscore.DEInternal>
2.5815

> <Gold.Chemscore.Rot>
1.7798

> <Gold.Chemscore.Internal.Correction>
   9.000000E+99

> <Gold.Chemscore.Hbonds>
donor molecule, donor type, donor heavy atom, donor atom, acceptor molecule, acceptor atom, score
      L1  H     5    24       P1  7948  0.99
      L1  H     8    25       P1  7948  0.94
      P1  H  7989  7998       L1    17  0.12

> <Gold.Chemscore.Hbond.Weighted>
-7.1045

> <Gold.Chemscore.Metal.Weighted>
-0.0000

> <Gold.Chemscore.Lipo.Weighted>
-8.5688

> <Gold.Chemscore.Internal_Hbond.Weighted>
0.0000

> <Gold.Chemscore.DEClash.Weighted>
0.1123

> <Gold.Chemscore.DEInternal.Weighted>
2.5815

> <Gold.Chemscore.Rot.Weighted>
4.5562

> <Gold.Chemscore.Internal.Correction.Weighted>
   9.000000E+99

> <Gold.Protein.RotatedTorsions>
[ 6907 6896 6895 6894 ] final  -97.22 input  -60.11 | X-H torsion
[ 7974 7965 7964 7962 ] final    6.72 input  175.53 | X-H torsion
[ 8008 7997 7996 7995 ] final   97.22 input   59.86 | X-H torsion
[ 10167 10162 10161 10158 ] final  -38.89 input  -65.29 | X-H torsion
[ 10718 10713 10712 10709 ] final    3.29 input   66.30 | X-H torsion
[ 10763 10752 10751 10750 ] final  107.97 input  -60.55 | X-H torsion
[ 11005 11000 10999 10996 ] final  127.34 input  -57.11 | X-H torsion

> <Gold.Protein.ActiveResidues>
 VAL166  LYS551  ARG553  GLY616  TRP617  ASP618  TYR619  PRO620  LYS621  CYS622 
 ASP623  PHE694  ASN695  SER759  ASP760  ASP761  ALA762  ILE779  LEU786  VAL792 
 PHE793  MET794  SER795  GLU796  ALA797  LYS798  CYS799  TRP800  GLU811  SER814 

> <Gold.Protein.RotatedAtoms>
  150.7010  134.1382  159.4094 H   0  0  0  0  0  0  0  0  0  0  0  0  # atno 6907 bound_to 6896
  151.9367  135.0229  160.0542 H   0  0  0  0  0  0  0  0  0  0  0  0  # atno 6908 bound_to 6896
  152.2129  133.4889  159.5156 H   0  0  0  0  0  0  0  0  0  0  0  0  # atno 6909 bound_to 6896
  146.2432  140.0191  142.8399 H   0  0  0  0  0  0  0  0  0  0  0  0  # atno 7974 bound_to 7965
  156.0878  140.3261  155.7777 H   0  0  0  0  0  0  0  0  0  0  0  0  # atno 8008 bound_to 7997
  155.5046  140.0572  157.2951 H   0  0  0  0  0  0  0  0  0  0  0  0  # atno 8009 bound_to 7997
  154.4620  140.1971  156.0236 H   0  0  0  0  0  0  0  0  0  0  0  0  # atno 8010 bound_to 7997
  140.7079  143.3248  151.2705 H   0  0  0  0  0  0  0  0  0  0  0  0  # atno 10167 bound_to 10162
  156.8756  130.5635  149.5655 H   0  0  0  0  0  0  0  0  0  0  0  0  # atno 10718 bound_to 10713
  153.4141  135.3827  155.2069 H   0  0  0  0  0  0  0  0  0  0  0  0  # atno 10763 bound_to 10752
  154.8740  135.3801  154.4465 H   0  0  0  0  0  0  0  0  0  0  0  0  # atno 10764 bound_to 10752
  153.4977  135.7088  153.5911 H   0  0  0  0  0  0  0  0  0  0  0  0  # atno 10765 bound_to 10752
  139.9502  134.9623  156.8840 H   0  0  0  0  0  0  0  0  0  0  0  0  # atno 11005 bound_to 11000
  145.1257  140.9489  143.4574 LP  0  0  0  0  0  0  0  0  0  0  0  0  # atno 17320 bound_to 7965
  145.0437  139.3239  143.5964 LP  0  0  0  0  0  0  0  0  0  0  0  0  # atno 17321 bound_to 7965
  139.6713  144.0014  152.2755 LP  0  0  0  0  0  0  0  0  0  0  0  0  # atno 17342 bound_to 10162
  139.9614  144.6555  150.8076 LP  0  0  0  0  0  0  0  0  0  0  0  0  # atno 17343 bound_to 10162
  156.0703  130.5738  150.9371 LP  0  0  0  0  0  0  0  0  0  0  0  0  # atno 17370 bound_to 10713
  157.6170  131.0932  150.8692 LP  0  0  0  0  0  0  0  0  0  0  0  0  # atno 17371 bound_to 10713
  140.5736  134.0419  155.7439 LP  0  0  0  0  0  0  0  0  0  0  0  0  # atno 17394 bound_to 11000
  141.1163  133.9534  157.2815 LP  0  0  0  0  0  0  0  0  0  0  0  0  # atno 17395 bound_to 11000

$$$$
