AV-unprocessed.smi:772|AV-procd|sdf|3688|dock3
  -GOLD-   22720 1103D 1   1.00000     0.00000
 Structure written by MMmdl.
 47 48  0  0  0  0  0  0  0  0  2 V2000
  145.8573  143.3470  154.2147 C   0  0  0  0  0  0  0  0  0  0  0  0
  146.8863  142.2372  154.2547 C   0  0  0  0  0  0  0  0  0  0  0  0
  146.5637  140.8976  153.9499 C   0  0  0  0  0  0  0  0  0  0  0  0
  147.5734  139.9151  154.0132 C   0  0  0  0  0  0  0  0  0  0  0  0
  148.8841  140.2909  154.3814 C   0  0  0  0  0  0  0  0  0  0  0  0
  149.9883  139.2538  154.4910 C   0  0  0  0  0  0  0  0  0  0  0  0
  151.3338  139.8337  154.9679 C   0  0  0  0  0  0  0  0  0  0  0  0
  151.3244  140.1619  156.3917 N   0  0  0  0  0  0  0  0  0  0  0  0
  152.2263  139.7523  157.3016 C   0  0  0  0  0  0  0  0  0  0  0  0
  153.1833  139.0373  156.9994 O   0  0  0  0  0  0  0  0  0  0  0  0
  152.0087  140.2068  158.5621 N   0  0  0  0  0  0  0  0  0  0  0  0
  152.7130  139.7632  159.7757 C   0  0  0  0  0  0  0  0  0  0  0  0
  153.8426  140.7563  160.0878 C   0  0  0  0  0  0  0  0  0  0  0  0
  153.1732  142.4109  160.4394 S   0  0  0  0  0  0  0  0  0  0  0  0
  152.0711  142.6273  158.9965 C   0  0  2  0  0  0  0  0  0  0  0  0
  151.2692  143.9518  159.0607 C   0  0  0  0  0  0  0  0  0  0  0  0
  152.1511  145.1733  158.7503 C   0  0  0  0  0  0  0  0  0  0  0  0
  150.4978  144.1530  160.3786 C   0  0  0  0  0  0  0  0  0  0  0  0
  151.1705  141.3836  158.8215 C   0  0  0  0  0  0  0  0  0  0  0  0
  149.1485  141.6469  154.6696 C   0  0  0  0  0  0  0  0  0  0  0  0
  148.1539  142.5577  154.5979 N   0  3  0  0  0  0  0  0  0  0  0  0
  144.8674  142.9565  153.9769 H   0  0  0  0  0  0  0  0  0  0  0  0
  146.1236  144.0847  153.4575 H   0  0  0  0  0  0  0  0  0  0  0  0
  145.8015  143.8493  155.1810 H   0  0  0  0  0  0  0  0  0  0  0  0
  145.5559  140.6222  153.6749 H   0  0  0  0  0  0  0  0  0  0  0  0
  147.3388  138.8840  153.7918 H   0  0  0  0  0  0  0  0  0  0  0  0
  149.6708  138.4602  155.1687 H   0  0  0  0  0  0  0  0  0  0  0  0
  150.1198  138.7832  153.5162 H   0  0  0  0  0  0  0  0  0  0  0  0
  152.1243  139.1025  154.7978 H   0  0  0  0  0  0  0  0  0  0  0  0
  151.6005  140.7086  154.3727 H   0  0  0  0  0  0  0  0  0  0  0  0
  150.5676  140.7469  156.7156 H   0  0  0  0  0  0  0  0  0  0  0  0
  152.0171  139.7178  160.6145 H   0  0  0  0  0  0  0  0  0  0  0  0
  153.1153  138.7533  159.6935 H   0  0  0  0  0  0  0  0  0  0  0  0
  154.4159  140.4210  160.9521 H   0  0  0  0  0  0  0  0  0  0  0  0
  154.5364  140.8226  159.2491 H   0  0  0  0  0  0  0  0  0  0  0  0
  152.7195  142.6850  158.1208 H   0  0  0  0  0  0  0  0  0  0  0  0
  150.5242  143.9071  158.2652 H   0  0  0  0  0  0  0  0  0  0  0  0
  152.9084  145.3306  159.5184 H   0  0  0  0  0  0  0  0  0  0  0  0
  151.5517  146.0821  158.6901 H   0  0  0  0  0  0  0  0  0  0  0  0
  152.6641  145.0572  157.7953 H   0  0  0  0  0  0  0  0  0  0  0  0
  151.1695  144.2293  161.2337 H   0  0  0  0  0  0  0  0  0  0  0  0
  149.8035  143.3355  160.5696 H   0  0  0  0  0  0  0  0  0  0  0  0
  149.9090  145.0701  160.3458 H   0  0  0  0  0  0  0  0  0  0  0  0
  150.4510  141.5489  158.0181 H   0  0  0  0  0  0  0  0  0  0  0  0
  150.5685  141.2138  159.7146 H   0  0  0  0  0  0  0  0  0  0  0  0
  150.1160  142.0256  154.9658 H   0  0  0  0  0  0  0  0  0  0  0  0
  148.3684  143.5309  154.8167 H   0  0  0  0  0  0  0  0  0  0  0  0
  1  2  1  0  0  0  0
  1 22  1  0  0  0  0
  1 23  1  0  0  0  0
  1 24  1  0  0  0  0
  2 21  1  0  0  0  0
  2  3  2  0  0  0  0
  3  4  1  0  0  0  0
  3 25  1  0  0  0  0
  4  5  2  0  0  0  0
  4 26  1  0  0  0  0
  5  6  1  0  0  0  0
  5 20  1  0  0  0  0
  6  7  1  0  0  0  0
  6 27  1  0  0  0  0
  6 28  1  0  0  0  0
  7  8  1  0  0  0  0
  7 29  1  0  0  0  0
  7 30  1  0  0  0  0
  8  9  1  0  0  0  0
  8 31  1  0  0  0  0
  9 10  2  0  0  0  0
  9 11  1  0  0  0  0
 11 19  1  0  0  0  0
 11 12  1  0  0  0  0
 12 13  1  0  0  0  0
 12 32  1  0  0  0  0
 12 33  1  0  0  0  0
 13 14  1  0  0  0  0
 13 34  1  0  0  0  0
 13 35  1  0  0  0  0
 14 15  1  0  0  0  0
 15 16  1  0  0  0  0
 15 19  1  0  0  0  0
 15 36  1  0  0  0  0
 16 17  1  0  0  0  0
 16 18  1  0  0  0  0
 16 37  1  0  0  0  0
 17 38  1  0  0  0  0
 17 39  1  0  0  0  0
 17 40  1  0  0  0  0
 18 41  1  0  0  0  0
 18 42  1  0  0  0  0
 18 43  1  0  0  0  0
 19 44  1  0  0  0  0
 19 45  1  0  0  0  0
 20 21  2  0  0  0  0
 20 46  1  0  0  0  0
 21 47  1  0  0  0  0
M  CHG  1  21   1
M  END
> <s_m_source_file>
AV-unprocessed.smi

> <i_m_source_file_index>
772

> <i_lp_mmshare_version>
43012

> <i_f3d_flags>
0

> <s_epik_input>
W0NIM11jMVtjSF1bY0hdYyhbY0hdbjEpW0NIMl1bQ0gyXVtOSF1DKD1PKU4yW0NIMl1bQ0gyXVNbQ0BIXShbQ0gyXTIpW0NIXShbQ0gzXSlbQ0gzXQ==

> <s_epik_cmdline>
J2VwaWtfcHl0aG9uJywgJy1waCcsICc3LjAnLCAnLXRuJywgJzgnLCAnLW1hJywgJzIwMCcsICctbWV0YWxfYmluZGluZycsICctaW1hZScsICc8aW5maWxlLm1hZT4nLCAnLW9tYWUnLCAnPG91dGZpbGUubWFlPic=

> <r_epik_Ionization_Penalty>
1.41908

> <r_epik_Ionization_Penalty_Charging>
1.41903

> <r_epik_Ionization_Penalty_Neutral>
4.72921e-05

> <r_epik_State_Penalty>
1.50265

> <r_epik_Charging_Adjusted_Penalty>
2.92168

> <i_epik_Tot_Q>
1

> <i_epik_Tot_abs_Q>
1

> <r_epik_Metal_State_Penalty>
1.55496

> <b_epik_Metal_Only>
0

> <s_lp_Force_Field>
OPLS_2005

> <r_lp_Energy>
32.4452

> <b_lp_Chiralities_Consistent>
1

> <s_lp_Variant>
AV-unprocessed.smi:772-4

> <Gold.Version>
5.8.1

> <Gold.Id.Protein>
6NUR|6NUR_protein|mol2

> <Gold.PLP.Fitness>
56.1061

> <Gold.PLP.PLP>
-48.7415

> <Gold.PLP.part.hbond>
-1.9851

> <Gold.PLP.part.metal>
0.0000

> <Gold.PLP.part.buried>
-4.2804

> <Gold.PLP.part.nonpolar>
-43.0005

> <Gold.PLP.part.repulsive>
0.9479

> <Gold.PLP.ligand.clash>
0.9408

> <Gold.PLP.ligand.torsion>
0.3880

> <Gold.PLP.Chemscore.Hbond>
3.0000

> <Gold.PLP.Chemscore.CHOScore>
0.0000

> <Gold.PLP.Chemscore.Metal>
0.0000

> <Gold.Chemscore.Hbonds>
donor molecule, donor type, donor heavy atom, donor atom, acceptor molecule, acceptor atom, score
      L1  H    21    47       P1  8028  1.92
      P1  H  7997  8009       L1    10  1.00

> <Gold.PLP.Chemscore.Internal.Correction>
0.0814

> <Gold.Rescore>
     Score         DG    S(hbond)    S(metal)    S(lipo)     H(rot)  DE(clash)    DE(int)     intcor
     22.51     -23.13       1.89        0.00     127.34       1.39       0.10       0.52       ----

> <Gold.Chemscore.Fitness>
22.5083

> <Gold.Chemscore.DG>
-23.1310

> <Gold.Chemscore.ZeroCoef>
-5.4800

> <Gold.Chemscore.Hbond>
1.8930

> <Gold.Chemscore.Metal>
0.0000

> <Gold.Chemscore.Lipo>
127.3432

> <Gold.Chemscore.Internal_Hbond>
0.0000

> <Gold.Chemscore.DEClash>
0.1047

> <Gold.Chemscore.DEInternal>
0.5180

> <Gold.Chemscore.Rot>
1.3949

> <Gold.Chemscore.Internal.Correction>
   9.000000E+99

> <Gold.Chemscore.Hbonds>
donor molecule, donor type, donor heavy atom, donor atom, acceptor molecule, acceptor atom, score
      L1  H    21    47       P1  8028  0.88
      P1  H  7997  8009       L1    10  0.58

> <Gold.Chemscore.Hbond.Weighted>
-6.3228

> <Gold.Chemscore.Metal.Weighted>
-0.0000

> <Gold.Chemscore.Lipo.Weighted>
-14.8991

> <Gold.Chemscore.Internal_Hbond.Weighted>
0.0000

> <Gold.Chemscore.DEClash.Weighted>
0.1047

> <Gold.Chemscore.DEInternal.Weighted>
0.5180

> <Gold.Chemscore.Rot.Weighted>
3.5709

> <Gold.Chemscore.Internal.Correction.Weighted>
   9.000000E+99

> <Gold.Protein.RotatedTorsions>
[ 6907 6896 6895 6894 ] final  -83.78 input  -60.11 | X-H torsion
[ 7974 7965 7964 7962 ] final  114.43 input  175.53 | X-H torsion
[ 8008 7997 7996 7995 ] final  160.31 input   59.86 | X-H torsion
[ 10167 10162 10161 10158 ] final   45.66 input  -65.29 | X-H torsion
[ 10718 10713 10712 10709 ] final  -85.66 input   66.30 | X-H torsion
[ 10763 10752 10751 10750 ] final -167.99 input  -60.55 | X-H torsion
[ 11005 11000 10999 10996 ] final  -51.08 input  -57.11 | X-H torsion

> <Gold.Protein.ActiveResidues>
 VAL166  LYS551  ARG553  GLY616  TRP617  ASP618  TYR619  PRO620  LYS621  CYS622 
 ASP623  PHE694  ASN695  SER759  ASP760  ASP761  ALA762  ILE779  LEU786  VAL792 
 PHE793  MET794  SER795  GLU796  ALA797  LYS798  CYS799  TRP800  GLU811  SER814 

> <Gold.Protein.RotatedAtoms>
  150.6882  134.3459  159.4887 H   0  0  0  0  0  0  0  0  0  0  0  0  # atno 6907 bound_to 6896
  152.1307  134.9135  160.0568 H   0  0  0  0  0  0  0  0  0  0  0  0  # atno 6908 bound_to 6896
  152.0306  133.3901  159.4332 H   0  0  0  0  0  0  0  0  0  0  0  0  # atno 6909 bound_to 6896
  145.2045  139.2936  143.4301 H   0  0  0  0  0  0  0  0  0  0  0  0  # atno 7974 bound_to 7965
  156.2181  140.1808  156.7542 H   0  0  0  0  0  0  0  0  0  0  0  0  # atno 8008 bound_to 7997
  154.5822  140.0664  156.9150 H   0  0  0  0  0  0  0  0  0  0  0  0  # atno 8009 bound_to 7997
  155.2482  140.3327  155.4287 H   0  0  0  0  0  0  0  0  0  0  0  0  # atno 8010 bound_to 7997
  140.3219  144.2695  150.6181 H   0  0  0  0  0  0  0  0  0  0  0  0  # atno 10167 bound_to 10162
  155.9995  130.4738  150.4596 H   0  0  0  0  0  0  0  0  0  0  0  0  # atno 10718 bound_to 10713
  154.6675  135.2934  154.9786 H   0  0  0  0  0  0  0  0  0  0  0  0  # atno 10763 bound_to 10752
  154.0824  135.6602  153.4844 H   0  0  0  0  0  0  0  0  0  0  0  0  # atno 10764 bound_to 10752
  153.0466  135.5200  154.7655 H   0  0  0  0  0  0  0  0  0  0  0  0  # atno 10765 bound_to 10752
  141.0851  133.6644  156.3825 H   0  0  0  0  0  0  0  0  0  0  0  0  # atno 11005 bound_to 11000
  146.3411  140.2300  142.8593 LP  0  0  0  0  0  0  0  0  0  0  0  0  # atno 17320 bound_to 7965
  144.9916  140.8552  143.5336 LP  0  0  0  0  0  0  0  0  0  0  0  0  # atno 17321 bound_to 7965
  140.5476  143.2212  151.7981 LP  0  0  0  0  0  0  0  0  0  0  0  0  # atno 17342 bound_to 10162
  139.4872  144.4519  151.9644 LP  0  0  0  0  0  0  0  0  0  0  0  0  # atno 17343 bound_to 10162
  157.2622  131.0569  151.2313 LP  0  0  0  0  0  0  0  0  0  0  0  0  # atno 17370 bound_to 10713
  157.3424  130.7040  149.6389 LP  0  0  0  0  0  0  0  0  0  0  0  0  # atno 17371 bound_to 10713
  140.5380  134.6148  157.5371 LP  0  0  0  0  0  0  0  0  0  0  0  0  # atno 17394 bound_to 11000
  139.9669  134.7358  156.0120 LP  0  0  0  0  0  0  0  0  0  0  0  0  # atno 17395 bound_to 11000

$$$$
