AV-unprocessed.smi:2763|AV-procd|sdf|10638|dock2
  -GOLD-   2272015 83D 1   1.00000     0.00000
 Structure written by MMmdl.
 37 38  0  0  0  0  0  0  0  0  1 V2000
  149.4945  144.4356  161.1445 O   0  0  0  0  0  0  0  0  0  0  0  0
  149.1611  144.6532  159.9792 C   0  0  0  0  0  0  0  0  0  0  0  0
  150.0167  145.0553  159.0283 N   0  0  0  0  0  0  0  0  0  0  0  0
  151.4424  145.2871  159.2274 C   0  0  0  0  0  0  0  0  0  0  0  0
  152.2840  144.1099  158.7062 C   0  0  0  0  0  0  0  0  0  0  0  0
  152.4005  142.9651  159.7249 C   0  0  2  0  0  0  0  0  0  0  0  0
  152.4676  143.4865  161.1738 C   0  0  0  0  0  0  0  0  0  0  0  0
  152.6591  142.3252  162.1561 C   0  0  0  0  0  0  0  0  0  0  0  0
  153.8695  141.4857  161.7341 C   0  0  0  0  0  0  0  0  0  0  0  0
  153.7409  141.0686  160.2604 C   0  0  0  0  0  0  0  0  0  0  0  0
  153.5865  142.2239  159.4419 O   0  0  0  0  0  0  0  0  0  0  0  0
  147.9150  144.5286  159.4894 N   0  0  0  0  0  0  0  0  0  0  0  0
  146.7422  144.1027  160.1677 C   0  0  0  0  0  0  0  0  0  0  0  0
  145.5580  144.7787  159.7951 C   0  0  0  0  0  0  0  0  0  0  0  0
  144.3384  144.4291  160.4066 C   0  0  0  0  0  0  0  0  0  0  0  0
  144.3362  143.4101  161.3755 C   0  0  0  0  0  0  0  0  0  0  0  0
  143.1880  143.0390  161.9899 F   0  0  0  0  0  0  0  0  0  0  0  0
  145.5577  142.7862  161.6894 C   0  0  0  0  0  0  0  0  0  0  0  0
  146.7274  143.1207  161.1041 N   0  0  0  0  0  0  0  0  0  0  0  0
  149.6573  145.2122  158.0981 H   0  0  0  0  0  0  0  0  0  0  0  0
  151.7443  146.2179  158.7442 H   0  0  0  0  0  0  0  0  0  0  0  0
  151.6119  145.4243  160.2956 H   0  0  0  0  0  0  0  0  0  0  0  0
  151.8554  143.7314  157.7772 H   0  0  0  0  0  0  0  0  0  0  0  0
  153.2846  144.4674  158.4588 H   0  0  0  0  0  0  0  0  0  0  0  0
  151.5336  142.3105  159.6168 H   0  0  0  0  0  0  0  0  0  0  0  0
  153.2954  144.1899  161.2749 H   0  0  0  0  0  0  0  0  0  0  0  0
  151.5588  144.0357  161.4214 H   0  0  0  0  0  0  0  0  0  0  0  0
  152.7901  142.7017  163.1709 H   0  0  0  0  0  0  0  0  0  0  0  0
  151.7644  141.7014  162.1655 H   0  0  0  0  0  0  0  0  0  0  0  0
  154.7833  142.0658  161.8693 H   0  0  0  0  0  0  0  0  0  0  0  0
  153.9599  140.6049  162.3702 H   0  0  0  0  0  0  0  0  0  0  0  0
  154.6339  140.5294  159.9438 H   0  0  0  0  0  0  0  0  0  0  0  0
  152.8955  140.3937  160.1181 H   0  0  0  0  0  0  0  0  0  0  0  0
  147.7926  144.7570  158.5140 H   0  0  0  0  0  0  0  0  0  0  0  0
  145.5791  145.5589  159.0479 H   0  0  0  0  0  0  0  0  0  0  0  0
  143.4225  144.9337  160.1361 H   0  0  0  0  0  0  0  0  0  0  0  0
  145.5984  141.9991  162.4278 H   0  0  0  0  0  0  0  0  0  0  0  0
  1  2  2  0  0  0  0
  2  3  1  0  0  0  0
  2 12  1  0  0  0  0
  3  4  1  0  0  0  0
  3 20  1  0  0  0  0
  4  5  1  0  0  0  0
  4 21  1  0  0  0  0
  4 22  1  0  0  0  0
  5  6  1  0  0  0  0
  5 23  1  0  0  0  0
  5 24  1  0  0  0  0
  6 11  1  0  0  0  0
  6  7  1  0  0  0  0
  6 25  1  0  0  0  0
  7  8  1  0  0  0  0
  7 26  1  0  0  0  0
  7 27  1  0  0  0  0
  8  9  1  0  0  0  0
  8 28  1  0  0  0  0
  8 29  1  0  0  0  0
  9 10  1  0  0  0  0
  9 30  1  0  0  0  0
  9 31  1  0  0  0  0
 10 11  1  0  0  0  0
 10 32  1  0  0  0  0
 10 33  1  0  0  0  0
 12 13  1  0  0  0  0
 12 34  1  0  0  0  0
 13 19  1  0  0  0  0
 13 14  2  0  0  0  0
 14 15  1  0  0  0  0
 14 35  1  0  0  0  0
 15 16  2  0  0  0  0
 15 36  1  0  0  0  0
 16 17  1  0  0  0  0
 16 18  1  0  0  0  0
 18 19  2  0  0  0  0
 18 37  1  0  0  0  0
M  END
> <s_m_source_file>
AV-unprocessed.smi

> <i_m_source_file_index>
2763

> <i_lp_mmshare_version>
43012

> <i_f3d_flags>
0

> <s_epik_input>
bjFbY0hdYyhGKVtjSF1bY0hdYzFbTkhdQyg9TylbTkhdW0NIMl1bQ0gyXVtDQEBIXTJbQ0gyXVtDSDJdW0NIMl1bQ0gyXU8y

> <s_epik_cmdline>
J2VwaWtfcHl0aG9uJywgJy1waCcsICc3LjAnLCAnLXRuJywgJzgnLCAnLW1hJywgJzIwMCcsICctbWV0YWxfYmluZGluZycsICctaW1hZScsICc8aW5maWxlLm1hZT4nLCAnLW9tYWUnLCAnPG91dGZpbGUubWFlPic=

> <r_lp_tautomer_probability>
1

> <r_epik_Ionization_Penalty>
3.67849e-05

> <r_epik_Ionization_Penalty_Charging>
0

> <r_epik_Ionization_Penalty_Neutral>
3.67849e-05

> <r_epik_State_Penalty>
-0

> <r_epik_Charging_Adjusted_Penalty>
0

> <i_epik_Tot_Q>
0

> <i_epik_Tot_abs_Q>
0

> <r_epik_Metal_State_Penalty>
-0

> <b_epik_Metal_Only>
0

> <s_lp_Force_Field>
OPLS_2005

> <r_lp_Energy>
12.1233

> <b_lp_Chiralities_Consistent>
1

> <s_lp_Variant>
AV-unprocessed.smi:2763-1

> <Gold.Version>
5.8.1

> <Gold.Id.Protein>
6NUR|6NUR_protein|mol2

> <Gold.PLP.Fitness>
54.0598

> <Gold.PLP.PLP>
-47.4403

> <Gold.PLP.part.hbond>
-3.7484

> <Gold.PLP.part.metal>
0.0000

> <Gold.PLP.part.buried>
-7.1227

> <Gold.PLP.part.nonpolar>
-37.9064

> <Gold.PLP.part.repulsive>
1.5634

> <Gold.PLP.ligand.clash>
0.0000

> <Gold.PLP.ligand.torsion>
0.8016

> <Gold.PLP.Chemscore.Hbond>
2.7389

> <Gold.PLP.Chemscore.CHOScore>
0.0000

> <Gold.PLP.Chemscore.Metal>
0.0000

> <Gold.Chemscore.Hbonds>
donor molecule, donor type, donor heavy atom, donor atom, acceptor molecule, acceptor atom, score
      L1  H     3    20       P1  8029  0.68
      L1  H    12    34       P1  8029  0.96
      P1  H  6933  6944       L1    19  1.00
      P1  H  6934  6946       L1    19  0.05

> <Gold.PLP.Chemscore.Internal.Correction>
0.0059

> <Gold.Rescore>
     Score         DG    S(hbond)    S(metal)    S(lipo)     H(rot)  DE(clash)    DE(int)     intcor
     20.17     -22.51       2.67        0.00     103.04       1.54       0.67       1.67       ----

> <Gold.Chemscore.Fitness>
20.1651

> <Gold.Chemscore.DG>
-22.5057

> <Gold.Chemscore.ZeroCoef>
-5.4800

> <Gold.Chemscore.Hbond>
2.6673

> <Gold.Chemscore.Metal>
0.0000

> <Gold.Chemscore.Lipo>
103.0355

> <Gold.Chemscore.Internal_Hbond>
0.0000

> <Gold.Chemscore.DEClash>
0.6734

> <Gold.Chemscore.DEInternal>
1.6672

> <Gold.Chemscore.Rot>
1.5384

> <Gold.Chemscore.Internal.Correction>
   9.000000E+99

> <Gold.Chemscore.Hbonds>
donor molecule, donor type, donor heavy atom, donor atom, acceptor molecule, acceptor atom, score
      L1  H     3    20       P1  8029  0.17
      L1  H    12    34       P1  8029  0.91
      P1  H  6933  6944       L1    19  0.82

> <Gold.Chemscore.Hbond.Weighted>
-8.9088

> <Gold.Chemscore.Metal.Weighted>
-0.0000

> <Gold.Chemscore.Lipo.Weighted>
-12.0552

> <Gold.Chemscore.Internal_Hbond.Weighted>
0.0000

> <Gold.Chemscore.DEClash.Weighted>
0.6734

> <Gold.Chemscore.DEInternal.Weighted>
1.6672

> <Gold.Chemscore.Rot.Weighted>
3.9382

> <Gold.Chemscore.Internal.Correction.Weighted>
   9.000000E+99

> <Gold.Protein.RotatedTorsions>
[ 6907 6896 6895 6894 ] final    2.59 input  -60.11 | X-H torsion
[ 7974 7965 7964 7962 ] final -164.87 input  175.53 | X-H torsion
[ 8008 7997 7996 7995 ] final -128.87 input   59.86 | X-H torsion
[ 10167 10162 10161 10158 ] final -120.65 input  -65.29 | X-H torsion
[ 10718 10713 10712 10709 ] final  -89.39 input   66.30 | X-H torsion
[ 10763 10752 10751 10750 ] final   79.53 input  -60.55 | X-H torsion
[ 11005 11000 10999 10996 ] final  152.91 input  -57.11 | X-H torsion

> <Gold.Protein.ActiveResidues>
 VAL166  LYS551  ARG553  GLY616  TRP617  ASP618  TYR619  PRO620  LYS621  CYS622 
 ASP623  PHE694  ASN695  SER759  ASP760  ASP761  ALA762  ILE779  LEU786  VAL792 
 PHE793  MET794  SER795  GLU796  ALA797  LYS798  CYS799  TRP800  GLU811  SER814 

> <Gold.Protein.RotatedAtoms>
  151.6113  135.1040  160.0081 H   0  0  0  0  0  0  0  0  0  0  0  0  # atno 6907 bound_to 6896
  152.4206  133.7107  159.6487 H   0  0  0  0  0  0  0  0  0  0  0  0  # atno 6908 bound_to 6896
  150.8094  133.8376  159.3211 H   0  0  0  0  0  0  0  0  0  0  0  0  # atno 6909 bound_to 6896
  144.7285  140.2898  143.6222 H   0  0  0  0  0  0  0  0  0  0  0  0  # atno 7974 bound_to 7965
  155.2698  140.0439  157.3006 H   0  0  0  0  0  0  0  0  0  0  0  0  # atno 8008 bound_to 7997
  154.5660  140.2360  155.8232 H   0  0  0  0  0  0  0  0  0  0  0  0  # atno 8009 bound_to 7997
  156.2085  140.3005  155.9688 H   0  0  0  0  0  0  0  0  0  0  0  0  # atno 8010 bound_to 7997
  140.0335  143.5224  152.2165 H   0  0  0  0  0  0  0  0  0  0  0  0  # atno 10167 bound_to 10162
  155.9984  130.4870  150.5163 H   0  0  0  0  0  0  0  0  0  0  0  0  # atno 10718 bound_to 10713
  153.0960  135.4836  154.8780 H   0  0  0  0  0  0  0  0  0  0  0  0  # atno 10763 bound_to 10752
  154.7325  135.3063  154.8869 H   0  0  0  0  0  0  0  0  0  0  0  0  # atno 10764 bound_to 10752
  153.9501  135.6824  153.4797 H   0  0  0  0  0  0  0  0  0  0  0  0  # atno 10765 bound_to 10752
  140.1350  134.8777  157.2255 H   0  0  0  0  0  0  0  0  0  0  0  0  # atno 11005 bound_to 11000
  145.7867  139.1911  143.2126 LP  0  0  0  0  0  0  0  0  0  0  0  0  # atno 17320 bound_to 7965
  146.0790  140.7785  142.9651 LP  0  0  0  0  0  0  0  0  0  0  0  0  # atno 17321 bound_to 7965
  139.6060  144.7596  151.3061 LP  0  0  0  0  0  0  0  0  0  0  0  0  # atno 17342 bound_to 10162
  140.7291  143.6916  150.7917 LP  0  0  0  0  0  0  0  0  0  0  0  0  # atno 17343 bound_to 10162
  157.3130  131.0667  151.1987 LP  0  0  0  0  0  0  0  0  0  0  0  0  # atno 17370 bound_to 10713
  157.2927  130.6804  149.6122 LP  0  0  0  0  0  0  0  0  0  0  0  0  # atno 17371 bound_to 10713
  140.2794  134.3368  155.7348 LP  0  0  0  0  0  0  0  0  0  0  0  0  # atno 17394 bound_to 11000
  141.2177  133.7469  156.9341 LP  0  0  0  0  0  0  0  0  0  0  0  0  # atno 17395 bound_to 11000

$$$$
