AV-unprocessed.smi:3338|AV-procd|sdf|12875|dock6
  -GOLD-   2272019273D 1   1.00000     0.00000
 Structure written by MMmdl.
 44 45  0  0  0  0  0  0  0  0  2 V2000
  152.2127  144.6113  161.1137 C   0  0  0  0  0  0  0  0  0  0  0  0
  152.3559  144.7273  159.5861 C   0  0  2  0  0  0  0  0  0  0  0  0
  151.0435  145.1359  158.8924 C   0  0  0  0  0  0  0  0  0  0  0  0
  150.0463  143.9697  158.8596 C   0  0  0  0  0  0  0  0  0  0  0  0
  150.6843  142.7163  158.2399 C   0  0  0  0  0  0  0  0  0  0  0  0
  151.9274  142.3335  158.9582 N   0  3  1  0  0  0  0  0  0  0  0  0
  152.4782  141.0437  158.4702 C   0  0  0  0  0  0  0  0  0  0  0  0
  151.4092  139.9429  158.3768 C   0  0  0  0  0  0  0  0  0  0  0  0
  151.5778  139.1730  157.1527 N   0  0  0  0  0  0  0  0  0  0  0  0
  151.3510  139.6522  155.9202 C   0  0  0  0  0  0  0  0  0  0  0  0
  150.9427  140.7959  155.7150 O   0  0  0  0  0  0  0  0  0  0  0  0
  151.6269  138.6885  154.7524 C   0  0  1  0  0  0  0  0  0  0  0  0
  153.1255  138.3774  154.5668 C   0  0  0  0  0  0  0  0  0  0  0  0
  150.8385  137.4686  154.8898 N   0  0  0  0  0  0  0  0  0  0  0  0
  149.4774  137.3542  155.0879 C   0  0  0  0  0  0  0  0  0  0  0  0
  149.1857  136.0233  155.1769 C   0  0  0  0  0  0  0  0  0  0  0  0
  150.4493  135.3890  155.0214 C   0  0  0  0  0  0  0  0  0  0  0  0
  151.4358  136.2543  154.8544 N   0  0  0  0  0  0  0  0  0  0  0  0
  152.9244  143.4395  158.9545 C   0  0  0  0  0  0  0  0  0  0  0  0
  151.5310  143.8103  161.4003 H   0  0  0  0  0  0  0  0  0  0  0  0
  151.8335  145.5391  161.5435 H   0  0  0  0  0  0  0  0  0  0  0  0
  153.1757  144.4050  161.5814 H   0  0  0  0  0  0  0  0  0  0  0  0
  153.0779  145.5252  159.4066 H   0  0  0  0  0  0  0  0  0  0  0  0
  150.6007  146.0008  159.3876 H   0  0  0  0  0  0  0  0  0  0  0  0
  151.2597  145.4479  157.8697 H   0  0  0  0  0  0  0  0  0  0  0  0
  149.6994  143.7462  159.8689 H   0  0  0  0  0  0  0  0  0  0  0  0
  149.1612  144.2554  158.2903 H   0  0  0  0  0  0  0  0  0  0  0  0
  149.9656  141.8967  158.2799 H   0  0  0  0  0  0  0  0  0  0  0  0
  150.9107  142.8889  157.1863 H   0  0  0  0  0  0  0  0  0  0  0  0
  152.8969  141.1882  157.4730 H   0  0  0  0  0  0  0  0  0  0  0  0
  153.3053  140.7297  159.1092 H   0  0  0  0  0  0  0  0  0  0  0  0
  151.4689  139.2612  159.2255 H   0  0  0  0  0  0  0  0  0  0  0  0
  150.4130  140.3884  158.3882 H   0  0  0  0  0  0  0  0  0  0  0  0
  151.9097  138.2235  157.2426 H   0  0  0  0  0  0  0  0  0  0  0  0
  151.2877  139.1903  153.8446 H   0  0  0  0  0  0  0  0  0  0  0  0
  153.7003  139.2895  154.4027 H   0  0  0  0  0  0  0  0  0  0  0  0
  153.2831  137.7334  153.7012 H   0  0  0  0  0  0  0  0  0  0  0  0
  153.5480  137.8707  155.4355 H   0  0  0  0  0  0  0  0  0  0  0  0
  148.8350  138.2205  155.1481 H   0  0  0  0  0  0  0  0  0  0  0  0
  148.2169  135.5708  155.3293 H   0  0  0  0  0  0  0  0  0  0  0  0
  150.6781  134.3335  155.0268 H   0  0  0  0  0  0  0  0  0  0  0  0
  153.2290  143.6383  157.9256 H   0  0  0  0  0  0  0  0  0  0  0  0
  153.8264  143.1482  159.4913 H   0  0  0  0  0  0  0  0  0  0  0  0
  151.6594  142.1832  159.9205 H   0  0  0  0  0  0  0  0  0  0  0  0
  1  2  1  0  0  0  0
  1 20  1  0  0  0  0
  1 21  1  0  0  0  0
  1 22  1  0  0  0  0
  2 19  1  0  0  0  0
  2  3  1  0  0  0  0
  2 23  1  0  0  0  0
  3  4  1  0  0  0  0
  3 24  1  0  0  0  0
  3 25  1  0  0  0  0
  4  5  1  0  0  0  0
  4 26  1  0  0  0  0
  4 27  1  0  0  0  0
  5  6  1  0  0  0  0
  5 28  1  0  0  0  0
  5 29  1  0  0  0  0
  6  7  1  0  0  0  0
  6 19  1  0  0  0  0
  6 44  1  0  0  0  0
  7  8  1  0  0  0  0
  7 30  1  0  0  0  0
  7 31  1  0  0  0  0
  8  9  1  0  0  0  0
  8 32  1  0  0  0  0
  8 33  1  0  0  0  0
  9 10  1  0  0  0  0
  9 34  1  0  0  0  0
 10 11  2  0  0  0  0
 10 12  1  0  0  0  0
 12 13  1  0  0  0  0
 12 14  1  0  0  0  0
 12 35  1  0  0  0  0
 13 36  1  0  0  0  0
 13 37  1  0  0  0  0
 13 38  1  0  0  0  0
 14 18  1  0  0  0  0
 14 15  1  0  0  0  0
 15 16  2  0  0  0  0
 15 39  1  0  0  0  0
 16 17  1  0  0  0  0
 16 40  1  0  0  0  0
 17 18  2  0  0  0  0
 17 41  1  0  0  0  0
 19 42  1  0  0  0  0
 19 43  1  0  0  0  0
M  CHG  1   6   1
M  END
> <s_m_source_file>
AV-unprocessed.smi

> <i_m_source_file_index>
3338

> <i_lp_mmshare_version>
43012

> <i_f3d_flags>
0

> <s_epik_input>
W0NIM11bQ0BASF0xW0NIMl1bQ0gyXVtDSDJdTihbQ0gyXTEpW0NIMl1bQ0gyXVtOSF1DKD1PKVtDQEhdKFtDSDNdKW4yW2NIXVtjSF1bY0hdbjI=

> <s_epik_cmdline>
J2VwaWtfcHl0aG9uJywgJy1waCcsICc3LjAnLCAnLXRuJywgJzgnLCAnLW1hJywgJzIwMCcsICctbWV0YWxfYmluZGluZycsICctaW1hZScsICc8aW5maWxlLm1hZT4nLCAnLW9tYWUnLCAnPG91dGZpbGUubWFlPic=

> <r_lp_tautomer_probability>
1

> <r_epik_Ionization_Penalty>
0.00225707

> <r_epik_Ionization_Penalty_Charging>
0.00223709

> <r_epik_Ionization_Penalty_Neutral>
1.99775e-05

> <r_epik_State_Penalty>
0.00153978

> <r_epik_Charging_Adjusted_Penalty>
0.00377687

> <i_epik_Tot_Q>
1

> <i_epik_Tot_abs_Q>
1

> <r_epik_Metal_State_Penalty>
-0

> <b_epik_Metal_Only>
0

> <s_lp_Force_Field>
OPLS_2005

> <r_lp_Energy>
23.0994

> <b_lp_Chiralities_Consistent>
1

> <s_lp_Variant>
AV-unprocessed.smi:3338-7

> <Gold.Version>
5.8.1

> <Gold.Id.Protein>
6NUR|6NUR_protein|mol2

> <Gold.PLP.Fitness>
41.5142

> <Gold.PLP.PLP>
-38.4426

> <Gold.PLP.part.hbond>
-1.8494

> <Gold.PLP.part.metal>
0.0000

> <Gold.PLP.part.buried>
-4.8586

> <Gold.PLP.part.nonpolar>
-33.2411

> <Gold.PLP.part.repulsive>
0.3093

> <Gold.PLP.ligand.clash>
0.0000

> <Gold.PLP.ligand.torsion>
0.5066

> <Gold.PLP.Chemscore.Hbond>
1.3182

> <Gold.PLP.Chemscore.CHOScore>
0.0000

> <Gold.PLP.Chemscore.Metal>
0.0000

> <Gold.Chemscore.Hbonds>
donor molecule, donor type, donor heavy atom, donor atom, acceptor molecule, acceptor atom, score
      P1  H  7989  7998       L1    11  0.18
      P1  H 10752 10763       L1    18  1.00

> <Gold.PLP.Chemscore.Internal.Correction>
0.1302

> <Gold.Rescore>
     Score         DG    S(hbond)    S(metal)    S(lipo)     H(rot)  DE(clash)    DE(int)     intcor
     17.02     -18.15       1.23        0.00     111.53       1.76       0.71       0.43       ----

> <Gold.Chemscore.Fitness>
17.0156

> <Gold.Chemscore.DG>
-18.1521

> <Gold.Chemscore.ZeroCoef>
-5.4800

> <Gold.Chemscore.Hbond>
1.2337

> <Gold.Chemscore.Metal>
0.0000

> <Gold.Chemscore.Lipo>
111.5345

> <Gold.Chemscore.Internal_Hbond>
0.0000

> <Gold.Chemscore.DEClash>
0.7111

> <Gold.Chemscore.DEInternal>
0.4254

> <Gold.Chemscore.Rot>
1.7570

> <Gold.Chemscore.Internal.Correction>
   9.000000E+99

> <Gold.Chemscore.Hbonds>
donor molecule, donor type, donor heavy atom, donor atom, acceptor molecule, acceptor atom, score
      P1  H  7989  7998       L1    11  0.03
      P1  H 10752 10763       L1    18  0.88

> <Gold.Chemscore.Hbond.Weighted>
-4.1204

> <Gold.Chemscore.Metal.Weighted>
-0.0000

> <Gold.Chemscore.Lipo.Weighted>
-13.0495

> <Gold.Chemscore.Internal_Hbond.Weighted>
0.0000

> <Gold.Chemscore.DEClash.Weighted>
0.7111

> <Gold.Chemscore.DEInternal.Weighted>
0.4254

> <Gold.Chemscore.Rot.Weighted>
4.4979

> <Gold.Chemscore.Internal.Correction.Weighted>
   9.000000E+99

> <Gold.Protein.RotatedTorsions>
[ 6907 6896 6895 6894 ] final  128.08 input  -60.11 | X-H torsion
[ 7974 7965 7964 7962 ] final   94.11 input  175.53 | X-H torsion
[ 8008 7997 7996 7995 ] final  -54.90 input   59.86 | X-H torsion
[ 10167 10162 10161 10158 ] final  149.24 input  -65.29 | X-H torsion
[ 10718 10713 10712 10709 ] final  -41.17 input   66.30 | X-H torsion
[ 10763 10752 10751 10750 ] final   70.72 input  -60.55 | X-H torsion
[ 11005 11000 10999 10996 ] final    8.99 input  -57.11 | X-H torsion

> <Gold.Protein.ActiveResidues>
 VAL166  LYS551  ARG553  GLY616  TRP617  ASP618  TYR619  PRO620  LYS621  CYS622 
 ASP623  PHE694  ASN695  SER759  ASP760  ASP761  ALA762  ILE779  LEU786  VAL792 
 PHE793  MET794  SER795  GLU796  ALA797  LYS798  CYS799  TRP800  GLU811  SER814 

> <Gold.Protein.RotatedAtoms>
  152.3753  133.6473  159.6118 H   0  0  0  0  0  0  0  0  0  0  0  0  # atno 6907 bound_to 6896
  150.7699  133.9203  159.3405 H   0  0  0  0  0  0  0  0  0  0  0  0  # atno 6908 bound_to 6896
  151.7019  135.0930  160.0303 H   0  0  0  0  0  0  0  0  0  0  0  0  # atno 6909 bound_to 6896
  145.4699  139.2282  143.2941 H   0  0  0  0  0  0  0  0  0  0  0  0  # atno 7974 bound_to 7965
  154.4177  140.1165  156.5389 H   0  0  0  0  0  0  0  0  0  0  0  0  # atno 8008 bound_to 7997
  155.6528  140.3496  155.4735 H   0  0  0  0  0  0  0  0  0  0  0  0  # atno 8009 bound_to 7997
  155.9778  140.1154  157.0744 H   0  0  0  0  0  0  0  0  0  0  0  0  # atno 8010 bound_to 7997
  139.4864  144.5617  151.7218 H   0  0  0  0  0  0  0  0  0  0  0  0  # atno 10167 bound_to 10162
  156.2733  130.4209  149.8415 H   0  0  0  0  0  0  0  0  0  0  0  0  # atno 10718 bound_to 10713
  153.0358  135.5163  154.7484 H   0  0  0  0  0  0  0  0  0  0  0  0  # atno 10763 bound_to 10752
  154.6462  135.2919  155.0045 H   0  0  0  0  0  0  0  0  0  0  0  0  # atno 10764 bound_to 10752
  154.0945  135.6645  153.4910 H   0  0  0  0  0  0  0  0  0  0  0  0  # atno 10765 bound_to 10752
  140.5308  134.0469  155.7873 H   0  0  0  0  0  0  0  0  0  0  0  0  # atno 11005 bound_to 11000
  146.2403  140.5476  142.8937 LP  0  0  0  0  0  0  0  0  0  0  0  0  # atno 17320 bound_to 7965
  144.7952  140.6108  143.6515 LP  0  0  0  0  0  0  0  0  0  0  0  0  # atno 17321 bound_to 7965
  140.5188  144.0911  150.6016 LP  0  0  0  0  0  0  0  0  0  0  0  0  # atno 17342 bound_to 10162
  140.3862  143.2776  152.0114 LP  0  0  0  0  0  0  0  0  0  0  0  0  # atno 17343 bound_to 10162
  156.5888  130.8497  151.3402 LP  0  0  0  0  0  0  0  0  0  0  0  0  # atno 17370 bound_to 10713
  157.7291  130.9666  150.1771 LP  0  0  0  0  0  0  0  0  0  0  0  0  # atno 17371 bound_to 10713
  141.1283  133.9346  157.2590 LP  0  0  0  0  0  0  0  0  0  0  0  0  # atno 17394 bound_to 11000
  139.9555  135.0166  156.9117 LP  0  0  0  0  0  0  0  0  0  0  0  0  # atno 17395 bound_to 11000

$$$$
