AV-unprocessed.smi:1703|AV-procd|sdf|6872|dock8
  -GOLD-   22720 8 73D 1   1.00000     0.00000
 Structure written by MMmdl.
 49 51  0  0  0  0  0  0  0  0  2 V2000
  150.7199  131.1416  158.0083 C   0  0  0  0  0  0  0  0  0  0  0  0
  149.7918  131.0646  156.7915 C   0  0  1  0  0  0  0  0  0  0  0  0
  148.7390  132.1872  156.7940 C   0  0  0  0  0  0  0  0  0  0  0  0
  147.9073  132.1602  155.5970 N   0  0  0  0  0  0  0  0  0  0  0  0
  146.8875  133.2094  155.6487 C   0  0  0  0  0  0  0  0  0  0  0  0
  146.1096  133.4439  154.3388 C   0  0  1  0  0  0  0  0  0  0  0  0
  144.7760  133.7800  154.6667 O   0  0  0  0  0  0  0  0  0  0  0  0
  146.7371  134.5783  153.5056 C   0  0  0  0  0  0  0  0  0  0  0  0
  145.9099  134.9667  152.3506 N   0  0  0  0  0  0  0  0  0  0  0  0
  145.5546  136.2054  151.9007 C   0  0  0  0  0  0  0  0  0  0  0  0
  145.9383  137.5228  152.4906 C   0  0  0  0  0  0  0  0  0  0  0  0
  145.6425  138.6026  151.6327 O   0  0  0  0  0  0  0  0  0  0  0  0
  144.7822  136.0263  150.7924 N   0  3  0  0  0  0  0  0  0  0  0  0
  144.6417  134.6637  150.5284 C   0  0  0  0  0  0  0  0  0  0  0  0
  143.9548  133.9990  149.5172 C   0  0  0  0  0  0  0  0  0  0  0  0
  144.0174  132.5901  149.5300 C   0  0  0  0  0  0  0  0  0  0  0  0
  144.7432  131.8970  150.5203 C   0  0  0  0  0  0  0  0  0  0  0  0
  145.4339  132.5822  151.5415 C   0  0  0  0  0  0  0  0  0  0  0  0
  145.3654  133.9756  151.5239 C   0  0  0  0  0  0  0  0  0  0  0  0
  148.7695  132.2667  154.4206 C   0  0  0  0  0  0  0  0  0  0  0  0
  149.8673  131.1843  154.3855 C   0  0  2  0  0  0  0  0  0  0  0  0
  149.3338  129.7878  154.0228 C   0  0  0  0  0  0  0  0  0  0  0  0
  150.5924  131.1716  155.6160 O   0  0  0  0  0  0  0  0  0  0  0  0
  150.1566  131.0549  158.9378 H   0  0  0  0  0  0  0  0  0  0  0  0
  151.2619  132.0874  158.0319 H   0  0  0  0  0  0  0  0  0  0  0  0
  151.4548  130.3366  157.9889 H   0  0  0  0  0  0  0  0  0  0  0  0
  149.2916  130.0958  156.8030 H   0  0  0  0  0  0  0  0  0  0  0  0
  148.1118  132.0851  157.6805 H   0  0  0  0  0  0  0  0  0  0  0  0
  149.2369  133.1548  156.8754 H   0  0  0  0  0  0  0  0  0  0  0  0
  146.1635  132.9702  156.4292 H   0  0  0  0  0  0  0  0  0  0  0  0
  147.3566  134.1440  155.9601 H   0  0  0  0  0  0  0  0  0  0  0  0
  146.0952  132.5412  153.7306 H   0  0  0  0  0  0  0  0  0  0  0  0
  144.2745  132.9802  154.7207 H   0  0  0  0  0  0  0  0  0  0  0  0
  146.9381  135.4564  154.1194 H   0  0  0  0  0  0  0  0  0  0  0  0
  147.7046  134.2597  153.1174 H   0  0  0  0  0  0  0  0  0  0  0  0
  145.4082  137.6652  153.4329 H   0  0  0  0  0  0  0  0  0  0  0  0
  147.0037  137.5275  152.7207 H   0  0  0  0  0  0  0  0  0  0  0  0
  145.0869  139.2117  152.0954 H   0  0  0  0  0  0  0  0  0  0  0  0
  143.4011  134.5280  148.7555 H   0  0  0  0  0  0  0  0  0  0  0  0
  143.5006  132.0303  148.7639 H   0  0  0  0  0  0  0  0  0  0  0  0
  144.7728  130.8173  150.4965 H   0  0  0  0  0  0  0  0  0  0  0  0
  145.9922  132.0399  152.2900 H   0  0  0  0  0  0  0  0  0  0  0  0
  148.1852  132.1990  153.5042 H   0  0  0  0  0  0  0  0  0  0  0  0
  149.2450  133.2487  154.4097 H   0  0  0  0  0  0  0  0  0  0  0  0
  150.5842  131.4606  153.6119 H   0  0  0  0  0  0  0  0  0  0  0  0
  148.8887  129.7901  153.0277 H   0  0  0  0  0  0  0  0  0  0  0  0
  148.5687  129.4472  154.7201 H   0  0  0  0  0  0  0  0  0  0  0  0
  150.1381  129.0520  154.0227 H   0  0  0  0  0  0  0  0  0  0  0  0
  144.3846  136.7854  150.2543 H   0  0  0  0  0  0  0  0  0  0  0  0
  1  2  1  0  0  0  0
  1 24  1  0  0  0  0
  1 25  1  0  0  0  0
  1 26  1  0  0  0  0
  2 23  1  0  0  0  0
  2  3  1  0  0  0  0
  2 27  1  0  0  0  0
  3  4  1  0  0  0  0
  3 28  1  0  0  0  0
  3 29  1  0  0  0  0
  4  5  1  0  0  0  0
  4 20  1  0  0  0  0
  5  6  1  0  0  0  0
  5 30  1  0  0  0  0
  5 31  1  0  0  0  0
  6  7  1  0  0  0  0
  6  8  1  0  0  0  0
  6 32  1  0  0  0  0
  7 33  1  0  0  0  0
  8  9  1  0  0  0  0
  8 34  1  0  0  0  0
  8 35  1  0  0  0  0
  9 19  1  0  0  0  0
  9 10  1  0  0  0  0
 10 11  1  0  0  0  0
 10 13  2  0  0  0  0
 11 12  1  0  0  0  0
 11 36  1  0  0  0  0
 11 37  1  0  0  0  0
 12 38  1  0  0  0  0
 13 14  1  0  0  0  0
 13 49  1  0  0  0  0
 14 19  2  0  0  0  0
 14 15  1  0  0  0  0
 15 16  2  0  0  0  0
 15 39  1  0  0  0  0
 16 17  1  0  0  0  0
 16 40  1  0  0  0  0
 17 18  2  0  0  0  0
 17 41  1  0  0  0  0
 18 19  1  0  0  0  0
 18 42  1  0  0  0  0
 20 21  1  0  0  0  0
 20 43  1  0  0  0  0
 20 44  1  0  0  0  0
 21 22  1  0  0  0  0
 21 23  1  0  0  0  0
 21 45  1  0  0  0  0
 22 46  1  0  0  0  0
 22 47  1  0  0  0  0
 22 48  1  0  0  0  0
M  CHG  1  13   1
M  END
> <s_m_source_file>
AV-unprocessed.smi

> <i_m_source_file_index>
1703

> <i_lp_mmshare_version>
43012

> <i_f3d_flags>
0

> <s_epik_input>
W0NIM11bQ0BASF0xW0NIMl1OKFtDSDJdW0NASF0oTzEpW0NIM10pW0NIMl1bQ0BIXShbT0hdKVtDSDJdbihjKG4yKVtDSDJdW09IXSljKGMyMylbY0hdW2NIXVtjSF1bY0hdMw==

> <s_epik_cmdline>
J2VwaWtfcHl0aG9uJywgJy1waCcsICc3LjAnLCAnLXRuJywgJzgnLCAnLW1hJywgJzIwMCcsICctbWV0YWxfYmluZGluZycsICctaW1hZScsICc8aW5maWxlLm1hZT4nLCAnLW9tYWUnLCAnPG91dGZpbGUubWFlPic=

> <r_epik_Ionization_Penalty>
1.7682

> <r_epik_Ionization_Penalty_Charging>
1.55298

> <r_epik_Ionization_Penalty_Neutral>
0.215215

> <r_epik_State_Penalty>
1.83821

> <r_epik_Charging_Adjusted_Penalty>
3.39119

> <i_epik_Tot_Q>
1

> <i_epik_Tot_abs_Q>
1

> <r_epik_Metal_State_Penalty>
5.89206

> <b_epik_Metal_Only>
0

> <s_lp_Force_Field>
OPLS_2005

> <r_lp_Energy>
35.5587

> <b_lp_Chiralities_Consistent>
1

> <s_lp_Variant>
AV-unprocessed.smi:1703-20

> <Gold.Version>
5.8.1

> <Gold.Id.Protein>
6NUR|6NUR_protein|mol2

> <Gold.PLP.Fitness>
41.1652

> <Gold.PLP.PLP>
-33.8705

> <Gold.PLP.part.hbond>
-3.8817

> <Gold.PLP.part.metal>
0.0000

> <Gold.PLP.part.buried>
-2.4632

> <Gold.PLP.part.nonpolar>
-26.9900

> <Gold.PLP.part.repulsive>
0.0497

> <Gold.PLP.ligand.clash>
0.0000

> <Gold.PLP.ligand.torsion>
0.8678

> <Gold.PLP.Chemscore.Hbond>
3.0000

> <Gold.PLP.Chemscore.CHOScore>
0.0000

> <Gold.PLP.Chemscore.Metal>
0.0000

> <Gold.Chemscore.Hbonds>
donor molecule, donor type, donor heavy atom, donor atom, acceptor molecule, acceptor atom, score
      L1  H     7    33       P1 10957  1.00
      L1  H    12    38       P1 10175  1.00
      L1  H    13    49       P1 10171  1.00

> <Gold.PLP.Chemscore.Internal.Correction>
0.0304

> <Gold.Rescore>
     Score         DG    S(hbond)    S(metal)    S(lipo)     H(rot)  DE(clash)    DE(int)     intcor
     15.60     -17.66       2.88        0.00      86.46       2.96       1.31       0.75       ----

> <Gold.Chemscore.Fitness>
15.6007

> <Gold.Chemscore.DG>
-17.6598

> <Gold.Chemscore.ZeroCoef>
-5.4800

> <Gold.Chemscore.Hbond>
2.8833

> <Gold.Chemscore.Metal>
0.0000

> <Gold.Chemscore.Lipo>
86.4567

> <Gold.Chemscore.Internal_Hbond>
0.0000

> <Gold.Chemscore.DEClash>
1.3127

> <Gold.Chemscore.DEInternal>
0.7465

> <Gold.Chemscore.Rot>
2.9555

> <Gold.Chemscore.Internal.Correction>
   9.000000E+99

> <Gold.Chemscore.Hbonds>
donor molecule, donor type, donor heavy atom, donor atom, acceptor molecule, acceptor atom, score
      L1  H     7    33       P1 10957  0.95
      L1  H    12    38       P1 10175  0.99
      L1  H    13    49       P1 10171  0.99

> <Gold.Chemscore.Hbond.Weighted>
-9.6304

> <Gold.Chemscore.Metal.Weighted>
-0.0000

> <Gold.Chemscore.Lipo.Weighted>
-10.1154

> <Gold.Chemscore.Internal_Hbond.Weighted>
0.0000

> <Gold.Chemscore.DEClash.Weighted>
1.3127

> <Gold.Chemscore.DEInternal.Weighted>
0.7465

> <Gold.Chemscore.Rot.Weighted>
7.5660

> <Gold.Chemscore.Internal.Correction.Weighted>
   9.000000E+99

> <Gold.Protein.RotatedTorsions>
[ 6907 6896 6895 6894 ] final   67.37 input  -60.11 | X-H torsion
[ 7974 7965 7964 7962 ] final  146.58 input  175.53 | X-H torsion
[ 8008 7997 7996 7995 ] final  -13.13 input   59.86 | X-H torsion
[ 10167 10162 10161 10158 ] final   66.77 input  -65.29 | X-H torsion
[ 10718 10713 10712 10709 ] final  114.63 input   66.30 | X-H torsion
[ 10763 10752 10751 10750 ] final   85.97 input  -60.55 | X-H torsion
[ 11005 11000 10999 10996 ] final   72.50 input  -57.11 | X-H torsion

> <Gold.Protein.ActiveResidues>
 VAL166  LYS551  ARG553  GLY616  TRP617  ASP618  TYR619  PRO620  LYS621  CYS622 
 ASP623  PHE694  ASN695  SER759  ASP760  ASP761  ALA762  ILE779  LEU786  VAL792 
 PHE793  MET794  SER795  GLU796  ALA797  LYS798  CYS799  TRP800  GLU811  SER814 

> <Gold.Protein.RotatedAtoms>
  152.4547  134.5317  159.9812 H   0  0  0  0  0  0  0  0  0  0  0  0  # atno 6907 bound_to 6896
  151.5381  133.3431  159.2938 H   0  0  0  0  0  0  0  0  0  0  0  0  # atno 6908 bound_to 6896
  150.8488  134.7836  159.7054 H   0  0  0  0  0  0  0  0  0  0  0  0  # atno 6909 bound_to 6896
  144.8659  139.5923  143.5909 H   0  0  0  0  0  0  0  0  0  0  0  0  # atno 7974 bound_to 7965
  154.5318  140.2258  155.8791 H   0  0  0  0  0  0  0  0  0  0  0  0  # atno 8008 bound_to 7997
  156.1772  140.3108  155.9044 H   0  0  0  0  0  0  0  0  0  0  0  0  # atno 8009 bound_to 7997
  155.3435  140.0452  157.3036 H   0  0  0  0  0  0  0  0  0  0  0  0  # atno 8010 bound_to 7997
  140.0968  144.4939  150.7063 H   0  0  0  0  0  0  0  0  0  0  0  0  # atno 10167 bound_to 10162
  157.6270  131.1001  150.7214 H   0  0  0  0  0  0  0  0  0  0  0  0  # atno 10718 bound_to 10713
  153.1526  135.4597  154.9658 H   0  0  0  0  0  0  0  0  0  0  0  0  # atno 10763 bound_to 10752
  154.7836  135.3196  154.7937 H   0  0  0  0  0  0  0  0  0  0  0  0  # atno 10764 bound_to 10752
  153.8440  135.6927  153.4854 H   0  0  0  0  0  0  0  0  0  0  0  0  # atno 10765 bound_to 10752
  139.9487  134.7265  156.0914 H   0  0  0  0  0  0  0  0  0  0  0  0  # atno 11005 bound_to 11000
  146.2895  139.7100  142.9171 LP  0  0  0  0  0  0  0  0  0  0  0  0  # atno 17320 bound_to 7965
  145.4222  141.0407  143.2957 LP  0  0  0  0  0  0  0  0  0  0  0  0  # atno 17321 bound_to 7965
  140.6999  143.2428  151.4894 LP  0  0  0  0  0  0  0  0  0  0  0  0  # atno 17342 bound_to 10162
  139.5693  144.1966  152.1813 LP  0  0  0  0  0  0  0  0  0  0  0  0  # atno 17343 bound_to 10162
  156.7561  130.4784  149.5446 LP  0  0  0  0  0  0  0  0  0  0  0  0  # atno 17370 bound_to 10713
  156.1448  130.6269  151.0516 LP  0  0  0  0  0  0  0  0  0  0  0  0  # atno 17371 bound_to 10713
  141.1145  133.6632  156.3060 LP  0  0  0  0  0  0  0  0  0  0  0  0  # atno 17394 bound_to 11000
  140.5770  134.5783  157.5471 LP  0  0  0  0  0  0  0  0  0  0  0  0  # atno 17395 bound_to 11000

$$$$
