AV-unprocessed.smi:500|AV-procd|sdf|2740|dock7
  -GOLD-   2262023203D 1   1.00000     0.00000
 Structure written by MMmdl.
 45 47  0  0  0  0  0  0  0  0  3 V2000
  148.0997  136.4903  161.5442 C   0  0  0  0  0  0  0  0  0  0  0  0
  148.6281  136.3841  160.1120 C   0  0  0  0  0  0  0  0  0  0  0  0
  149.1544  137.6449  159.7253 O   0  0  0  0  0  0  0  0  0  0  0  0
  149.2649  137.8272  158.3207 C   0  0  0  0  0  0  0  0  0  0  0  0
  150.4955  137.1061  157.7446 C   0  0  0  0  0  0  0  0  0  0  0  0
  150.2492  136.6265  156.3709 N   0  0  0  0  0  0  0  0  0  0  0  0
  149.9731  137.2948  155.2044 C   0  0  0  0  0  0  0  0  0  0  0  0
  149.8270  138.7797  154.9836 C   0  0  2  0  0  0  0  0  0  0  0  0
  148.7229  139.0520  153.9533 C   0  0  0  0  0  0  0  0  0  0  0  0
  151.0744  139.3932  154.5236 N   0  5  0  0  0  0  0  0  0  0  0  0
  152.1406  139.6554  155.3324 C   0  0  0  0  0  0  0  0  0  0  0  0
  153.3165  139.2899  155.2268 O   0  0  0  0  0  0  0  0  0  0  0  0
  151.7777  140.5178  156.4817 C   0  0  0  0  0  0  0  0  0  0  0  0
  150.6513  141.2665  156.6993 C   0  0  0  0  0  0  0  0  0  0  0  0
  150.8157  141.9010  157.9618 C   0  0  0  0  0  0  0  0  0  0  0  0
  152.0318  141.4950  158.4302 C   0  0  0  0  0  0  0  0  0  0  0  0
  152.6301  140.6541  157.5441 O   0  0  0  0  0  0  0  0  0  0  0  0
  149.8348  136.3488  154.2307 N   0  3  0  0  0  0  0  0  0  0  0  0
  150.0449  135.0775  154.7602 C   0  0  0  0  0  0  0  0  0  0  0  0
  150.0225  133.8248  154.1560 C   0  0  0  0  0  0  0  0  0  0  0  0
  150.2878  132.7170  154.9873 C   0  0  0  0  0  0  0  0  0  0  0  0
  150.5624  132.8799  156.3607 C   0  0  0  0  0  0  0  0  0  0  0  0
  150.5816  134.1561  156.9611 C   0  0  0  0  0  0  0  0  0  0  0  0
  150.3154  135.2469  156.1326 C   0  0  0  0  0  0  0  0  0  0  0  0
  147.6858  135.5387  161.8782 H   0  0  0  0  0  0  0  0  0  0  0  0
  147.3129  137.2415  161.6164 H   0  0  0  0  0  0  0  0  0  0  0  0
  148.8953  136.7703  162.2351 H   0  0  0  0  0  0  0  0  0  0  0  0
  149.4039  135.6189  160.0615 H   0  0  0  0  0  0  0  0  0  0  0  0
  147.8199  136.0801  159.4472 H   0  0  0  0  0  0  0  0  0  0  0  0
  148.3657  137.4079  157.8680 H   0  0  0  0  0  0  0  0  0  0  0  0
  149.2701  138.8884  158.0668 H   0  0  0  0  0  0  0  0  0  0  0  0
  151.3766  137.7466  157.7356 H   0  0  0  0  0  0  0  0  0  0  0  0
  150.7578  136.2518  158.3686 H   0  0  0  0  0  0  0  0  0  0  0  0
  149.5049  139.2212  155.9277 H   0  0  0  0  0  0  0  0  0  0  0  0
  147.7711  138.6359  154.2843 H   0  0  0  0  0  0  0  0  0  0  0  0
  148.9604  138.6090  152.9852 H   0  0  0  0  0  0  0  0  0  0  0  0
  148.5776  140.1225  153.8039 H   0  0  0  0  0  0  0  0  0  0  0  0
  149.8091  141.3477  156.0278 H   0  0  0  0  0  0  0  0  0  0  0  0
  150.1313  142.5691  158.4631 H   0  0  0  0  0  0  0  0  0  0  0  0
  152.5970  141.6973  159.3280 H   0  0  0  0  0  0  0  0  0  0  0  0
  149.8160  133.7011  153.1032 H   0  0  0  0  0  0  0  0  0  0  0  0
  150.2829  131.7238  154.5625 H   0  0  0  0  0  0  0  0  0  0  0  0
  150.7634  132.0084  156.9664 H   0  0  0  0  0  0  0  0  0  0  0  0
  150.7978  134.2686  158.0131 H   0  0  0  0  0  0  0  0  0  0  0  0
  149.6315  136.5784  153.2663 H   0  0  0  0  0  0  0  0  0  0  0  0
  1  2  1  0  0  0  0
  1 25  1  0  0  0  0
  1 26  1  0  0  0  0
  1 27  1  0  0  0  0
  2  3  1  0  0  0  0
  2 28  1  0  0  0  0
  2 29  1  0  0  0  0
  3  4  1  0  0  0  0
  4  5  1  0  0  0  0
  4 30  1  0  0  0  0
  4 31  1  0  0  0  0
  5  6  1  0  0  0  0
  5 32  1  0  0  0  0
  5 33  1  0  0  0  0
  6 24  1  0  0  0  0
  6  7  1  0  0  0  0
  7  8  1  0  0  0  0
  7 18  2  0  0  0  0
  8  9  1  0  0  0  0
  8 10  1  0  0  0  0
  8 34  1  0  0  0  0
  9 35  1  0  0  0  0
  9 36  1  0  0  0  0
  9 37  1  0  0  0  0
 10 11  1  0  0  0  0
 11 12  2  0  0  0  0
 11 13  1  0  0  0  0
 13 17  1  0  0  0  0
 13 14  2  0  0  0  0
 14 15  1  0  0  0  0
 14 38  1  0  0  0  0
 15 16  2  0  0  0  0
 15 39  1  0  0  0  0
 16 17  1  0  0  0  0
 16 40  1  0  0  0  0
 18 19  1  0  0  0  0
 18 45  1  0  0  0  0
 19 24  2  0  0  0  0
 19 20  1  0  0  0  0
 20 21  2  0  0  0  0
 20 41  1  0  0  0  0
 21 22  1  0  0  0  0
 21 42  1  0  0  0  0
 22 23  2  0  0  0  0
 22 43  1  0  0  0  0
 23 24  1  0  0  0  0
 23 44  1  0  0  0  0
M  CHG  1  10  -1
M  CHG  1  18   1
M  END
> <s_m_source_file>
AV-unprocessed.smi

> <i_m_source_file_index>
500

> <i_lp_mmshare_version>
43012

> <i_f3d_flags>
0

> <s_epik_input>
W0NIM11bQ0gyXU9bQ0gyXVtDSDJdbihjKGMxMilbY0hdW2NIXVtjSF1bY0hdMiljKG4xKVtDQEhdKFtDSDNdKVtOSF1DKD1PKWMzW2NIXVtjSF1bY0hdbzM=

> <s_epik_cmdline>
J2VwaWtfcHl0aG9uJywgJy1waCcsICc3LjAnLCAnLXRuJywgJzgnLCAnLW1hJywgJzIwMCcsICctbWV0YWxfYmluZGluZycsICctaW1hZScsICc8aW5maWxlLm1hZT4nLCAnLW9tYWUnLCAnPG91dGZpbGUubWFlPic=

> <r_epik_Ionization_Penalty>
6.22753

> <r_epik_Ionization_Penalty_Charging>
6.22753

> <r_epik_Ionization_Penalty_Neutral>
2.56065e-12

> <r_epik_State_Penalty>
7.17947

> <r_epik_Charging_Adjusted_Penalty>
13.407

> <i_epik_Tot_Q>
0

> <i_epik_Tot_abs_Q>
2

> <r_epik_Metal_State_Penalty>
3.2092

> <b_epik_Metal_Only>
1

> <s_lp_Force_Field>
OPLS_2005

> <r_lp_Energy>
11.6209

> <b_lp_Chiralities_Consistent>
1

> <s_lp_Variant>
AV-unprocessed.smi:500-7

> <Gold.Version>
5.8.1

> <Gold.Id.Protein>
6NUR|6NUR_protein|mol2

> <Gold.PLP.Fitness>
46.2559

> <Gold.PLP.PLP>
-38.6122

> <Gold.PLP.part.hbond>
-5.5482

> <Gold.PLP.part.metal>
0.0000

> <Gold.PLP.part.buried>
-2.9033

> <Gold.PLP.part.nonpolar>
-30.3111

> <Gold.PLP.part.repulsive>
0.1314

> <Gold.PLP.ligand.clash>
0.0000

> <Gold.PLP.ligand.torsion>
1.9176

> <Gold.PLP.Chemscore.Hbond>
3.7708

> <Gold.PLP.Chemscore.CHOScore>
0.0000

> <Gold.PLP.Chemscore.Metal>
0.0000

> <Gold.Chemscore.Hbonds>
donor molecule, donor type, donor heavy atom, donor atom, acceptor molecule, acceptor atom, score
      L1  H    18    45       P1  7948  2.00
      P1  H  6931  6943       L1     3  0.04
      P1  H  7989  7998       L1    10  0.35
      P1  H  7997  8008       L1    12  1.00

> <Gold.PLP.Chemscore.Internal.Correction>
0.1666

> <Gold.Rescore>
     Score         DG    S(hbond)    S(metal)    S(lipo)     H(rot)  DE(clash)    DE(int)     intcor
     16.34     -18.64       2.32        0.00      87.90       1.90       0.07       2.23       ----

> <Gold.Chemscore.Fitness>
16.3433

> <Gold.Chemscore.DG>
-18.6379

> <Gold.Chemscore.ZeroCoef>
-5.4800

> <Gold.Chemscore.Hbond>
2.3162

> <Gold.Chemscore.Metal>
0.0000

> <Gold.Chemscore.Lipo>
87.8970

> <Gold.Chemscore.Internal_Hbond>
0.0000

> <Gold.Chemscore.DEClash>
0.0690

> <Gold.Chemscore.DEInternal>
2.2255

> <Gold.Chemscore.Rot>
1.8993

> <Gold.Chemscore.Internal.Correction>
   9.000000E+99

> <Gold.Chemscore.Hbonds>
donor molecule, donor type, donor heavy atom, donor atom, acceptor molecule, acceptor atom, score
      L1  H    18    45       P1  7948  0.41
      P1  H  7989  7998       L1    10  0.01
      P1  H  7997  8008       L1    12  0.89

> <Gold.Chemscore.Hbond.Weighted>
-7.7361

> <Gold.Chemscore.Metal.Weighted>
-0.0000

> <Gold.Chemscore.Lipo.Weighted>
-10.2840

> <Gold.Chemscore.Internal_Hbond.Weighted>
0.0000

> <Gold.Chemscore.DEClash.Weighted>
0.0690

> <Gold.Chemscore.DEInternal.Weighted>
2.2255

> <Gold.Chemscore.Rot.Weighted>
4.8622

> <Gold.Chemscore.Internal.Correction.Weighted>
   9.000000E+99

> <Gold.Protein.RotatedTorsions>
[ 6907 6896 6895 6894 ] final   16.33 input  -60.11 | X-H torsion
[ 7974 7965 7964 7962 ] final  -42.73 input  175.53 | X-H torsion
[ 8008 7997 7996 7995 ] final  -29.36 input   59.86 | X-H torsion
[ 10167 10162 10161 10158 ] final  -77.55 input  -65.29 | X-H torsion
[ 10718 10713 10712 10709 ] final  -42.13 input   66.30 | X-H torsion
[ 10763 10752 10751 10750 ] final  -36.45 input  -60.55 | X-H torsion
[ 11005 11000 10999 10996 ] final   22.98 input  -57.11 | X-H torsion

> <Gold.Protein.ActiveResidues>
 VAL166  LYS551  ARG553  GLY616  TRP617  ASP618  TYR619  PRO620  LYS621  CYS622 
 ASP623  PHE694  ASN695  SER759  ASP760  ASP761  ALA762  ILE779  LEU786  VAL792 
 PHE793  MET794  SER795  GLU796  ALA797  LYS798  CYS799  TRP800  GLU811  SER814 

> <Gold.Protein.RotatedAtoms>
  151.8322  135.0617  160.0437 H   0  0  0  0  0  0  0  0  0  0  0  0  # atno 6907 bound_to 6896
  152.2871  133.5521  159.5542 H   0  0  0  0  0  0  0  0  0  0  0  0  # atno 6908 bound_to 6896
  150.7214  134.0397  159.3803 H   0  0  0  0  0  0  0  0  0  0  0  0  # atno 6909 bound_to 6896
  146.0087  140.6989  142.9235 H   0  0  0  0  0  0  0  0  0  0  0  0  # atno 7974 bound_to 7965
  154.4293  140.1820  156.1235 H   0  0  0  0  0  0  0  0  0  0  0  0  # atno 8008 bound_to 7997
  156.0124  140.3349  155.6929 H   0  0  0  0  0  0  0  0  0  0  0  0  # atno 8009 bound_to 7997
  155.6092  140.0648  157.2702 H   0  0  0  0  0  0  0  0  0  0  0  0  # atno 8010 bound_to 7997
  140.4760  143.2414  151.8132 H   0  0  0  0  0  0  0  0  0  0  0  0  # atno 10167 bound_to 10162
  156.2629  130.4199  149.8522 H   0  0  0  0  0  0  0  0  0  0  0  0  # atno 10718 bound_to 10713
  153.8800  135.6822  153.4767 H   0  0  0  0  0  0  0  0  0  0  0  0  # atno 10763 bound_to 10752
  153.1239  135.4727  154.9238 H   0  0  0  0  0  0  0  0  0  0  0  0  # atno 10764 bound_to 10752
  154.7673  135.3228  154.8212 H   0  0  0  0  0  0  0  0  0  0  0  0  # atno 10765 bound_to 10752
  140.3747  134.1985  155.7665 H   0  0  0  0  0  0  0  0  0  0  0  0  # atno 11005 bound_to 11000
  144.6945  140.3360  143.7207 LP  0  0  0  0  0  0  0  0  0  0  0  0  # atno 17320 bound_to 7965
  145.7376  139.1754  143.2395 LP  0  0  0  0  0  0  0  0  0  0  0  0  # atno 17321 bound_to 7965
  139.4825  144.4832  151.9280 LP  0  0  0  0  0  0  0  0  0  0  0  0  # atno 17342 bound_to 10162
  140.3918  144.2606  150.5899 LP  0  0  0  0  0  0  0  0  0  0  0  0  # atno 17343 bound_to 10162
  156.6030  130.8555  151.3436 LP  0  0  0  0  0  0  0  0  0  0  0  0  # atno 17370 bound_to 10713
  157.7257  130.9619  150.1625 LP  0  0  0  0  0  0  0  0  0  0  0  0  # atno 17371 bound_to 10713
  141.1943  133.8131  157.0762 LP  0  0  0  0  0  0  0  0  0  0  0  0  # atno 17394 bound_to 11000
  140.0525  134.9798  157.1161 LP  0  0  0  0  0  0  0  0  0  0  0  0  # atno 17395 bound_to 11000

$$$$
