AV-unprocessed.smi:281|AV-procd|sdf|2115|dock9
  -GOLD-   2262021413D 1   1.00000     0.00000
 Structure written by MMmdl.
 55 59  0  0  0  0  0  0  0  0  1 V2000
  151.5776  141.0442  156.1398 C   0  0  0  0  0  0  0  0  0  0  0  0
  150.9722  141.6670  157.4014 C   0  0  2  0  0  0  0  0  0  0  0  0
  149.4775  141.9779  157.2346 C   0  0  0  0  0  0  0  0  0  0  0  0
  148.9808  142.6404  158.4328 N   0  0  0  0  0  0  0  0  0  0  0  0
  147.6297  142.6684  158.5588 C   0  0  0  0  0  0  0  0  0  0  0  0
  146.8412  142.3223  157.5058 N   0  0  0  0  0  0  0  0  0  0  0  0
  145.5103  142.3423  157.6226 C   0  0  0  0  0  0  0  0  0  0  0  0
  144.7709  142.6727  158.6827 N   0  0  0  0  0  0  0  0  0  0  0  0
  145.5544  143.0264  159.7415 C   0  0  0  0  0  0  0  0  0  0  0  0
  146.9776  143.0555  159.7640 C   0  0  0  0  0  0  0  0  0  0  0  0
  147.4206  143.4887  161.0084 N   0  0  0  0  0  0  0  0  0  0  0  0
  146.3234  143.6943  161.6843 C   0  0  0  0  0  0  0  0  0  0  0  0
  145.1558  143.4309  161.0040 N   0  0  0  0  0  0  0  0  0  0  0  0
  143.7977  143.5716  161.5083 C   0  0  0  0  0  0  0  0  0  0  0  0
  143.0265  144.7648  160.8950 C   0  0  2  0  0  0  0  0  0  0  0  0
  143.8375  145.9255  160.9566 O   0  0  0  0  0  0  0  0  0  0  0  0
  141.7188  145.0570  161.6211 C   0  0  0  0  0  0  0  0  0  0  0  0
  140.8469  145.6482  160.5217 C   0  0  0  0  0  0  0  0  0  0  0  0
  141.1790  144.8539  159.3960 O   0  0  0  0  0  0  0  0  0  0  0  0
  142.5730  144.5618  159.4339 C   0  0  0  0  0  0  0  0  0  0  0  0
  149.7288  143.8499  158.7608 C   0  0  0  0  0  0  0  0  0  0  0  0
  151.2475  143.5600  158.8633 C   0  0  1  0  0  0  0  0  0  0  0  0
  152.0274  144.8597  158.9811 C   0  0  0  0  0  0  0  0  0  0  0  0
  151.9329  145.1782  160.4695 C   0  0  0  0  0  0  0  0  0  0  0  0
  151.8304  143.9202  161.1290 O   0  0  0  0  0  0  0  0  0  0  0  0
  151.6459  142.8651  160.1860 C   0  0  2  0  0  0  0  0  0  0  0  0
  152.9832  142.1001  160.1435 C   0  0  0  0  0  0  0  0  0  0  0  0
  151.6834  142.8732  157.6856 O   0  0  0  0  0  0  0  0  0  0  0  0
  151.0788  140.1084  155.8859 H   0  0  0  0  0  0  0  0  0  0  0  0
  152.6366  140.8278  156.2828 H   0  0  0  0  0  0  0  0  0  0  0  0
  151.4868  141.7158  155.2857 H   0  0  0  0  0  0  0  0  0  0  0  0
  151.0924  140.9614  158.2234 H   0  0  0  0  0  0  0  0  0  0  0  0
  149.3215  142.6334  156.3766 H   0  0  0  0  0  0  0  0  0  0  0  0
  148.9333  141.0564  157.0313 H   0  0  0  0  0  0  0  0  0  0  0  0
  144.9590  142.0517  156.7405 H   0  0  0  0  0  0  0  0  0  0  0  0
  146.3386  144.0474  162.7050 H   0  0  0  0  0  0  0  0  0  0  0  0
  143.2656  142.6397  161.3127 H   0  0  0  0  0  0  0  0  0  0  0  0
  143.8447  143.6729  162.5936 H   0  0  0  0  0  0  0  0  0  0  0  0
  144.7080  145.6991  160.6672 H   0  0  0  0  0  0  0  0  0  0  0  0
  141.2656  144.1291  161.9723 H   0  0  0  0  0  0  0  0  0  0  0  0
  141.8313  145.7170  162.4825 H   0  0  0  0  0  0  0  0  0  0  0  0
  139.7823  145.5968  160.7512 H   0  0  0  0  0  0  0  0  0  0  0  0
  141.1101  146.6892  160.3281 H   0  0  0  0  0  0  0  0  0  0  0  0
  143.1105  145.2105  158.7402 H   0  0  0  0  0  0  0  0  0  0  0  0
  142.7103  143.5358  159.0942 H   0  0  0  0  0  0  0  0  0  0  0  0
  149.5465  144.5901  157.9801 H   0  0  0  0  0  0  0  0  0  0  0  0
  149.3621  144.2738  159.6967 H   0  0  0  0  0  0  0  0  0  0  0  0
  153.0709  144.7002  158.7068 H   0  0  0  0  0  0  0  0  0  0  0  0
  151.6427  145.6609  158.3492 H   0  0  0  0  0  0  0  0  0  0  0  0
  152.7926  145.7453  160.8271 H   0  0  0  0  0  0  0  0  0  0  0  0
  151.0344  145.7580  160.6830 H   0  0  0  0  0  0  0  0  0  0  0  0
  150.8619  142.1907  160.5323 H   0  0  0  0  0  0  0  0  0  0  0  0
  152.9516  141.2529  159.4602 H   0  0  0  0  0  0  0  0  0  0  0  0
  153.2297  141.7073  161.1299 H   0  0  0  0  0  0  0  0  0  0  0  0
  153.8077  142.7422  159.8336 H   0  0  0  0  0  0  0  0  0  0  0  0
  1  2  1  0  0  0  0
  1 29  1  0  0  0  0
  1 30  1  0  0  0  0
  1 31  1  0  0  0  0
  2 28  1  0  0  0  0
  2  3  1  0  0  0  0
  2 32  1  0  0  0  0
  3  4  1  0  0  0  0
  3 33  1  0  0  0  0
  3 34  1  0  0  0  0
  4  5  1  0  0  0  0
  4 21  1  0  0  0  0
  5 10  1  0  0  0  0
  5  6  2  0  0  0  0
  6  7  1  0  0  0  0
  7  8  2  0  0  0  0
  7 35  1  0  0  0  0
  8  9  1  0  0  0  0
  9 13  1  0  0  0  0
  9 10  2  0  0  0  0
 10 11  1  0  0  0  0
 11 12  2  0  0  0  0
 12 13  1  0  0  0  0
 12 36  1  0  0  0  0
 13 14  1  0  0  0  0
 14 15  1  0  0  0  0
 14 37  1  0  0  0  0
 14 38  1  0  0  0  0
 15 20  1  0  0  0  0
 15 16  1  0  0  0  0
 15 17  1  0  0  0  0
 16 39  1  0  0  0  0
 17 18  1  0  0  0  0
 17 40  1  0  0  0  0
 17 41  1  0  0  0  0
 18 19  1  0  0  0  0
 18 42  1  0  0  0  0
 18 43  1  0  0  0  0
 19 20  1  0  0  0  0
 20 44  1  0  0  0  0
 20 45  1  0  0  0  0
 21 22  1  0  0  0  0
 21 46  1  0  0  0  0
 21 47  1  0  0  0  0
 22 26  1  0  0  0  0
 22 23  1  0  0  0  0
 22 28  1  0  0  0  0
 23 24  1  0  0  0  0
 23 48  1  0  0  0  0
 23 49  1  0  0  0  0
 24 25  1  0  0  0  0
 24 50  1  0  0  0  0
 24 51  1  0  0  0  0
 25 26  1  0  0  0  0
 26 27  1  0  0  0  0
 26 52  1  0  0  0  0
 27 53  1  0  0  0  0
 27 54  1  0  0  0  0
 27 55  1  0  0  0  0
M  END
> <s_m_source_file>
AV-unprocessed.smi

> <i_m_source_file_index>
281

> <i_lp_mmshare_version>
43012

> <i_f3d_flags>
0

> <s_epik_input>
W0NIM11bQ0BASF0xT1tDSDJdW0NIMl1bQ0BAXTEyW0NIMl1OKFtDSDJdW0NASF0oTzIpW0NIM10pYyhuW2NIXW4zKWMoYzM0KW5bY0hdbjRbQ0gyXVtDQEBdNShbT0hdKVtDSDJdW0NIMl1PW0NIMl01

> <s_epik_cmdline>
J2VwaWtfcHl0aG9uJywgJy1waCcsICc3LjAnLCAnLXRuJywgJzgnLCAnLW1hJywgJzIwMCcsICctbWV0YWxfYmluZGluZycsICctaW1hZScsICc8aW5maWxlLm1hZT4nLCAnLW9tYWUnLCAnPG91dGZpbGUubWFlPic=

> <r_lp_tautomer_probability>
1

> <r_epik_Ionization_Penalty>
0.00571331

> <r_epik_Ionization_Penalty_Charging>
0

> <r_epik_Ionization_Penalty_Neutral>
0.00571331

> <r_epik_State_Penalty>
0.00399586

> <r_epik_Charging_Adjusted_Penalty>
0.00399586

> <i_epik_Tot_Q>
0

> <i_epik_Tot_abs_Q>
0

> <r_epik_Metal_State_Penalty>
-0

> <b_epik_Metal_Only>
0

> <s_lp_Force_Field>
OPLS_2005

> <r_lp_Energy>
55.4075

> <b_lp_Chiralities_Consistent>
1

> <s_lp_Variant>
AV-unprocessed.smi:281-15

> <Gold.Version>
5.8.1

> <Gold.Id.Protein>
6NUR|6NUR_protein|mol2

> <Gold.PLP.Fitness>
45.2535

> <Gold.PLP.PLP>
-43.1692

> <Gold.PLP.part.hbond>
-1.9306

> <Gold.PLP.part.metal>
0.0000

> <Gold.PLP.part.buried>
-5.5627

> <Gold.PLP.part.nonpolar>
-36.0972

> <Gold.PLP.part.repulsive>
0.5601

> <Gold.PLP.ligand.clash>
0.0000

> <Gold.PLP.ligand.torsion>
0.3810

> <Gold.PLP.Chemscore.Hbond>
0.8500

> <Gold.PLP.Chemscore.CHOScore>
0.0000

> <Gold.PLP.Chemscore.Metal>
0.0000

> <Gold.Chemscore.Hbonds>
donor molecule, donor type, donor heavy atom, donor atom, acceptor molecule, acceptor atom, score
      P1  H  6933  6944       L1    11  1.00

> <Gold.PLP.Chemscore.Internal.Correction>
0.2963

> <Gold.Rescore>
     Score         DG    S(hbond)    S(metal)    S(lipo)     H(rot)  DE(clash)    DE(int)     intcor
     12.01     -13.74       0.79        0.00      94.00       2.09       0.13       1.60       ----

> <Gold.Chemscore.Fitness>
12.0090

> <Gold.Chemscore.DG>
-13.7434

> <Gold.Chemscore.ZeroCoef>
-5.4800

> <Gold.Chemscore.Hbond>
0.7854

> <Gold.Chemscore.Metal>
0.0000

> <Gold.Chemscore.Lipo>
93.9953

> <Gold.Chemscore.Internal_Hbond>
0.0000

> <Gold.Chemscore.DEClash>
0.1349

> <Gold.Chemscore.DEInternal>
1.5995

> <Gold.Chemscore.Rot>
2.0927

> <Gold.Chemscore.Internal.Correction>
   9.000000E+99

> <Gold.Chemscore.Hbonds>
donor molecule, donor type, donor heavy atom, donor atom, acceptor molecule, acceptor atom, score
      P1  H  6933  6944       L1    11  0.44

> <Gold.Chemscore.Hbond.Weighted>
-2.6233

> <Gold.Chemscore.Metal.Weighted>
-0.0000

> <Gold.Chemscore.Lipo.Weighted>
-10.9974

> <Gold.Chemscore.Internal_Hbond.Weighted>
0.0000

> <Gold.Chemscore.DEClash.Weighted>
0.1349

> <Gold.Chemscore.DEInternal.Weighted>
1.5995

> <Gold.Chemscore.Rot.Weighted>
5.3573

> <Gold.Chemscore.Internal.Correction.Weighted>
   9.000000E+99

> <Gold.Protein.RotatedTorsions>
[ 6907 6896 6895 6894 ] final   28.18 input  -60.11 | X-H torsion
[ 7974 7965 7964 7962 ] final -135.51 input  175.53 | X-H torsion
[ 8008 7997 7996 7995 ] final  179.39 input   59.86 | X-H torsion
[ 10167 10162 10161 10158 ] final  156.54 input  -65.29 | X-H torsion
[ 10718 10713 10712 10709 ] final  160.62 input   66.30 | X-H torsion
[ 10763 10752 10751 10750 ] final -161.51 input  -60.55 | X-H torsion
[ 11005 11000 10999 10996 ] final  -67.56 input  -57.11 | X-H torsion

> <Gold.Protein.ActiveResidues>
 VAL166  LYS551  ARG553  GLY616  TRP617  ASP618  TYR619  PRO620  LYS621  CYS622 
 ASP623  PHE694  ASN695  SER759  ASP760  ASP761  ALA762  ILE779  LEU786  VAL792 
 PHE793  MET794  SER795  GLU796  ALA797  LYS798  CYS799  TRP800  GLU811  SER814 

> <Gold.Protein.RotatedAtoms>
  152.0131  134.9865  160.0568 H   0  0  0  0  0  0  0  0  0  0  0  0  # atno 6907 bound_to 6896
  152.1409  133.4459  159.4775 H   0  0  0  0  0  0  0  0  0  0  0  0  # atno 6908 bound_to 6896
  150.6865  134.2224  159.4445 H   0  0  0  0  0  0  0  0  0  0  0  0  # atno 6909 bound_to 6896
  144.9007  140.6768  143.5086 H   0  0  0  0  0  0  0  0  0  0  0  0  # atno 7974 bound_to 7965
  156.0439  140.1310  157.0125 H   0  0  0  0  0  0  0  0  0  0  0  0  # atno 8008 bound_to 7997
  154.4403  140.1024  156.6348 H   0  0  0  0  0  0  0  0  0  0  0  0  # atno 8009 bound_to 7997
  155.5625  140.3465  155.4497 H   0  0  0  0  0  0  0  0  0  0  0  0  # atno 8010 bound_to 7997
  139.4821  144.4999  151.8183 H   0  0  0  0  0  0  0  0  0  0  0  0  # atno 10167 bound_to 10162
  157.1479  131.0557  151.2294 H   0  0  0  0  0  0  0  0  0  0  0  0  # atno 10718 bound_to 10713
  154.7297  135.3043  154.8912 H   0  0  0  0  0  0  0  0  0  0  0  0  # atno 10763 bound_to 10752
  153.9758  135.6736  153.4752 H   0  0  0  0  0  0  0  0  0  0  0  0  # atno 10764 bound_to 10752
  153.0907  135.4961  154.8605 H   0  0  0  0  0  0  0  0  0  0  0  0  # atno 10765 bound_to 10752
  141.1511  133.6721  156.6311 H   0  0  0  0  0  0  0  0  0  0  0  0  # atno 11005 bound_to 11000
  145.3621  139.1679  143.4378 LP  0  0  0  0  0  0  0  0  0  0  0  0  # atno 17320 bound_to 7965
  146.3107  140.3684  142.8671 LP  0  0  0  0  0  0  0  0  0  0  0  0  # atno 17321 bound_to 7965
  140.4492  144.1879  150.5896 LP  0  0  0  0  0  0  0  0  0  0  0  0  # atno 17342 bound_to 10162
  140.4603  143.2451  151.9229 LP  0  0  0  0  0  0  0  0  0  0  0  0  # atno 17343 bound_to 10162
  157.4247  130.7457  149.6941 LP  0  0  0  0  0  0  0  0  0  0  0  0  # atno 17370 bound_to 10713
  155.9776  130.4061  150.3702 LP  0  0  0  0  0  0  0  0  0  0  0  0  # atno 17371 bound_to 10713
  140.3466  134.7804  157.4437 LP  0  0  0  0  0  0  0  0  0  0  0  0  # atno 17394 bound_to 11000
  140.0894  134.5621  155.8459 LP  0  0  0  0  0  0  0  0  0  0  0  0  # atno 17395 bound_to 11000

$$$$
