AV-unprocessed.smi:2083|AV-procd|sdf|8496|dock8
  -GOLD-   2272011203D 1   1.00000     0.00000
 Structure written by MMmdl.
 45 46  0  0  0  0  0  0  0  0  2 V2000
  152.4185  142.6439  161.2155 C   0  0  0  0  0  0  0  0  0  0  0  0
  151.8157  141.9891  160.0203 C   0  0  0  0  0  0  0  0  0  0  0  0
  150.7929  142.3397  159.1845 C   0  0  0  0  0  0  0  0  0  0  0  0
  150.7491  141.2603  158.2629 C   0  0  0  0  0  0  0  0  0  0  0  0
  149.8009  141.2419  157.2087 N   0  0  0  0  0  0  0  0  0  0  0  0
  149.9320  140.6651  156.0022 C   0  0  0  0  0  0  0  0  0  0  0  0
  150.9173  140.0331  155.6199 O   0  0  0  0  0  0  0  0  0  0  0  0
  148.8435  140.8605  155.2439 N   0  0  0  0  0  0  0  0  0  0  0  0
  148.6723  140.3501  153.8862 C   0  0  0  0  0  0  0  0  0  0  0  0
  147.2866  140.6998  153.2714 C   0  0  2  0  0  0  0  0  0  0  0  0
  146.7512  142.0147  153.8825 C   0  0  0  0  0  0  0  0  0  0  0  0
  146.2580  139.6154  153.4106 N   0  3  2  0  0  0  0  0  0  0  0  0
  145.9494  139.1854  154.8061 C   0  0  0  0  0  0  0  0  0  0  0  0
  144.8017  138.1627  154.8464 C   0  0  0  0  0  0  0  0  0  0  0  0
  145.1026  136.9486  153.9636 C   0  0  0  0  0  0  0  0  0  0  0  0
  145.4195  137.4107  152.5343 C   0  0  2  0  0  0  0  0  0  0  0  0
  145.7390  136.2200  151.6191 C   0  0  0  0  0  0  0  0  0  0  0  0
  146.5725  138.4332  152.5558 C   0  0  0  0  0  0  0  0  0  0  0  0
  151.6646  140.3361  158.5108 N   0  0  0  0  0  0  0  0  0  0  0  0
  152.3523  140.7982  159.6392 O   0  0  0  0  0  0  0  0  0  0  0  0
  152.0365  143.6573  161.3388 H   0  0  0  0  0  0  0  0  0  0  0  0
  153.5029  142.7009  161.1208 H   0  0  0  0  0  0  0  0  0  0  0  0
  152.1860  142.0828  162.1205 H   0  0  0  0  0  0  0  0  0  0  0  0
  150.1765  143.2253  159.2294 H   0  0  0  0  0  0  0  0  0  0  0  0
  148.9313  141.7191  157.3947 H   0  0  0  0  0  0  0  0  0  0  0  0
  148.0778  141.3909  155.6339 H   0  0  0  0  0  0  0  0  0  0  0  0
  149.4892  140.7544  153.2870 H   0  0  0  0  0  0  0  0  0  0  0  0
  148.8077  139.2684  153.9172 H   0  0  0  0  0  0  0  0  0  0  0  0
  147.4430  140.8591  152.2032 H   0  0  0  0  0  0  0  0  0  0  0  0
  147.4502  142.8395  153.7443 H   0  0  0  0  0  0  0  0  0  0  0  0
  146.5797  141.9066  154.9538 H   0  0  0  0  0  0  0  0  0  0  0  0
  145.8145  142.3378  153.4319 H   0  0  0  0  0  0  0  0  0  0  0  0
  146.8457  138.7688  155.2689 H   0  0  0  0  0  0  0  0  0  0  0  0
  145.6315  140.0323  155.4129 H   0  0  0  0  0  0  0  0  0  0  0  0
  144.6272  137.8406  155.8735 H   0  0  0  0  0  0  0  0  0  0  0  0
  143.8785  138.6373  154.5117 H   0  0  0  0  0  0  0  0  0  0  0  0
  145.9463  136.3929  154.3755 H   0  0  0  0  0  0  0  0  0  0  0  0
  144.2496  136.2688  153.9636 H   0  0  0  0  0  0  0  0  0  0  0  0
  144.5346  137.9059  152.1312 H   0  0  0  0  0  0  0  0  0  0  0  0
  146.6213  135.6798  151.9635 H   0  0  0  0  0  0  0  0  0  0  0  0
  145.9280  136.5491  150.5970 H   0  0  0  0  0  0  0  0  0  0  0  0
  144.9079  135.5146  151.5884 H   0  0  0  0  0  0  0  0  0  0  0  0
  146.7762  138.7430  151.5324 H   0  0  0  0  0  0  0  0  0  0  0  0
  147.4853  137.9586  152.9203 H   0  0  0  0  0  0  0  0  0  0  0  0
  145.3978  140.0086  153.0565 H   0  0  0  0  0  0  0  0  0  0  0  0
  1  2  1  0  0  0  0
  1 21  1  0  0  0  0
  1 22  1  0  0  0  0
  1 23  1  0  0  0  0
  2 20  1  0  0  0  0
  2  3  2  0  0  0  0
  3  4  1  0  0  0  0
  3 24  1  0  0  0  0
  4  5  1  0  0  0  0
  4 19  2  0  0  0  0
  5  6  1  0  0  0  0
  5 25  1  0  0  0  0
  6  7  2  0  0  0  0
  6  8  1  0  0  0  0
  8  9  1  0  0  0  0
  8 26  1  0  0  0  0
  9 10  1  0  0  0  0
  9 27  1  0  0  0  0
  9 28  1  0  0  0  0
 10 11  1  0  0  0  0
 10 12  1  0  0  0  0
 10 29  1  0  0  0  0
 11 30  1  0  0  0  0
 11 31  1  0  0  0  0
 11 32  1  0  0  0  0
 12 18  1  0  0  0  0
 12 13  1  0  0  0  0
 12 45  1  0  0  0  0
 13 14  1  0  0  0  0
 13 33  1  0  0  0  0
 13 34  1  0  0  0  0
 14 15  1  0  0  0  0
 14 35  1  0  0  0  0
 14 36  1  0  0  0  0
 15 16  1  0  0  0  0
 15 37  1  0  0  0  0
 15 38  1  0  0  0  0
 16 17  1  0  0  0  0
 16 18  1  0  0  0  0
 16 39  1  0  0  0  0
 17 40  1  0  0  0  0
 17 41  1  0  0  0  0
 17 42  1  0  0  0  0
 18 43  1  0  0  0  0
 18 44  1  0  0  0  0
 19 20  1  0  0  0  0
M  CHG  1  12   1
M  END
> <s_m_source_file>
AV-unprocessed.smi

> <i_m_source_file_index>
2083

> <i_lp_mmshare_version>
43012

> <i_f3d_flags>
0

> <s_epik_input>
W0NIM11jMVtjSF1jKG5vMSlbTkhdQyg9TylbTkhdW0NIMl1bQ0BIXShbQ0gzXSlOMltDSDJdW0NIMl1bQ0gyXVtDQEBIXShbQ0gzXSlbQ0gyXTI=

> <s_epik_cmdline>
J2VwaWtfcHl0aG9uJywgJy1waCcsICc3LjAnLCAnLXRuJywgJzgnLCAnLW1hJywgJzIwMCcsICctbWV0YWxfYmluZGluZycsICctaW1hZScsICc8aW5maWxlLm1hZT4nLCAnLW9tYWUnLCAnPG91dGZpbGUubWFlPic=

> <r_epik_Ionization_Penalty>
0.00216453

> <r_epik_Ionization_Penalty_Charging>
0.00212879

> <r_epik_Ionization_Penalty_Neutral>
3.57418e-05

> <r_epik_State_Penalty>
0.00146033

> <r_epik_Charging_Adjusted_Penalty>
0.00358912

> <i_epik_Tot_Q>
1

> <i_epik_Tot_abs_Q>
1

> <r_epik_Metal_State_Penalty>
0.0215827

> <b_epik_Metal_Only>
0

> <s_lp_Force_Field>
OPLS_2005

> <r_lp_Energy>
18.748

> <b_lp_Chiralities_Consistent>
1

> <s_lp_Variant>
AV-unprocessed.smi:2083-7

> <Gold.Version>
5.8.1

> <Gold.Id.Protein>
6NUR|6NUR_protein|mol2

> <Gold.PLP.Fitness>
39.9118

> <Gold.PLP.PLP>
-32.2881

> <Gold.PLP.part.hbond>
-2.0000

> <Gold.PLP.part.metal>
0.0000

> <Gold.PLP.part.buried>
-3.3443

> <Gold.PLP.part.nonpolar>
-27.3590

> <Gold.PLP.part.repulsive>
0.2001

> <Gold.PLP.ligand.clash>
0.0000

> <Gold.PLP.ligand.torsion>
0.7073

> <Gold.PLP.Chemscore.Hbond>
2.9920

> <Gold.PLP.Chemscore.CHOScore>
0.0000

> <Gold.PLP.Chemscore.Metal>
0.0000

> <Gold.Chemscore.Hbonds>
donor molecule, donor type, donor heavy atom, donor atom, acceptor molecule, acceptor atom, score
      L1  H    12    45       P1 10175  2.00
      P1  H  7989  7998       L1     7  0.11

> <Gold.PLP.Chemscore.Internal.Correction>
0.0623

> <Gold.Rescore>
     Score         DG    S(hbond)    S(metal)    S(lipo)     H(rot)  DE(clash)    DE(int)     intcor
     14.72     -16.69       1.95        0.00      74.09       1.55       0.73       1.24       ----

> <Gold.Chemscore.Fitness>
14.7150

> <Gold.Chemscore.DG>
-16.6878

> <Gold.Chemscore.ZeroCoef>
-5.4800

> <Gold.Chemscore.Hbond>
1.9463

> <Gold.Chemscore.Metal>
0.0000

> <Gold.Chemscore.Lipo>
74.0876

> <Gold.Chemscore.Internal_Hbond>
0.0000

> <Gold.Chemscore.DEClash>
0.7339

> <Gold.Chemscore.DEInternal>
1.2389

> <Gold.Chemscore.Rot>
1.5474

> <Gold.Chemscore.Internal.Correction>
   9.000000E+99

> <Gold.Chemscore.Hbonds>
donor molecule, donor type, donor heavy atom, donor atom, acceptor molecule, acceptor atom, score
      L1  H    12    45       P1 10175  1.00
      P1  H  7989  7998       L1     7  0.10

> <Gold.Chemscore.Hbond.Weighted>
-6.5008

> <Gold.Chemscore.Metal.Weighted>
-0.0000

> <Gold.Chemscore.Lipo.Weighted>
-8.6682

> <Gold.Chemscore.Internal_Hbond.Weighted>
0.0000

> <Gold.Chemscore.DEClash.Weighted>
0.7339

> <Gold.Chemscore.DEInternal.Weighted>
1.2389

> <Gold.Chemscore.Rot.Weighted>
3.9612

> <Gold.Chemscore.Internal.Correction.Weighted>
   9.000000E+99

> <Gold.Protein.RotatedTorsions>
[ 6907 6896 6895 6894 ] final   45.88 input  -60.11 | X-H torsion
[ 7974 7965 7964 7962 ] final  -38.96 input  175.53 | X-H torsion
[ 8008 7997 7996 7995 ] final -175.52 input   59.86 | X-H torsion
[ 10167 10162 10161 10158 ] final   21.12 input  -65.29 | X-H torsion
[ 10718 10713 10712 10709 ] final   -1.23 input   66.30 | X-H torsion
[ 10763 10752 10751 10750 ] final  136.60 input  -60.55 | X-H torsion
[ 11005 11000 10999 10996 ] final -170.15 input  -57.11 | X-H torsion

> <Gold.Protein.ActiveResidues>
 VAL166  LYS551  ARG553  GLY616  TRP617  ASP618  TYR619  PRO620  LYS621  CYS622 
 ASP623  PHE694  ASN695  SER759  ASP760  ASP761  ALA762  ILE779  LEU786  VAL792 
 PHE793  MET794  SER795  GLU796  ALA797  LYS798  CYS799  TRP800  GLU811  SER814 

> <Gold.Protein.RotatedAtoms>
  152.2498  134.8144  160.0447 H   0  0  0  0  0  0  0  0  0  0  0  0  # atno 6907 bound_to 6896
  151.8829  133.3494  159.3780 H   0  0  0  0  0  0  0  0  0  0  0  0  # atno 6908 bound_to 6896
  150.7080  134.4927  159.5568 H   0  0  0  0  0  0  0  0  0  0  0  0  # atno 6909 bound_to 6896
  146.0440  140.6571  142.9073 H   0  0  0  0  0  0  0  0  0  0  0  0  # atno 7974 bound_to 7965
  155.9836  140.1187  157.0704 H   0  0  0  0  0  0  0  0  0  0  0  0  # atno 8008 bound_to 7997
  154.4190  140.1139  156.5537 H   0  0  0  0  0  0  0  0  0  0  0  0  # atno 8009 bound_to 7997
  155.6437  140.3473  155.4726 H   0  0  0  0  0  0  0  0  0  0  0  0  # atno 8010 bound_to 7997
  140.5451  143.9609  150.6543 H   0  0  0  0  0  0  0  0  0  0  0  0  # atno 10167 bound_to 10162
  156.8087  130.5417  149.5712 H   0  0  0  0  0  0  0  0  0  0  0  0  # atno 10718 bound_to 10713
  153.8592  135.3069  155.3437 H   0  0  0  0  0  0  0  0  0  0  0  0  # atno 10763 bound_to 10752
  154.7856  135.4811  153.9942 H   0  0  0  0  0  0  0  0  0  0  0  0  # atno 10764 bound_to 10752
  153.1472  135.6836  153.9031 H   0  0  0  0  0  0  0  0  0  0  0  0  # atno 10765 bound_to 10752
  140.5227  134.5693  157.5052 H   0  0  0  0  0  0  0  0  0  0  0  0  # atno 11005 bound_to 11000
  144.7088  140.3959  143.7096 LP  0  0  0  0  0  0  0  0  0  0  0  0  # atno 17320 bound_to 7965
  145.6837  139.1624  143.2686 LP  0  0  0  0  0  0  0  0  0  0  0  0  # atno 17321 bound_to 7965
  140.3020  143.3254  152.0963 LP  0  0  0  0  0  0  0  0  0  0  0  0  # atno 17342 bound_to 10162
  139.5004  144.6691  151.6286 LP  0  0  0  0  0  0  0  0  0  0  0  0  # atno 17343 bound_to 10162
  156.1057  130.6003  150.9967 LP  0  0  0  0  0  0  0  0  0  0  0  0  # atno 17370 bound_to 10713
  157.6517  131.0896  150.8036 LP  0  0  0  0  0  0  0  0  0  0  0  0  # atno 17371 bound_to 10713
  139.9597  134.7474  156.0264 LP  0  0  0  0  0  0  0  0  0  0  0  0  # atno 17394 bound_to 11000
  141.1325  133.6583  156.3504 LP  0  0  0  0  0  0  0  0  0  0  0  0  # atno 17395 bound_to 11000

$$$$
