AV-unprocessed.smi:2882|AV-procd|sdf|11072|dock6
  -GOLD-   2272015543D 1   1.00000     0.00000
 Structure written by MMmdl.
 28 30  0  0  0  0  0  0  0  0  1 V2000
  153.5020  138.9929  155.5610 N   0  0  0  0  0  0  0  0  0  0  0  0
  152.4725  139.5214  155.5730 C   0  0  0  0  0  0  0  0  0  0  0  0
  151.1755  140.1860  155.5890 C   0  0  0  0  0  0  0  0  0  0  0  0
  150.3924  140.0180  154.4982 N   0  0  0  0  0  0  0  0  0  0  0  0
  149.1910  140.6337  154.4992 C   0  0  0  0  0  0  0  0  0  0  0  0
  148.7653  141.4185  155.5883 C   0  0  0  0  0  0  0  0  0  0  0  0
  149.5394  141.5909  156.6803 N   0  0  0  0  0  0  0  0  0  0  0  0
  150.7507  140.9802  156.6913 C   0  0  0  0  0  0  0  0  0  0  0  0
  151.5688  141.1499  157.8231 N   0  0  0  0  0  0  0  0  0  0  0  0
  151.1850  142.0563  158.9011 C   0  0  1  0  0  0  0  0  0  0  0  0
  152.3664  142.4725  159.7806 C   0  0  0  0  0  0  0  0  0  0  0  0
  152.2698  144.0042  159.7356 C   0  0  1  0  0  0  0  0  0  0  0  0
  152.7486  144.5601  158.3883 C   0  0  0  0  0  0  0  0  0  0  0  0
  151.6017  144.1592  157.4627 C   0  0  0  0  0  0  0  0  0  0  0  0
  150.6549  143.4251  158.4277 C   0  0  2  0  0  0  0  0  0  0  0  0
  150.8692  144.1835  159.6061 O   0  0  0  0  0  0  0  0  0  0  0  0
  148.5666  140.4996  153.6284 H   0  0  0  0  0  0  0  0  0  0  0  0
  147.8027  141.9081  155.5836 H   0  0  0  0  0  0  0  0  0  0  0  0
  152.5404  140.8819  157.7604 H   0  0  0  0  0  0  0  0  0  0  0  0
  150.4381  141.5736  159.5330 H   0  0  0  0  0  0  0  0  0  0  0  0
  152.2265  142.1039  160.7973 H   0  0  0  0  0  0  0  0  0  0  0  0
  153.3321  142.1130  159.4216 H   0  0  0  0  0  0  0  0  0  0  0  0
  152.7102  144.5015  160.6002 H   0  0  0  0  0  0  0  0  0  0  0  0
  152.8467  145.6456  158.4274 H   0  0  0  0  0  0  0  0  0  0  0  0
  153.7076  144.1407  158.0825 H   0  0  0  0  0  0  0  0  0  0  0  0
  151.1174  145.0477  157.0557 H   0  0  0  0  0  0  0  0  0  0  0  0
  151.9256  143.5411  156.6250 H   0  0  0  0  0  0  0  0  0  0  0  0
  149.6167  143.4074  158.0955 H   0  0  0  0  0  0  0  0  0  0  0  0
  1  2  3  0  0  0  0
  2  3  1  0  0  0  0
  3  8  1  0  0  0  0
  3  4  2  0  0  0  0
  4  5  1  0  0  0  0
  5  6  2  0  0  0  0
  5 17  1  0  0  0  0
  6  7  1  0  0  0  0
  6 18  1  0  0  0  0
  7  8  2  0  0  0  0
  8  9  1  0  0  0  0
  9 10  1  0  0  0  0
  9 19  1  0  0  0  0
 10 15  1  0  0  0  0
 10 11  1  0  0  0  0
 10 20  1  0  0  0  0
 11 12  1  0  0  0  0
 11 21  1  0  0  0  0
 11 22  1  0  0  0  0
 12 16  1  0  0  0  0
 12 13  1  0  0  0  0
 12 23  1  0  0  0  0
 13 14  1  0  0  0  0
 13 24  1  0  0  0  0
 13 25  1  0  0  0  0
 14 15  1  0  0  0  0
 14 26  1  0  0  0  0
 14 27  1  0  0  0  0
 15 16  1  0  0  0  0
 15 28  1  0  0  0  0
M  END
> <s_m_source_file>
AV-unprocessed.smi

> <i_m_source_file_index>
2882

> <i_lp_mmshare_version>
43012

> <i_f3d_flags>
0

> <s_epik_input>
TiNDYzFuW2NIXVtjSF1uYzFbTkhdW0NASF0oW0NIMl1bQ0BASF0yMylbQ0BASF0oTzMpW0NIMl1bQ0gyXTI=

> <s_epik_cmdline>
J2VwaWtfcHl0aG9uJywgJy1waCcsICc3LjAnLCAnLXRuJywgJzgnLCAnLW1hJywgJzIwMCcsICctbWV0YWxfYmluZGluZycsICctaW1hZScsICc8aW5maWxlLm1hZT4nLCAnLW9tYWUnLCAnPG91dGZpbGUubWFlPic=

> <r_lp_tautomer_probability>
1

> <r_epik_Ionization_Penalty>
4.95445e-05

> <r_epik_Ionization_Penalty_Charging>
0

> <r_epik_Ionization_Penalty_Neutral>
4.95445e-05

> <r_epik_State_Penalty>
-0

> <r_epik_Charging_Adjusted_Penalty>
0

> <i_epik_Tot_Q>
0

> <i_epik_Tot_abs_Q>
0

> <r_epik_Metal_State_Penalty>
-0

> <b_epik_Metal_Only>
0

> <s_lp_Force_Field>
OPLS_2005

> <r_lp_Energy>
50.4858

> <b_lp_Chiralities_Consistent>
1

> <s_lp_Variant>
AV-unprocessed.smi:2882-2

> <Gold.Version>
5.8.1

> <Gold.Id.Protein>
6NUR|6NUR_protein|mol2

> <Gold.PLP.Fitness>
42.6365

> <Gold.PLP.PLP>
-34.9389

> <Gold.PLP.part.hbond>
-2.0000

> <Gold.PLP.part.metal>
0.0000

> <Gold.PLP.part.buried>
-2.3780

> <Gold.PLP.part.nonpolar>
-31.4562

> <Gold.PLP.part.repulsive>
0.3955

> <Gold.PLP.ligand.clash>
0.0000

> <Gold.PLP.ligand.torsion>
0.2418

> <Gold.PLP.Chemscore.Hbond>
1.5796

> <Gold.PLP.Chemscore.CHOScore>
1.1441

> <Gold.PLP.Chemscore.Metal>
0.0000

> <Gold.Chemscore.Hbonds>
donor molecule, donor type, donor heavy atom, donor atom, acceptor molecule, acceptor atom, score
      P1  H  7989  7998       L1     4  0.50
      P1  H  7997  8009       L1     1  0.88
      L1  C     5    17       P1  7957  0.45

> <Gold.PLP.Chemscore.Internal.Correction>
0.0100

> <Gold.Rescore>
     Score         DG    S(hbond)    S(metal)    S(lipo)     H(rot)  DE(clash)    DE(int)     intcor
     15.71     -15.83       0.91        0.00      84.29       1.00       0.07       0.05       ----

> <Gold.Chemscore.Fitness>
15.7092

> <Gold.Chemscore.DG>
-15.8344

> <Gold.Chemscore.ZeroCoef>
-5.4800

> <Gold.Chemscore.Hbond>
0.9140

> <Gold.Chemscore.Metal>
0.0000

> <Gold.Chemscore.Lipo>
84.2881

> <Gold.Chemscore.Internal_Hbond>
0.0000

> <Gold.Chemscore.DEClash>
0.0739

> <Gold.Chemscore.DEInternal>
0.0513

> <Gold.Chemscore.Rot>
1.0000

> <Gold.Chemscore.Internal.Correction>
   9.000000E+99

> <Gold.Chemscore.Hbonds>
donor molecule, donor type, donor heavy atom, donor atom, acceptor molecule, acceptor atom, score
      P1  H  7989  7998       L1     4  0.02
      P1  H  7997  8009       L1     1  0.19

> <Gold.Chemscore.Hbond.Weighted>
-3.0527

> <Gold.Chemscore.Metal.Weighted>
-0.0000

> <Gold.Chemscore.Lipo.Weighted>
-9.8617

> <Gold.Chemscore.Internal_Hbond.Weighted>
0.0000

> <Gold.Chemscore.DEClash.Weighted>
0.0739

> <Gold.Chemscore.DEInternal.Weighted>
0.0513

> <Gold.Chemscore.Rot.Weighted>
2.5600

> <Gold.Chemscore.Internal.Correction.Weighted>
   9.000000E+99

> <Gold.Protein.RotatedTorsions>
[ 6907 6896 6895 6894 ] final  -74.36 input  -60.11 | X-H torsion
[ 7974 7965 7964 7962 ] final   85.80 input  175.53 | X-H torsion
[ 8008 7997 7996 7995 ] final -157.14 input   59.86 | X-H torsion
[ 10167 10162 10161 10158 ] final  -39.36 input  -65.29 | X-H torsion
[ 10718 10713 10712 10709 ] final   72.09 input   66.30 | X-H torsion
[ 10763 10752 10751 10750 ] final  -10.23 input  -60.55 | X-H torsion
[ 11005 11000 10999 10996 ] final   71.44 input  -57.11 | X-H torsion

> <Gold.Protein.ActiveResidues>
 VAL166  LYS551  ARG553  GLY616  TRP617  ASP618  TYR619  PRO620  LYS621  CYS622 
 ASP623  PHE694  ASN695  SER759  ASP760  ASP761  ALA762  ILE779  LEU786  VAL792 
 PHE793  MET794  SER795  GLU796  ALA797  LYS798  CYS799  TRP800  GLU811  SER814 

> <Gold.Protein.RotatedAtoms>
  150.7096  134.4881  159.5501 H   0  0  0  0  0  0  0  0  0  0  0  0  # atno 6907 bound_to 6896
  152.2504  134.8136  160.0456 H   0  0  0  0  0  0  0  0  0  0  0  0  # atno 6908 bound_to 6896
  151.8885  133.3475  159.3827 H   0  0  0  0  0  0  0  0  0  0  0  0  # atno 6909 bound_to 6896
  145.5808  139.2325  143.2354 H   0  0  0  0  0  0  0  0  0  0  0  0  # atno 7974 bound_to 7965
  155.7279  140.0798  157.2302 H   0  0  0  0  0  0  0  0  0  0  0  0  # atno 8008 bound_to 7997
  154.4036  140.1601  156.2530 H   0  0  0  0  0  0  0  0  0  0  0  0  # atno 8009 bound_to 7997
  155.9136  140.3402  155.6121 H   0  0  0  0  0  0  0  0  0  0  0  0  # atno 8010 bound_to 7997
  140.7066  143.3219  151.2771 H   0  0  0  0  0  0  0  0  0  0  0  0  # atno 10167 bound_to 10162
  157.6484  130.9561  150.0880 H   0  0  0  0  0  0  0  0  0  0  0  0  # atno 10718 bound_to 10713
  153.4662  135.7016  153.6020 H   0  0  0  0  0  0  0  0  0  0  0  0  # atno 10763 bound_to 10752
  153.4294  135.3806  155.2161 H   0  0  0  0  0  0  0  0  0  0  0  0  # atno 10764 bound_to 10752
  154.8726  135.3947  154.4094 H   0  0  0  0  0  0  0  0  0  0  0  0  # atno 10765 bound_to 10752
  139.9543  134.7171  156.0789 H   0  0  0  0  0  0  0  0  0  0  0  0  # atno 11005 bound_to 11000
  146.1718  140.6634  142.9230 LP  0  0  0  0  0  0  0  0  0  0  0  0  # atno 17320 bound_to 7965
  144.7395  140.4902  143.6879 LP  0  0  0  0  0  0  0  0  0  0  0  0  # atno 17321 bound_to 7965
  139.6676  144.0077  152.2733 LP  0  0  0  0  0  0  0  0  0  0  0  0  # atno 17342 bound_to 10162
  139.9665  144.6522  150.8029 LP  0  0  0  0  0  0  0  0  0  0  0  0  # atno 17343 bound_to 10162
  156.1837  130.3651  149.9001 LP  0  0  0  0  0  0  0  0  0  0  0  0  # atno 17370 bound_to 10713
  156.6947  130.8909  151.3592 LP  0  0  0  0  0  0  0  0  0  0  0  0  # atno 17371 bound_to 10713
  141.1212  133.6612  156.3219 LP  0  0  0  0  0  0  0  0  0  0  0  0  # atno 17394 bound_to 11000
  140.5645  134.5901  157.5442 LP  0  0  0  0  0  0  0  0  0  0  0  0  # atno 17395 bound_to 11000

$$$$
