AV-unprocessed.smi:1078|AV-procd|sdf|4703|dock8
  -GOLD-   22720 3223D 1   1.00000     0.00000
 Structure written by MMmdl.
 40 41  0  0  0  0  0  0  0  0  2 V2000
  147.3125  142.1470  154.5313 C   0  0  0  0  0  0  0  0  0  0  0  0
  148.3987  141.2160  155.0969 C   0  0  1  0  0  0  0  0  0  0  0  0
  149.0012  140.2827  154.0201 C   0  0  0  0  0  0  0  0  0  0  0  0
  150.0988  139.4713  154.5156 N   0  0  0  0  0  0  0  0  0  0  0  0
  150.1963  138.0963  154.5662 C   0  0  0  0  0  0  0  0  0  0  0  0
  151.4160  137.7955  155.1011 C   0  0  0  0  0  0  0  0  0  0  0  0
  152.0040  139.0690  155.3410 C   0  0  0  0  0  0  0  0  0  0  0  0
  151.2148  140.0700  154.9852 N   0  0  0  0  0  0  0  0  0  0  0  0
  149.4478  142.0338  155.7461 N   0  3  0  0  0  0  0  0  0  0  0  0
  149.8160  141.6280  157.1196 C   0  0  0  0  0  0  0  0  0  0  0  0
  151.0936  142.3448  157.5942 C   0  0  0  0  0  0  0  0  0  0  0  0
  151.4877  141.8870  159.0135 C   0  0  0  0  0  0  0  0  0  0  0  0
  152.7630  142.5907  159.5055 C   0  0  0  0  0  0  0  0  0  0  0  0
  152.6091  144.1182  159.4585 C   0  0  0  0  0  0  0  0  0  0  0  0
  152.2162  144.5902  158.0506 C   0  0  0  0  0  0  0  0  0  0  0  0
  150.9429  143.8821  157.5600 C   0  0  0  0  0  0  0  0  0  0  0  0
  146.4642  141.5854  154.1389 H   0  0  0  0  0  0  0  0  0  0  0  0
  147.7035  142.7669  153.7238 H   0  0  0  0  0  0  0  0  0  0  0  0
  146.9249  142.8121  155.3037 H   0  0  0  0  0  0  0  0  0  0  0  0
  147.9295  140.6057  155.8703 H   0  0  0  0  0  0  0  0  0  0  0  0
  148.2319  139.6141  153.6312 H   0  0  0  0  0  0  0  0  0  0  0  0
  149.3737  140.8566  153.1713 H   0  0  0  0  0  0  0  0  0  0  0  0
  149.3991  137.4527  154.2240 H   0  0  0  0  0  0  0  0  0  0  0  0
  151.8272  136.8146  155.2898 H   0  0  0  0  0  0  0  0  0  0  0  0
  152.9744  139.2938  155.7587 H   0  0  0  0  0  0  0  0  0  0  0  0
  150.2746  142.0304  155.1658 H   0  0  0  0  0  0  0  0  0  0  0  0
  148.9920  141.8383  157.8030 H   0  0  0  0  0  0  0  0  0  0  0  0
  149.9774  140.5502  157.1376 H   0  0  0  0  0  0  0  0  0  0  0  0
  151.9068  142.0651  156.9221 H   0  0  0  0  0  0  0  0  0  0  0  0
  150.6709  142.0907  159.7076 H   0  0  0  0  0  0  0  0  0  0  0  0
  151.6426  140.8075  159.0295 H   0  0  0  0  0  0  0  0  0  0  0  0
  152.9939  142.2725  160.5226 H   0  0  0  0  0  0  0  0  0  0  0  0
  153.6097  142.2893  158.8873 H   0  0  0  0  0  0  0  0  0  0  0  0
  151.8484  144.4314  160.1747 H   0  0  0  0  0  0  0  0  0  0  0  0
  153.5395  144.5962  159.7661 H   0  0  0  0  0  0  0  0  0  0  0  0
  152.0642  145.6699  158.0511 H   0  0  0  0  0  0  0  0  0  0  0  0
  153.0350  144.3938  157.3570 H   0  0  0  0  0  0  0  0  0  0  0  0
  150.7145  144.2198  156.5489 H   0  0  0  0  0  0  0  0  0  0  0  0
  150.0992  144.1840  158.1823 H   0  0  0  0  0  0  0  0  0  0  0  0
  149.1012  142.9810  155.8002 H   0  0  0  0  0  0  0  0  0  0  0  0
  1  2  1  0  0  0  0
  1 17  1  0  0  0  0
  1 18  1  0  0  0  0
  1 19  1  0  0  0  0
  2  3  1  0  0  0  0
  2  9  1  0  0  0  0
  2 20  1  0  0  0  0
  3  4  1  0  0  0  0
  3 21  1  0  0  0  0
  3 22  1  0  0  0  0
  4  8  1  0  0  0  0
  4  5  1  0  0  0  0
  5  6  2  0  0  0  0
  5 23  1  0  0  0  0
  6  7  1  0  0  0  0
  6 24  1  0  0  0  0
  7  8  2  0  0  0  0
  7 25  1  0  0  0  0
  9 10  1  0  0  0  0
  9 26  1  0  0  0  0
  9 40  1  0  0  0  0
 10 11  1  0  0  0  0
 10 27  1  0  0  0  0
 10 28  1  0  0  0  0
 11 16  1  0  0  0  0
 11 12  1  0  0  0  0
 11 29  1  0  0  0  0
 12 13  1  0  0  0  0
 12 30  1  0  0  0  0
 12 31  1  0  0  0  0
 13 14  1  0  0  0  0
 13 32  1  0  0  0  0
 13 33  1  0  0  0  0
 14 15  1  0  0  0  0
 14 34  1  0  0  0  0
 14 35  1  0  0  0  0
 15 16  1  0  0  0  0
 15 36  1  0  0  0  0
 15 37  1  0  0  0  0
 16 38  1  0  0  0  0
 16 39  1  0  0  0  0
M  CHG  1   9   1
M  END
> <s_m_source_file>
AV-unprocessed.smi

> <i_m_source_file_index>
1078

> <i_lp_mmshare_version>
43012

> <i_f3d_flags>
0

> <s_epik_input>
bjFbY0hdW2NIXVtjSF1uMVtDSDJdW0NAQEhdKFtDSDNdKVtOSF1bQ0gyXVtDSF0yW0NIMl1bQ0gyXVtDSDJdW0NIMl1bQ0gyXTI=

> <s_epik_cmdline>
J2VwaWtfcHl0aG9uJywgJy1waCcsICc3LjAnLCAnLXRuJywgJzgnLCAnLW1hJywgJzIwMCcsICctbWV0YWxfYmluZGluZycsICctaW1hZScsICc8aW5maWxlLm1hZT4nLCAnLW9tYWUnLCAnPG91dGZpbGUubWFlPic=

> <r_lp_tautomer_probability>
1

> <r_epik_Ionization_Penalty>
0.00174474

> <r_epik_Ionization_Penalty_Charging>
0.00174052

> <r_epik_Ionization_Penalty_Neutral>
4.21324e-06

> <r_epik_State_Penalty>
0.00117783

> <r_epik_Charging_Adjusted_Penalty>
0.00291835

> <i_epik_Tot_Q>
1

> <i_epik_Tot_abs_Q>
1

> <r_epik_Metal_State_Penalty>
-0

> <b_epik_Metal_Only>
0

> <s_lp_Force_Field>
OPLS_2005

> <r_lp_Energy>
15.419

> <b_lp_Chiralities_Consistent>
1

> <s_lp_Variant>
AV-unprocessed.smi:1078-2

> <Gold.Version>
5.8.1

> <Gold.Id.Protein>
6NUR|6NUR_protein|mol2

> <Gold.PLP.Fitness>
50.9287

> <Gold.PLP.PLP>
-40.3604

> <Gold.PLP.part.hbond>
-2.0000

> <Gold.PLP.part.metal>
0.0000

> <Gold.PLP.part.buried>
-1.1014

> <Gold.PLP.part.nonpolar>
-38.3279

> <Gold.PLP.part.repulsive>
0.1830

> <Gold.PLP.ligand.clash>
0.0000

> <Gold.PLP.ligand.torsion>
0.7314

> <Gold.PLP.Chemscore.Hbond>
3.0000

> <Gold.PLP.Chemscore.CHOScore>
1.0000

> <Gold.PLP.Chemscore.Metal>
0.0000

> <Gold.Chemscore.Hbonds>
donor molecule, donor type, donor heavy atom, donor atom, acceptor molecule, acceptor atom, score
      L1  H     9    40       P1  8028  2.00
      P1  H  7989  7998       L1     8  0.85
      L1  C     5    23       P1  7948  0.64

> <Gold.PLP.Chemscore.Internal.Correction>
0.0311

> <Gold.Rescore>
     Score         DG    S(hbond)    S(metal)    S(lipo)     H(rot)  DE(clash)    DE(int)     intcor
     19.61     -21.27       1.87        0.00     115.24       1.54       0.78       0.88       ----

> <Gold.Chemscore.Fitness>
19.6074

> <Gold.Chemscore.DG>
-21.2672

> <Gold.Chemscore.ZeroCoef>
-5.4800

> <Gold.Chemscore.Hbond>
1.8684

> <Gold.Chemscore.Metal>
0.0000

> <Gold.Chemscore.Lipo>
115.2422

> <Gold.Chemscore.Internal_Hbond>
0.0000

> <Gold.Chemscore.DEClash>
0.7801

> <Gold.Chemscore.DEInternal>
0.8798

> <Gold.Chemscore.Rot>
1.5378

> <Gold.Chemscore.Internal.Correction>
   9.000000E+99

> <Gold.Chemscore.Hbonds>
donor molecule, donor type, donor heavy atom, donor atom, acceptor molecule, acceptor atom, score
      L1  H     9    40       P1  8028  1.00
      P1  H  7989  7998       L1     8  0.13

> <Gold.Chemscore.Hbond.Weighted>
-6.2406

> <Gold.Chemscore.Metal.Weighted>
-0.0000

> <Gold.Chemscore.Lipo.Weighted>
-13.4833

> <Gold.Chemscore.Internal_Hbond.Weighted>
0.0000

> <Gold.Chemscore.DEClash.Weighted>
0.7801

> <Gold.Chemscore.DEInternal.Weighted>
0.8798

> <Gold.Chemscore.Rot.Weighted>
3.9368

> <Gold.Chemscore.Internal.Correction.Weighted>
   9.000000E+99

> <Gold.Protein.RotatedTorsions>
[ 6907 6896 6895 6894 ] final   80.71 input  -60.11 | X-H torsion
[ 7974 7965 7964 7962 ] final  -12.43 input  175.53 | X-H torsion
[ 8008 7997 7996 7995 ] final  114.41 input   59.86 | X-H torsion
[ 10167 10162 10161 10158 ] final -144.37 input  -65.29 | X-H torsion
[ 10718 10713 10712 10709 ] final   24.13 input   66.30 | X-H torsion
[ 10763 10752 10751 10750 ] final  170.60 input  -60.55 | X-H torsion
[ 11005 11000 10999 10996 ] final  152.29 input  -57.11 | X-H torsion

> <Gold.Protein.ActiveResidues>
 VAL166  LYS551  ARG553  GLY616  TRP617  ASP618  TYR619  PRO620  LYS621  CYS622 
 ASP623  PHE694  ASN695  SER759  ASP760  ASP761  ALA762  ILE779  LEU786  VAL792 
 PHE793  MET794  SER795  GLU796  ALA797  LYS798  CYS799  TRP800  GLU811  SER814 

> <Gold.Protein.RotatedAtoms>
  152.5244  134.3315  159.9184 H   0  0  0  0  0  0  0  0  0  0  0  0  # atno 6907 bound_to 6896
  151.3264  133.4012  159.2666 H   0  0  0  0  0  0  0  0  0  0  0  0  # atno 6908 bound_to 6896
  150.9916  134.9267  159.7960 H   0  0  0  0  0  0  0  0  0  0  0  0  # atno 6909 bound_to 6896
  146.2152  140.3057  142.8378 H   0  0  0  0  0  0  0  0  0  0  0  0  # atno 7974 bound_to 7965
  156.2319  140.2960  156.0211 H   0  0  0  0  0  0  0  0  0  0  0  0  # atno 8008 bound_to 7997
  155.2201  140.0415  157.2964 H   0  0  0  0  0  0  0  0  0  0  0  0  # atno 8009 bound_to 7997
  154.6011  140.2427  155.7799 H   0  0  0  0  0  0  0  0  0  0  0  0  # atno 8010 bound_to 7997
  139.7905  143.7973  152.2649 H   0  0  0  0  0  0  0  0  0  0  0  0  # atno 10167 bound_to 10162
  157.1756  130.6779  149.6094 H   0  0  0  0  0  0  0  0  0  0  0  0  # atno 10718 bound_to 10713
  154.3999  135.2755  155.2103 H   0  0  0  0  0  0  0  0  0  0  0  0  # atno 10763 bound_to 10752
  154.4133  135.6017  153.5969 H   0  0  0  0  0  0  0  0  0  0  0  0  # atno 10764 bound_to 10752
  152.9831  135.5955  154.4265 H   0  0  0  0  0  0  0  0  0  0  0  0  # atno 10765 bound_to 10752
  140.1294  134.8811  157.2183 H   0  0  0  0  0  0  0  0  0  0  0  0  # atno 11005 bound_to 11000
  144.9025  140.7660  143.5858 LP  0  0  0  0  0  0  0  0  0  0  0  0  # atno 17320 bound_to 7965
  145.2983  139.1859  143.4703 LP  0  0  0  0  0  0  0  0  0  0  0  0  # atno 17321 bound_to 7965
  139.8063  144.7354  150.9757 LP  0  0  0  0  0  0  0  0  0  0  0  0  # atno 17342 bound_to 10162
  140.7820  143.4295  151.0716 LP  0  0  0  0  0  0  0  0  0  0  0  0  # atno 17343 bound_to 10162
  155.9732  130.4664  150.6288 LP  0  0  0  0  0  0  0  0  0  0  0  0  # atno 17370 bound_to 10713
  157.4001  131.0808  151.1316 LP  0  0  0  0  0  0  0  0  0  0  0  0  # atno 17371 bound_to 10713
  140.2861  134.3294  155.7328 LP  0  0  0  0  0  0  0  0  0  0  0  0  # atno 17394 bound_to 11000
  141.2167  133.7507  156.9435 LP  0  0  0  0  0  0  0  0  0  0  0  0  # atno 17395 bound_to 11000

$$$$
