AV-unprocessed.smi:1809|AV-procd|sdf|7322|dock2
  -GOLD-   22720 8573D 1   1.00000     0.00000
 Structure written by MMmdl.
 39 41  0  0  0  0  0  0  0  0  3 V2000
  151.5039  142.1015  157.8264 C   0  0  0  0  0  0  0  0  0  0  0  0
  151.4210  140.8588  157.0079 C   0  0  0  0  0  0  0  0  0  0  0  0
  152.3967  139.9477  156.9756 N   0  0  0  0  0  0  0  0  0  0  0  0
  152.0886  138.8813  156.1433 N   0  0  0  0  0  0  0  0  0  0  0  0
  150.8924  139.0055  155.5508 C   0  0  0  0  0  0  0  0  0  0  0  0
  150.4050  138.0777  154.7103 N   0  5  0  0  0  0  0  0  0  0  0  0
  150.6688  136.7692  154.9221 C   0  0  0  0  0  0  0  0  0  0  0  0
  151.5914  136.3067  155.5973 O   0  0  0  0  0  0  0  0  0  0  0  0
  149.8093  135.9423  154.3144 N   0  0  0  0  0  0  0  0  0  0  0  0
  149.8534  134.4893  154.3925 C   0  0  0  0  0  0  0  0  0  0  0  0
  148.5022  133.9262  154.8732 C   0  0  1  0  0  0  0  0  0  0  0  0
  147.3049  134.8150  154.4589 C   0  0  0  0  0  0  0  0  0  0  0  0
  147.0505  134.6331  153.0175 N   0  3  2  0  0  0  0  0  0  0  0  0
  145.9535  135.3997  152.4024 C   0  0  0  0  0  0  0  0  0  0  0  0
  145.5562  134.5890  151.1527 C   0  0  0  0  0  0  0  0  0  0  0  0
  146.3628  133.2800  151.2298 C   0  0  0  0  0  0  0  0  0  0  0  0
  146.8007  133.2277  152.6902 C   0  0  1  0  0  0  0  0  0  0  0  0
  148.0450  132.4029  153.0399 C   0  0  0  0  0  0  0  0  0  0  0  0
  148.3030  132.5720  154.4364 O   0  0  0  0  0  0  0  0  0  0  0  0
  150.0328  140.4770  156.0037 S   0  0  0  0  0  0  0  0  0  0  0  0
  152.0865  142.8566  157.2989 H   0  0  0  0  0  0  0  0  0  0  0  0
  151.9822  141.8930  158.7839 H   0  0  0  0  0  0  0  0  0  0  0  0
  150.5057  142.4968  158.0153 H   0  0  0  0  0  0  0  0  0  0  0  0
  149.0654  136.3556  153.7709 H   0  0  0  0  0  0  0  0  0  0  0  0
  150.0882  134.0923  153.4038 H   0  0  0  0  0  0  0  0  0  0  0  0
  150.6653  134.1826  155.0529 H   0  0  0  0  0  0  0  0  0  0  0  0
  148.5332  133.8983  155.9630 H   0  0  0  0  0  0  0  0  0  0  0  0
  146.4154  134.5336  155.0244 H   0  0  0  0  0  0  0  0  0  0  0  0
  147.5051  135.8650  154.6756 H   0  0  0  0  0  0  0  0  0  0  0  0
  145.1103  135.4627  153.0921 H   0  0  0  0  0  0  0  0  0  0  0  0
  146.2728  136.4138  152.1612 H   0  0  0  0  0  0  0  0  0  0  0  0
  144.4844  134.3866  151.1608 H   0  0  0  0  0  0  0  0  0  0  0  0
  145.7808  135.1300  150.2330 H   0  0  0  0  0  0  0  0  0  0  0  0
  145.7820  132.4062  150.9327 H   0  0  0  0  0  0  0  0  0  0  0  0
  147.2346  133.3431  150.5767 H   0  0  0  0  0  0  0  0  0  0  0  0
  145.9583  132.8740  153.2890 H   0  0  0  0  0  0  0  0  0  0  0  0
  147.8696  131.3462  152.8376 H   0  0  0  0  0  0  0  0  0  0  0  0
  148.9073  132.7024  152.4438 H   0  0  0  0  0  0  0  0  0  0  0  0
  147.8943  134.8945  152.5274 H   0  0  0  0  0  0  0  0  0  0  0  0
  1  2  1  0  0  0  0
  1 21  1  0  0  0  0
  1 22  1  0  0  0  0
  1 23  1  0  0  0  0
  2 20  1  0  0  0  0
  2  3  2  0  0  0  0
  3  4  1  0  0  0  0
  4  5  2  0  0  0  0
  5  6  1  0  0  0  0
  5 20  1  0  0  0  0
  6  7  1  0  0  0  0
  7  8  2  0  0  0  0
  7  9  1  0  0  0  0
  9 10  1  0  0  0  0
  9 24  1  0  0  0  0
 10 11  1  0  0  0  0
 10 25  1  0  0  0  0
 10 26  1  0  0  0  0
 11 19  1  0  0  0  0
 11 12  1  0  0  0  0
 11 27  1  0  0  0  0
 12 13  1  0  0  0  0
 12 28  1  0  0  0  0
 12 29  1  0  0  0  0
 13 17  1  0  0  0  0
 13 14  1  0  0  0  0
 13 39  1  0  0  0  0
 14 15  1  0  0  0  0
 14 30  1  0  0  0  0
 14 31  1  0  0  0  0
 15 16  1  0  0  0  0
 15 32  1  0  0  0  0
 15 33  1  0  0  0  0
 16 17  1  0  0  0  0
 16 34  1  0  0  0  0
 16 35  1  0  0  0  0
 17 18  1  0  0  0  0
 17 36  1  0  0  0  0
 18 19  1  0  0  0  0
 18 37  1  0  0  0  0
 18 38  1  0  0  0  0
M  CHG  1   6  -1
M  CHG  1  13   1
M  END
> <s_m_source_file>
AV-unprocessed.smi

> <i_m_source_file_index>
1809

> <i_lp_mmshare_version>
43012

> <i_f3d_flags>
0

> <s_epik_input>
W0NIM11jMW5uYyhzMSlbTkhdQyg9TylbTkhdW0NIMl1bQ0BIXShbQ0gyXTIpT1tDSDJdW0NAQEhdKE4yMylbQ0gyXVtDSDJdW0NIMl0z

> <s_epik_cmdline>
J2VwaWtfcHl0aG9uJywgJy1waCcsICc3LjAnLCAnLXRuJywgJzgnLCAnLW1hJywgJzIwMCcsICctbWV0YWxfYmluZGluZycsICctaW1hZScsICc8aW5maWxlLm1hZT4nLCAnLW9tYWUnLCAnPG91dGZpbGUubWFlPic=

> <r_lp_tautomer_probability>
1

> <r_epik_Ionization_Penalty>
3.2601

> <r_epik_Ionization_Penalty_Charging>
3.1406

> <r_epik_Ionization_Penalty_Neutral>
0.119497

> <r_epik_State_Penalty>
3.08894

> <r_epik_Charging_Adjusted_Penalty>
6.22954

> <i_epik_Tot_Q>
0

> <i_epik_Tot_abs_Q>
2

> <r_epik_Metal_State_Penalty>
0.510807

> <b_epik_Metal_Only>
1

> <s_lp_Force_Field>
OPLS_2005

> <r_lp_Energy>
31.1034

> <b_lp_Chiralities_Consistent>
1

> <s_lp_Variant>
AV-unprocessed.smi:1809-14

> <Gold.Version>
5.8.1

> <Gold.Id.Protein>
6NUR|6NUR_protein|mol2

> <Gold.PLP.Fitness>
39.5513

> <Gold.PLP.PLP>
-27.6027

> <Gold.PLP.part.hbond>
-4.7463

> <Gold.PLP.part.metal>
0.0000

> <Gold.PLP.part.buried>
-2.5949

> <Gold.PLP.part.nonpolar>
-20.4959

> <Gold.PLP.part.repulsive>
0.3353

> <Gold.PLP.ligand.clash>
0.0000

> <Gold.PLP.ligand.torsion>
0.6790

> <Gold.PLP.Chemscore.Hbond>
4.4160

> <Gold.PLP.Chemscore.CHOScore>
0.0000

> <Gold.PLP.Chemscore.Metal>
0.0000

> <Gold.Chemscore.Hbonds>
donor molecule, donor type, donor heavy atom, donor atom, acceptor molecule, acceptor atom, score
      L1  H     9    24       P1  7948  0.45
      L1  H    13    39       P1  7948  1.98
      P1  H  7997  8009       L1     3  0.90
      P1  H 10752 10765       L1     8  1.00

> <Gold.PLP.Chemscore.Internal.Correction>
0.0585

> <Gold.Rescore>
     Score         DG    S(hbond)    S(metal)    S(lipo)     H(rot)  DE(clash)    DE(int)     intcor
     17.21     -19.46       3.21        0.00      56.70       1.32       0.04       2.22       ----

> <Gold.Chemscore.Fitness>
17.2056

> <Gold.Chemscore.DG>
-19.4584

> <Gold.Chemscore.ZeroCoef>
-5.4800

> <Gold.Chemscore.Hbond>
3.2142

> <Gold.Chemscore.Metal>
0.0000

> <Gold.Chemscore.Lipo>
56.6994

> <Gold.Chemscore.Internal_Hbond>
0.0000

> <Gold.Chemscore.DEClash>
0.0373

> <Gold.Chemscore.DEInternal>
2.2155

> <Gold.Chemscore.Rot>
1.3246

> <Gold.Chemscore.Internal.Correction>
   9.000000E+99

> <Gold.Chemscore.Hbonds>
donor molecule, donor type, donor heavy atom, donor atom, acceptor molecule, acceptor atom, score
      L1  H     9    24       P1  7948  0.43
      L1  H    13    39       P1  7948  0.83
      P1  H  7997  8009       L1     3  0.17
      P1  H 10752 10765       L1     8  0.99

> <Gold.Chemscore.Hbond.Weighted>
-10.7356

> <Gold.Chemscore.Metal.Weighted>
-0.0000

> <Gold.Chemscore.Lipo.Weighted>
-6.6338

> <Gold.Chemscore.Internal_Hbond.Weighted>
0.0000

> <Gold.Chemscore.DEClash.Weighted>
0.0373

> <Gold.Chemscore.DEInternal.Weighted>
2.2155

> <Gold.Chemscore.Rot.Weighted>
3.3910

> <Gold.Chemscore.Internal.Correction.Weighted>
   9.000000E+99

> <Gold.Protein.RotatedTorsions>
[ 6907 6896 6895 6894 ] final -108.77 input  -60.11 | X-H torsion
[ 7974 7965 7964 7962 ] final   43.61 input  175.53 | X-H torsion
[ 8008 7997 7996 7995 ] final -171.56 input   59.86 | X-H torsion
[ 10167 10162 10161 10158 ] final -146.18 input  -65.29 | X-H torsion
[ 10718 10713 10712 10709 ] final -122.87 input   66.30 | X-H torsion
[ 10763 10752 10751 10750 ] final -163.32 input  -60.55 | X-H torsion
[ 11005 11000 10999 10996 ] final   86.71 input  -57.11 | X-H torsion

> <Gold.Protein.ActiveResidues>
 VAL166  LYS551  ARG553  GLY616  TRP617  ASP618  TYR619  PRO620  LYS621  CYS622 
 ASP623  PHE694  ASN695  SER759  ASP760  ASP761  ALA762  ILE779  LEU786  VAL792 
 PHE793  MET794  SER795  GLU796  ALA797  LYS798  CYS799  TRP800  GLU811  SER814 

> <Gold.Protein.RotatedAtoms>
  150.7521  133.9628  159.3520 H   0  0  0  0  0  0  0  0  0  0  0  0  # atno 6907 bound_to 6896
  151.7555  135.0820  160.0347 H   0  0  0  0  0  0  0  0  0  0  0  0  # atno 6908 bound_to 6896
  152.3438  133.6060  159.5931 H   0  0  0  0  0  0  0  0  0  0  0  0  # atno 6909 bound_to 6896
  146.0640  139.5167  142.9640 H   0  0  0  0  0  0  0  0  0  0  0  0  # atno 7974 bound_to 7965
  155.9331  140.1095  157.1116 H   0  0  0  0  0  0  0  0  0  0  0  0  # atno 8008 bound_to 7997
  154.4074  140.1233  156.4894 H   0  0  0  0  0  0  0  0  0  0  0  0  # atno 8009 bound_to 7997
  155.7055  140.3471  155.4953 H   0  0  0  0  0  0  0  0  0  0  0  0  # atno 8010 bound_to 7997
  139.7737  143.8201  152.2628 H   0  0  0  0  0  0  0  0  0  0  0  0  # atno 10167 bound_to 10162
  156.1454  130.6496  150.9834 H   0  0  0  0  0  0  0  0  0  0  0  0  # atno 10718 bound_to 10713
  154.7134  135.3011  154.9162 H   0  0  0  0  0  0  0  0  0  0  0  0  # atno 10763 bound_to 10752
  154.0057  135.6701  153.4766 H   0  0  0  0  0  0  0  0  0  0  0  0  # atno 10764 bound_to 10752
  153.0773  135.5028  154.8345 H   0  0  0  0  0  0  0  0  0  0  0  0  # atno 10765 bound_to 10752
  139.8938  134.8373  156.2758 H   0  0  0  0  0  0  0  0  0  0  0  0  # atno 11005 bound_to 11000
  145.6509  141.0263  143.1760 LP  0  0  0  0  0  0  0  0  0  0  0  0  # atno 17320 bound_to 7965
  144.7192  139.8090  143.7388 LP  0  0  0  0  0  0  0  0  0  0  0  0  # atno 17321 bound_to 7965
  139.8243  144.7282  150.9532 LP  0  0  0  0  0  0  0  0  0  0  0  0  # atno 17342 bound_to 10162
  140.7815  143.4130  151.0963 LP  0  0  0  0  0  0  0  0  0  0  0  0  # atno 17343 bound_to 10162
  157.6612  131.0880  150.7834 LP  0  0  0  0  0  0  0  0  0  0  0  0  # atno 17370 bound_to 10713
  156.7906  130.4888  149.5385 LP  0  0  0  0  0  0  0  0  0  0  0  0  # atno 17371 bound_to 10713
  141.0071  133.7117  156.1052 LP  0  0  0  0  0  0  0  0  0  0  0  0  # atno 17394 bound_to 11000
  140.7418  134.4141  157.5553 LP  0  0  0  0  0  0  0  0  0  0  0  0  # atno 17395 bound_to 11000

$$$$
