AV-unprocessed.smi:2499|AV-procd|sdf|9832|dock5
  -GOLD-   2272013463D 1   1.00000     0.00000
 Structure written by MMmdl.
 27 28  0  0  0  0  0  0  0  0  1 V2000
  152.9018  144.7003  157.8857 C   0  0  0  0  0  0  0  0  0  0  0  0
  151.3984  144.6122  158.1820 C   0  0  1  0  0  0  0  0  0  0  0  0
  150.7736  143.7629  157.1725 N   0  0  0  0  0  0  0  0  0  0  0  0
  150.9964  142.4497  157.0154 C   0  0  0  0  0  0  0  0  0  0  0  0
  151.7660  141.7993  157.7229 O   0  0  0  0  0  0  0  0  0  0  0  0
  150.2743  141.9518  155.9976 N   0  0  0  0  0  0  0  0  0  0  0  0
  150.2511  140.6139  155.5291 C   0  0  0  0  0  0  0  0  0  0  0  0
  150.4383  139.5127  156.2583 N   0  0  0  0  0  0  0  0  0  0  0  0
  150.3218  138.4690  155.3517 C   0  0  0  0  0  0  0  0  0  0  0  0
  150.0671  139.0033  154.1149 C   0  0  0  0  0  0  0  0  0  0  0  0
  150.0204  140.3682  154.2122 O   0  0  0  0  0  0  0  0  0  0  0  0
  151.1545  144.1402  159.6057 C   0  0  0  0  0  0  0  0  0  0  0  0
  151.9239  144.7180  160.7704 C   0  0  0  0  0  0  0  0  0  0  0  0
  152.1762  143.2949  160.3289 C   0  0  0  0  0  0  0  0  0  0  0  0
  153.4009  145.3723  158.5847 H   0  0  0  0  0  0  0  0  0  0  0  0
  153.0835  145.0810  156.8799 H   0  0  0  0  0  0  0  0  0  0  0  0
  153.3807  143.7238  157.9650 H   0  0  0  0  0  0  0  0  0  0  0  0
  150.9908  145.6205  158.0860 H   0  0  0  0  0  0  0  0  0  0  0  0
  150.1243  144.2122  156.5437 H   0  0  0  0  0  0  0  0  0  0  0  0
  149.6771  142.5980  155.5036 H   0  0  0  0  0  0  0  0  0  0  0  0
  150.4282  137.4378  155.6545 H   0  0  0  0  0  0  0  0  0  0  0  0
  149.9063  138.5806  153.1341 H   0  0  0  0  0  0  0  0  0  0  0  0
  150.1154  143.8834  159.8046 H   0  0  0  0  0  0  0  0  0  0  0  0
  152.6979  145.4524  160.5567 H   0  0  0  0  0  0  0  0  0  0  0  0
  151.3834  144.8690  161.7024 H   0  0  0  0  0  0  0  0  0  0  0  0
  151.8053  142.4962  160.9679 H   0  0  0  0  0  0  0  0  0  0  0  0
  153.1158  143.0878  159.8206 H   0  0  0  0  0  0  0  0  0  0  0  0
  1  2  1  0  0  0  0
  1 15  1  0  0  0  0
  1 16  1  0  0  0  0
  1 17  1  0  0  0  0
  2  3  1  0  0  0  0
  2 12  1  0  0  0  0
  2 18  1  0  0  0  0
  3  4  1  0  0  0  0
  3 19  1  0  0  0  0
  4  5  2  0  0  0  0
  4  6  1  0  0  0  0
  6  7  1  0  0  0  0
  6 20  1  0  0  0  0
  7 11  1  0  0  0  0
  7  8  2  0  0  0  0
  8  9  1  0  0  0  0
  9 10  2  0  0  0  0
  9 21  1  0  0  0  0
 10 11  1  0  0  0  0
 10 22  1  0  0  0  0
 12 14  1  0  0  0  0
 12 13  1  0  0  0  0
 12 23  1  0  0  0  0
 13 14  1  0  0  0  0
 13 24  1  0  0  0  0
 13 25  1  0  0  0  0
 14 26  1  0  0  0  0
 14 27  1  0  0  0  0
M  END
> <s_m_source_file>
AV-unprocessed.smi

> <i_m_source_file_index>
2499

> <i_lp_mmshare_version>
43012

> <i_f3d_flags>
0

> <s_epik_input>
W0NIMl0xW0NIMl1bQ0hdMVtDQEhdKFtDSDNdKVtOSF1DKD1PKVtOSF1jMm5bY0hdW2NIXW8y

> <s_epik_cmdline>
J2VwaWtfcHl0aG9uJywgJy1waCcsICc3LjAnLCAnLXRuJywgJzgnLCAnLW1hJywgJzIwMCcsICctbWV0YWxfYmluZGluZycsICctaW1hZScsICc8aW5maWxlLm1hZT4nLCAnLW9tYWUnLCAnPG91dGZpbGUubWFlPic=

> <r_lp_tautomer_probability>
0.785861

> <r_epik_Ionization_Penalty>
5.39182e-05

> <r_epik_Ionization_Penalty_Charging>
0

> <r_epik_Ionization_Penalty_Neutral>
5.39182e-05

> <r_epik_State_Penalty>
0.0482803

> <r_epik_Charging_Adjusted_Penalty>
0.0482803

> <i_epik_Tot_Q>
0

> <i_epik_Tot_abs_Q>
0

> <r_epik_Metal_State_Penalty>
0.0621274

> <b_epik_Metal_Only>
0

> <s_lp_Force_Field>
OPLS_2005

> <r_lp_Energy>
12.2154

> <b_lp_Chiralities_Consistent>
1

> <s_lp_Variant>
AV-unprocessed.smi:2499-2

> <Gold.Version>
5.8.1

> <Gold.Id.Protein>
6NUR|6NUR_protein|mol2

> <Gold.PLP.Fitness>
41.2018

> <Gold.PLP.PLP>
-31.5151

> <Gold.PLP.part.hbond>
-2.7323

> <Gold.PLP.part.metal>
0.0000

> <Gold.PLP.part.buried>
-4.7551

> <Gold.PLP.part.nonpolar>
-25.1982

> <Gold.PLP.part.repulsive>
0.4933

> <Gold.PLP.ligand.clash>
0.0000

> <Gold.PLP.ligand.torsion>
0.7812

> <Gold.PLP.Chemscore.Hbond>
2.2088

> <Gold.PLP.Chemscore.CHOScore>
1.1871

> <Gold.PLP.Chemscore.Metal>
0.0000

> <Gold.Chemscore.Hbonds>
donor molecule, donor type, donor heavy atom, donor atom, acceptor molecule, acceptor atom, score
      L1  H     3    19       P1  8028  1.00
      L1  H     6    20       P1  8028  0.33
      P1  H  7989  7998       L1    11  0.86
      L1  C    10    22       P1  7948  0.35
      L1  C    10    22       P1  7957  0.83

> <Gold.PLP.Chemscore.Internal.Correction>
1.0617

> <Gold.Rescore>
     Score         DG    S(hbond)    S(metal)    S(lipo)     H(rot)  DE(clash)    DE(int)     intcor
     15.75     -17.46       1.94        0.00      75.23       1.29       0.10       1.61       ----

> <Gold.Chemscore.Fitness>
15.7499

> <Gold.Chemscore.DG>
-17.4588

> <Gold.Chemscore.ZeroCoef>
-5.4800

> <Gold.Chemscore.Hbond>
1.9412

> <Gold.Chemscore.Metal>
0.0000

> <Gold.Chemscore.Lipo>
75.2263

> <Gold.Chemscore.Internal_Hbond>
0.0000

> <Gold.Chemscore.DEClash>
0.0995

> <Gold.Chemscore.DEInternal>
1.6093

> <Gold.Chemscore.Rot>
1.2915

> <Gold.Chemscore.Internal.Correction>
   9.000000E+99

> <Gold.Chemscore.Hbonds>
donor molecule, donor type, donor heavy atom, donor atom, acceptor molecule, acceptor atom, score
      L1  H     3    19       P1  8028  0.97
      L1  H     6    20       P1  8028  0.34
      P1  H  7989  7998       L1    11  0.10

> <Gold.Chemscore.Hbond.Weighted>
-6.4835

> <Gold.Chemscore.Metal.Weighted>
-0.0000

> <Gold.Chemscore.Lipo.Weighted>
-8.8015

> <Gold.Chemscore.Internal_Hbond.Weighted>
0.0000

> <Gold.Chemscore.DEClash.Weighted>
0.0995

> <Gold.Chemscore.DEInternal.Weighted>
1.6093

> <Gold.Chemscore.Rot.Weighted>
3.3062

> <Gold.Chemscore.Internal.Correction.Weighted>
   9.000000E+99

> <Gold.Protein.RotatedTorsions>
[ 6907 6896 6895 6894 ] final -145.18 input  -60.11 | X-H torsion
[ 7974 7965 7964 7962 ] final -176.26 input  175.53 | X-H torsion
[ 8008 7997 7996 7995 ] final   49.07 input   59.86 | X-H torsion
[ 10167 10162 10161 10158 ] final -143.17 input  -65.29 | X-H torsion
[ 10718 10713 10712 10709 ] final   84.30 input   66.30 | X-H torsion
[ 10763 10752 10751 10750 ] final  -58.20 input  -60.55 | X-H torsion
[ 11005 11000 10999 10996 ] final   21.93 input  -57.11 | X-H torsion

> <Gold.Protein.ActiveResidues>
 VAL166  LYS551  ARG553  GLY616  TRP617  ASP618  TYR619  PRO620  LYS621  CYS622 
 ASP623  PHE694  ASN695  SER759  ASP760  ASP761  ALA762  ILE779  LEU786  VAL792 
 PHE793  MET794  SER795  GLU796  ALA797  LYS798  CYS799  TRP800  GLU811  SER814 

> <Gold.Protein.RotatedAtoms>
  151.1242  133.5082  159.2600 H   0  0  0  0  0  0  0  0  0  0  0  0  # atno 6907 bound_to 6896
  151.1828  135.0368  159.8809 H   0  0  0  0  0  0  0  0  0  0  0  0  # atno 6908 bound_to 6896
  152.5457  134.1092  159.8404 H   0  0  0  0  0  0  0  0  0  0  0  0  # atno 6909 bound_to 6896
  144.7127  140.1197  143.6406 H   0  0  0  0  0  0  0  0  0  0  0  0  # atno 7974 bound_to 7965
  155.3962  140.3435  155.4254 H   0  0  0  0  0  0  0  0  0  0  0  0  # atno 8008 bound_to 7997
  156.1529  140.1576  156.8772 H   0  0  0  0  0  0  0  0  0  0  0  0  # atno 8009 bound_to 7997
  154.5069  140.0800  156.7893 H   0  0  0  0  0  0  0  0  0  0  0  0  # atno 8010 bound_to 7997
  139.8019  143.7822  152.2658 H   0  0  0  0  0  0  0  0  0  0  0  0  # atno 10167 bound_to 10162
  157.6895  131.0127  150.2652 H   0  0  0  0  0  0  0  0  0  0  0  0  # atno 10718 bound_to 10713
  154.2344  135.6355  153.5186 H   0  0  0  0  0  0  0  0  0  0  0  0  # atno 10763 bound_to 10752
  152.9942  135.5527  154.5977 H   0  0  0  0  0  0  0  0  0  0  0  0  # atno 10764 bound_to 10752
  154.5468  135.2898  155.1019 H   0  0  0  0  0  0  0  0  0  0  0  0  # atno 10765 bound_to 10752
  140.3861  134.1868  155.7663 H   0  0  0  0  0  0  0  0  0  0  0  0  # atno 11005 bound_to 11000
  145.9381  139.2651  143.1285 LP  0  0  0  0  0  0  0  0  0  0  0  0  # atno 17320 bound_to 7965
  145.9452  140.8950  143.0287 LP  0  0  0  0  0  0  0  0  0  0  0  0  # atno 17321 bound_to 7965
  139.7944  144.7398  150.9910 LP  0  0  0  0  0  0  0  0  0  0  0  0  # atno 17342 bound_to 10162
  140.7820  143.4408  151.0554 LP  0  0  0  0  0  0  0  0  0  0  0  0  # atno 17343 bound_to 10162
  156.3224  130.3788  149.7563 LP  0  0  0  0  0  0  0  0  0  0  0  0  # atno 17370 bound_to 10713
  156.5129  130.8180  151.3175 LP  0  0  0  0  0  0  0  0  0  0  0  0  # atno 17371 bound_to 10713
  141.1907  133.8212  157.0909 LP  0  0  0  0  0  0  0  0  0  0  0  0  # atno 17394 bound_to 11000
  140.0441  134.9839  157.1017 LP  0  0  0  0  0  0  0  0  0  0  0  0  # atno 17395 bound_to 11000

$$$$
