AV-unprocessed.smi:2022|AV-procd|sdf|8187|dock3
  -GOLD-   2272010443D 1   1.00000     0.00000
 Structure written by MMmdl.
 34 35  0  0  0  0  0  0  0  0  1 V2000
  153.2372  142.0434  160.8408 C   0  0  0  0  0  0  0  0  0  0  0  0
  152.5338  142.5589  159.6323 C   0  0  0  0  0  0  0  0  0  0  0  0
  151.6410  141.9942  158.7655 C   0  0  0  0  0  0  0  0  0  0  0  0
  151.3843  143.0429  157.8429 C   0  0  0  0  0  0  0  0  0  0  0  0
  150.4899  142.8540  156.7587 N   0  0  0  0  0  0  0  0  0  0  0  0
  149.9247  141.7044  156.3531 C   0  0  0  0  0  0  0  0  0  0  0  0
  150.1125  140.6011  156.8670 O   0  0  0  0  0  0  0  0  0  0  0  0
  149.1146  141.9061  155.3036 N   0  0  0  0  0  0  0  0  0  0  0  0
  148.3059  140.8839  154.6397 C   0  0  2  0  0  0  0  0  0  0  0  0
  147.1641  140.3969  155.5690 C   0  0  0  0  0  0  0  0  0  0  0  0
  146.6168  138.9821  155.2865 C   0  0  0  0  0  0  0  0  0  0  0  0
  146.1603  138.7247  153.8360 C   0  0  0  0  0  0  0  0  0  0  0  0
  147.1990  138.9940  152.7211 C   0  0  0  0  0  0  0  0  0  0  0  0
  148.5916  138.9235  153.1622 N   0  0  0  0  0  0  0  0  0  0  0  0
  149.1775  139.7719  154.0246 C   0  0  0  0  0  0  0  0  0  0  0  0
  150.3634  139.6574  154.3326 O   0  0  0  0  0  0  0  0  0  0  0  0
  152.0577  144.1486  158.1220 N   0  0  0  0  0  0  0  0  0  0  0  0
  152.7984  143.8437  159.2702 O   0  0  0  0  0  0  0  0  0  0  0  0
  152.7666  141.1299  161.2045 H   0  0  0  0  0  0  0  0  0  0  0  0
  153.2151  142.7777  161.6463 H   0  0  0  0  0  0  0  0  0  0  0  0
  154.2797  141.8202  160.6137 H   0  0  0  0  0  0  0  0  0  0  0  0
  151.2407  140.9915  158.7890 H   0  0  0  0  0  0  0  0  0  0  0  0
  150.2438  143.6864  156.2438 H   0  0  0  0  0  0  0  0  0  0  0  0
  149.0200  142.8473  154.9504 H   0  0  0  0  0  0  0  0  0  0  0  0
  147.8411  141.3805  153.7867 H   0  0  0  0  0  0  0  0  0  0  0  0
  147.5087  140.4133  156.6041 H   0  0  0  0  0  0  0  0  0  0  0  0
  146.3435  141.1140  155.5227 H   0  0  0  0  0  0  0  0  0  0  0  0
  147.3674  138.2411  155.5650 H   0  0  0  0  0  0  0  0  0  0  0  0
  145.7759  138.7945  155.9549 H   0  0  0  0  0  0  0  0  0  0  0  0
  145.8512  137.6809  153.7706 H   0  0  0  0  0  0  0  0  0  0  0  0
  145.2617  139.3069  153.6284 H   0  0  0  0  0  0  0  0  0  0  0  0
  147.0583  138.2760  151.9131 H   0  0  0  0  0  0  0  0  0  0  0  0
  147.0181  139.9704  152.2701 H   0  0  0  0  0  0  0  0  0  0  0  0
  149.1586  138.1868  152.7678 H   0  0  0  0  0  0  0  0  0  0  0  0
  1  2  1  0  0  0  0
  1 19  1  0  0  0  0
  1 20  1  0  0  0  0
  1 21  1  0  0  0  0
  2 18  1  0  0  0  0
  2  3  2  0  0  0  0
  3  4  1  0  0  0  0
  3 22  1  0  0  0  0
  4  5  1  0  0  0  0
  4 17  2  0  0  0  0
  5  6  1  0  0  0  0
  5 23  1  0  0  0  0
  6  7  2  0  0  0  0
  6  8  1  0  0  0  0
  8  9  1  0  0  0  0
  8 24  1  0  0  0  0
  9 15  1  0  0  0  0
  9 10  1  0  0  0  0
  9 25  1  0  0  0  0
 10 11  1  0  0  0  0
 10 26  1  0  0  0  0
 10 27  1  0  0  0  0
 11 12  1  0  0  0  0
 11 28  1  0  0  0  0
 11 29  1  0  0  0  0
 12 13  1  0  0  0  0
 12 30  1  0  0  0  0
 12 31  1  0  0  0  0
 13 14  1  0  0  0  0
 13 32  1  0  0  0  0
 13 33  1  0  0  0  0
 14 15  1  0  0  0  0
 14 34  1  0  0  0  0
 15 16  2  0  0  0  0
 17 18  1  0  0  0  0
M  END
> <s_m_source_file>
AV-unprocessed.smi

> <i_m_source_file_index>
2022

> <i_lp_mmshare_version>
43012

> <i_f3d_flags>
0

> <s_epik_input>
W0NIM11jMVtjSF1jKG5vMSlbTkhdQyg9TylbTkhdW0NAQEhdMltDSDJdW0NIMl1bQ0gyXVtDSDJdW05IXUMyPU8=

> <s_epik_cmdline>
J2VwaWtfcHl0aG9uJywgJy1waCcsICc3LjAnLCAnLXRuJywgJzgnLCAnLW1hJywgJzIwMCcsICctbWV0YWxfYmluZGluZycsICctaW1hZScsICc8aW5maWxlLm1hZT4nLCAnLW9tYWUnLCAnPG91dGZpbGUubWFlPic=

> <r_lp_tautomer_probability>
1

> <r_epik_Ionization_Penalty>
2.27343e-05

> <r_epik_Ionization_Penalty_Charging>
0

> <r_epik_Ionization_Penalty_Neutral>
2.27343e-05

> <r_epik_State_Penalty>
-0

> <r_epik_Charging_Adjusted_Penalty>
0

> <i_epik_Tot_Q>
0

> <i_epik_Tot_abs_Q>
0

> <r_epik_Metal_State_Penalty>
-0

> <b_epik_Metal_Only>
0

> <s_lp_Force_Field>
OPLS_2005

> <r_lp_Energy>
12.0489

> <b_lp_Chiralities_Consistent>
1

> <s_lp_Variant>
AV-unprocessed.smi:2022-1

> <Gold.Version>
5.8.1

> <Gold.Id.Protein>
6NUR|6NUR_protein|mol2

> <Gold.PLP.Fitness>
40.2892

> <Gold.PLP.PLP>
-29.8886

> <Gold.PLP.part.hbond>
-5.0000

> <Gold.PLP.part.metal>
0.0000

> <Gold.PLP.part.buried>
-4.7893

> <Gold.PLP.part.nonpolar>
-21.1551

> <Gold.PLP.part.repulsive>
0.5152

> <Gold.PLP.ligand.clash>
0.0000

> <Gold.PLP.ligand.torsion>
0.0540

> <Gold.PLP.Chemscore.Hbond>
3.4851

> <Gold.PLP.Chemscore.CHOScore>
0.0000

> <Gold.PLP.Chemscore.Metal>
0.0000

> <Gold.Chemscore.Hbonds>
donor molecule, donor type, donor heavy atom, donor atom, acceptor molecule, acceptor atom, score
      L1  H     5    23       P1  8028  0.93
      L1  H     8    24       P1  8028  0.80
      L1  H    14    34       P1  7948  0.64
      P1  H  7989  7998       L1    16  1.00

> <Gold.PLP.Chemscore.Internal.Correction>
0.0533

> <Gold.Rescore>
     Score         DG    S(hbond)    S(metal)    S(lipo)     H(rot)  DE(clash)    DE(int)     intcor
     15.54     -19.72       3.37        0.00      47.45       1.00       0.12       4.06       ----

> <Gold.Chemscore.Fitness>
15.5421

> <Gold.Chemscore.DG>
-19.7232

> <Gold.Chemscore.ZeroCoef>
-5.4800

> <Gold.Chemscore.Hbond>
3.3688

> <Gold.Chemscore.Metal>
0.0000

> <Gold.Chemscore.Lipo>
47.4475

> <Gold.Chemscore.Internal_Hbond>
0.0000

> <Gold.Chemscore.DEClash>
0.1214

> <Gold.Chemscore.DEInternal>
4.0596

> <Gold.Chemscore.Rot>
1.0000

> <Gold.Chemscore.Internal.Correction>
   9.000000E+99

> <Gold.Chemscore.Hbonds>
donor molecule, donor type, donor heavy atom, donor atom, acceptor molecule, acceptor atom, score
      L1  H     5    23       P1  8028  0.90
      L1  H     8    24       P1  8028  0.77
      L1  H    14    34       P1  7948  0.61
      P1  H  7989  7998       L1    16  0.93

> <Gold.Chemscore.Hbond.Weighted>
-11.2518

> <Gold.Chemscore.Metal.Weighted>
-0.0000

> <Gold.Chemscore.Lipo.Weighted>
-5.5514

> <Gold.Chemscore.Internal_Hbond.Weighted>
0.0000

> <Gold.Chemscore.DEClash.Weighted>
0.1214

> <Gold.Chemscore.DEInternal.Weighted>
4.0596

> <Gold.Chemscore.Rot.Weighted>
2.5600

> <Gold.Chemscore.Internal.Correction.Weighted>
   9.000000E+99

> <Gold.Protein.RotatedTorsions>
[ 6907 6896 6895 6894 ] final -124.43 input  -60.11 | X-H torsion
[ 7974 7965 7964 7962 ] final   28.04 input  175.53 | X-H torsion
[ 8008 7997 7996 7995 ] final -103.47 input   59.86 | X-H torsion
[ 10167 10162 10161 10158 ] final   71.82 input  -65.29 | X-H torsion
[ 10718 10713 10712 10709 ] final  156.39 input   66.30 | X-H torsion
[ 10763 10752 10751 10750 ] final   31.63 input  -60.55 | X-H torsion
[ 11005 11000 10999 10996 ] final  -49.47 input  -57.11 | X-H torsion

> <Gold.Protein.ActiveResidues>
 VAL166  LYS551  ARG553  GLY616  TRP617  ASP618  TYR619  PRO620  LYS621  CYS622 
 ASP623  PHE694  ASN695  SER759  ASP760  ASP761  ALA762  ILE779  LEU786  VAL792 
 PHE793  MET794  SER795  GLU796  ALA797  LYS798  CYS799  TRP800  GLU811  SER814 

> <Gold.Protein.RotatedAtoms>
  150.8767  133.7428  159.2944 H   0  0  0  0  0  0  0  0  0  0  0  0  # atno 6907 bound_to 6896
  151.5023  135.1061  159.9841 H   0  0  0  0  0  0  0  0  0  0  0  0  # atno 6908 bound_to 6896
  152.4732  133.8033  159.7020 H   0  0  0  0  0  0  0  0  0  0  0  0  # atno 6909 bound_to 6896
  146.1751  139.7110  142.8940 H   0  0  0  0  0  0  0  0  0  0  0  0  # atno 7974 bound_to 7965
  154.8714  140.0422  157.1727 H   0  0  0  0  0  0  0  0  0  0  0  0  # atno 8008 bound_to 7997
  154.8735  140.2962  155.5446 H   0  0  0  0  0  0  0  0  0  0  0  0  # atno 8009 bound_to 7997
  156.2999  140.2424  156.3727 H   0  0  0  0  0  0  0  0  0  0  0  0  # atno 8010 bound_to 7997
  140.0419  144.5382  150.7427 H   0  0  0  0  0  0  0  0  0  0  0  0  # atno 10167 bound_to 10162
  157.2056  131.0686  151.2000 H   0  0  0  0  0  0  0  0  0  0  0  0  # atno 10718 bound_to 10713
  153.0305  135.6434  154.1230 H   0  0  0  0  0  0  0  0  0  0  0  0  # atno 10763 bound_to 10752
  154.0953  135.2863  155.3264 H   0  0  0  0  0  0  0  0  0  0  0  0  # atno 10764 bound_to 10752
  154.6437  135.5451  153.7882 H   0  0  0  0  0  0  0  0  0  0  0  0  # atno 10765 bound_to 10752
  141.0761  133.6665  156.3590 H   0  0  0  0  0  0  0  0  0  0  0  0  # atno 11005 bound_to 11000
  145.4233  141.0408  143.2951 LP  0  0  0  0  0  0  0  0  0  0  0  0  # atno 17320 bound_to 7965
  144.8224  139.5769  143.6981 LP  0  0  0  0  0  0  0  0  0  0  0  0  # atno 17321 bound_to 7965
  140.7256  143.2633  151.4131 LP  0  0  0  0  0  0  0  0  0  0  0  0  # atno 17342 bound_to 10162
  139.6008  144.1299  152.2196 LP  0  0  0  0  0  0  0  0  0  0  0  0  # atno 17343 bound_to 10162
  157.3724  130.7188  149.6574 LP  0  0  0  0  0  0  0  0  0  0  0  0  # atno 17370 bound_to 10713
  155.9696  130.4195  150.4379 LP  0  0  0  0  0  0  0  0  0  0  0  0  # atno 17371 bound_to 10713
  140.5570  134.5971  157.5423 LP  0  0  0  0  0  0  0  0  0  0  0  0  # atno 17394 bound_to 11000
  139.9573  134.7512  156.0313 LP  0  0  0  0  0  0  0  0  0  0  0  0  # atno 17395 bound_to 11000

$$$$
