AV-unprocessed.smi:2032|AV-procd|sdf|8256|dock4
  -GOLD-   2272010533D 1   1.00000     0.00000
 Structure written by MMmdl.
 42 43  0  0  0  0  0  0  0  0  3 V2000
  146.7091  129.2239  151.4925 C   0  0  0  0  0  0  0  0  0  0  0  0
  145.9526  130.3265  152.2548 C   0  0  1  0  0  0  0  0  0  0  0  0
  146.8756  131.3919  152.8740 C   0  0  0  0  0  0  0  0  0  0  0  0
  147.4566  132.2846  151.8356 N   0  3  2  0  0  0  0  0  0  0  0  0
  148.4616  133.2391  152.4047 C   0  0  2  0  0  0  0  0  0  0  0  0
  149.6750  132.5470  153.0718 C   0  0  0  0  0  0  0  0  0  0  0  0
  147.7670  134.1932  153.4114 C   0  0  0  0  0  0  0  0  0  0  0  0
  148.5090  135.4312  153.6271 N   0  0  0  0  0  0  0  0  0  0  0  0
  148.3023  136.3002  154.6263 C   0  0  0  0  0  0  0  0  0  0  0  0
  147.4360  136.0677  155.4728 O   0  0  0  0  0  0  0  0  0  0  0  0
  149.1058  137.3858  154.5762 N   0  5  0  0  0  0  0  0  0  0  0  0
  148.6319  138.5519  154.1080 C   0  0  0  0  0  0  0  0  0  0  0  0
  147.3999  138.6897  153.6047 N   0  0  0  0  0  0  0  0  0  0  0  0
  147.1141  139.9903  153.1847 C   0  0  0  0  0  0  0  0  0  0  0  0
  148.1501  140.8646  153.3795 C   0  0  0  0  0  0  0  0  0  0  0  0
  149.5234  140.0763  154.1018 S   0  0  0  0  0  0  0  0  0  0  0  0
  146.3573  132.8887  151.0362 C   0  0  0  0  0  0  0  0  0  0  0  0
  145.4562  131.7975  150.4279 C   0  0  2  0  0  0  0  0  0  0  0  0
  144.2584  132.3944  149.6804 C   0  0  0  0  0  0  0  0  0  0  0  0
  144.9508  130.9543  151.4575 O   0  0  0  0  0  0  0  0  0  0  0  0
  147.3726  128.6778  152.1639 H   0  0  0  0  0  0  0  0  0  0  0  0
  147.3243  129.6227  150.6864 H   0  0  0  0  0  0  0  0  0  0  0  0
  146.0146  128.5037  151.0598 H   0  0  0  0  0  0  0  0  0  0  0  0
  145.4217  129.8350  153.0706 H   0  0  0  0  0  0  0  0  0  0  0  0
  146.3045  131.9974  153.5800 H   0  0  0  0  0  0  0  0  0  0  0  0
  147.6517  130.8966  153.4551 H   0  0  0  0  0  0  0  0  0  0  0  0
  148.8593  133.8262  151.5753 H   0  0  0  0  0  0  0  0  0  0  0  0
  150.3731  133.2737  153.4871 H   0  0  0  0  0  0  0  0  0  0  0  0
  150.2531  131.9589  152.3590 H   0  0  0  0  0  0  0  0  0  0  0  0
  149.3640  131.8924  153.8866 H   0  0  0  0  0  0  0  0  0  0  0  0
  146.7559  134.4528  153.0998 H   0  0  0  0  0  0  0  0  0  0  0  0
  147.6633  133.6966  154.3767 H   0  0  0  0  0  0  0  0  0  0  0  0
  149.2315  135.6566  152.9586 H   0  0  0  0  0  0  0  0  0  0  0  0
  146.1455  140.2046  152.7583 H   0  0  0  0  0  0  0  0  0  0  0  0
  148.1895  141.9177  153.1456 H   0  0  0  0  0  0  0  0  0  0  0  0
  145.7737  133.5612  151.6672 H   0  0  0  0  0  0  0  0  0  0  0  0
  146.7556  133.4768  150.2100 H   0  0  0  0  0  0  0  0  0  0  0  0
  146.0320  131.2039  149.7176 H   0  0  0  0  0  0  0  0  0  0  0  0
  144.5851  133.0423  148.8665 H   0  0  0  0  0  0  0  0  0  0  0  0
  143.6308  132.9857  150.3475 H   0  0  0  0  0  0  0  0  0  0  0  0
  143.6377  131.6084  149.2493 H   0  0  0  0  0  0  0  0  0  0  0  0
  147.9686  131.6958  151.1944 H   0  0  0  0  0  0  0  0  0  0  0  0
  1  2  1  0  0  0  0
  1 21  1  0  0  0  0
  1 22  1  0  0  0  0
  1 23  1  0  0  0  0
  2 20  1  0  0  0  0
  2  3  1  0  0  0  0
  2 24  1  0  0  0  0
  3  4  1  0  0  0  0
  3 25  1  0  0  0  0
  3 26  1  0  0  0  0
  4  5  1  0  0  0  0
  4 17  1  0  0  0  0
  4 42  1  0  0  0  0
  5  6  1  0  0  0  0
  5  7  1  0  0  0  0
  5 27  1  0  0  0  0
  6 28  1  0  0  0  0
  6 29  1  0  0  0  0
  6 30  1  0  0  0  0
  7  8  1  0  0  0  0
  7 31  1  0  0  0  0
  7 32  1  0  0  0  0
  8  9  1  0  0  0  0
  8 33  1  0  0  0  0
  9 10  2  0  0  0  0
  9 11  1  0  0  0  0
 11 12  1  0  0  0  0
 12 16  1  0  0  0  0
 12 13  2  0  0  0  0
 13 14  1  0  0  0  0
 14 15  2  0  0  0  0
 14 34  1  0  0  0  0
 15 16  1  0  0  0  0
 15 35  1  0  0  0  0
 17 18  1  0  0  0  0
 17 36  1  0  0  0  0
 17 37  1  0  0  0  0
 18 19  1  0  0  0  0
 18 20  1  0  0  0  0
 18 38  1  0  0  0  0
 19 39  1  0  0  0  0
 19 40  1  0  0  0  0
 19 41  1  0  0  0  0
M  CHG  1   4   1
M  CHG  1  11  -1
M  END
> <s_m_source_file>
AV-unprocessed.smi

> <i_m_source_file_index>
2032

> <i_lp_mmshare_version>
43012

> <i_f3d_flags>
0

> <s_epik_input>
W0NIM11bQ0BASF0xW0NIMl1OKFtDSDJdW0NASF0oTzEpW0NIM10pW0NASF0oW0NIM10pW0NIMl1bTkhdQyg9TylbTkhdYzJuW2NIXVtjSF1zMg==

> <s_epik_cmdline>
J2VwaWtfcHl0aG9uJywgJy1waCcsICc3LjAnLCAnLXRuJywgJzgnLCAnLW1hJywgJzIwMCcsICctbWV0YWxfYmluZGluZycsICctaW1hZScsICc8aW5maWxlLm1hZT4nLCAnLW9tYWUnLCAnPG91dGZpbGUubWFlPic=

> <r_lp_tautomer_probability>
0.999

> <r_epik_Ionization_Penalty>
6.71699

> <r_epik_Ionization_Penalty_Charging>
5.88592

> <r_epik_Ionization_Penalty_Neutral>
0.831074

> <r_epik_State_Penalty>
6.08365

> <r_epik_Charging_Adjusted_Penalty>
11.9696

> <i_epik_Tot_Q>
0

> <i_epik_Tot_abs_Q>
2

> <r_epik_Metal_State_Penalty>
2.0947

> <b_epik_Metal_Only>
1

> <s_lp_Force_Field>
OPLS_2005

> <r_lp_Energy>
13.0478

> <b_lp_Chiralities_Consistent>
1

> <s_lp_Variant>
AV-unprocessed.smi:2032-26

> <Gold.Version>
5.8.1

> <Gold.Id.Protein>
6NUR|6NUR_protein|mol2

> <Gold.PLP.Fitness>
39.5178

> <Gold.PLP.PLP>
-33.9741

> <Gold.PLP.part.hbond>
-1.9159

> <Gold.PLP.part.metal>
0.0000

> <Gold.PLP.part.buried>
-3.3720

> <Gold.PLP.part.nonpolar>
-29.7242

> <Gold.PLP.part.repulsive>
0.4734

> <Gold.PLP.ligand.clash>
0.0000

> <Gold.PLP.ligand.torsion>
0.9984

> <Gold.PLP.Chemscore.Hbond>
1.4800

> <Gold.PLP.Chemscore.CHOScore>
1.0000

> <Gold.PLP.Chemscore.Metal>
0.0000

> <Gold.Chemscore.Hbonds>
donor molecule, donor type, donor heavy atom, donor atom, acceptor molecule, acceptor atom, score
      L1  H     4    42       P1 10747  1.00
      L1  H     8    33       P1  7948  0.11
      L1  C    14    34       P1 10175  1.00

> <Gold.PLP.Chemscore.Internal.Correction>
0.1005

> <Gold.Rescore>
     Score         DG    S(hbond)    S(metal)    S(lipo)     H(rot)  DE(clash)    DE(int)     intcor
     16.66     -17.81       1.73        0.00      90.60       1.58       0.08       1.07       ----

> <Gold.Chemscore.Fitness>
16.6615

> <Gold.Chemscore.DG>
-17.8065

> <Gold.Chemscore.ZeroCoef>
-5.4800

> <Gold.Chemscore.Hbond>
1.7272

> <Gold.Chemscore.Metal>
0.0000

> <Gold.Chemscore.Lipo>
90.5999

> <Gold.Chemscore.Internal_Hbond>
0.0000

> <Gold.Chemscore.DEClash>
0.0757

> <Gold.Chemscore.DEInternal>
1.0693

> <Gold.Chemscore.Rot>
1.5791

> <Gold.Chemscore.Internal.Correction>
   9.000000E+99

> <Gold.Chemscore.Hbonds>
donor molecule, donor type, donor heavy atom, donor atom, acceptor molecule, acceptor atom, score
      L1  H     4    42       P1 10747  0.99
      L1  H     8    33       P1  7948  0.02

> <Gold.Chemscore.Hbond.Weighted>
-5.7688

> <Gold.Chemscore.Metal.Weighted>
-0.0000

> <Gold.Chemscore.Lipo.Weighted>
-10.6002

> <Gold.Chemscore.Internal_Hbond.Weighted>
0.0000

> <Gold.Chemscore.DEClash.Weighted>
0.0757

> <Gold.Chemscore.DEInternal.Weighted>
1.0693

> <Gold.Chemscore.Rot.Weighted>
4.0425

> <Gold.Chemscore.Internal.Correction.Weighted>
   9.000000E+99

> <Gold.Protein.RotatedTorsions>
[ 6907 6896 6895 6894 ] final  122.65 input  -60.11 | X-H torsion
[ 7974 7965 7964 7962 ] final -127.64 input  175.53 | X-H torsion
[ 8008 7997 7996 7995 ] final  -74.89 input   59.86 | X-H torsion
[ 10167 10162 10161 10158 ] final  128.46 input  -65.29 | X-H torsion
[ 10718 10713 10712 10709 ] final -178.85 input   66.30 | X-H torsion
[ 10763 10752 10751 10750 ] final   36.89 input  -60.55 | X-H torsion
[ 11005 11000 10999 10996 ] final -141.24 input  -57.11 | X-H torsion

> <Gold.Protein.ActiveResidues>
 VAL166  LYS551  ARG553  GLY616  TRP617  ASP618  TYR619  PRO620  LYS621  CYS622 
 ASP623  PHE694  ASN695  SER759  ASP760  ASP761  ALA762  ILE779  LEU786  VAL792 
 PHE793  MET794  SER795  GLU796  ALA797  LYS798  CYS799  TRP800  GLU811  SER814 

> <Gold.Protein.RotatedAtoms>
  152.4226  133.7142  159.6495 H   0  0  0  0  0  0  0  0  0  0  0  0  # atno 6907 bound_to 6896
  150.8102  133.8425  159.3192 H   0  0  0  0  0  0  0  0  0  0  0  0  # atno 6908 bound_to 6896
  151.6137  135.1040  160.0138 H   0  0  0  0  0  0  0  0  0  0  0  0  # atno 6909 bound_to 6896
  144.9751  140.7584  143.4647 H   0  0  0  0  0  0  0  0  0  0  0  0  # atno 7974 bound_to 7965
  154.5369  140.0753  156.8443 H   0  0  0  0  0  0  0  0  0  0  0  0  # atno 8008 bound_to 7997
  155.3260  140.3399  155.4222 H   0  0  0  0  0  0  0  0  0  0  0  0  # atno 8009 bound_to 7997
  156.1837  140.1661  156.8213 H   0  0  0  0  0  0  0  0  0  0  0  0  # atno 8010 bound_to 7997
  139.5526  144.6825  151.4278 H   0  0  0  0  0  0  0  0  0  0  0  0  # atno 10167 bound_to 10162
  156.8503  130.9717  151.3093 H   0  0  0  0  0  0  0  0  0  0  0  0  # atno 10718 bound_to 10713
  153.0059  135.6293  154.2058 H   0  0  0  0  0  0  0  0  0  0  0  0  # atno 10763 bound_to 10752
  154.1801  135.2814  155.3056 H   0  0  0  0  0  0  0  0  0  0  0  0  # atno 10764 bound_to 10752
  154.5841  135.5638  153.7274 H   0  0  0  0  0  0  0  0  0  0  0  0  # atno 10765 bound_to 10752
  140.8343  134.2479  157.4841 H   0  0  0  0  0  0  0  0  0  0  0  0  # atno 11005 bound_to 11000
  145.2502  139.2035  143.4946 LP  0  0  0  0  0  0  0  0  0  0  0  0  # atno 17320 bound_to 7965
  146.3393  140.2414  142.8596 LP  0  0  0  0  0  0  0  0  0  0  0  0  # atno 17321 bound_to 7965
  140.6792  143.8121  150.7098 LP  0  0  0  0  0  0  0  0  0  0  0  0  # atno 17342 bound_to 10162
  140.1569  143.4309  152.2094 LP  0  0  0  0  0  0  0  0  0  0  0  0  # atno 17343 bound_to 10162
  157.6307  130.8727  149.9268 LP  0  0  0  0  0  0  0  0  0  0  0  0  # atno 17370 bound_to 10713
  156.0831  130.3671  150.0540 LP  0  0  0  0  0  0  0  0  0  0  0  0  # atno 17371 bound_to 10713
  139.8704  134.9602  156.4358 LP  0  0  0  0  0  0  0  0  0  0  0  0  # atno 17394 bound_to 11000
  140.8964  133.7811  155.9630 LP  0  0  0  0  0  0  0  0  0  0  0  0  # atno 17395 bound_to 11000

$$$$
