AV-unprocessed.smi:1809|AV-procd|sdf|7318|dock6
  -GOLD-   22720 8573D 1   1.00000     0.00000
 Structure written by MMmdl.
 39 41  0  0  0  0  0  0  0  0  1 V2000
  142.0152  141.8671  156.1555 C   0  0  0  0  0  0  0  0  0  0  0  0
  143.1556  142.2970  157.0138 C   0  0  0  0  0  0  0  0  0  0  0  0
  143.3949  141.7694  158.2207 N   0  0  0  0  0  0  0  0  0  0  0  0
  144.5136  142.3252  158.8255 N   0  0  0  0  0  0  0  0  0  0  0  0
  145.0878  143.2578  158.0533 C   0  0  0  0  0  0  0  0  0  0  0  0
  146.2489  143.9857  158.4256 N   0  0  0  0  0  0  0  0  0  0  0  0
  147.0594  143.7803  159.4787 C   0  0  0  0  0  0  0  0  0  0  0  0
  146.9185  142.8948  160.3223 O   0  0  0  0  0  0  0  0  0  0  0  0
  148.0613  144.6708  159.4975 N   0  0  0  0  0  0  0  0  0  0  0  0
  149.1425  144.7076  160.4771 C   0  0  0  0  0  0  0  0  0  0  0  0
  150.4925  145.0459  159.8105 C   0  0  1  0  0  0  0  0  0  0  0  0
  151.7083  144.7105  160.7075 C   0  0  0  0  0  0  0  0  0  0  0  0
  151.9569  143.2815  160.7268 N   0  0  0  0  0  0  0  0  0  0  0  0
  153.1242  142.8344  161.4514 C   0  0  0  0  0  0  0  0  0  0  0  0
  153.3481  141.3945  160.9591 C   0  0  0  0  0  0  0  0  0  0  0  0
  152.6005  141.3291  159.6090 C   0  0  0  0  0  0  0  0  0  0  0  0
  152.1548  142.7772  159.3954 C   0  0  1  0  0  0  0  0  0  0  0  0
  150.9052  143.0125  158.5376 C   0  0  0  0  0  0  0  0  0  0  0  0
  150.6242  144.4161  158.5255 O   0  0  0  0  0  0  0  0  0  0  0  0
  144.2968  143.5382  156.5115 S   0  0  0  0  0  0  0  0  0  0  0  0
  141.3241  141.2393  156.7190 H   0  0  0  0  0  0  0  0  0  0  0  0
  142.3864  141.3002  155.3016 H   0  0  0  0  0  0  0  0  0  0  0  0
  141.4738  142.7392  155.7890 H   0  0  0  0  0  0  0  0  0  0  0  0
  146.4967  144.7477  157.8122 H   0  0  0  0  0  0  0  0  0  0  0  0
  148.0937  145.3635  158.7640 H   0  0  0  0  0  0  0  0  0  0  0  0
  148.8938  145.4821  161.2028 H   0  0  0  0  0  0  0  0  0  0  0  0
  149.1982  143.7766  161.0428 H   0  0  0  0  0  0  0  0  0  0  0  0
  150.5051  146.1218  159.6326 H   0  0  0  0  0  0  0  0  0  0  0  0
  152.5882  145.2279  160.3225 H   0  0  0  0  0  0  0  0  0  0  0  0
  151.5498  145.0791  161.7214 H   0  0  0  0  0  0  0  0  0  0  0  0
  153.9866  143.4520  161.1946 H   0  0  0  0  0  0  0  0  0  0  0  0
  152.9754  142.8919  162.5300 H   0  0  0  0  0  0  0  0  0  0  0  0
  154.4108  141.1759  160.8513 H   0  0  0  0  0  0  0  0  0  0  0  0
  152.9265  140.6731  161.6600 H   0  0  0  0  0  0  0  0  0  0  0  0
  153.2315  140.9695  158.7957 H   0  0  0  0  0  0  0  0  0  0  0  0
  151.7381  140.6659  159.6891 H   0  0  0  0  0  0  0  0  0  0  0  0
  152.9865  143.3149  158.9347 H   0  0  0  0  0  0  0  0  0  0  0  0
  151.0700  142.6723  157.5153 H   0  0  0  0  0  0  0  0  0  0  0  0
  150.0537  142.4546  158.9271 H   0  0  0  0  0  0  0  0  0  0  0  0
  1  2  1  0  0  0  0
  1 21  1  0  0  0  0
  1 22  1  0  0  0  0
  1 23  1  0  0  0  0
  2 20  1  0  0  0  0
  2  3  2  0  0  0  0
  3  4  1  0  0  0  0
  4  5  2  0  0  0  0
  5  6  1  0  0  0  0
  5 20  1  0  0  0  0
  6  7  1  0  0  0  0
  6 24  1  0  0  0  0
  7  8  2  0  0  0  0
  7  9  1  0  0  0  0
  9 10  1  0  0  0  0
  9 25  1  0  0  0  0
 10 11  1  0  0  0  0
 10 26  1  0  0  0  0
 10 27  1  0  0  0  0
 11 19  1  0  0  0  0
 11 12  1  0  0  0  0
 11 28  1  0  0  0  0
 12 13  1  0  0  0  0
 12 29  1  0  0  0  0
 12 30  1  0  0  0  0
 13 17  1  0  0  0  0
 13 14  1  0  0  0  0
 14 15  1  0  0  0  0
 14 31  1  0  0  0  0
 14 32  1  0  0  0  0
 15 16  1  0  0  0  0
 15 33  1  0  0  0  0
 15 34  1  0  0  0  0
 16 17  1  0  0  0  0
 16 35  1  0  0  0  0
 16 36  1  0  0  0  0
 17 18  1  0  0  0  0
 17 37  1  0  0  0  0
 18 19  1  0  0  0  0
 18 38  1  0  0  0  0
 18 39  1  0  0  0  0
M  END
> <s_m_source_file>
AV-unprocessed.smi

> <i_m_source_file_index>
1809

> <i_lp_mmshare_version>
43012

> <i_f3d_flags>
0

> <s_epik_input>
W0NIM11jMW5uYyhzMSlbTkhdQyg9TylbTkhdW0NIMl1bQ0BIXShbQ0gyXTIpT1tDSDJdW0NAQEhdKE4yMylbQ0gyXVtDSDJdW0NIMl0z

> <s_epik_cmdline>
J2VwaWtfcHl0aG9uJywgJy1waCcsICc3LjAnLCAnLXRuJywgJzgnLCAnLW1hJywgJzIwMCcsICctbWV0YWxfYmluZGluZycsICctaW1hZScsICc8aW5maWxlLm1hZT4nLCAnLW9tYWUnLCAnPG91dGZpbGUubWFlPic=

> <r_lp_tautomer_probability>
1

> <r_epik_Ionization_Penalty>
1.05954

> <r_epik_Ionization_Penalty_Charging>
0

> <r_epik_Ionization_Penalty_Neutral>
1.05954

> <r_epik_State_Penalty>
1.4238

> <r_epik_Charging_Adjusted_Penalty>
1.4238

> <i_epik_Tot_Q>
0

> <i_epik_Tot_abs_Q>
0

> <r_epik_Metal_State_Penalty>
1.7901

> <b_epik_Metal_Only>
0

> <s_lp_Force_Field>
OPLS_2005

> <r_lp_Energy>
48.8115

> <b_lp_Chiralities_Consistent>
1

> <s_lp_Variant>
AV-unprocessed.smi:1809-10

> <Gold.Version>
5.8.1

> <Gold.Id.Protein>
6NUR|6NUR_protein|mol2

> <Gold.PLP.Fitness>
42.5353

> <Gold.PLP.PLP>
-32.0875

> <Gold.PLP.part.hbond>
-4.0000

> <Gold.PLP.part.metal>
0.0000

> <Gold.PLP.part.buried>
-6.1996

> <Gold.PLP.part.nonpolar>
-23.3408

> <Gold.PLP.part.repulsive>
0.4264

> <Gold.PLP.ligand.clash>
0.0000

> <Gold.PLP.ligand.torsion>
0.3330

> <Gold.PLP.Chemscore.Hbond>
3.7019

> <Gold.PLP.Chemscore.CHOScore>
0.0000

> <Gold.PLP.Chemscore.Metal>
0.0000

> <Gold.Chemscore.Hbonds>
donor molecule, donor type, donor heavy atom, donor atom, acceptor molecule, acceptor atom, score
      L1  H     6    24       P1  8029  0.94
      L1  H     9    25       P1  8029  1.00
      P1  H  6933  6944       L1     8  0.93
      P1  H  6934  6946       L1     8  0.83

> <Gold.PLP.Chemscore.Internal.Correction>
0.0079

> <Gold.Rescore>
     Score         DG    S(hbond)    S(metal)    S(lipo)     H(rot)  DE(clash)    DE(int)     intcor
     20.95     -22.55       3.44        0.00      76.53       1.32       0.00       1.59       ----

> <Gold.Chemscore.Fitness>
20.9547

> <Gold.Chemscore.DG>
-22.5500

> <Gold.Chemscore.ZeroCoef>
-5.4800

> <Gold.Chemscore.Hbond>
3.4414

> <Gold.Chemscore.Metal>
0.0000

> <Gold.Chemscore.Lipo>
76.5311

> <Gold.Chemscore.Internal_Hbond>
0.0000

> <Gold.Chemscore.DEClash>
0.0004

> <Gold.Chemscore.DEInternal>
1.5949

> <Gold.Chemscore.Rot>
1.3196

> <Gold.Chemscore.Internal.Correction>
   9.000000E+99

> <Gold.Chemscore.Hbonds>
donor molecule, donor type, donor heavy atom, donor atom, acceptor molecule, acceptor atom, score
      L1  H     6    24       P1  8029  0.36
      L1  H     9    25       P1  8029  0.98
      P1  H  6933  6944       L1     8  0.84
      P1  H  6934  6946       L1     8  0.77

> <Gold.Chemscore.Hbond.Weighted>
-11.4941

> <Gold.Chemscore.Metal.Weighted>
-0.0000

> <Gold.Chemscore.Lipo.Weighted>
-8.9541

> <Gold.Chemscore.Internal_Hbond.Weighted>
0.0000

> <Gold.Chemscore.DEClash.Weighted>
0.0004

> <Gold.Chemscore.DEInternal.Weighted>
1.5949

> <Gold.Chemscore.Rot.Weighted>
3.3783

> <Gold.Chemscore.Internal.Correction.Weighted>
   9.000000E+99

> <Gold.Protein.RotatedTorsions>
[ 6907 6896 6895 6894 ] final   17.90 input  -60.11 | X-H torsion
[ 7974 7965 7964 7962 ] final  156.85 input  175.53 | X-H torsion
[ 8008 7997 7996 7995 ] final   10.29 input   59.86 | X-H torsion
[ 10167 10162 10161 10158 ] final  -42.34 input  -65.29 | X-H torsion
[ 10718 10713 10712 10709 ] final  -95.67 input   66.30 | X-H torsion
[ 10763 10752 10751 10750 ] final  -86.01 input  -60.55 | X-H torsion
[ 11005 11000 10999 10996 ] final -112.28 input  -57.11 | X-H torsion

> <Gold.Protein.ActiveResidues>
 VAL166  LYS551  ARG553  GLY616  TRP617  ASP618  TYR619  PRO620  LYS621  CYS622 
 ASP623  PHE694  ASN695  SER759  ASP760  ASP761  ALA762  ILE779  LEU786  VAL792 
 PHE793  MET794  SER795  GLU796  ALA797  LYS798  CYS799  TRP800  GLU811  SER814 

> <Gold.Protein.RotatedAtoms>
  151.8568  135.0538  160.0464 H   0  0  0  0  0  0  0  0  0  0  0  0  # atno 6907 bound_to 6896
  152.2694  133.5364  159.5438 H   0  0  0  0  0  0  0  0  0  0  0  0  # atno 6908 bound_to 6896
  150.7146  134.0636  159.3882 H   0  0  0  0  0  0  0  0  0  0  0  0  # atno 6909 bound_to 6896
  144.7938  139.7260  143.6210 H   0  0  0  0  0  0  0  0  0  0  0  0  # atno 7974 bound_to 7965
  154.7914  140.2836  155.5989 H   0  0  0  0  0  0  0  0  0  0  0  0  # atno 8008 bound_to 7997
  156.2965  140.2604  156.2691 H   0  0  0  0  0  0  0  0  0  0  0  0  # atno 8009 bound_to 7997
  154.9666  140.0377  157.2204 H   0  0  0  0  0  0  0  0  0  0  0  0  # atno 8010 bound_to 7997
  140.6972  143.3043  151.3195 H   0  0  0  0  0  0  0  0  0  0  0  0  # atno 10167 bound_to 10162
  156.0047  130.5119  150.6112 H   0  0  0  0  0  0  0  0  0  0  0  0  # atno 10718 bound_to 10713
  154.6177  135.5464  153.7541 H   0  0  0  0  0  0  0  0  0  0  0  0  # atno 10763 bound_to 10752
  153.0223  135.6405  154.1487 H   0  0  0  0  0  0  0  0  0  0  0  0  # atno 10764 bound_to 10752
  154.1422  135.2907  155.3138 H   0  0  0  0  0  0  0  0  0  0  0  0  # atno 10765 bound_to 10752
  141.0685  133.9419  157.2532 H   0  0  0  0  0  0  0  0  0  0  0  0  # atno 11005 bound_to 11000
  146.2199  139.5617  142.9625 LP  0  0  0  0  0  0  0  0  0  0  0  0  # atno 17320 bound_to 7965
  145.5725  141.0392  143.2166 LP  0  0  0  0  0  0  0  0  0  0  0  0  # atno 17321 bound_to 7965
  139.6443  144.0480  152.2579 LP  0  0  0  0  0  0  0  0  0  0  0  0  # atno 17342 bound_to 10162
  139.9996  144.6303  150.7742 LP  0  0  0  0  0  0  0  0  0  0  0  0  # atno 17343 bound_to 10162
  157.3944  131.0800  151.1365 LP  0  0  0  0  0  0  0  0  0  0  0  0  # atno 17370 bound_to 10713
  157.2047  130.6410  149.5751 LP  0  0  0  0  0  0  0  0  0  0  0  0  # atno 17371 bound_to 10713
  139.9499  135.0177  156.8964 LP  0  0  0  0  0  0  0  0  0  0  0  0  # atno 17394 bound_to 11000
  140.5724  134.0431  155.7435 LP  0  0  0  0  0  0  0  0  0  0  0  0  # atno 17395 bound_to 11000

$$$$
