AV-unprocessed.smi:155|AV-procd|sdf|1280|dock1
  -GOLD-   2262018553D 1   1.00000     0.00000
 Structure written by MMmdl.
 64 67  0  0  0  0  0  0  0  0  3 V2000
  143.9802  133.4375  151.7662 C   0  0  0  0  0  0  0  0  0  0  0  0
  145.2917  133.1632  151.1361 N   0  3  0  0  0  0  0  0  0  0  0  0
  145.1779  132.1023  150.1086 C   0  0  0  0  0  0  0  0  0  0  0  0
  146.3509  132.9093  152.1504 C   0  0  0  0  0  0  0  0  0  0  0  0
  146.5283  134.0590  153.1702 C   0  0  0  0  0  0  0  0  0  0  0  0
  147.4952  133.7589  154.2609 N   0  3  1  0  0  0  0  0  0  0  0  0
  146.9348  132.8852  155.3263 C   0  0  0  0  0  0  0  0  0  0  0  0
  147.3008  133.4348  156.7162 C   0  0  0  0  0  0  0  0  0  0  0  0
  148.7881  133.2793  157.0854 C   0  0  0  0  0  0  0  0  0  0  0  0
  149.6907  133.8323  156.0763 N   0  0  0  0  0  0  0  0  0  0  0  0
  149.9928  135.1657  156.0264 C   0  0  0  0  0  0  0  0  0  0  0  0
  150.3024  135.6972  154.8123 N   0  0  0  0  0  0  0  0  0  0  0  0
  150.5911  136.9927  154.6760 C   0  0  0  0  0  0  0  0  0  0  0  0
  150.6204  137.9386  155.6122 N   0  0  0  0  0  0  0  0  0  0  0  0
  150.3232  137.4267  156.8394 C   0  0  0  0  0  0  0  0  0  0  0  0
  149.9967  136.0692  157.1368 C   0  0  0  0  0  0  0  0  0  0  0  0
  149.7310  135.9565  158.4980 N   0  0  0  0  0  0  0  0  0  0  0  0
  149.8984  137.1591  158.9725 C   0  0  0  0  0  0  0  0  0  0  0  0
  150.2663  138.1039  158.0448 N   0  0  0  0  0  0  0  0  0  0  0  0
  150.5212  139.5137  158.2962 C   0  0  0  0  0  0  0  0  0  0  0  0
  150.8173  140.3481  157.0280 C   0  0  2  0  0  0  0  0  0  0  0  0
  152.0101  139.9192  156.4005 O   0  0  0  0  0  0  0  0  0  0  0  0
  150.8396  141.8804  157.2320 C   0  0  2  0  0  0  0  0  0  0  0  0
  151.8563  142.4009  158.2528 C   0  0  0  0  0  0  0  0  0  0  0  0
  151.2444  143.7287  158.6380 C   0  0  0  0  0  0  0  0  0  0  0  0
  149.7573  143.3885  158.6510 C   0  0  0  0  0  0  0  0  0  0  0  0
  149.5775  142.4101  157.6321 O   0  0  0  0  0  0  0  0  0  0  0  0
  149.8613  133.0136  154.8716 C   0  0  0  0  0  0  0  0  0  0  0  0
  148.8244  133.3046  153.7625 C   0  0  0  0  0  0  0  0  0  0  0  0
  143.6287  132.5721  152.3298 H   0  0  0  0  0  0  0  0  0  0  0  0
  143.2309  133.6808  151.0119 H   0  0  0  0  0  0  0  0  0  0  0  0
  144.0441  134.2872  152.4470 H   0  0  0  0  0  0  0  0  0  0  0  0
  144.9900  131.1313  150.5679 H   0  0  0  0  0  0  0  0  0  0  0  0
  146.0810  132.0318  149.5060 H   0  0  0  0  0  0  0  0  0  0  0  0
  144.3580  132.3135  149.4211 H   0  0  0  0  0  0  0  0  0  0  0  0
  146.0486  132.0345  152.7279 H   0  0  0  0  0  0  0  0  0  0  0  0
  147.2831  132.6229  151.6648 H   0  0  0  0  0  0  0  0  0  0  0  0
  146.8347  134.9467  152.6153 H   0  0  0  0  0  0  0  0  0  0  0  0
  145.5665  134.3061  153.6221 H   0  0  0  0  0  0  0  0  0  0  0  0
  145.8467  132.8556  155.2665 H   0  0  0  0  0  0  0  0  0  0  0  0
  147.2635  131.8519  155.2042 H   0  0  0  0  0  0  0  0  0  0  0  0
  147.0011  134.4807  156.7798 H   0  0  0  0  0  0  0  0  0  0  0  0
  146.7084  132.9135  157.4685 H   0  0  0  0  0  0  0  0  0  0  0  0
  148.9980  133.6972  158.0685 H   0  0  0  0  0  0  0  0  0  0  0  0
  149.0103  132.2169  157.1918 H   0  0  0  0  0  0  0  0  0  0  0  0
  150.8282  137.3183  153.6737 H   0  0  0  0  0  0  0  0  0  0  0  0
  149.7711  137.3887  160.0207 H   0  0  0  0  0  0  0  0  0  0  0  0
  149.6582  139.9265  158.8202 H   0  0  0  0  0  0  0  0  0  0  0  0
  151.3600  139.5906  158.9889 H   0  0  0  0  0  0  0  0  0  0  0  0
  150.0185  140.1338  156.3173 H   0  0  0  0  0  0  0  0  0  0  0  0
  151.8346  139.7767  155.4831 H   0  0  0  0  0  0  0  0  0  0  0  0
  151.0675  142.3479  156.2728 H   0  0  0  0  0  0  0  0  0  0  0  0
  151.9087  141.7561  159.1308 H   0  0  0  0  0  0  0  0  0  0  0  0
  152.8614  142.4962  157.8413 H   0  0  0  0  0  0  0  0  0  0  0  0
  151.6035  144.1070  159.5954 H   0  0  0  0  0  0  0  0  0  0  0  0
  151.4541  144.4762  157.8718 H   0  0  0  0  0  0  0  0  0  0  0  0
  149.4776  142.9459  159.6077 H   0  0  0  0  0  0  0  0  0  0  0  0
  149.1257  144.2611  158.4836 H   0  0  0  0  0  0  0  0  0  0  0  0
  150.8757  133.1001  154.4804 H   0  0  0  0  0  0  0  0  0  0  0  0
  149.7682  131.9666  155.1617 H   0  0  0  0  0  0  0  0  0  0  0  0
  148.7084  132.4213  153.1331 H   0  0  0  0  0  0  0  0  0  0  0  0
  149.2395  134.0810  153.1222 H   0  0  0  0  0  0  0  0  0  0  0  0
  145.5455  134.0139  150.6537 H   0  0  0  0  0  0  0  0  0  0  0  0
  147.6578  134.6423  154.7220 H   0  0  0  0  0  0  0  0  0  0  0  0
  1  2  1  0  0  0  0
  1 30  1  0  0  0  0
  1 31  1  0  0  0  0
  1 32  1  0  0  0  0
  2  3  1  0  0  0  0
  2  4  1  0  0  0  0
  2 63  1  0  0  0  0
  3 33  1  0  0  0  0
  3 34  1  0  0  0  0
  3 35  1  0  0  0  0
  4  5  1  0  0  0  0
  4 36  1  0  0  0  0
  4 37  1  0  0  0  0
  5  6  1  0  0  0  0
  5 38  1  0  0  0  0
  5 39  1  0  0  0  0
  6 29  1  0  0  0  0
  6  7  1  0  0  0  0
  6 64  1  0  0  0  0
  7  8  1  0  0  0  0
  7 40  1  0  0  0  0
  7 41  1  0  0  0  0
  8  9  1  0  0  0  0
  8 42  1  0  0  0  0
  8 43  1  0  0  0  0
  9 10  1  0  0  0  0
  9 44  1  0  0  0  0
  9 45  1  0  0  0  0
 10 11  1  0  0  0  0
 10 28  1  0  0  0  0
 11 16  1  0  0  0  0
 11 12  2  0  0  0  0
 12 13  1  0  0  0  0
 13 14  2  0  0  0  0
 13 46  1  0  0  0  0
 14 15  1  0  0  0  0
 15 19  1  0  0  0  0
 15 16  2  0  0  0  0
 16 17  1  0  0  0  0
 17 18  2  0  0  0  0
 18 19  1  0  0  0  0
 18 47  1  0  0  0  0
 19 20  1  0  0  0  0
 20 21  1  0  0  0  0
 20 48  1  0  0  0  0
 20 49  1  0  0  0  0
 21 22  1  0  0  0  0
 21 23  1  0  0  0  0
 21 50  1  0  0  0  0
 22 51  1  0  0  0  0
 23 27  1  0  0  0  0
 23 24  1  0  0  0  0
 23 52  1  0  0  0  0
 24 25  1  0  0  0  0
 24 53  1  0  0  0  0
 24 54  1  0  0  0  0
 25 26  1  0  0  0  0
 25 55  1  0  0  0  0
 25 56  1  0  0  0  0
 26 27  1  0  0  0  0
 26 57  1  0  0  0  0
 26 58  1  0  0  0  0
 28 29  1  0  0  0  0
 28 59  1  0  0  0  0
 28 60  1  0  0  0  0
 29 61  1  0  0  0  0
 29 62  1  0  0  0  0
M  CHG  1   2   1
M  CHG  1   6   1
M  END
> <s_m_source_file>
AV-unprocessed.smi

> <i_m_source_file_index>
155

> <i_lp_mmshare_version>
43012

> <i_f3d_flags>
0

> <s_epik_input>
W0NIM11OKFtDSDNdKVtDSDJdW0NIMl1OMVtDSDJdW0NIMl1bQ0gyXU4oW0NIMl1bQ0gyXTEpYyhuW2NIXW4yKWMoYzIzKW5bY0hdbjNbQ0gyXVtDQEhdKFtPSF0pW0NAQEhdNFtDSDJdW0NIMl1bQ0gyXU80

> <s_epik_cmdline>
J2VwaWtfcHl0aG9uJywgJy1waCcsICc3LjAnLCAnLXRuJywgJzgnLCAnLW1hJywgJzIwMCcsICctbWV0YWxfYmluZGluZycsICctaW1hZScsICc8aW5maWxlLm1hZT4nLCAnLW9tYWUnLCAnPG91dGZpbGUubWFlPic=

> <r_lp_tautomer_probability>
1

> <r_epik_Ionization_Penalty>
3.0333

> <r_epik_Ionization_Penalty_Charging>
3.03317

> <r_epik_Ionization_Penalty_Neutral>
0.000131872

> <r_epik_State_Penalty>
1.99939

> <r_epik_Charging_Adjusted_Penalty>
5.03256

> <i_epik_Tot_Q>
2

> <i_epik_Tot_abs_Q>
2

> <r_epik_Metal_State_Penalty>
2.00021

> <b_epik_Metal_Only>
0

> <s_lp_Force_Field>
OPLS_2005

> <r_lp_Energy>
60.5665

> <b_lp_Chiralities_Consistent>
1

> <s_lp_Variant>
AV-unprocessed.smi:155-14

> <Gold.Version>
5.8.1

> <Gold.Id.Protein>
6NUR|6NUR_protein|mol2

> <Gold.PLP.Fitness>
47.0275

> <Gold.PLP.PLP>
-38.1876

> <Gold.PLP.part.hbond>
-2.3149

> <Gold.PLP.part.metal>
0.0000

> <Gold.PLP.part.buried>
-6.8873

> <Gold.PLP.part.nonpolar>
-29.4624

> <Gold.PLP.part.repulsive>
0.4058

> <Gold.PLP.ligand.clash>
0.0000

> <Gold.PLP.ligand.torsion>
0.3842

> <Gold.PLP.Chemscore.Hbond>
2.0000

> <Gold.PLP.Chemscore.CHOScore>
1.0000

> <Gold.PLP.Chemscore.Metal>
0.0000

> <Gold.Chemscore.Hbonds>
donor molecule, donor type, donor heavy atom, donor atom, acceptor molecule, acceptor atom, score
      P1  H  6896  6908       L1    17  1.00
      P1  H  7997  8009       L1    22  0.06
      L1  C    13    46       P1  7948  0.11
      L1  C    13    46       P1  7949  0.79

> <Gold.PLP.Chemscore.Internal.Correction>
0.6084

> <Gold.Rescore>
     Score         DG    S(hbond)    S(metal)    S(lipo)     H(rot)  DE(clash)    DE(int)     intcor
     10.56     -13.63       1.54        0.00      85.91       2.75       0.27       2.80       ----

> <Gold.Chemscore.Fitness>
10.5584

> <Gold.Chemscore.DG>
-13.6261

> <Gold.Chemscore.ZeroCoef>
-5.4800

> <Gold.Chemscore.Hbond>
1.5367

> <Gold.Chemscore.Metal>
0.0000

> <Gold.Chemscore.Lipo>
85.9120

> <Gold.Chemscore.Internal_Hbond>
0.0000

> <Gold.Chemscore.DEClash>
0.2676

> <Gold.Chemscore.DEInternal>
2.8000

> <Gold.Chemscore.Rot>
2.7493

> <Gold.Chemscore.Internal.Correction>
   9.000000E+99

> <Gold.Chemscore.Hbonds>
donor molecule, donor type, donor heavy atom, donor atom, acceptor molecule, acceptor atom, score
      P1  H  6896  6908       L1    17  0.78
      P1  H  7997  8009       L1    22  0.07

> <Gold.Chemscore.Hbond.Weighted>
-5.1326

> <Gold.Chemscore.Metal.Weighted>
-0.0000

> <Gold.Chemscore.Lipo.Weighted>
-10.0517

> <Gold.Chemscore.Internal_Hbond.Weighted>
0.0000

> <Gold.Chemscore.DEClash.Weighted>
0.2676

> <Gold.Chemscore.DEInternal.Weighted>
2.8000

> <Gold.Chemscore.Rot.Weighted>
7.0383

> <Gold.Chemscore.Internal.Correction.Weighted>
   9.000000E+99

> <Gold.Protein.RotatedTorsions>
[ 6907 6896 6895 6894 ] final  167.77 input  -60.11 | X-H torsion
[ 7974 7965 7964 7962 ] final    2.95 input  175.53 | X-H torsion
[ 8008 7997 7996 7995 ] final  176.03 input   59.86 | X-H torsion
[ 10167 10162 10161 10158 ] final -102.94 input  -65.29 | X-H torsion
[ 10718 10713 10712 10709 ] final  -15.42 input   66.30 | X-H torsion
[ 10763 10752 10751 10750 ] final  175.56 input  -60.55 | X-H torsion
[ 11005 11000 10999 10996 ] final   66.15 input  -57.11 | X-H torsion

> <Gold.Protein.ActiveResidues>
 VAL166  LYS551  ARG553  GLY616  TRP617  ASP618  TYR619  PRO620  LYS621  CYS622 
 ASP623  PHE694  ASN695  SER759  ASP760  ASP761  ALA762  ILE779  LEU786  VAL792 
 PHE793  MET794  SER795  GLU796  ALA797  LYS798  CYS799  TRP800  GLU811  SER814 

> <Gold.Protein.RotatedAtoms>
  151.8581  133.3452  159.3694 H   0  0  0  0  0  0  0  0  0  0  0  0  # atno 6907 bound_to 6896
  150.7187  134.5233  159.5673 H   0  0  0  0  0  0  0  0  0  0  0  0  # atno 6908 bound_to 6896
  152.2741  134.7902  160.0460 H   0  0  0  0  0  0  0  0  0  0  0  0  # atno 6909 bound_to 6896
  146.2444  140.0759  142.8360 H   0  0  0  0  0  0  0  0  0  0  0  0  # atno 7974 bound_to 7965
  156.0808  140.1394  156.9714 H   0  0  0  0  0  0  0  0  0  0  0  0  # atno 8008 bound_to 7997
  154.4584  140.0952  156.6872 H   0  0  0  0  0  0  0  0  0  0  0  0  # atno 8009 bound_to 7997
  155.5079  140.3453  155.4385 H   0  0  0  0  0  0  0  0  0  0  0  0  # atno 8010 bound_to 7997
  140.2253  143.3646  152.0934 H   0  0  0  0  0  0  0  0  0  0  0  0  # atno 10167 bound_to 10162
  156.6020  130.4826  149.6236 H   0  0  0  0  0  0  0  0  0  0  0  0  # atno 10718 bound_to 10713
  154.4693  135.2770  155.1655 H   0  0  0  0  0  0  0  0  0  0  0  0  # atno 10763 bound_to 10752
  154.3411  135.6170  153.5600 H   0  0  0  0  0  0  0  0  0  0  0  0  # atno 10764 bound_to 10752
  152.9862  135.5788  154.5070 H   0  0  0  0  0  0  0  0  0  0  0  0  # atno 10765 bound_to 10752
  139.9850  134.6683  156.0193 H   0  0  0  0  0  0  0  0  0  0  0  0  # atno 11005 bound_to 11000
  145.0775  140.9198  143.4845 LP  0  0  0  0  0  0  0  0  0  0  0  0  # atno 17320 bound_to 7965
  145.0906  139.2893  143.5737 LP  0  0  0  0  0  0  0  0  0  0  0  0  # atno 17321 bound_to 7965
  139.5129  144.6924  151.5723 LP  0  0  0  0  0  0  0  0  0  0  0  0  # atno 17342 bound_to 10162
  140.6225  143.9231  150.6537 LP  0  0  0  0  0  0  0  0  0  0  0  0  # atno 17343 bound_to 10162
  156.2461  130.6880  151.1601 LP  0  0  0  0  0  0  0  0  0  0  0  0  # atno 17370 bound_to 10713
  157.7277  131.0637  150.5854 LP  0  0  0  0  0  0  0  0  0  0  0  0  # atno 17371 bound_to 10713
  141.1516  133.6548  156.4032 LP  0  0  0  0  0  0  0  0  0  0  0  0  # atno 17394 bound_to 11000
  140.5021  134.6476  157.5252 LP  0  0  0  0  0  0  0  0  0  0  0  0  # atno 17395 bound_to 11000

$$$$
