AV-unprocessed.smi:527|AV-procd|sdf|2822|dock6
  -GOLD-   2262023303D 1   1.00000     0.00000
 Structure written by MMmdl.
 42 43  0  0  0  0  0  0  0  0  1 V2000
  146.3670  133.0069  150.1480 C   0  0  0  0  0  0  0  0  0  0  0  0
  146.1229  134.0074  151.2918 C   0  0  1  0  0  0  0  0  0  0  0  0
  144.6545  134.4802  151.2648 C   0  0  0  0  0  0  0  0  0  0  0  0
  144.3507  135.4925  152.3771 C   0  0  0  0  0  0  0  0  0  0  0  0
  144.6991  134.9133  153.7553 C   0  0  0  0  0  0  0  0  0  0  0  0
  146.1649  134.4402  153.8233 C   0  0  2  0  0  0  0  0  0  0  0  0
  147.0820  135.5812  153.7960 N   0  0  0  0  0  0  0  0  0  0  0  0
  147.1369  136.5607  154.7103 C   0  0  0  0  0  0  0  0  0  0  0  0
  146.4328  136.5834  155.7222 O   0  0  0  0  0  0  0  0  0  0  0  0
  148.0470  137.4913  154.3648 N   0  0  0  0  0  0  0  0  0  0  0  0
  148.4756  138.5353  155.1041 C   0  0  0  0  0  0  0  0  0  0  0  0
  148.1004  138.7987  156.2482 O   0  0  0  0  0  0  0  0  0  0  0  0
  149.5071  139.4423  154.4318 C   0  0  0  0  0  0  0  0  0  0  0  0
  150.8573  139.0421  154.7807 N   0  0  0  0  0  0  0  0  0  0  0  0
  151.5539  137.9372  154.3075 C   0  0  0  0  0  0  0  0  0  0  0  0
  152.7878  137.9597  154.9174 C   0  0  0  0  0  0  0  0  0  0  0  0
  152.8713  139.0610  155.7663 N   0  0  0  0  0  0  0  0  0  0  0  0
  151.6919  139.6534  155.6330 C   0  0  0  0  0  0  0  0  0  0  0  0
  146.4888  133.4326  152.6891 C   0  0  2  0  0  0  0  0  0  0  0  0
  147.9480  132.9412  152.7794 C   0  0  0  0  0  0  0  0  0  0  0  0
  145.8187  132.0783  150.3088 H   0  0  0  0  0  0  0  0  0  0  0  0
  147.4233  132.7603  150.0440 H   0  0  0  0  0  0  0  0  0  0  0  0
  146.0439  133.4203  149.1923 H   0  0  0  0  0  0  0  0  0  0  0  0
  146.7550  134.8761  151.1021 H   0  0  0  0  0  0  0  0  0  0  0  0
  144.4245  134.9292  150.2977 H   0  0  0  0  0  0  0  0  0  0  0  0
  143.9904  133.6210  151.3689 H   0  0  0  0  0  0  0  0  0  0  0  0
  144.9146  136.4101  152.2053 H   0  0  0  0  0  0  0  0  0  0  0  0
  143.2967  135.7697  152.3482 H   0  0  0  0  0  0  0  0  0  0  0  0
  144.4975  135.6516  154.5324 H   0  0  0  0  0  0  0  0  0  0  0  0
  144.0404  134.0696  153.9644 H   0  0  0  0  0  0  0  0  0  0  0  0
  146.3031  133.9193  154.7728 H   0  0  0  0  0  0  0  0  0  0  0  0
  147.7209  135.6244  153.0157 H   0  0  0  0  0  0  0  0  0  0  0  0
  148.4512  137.4018  153.4444 H   0  0  0  0  0  0  0  0  0  0  0  0
  149.3932  139.3974  153.3479 H   0  0  0  0  0  0  0  0  0  0  0  0
  149.3535  140.4810  154.7286 H   0  0  0  0  0  0  0  0  0  0  0  0
  151.1254  137.2447  153.5977 H   0  0  0  0  0  0  0  0  0  0  0  0
  153.6145  137.2726  154.8128 H   0  0  0  0  0  0  0  0  0  0  0  0
  151.4278  140.5528  156.1700 H   0  0  0  0  0  0  0  0  0  0  0  0
  145.8556  132.5595  152.8554 H   0  0  0  0  0  0  0  0  0  0  0  0
  148.6553  133.7227  152.5003 H   0  0  0  0  0  0  0  0  0  0  0  0
  148.1249  132.0850  152.1291 H   0  0  0  0  0  0  0  0  0  0  0  0
  148.1893  132.6225  153.7938 H   0  0  0  0  0  0  0  0  0  0  0  0
  1  2  1  0  0  0  0
  1 21  1  0  0  0  0
  1 22  1  0  0  0  0
  1 23  1  0  0  0  0
  2 19  1  0  0  0  0
  2  3  1  0  0  0  0
  2 24  1  0  0  0  0
  3  4  1  0  0  0  0
  3 25  1  0  0  0  0
  3 26  1  0  0  0  0
  4  5  1  0  0  0  0
  4 27  1  0  0  0  0
  4 28  1  0  0  0  0
  5  6  1  0  0  0  0
  5 29  1  0  0  0  0
  5 30  1  0  0  0  0
  6  7  1  0  0  0  0
  6 19  1  0  0  0  0
  6 31  1  0  0  0  0
  7  8  1  0  0  0  0
  7 32  1  0  0  0  0
  8  9  2  0  0  0  0
  8 10  1  0  0  0  0
 10 11  1  0  0  0  0
 10 33  1  0  0  0  0
 11 12  2  0  0  0  0
 11 13  1  0  0  0  0
 13 14  1  0  0  0  0
 13 34  1  0  0  0  0
 13 35  1  0  0  0  0
 14 18  1  0  0  0  0
 14 15  1  0  0  0  0
 15 16  2  0  0  0  0
 15 36  1  0  0  0  0
 16 17  1  0  0  0  0
 16 37  1  0  0  0  0
 17 18  2  0  0  0  0
 18 38  1  0  0  0  0
 19 20  1  0  0  0  0
 19 39  1  0  0  0  0
 20 40  1  0  0  0  0
 20 41  1  0  0  0  0
 20 42  1  0  0  0  0
M  END
> <s_m_source_file>
AV-unprocessed.smi

> <i_m_source_file_index>
527

> <i_lp_mmshare_version>
43012

> <i_f3d_flags>
0

> <s_epik_input>
W0NIM11bQ0BASF0xW0NIMl1bQ0gyXVtDSDJdW0NASF0oW0NASF0xW0NIM10pW05IXUMoPU8pW05IXUMoPU8pW0NIMl1uMltjSF1bY0hdbltjSF0y

> <s_epik_cmdline>
J2VwaWtfcHl0aG9uJywgJy1waCcsICc3LjAnLCAnLXRuJywgJzgnLCAnLW1hJywgJzIwMCcsICctbWV0YWxfYmluZGluZycsICctaW1hZScsICc8aW5maWxlLm1hZT4nLCAnLW9tYWUnLCAnPG91dGZpbGUubWFlPic=

> <r_lp_tautomer_probability>
1

> <r_epik_Ionization_Penalty>
0.172132

> <r_epik_Ionization_Penalty_Charging>
0.172105

> <r_epik_Ionization_Penalty_Neutral>
2.71747e-05

> <r_epik_State_Penalty>
0.161503

> <r_epik_Charging_Adjusted_Penalty>
0.333607

> <i_epik_Tot_Q>
0

> <i_epik_Tot_abs_Q>
0

> <r_epik_Metal_State_Penalty>
0.124763

> <b_epik_Metal_Only>
0

> <s_lp_Force_Field>
OPLS_2005

> <r_lp_Energy>
14.576

> <b_lp_Chiralities_Consistent>
1

> <s_lp_Variant>
AV-unprocessed.smi:527-8

> <Gold.Version>
5.8.1

> <Gold.Id.Protein>
6NUR|6NUR_protein|mol2

> <Gold.PLP.Fitness>
42.9234

> <Gold.PLP.PLP>
-32.0230

> <Gold.PLP.part.hbond>
-3.0000

> <Gold.PLP.part.metal>
0.0000

> <Gold.PLP.part.buried>
-1.5999

> <Gold.PLP.part.nonpolar>
-27.0082

> <Gold.PLP.part.repulsive>
0.0180

> <Gold.PLP.ligand.clash>
0.0000

> <Gold.PLP.ligand.torsion>
0.5741

> <Gold.PLP.Chemscore.Hbond>
2.9920

> <Gold.PLP.Chemscore.CHOScore>
1.0119

> <Gold.PLP.Chemscore.Metal>
0.0000

> <Gold.Chemscore.Hbonds>
donor molecule, donor type, donor heavy atom, donor atom, acceptor molecule, acceptor atom, score
      L1  H     7    32       P1  7948  1.00
      L1  H    10    33       P1  7948  1.00
      P1  H  7997  8008       L1    17  1.00
      L1  C    15    36       P1  7948  0.01
      L1  C    15    36       P1  7949  1.00

> <Gold.PLP.Chemscore.Internal.Correction>
0.0371

> <Gold.Rescore>
     Score         DG    S(hbond)    S(metal)    S(lipo)     H(rot)  DE(clash)    DE(int)     intcor
     16.31     -18.22       2.88        0.00      63.13       1.66       0.07       1.84       ----

> <Gold.Chemscore.Fitness>
16.3100

> <Gold.Chemscore.DG>
-18.2235

> <Gold.Chemscore.ZeroCoef>
-5.4800

> <Gold.Chemscore.Hbond>
2.8786

> <Gold.Chemscore.Metal>
0.0000

> <Gold.Chemscore.Lipo>
63.1265

> <Gold.Chemscore.Internal_Hbond>
0.0000

> <Gold.Chemscore.DEClash>
0.0698

> <Gold.Chemscore.DEInternal>
1.8437

> <Gold.Chemscore.Rot>
1.6629

> <Gold.Chemscore.Internal.Correction>
   9.000000E+99

> <Gold.Chemscore.Hbonds>
donor molecule, donor type, donor heavy atom, donor atom, acceptor molecule, acceptor atom, score
      L1  H     7    32       P1  7948  1.00
      L1  H    10    33       P1  7948  0.89
      P1  H  7997  8008       L1    17  0.96

> <Gold.Chemscore.Hbond.Weighted>
-9.6146

> <Gold.Chemscore.Metal.Weighted>
-0.0000

> <Gold.Chemscore.Lipo.Weighted>
-7.3858

> <Gold.Chemscore.Internal_Hbond.Weighted>
0.0000

> <Gold.Chemscore.DEClash.Weighted>
0.0698

> <Gold.Chemscore.DEInternal.Weighted>
1.8437

> <Gold.Chemscore.Rot.Weighted>
4.2569

> <Gold.Chemscore.Internal.Correction.Weighted>
   9.000000E+99

> <Gold.Protein.RotatedTorsions>
[ 6907 6896 6895 6894 ] final  170.08 input  -60.11 | X-H torsion
[ 7974 7965 7964 7962 ] final   67.42 input  175.53 | X-H torsion
[ 8008 7997 7996 7995 ] final  -41.81 input   59.86 | X-H torsion
[ 10167 10162 10161 10158 ] final   50.65 input  -65.29 | X-H torsion
[ 10718 10713 10712 10709 ] final  -30.35 input   66.30 | X-H torsion
[ 10763 10752 10751 10750 ] final -144.91 input  -60.55 | X-H torsion
[ 11005 11000 10999 10996 ] final  -14.02 input  -57.11 | X-H torsion

> <Gold.Protein.ActiveResidues>
 VAL166  LYS551  ARG553  GLY616  TRP617  ASP618  TYR619  PRO620  LYS621  CYS622 
 ASP623  PHE694  ASN695  SER759  ASP760  ASP761  ALA762  ILE779  LEU786  VAL792 
 PHE793  MET794  SER795  GLU796  ALA797  LYS798  CYS799  TRP800  GLU811  SER814 

> <Gold.Protein.RotatedAtoms>
  151.8218  133.3395  159.3586 H   0  0  0  0  0  0  0  0  0  0  0  0  # atno 6907 bound_to 6896
  150.7292  134.5566  159.5831 H   0  0  0  0  0  0  0  0  0  0  0  0  # atno 6908 bound_to 6896
  152.3000  134.7623  160.0411 H   0  0  0  0  0  0  0  0  0  0  0  0  # atno 6909 bound_to 6896
  145.8149  139.3052  143.1077 H   0  0  0  0  0  0  0  0  0  0  0  0  # atno 7974 bound_to 7965
  154.4002  140.1490  156.3252 H   0  0  0  0  0  0  0  0  0  0  0  0  # atno 8008 bound_to 7997
  155.8493  140.3458  155.5662 H   0  0  0  0  0  0  0  0  0  0  0  0  # atno 8009 bound_to 7997
  155.8001  140.0869  157.1952 H   0  0  0  0  0  0  0  0  0  0  0  0  # atno 8010 bound_to 7997
  140.2702  144.3274  150.6292 H   0  0  0  0  0  0  0  0  0  0  0  0  # atno 10167 bound_to 10162
  156.4010  130.4390  149.7323 H   0  0  0  0  0  0  0  0  0  0  0  0  # atno 10718 bound_to 10713
  154.8407  135.3427  154.6421 H   0  0  0  0  0  0  0  0  0  0  0  0  # atno 10763 bound_to 10752
  153.7033  135.6968  153.5062 H   0  0  0  0  0  0  0  0  0  0  0  0  # atno 10764 bound_to 10752
  153.2506  135.4354  155.0748 H   0  0  0  0  0  0  0  0  0  0  0  0  # atno 10765 bound_to 10752
  140.7821  133.8355  155.9301 H   0  0  0  0  0  0  0  0  0  0  0  0  # atno 11005 bound_to 11000
  145.9738  140.8739  143.0149 LP  0  0  0  0  0  0  0  0  0  0  0  0  # atno 17320 bound_to 7965
  144.6753  140.1983  143.7389 LP  0  0  0  0  0  0  0  0  0  0  0  0  # atno 17321 bound_to 7965
  140.5896  143.2168  151.7278 LP  0  0  0  0  0  0  0  0  0  0  0  0  # atno 17342 bound_to 10162
  139.4991  144.3959  152.0231 LP  0  0  0  0  0  0  0  0  0  0  0  0  # atno 17343 bound_to 10162
  156.4339  130.7828  151.2849 LP  0  0  0  0  0  0  0  0  0  0  0  0  # atno 17370 bound_to 10713
  157.7504  131.0145  150.3469 LP  0  0  0  0  0  0  0  0  0  0  0  0  # atno 17371 bound_to 10713
  140.9472  134.1825  157.4754 LP  0  0  0  0  0  0  0  0  0  0  0  0  # atno 17394 bound_to 11000
  139.8741  134.9895  156.5461 LP  0  0  0  0  0  0  0  0  0  0  0  0  # atno 17395 bound_to 11000

$$$$
