AV-unprocessed.smi:2070|AV-procd|sdf|8439|dock6
  -GOLD-   2272011143D 1   1.00000     0.00000
 Structure written by MMmdl.
 40 41  0  0  0  0  0  0  0  0  1 V2000
  152.0484  145.1179  160.1521 C   0  0  0  0  0  0  0  0  0  0  0  0
  152.7533  143.9764  160.8151 C   0  0  0  0  0  0  0  0  0  0  0  0
  153.0519  143.8584  162.1495 C   0  0  0  0  0  0  0  0  0  0  0  0
  153.8782  142.3655  162.5015 S   0  0  0  0  0  0  0  0  0  0  0  0
  153.7955  141.9529  160.7931 C   0  0  0  0  0  0  0  0  0  0  0  0
  154.3135  140.6648  160.2371 C   0  0  0  0  0  0  0  0  0  0  0  0
  153.2062  139.6734  159.8293 C   0  0  0  0  0  0  0  0  0  0  0  0
  152.7373  139.8846  158.4637 N   0  0  0  0  0  0  0  0  0  0  0  0
  152.9605  139.0577  157.4290 C   0  0  0  0  0  0  0  0  0  0  0  0
  153.5368  137.9778  157.5681 O   0  0  0  0  0  0  0  0  0  0  0  0
  152.4945  139.5052  156.2354 N   0  0  0  0  0  0  0  0  0  0  0  0
  152.5820  138.7972  154.9467 C   0  0  0  0  0  0  0  0  0  0  0  0
  151.2002  138.2053  154.6165 C   0  0  0  0  0  0  0  0  0  0  0  0
  150.1161  139.3081  154.5834 C   0  0  0  0  0  0  0  0  0  0  0  0
  148.7197  138.7029  154.3868 C   0  0  0  0  0  0  0  0  0  0  0  0
  148.0928  138.9784  153.2403 N   0  0  0  0  0  0  0  0  0  0  0  0
  148.2108  137.9968  155.2552 O   0  0  0  0  0  0  0  0  0  0  0  0
  150.1727  140.1747  155.8640 C   0  0  0  0  0  0  0  0  0  0  0  0
  151.6055  140.6690  156.1373 C   0  0  0  0  0  0  0  0  0  0  0  0
  153.1753  142.8803  160.0575 N   0  0  0  0  0  0  0  0  0  0  0  0
  150.9671  145.0267  160.2581 H   0  0  0  0  0  0  0  0  0  0  0  0
  152.2740  145.1634  159.0862 H   0  0  0  0  0  0  0  0  0  0  0  0
  152.3439  146.0718  160.5895 H   0  0  0  0  0  0  0  0  0  0  0  0
  152.8355  144.5565  162.9445 H   0  0  0  0  0  0  0  0  0  0  0  0
  154.9441  140.8889  159.3758 H   0  0  0  0  0  0  0  0  0  0  0  0
  154.9658  140.2037  160.9792 H   0  0  0  0  0  0  0  0  0  0  0  0
  153.5476  138.6453  159.9597 H   0  0  0  0  0  0  0  0  0  0  0  0
  152.3480  139.7989  160.4900 H   0  0  0  0  0  0  0  0  0  0  0  0
  152.2500  140.7491  158.2782 H   0  0  0  0  0  0  0  0  0  0  0  0
  152.8794  139.5029  154.1696 H   0  0  0  0  0  0  0  0  0  0  0  0
  153.3368  138.0113  154.9225 H   0  0  0  0  0  0  0  0  0  0  0  0
  151.2402  137.6898  153.6561 H   0  0  0  0  0  0  0  0  0  0  0  0
  150.9507  137.4500  155.3626 H   0  0  0  0  0  0  0  0  0  0  0  0
  150.3327  139.9588  153.7342 H   0  0  0  0  0  0  0  0  0  0  0  0
  147.1730  138.6013  153.0644 H   0  0  0  0  0  0  0  0  0  0  0  0
  148.5439  139.5630  152.5516 H   0  0  0  0  0  0  0  0  0  0  0  0
  149.5017  141.0293  155.7681 H   0  0  0  0  0  0  0  0  0  0  0  0
  149.8231  139.6032  156.7258 H   0  0  0  0  0  0  0  0  0  0  0  0
  151.6219  141.2883  157.0352 H   0  0  0  0  0  0  0  0  0  0  0  0
  151.9414  141.3172  155.3267 H   0  0  0  0  0  0  0  0  0  0  0  0
  1  2  1  0  0  0  0
  1 21  1  0  0  0  0
  1 22  1  0  0  0  0
  1 23  1  0  0  0  0
  2 20  1  0  0  0  0
  2  3  2  0  0  0  0
  3  4  1  0  0  0  0
  3 24  1  0  0  0  0
  4  5  1  0  0  0  0
  5  6  1  0  0  0  0
  5 20  2  0  0  0  0
  6  7  1  0  0  0  0
  6 25  1  0  0  0  0
  6 26  1  0  0  0  0
  7  8  1  0  0  0  0
  7 27  1  0  0  0  0
  7 28  1  0  0  0  0
  8  9  1  0  0  0  0
  8 29  1  0  0  0  0
  9 10  2  0  0  0  0
  9 11  1  0  0  0  0
 11 19  1  0  0  0  0
 11 12  1  0  0  0  0
 12 13  1  0  0  0  0
 12 30  1  0  0  0  0
 12 31  1  0  0  0  0
 13 14  1  0  0  0  0
 13 32  1  0  0  0  0
 13 33  1  0  0  0  0
 14 15  1  0  0  0  0
 14 18  1  0  0  0  0
 14 34  1  0  0  0  0
 15 16  1  0  0  0  0
 15 17  2  0  0  0  0
 16 35  1  0  0  0  0
 16 36  1  0  0  0  0
 18 19  1  0  0  0  0
 18 37  1  0  0  0  0
 18 38  1  0  0  0  0
 19 39  1  0  0  0  0
 19 40  1  0  0  0  0
M  END
> <s_m_source_file>
AV-unprocessed.smi

> <i_m_source_file_index>
2070

> <i_lp_mmshare_version>
43012

> <i_f3d_flags>
0

> <s_epik_input>
W0NIM11jMVtjSF1zYyhuMSlbQ0gyXVtDSDJdW05IXUMoPU8pTjJbQ0gyXVtDSDJdW0NIXShDKD1PKVtOSDJdKVtDSDJdW0NIMl0y

> <s_epik_cmdline>
J2VwaWtfcHl0aG9uJywgJy1waCcsICc3LjAnLCAnLXRuJywgJzgnLCAnLW1hJywgJzIwMCcsICctbWV0YWxfYmluZGluZycsICctaW1hZScsICc8aW5maWxlLm1hZT4nLCAnLW9tYWUnLCAnPG91dGZpbGUubWFlPic=

> <r_epik_Ionization_Penalty>
0.00203811

> <r_epik_Ionization_Penalty_Charging>
0

> <r_epik_Ionization_Penalty_Neutral>
0.00203811

> <r_epik_State_Penalty>
0.00135523

> <r_epik_Charging_Adjusted_Penalty>
0.00135523

> <i_epik_Tot_Q>
0

> <i_epik_Tot_abs_Q>
0

> <r_epik_Metal_State_Penalty>
-0

> <b_epik_Metal_Only>
0

> <s_lp_Force_Field>
OPLS_2005

> <r_lp_Energy>
19.595

> <b_lp_Chiralities_Consistent>
1

> <s_lp_Variant>
AV-unprocessed.smi:2070-1

> <Gold.Version>
5.8.1

> <Gold.Id.Protein>
6NUR|6NUR_protein|mol2

> <Gold.PLP.Fitness>
47.5946

> <Gold.PLP.PLP>
-47.0302

> <Gold.PLP.part.hbond>
-1.7642

> <Gold.PLP.part.metal>
0.0000

> <Gold.PLP.part.buried>
-5.1388

> <Gold.PLP.part.nonpolar>
-38.6827

> <Gold.PLP.part.repulsive>
0.2326

> <Gold.PLP.ligand.clash>
1.6784

> <Gold.PLP.ligand.torsion>
0.4080

> <Gold.PLP.Chemscore.Hbond>
1.0000

> <Gold.PLP.Chemscore.CHOScore>
0.0000

> <Gold.PLP.Chemscore.Metal>
0.0000

> <Gold.Chemscore.Hbonds>
donor molecule, donor type, donor heavy atom, donor atom, acceptor molecule, acceptor atom, score
      L1  H    16    36       P1  7957  1.00

> <Gold.PLP.Chemscore.Internal.Correction>
0.0588

> <Gold.Rescore>
     Score         DG    S(hbond)    S(metal)    S(lipo)     H(rot)  DE(clash)    DE(int)     intcor
     16.51     -17.14       0.99        0.00     114.04       1.95       0.06       0.57       ----

> <Gold.Chemscore.Fitness>
16.5083

> <Gold.Chemscore.DG>
-17.1445

> <Gold.Chemscore.ZeroCoef>
-5.4800

> <Gold.Chemscore.Hbond>
0.9914

> <Gold.Chemscore.Metal>
0.0000

> <Gold.Chemscore.Lipo>
114.0442

> <Gold.Chemscore.Internal_Hbond>
0.0000

> <Gold.Chemscore.DEClash>
0.0624

> <Gold.Chemscore.DEInternal>
0.5738

> <Gold.Chemscore.Rot>
1.9492

> <Gold.Chemscore.Internal.Correction>
   9.000000E+99

> <Gold.Chemscore.Hbonds>
donor molecule, donor type, donor heavy atom, donor atom, acceptor molecule, acceptor atom, score
      L1  H    16    36       P1  7957  0.99

> <Gold.Chemscore.Hbond.Weighted>
-3.3113

> <Gold.Chemscore.Metal.Weighted>
-0.0000

> <Gold.Chemscore.Lipo.Weighted>
-13.3432

> <Gold.Chemscore.Internal_Hbond.Weighted>
0.0000

> <Gold.Chemscore.DEClash.Weighted>
0.0624

> <Gold.Chemscore.DEInternal.Weighted>
0.5738

> <Gold.Chemscore.Rot.Weighted>
4.9900

> <Gold.Chemscore.Internal.Correction.Weighted>
   9.000000E+99

> <Gold.Protein.RotatedTorsions>
[ 6907 6896 6895 6894 ] final   50.31 input  -60.11 | X-H torsion
[ 7974 7965 7964 7962 ] final -123.86 input  175.53 | X-H torsion
[ 8008 7997 7996 7995 ] final  -97.92 input   59.86 | X-H torsion
[ 10167 10162 10161 10158 ] final   13.23 input  -65.29 | X-H torsion
[ 10718 10713 10712 10709 ] final  167.56 input   66.30 | X-H torsion
[ 10763 10752 10751 10750 ] final   49.98 input  -60.55 | X-H torsion
[ 11005 11000 10999 10996 ] final    0.68 input  -57.11 | X-H torsion

> <Gold.Protein.ActiveResidues>
 VAL166  LYS551  ARG553  GLY616  TRP617  ASP618  TYR619  PRO620  LYS621  CYS622 
 ASP623  PHE694  ASN695  SER759  ASP760  ASP761  ALA762  ILE779  LEU786  VAL792 
 PHE793  MET794  SER795  GLU796  ALA797  LYS798  CYS799  TRP800  GLU811  SER814 

> <Gold.Protein.RotatedAtoms>
  152.3004  134.7617  160.0358 H   0  0  0  0  0  0  0  0  0  0  0  0  # atno 6907 bound_to 6896
  151.8133  133.3379  159.3570 H   0  0  0  0  0  0  0  0  0  0  0  0  # atno 6908 bound_to 6896
  150.7271  134.5573  159.5869 H   0  0  0  0  0  0  0  0  0  0  0  0  # atno 6909 bound_to 6896
  145.0142  140.7932  143.4420 H   0  0  0  0  0  0  0  0  0  0  0  0  # atno 7974 bound_to 7965
  154.7942  140.0459  157.1224 H   0  0  0  0  0  0  0  0  0  0  0  0  # atno 8008 bound_to 7997
  154.9555  140.3070  155.5035 H   0  0  0  0  0  0  0  0  0  0  0  0  # atno 8009 bound_to 7997
  156.2954  140.2280  156.4636 H   0  0  0  0  0  0  0  0  0  0  0  0  # atno 8010 bound_to 7997
  140.6016  143.8593  150.6971 H   0  0  0  0  0  0  0  0  0  0  0  0  # atno 10167 bound_to 10162
  157.0498  131.0310  151.2685 H   0  0  0  0  0  0  0  0  0  0  0  0  # atno 10718 bound_to 10713
  152.9785  135.5894  154.4178 H   0  0  0  0  0  0  0  0  0  0  0  0  # atno 10763 bound_to 10752
  154.3806  135.2767  155.2215 H   0  0  0  0  0  0  0  0  0  0  0  0  # atno 10764 bound_to 10752
  154.4131  135.6077  153.6019 H   0  0  0  0  0  0  0  0  0  0  0  0  # atno 10765 bound_to 10752
  140.6239  133.9637  155.8239 H   0  0  0  0  0  0  0  0  0  0  0  0  # atno 11005 bound_to 11000
  145.1983  139.2265  143.5206 LP  0  0  0  0  0  0  0  0  0  0  0  0  # atno 17320 bound_to 7965
  146.3475  140.1794  142.8589 LP  0  0  0  0  0  0  0  0  0  0  0  0  # atno 17321 bound_to 7965
  140.2140  143.3861  152.1695 LP  0  0  0  0  0  0  0  0  0  0  0  0  # atno 17342 bound_to 10162
  139.5295  144.7142  151.5107 LP  0  0  0  0  0  0  0  0  0  0  0  0  # atno 17343 bound_to 10162
  157.5039  130.7897  149.7633 LP  0  0  0  0  0  0  0  0  0  0  0  0  # atno 17370 bound_to 10713
  156.0011  130.3880  150.2602 LP  0  0  0  0  0  0  0  0  0  0  0  0  # atno 17371 bound_to 10713
  141.0723  134.0187  157.3508 LP  0  0  0  0  0  0  0  0  0  0  0  0  # atno 17394 bound_to 11000
  139.9142  135.0194  156.7817 LP  0  0  0  0  0  0  0  0  0  0  0  0  # atno 17395 bound_to 11000

$$$$
