AV-unprocessed.smi:2472|AV-procd|sdf|9741|dock8
  -GOLD-   2272013383D 1   1.00000     0.00000
 Structure written by MMmdl.
 47 49  0  0  0  0  0  0  0  0  1 V2000
  147.5243  133.3621  151.8209 C   0  0  0  0  0  0  0  0  0  0  0  0
  146.2316  133.7501  151.1248 C   0  0  0  0  0  0  0  0  0  0  0  0
  145.5100  132.7855  150.3887 C   0  0  0  0  0  0  0  0  0  0  0  0
  144.3563  133.0503  149.7415 N   0  0  0  0  0  0  0  0  0  0  0  0
  143.8760  134.3092  149.8013 C   0  0  0  0  0  0  0  0  0  0  0  0
  144.5127  135.3490  150.5060 C   0  0  0  0  0  0  0  0  0  0  0  0
  145.7141  135.0659  151.1991 C   0  0  0  0  0  0  0  0  0  0  0  0
  146.4399  136.0538  151.9210 N   0  0  0  0  0  0  0  0  0  0  0  0
  145.9531  137.0766  152.6438 C   0  0  0  0  0  0  0  0  0  0  0  0
  144.7589  137.3349  152.7932 O   0  0  0  0  0  0  0  0  0  0  0  0
  146.9452  137.7733  153.2267 N   0  0  0  0  0  0  0  0  0  0  0  0
  146.8269  138.9340  154.1293 C   0  0  0  0  0  0  0  0  0  0  0  0
  145.6551  138.7981  155.1442 C   0  0  0  0  0  0  0  0  0  0  0  0
  145.8919  138.5529  156.3279 O   0  0  0  0  0  0  0  0  0  0  0  0
  144.4000  138.9365  154.6862 N   0  0  0  0  0  0  0  0  0  0  0  0
  143.1973  138.8486  155.4990 C   0  0  0  0  0  0  0  0  0  0  0  0
  142.1626  137.8887  154.9506 C   0  0  0  0  0  0  0  0  0  0  0  0
  142.0519  137.6443  153.4643 C   0  0  0  0  0  0  0  0  0  0  0  0
  140.9594  138.3933  154.1893 C   0  0  0  0  0  0  0  0  0  0  0  0
  148.1515  139.0683  154.9187 C   0  0  0  0  0  0  0  0  0  0  0  0
  148.4128  140.5651  155.0722 C   0  0  0  0  0  0  0  0  0  0  0  0
  147.9150  141.1584  153.7610 C   0  0  0  0  0  0  0  0  0  0  0  0
  146.7433  140.2696  153.3247 C   0  0  0  0  0  0  0  0  0  0  0  0
  147.7405  132.3010  151.6913 H   0  0  0  0  0  0  0  0  0  0  0  0
  147.4570  133.5637  152.8902 H   0  0  0  0  0  0  0  0  0  0  0  0
  148.3610  133.9297  151.4128 H   0  0  0  0  0  0  0  0  0  0  0  0
  145.8679  131.7692  150.3141 H   0  0  0  0  0  0  0  0  0  0  0  0
  142.9575  134.4966  149.2648 H   0  0  0  0  0  0  0  0  0  0  0  0
  144.0793  136.3374  150.4926 H   0  0  0  0  0  0  0  0  0  0  0  0
  147.4376  135.9092  151.9696 H   0  0  0  0  0  0  0  0  0  0  0  0
  147.8883  137.4667  153.0383 H   0  0  0  0  0  0  0  0  0  0  0  0
  144.2745  139.1357  153.7045 H   0  0  0  0  0  0  0  0  0  0  0  0
  143.4695  138.5512  156.5129 H   0  0  0  0  0  0  0  0  0  0  0  0
  142.7400  139.8367  155.5696 H   0  0  0  0  0  0  0  0  0  0  0  0
  142.0014  137.0149  155.5797 H   0  0  0  0  0  0  0  0  0  0  0  0
  142.7016  138.2173  152.8055 H   0  0  0  0  0  0  0  0  0  0  0  0
  141.8334  136.6298  153.1367 H   0  0  0  0  0  0  0  0  0  0  0  0
  140.0142  137.8782  154.3484 H   0  0  0  0  0  0  0  0  0  0  0  0
  140.8825  139.4642  154.0120 H   0  0  0  0  0  0  0  0  0  0  0  0
  148.1336  138.5633  155.8861 H   0  0  0  0  0  0  0  0  0  0  0  0
  148.9767  138.6287  154.3556 H   0  0  0  0  0  0  0  0  0  0  0  0
  147.8307  140.9625  155.9046 H   0  0  0  0  0  0  0  0  0  0  0  0
  149.4624  140.7909  155.2626 H   0  0  0  0  0  0  0  0  0  0  0  0
  147.6292  142.2059  153.8615 H   0  0  0  0  0  0  0  0  0  0  0  0
  148.7089  141.1048  153.0150 H   0  0  0  0  0  0  0  0  0  0  0  0
  146.7966  140.1185  152.2461 H   0  0  0  0  0  0  0  0  0  0  0  0
  145.8010  140.7907  153.4999 H   0  0  0  0  0  0  0  0  0  0  0  0
  1  2  1  0  0  0  0
  1 24  1  0  0  0  0
  1 25  1  0  0  0  0
  1 26  1  0  0  0  0
  2  7  1  0  0  0  0
  2  3  2  0  0  0  0
  3  4  1  0  0  0  0
  3 27  1  0  0  0  0
  4  5  2  0  0  0  0
  5  6  1  0  0  0  0
  5 28  1  0  0  0  0
  6  7  2  0  0  0  0
  6 29  1  0  0  0  0
  7  8  1  0  0  0  0
  8  9  1  0  0  0  0
  8 30  1  0  0  0  0
  9 10  2  0  0  0  0
  9 11  1  0  0  0  0
 11 12  1  0  0  0  0
 11 31  1  0  0  0  0
 12 23  1  0  0  0  0
 12 13  1  0  0  0  0
 12 20  1  0  0  0  0
 13 14  2  0  0  0  0
 13 15  1  0  0  0  0
 15 16  1  0  0  0  0
 15 32  1  0  0  0  0
 16 17  1  0  0  0  0
 16 33  1  0  0  0  0
 16 34  1  0  0  0  0
 17 19  1  0  0  0  0
 17 18  1  0  0  0  0
 17 35  1  0  0  0  0
 18 19  1  0  0  0  0
 18 36  1  0  0  0  0
 18 37  1  0  0  0  0
 19 38  1  0  0  0  0
 19 39  1  0  0  0  0
 20 21  1  0  0  0  0
 20 40  1  0  0  0  0
 20 41  1  0  0  0  0
 21 22  1  0  0  0  0
 21 42  1  0  0  0  0
 21 43  1  0  0  0  0
 22 23  1  0  0  0  0
 22 44  1  0  0  0  0
 22 45  1  0  0  0  0
 23 46  1  0  0  0  0
 23 47  1  0  0  0  0
M  END
> <s_m_source_file>
AV-unprocessed.smi

> <i_m_source_file_index>
2472

> <i_lp_mmshare_version>
43012

> <i_f3d_flags>
0

> <s_epik_input>
W0NIM11jMVtjSF1uW2NIXVtjSF1jMVtOSF1DKD1PKVtOSF1DMihbQ0gyXVtDSDJdW0NIMl1bQ0gyXTIpQyg9TylbTkhdW0NIMl1bQ0hdM1tDSDJdW0NIMl0z

> <s_epik_cmdline>
J2VwaWtfcHl0aG9uJywgJy1waCcsICc3LjAnLCAnLXRuJywgJzgnLCAnLW1hJywgJzIwMCcsICctbWV0YWxfYmluZGluZycsICctaW1hZScsICc8aW5maWxlLm1hZT4nLCAnLW9tYWUnLCAnPG91dGZpbGUubWFlPic=

> <r_epik_Ionization_Penalty>
0.187836

> <r_epik_Ionization_Penalty_Charging>
0

> <r_epik_Ionization_Penalty_Neutral>
0.187836

> <r_epik_State_Penalty>
0.177409

> <r_epik_Charging_Adjusted_Penalty>
0.177409

> <i_epik_Tot_Q>
0

> <i_epik_Tot_abs_Q>
0

> <r_epik_Metal_State_Penalty>
0.134269

> <b_epik_Metal_Only>
0

> <s_lp_Force_Field>
OPLS_2005

> <r_lp_Energy>
32.7124

> <b_lp_Chiralities_Consistent>
1

> <s_lp_Variant>
AV-unprocessed.smi:2472-1

> <Gold.Version>
5.8.1

> <Gold.Id.Protein>
6NUR|6NUR_protein|mol2

> <Gold.PLP.Fitness>
37.9855

> <Gold.PLP.PLP>
-29.7810

> <Gold.PLP.part.hbond>
-2.9135

> <Gold.PLP.part.metal>
0.0000

> <Gold.PLP.part.buried>
-0.1114

> <Gold.PLP.part.nonpolar>
-26.7696

> <Gold.PLP.part.repulsive>
0.4930

> <Gold.PLP.ligand.clash>
0.0000

> <Gold.PLP.ligand.torsion>
1.5931

> <Gold.PLP.Chemscore.Hbond>
2.5840

> <Gold.PLP.Chemscore.CHOScore>
1.0000

> <Gold.PLP.Chemscore.Metal>
0.0000

> <Gold.Chemscore.Hbonds>
donor molecule, donor type, donor heavy atom, donor atom, acceptor molecule, acceptor atom, score
      L1  H     8    30       P1  7948  0.99
      L1  H    11    31       P1  7948  0.85
      L1  H    15    32       P1 10175  0.86
      L1  C     5    28       P1 10186  0.83

> <Gold.PLP.Chemscore.Internal.Correction>
0.6386

> <Gold.Rescore>
     Score         DG    S(hbond)    S(metal)    S(lipo)     H(rot)  DE(clash)    DE(int)     intcor
     13.23     -19.48       2.75        0.00      76.13       1.59       1.29       4.96       ----

> <Gold.Chemscore.Fitness>
13.2312

> <Gold.Chemscore.DG>
-19.4795

> <Gold.Chemscore.ZeroCoef>
-5.4800

> <Gold.Chemscore.Hbond>
2.7464

> <Gold.Chemscore.Metal>
0.0000

> <Gold.Chemscore.Lipo>
76.1328

> <Gold.Chemscore.Internal_Hbond>
0.0000

> <Gold.Chemscore.DEClash>
1.2859

> <Gold.Chemscore.DEInternal>
4.9624

> <Gold.Chemscore.Rot>
1.5941

> <Gold.Chemscore.Internal.Correction>
   9.000000E+99

> <Gold.Chemscore.Hbonds>
donor molecule, donor type, donor heavy atom, donor atom, acceptor molecule, acceptor atom, score
      L1  H     8    30       P1  7948  0.92
      L1  H    11    31       P1  7948  0.80
      L1  H    15    32       P1 10175  0.85

> <Gold.Chemscore.Hbond.Weighted>
-9.1729

> <Gold.Chemscore.Metal.Weighted>
-0.0000

> <Gold.Chemscore.Lipo.Weighted>
-8.9075

> <Gold.Chemscore.Internal_Hbond.Weighted>
0.0000

> <Gold.Chemscore.DEClash.Weighted>
1.2859

> <Gold.Chemscore.DEInternal.Weighted>
4.9624

> <Gold.Chemscore.Rot.Weighted>
4.0809

> <Gold.Chemscore.Internal.Correction.Weighted>
   9.000000E+99

> <Gold.Protein.RotatedTorsions>
[ 6907 6896 6895 6894 ] final   50.08 input  -60.11 | X-H torsion
[ 7974 7965 7964 7962 ] final  -76.59 input  175.53 | X-H torsion
[ 8008 7997 7996 7995 ] final  -73.30 input   59.86 | X-H torsion
[ 10167 10162 10161 10158 ] final   -6.90 input  -65.29 | X-H torsion
[ 10718 10713 10712 10709 ] final  148.71 input   66.30 | X-H torsion
[ 10763 10752 10751 10750 ] final -127.61 input  -60.55 | X-H torsion
[ 11005 11000 10999 10996 ] final   -9.90 input  -57.11 | X-H torsion

> <Gold.Protein.ActiveResidues>
 VAL166  LYS551  ARG553  GLY616  TRP617  ASP618  TYR619  PRO620  LYS621  CYS622 
 ASP623  PHE694  ASN695  SER759  ASP760  ASP761  ALA762  ILE779  LEU786  VAL792 
 PHE793  MET794  SER795  GLU796  ALA797  LYS798  CYS799  TRP800  GLU811  SER814 

> <Gold.Protein.RotatedAtoms>
  152.2979  134.7645  160.0363 H   0  0  0  0  0  0  0  0  0  0  0  0  # atno 6907 bound_to 6896
  151.8169  133.3384  159.3580 H   0  0  0  0  0  0  0  0  0  0  0  0  # atno 6908 bound_to 6896
  150.7260  134.5540  159.5853 H   0  0  0  0  0  0  0  0  0  0  0  0  # atno 6909 bound_to 6896
  145.6108  140.9387  143.1190 H   0  0  0  0  0  0  0  0  0  0  0  0  # atno 7974 bound_to 7965
  154.5236  140.0781  156.8217 H   0  0  0  0  0  0  0  0  0  0  0  0  # atno 8008 bound_to 7997
  155.3524  140.3413  155.4221 H   0  0  0  0  0  0  0  0  0  0  0  0  # atno 8009 bound_to 7997
  156.1707  140.1619  156.8439 H   0  0  0  0  0  0  0  0  0  0  0  0  # atno 8010 bound_to 7997
  140.7012  143.6142  150.8675 H   0  0  0  0  0  0  0  0  0  0  0  0  # atno 10167 bound_to 10162
  157.3052  131.0878  151.1359 H   0  0  0  0  0  0  0  0  0  0  0  0  # atno 10718 bound_to 10713
  154.8753  135.3956  154.3621 H   0  0  0  0  0  0  0  0  0  0  0  0  # atno 10763 bound_to 10752
  153.4392  135.7026  153.6185 H   0  0  0  0  0  0  0  0  0  0  0  0  # atno 10764 bound_to 10752
  153.4773  135.3777  155.2392 H   0  0  0  0  0  0  0  0  0  0  0  0  # atno 10765 bound_to 10752
  140.7391  133.8685  155.8953 H   0  0  0  0  0  0  0  0  0  0  0  0  # atno 11005 bound_to 11000
  144.7270  139.7843  143.7361 LP  0  0  0  0  0  0  0  0  0  0  0  0  # atno 17320 bound_to 7965
  146.1505  139.4587  143.0051 LP  0  0  0  0  0  0  0  0  0  0  0  0  # atno 17321 bound_to 7965
  139.9864  143.5895  152.2925 LP  0  0  0  0  0  0  0  0  0  0  0  0  # atno 17342 bound_to 10162
  139.6534  144.7661  151.2103 LP  0  0  0  0  0  0  0  0  0  0  0  0  # atno 17343 bound_to 10162
  157.2703  130.6701  149.6016 LP  0  0  0  0  0  0  0  0  0  0  0  0  # atno 17370 bound_to 10713
  155.9674  130.4481  150.5607 LP  0  0  0  0  0  0  0  0  0  0  0  0  # atno 17371 bound_to 10713
  140.9853  134.1351  157.4458 LP  0  0  0  0  0  0  0  0  0  0  0  0  # atno 17394 bound_to 11000
  139.8810  135.0023  156.6121 LP  0  0  0  0  0  0  0  0  0  0  0  0  # atno 17395 bound_to 11000

$$$$
