AV-unprocessed.smi:68|AV-procd|sdf|639|dock2
  -GOLD-   2262016533D 1   1.00000     0.00000
 Structure written by MMmdl.
 23 24  0  0  0  0  0  0  0  0  1 V2000
  150.9832  139.3482  154.4577 O   0  0  0  0  0  0  0  0  0  0  0  0
  151.0407  140.0949  155.4326 C   0  0  0  0  0  0  0  0  0  0  0  0
  152.0271  139.9068  156.4053 N   0  0  0  0  0  0  0  0  0  0  0  0
  152.1957  140.6857  157.5517 C   0  0  0  0  0  0  0  0  0  0  0  0
  153.0906  140.4149  158.3512 O   0  0  0  0  0  0  0  0  0  0  0  0
  151.3004  141.7629  157.7366 N   0  0  0  0  0  0  0  0  0  0  0  0
  151.4357  142.6341  158.9649 C   0  0  2  0  0  0  0  0  0  0  0  0
  150.3548  143.7211  158.9799 C   0  0  0  0  0  0  0  0  0  0  0  0
  151.1313  144.9204  159.4786 C   0  0  0  0  0  0  0  0  0  0  0  0
  152.5003  144.6798  158.8557 C   0  0  0  0  0  0  0  0  0  0  0  0
  152.6822  143.2701  158.9475 O   0  0  0  0  0  0  0  0  0  0  0  0
  150.2944  141.9776  156.8034 C   0  0  0  0  0  0  0  0  0  0  0  0
  150.1388  141.2118  155.6977 C   0  0  0  0  0  0  0  0  0  0  0  0
  149.1404  141.4806  154.8393 F   0  0  0  0  0  0  0  0  0  0  0  0
  152.6692  139.1397  156.2688 H   0  0  0  0  0  0  0  0  0  0  0  0
  151.4129  141.9827  159.8399 H   0  0  0  0  0  0  0  0  0  0  0  0
  149.9895  143.9010  157.9675 H   0  0  0  0  0  0  0  0  0  0  0  0
  149.5172  143.4390  159.6181 H   0  0  0  0  0  0  0  0  0  0  0  0
  150.6881  145.8717  159.1831 H   0  0  0  0  0  0  0  0  0  0  0  0
  151.2035  144.8962  160.5668 H   0  0  0  0  0  0  0  0  0  0  0  0
  152.5038  144.9860  157.8092 H   0  0  0  0  0  0  0  0  0  0  0  0
  153.2964  145.2185  159.3698 H   0  0  0  0  0  0  0  0  0  0  0  0
  149.5931  142.7838  156.9536 H   0  0  0  0  0  0  0  0  0  0  0  0
  1  2  2  0  0  0  0
  2 13  1  0  0  0  0
  2  3  1  0  0  0  0
  3 15  1  0  0  0  0
  3  4  1  0  0  0  0
  4  5  2  0  0  0  0
  4  6  1  0  0  0  0
  6  7  1  0  0  0  0
  6 12  1  0  0  0  0
  7 11  1  0  0  0  0
  7  8  1  0  0  0  0
  7 16  1  0  0  0  0
  8  9  1  0  0  0  0
  8 17  1  0  0  0  0
  8 18  1  0  0  0  0
  9 10  1  0  0  0  0
  9 19  1  0  0  0  0
  9 20  1  0  0  0  0
 10 11  1  0  0  0  0
 10 21  1  0  0  0  0
 10 22  1  0  0  0  0
 12 13  2  0  0  0  0
 12 23  1  0  0  0  0
 13 14  1  0  0  0  0
M  END
> <s_m_source_file>
AV-unprocessed.smi

> <i_m_source_file_index>
68

> <i_lp_mmshare_version>
43012

> <i_f3d_flags>
0

> <s_epik_input>
Tz1jMVtuSF1jKD1PKW4oW2NIXWMxRilbQ0BASF0yW0NIMl1bQ0gyXVtDSDJdTzI=

> <s_epik_cmdline>
J2VwaWtfcHl0aG9uJywgJy1waCcsICc3LjAnLCAnLXRuJywgJzgnLCAnLW1hJywgJzIwMCcsICctbWV0YWxfYmluZGluZycsICctaW1hZScsICc8aW5maWxlLm1hZT4nLCAnLW9tYWUnLCAnPG91dGZpbGUubWFlPic=

> <r_lp_tautomer_probability>
0.999537

> <r_epik_Ionization_Penalty>
0.0350763

> <r_epik_Ionization_Penalty_Charging>
0.0350763

> <r_epik_Ionization_Penalty_Neutral>
6.20402e-12

> <r_epik_State_Penalty>
0.0292209

> <r_epik_Charging_Adjusted_Penalty>
0.0642972

> <i_epik_Tot_Q>
0

> <i_epik_Tot_abs_Q>
0

> <r_epik_Metal_State_Penalty>
2.33597

> <b_epik_Metal_Only>
0

> <s_epik_Chemistry_Notes>
This compound contains an acetal/aminal-like group ( X-CH(R)-Y where X, Y are N, S, or O) that may be acid/base labile, releasing an aldehyde.

> <s_lp_Force_Field>
OPLS_2005

> <r_lp_Energy>
24.14

> <b_lp_Chiralities_Consistent>
1

> <s_lp_Variant>
AV-unprocessed.smi:68-1

> <Gold.Version>
5.8.1

> <Gold.Id.Protein>
6NUR|6NUR_protein|mol2

> <Gold.PLP.Fitness>
35.8340

> <Gold.PLP.PLP>
-29.5429

> <Gold.PLP.part.hbond>
-2.0000

> <Gold.PLP.part.metal>
0.0000

> <Gold.PLP.part.buried>
-2.7420

> <Gold.PLP.part.nonpolar>
-24.1298

> <Gold.PLP.part.repulsive>
0.2772

> <Gold.PLP.ligand.clash>
0.0000

> <Gold.PLP.ligand.torsion>
0.0038

> <Gold.PLP.Chemscore.Hbond>
1.0980

> <Gold.PLP.Chemscore.CHOScore>
1.0000

> <Gold.PLP.Chemscore.Metal>
0.0000

> <Gold.Chemscore.Hbonds>
donor molecule, donor type, donor heavy atom, donor atom, acceptor molecule, acceptor atom, score
      P1  H  7989  7998       L1     1  0.25
      P1  H  7997  8009       L1     5  0.85
      L1  C    12    23       P1  8028  1.00

> <Gold.PLP.Chemscore.Internal.Correction>
0.0047

> <Gold.Rescore>
     Score         DG    S(hbond)    S(metal)    S(lipo)     H(rot)  DE(clash)    DE(int)     intcor
     10.38     -11.46       0.91        0.00      46.92       1.00       0.04       1.04       ----

> <Gold.Chemscore.Fitness>
10.3806

> <Gold.Chemscore.DG>
-11.4599

> <Gold.Chemscore.ZeroCoef>
-5.4800

> <Gold.Chemscore.Hbond>
0.9133

> <Gold.Chemscore.Metal>
0.0000

> <Gold.Chemscore.Lipo>
46.9177

> <Gold.Chemscore.Internal_Hbond>
0.0000

> <Gold.Chemscore.DEClash>
0.0367

> <Gold.Chemscore.DEInternal>
1.0426

> <Gold.Chemscore.Rot>
1.0000

> <Gold.Chemscore.Internal.Correction>
   9.000000E+99

> <Gold.Chemscore.Hbonds>
donor molecule, donor type, donor heavy atom, donor atom, acceptor molecule, acceptor atom, score
      P1  H  7997  8009       L1     5  0.23

> <Gold.Chemscore.Hbond.Weighted>
-3.0506

> <Gold.Chemscore.Metal.Weighted>
-0.0000

> <Gold.Chemscore.Lipo.Weighted>
-5.4894

> <Gold.Chemscore.Internal_Hbond.Weighted>
0.0000

> <Gold.Chemscore.DEClash.Weighted>
0.0367

> <Gold.Chemscore.DEInternal.Weighted>
1.0426

> <Gold.Chemscore.Rot.Weighted>
2.5600

> <Gold.Chemscore.Internal.Correction.Weighted>
   9.000000E+99

> <Gold.Protein.RotatedTorsions>
[ 6907 6896 6895 6894 ] final -154.22 input  -60.11 | X-H torsion
[ 7974 7965 7964 7962 ] final -145.33 input  175.53 | X-H torsion
[ 8008 7997 7996 7995 ] final  150.85 input   59.86 | X-H torsion
[ 10167 10162 10161 10158 ] final   23.93 input  -65.29 | X-H torsion
[ 10718 10713 10712 10709 ] final  -80.70 input   66.30 | X-H torsion
[ 10763 10752 10751 10750 ] final -168.11 input  -60.55 | X-H torsion
[ 11005 11000 10999 10996 ] final -104.74 input  -57.11 | X-H torsion

> <Gold.Protein.ActiveResidues>
 VAL166  LYS551  ARG553  GLY616  TRP617  ASP618  TYR619  PRO620  LYS621  CYS622 
 ASP623  PHE694  ASN695  SER759  ASP760  ASP761  ALA762  ILE779  LEU786  VAL792 
 PHE793  MET794  SER795  GLU796  ALA797  LYS798  CYS799  TRP800  GLU811  SER814 

> <Gold.Protein.RotatedAtoms>
  151.2542  133.4334  159.2612 H   0  0  0  0  0  0  0  0  0  0  0  0  # atno 6907 bound_to 6896
  151.0590  134.9724  159.8260 H   0  0  0  0  0  0  0  0  0  0  0  0  # atno 6908 bound_to 6896
  152.5395  134.2493  159.8945 H   0  0  0  0  0  0  0  0  0  0  0  0  # atno 6909 bound_to 6896
  144.8235  140.5597  143.5563 H   0  0  0  0  0  0  0  0  0  0  0  0  # atno 7974 bound_to 7965
  156.2698  140.2063  156.6083 H   0  0  0  0  0  0  0  0  0  0  0  0  # atno 8008 bound_to 7997
  154.6852  140.0536  157.0331 H   0  0  0  0  0  0  0  0  0  0  0  0  # atno 8009 bound_to 7997
  155.0944  140.3200  155.4567 H   0  0  0  0  0  0  0  0  0  0  0  0  # atno 8010 bound_to 7997
  140.5229  143.9972  150.6426 H   0  0  0  0  0  0  0  0  0  0  0  0  # atno 10167 bound_to 10162
  156.0065  130.4582  150.3840 H   0  0  0  0  0  0  0  0  0  0  0  0  # atno 10718 bound_to 10713
  154.6662  135.2932  154.9802 H   0  0  0  0  0  0  0  0  0  0  0  0  # atno 10763 bound_to 10752
  154.0844  135.6600  153.4847 H   0  0  0  0  0  0  0  0  0  0  0  0  # atno 10764 bound_to 10752
  153.0459  135.5205  154.7637 H   0  0  0  0  0  0  0  0  0  0  0  0  # atno 10765 bound_to 10752
  141.1086  133.8749  157.1648 H   0  0  0  0  0  0  0  0  0  0  0  0  # atno 11005 bound_to 11000
  145.5053  139.1481  143.3635 LP  0  0  0  0  0  0  0  0  0  0  0  0  # atno 17320 bound_to 7965
  146.2540  140.5193  142.8881 LP  0  0  0  0  0  0  0  0  0  0  0  0  # atno 17321 bound_to 7965
  140.3326  143.3068  152.0672 LP  0  0  0  0  0  0  0  0  0  0  0  0  # atno 17342 bound_to 10162
  139.4929  144.6499  151.6699 LP  0  0  0  0  0  0  0  0  0  0  0  0  # atno 17343 bound_to 10162
  157.1918  131.0417  151.2696 LP  0  0  0  0  0  0  0  0  0  0  0  0  # atno 17370 bound_to 10713
  157.4054  130.7356  149.6799 LP  0  0  0  0  0  0  0  0  0  0  0  0  # atno 17371 bound_to 10713
  139.9968  135.0043  157.0101 LP  0  0  0  0  0  0  0  0  0  0  0  0  # atno 17394 bound_to 11000
  140.4835  134.1265  155.7221 LP  0  0  0  0  0  0  0  0  0  0  0  0  # atno 17395 bound_to 11000

$$$$
