AV-unprocessed.smi:1035|AV-procd|sdf|4515|dock10
  -GOLD-   22720 2523D 1   1.00000     0.00000
 Structure written by MMmdl.
 42 43  0  0  0  0  0  0  0  0  1 V2000
  155.7534  133.7257  162.7445 C   0  0  0  0  0  0  0  0  0  0  0  0
  154.7923  134.8993  162.6719 C   0  0  0  0  0  0  0  0  0  0  0  0
  154.1986  135.3937  163.7799 C   0  0  0  0  0  0  0  0  0  0  0  0
  153.2829  136.5058  163.7018 C   0  0  0  0  0  0  0  0  0  0  0  0
  153.0358  137.0394  162.4972 C   0  0  0  0  0  0  0  0  0  0  0  0
  153.6432  136.5453  161.3278 N   0  0  0  0  0  0  0  0  0  0  0  0
  153.2902  137.2099  160.0613 C   0  0  0  0  0  0  0  0  0  0  0  0
  153.9197  138.6016  159.9021 C   0  0  0  0  0  0  0  0  0  0  0  0
  154.6366  138.8699  158.9367 O   0  0  0  0  0  0  0  0  0  0  0  0
  153.6271  139.4883  160.8634 N   0  0  0  0  0  0  0  0  0  0  0  0
  154.1241  140.8582  160.9015 C   0  0  0  0  0  0  0  0  0  0  0  0
  153.1042  141.8092  161.5510 C   0  0  0  0  0  0  0  0  0  0  0  0
  152.6879  142.9653  160.6531 C   0  0  0  0  0  0  0  0  0  0  0  0
  151.9362  143.9873  161.1071 C   0  0  0  0  0  0  0  0  0  0  0  0
  151.5098  145.1745  160.2613 C   0  0  0  0  0  0  0  0  0  0  0  0
  152.2990  145.2692  158.9445 C   0  0  0  0  0  0  0  0  0  0  0  0
  152.4444  143.8919  158.2859 C   0  0  0  0  0  0  0  0  0  0  0  0
  153.1769  142.9032  159.2105 C   0  0  0  0  0  0  0  0  0  0  0  0
  154.5177  135.4916  161.3492 C   0  0  0  0  0  0  0  0  0  0  0  0
  155.0404  135.0688  160.3160 O   0  0  0  0  0  0  0  0  0  0  0  0
  155.8832  133.3798  163.7705 H   0  0  0  0  0  0  0  0  0  0  0  0
  156.7329  134.0098  162.3587 H   0  0  0  0  0  0  0  0  0  0  0  0
  155.3790  132.8898  162.1527 H   0  0  0  0  0  0  0  0  0  0  0  0
  154.4052  134.9529  164.7444 H   0  0  0  0  0  0  0  0  0  0  0  0
  152.8059  136.8948  164.5893 H   0  0  0  0  0  0  0  0  0  0  0  0
  152.3580  137.8681  162.3511 H   0  0  0  0  0  0  0  0  0  0  0  0
  153.5976  136.5988  159.2113 H   0  0  0  0  0  0  0  0  0  0  0  0
  152.2055  137.2955  159.9710 H   0  0  0  0  0  0  0  0  0  0  0  0
  153.0313  139.1940  161.6237 H   0  0  0  0  0  0  0  0  0  0  0  0
  155.0669  140.8841  161.4501 H   0  0  0  0  0  0  0  0  0  0  0  0
  154.3418  141.1936  159.8863 H   0  0  0  0  0  0  0  0  0  0  0  0
  152.2116  141.2517  161.8363 H   0  0  0  0  0  0  0  0  0  0  0  0
  153.5230  142.2035  162.4780 H   0  0  0  0  0  0  0  0  0  0  0  0
  151.5933  143.9888  162.1315 H   0  0  0  0  0  0  0  0  0  0  0  0
  150.4436  145.0753  160.0553 H   0  0  0  0  0  0  0  0  0  0  0  0
  151.6380  146.0915  160.8369 H   0  0  0  0  0  0  0  0  0  0  0  0
  151.8079  145.9663  158.2647 H   0  0  0  0  0  0  0  0  0  0  0  0
  153.2912  145.6772  159.1421 H   0  0  0  0  0  0  0  0  0  0  0  0
  151.4532  143.5025  158.0490 H   0  0  0  0  0  0  0  0  0  0  0  0
  152.9762  143.9784  157.3380 H   0  0  0  0  0  0  0  0  0  0  0  0
  154.2460  143.1180  159.2051 H   0  0  0  0  0  0  0  0  0  0  0  0
  153.0563  141.8896  158.8268 H   0  0  0  0  0  0  0  0  0  0  0  0
  1  2  1  0  0  0  0
  1 21  1  0  0  0  0
  1 22  1  0  0  0  0
  1 23  1  0  0  0  0
  2 19  1  0  0  0  0
  2  3  2  0  0  0  0
  3  4  1  0  0  0  0
  3 24  1  0  0  0  0
  4  5  2  0  0  0  0
  4 25  1  0  0  0  0
  5  6  1  0  0  0  0
  5 26  1  0  0  0  0
  6  7  1  0  0  0  0
  6 19  1  0  0  0  0
  7  8  1  0  0  0  0
  7 27  1  0  0  0  0
  7 28  1  0  0  0  0
  8  9  2  0  0  0  0
  8 10  1  0  0  0  0
 10 11  1  0  0  0  0
 10 29  1  0  0  0  0
 11 12  1  0  0  0  0
 11 30  1  0  0  0  0
 11 31  1  0  0  0  0
 12 13  1  0  0  0  0
 12 32  1  0  0  0  0
 12 33  1  0  0  0  0
 13 18  1  0  0  0  0
 13 14  2  0  0  0  0
 14 15  1  0  0  0  0
 14 34  1  0  0  0  0
 15 16  1  0  0  0  0
 15 35  1  0  0  0  0
 15 36  1  0  0  0  0
 16 17  1  0  0  0  0
 16 37  1  0  0  0  0
 16 38  1  0  0  0  0
 17 18  1  0  0  0  0
 17 39  1  0  0  0  0
 17 40  1  0  0  0  0
 18 41  1  0  0  0  0
 18 42  1  0  0  0  0
 19 20  2  0  0  0  0
M  END
> <s_m_source_file>
AV-unprocessed.smi

> <i_m_source_file_index>
1035

> <i_lp_mmshare_version>
43012

> <i_f3d_flags>
0

> <s_epik_input>
W0NIM11jMVtjSF1bY0hdW2NIXW4oYzE9TylbQ0gyXUMoPU8pW05IXVtDSDJdW0NIMl1DMj1bQ0hdW0NIMl1bQ0gyXVtDSDJdW0NIMl0y

> <s_epik_cmdline>
J2VwaWtfcHl0aG9uJywgJy1waCcsICc3LjAnLCAnLXRuJywgJzgnLCAnLW1hJywgJzIwMCcsICctbWV0YWxfYmluZGluZycsICctaW1hZScsICc8aW5maWxlLm1hZT4nLCAnLW9tYWUnLCAnPG91dGZpbGUubWFlPic=

> <r_lp_tautomer_probability>
1

> <r_epik_Ionization_Penalty>
7.80073e-07

> <r_epik_Ionization_Penalty_Charging>
7.6197e-07

> <r_epik_Ionization_Penalty_Neutral>
1.81035e-08

> <r_epik_State_Penalty>
-0

> <r_epik_Charging_Adjusted_Penalty>
7.6197e-07

> <i_epik_Tot_Q>
0

> <i_epik_Tot_abs_Q>
0

> <r_epik_Metal_State_Penalty>
-0

> <b_epik_Metal_Only>
0

> <s_lp_Force_Field>
OPLS_2005

> <r_lp_Energy>
17.5966

> <b_lp_Chiralities_Consistent>
1

> <s_lp_Variant>
AV-unprocessed.smi:1035-1

> <Gold.Version>
5.8.1

> <Gold.Id.Protein>
6NUR|6NUR_protein|mol2

> <Gold.PLP.Fitness>
51.2839

> <Gold.PLP.PLP>
-49.8270

> <Gold.PLP.part.hbond>
-1.0000

> <Gold.PLP.part.metal>
0.0000

> <Gold.PLP.part.buried>
-5.1460

> <Gold.PLP.part.nonpolar>
-43.4217

> <Gold.PLP.part.repulsive>
0.0278

> <Gold.PLP.ligand.clash>
0.0000

> <Gold.PLP.ligand.torsion>
0.7829

> <Gold.PLP.Chemscore.Hbond>
1.0000

> <Gold.PLP.Chemscore.CHOScore>
0.0000

> <Gold.PLP.Chemscore.Metal>
0.0000

> <Gold.Chemscore.Hbonds>
donor molecule, donor type, donor heavy atom, donor atom, acceptor molecule, acceptor atom, score
      P1  H  7997  8010       L1     9  1.00

> <Gold.PLP.Chemscore.Internal.Correction>
0.0227

> <Gold.Rescore>
     Score         DG    S(hbond)    S(metal)    S(lipo)     H(rot)  DE(clash)    DE(int)     intcor
     19.54     -20.65       0.98        0.00     137.46       1.63       0.12       1.00       ----

> <Gold.Chemscore.Fitness>
19.5366

> <Gold.Chemscore.DG>
-20.6545

> <Gold.Chemscore.ZeroCoef>
-5.4800

> <Gold.Chemscore.Hbond>
0.9784

> <Gold.Chemscore.Metal>
0.0000

> <Gold.Chemscore.Lipo>
137.4555

> <Gold.Chemscore.Internal_Hbond>
0.0000

> <Gold.Chemscore.DEClash>
0.1164

> <Gold.Chemscore.DEInternal>
1.0015

> <Gold.Chemscore.Rot>
1.6311

> <Gold.Chemscore.Internal.Correction>
   9.000000E+99

> <Gold.Chemscore.Hbonds>
donor molecule, donor type, donor heavy atom, donor atom, acceptor molecule, acceptor atom, score
      P1  H  7997  8010       L1     9  0.94

> <Gold.Chemscore.Hbond.Weighted>
-3.2680

> <Gold.Chemscore.Metal.Weighted>
-0.0000

> <Gold.Chemscore.Lipo.Weighted>
-16.0823

> <Gold.Chemscore.Internal_Hbond.Weighted>
0.0000

> <Gold.Chemscore.DEClash.Weighted>
0.1164

> <Gold.Chemscore.DEInternal.Weighted>
1.0015

> <Gold.Chemscore.Rot.Weighted>
4.1757

> <Gold.Chemscore.Internal.Correction.Weighted>
   9.000000E+99

> <Gold.Protein.RotatedTorsions>
[ 6907 6896 6895 6894 ] final   19.31 input  -60.11 | X-H torsion
[ 7974 7965 7964 7962 ] final   25.41 input  175.53 | X-H torsion
[ 8008 7997 7996 7995 ] final    2.75 input   59.86 | X-H torsion
[ 10167 10162 10161 10158 ] final  101.32 input  -65.29 | X-H torsion
[ 10718 10713 10712 10709 ] final   60.72 input   66.30 | X-H torsion
[ 10763 10752 10751 10750 ] final  -54.97 input  -60.55 | X-H torsion
[ 11005 11000 10999 10996 ] final  -40.50 input  -57.11 | X-H torsion

> <Gold.Protein.ActiveResidues>
 VAL166  LYS551  ARG553  GLY616  TRP617  ASP618  TYR619  PRO620  LYS621  CYS622 
 ASP623  PHE694  ASN695  SER759  ASP760  ASP761  ALA762  ILE779  LEU786  VAL792 
 PHE793  MET794  SER795  GLU796  ALA797  LYS798  CYS799  TRP800  GLU811  SER814 

> <Gold.Protein.RotatedAtoms>
  151.8788  135.0461  160.0486 H   0  0  0  0  0  0  0  0  0  0  0  0  # atno 6907 bound_to 6896
  152.2529  133.5226  159.5344 H   0  0  0  0  0  0  0  0  0  0  0  0  # atno 6908 bound_to 6896
  150.7090  134.0851  159.3954 H   0  0  0  0  0  0  0  0  0  0  0  0  # atno 6909 bound_to 6896
  146.1890  139.7470  142.8846 H   0  0  0  0  0  0  0  0  0  0  0  0  # atno 7974 bound_to 7965
  154.6953  140.2662  155.6772 H   0  0  0  0  0  0  0  0  0  0  0  0  # atno 8008 bound_to 7997
  156.2746  140.2783  156.1469 H   0  0  0  0  0  0  0  0  0  0  0  0  # atno 8009 bound_to 7997
  155.0840  140.0373  157.2638 H   0  0  0  0  0  0  0  0  0  0  0  0  # atno 8010 bound_to 7997
  139.7448  144.7001  151.0520 H   0  0  0  0  0  0  0  0  0  0  0  0  # atno 10167 bound_to 10162
  157.5774  130.8955  149.9371 H   0  0  0  0  0  0  0  0  0  0  0  0  # atno 10718 bound_to 10713
  154.1834  135.6439  153.5040 H   0  0  0  0  0  0  0  0  0  0  0  0  # atno 10763 bound_to 10752
  153.0053  135.5411  154.6491 H   0  0  0  0  0  0  0  0  0  0  0  0  # atno 10764 bound_to 10752
  154.5861  135.2929  155.0656 H   0  0  0  0  0  0  0  0  0  0  0  0  # atno 10765 bound_to 10752
  141.0179  133.6876  156.2330 H   0  0  0  0  0  0  0  0  0  0  0  0  # atno 11005 bound_to 11000
  145.3851  141.0364  143.3155 LP  0  0  0  0  0  0  0  0  0  0  0  0  # atno 17320 bound_to 7965
  144.8450  139.5411  143.6882 LP  0  0  0  0  0  0  0  0  0  0  0  0  # atno 17321 bound_to 7965
  140.7791  143.4880  150.9931 LP  0  0  0  0  0  0  0  0  0  0  0  0  # atno 17342 bound_to 10162
  139.8568  143.7367  152.3175 LP  0  0  0  0  0  0  0  0  0  0  0  0  # atno 17343 bound_to 10162
  156.0819  130.3672  150.0563 LP  0  0  0  0  0  0  0  0  0  0  0  0  # atno 17370 bound_to 10713
  156.8708  130.9523  151.3609 LP  0  0  0  0  0  0  0  0  0  0  0  0  # atno 17371 bound_to 10713
  140.6623  134.4955  157.5584 LP  0  0  0  0  0  0  0  0  0  0  0  0  # atno 17394 bound_to 11000
  139.9128  134.8309  156.1469 LP  0  0  0  0  0  0  0  0  0  0  0  0  # atno 17395 bound_to 11000

$$$$
