AV-unprocessed.smi:20|AV-procd|sdf|114|dock7
  -GOLD-   2262015283D 1   1.00000     0.00000
 Structure written by MMmdl.
 57 61  0  0  0  0  0  0  0  0  1 V2000
  149.7154  141.6914  156.7266 O   0  0  0  0  0  0  0  0  0  0  0  0
  150.4418  142.5578  157.2075 C   0  0  0  0  0  0  0  0  0  0  0  0
  150.4867  142.8968  158.6878 C   0  0  0  0  0  0  0  0  0  0  0  0
  151.7866  143.7247  158.8220 C   0  0  1  0  0  0  0  0  0  0  0  0
  151.6794  144.8686  159.8565 C   0  0  0  0  0  0  0  0  0  0  0  0
  151.6094  144.3257  161.2937 C   0  0  0  0  0  0  0  0  0  0  0  0
  152.7934  143.3930  161.5915 C   0  0  0  0  0  0  0  0  0  0  0  0
  152.8825  142.3415  160.5797 N   0  0  0  0  0  0  0  0  0  0  0  0
  153.6024  141.2284  160.8669 C   0  0  0  0  0  0  0  0  0  0  0  0
  154.6130  141.2897  161.7748 N   0  0  0  0  0  0  0  0  0  0  0  0
  155.3352  140.2007  162.0549 C   0  0  0  0  0  0  0  0  0  0  0  0
  155.2189  138.9699  161.5528 N   0  0  0  0  0  0  0  0  0  0  0  0
  154.2009  138.9005  160.6484 C   0  0  0  0  0  0  0  0  0  0  0  0
  153.3493  139.9697  160.2519 C   0  0  0  0  0  0  0  0  0  0  0  0
  152.4206  139.5140  159.3227 N   0  0  0  0  0  0  0  0  0  0  0  0
  152.7145  138.2516  159.1695 C   0  0  0  0  0  0  0  0  0  0  0  0
  153.7758  137.8029  159.9226 N   0  0  0  0  0  0  0  0  0  0  0  0
  154.3223  136.4582  159.9474 C   0  0  0  0  0  0  0  0  0  0  0  0
  155.3835  136.2145  158.8455 C   0  0  2  0  0  0  0  0  0  0  0  0
  154.8106  136.3881  157.4176 C   0  0  0  0  0  0  0  0  0  0  0  0
  155.7839  136.1078  156.4323 O   0  0  0  0  0  0  0  0  0  0  0  0
  156.1009  134.8538  159.0318 C   0  0  2  0  0  0  0  0  0  0  0  0
  155.1998  133.6378  158.9049 C   0  0  0  0  0  0  0  0  0  0  0  0
  156.0272  132.5513  159.5821 C   0  0  0  0  0  0  0  0  0  0  0  0
  156.7563  133.2110  160.6103 O   0  0  0  0  0  0  0  0  0  0  0  0
  156.6834  134.6220  160.4306 C   0  0  0  0  0  0  0  0  0  0  0  0
  152.9818  142.8126  159.1982 C   0  0  0  0  0  0  0  0  0  0  0  0
  151.9895  144.2703  157.3896 C   0  0  0  0  0  0  0  0  0  0  0  0
  151.2917  143.3298  156.5336 N   0  0  0  0  0  0  0  0  0  0  0  0
  149.6034  143.4868  158.9352 H   0  0  0  0  0  0  0  0  0  0  0  0
  150.4798  141.9978  159.3049 H   0  0  0  0  0  0  0  0  0  0  0  0
  152.5483  145.5221  159.7659 H   0  0  0  0  0  0  0  0  0  0  0  0
  150.8074  145.4905  159.6512 H   0  0  0  0  0  0  0  0  0  0  0  0
  151.5981  145.1513  162.0055 H   0  0  0  0  0  0  0  0  0  0  0  0
  150.6739  143.7832  161.4362 H   0  0  0  0  0  0  0  0  0  0  0  0
  153.7244  143.9611  161.6015 H   0  0  0  0  0  0  0  0  0  0  0  0
  152.6695  142.9559  162.5833 H   0  0  0  0  0  0  0  0  0  0  0  0
  156.1196  140.3353  162.7850 H   0  0  0  0  0  0  0  0  0  0  0  0
  152.1667  137.6108  158.4937 H   0  0  0  0  0  0  0  0  0  0  0  0
  154.7492  136.2959  160.9371 H   0  0  0  0  0  0  0  0  0  0  0  0
  153.5005  135.7482  159.8457 H   0  0  0  0  0  0  0  0  0  0  0  0
  156.1415  136.9903  158.9626 H   0  0  0  0  0  0  0  0  0  0  0  0
  153.9532  135.7340  157.2578 H   0  0  0  0  0  0  0  0  0  0  0  0
  154.4422  137.4024  157.2664 H   0  0  0  0  0  0  0  0  0  0  0  0
  156.5423  135.7363  156.8565 H   0  0  0  0  0  0  0  0  0  0  0  0
  156.9060  134.7606  158.3008 H   0  0  0  0  0  0  0  0  0  0  0  0
  154.2685  133.7933  159.4516 H   0  0  0  0  0  0  0  0  0  0  0  0
  154.9526  133.3883  157.8727 H   0  0  0  0  0  0  0  0  0  0  0  0
  155.4116  131.7454  159.9819 H   0  0  0  0  0  0  0  0  0  0  0  0
  156.7370  132.1183  158.8763 H   0  0  0  0  0  0  0  0  0  0  0  0
  157.6640  135.0819  160.5542 H   0  0  0  0  0  0  0  0  0  0  0  0
  156.0225  135.0279  161.1977 H   0  0  0  0  0  0  0  0  0  0  0  0
  153.0549  141.9841  158.4944 H   0  0  0  0  0  0  0  0  0  0  0  0
  153.9150  143.3698  159.1038 H   0  0  0  0  0  0  0  0  0  0  0  0
  151.5304  145.2524  157.2660 H   0  0  0  0  0  0  0  0  0  0  0  0
  153.0404  144.3562  157.1115 H   0  0  0  0  0  0  0  0  0  0  0  0
  151.4345  143.2852  155.5350 H   0  0  0  0  0  0  0  0  0  0  0  0
  1  2  2  0  0  0  0
  2 29  1  0  0  0  0
  2  3  1  0  0  0  0
  3  4  1  0  0  0  0
  3 30  1  0  0  0  0
  3 31  1  0  0  0  0
  4 27  1  0  0  0  0
  4  5  1  0  0  0  0
  4 28  1  0  0  0  0
  5  6  1  0  0  0  0
  5 32  1  0  0  0  0
  5 33  1  0  0  0  0
  6  7  1  0  0  0  0
  6 34  1  0  0  0  0
  6 35  1  0  0  0  0
  7  8  1  0  0  0  0
  7 36  1  0  0  0  0
  7 37  1  0  0  0  0
  8  9  1  0  0  0  0
  8 27  1  0  0  0  0
  9 14  1  0  0  0  0
  9 10  2  0  0  0  0
 10 11  1  0  0  0  0
 11 12  2  0  0  0  0
 11 38  1  0  0  0  0
 12 13  1  0  0  0  0
 13 17  1  0  0  0  0
 13 14  2  0  0  0  0
 14 15  1  0  0  0  0
 15 16  2  0  0  0  0
 16 17  1  0  0  0  0
 16 39  1  0  0  0  0
 17 18  1  0  0  0  0
 18 19  1  0  0  0  0
 18 40  1  0  0  0  0
 18 41  1  0  0  0  0
 19 20  1  0  0  0  0
 19 22  1  0  0  0  0
 19 42  1  0  0  0  0
 20 21  1  0  0  0  0
 20 43  1  0  0  0  0
 20 44  1  0  0  0  0
 21 45  1  0  0  0  0
 22 26  1  0  0  0  0
 22 23  1  0  0  0  0
 22 46  1  0  0  0  0
 23 24  1  0  0  0  0
 23 47  1  0  0  0  0
 23 48  1  0  0  0  0
 24 25  1  0  0  0  0
 24 49  1  0  0  0  0
 24 50  1  0  0  0  0
 25 26  1  0  0  0  0
 26 51  1  0  0  0  0
 26 52  1  0  0  0  0
 27 53  1  0  0  0  0
 27 54  1  0  0  0  0
 28 29  1  0  0  0  0
 28 55  1  0  0  0  0
 28 56  1  0  0  0  0
 29 57  1  0  0  0  0
M  END
> <s_m_source_file>
AV-unprocessed.smi

> <i_m_source_file_index>
20

> <i_lp_mmshare_version>
43012

> <i_f3d_flags>
0

> <s_epik_input>
W0NIMl0xW05IXUMoPU8pW0NIMl1bQ0BAXTEyW0NIMl1bQ0gyXVtDSDJdTihbQ0gyXTIpYyhuW2NIXW4zKWMoYzM0KW5bY0hdbjRbQ0gyXVtDQEhdKFtDSDJdW09IXSlbQ0BASF01W0NIMl1bQ0gyXU9bQ0gyXTU=

> <s_epik_cmdline>
J2VwaWtfcHl0aG9uJywgJy1waCcsICc3LjAnLCAnLXRuJywgJzgnLCAnLW1hJywgJzIwMCcsICctbWV0YWxfYmluZGluZycsICctaW1hZScsICc8aW5maWxlLm1hZT4nLCAnLW9tYWUnLCAnPG91dGZpbGUubWFlPic=

> <r_lp_tautomer_probability>
1

> <r_epik_Ionization_Penalty>
0.0019697

> <r_epik_Ionization_Penalty_Charging>
0

> <r_epik_Ionization_Penalty_Neutral>
0.0019697

> <r_epik_State_Penalty>
0.00113613

> <r_epik_Charging_Adjusted_Penalty>
0.00113613

> <i_epik_Tot_Q>
0

> <i_epik_Tot_abs_Q>
0

> <r_epik_Metal_State_Penalty>
-0

> <b_epik_Metal_Only>
0

> <s_lp_Force_Field>
OPLS_2005

> <r_lp_Energy>
58.2949

> <b_lp_Chiralities_Consistent>
1

> <s_lp_Variant>
AV-unprocessed.smi:20-2

> <Gold.Version>
5.8.1

> <Gold.Id.Protein>
6NUR|6NUR_protein|mol2

> <Gold.PLP.Fitness>
44.1299

> <Gold.PLP.PLP>
-42.1534

> <Gold.PLP.part.hbond>
-3.0000

> <Gold.PLP.part.metal>
0.0000

> <Gold.PLP.part.buried>
-3.4845

> <Gold.PLP.part.nonpolar>
-34.9693

> <Gold.PLP.part.repulsive>
0.1802

> <Gold.PLP.ligand.clash>
0.0000

> <Gold.PLP.ligand.torsion>
0.7959

> <Gold.PLP.Chemscore.Hbond>
1.0000

> <Gold.PLP.Chemscore.CHOScore>
0.0000

> <Gold.PLP.Chemscore.Metal>
0.0000

> <Gold.Chemscore.Hbonds>
donor molecule, donor type, donor heavy atom, donor atom, acceptor molecule, acceptor atom, score
      P1  H 10752 10764       L1    21  0.80

> <Gold.PLP.Chemscore.Internal.Correction>
0.5682

> <Gold.Rescore>
     Score         DG    S(hbond)    S(metal)    S(lipo)     H(rot)  DE(clash)    DE(int)     intcor
     12.34     -13.46       0.99        0.00      99.86       2.74       0.36       0.76       ----

> <Gold.Chemscore.Fitness>
12.3414

> <Gold.Chemscore.DG>
-13.4616

> <Gold.Chemscore.ZeroCoef>
-5.4800

> <Gold.Chemscore.Hbond>
0.9929

> <Gold.Chemscore.Metal>
0.0000

> <Gold.Chemscore.Lipo>
99.8576

> <Gold.Chemscore.Internal_Hbond>
0.0000

> <Gold.Chemscore.DEClash>
0.3594

> <Gold.Chemscore.DEInternal>
0.7607

> <Gold.Chemscore.Rot>
2.7415

> <Gold.Chemscore.Internal.Correction>
   9.000000E+99

> <Gold.Chemscore.Hbonds>
donor molecule, donor type, donor heavy atom, donor atom, acceptor molecule, acceptor atom, score
      P1  H 10752 10764       L1    21  0.12

> <Gold.Chemscore.Hbond.Weighted>
-3.3164

> <Gold.Chemscore.Metal.Weighted>
-0.0000

> <Gold.Chemscore.Lipo.Weighted>
-11.6833

> <Gold.Chemscore.Internal_Hbond.Weighted>
0.0000

> <Gold.Chemscore.DEClash.Weighted>
0.3594

> <Gold.Chemscore.DEInternal.Weighted>
0.7607

> <Gold.Chemscore.Rot.Weighted>
7.0182

> <Gold.Chemscore.Internal.Correction.Weighted>
   9.000000E+99

> <Gold.Protein.RotatedTorsions>
[ 6907 6896 6895 6894 ] final   15.93 input  -60.11 | X-H torsion
[ 7974 7965 7964 7962 ] final   85.41 input  175.53 | X-H torsion
[ 8008 7997 7996 7995 ] final  -88.35 input   59.86 | X-H torsion
[ 10167 10162 10161 10158 ] final    9.83 input  -65.29 | X-H torsion
[ 10718 10713 10712 10709 ] final   99.14 input   66.30 | X-H torsion
[ 10763 10752 10751 10750 ] final   60.44 input  -60.55 | X-H torsion
[ 11005 11000 10999 10996 ] final   79.76 input  -57.11 | X-H torsion

> <Gold.Protein.ActiveResidues>
 VAL166  LYS551  ARG553  GLY616  TRP617  ASP618  TYR619  PRO620  LYS621  CYS622 
 ASP623  PHE694  ASN695  SER759  ASP760  ASP761  ALA762  ILE779  LEU786  VAL792 
 PHE793  MET794  SER795  GLU796  ALA797  LYS798  CYS799  TRP800  GLU811  SER814 

> <Gold.Protein.RotatedAtoms>
  151.8259  135.0637  160.0430 H   0  0  0  0  0  0  0  0  0  0  0  0  # atno 6907 bound_to 6896
  152.2916  133.5562  159.5569 H   0  0  0  0  0  0  0  0  0  0  0  0  # atno 6908 bound_to 6896
  150.7232  134.0336  159.3784 H   0  0  0  0  0  0  0  0  0  0  0  0  # atno 6909 bound_to 6896
  145.5859  139.2331  143.2327 H   0  0  0  0  0  0  0  0  0  0  0  0  # atno 7974 bound_to 7965
  154.6738  140.0554  157.0193 H   0  0  0  0  0  0  0  0  0  0  0  0  # atno 8008 bound_to 7997
  155.1050  140.3232  155.4518 H   0  0  0  0  0  0  0  0  0  0  0  0  # atno 8009 bound_to 7997
  156.2668  140.2024  156.6176 H   0  0  0  0  0  0  0  0  0  0  0  0  # atno 8010 bound_to 7997
  140.6231  143.8161  150.7199 H   0  0  0  0  0  0  0  0  0  0  0  0  # atno 10167 bound_to 10162
  157.6882  131.0661  150.4903 H   0  0  0  0  0  0  0  0  0  0  0  0  # atno 10718 bound_to 10713
  152.9921  135.5536  154.5873 H   0  0  0  0  0  0  0  0  0  0  0  0  # atno 10763 bound_to 10752
  154.5242  135.2809  155.1238 H   0  0  0  0  0  0  0  0  0  0  0  0  # atno 10764 bound_to 10752
  154.2579  135.6386  153.5317 H   0  0  0  0  0  0  0  0  0  0  0  0  # atno 10765 bound_to 10752
  139.9160  134.7868  156.1821 H   0  0  0  0  0  0  0  0  0  0  0  0  # atno 11005 bound_to 11000
  146.1682  140.6685  142.9245 LP  0  0  0  0  0  0  0  0  0  0  0  0  # atno 17320 bound_to 7965
  144.7373  140.4844  143.6894 LP  0  0  0  0  0  0  0  0  0  0  0  0  # atno 17321 bound_to 7965
  140.1755  143.4158  152.1970 LP  0  0  0  0  0  0  0  0  0  0  0  0  # atno 17342 bound_to 10162
  139.5456  144.7295  151.4595 LP  0  0  0  0  0  0  0  0  0  0  0  0  # atno 17343 bound_to 10162
  156.5230  130.4166  149.6241 LP  0  0  0  0  0  0  0  0  0  0  0  0  # atno 17370 bound_to 10713
  156.3138  130.7243  151.2141 LP  0  0  0  0  0  0  0  0  0  0  0  0  # atno 17371 bound_to 10713
  141.0636  133.6830  156.2000 LP  0  0  0  0  0  0  0  0  0  0  0  0  # atno 17394 bound_to 11000
  140.6621  134.4956  157.5584 LP  0  0  0  0  0  0  0  0  0  0  0  0  # atno 17395 bound_to 11000

$$$$
