AV-unprocessed.smi:3330|AV-procd|sdf|12815|dock7
  -GOLD-   2272019183D 1   1.00000     0.00000
 Structure written by MMmdl.
 37 38  0  0  0  0  0  0  0  0  2 V2000
  147.2849  133.0446  152.7659 C   0  0  0  0  0  0  0  0  0  0  0  0
  146.5280  131.7466  153.1023 C   0  0  2  0  0  0  0  0  0  0  0  0
  147.3201  131.0437  154.1056 N   0  0  0  0  0  0  0  0  0  0  0  0
  146.8513  131.3338  155.4515 C   0  0  0  0  0  0  0  0  0  0  0  0
  147.8423  130.7654  156.4773 C   0  0  0  0  0  0  0  0  0  0  0  0
  149.0467  131.5965  156.5542 N   0  0  0  0  0  0  0  0  0  0  0  0
  149.8985  131.7789  155.5406 C   0  0  0  0  0  0  0  0  0  0  0  0
  149.8280  131.3187  154.4006 O   0  0  0  0  0  0  0  0  0  0  0  0
  151.0160  132.6651  156.0392 C   0  0  0  0  0  0  0  0  0  0  0  0
  150.6359  132.8968  157.4144 N   0  5  0  0  0  0  0  0  0  0  0  0
  149.4768  132.2406  157.6559 C   0  0  0  0  0  0  0  0  0  0  0  0
  148.8627  132.2007  158.7217 O   0  0  0  0  0  0  0  0  0  0  0  0
  146.3032  130.8251  151.8729 C   0  0  1  0  0  0  0  0  0  0  0  0
  145.7074  129.4545  152.2434 C   0  0  0  0  0  0  0  0  0  0  0  0
  145.4617  131.4656  150.8701 N   0  0  0  0  0  0  0  0  0  0  0  0
  145.7733  131.7951  149.5658 C   0  0  0  0  0  0  0  0  0  0  0  0
  144.6684  132.3796  149.0164 C   0  0  0  0  0  0  0  0  0  0  0  0
  143.7184  132.3661  150.0752 C   0  0  0  0  0  0  0  0  0  0  0  0
  144.1957  131.8211  151.1822 N   0  0  0  0  0  0  0  0  0  0  0  0
  146.7182  133.6777  152.0833 H   0  0  0  0  0  0  0  0  0  0  0  0
  148.2483  132.8335  152.3003 H   0  0  0  0  0  0  0  0  0  0  0  0
  147.4718  133.6338  153.6645 H   0  0  0  0  0  0  0  0  0  0  0  0
  145.5598  132.0326  153.5171 H   0  0  0  0  0  0  0  0  0  0  0  0
  147.2789  130.0490  153.9347 H   0  0  0  0  0  0  0  0  0  0  0  0
  146.7509  132.4125  155.5783 H   0  0  0  0  0  0  0  0  0  0  0  0
  145.8657  130.8939  155.6057 H   0  0  0  0  0  0  0  0  0  0  0  0
  147.3714  130.7060  157.4603 H   0  0  0  0  0  0  0  0  0  0  0  0
  148.1100  129.7402  156.2151 H   0  0  0  0  0  0  0  0  0  0  0  0
  151.9713  132.1492  155.9372 H   0  0  0  0  0  0  0  0  0  0  0  0
  151.0603  133.5778  155.4444 H   0  0  0  0  0  0  0  0  0  0  0  0
  147.2750  130.6420  151.4091 H   0  0  0  0  0  0  0  0  0  0  0  0
  146.3822  128.8848  152.8823 H   0  0  0  0  0  0  0  0  0  0  0  0
  145.5272  128.8531  151.3520 H   0  0  0  0  0  0  0  0  0  0  0  0
  144.7592  129.5601  152.7712 H   0  0  0  0  0  0  0  0  0  0  0  0
  146.7448  131.5864  149.1422 H   0  0  0  0  0  0  0  0  0  0  0  0
  144.5554  132.7594  148.0120 H   0  0  0  0  0  0  0  0  0  0  0  0
  142.7031  132.7341  150.0727 H   0  0  0  0  0  0  0  0  0  0  0  0
  1  2  1  0  0  0  0
  1 20  1  0  0  0  0
  1 21  1  0  0  0  0
  1 22  1  0  0  0  0
  2  3  1  0  0  0  0
  2 13  1  0  0  0  0
  2 23  1  0  0  0  0
  3  4  1  0  0  0  0
  3 24  1  0  0  0  0
  4  5  1  0  0  0  0
  4 25  1  0  0  0  0
  4 26  1  0  0  0  0
  5  6  1  0  0  0  0
  5 27  1  0  0  0  0
  5 28  1  0  0  0  0
  6 11  1  0  0  0  0
  6  7  1  0  0  0  0
  7  8  2  0  0  0  0
  7  9  1  0  0  0  0
  9 10  1  0  0  0  0
  9 29  1  0  0  0  0
  9 30  1  0  0  0  0
 10 11  1  0  0  0  0
 11 12  2  0  0  0  0
 13 14  1  0  0  0  0
 13 15  1  0  0  0  0
 13 31  1  0  0  0  0
 14 32  1  0  0  0  0
 14 33  1  0  0  0  0
 14 34  1  0  0  0  0
 15 19  1  0  0  0  0
 15 16  1  0  0  0  0
 16 17  2  0  0  0  0
 16 35  1  0  0  0  0
 17 18  1  0  0  0  0
 17 36  1  0  0  0  0
 18 19  2  0  0  0  0
 18 37  1  0  0  0  0
M  CHG  1  10  -1
M  END
> <s_m_source_file>
AV-unprocessed.smi

> <i_m_source_file_index>
3330

> <i_lp_mmshare_version>
43012

> <i_f3d_flags>
0

> <s_epik_input>
bjFbY0hdW2NIXVtjSF1uMVtDQEBIXShbQ0gzXSlbQ0BIXShbQ0gzXSlbTkhdW0NIMl1bQ0gyXU4yQyg9TylbQ0gyXVtOSF1DMj1P

> <s_epik_cmdline>
J2VwaWtfcHl0aG9uJywgJy1waCcsICc3LjAnLCAnLXRuJywgJzgnLCAnLW1hJywgJzIwMCcsICctbWV0YWxfYmluZGluZycsICctaW1hZScsICc8aW5maWxlLm1hZT4nLCAnLW9tYWUnLCAnPG91dGZpbGUubWFlPic=

> <r_lp_tautomer_probability>
1

> <r_epik_Ionization_Penalty>
8.77477

> <r_epik_Ionization_Penalty_Charging>
6.28461

> <r_epik_Ionization_Penalty_Neutral>
2.49016

> <r_epik_State_Penalty>
8.73376

> <r_epik_Charging_Adjusted_Penalty>
15.0184

> <i_epik_Tot_Q>
-1

> <i_epik_Tot_abs_Q>
1

> <r_epik_Metal_State_Penalty>
4.73175

> <b_epik_Metal_Only>
1

> <s_lp_Force_Field>
OPLS_2005

> <r_lp_Energy>
21.2445

> <b_lp_Chiralities_Consistent>
1

> <s_lp_Variant>
AV-unprocessed.smi:3330-15

> <Gold.Version>
5.8.1

> <Gold.Id.Protein>
6NUR|6NUR_protein|mol2

> <Gold.PLP.Fitness>
38.9271

> <Gold.PLP.PLP>
-28.0825

> <Gold.PLP.part.hbond>
-1.0000

> <Gold.PLP.part.metal>
0.0000

> <Gold.PLP.part.buried>
-3.2850

> <Gold.PLP.part.nonpolar>
-23.8110

> <Gold.PLP.part.repulsive>
0.2045

> <Gold.PLP.ligand.clash>
0.0000

> <Gold.PLP.ligand.torsion>
0.6511

> <Gold.PLP.Chemscore.Hbond>
2.0000

> <Gold.PLP.Chemscore.CHOScore>
2.0000

> <Gold.PLP.Chemscore.Metal>
0.0000

> <Gold.Chemscore.Hbonds>
donor molecule, donor type, donor heavy atom, donor atom, acceptor molecule, acceptor atom, score
      P1  H  6896  6907       L1    10  2.00
      L1  C    16    35       P1 10747  0.88
      L1  C    18    37       P1 10186  1.00

> <Gold.PLP.Chemscore.Internal.Correction>
0.1468

> <Gold.Rescore>
     Score         DG    S(hbond)    S(metal)    S(lipo)     H(rot)  DE(clash)    DE(int)     intcor
      7.94     -11.01       0.98        0.00      74.32       2.52       0.84       2.23       ----

> <Gold.Chemscore.Fitness>
7.9367

> <Gold.Chemscore.DG>
-11.0054

> <Gold.Chemscore.ZeroCoef>
-5.4800

> <Gold.Chemscore.Hbond>
0.9792

> <Gold.Chemscore.Metal>
0.0000

> <Gold.Chemscore.Lipo>
74.3248

> <Gold.Chemscore.Internal_Hbond>
0.0000

> <Gold.Chemscore.DEClash>
0.8359

> <Gold.Chemscore.DEInternal>
2.2328

> <Gold.Chemscore.Rot>
2.5160

> <Gold.Chemscore.Internal.Correction>
   9.000000E+99

> <Gold.Chemscore.Hbonds>
donor molecule, donor type, donor heavy atom, donor atom, acceptor molecule, acceptor atom, score
      P1  H  6896  6907       L1    10  0.42

> <Gold.Chemscore.Hbond.Weighted>
-3.2705

> <Gold.Chemscore.Metal.Weighted>
-0.0000

> <Gold.Chemscore.Lipo.Weighted>
-8.6960

> <Gold.Chemscore.Internal_Hbond.Weighted>
0.0000

> <Gold.Chemscore.DEClash.Weighted>
0.8359

> <Gold.Chemscore.DEInternal.Weighted>
2.2328

> <Gold.Chemscore.Rot.Weighted>
6.4410

> <Gold.Chemscore.Internal.Correction.Weighted>
   9.000000E+99

> <Gold.Protein.RotatedTorsions>
[ 6907 6896 6895 6894 ] final -157.67 input  -60.11 | X-H torsion
[ 7974 7965 7964 7962 ] final  -99.47 input  175.53 | X-H torsion
[ 8008 7997 7996 7995 ] final -171.69 input   59.86 | X-H torsion
[ 10167 10162 10161 10158 ] final  133.22 input  -65.29 | X-H torsion
[ 10718 10713 10712 10709 ] final -159.99 input   66.30 | X-H torsion
[ 10763 10752 10751 10750 ] final  -77.58 input  -60.55 | X-H torsion
[ 11005 11000 10999 10996 ] final -115.07 input  -57.11 | X-H torsion

> <Gold.Protein.ActiveResidues>
 VAL166  LYS551  ARG553  GLY616  TRP617  ASP618  TYR619  PRO620  LYS621  CYS622 
 ASP623  PHE694  ASN695  SER759  ASP760  ASP761  ALA762  ILE779  LEU786  VAL792 
 PHE793  MET794  SER795  GLU796  ALA797  LYS798  CYS799  TRP800  GLU811  SER814 

> <Gold.Protein.RotatedAtoms>
  151.3063  133.4100  159.2643 H   0  0  0  0  0  0  0  0  0  0  0  0  # atno 6907 bound_to 6896
  151.0152  134.9428  159.8039 H   0  0  0  0  0  0  0  0  0  0  0  0  # atno 6908 bound_to 6896
  152.5311  134.3027  159.9137 H   0  0  0  0  0  0  0  0  0  0  0  0  # atno 6909 bound_to 6896
  145.3071  140.9391  143.2790 H   0  0  0  0  0  0  0  0  0  0  0  0  # atno 7974 bound_to 7965
  155.9349  140.1098  157.1103 H   0  0  0  0  0  0  0  0  0  0  0  0  # atno 8008 bound_to 7997
  154.4078  140.1230  156.4916 H   0  0  0  0  0  0  0  0  0  0  0  0  # atno 8009 bound_to 7997
  155.7034  140.3471  155.4945 H   0  0  0  0  0  0  0  0  0  0  0  0  # atno 8010 bound_to 7997
  139.5306  144.6626  151.4965 H   0  0  0  0  0  0  0  0  0  0  0  0  # atno 10167 bound_to 10162
  156.5759  130.8708  151.2851 H   0  0  0  0  0  0  0  0  0  0  0  0  # atno 10718 bound_to 10713
  154.5148  135.5759  153.6633 H   0  0  0  0  0  0  0  0  0  0  0  0  # atno 10763 bound_to 10752
  152.9904  135.6167  154.2832 H   0  0  0  0  0  0  0  0  0  0  0  0  # atno 10764 bound_to 10752
  154.2749  135.2852  155.2702 H   0  0  0  0  0  0  0  0  0  0  0  0  # atno 10765 bound_to 10752
  141.0511  133.9685  157.2834 H   0  0  0  0  0  0  0  0  0  0  0  0  # atno 11005 bound_to 11000
  144.9046  139.4606  143.6616 LP  0  0  0  0  0  0  0  0  0  0  0  0  # atno 17320 bound_to 7965
  146.3131  139.7819  142.9004 LP  0  0  0  0  0  0  0  0  0  0  0  0  # atno 17321 bound_to 7965
  140.6481  143.8752  150.6758 LP  0  0  0  0  0  0  0  0  0  0  0  0  # atno 17342 bound_to 10162
  140.2108  143.3885  152.1719 LP  0  0  0  0  0  0  0  0  0  0  0  0  # atno 17343 bound_to 10162
  157.7338  130.9735  150.1994 LP  0  0  0  0  0  0  0  0  0  0  0  0  # atno 17370 bound_to 10713
  156.2674  130.3718  149.8067 LP  0  0  0  0  0  0  0  0  0  0  0  0  # atno 17371 bound_to 10713
  139.9351  135.0197  156.8530 LP  0  0  0  0  0  0  0  0  0  0  0  0  # atno 17394 bound_to 11000
  140.6053  134.0133  155.7554 LP  0  0  0  0  0  0  0  0  0  0  0  0  # atno 17395 bound_to 11000

$$$$
