AV-unprocessed.smi:723|AV-procd|sdf|3506|dock4
  -GOLD-   22720 0503D 1   1.00000     0.00000
 Structure written by MMmdl.
 42 44  0  0  0  0  0  0  0  0  1 V2000
  152.4408  142.6199  159.4263 C   0  0  0  0  0  0  0  0  0  0  0  0
  151.6728  142.8293  158.2541 O   0  0  0  0  0  0  0  0  0  0  0  0
  151.4246  141.6255  157.5480 C   0  0  0  0  0  0  0  0  0  0  0  0
  150.6539  141.9490  156.2616 C   0  0  0  0  0  0  0  0  0  0  0  0
  150.3525  140.7513  155.5017 N   0  0  0  0  0  0  0  0  0  0  0  0
  149.1130  140.2406  155.1699 C   0  0  0  0  0  0  0  0  0  0  0  0
  149.3619  139.1016  154.4573 C   0  0  0  0  0  0  0  0  0  0  0  0
  148.4488  138.1854  153.8770 N   0  0  0  0  0  0  0  0  0  0  0  0
  147.1101  138.1870  153.9861 C   0  0  0  0  0  0  0  0  0  0  0  0
  146.4530  139.0121  154.6214 O   0  0  0  0  0  0  0  0  0  0  0  0
  146.5694  137.1652  153.3099 N   0  0  0  0  0  0  0  0  0  0  0  0
  145.1736  136.8726  153.2176 C   0  0  2  0  0  0  0  0  0  0  0  0
  144.7175  135.4246  153.2625 C   0  0  2  0  0  0  0  0  0  0  0  0
  145.6590  134.2295  153.2641 C   0  0  0  0  0  0  0  0  0  0  0  0
  145.4409  133.3490  152.0178 C   0  0  0  0  0  0  0  0  0  0  0  0
  145.3478  134.1380  150.6862 C   0  0  0  0  0  0  0  0  0  0  0  0
  145.5174  135.6620  150.8409 C   0  0  0  0  0  0  0  0  0  0  0  0
  144.6434  136.1934  151.9668 C   0  0  2  0  0  0  0  0  0  0  0  0
  150.7748  138.9831  154.3976 C   0  0  0  0  0  0  0  0  0  0  0  0
  151.3669  139.9848  155.0298 N   0  0  0  0  0  0  0  0  0  0  0  0
  152.5975  143.5698  159.9370 H   0  0  0  0  0  0  0  0  0  0  0  0
  153.4191  142.2005  159.1872 H   0  0  0  0  0  0  0  0  0  0  0  0
  151.9306  141.9471  160.1171 H   0  0  0  0  0  0  0  0  0  0  0  0
  152.3682  141.1322  157.3087 H   0  0  0  0  0  0  0  0  0  0  0  0
  150.8432  140.9427  158.1699 H   0  0  0  0  0  0  0  0  0  0  0  0
  149.7168  142.4534  156.5005 H   0  0  0  0  0  0  0  0  0  0  0  0
  151.2293  142.6295  155.6322 H   0  0  0  0  0  0  0  0  0  0  0  0
  148.1945  140.7244  155.4679 H   0  0  0  0  0  0  0  0  0  0  0  0
  148.8587  137.4506  153.3193 H   0  0  0  0  0  0  0  0  0  0  0  0
  147.1924  136.5410  152.8189 H   0  0  0  0  0  0  0  0  0  0  0  0
  144.4959  137.5910  153.6768 H   0  0  0  0  0  0  0  0  0  0  0  0
  143.7579  135.2283  153.7375 H   0  0  0  0  0  0  0  0  0  0  0  0
  146.6939  134.5697  153.2838 H   0  0  0  0  0  0  0  0  0  0  0  0
  145.5092  133.6520  154.1767 H   0  0  0  0  0  0  0  0  0  0  0  0
  146.2393  132.6090  151.9543 H   0  0  0  0  0  0  0  0  0  0  0  0
  144.5207  132.7784  152.1488 H   0  0  0  0  0  0  0  0  0  0  0  0
  146.0854  133.7594  149.9781 H   0  0  0  0  0  0  0  0  0  0  0  0
  144.3755  133.9404  150.2332 H   0  0  0  0  0  0  0  0  0  0  0  0
  146.5646  135.8880  151.0404 H   0  0  0  0  0  0  0  0  0  0  0  0
  145.2633  136.1751  149.9129 H   0  0  0  0  0  0  0  0  0  0  0  0
  143.6379  136.4649  151.6505 H   0  0  0  0  0  0  0  0  0  0  0  0
  151.3780  138.2210  153.9263 H   0  0  0  0  0  0  0  0  0  0  0  0
  1  2  1  0  0  0  0
  1 21  1  0  0  0  0
  1 22  1  0  0  0  0
  1 23  1  0  0  0  0
  2  3  1  0  0  0  0
  3  4  1  0  0  0  0
  3 24  1  0  0  0  0
  3 25  1  0  0  0  0
  4  5  1  0  0  0  0
  4 26  1  0  0  0  0
  4 27  1  0  0  0  0
  5 20  1  0  0  0  0
  5  6  1  0  0  0  0
  6  7  2  0  0  0  0
  6 28  1  0  0  0  0
  7  8  1  0  0  0  0
  7 19  1  0  0  0  0
  8  9  1  0  0  0  0
  8 29  1  0  0  0  0
  9 10  2  0  0  0  0
  9 11  1  0  0  0  0
 11 12  1  0  0  0  0
 11 30  1  0  0  0  0
 12 18  1  0  0  0  0
 12 13  1  0  0  0  0
 12 31  1  0  0  0  0
 13 18  1  0  0  0  0
 13 14  1  0  0  0  0
 13 32  1  0  0  0  0
 14 15  1  0  0  0  0
 14 33  1  0  0  0  0
 14 34  1  0  0  0  0
 15 16  1  0  0  0  0
 15 35  1  0  0  0  0
 15 36  1  0  0  0  0
 16 17  1  0  0  0  0
 16 37  1  0  0  0  0
 16 38  1  0  0  0  0
 17 18  1  0  0  0  0
 17 39  1  0  0  0  0
 17 40  1  0  0  0  0
 18 41  1  0  0  0  0
 19 20  2  0  0  0  0
 19 42  1  0  0  0  0
M  END
> <s_m_source_file>
AV-unprocessed.smi

> <i_m_source_file_index>
723

> <i_lp_mmshare_version>
43012

> <i_f3d_flags>
0

> <s_epik_input>
W0NIM11PW0NIMl1bQ0gyXW4xW2NIXWMoW2NIXW4xKVtOSF1DKD1PKVtOSF1bQ0BIXTJbQ0BASF0oW0NAQEhdMjMpW0NIMl1bQ0gyXVtDSDJdW0NIMl0z

> <s_epik_cmdline>
J2VwaWtfcHl0aG9uJywgJy1waCcsICc3LjAnLCAnLXRuJywgJzgnLCAnLW1hJywgJzIwMCcsICctbWV0YWxfYmluZGluZycsICctaW1hZScsICc8aW5maWxlLm1hZT4nLCAnLW9tYWUnLCAnPG91dGZpbGUubWFlPic=

> <r_lp_tautomer_probability>
1

> <r_epik_Ionization_Penalty>
0.00031755

> <r_epik_Ionization_Penalty_Charging>
0

> <r_epik_Ionization_Penalty_Neutral>
0.00031755

> <r_epik_State_Penalty>
-0

> <r_epik_Charging_Adjusted_Penalty>
0

> <i_epik_Tot_Q>
0

> <i_epik_Tot_abs_Q>
0

> <r_epik_Metal_State_Penalty>
-0

> <b_epik_Metal_Only>
0

> <s_lp_Force_Field>
OPLS_2005

> <r_lp_Energy>
44.2387

> <b_lp_Chiralities_Consistent>
1

> <s_lp_Variant>
AV-unprocessed.smi:723-2

> <Gold.Version>
5.8.1

> <Gold.Id.Protein>
6NUR|6NUR_protein|mol2

> <Gold.PLP.Fitness>
40.4882

> <Gold.PLP.PLP>
-33.4849

> <Gold.PLP.part.hbond>
-3.0000

> <Gold.PLP.part.metal>
0.0000

> <Gold.PLP.part.buried>
-5.1968

> <Gold.PLP.part.nonpolar>
-25.5637

> <Gold.PLP.part.repulsive>
0.1885

> <Gold.PLP.ligand.clash>
0.0000

> <Gold.PLP.ligand.torsion>
0.3466

> <Gold.PLP.Chemscore.Hbond>
2.5445

> <Gold.PLP.Chemscore.CHOScore>
0.0000

> <Gold.PLP.Chemscore.Metal>
0.0000

> <Gold.Chemscore.Hbonds>
donor molecule, donor type, donor heavy atom, donor atom, acceptor molecule, acceptor atom, score
      L1  H     8    29       P1  7948  1.00
      L1  H    11    30       P1  7948  0.99
      P1  H  7989  7998       L1    20  0.54

> <Gold.PLP.Chemscore.Internal.Correction>
0.0629

> <Gold.Rescore>
     Score         DG    S(hbond)    S(metal)    S(lipo)     H(rot)  DE(clash)    DE(int)     intcor
     15.53     -17.01       1.94        0.00      77.41       1.56       0.03       1.44       ----

> <Gold.Chemscore.Fitness>
15.5301

> <Gold.Chemscore.DG>
-17.0053

> <Gold.Chemscore.ZeroCoef>
-5.4800

> <Gold.Chemscore.Hbond>
1.9368

> <Gold.Chemscore.Metal>
0.0000

> <Gold.Chemscore.Lipo>
77.4103

> <Gold.Chemscore.Internal_Hbond>
0.0000

> <Gold.Chemscore.DEClash>
0.0339

> <Gold.Chemscore.DEInternal>
1.4413

> <Gold.Chemscore.Rot>
1.5627

> <Gold.Chemscore.Internal.Correction>
   9.000000E+99

> <Gold.Chemscore.Hbonds>
donor molecule, donor type, donor heavy atom, donor atom, acceptor molecule, acceptor atom, score
      L1  H     8    29       P1  7948  0.98
      L1  H    11    30       P1  7948  0.88
      P1  H  7989  7998       L1    20  0.01

> <Gold.Chemscore.Hbond.Weighted>
-6.4688

> <Gold.Chemscore.Metal.Weighted>
-0.0000

> <Gold.Chemscore.Lipo.Weighted>
-9.0570

> <Gold.Chemscore.Internal_Hbond.Weighted>
0.0000

> <Gold.Chemscore.DEClash.Weighted>
0.0339

> <Gold.Chemscore.DEInternal.Weighted>
1.4413

> <Gold.Chemscore.Rot.Weighted>
4.0005

> <Gold.Chemscore.Internal.Correction.Weighted>
   9.000000E+99

> <Gold.Protein.RotatedTorsions>
[ 6907 6896 6895 6894 ] final  -95.58 input  -60.11 | X-H torsion
[ 7974 7965 7964 7962 ] final -131.28 input  175.53 | X-H torsion
[ 8008 7997 7996 7995 ] final  119.96 input   59.86 | X-H torsion
[ 10167 10162 10161 10158 ] final -131.49 input  -65.29 | X-H torsion
[ 10718 10713 10712 10709 ] final   61.76 input   66.30 | X-H torsion
[ 10763 10752 10751 10750 ] final  -62.62 input  -60.55 | X-H torsion
[ 11005 11000 10999 10996 ] final -103.08 input  -57.11 | X-H torsion

> <Gold.Protein.ActiveResidues>
 VAL166  LYS551  ARG553  GLY616  TRP617  ASP618  TYR619  PRO620  LYS621  CYS622 
 ASP623  PHE694  ASN695  SER759  ASP760  ASP761  ALA762  ILE779  LEU786  VAL792 
 PHE793  MET794  SER795  GLU796  ALA797  LYS798  CYS799  TRP800  GLU811  SER814 

> <Gold.Protein.RotatedAtoms>
  150.6967  134.1635  159.4184 H   0  0  0  0  0  0  0  0  0  0  0  0  # atno 6907 bound_to 6896
  151.9615  135.0119  160.0557 H   0  0  0  0  0  0  0  0  0  0  0  0  # atno 6908 bound_to 6896
  152.1923  133.4746  159.5051 H   0  0  0  0  0  0  0  0  0  0  0  0  # atno 6909 bound_to 6896
  144.9394  140.7221  143.4856 H   0  0  0  0  0  0  0  0  0  0  0  0  # atno 7974 bound_to 7965
  156.2620  140.2841  156.1074 H   0  0  0  0  0  0  0  0  0  0  0  0  # atno 8008 bound_to 7997
  155.1294  140.0393  157.2788 H   0  0  0  0  0  0  0  0  0  0  0  0  # atno 8009 bound_to 7997
  154.6611  140.2566  155.7114 H   0  0  0  0  0  0  0  0  0  0  0  0  # atno 8010 bound_to 7997
  139.9183  143.6412  152.2559 H   0  0  0  0  0  0  0  0  0  0  0  0  # atno 10167 bound_to 10162
  157.5851  130.9012  149.9502 H   0  0  0  0  0  0  0  0  0  0  0  0  # atno 10718 bound_to 10713
  154.3026  135.6231  153.5431 H   0  0  0  0  0  0  0  0  0  0  0  0  # atno 10763 bound_to 10752
  152.9838  135.5682  154.5267 H   0  0  0  0  0  0  0  0  0  0  0  0  # atno 10764 bound_to 10752
  154.4900  135.2867  155.1480 H   0  0  0  0  0  0  0  0  0  0  0  0  # atno 10765 bound_to 10752
  141.1161  133.8611  157.1441 H   0  0  0  0  0  0  0  0  0  0  0  0  # atno 11005 bound_to 11000
  145.3015  139.1849  143.4687 LP  0  0  0  0  0  0  0  0  0  0  0  0  # atno 17320 bound_to 7965
  146.3279  140.3007  142.8620 LP  0  0  0  0  0  0  0  0  0  0  0  0  # atno 17321 bound_to 7965
  139.6883  144.7649  151.1484 LP  0  0  0  0  0  0  0  0  0  0  0  0  # atno 17342 bound_to 10162
  140.7668  143.5625  150.9083 LP  0  0  0  0  0  0  0  0  0  0  0  0  # atno 17343 bound_to 10162
  156.0900  130.3664  150.0413 LP  0  0  0  0  0  0  0  0  0  0  0  0  # atno 17370 bound_to 10713
  156.8546  130.9470  151.3623 LP  0  0  0  0  0  0  0  0  0  0  0  0  # atno 17371 bound_to 10713
  140.0085  134.9998  157.0344 LP  0  0  0  0  0  0  0  0  0  0  0  0  # atno 17394 bound_to 11000
  140.4640  134.1454  155.7195 LP  0  0  0  0  0  0  0  0  0  0  0  0  # atno 17395 bound_to 11000

$$$$
