AV-unprocessed.smi:148|AV-procd|sdf|1231|dock1
  -GOLD-   2262018433D 1   1.00000     0.00000
 Structure written by MMmdl.
 63 67  0  0  0  0  0  0  0  0  1 V2000
  147.3408  132.1198  159.5903 O   0  0  0  0  0  0  0  0  0  0  0  0
  146.8719  132.4960  160.8692 C   0  0  0  0  0  0  0  0  0  0  0  0
  147.1178  134.0036  161.1432 C   0  0  1  0  0  0  0  0  0  0  0  0
  146.6381  134.8894  159.9608 C   0  0  0  0  0  0  0  0  0  0  0  0
  147.5836  135.9268  159.5884 N   0  0  0  0  0  0  0  0  0  0  0  0
  148.4253  136.6177  160.4299 C   0  0  0  0  0  0  0  0  0  0  0  0
  149.1830  137.5070  159.8485 N   0  0  0  0  0  0  0  0  0  0  0  0
  148.8378  137.4225  158.5045 C   0  0  0  0  0  0  0  0  0  0  0  0
  149.2527  138.1001  157.3220 C   0  0  0  0  0  0  0  0  0  0  0  0
  150.1816  139.0837  157.2714 N   0  0  0  0  0  0  0  0  0  0  0  0
  151.1356  138.9032  158.3672 C   0  0  0  0  0  0  0  0  0  0  0  0
  152.3496  139.8300  158.2219 C   0  0  0  0  0  0  0  0  0  0  0  0
  151.8947  141.2863  158.0872 C   0  0  0  0  0  0  0  0  0  0  0  0
  150.9244  141.4147  156.9066 C   0  0  0  0  0  0  0  0  0  0  0  0
  149.7072  140.4654  157.0614 C   0  0  1  0  0  0  0  0  0  0  0  0
  148.6696  140.6065  155.8998 C   0  0  1  0  0  0  0  0  0  0  0  0
  147.5515  141.6329  156.1647 C   0  0  0  0  0  0  0  0  0  0  0  0
  147.1223  142.1781  154.7928 C   0  0  0  0  0  0  0  0  0  0  0  0
  147.9574  141.4269  153.7521 C   0  0  0  0  0  0  0  0  0  0  0  0
  149.2095  140.9879  154.5105 C   0  0  2  0  0  0  0  0  0  0  0  0
  149.8411  139.9093  153.8540 O   0  0  0  0  0  0  0  0  0  0  0  0
  148.6952  137.7214  156.1452 N   0  0  0  0  0  0  0  0  0  0  0  0
  147.7686  136.7587  156.1222 C   0  0  0  0  0  0  0  0  0  0  0  0
  147.2712  136.0541  157.1407 N   0  0  0  0  0  0  0  0  0  0  0  0
  147.8419  136.4223  158.3232 C   0  0  0  0  0  0  0  0  0  0  0  0
  146.5228  134.4781  162.5054 C   0  0  1  0  0  0  0  0  0  0  0  0
  146.9560  135.8744  162.9413 C   0  0  0  0  0  0  0  0  0  0  0  0
  145.9862  136.7973  162.2032 C   0  0  0  0  0  0  0  0  0  0  0  0
  144.8326  136.0094  161.9291 O   0  0  0  0  0  0  0  0  0  0  0  0
  145.0055  134.7132  162.4857 C   0  0  0  0  0  0  0  0  0  0  0  0
  148.1435  131.6320  159.6971 H   0  0  0  0  0  0  0  0  0  0  0  0
  145.8176  132.2388  160.9455 H   0  0  0  0  0  0  0  0  0  0  0  0
  147.3645  131.8734  161.6160 H   0  0  0  0  0  0  0  0  0  0  0  0
  148.2002  134.1253  161.2027 H   0  0  0  0  0  0  0  0  0  0  0  0
  146.4455  134.2697  159.0841 H   0  0  0  0  0  0  0  0  0  0  0  0
  145.7010  135.3899  160.1980 H   0  0  0  0  0  0  0  0  0  0  0  0
  148.4547  136.4453  161.4960 H   0  0  0  0  0  0  0  0  0  0  0  0
  150.6326  139.1023  159.3149 H   0  0  0  0  0  0  0  0  0  0  0  0
  151.4780  137.8675  158.4029 H   0  0  0  0  0  0  0  0  0  0  0  0
  153.0097  139.7197  159.0826 H   0  0  0  0  0  0  0  0  0  0  0  0
  152.9295  139.5414  157.3442 H   0  0  0  0  0  0  0  0  0  0  0  0
  151.4072  141.6119  159.0068 H   0  0  0  0  0  0  0  0  0  0  0  0
  152.7570  141.9371  157.9397 H   0  0  0  0  0  0  0  0  0  0  0  0
  150.6077  142.4529  156.8226 H   0  0  0  0  0  0  0  0  0  0  0  0
  151.4729  141.1841  155.9937 H   0  0  0  0  0  0  0  0  0  0  0  0
  149.1996  140.7621  157.9792 H   0  0  0  0  0  0  0  0  0  0  0  0
  148.1368  139.6633  155.7772 H   0  0  0  0  0  0  0  0  0  0  0  0
  146.7158  141.1659  156.6873 H   0  0  0  0  0  0  0  0  0  0  0  0
  147.8878  142.4584  156.7901 H   0  0  0  0  0  0  0  0  0  0  0  0
  146.0537  142.0519  154.6163 H   0  0  0  0  0  0  0  0  0  0  0  0
  147.3372  143.2461  154.7402 H   0  0  0  0  0  0  0  0  0  0  0  0
  147.4019  140.5522  153.4095 H   0  0  0  0  0  0  0  0  0  0  0  0
  148.1869  142.0361  152.8773 H   0  0  0  0  0  0  0  0  0  0  0  0
  149.8961  141.8314  154.5661 H   0  0  0  0  0  0  0  0  0  0  0  0
  149.4679  139.8237  152.9894 H   0  0  0  0  0  0  0  0  0  0  0  0
  147.3668  136.5201  155.1486 H   0  0  0  0  0  0  0  0  0  0  0  0
  146.7761  133.7460  163.2735 H   0  0  0  0  0  0  0  0  0  0  0  0
  146.7961  135.9762  164.0159 H   0  0  0  0  0  0  0  0  0  0  0  0
  147.9990  136.1235  162.7587 H   0  0  0  0  0  0  0  0  0  0  0  0
  145.7321  137.6779  162.7940 H   0  0  0  0  0  0  0  0  0  0  0  0
  146.4118  137.1344  161.2574 H   0  0  0  0  0  0  0  0  0  0  0  0
  144.4265  133.9664  161.9469 H   0  0  0  0  0  0  0  0  0  0  0  0
  144.6214  134.7298  163.5071 H   0  0  0  0  0  0  0  0  0  0  0  0
  1  2  1  0  0  0  0
  1 31  1  0  0  0  0
  2  3  1  0  0  0  0
  2 32  1  0  0  0  0
  2 33  1  0  0  0  0
  3  4  1  0  0  0  0
  3 26  1  0  0  0  0
  3 34  1  0  0  0  0
  4  5  1  0  0  0  0
  4 35  1  0  0  0  0
  4 36  1  0  0  0  0
  5 25  1  0  0  0  0
  5  6  1  0  0  0  0
  6  7  2  0  0  0  0
  6 37  1  0  0  0  0
  7  8  1  0  0  0  0
  8 25  2  0  0  0  0
  8  9  1  0  0  0  0
  9 10  1  0  0  0  0
  9 22  2  0  0  0  0
 10 15  1  0  0  0  0
 10 11  1  0  0  0  0
 11 12  1  0  0  0  0
 11 38  1  0  0  0  0
 11 39  1  0  0  0  0
 12 13  1  0  0  0  0
 12 40  1  0  0  0  0
 12 41  1  0  0  0  0
 13 14  1  0  0  0  0
 13 42  1  0  0  0  0
 13 43  1  0  0  0  0
 14 15  1  0  0  0  0
 14 44  1  0  0  0  0
 14 45  1  0  0  0  0
 15 16  1  0  0  0  0
 15 46  1  0  0  0  0
 16 20  1  0  0  0  0
 16 17  1  0  0  0  0
 16 47  1  0  0  0  0
 17 18  1  0  0  0  0
 17 48  1  0  0  0  0
 17 49  1  0  0  0  0
 18 19  1  0  0  0  0
 18 50  1  0  0  0  0
 18 51  1  0  0  0  0
 19 20  1  0  0  0  0
 19 52  1  0  0  0  0
 19 53  1  0  0  0  0
 20 21  1  0  0  0  0
 20 54  1  0  0  0  0
 21 55  1  0  0  0  0
 22 23  1  0  0  0  0
 23 24  2  0  0  0  0
 23 56  1  0  0  0  0
 24 25  1  0  0  0  0
 26 30  1  0  0  0  0
 26 27  1  0  0  0  0
 26 57  1  0  0  0  0
 27 28  1  0  0  0  0
 27 58  1  0  0  0  0
 27 59  1  0  0  0  0
 28 29  1  0  0  0  0
 28 60  1  0  0  0  0
 28 61  1  0  0  0  0
 29 30  1  0  0  0  0
 30 62  1  0  0  0  0
 30 63  1  0  0  0  0
M  END
> <s_m_source_file>
AV-unprocessed.smi

> <i_m_source_file_index>
148

> <i_lp_mmshare_version>
43012

> <i_f3d_flags>
0

> <s_epik_input>
W0NIMl0xT1tDSDJdW0NIMl1bQ0BIXTFbQ0BIXShbQ0gyXVtPSF0pW0NIMl1uKFtjSF1uMiljKGMyMyluW2NIXW5jM040W0NIMl1bQ0gyXVtDSDJdW0NIMl1bQ0BIXTRbQ0BASF01W0NIMl1bQ0gyXVtDSDJdW0NASF01W09IXQ==

> <s_epik_cmdline>
J2VwaWtfcHl0aG9uJywgJy1waCcsICc3LjAnLCAnLXRuJywgJzgnLCAnLW1hJywgJzIwMCcsICctbWV0YWxfYmluZGluZycsICctaW1hZScsICc8aW5maWxlLm1hZT4nLCAnLW9tYWUnLCAnPG91dGZpbGUubWFlPic=

> <r_lp_tautomer_probability>
1

> <r_epik_Ionization_Penalty>
0.00556303

> <r_epik_Ionization_Penalty_Charging>
0

> <r_epik_Ionization_Penalty_Neutral>
0.00556303

> <r_epik_State_Penalty>
0.00401767

> <r_epik_Charging_Adjusted_Penalty>
0.00401767

> <i_epik_Tot_Q>
0

> <i_epik_Tot_abs_Q>
0

> <r_epik_Metal_State_Penalty>
-0

> <b_epik_Metal_Only>
0

> <s_lp_Force_Field>
OPLS_2005

> <r_lp_Energy>
69.9352

> <b_lp_Chiralities_Consistent>
1

> <s_lp_Variant>
AV-unprocessed.smi:148-30

> <Gold.Version>
5.8.1

> <Gold.Id.Protein>
6NUR|6NUR_protein|mol2

> <Gold.PLP.Fitness>
48.4345

> <Gold.PLP.PLP>
-47.7839

> <Gold.PLP.part.hbond>
-3.0000

> <Gold.PLP.part.metal>
0.0000

> <Gold.PLP.part.buried>
-6.5183

> <Gold.PLP.part.nonpolar>
-38.9849

> <Gold.PLP.part.repulsive>
0.0226

> <Gold.PLP.ligand.clash>
0.4711

> <Gold.PLP.ligand.torsion>
2.5183

> <Gold.PLP.Chemscore.Hbond>
1.8640

> <Gold.PLP.Chemscore.CHOScore>
0.0000

> <Gold.PLP.Chemscore.Metal>
0.0000

> <Gold.Chemscore.Hbonds>
donor molecule, donor type, donor heavy atom, donor atom, acceptor molecule, acceptor atom, score
      L1  H    21    55       P1  7957  0.99
      P1  H  7989  7998       L1    21  0.68

> <Gold.PLP.Chemscore.Internal.Correction>
0.5663

> <Gold.Rescore>
     Score         DG    S(hbond)    S(metal)    S(lipo)     H(rot)  DE(clash)    DE(int)     intcor
      6.59     -13.13       1.29        0.00     101.13       3.32       0.01       6.53       ----

> <Gold.Chemscore.Fitness>
6.5943

> <Gold.Chemscore.DG>
-13.1309

> <Gold.Chemscore.ZeroCoef>
-5.4800

> <Gold.Chemscore.Hbond>
1.2930

> <Gold.Chemscore.Metal>
0.0000

> <Gold.Chemscore.Lipo>
101.1310

> <Gold.Chemscore.Internal_Hbond>
0.0000

> <Gold.Chemscore.DEClash>
0.0081

> <Gold.Chemscore.DEInternal>
6.5284

> <Gold.Chemscore.Rot>
3.3203

> <Gold.Chemscore.Internal.Correction>
   9.000000E+99

> <Gold.Chemscore.Hbonds>
donor molecule, donor type, donor heavy atom, donor atom, acceptor molecule, acceptor atom, score
      L1  H    21    55       P1  7957  0.94
      P1  H  7989  7998       L1    21  0.04

> <Gold.Chemscore.Hbond.Weighted>
-4.3185

> <Gold.Chemscore.Metal.Weighted>
-0.0000

> <Gold.Chemscore.Lipo.Weighted>
-11.8323

> <Gold.Chemscore.Internal_Hbond.Weighted>
0.0000

> <Gold.Chemscore.DEClash.Weighted>
0.0081

> <Gold.Chemscore.DEInternal.Weighted>
6.5284

> <Gold.Chemscore.Rot.Weighted>
8.5000

> <Gold.Chemscore.Internal.Correction.Weighted>
   9.000000E+99

> <Gold.Protein.RotatedTorsions>
[ 6907 6896 6895 6894 ] final -159.78 input  -60.11 | X-H torsion
[ 7974 7965 7964 7962 ] final  173.39 input  175.53 | X-H torsion
[ 8008 7997 7996 7995 ] final   80.20 input   59.86 | X-H torsion
[ 10167 10162 10161 10158 ] final    7.05 input  -65.29 | X-H torsion
[ 10718 10713 10712 10709 ] final   18.45 input   66.30 | X-H torsion
[ 10763 10752 10751 10750 ] final   10.43 input  -60.55 | X-H torsion
[ 11005 11000 10999 10996 ] final -149.97 input  -57.11 | X-H torsion

> <Gold.Protein.ActiveResidues>
 VAL166  LYS551  ARG553  GLY616  TRP617  ASP618  TYR619  PRO620  LYS621  CYS622 
 ASP623  PHE694  ASN695  SER759  ASP760  ASP761  ALA762  ILE779  LEU786  VAL792 
 PHE793  MET794  SER795  GLU796  ALA797  LYS798  CYS799  TRP800  GLU811  SER814 

> <Gold.Protein.RotatedAtoms>
  151.3388  133.3971  159.2669 H   0  0  0  0  0  0  0  0  0  0  0  0  # atno 6907 bound_to 6896
  150.9895  134.9233  159.7901 H   0  0  0  0  0  0  0  0  0  0  0  0  # atno 6908 bound_to 6896
  152.5242  134.3353  159.9250 H   0  0  0  0  0  0  0  0  0  0  0  0  # atno 6909 bound_to 6896
  144.7245  139.9640  143.6435 H   0  0  0  0  0  0  0  0  0  0  0  0  # atno 7974 bound_to 7965
  155.8803  140.3444  155.5883 H   0  0  0  0  0  0  0  0  0  0  0  0  # atno 8008 bound_to 7997
  155.7728  140.0847  157.2118 H   0  0  0  0  0  0  0  0  0  0  0  0  # atno 8009 bound_to 7997
  154.4024  140.1515  156.2948 H   0  0  0  0  0  0  0  0  0  0  0  0  # atno 8010 bound_to 7997
  140.6393  143.7811  150.7405 H   0  0  0  0  0  0  0  0  0  0  0  0  # atno 10167 bound_to 10162
  157.0964  130.6449  149.5861 H   0  0  0  0  0  0  0  0  0  0  0  0  # atno 10718 bound_to 10713
  153.2033  135.6859  153.8203 H   0  0  0  0  0  0  0  0  0  0  0  0  # atno 10763 bound_to 10752
  153.7462  135.3231  155.3314 H   0  0  0  0  0  0  0  0  0  0  0  0  # atno 10764 bound_to 10752
  154.8183  135.4670  154.0809 H   0  0  0  0  0  0  0  0  0  0  0  0  # atno 10765 bound_to 10752
  140.7451  134.3470  157.5139 H   0  0  0  0  0  0  0  0  0  0  0  0  # atno 11005 bound_to 11000
  146.0615  139.3608  143.0578 LP  0  0  0  0  0  0  0  0  0  0  0  0  # atno 17320 bound_to 7965
  145.8087  140.9736  143.0960 LP  0  0  0  0  0  0  0  0  0  0  0  0  # atno 17321 bound_to 7965
  140.1439  143.4417  152.2175 LP  0  0  0  0  0  0  0  0  0  0  0  0  # atno 17342 bound_to 10162
  139.5603  144.7401  151.4175 LP  0  0  0  0  0  0  0  0  0  0  0  0  # atno 17343 bound_to 10162
  155.9884  130.4928  150.7171 LP  0  0  0  0  0  0  0  0  0  0  0  0  # atno 17370 bound_to 10713
  157.4677  131.0890  151.0676 LP  0  0  0  0  0  0  0  0  0  0  0  0  # atno 17371 bound_to 10713
  139.8798  134.9106  156.3017 LP  0  0  0  0  0  0  0  0  0  0  0  0  # atno 17394 bound_to 11000
  140.9802  133.7272  156.0660 LP  0  0  0  0  0  0  0  0  0  0  0  0  # atno 17395 bound_to 11000

$$$$
