AV-unprocessed.smi:1887|AV-procd|sdf|7655|dock2
  -GOLD-   22720 9393D 1   1.00000     0.00000
 Structure written by MMmdl.
 44 46  0  0  0  0  0  0  0  0  1 V2000
  151.7495  139.7552  155.7574 C   0  0  0  0  0  0  0  0  0  0  0  0
  152.6595  139.6524  156.8372 O   0  0  0  0  0  0  0  0  0  0  0  0
  152.1786  138.8239  157.8823 C   0  0  0  0  0  0  0  0  0  0  0  0
  151.7373  139.6952  159.0662 C   0  0  0  0  0  0  0  0  0  0  0  0
  152.8160  139.9001  160.0289 N   0  0  0  0  0  0  0  0  0  0  0  0
  153.3432  141.0720  160.4700 C   0  0  0  0  0  0  0  0  0  0  0  0
  152.8625  142.3172  160.0137 N   0  0  0  0  0  0  0  0  0  0  0  0
  152.6235  142.5097  158.7001 N   0  0  0  0  0  0  0  0  0  0  0  0
  152.2063  143.7611  158.6106 C   0  0  0  0  0  0  0  0  0  0  0  0
  151.8307  144.3068  157.2630 C   0  0  0  0  0  0  0  0  0  0  0  0
  152.1839  144.4188  159.8752 C   0  0  0  0  0  0  0  0  0  0  0  0
  151.7790  145.8390  160.1614 C   0  0  0  0  0  0  0  0  0  0  0  0
  152.6142  143.4600  160.7523 C   0  0  0  0  0  0  0  0  0  0  0  0
  152.8150  143.5239  162.2338 C   0  0  0  0  0  0  0  0  0  0  0  0
  154.3132  140.9475  161.3800 N   0  0  0  0  0  0  0  0  0  0  0  0
  154.4173  139.5720  161.5297 C   0  0  0  0  0  0  0  0  0  0  0  0
  153.5246  138.9284  160.7344 C   0  0  0  0  0  0  0  0  0  0  0  0
  153.3980  137.4660  160.7113 C   0  0  0  0  0  0  0  0  0  0  0  0
  152.5892  136.8672  160.0056 O   0  0  0  0  0  0  0  0  0  0  0  0
  154.2591  136.8456  161.5539 N   0  0  0  0  0  0  0  0  0  0  0  0
  155.1813  137.4296  162.3787 C   0  0  0  0  0  0  0  0  0  0  0  0
  155.8944  136.7293  163.0971 O   0  0  0  0  0  0  0  0  0  0  0  0
  155.2691  138.7986  162.3693 N   0  0  0  0  0  0  0  0  0  0  0  0
  156.2367  139.4759  163.2345 C   0  0  0  0  0  0  0  0  0  0  0  0
  154.2130  135.8375  161.5789 H   0  0  0  0  0  0  0  0  0  0  0  0
  152.1715  140.3985  154.9852 H   0  0  0  0  0  0  0  0  0  0  0  0
  150.8034  140.1920  156.0796 H   0  0  0  0  0  0  0  0  0  0  0  0
  151.5528  138.7788  155.3129 H   0  0  0  0  0  0  0  0  0  0  0  0
  151.3413  138.2216  157.5267 H   0  0  0  0  0  0  0  0  0  0  0  0
  152.9625  138.1360  158.2025 H   0  0  0  0  0  0  0  0  0  0  0  0
  151.3846  140.6648  158.7167 H   0  0  0  0  0  0  0  0  0  0  0  0
  150.8828  139.2373  159.5617 H   0  0  0  0  0  0  0  0  0  0  0  0
  151.5663  145.3626  157.3180 H   0  0  0  0  0  0  0  0  0  0  0  0
  150.9738  143.7735  156.8509 H   0  0  0  0  0  0  0  0  0  0  0  0
  152.6553  144.2100  156.5564 H   0  0  0  0  0  0  0  0  0  0  0  0
  152.0857  146.1618  161.1562 H   0  0  0  0  0  0  0  0  0  0  0  0
  150.6982  145.9671  160.1009 H   0  0  0  0  0  0  0  0  0  0  0  0
  152.2260  146.5361  159.4525 H   0  0  0  0  0  0  0  0  0  0  0  0
  152.1317  144.2403  162.6898 H   0  0  0  0  0  0  0  0  0  0  0  0
  153.8340  143.8302  162.4703 H   0  0  0  0  0  0  0  0  0  0  0  0
  152.6360  142.5575  162.7053 H   0  0  0  0  0  0  0  0  0  0  0  0
  157.2445  139.0968  163.0573 H   0  0  0  0  0  0  0  0  0  0  0  0
  155.9891  139.3091  164.2836 H   0  0  0  0  0  0  0  0  0  0  0  0
  156.2637  140.5531  163.0704 H   0  0  0  0  0  0  0  0  0  0  0  0
  1  2  1  0  0  0  0
  1 26  1  0  0  0  0
  1 27  1  0  0  0  0
  1 28  1  0  0  0  0
  2  3  1  0  0  0  0
  3  4  1  0  0  0  0
  3 29  1  0  0  0  0
  3 30  1  0  0  0  0
  4  5  1  0  0  0  0
  4 31  1  0  0  0  0
  4 32  1  0  0  0  0
  5 17  1  0  0  0  0
  5  6  1  0  0  0  0
  6  7  1  0  0  0  0
  6 15  2  0  0  0  0
  7 13  1  0  0  0  0
  7  8  1  0  0  0  0
  8  9  2  0  0  0  0
  9 10  1  0  0  0  0
  9 11  1  0  0  0  0
 10 33  1  0  0  0  0
 10 34  1  0  0  0  0
 10 35  1  0  0  0  0
 11 12  1  0  0  0  0
 11 13  2  0  0  0  0
 12 36  1  0  0  0  0
 12 37  1  0  0  0  0
 12 38  1  0  0  0  0
 13 14  1  0  0  0  0
 14 39  1  0  0  0  0
 14 40  1  0  0  0  0
 14 41  1  0  0  0  0
 15 16  1  0  0  0  0
 16 23  1  0  0  0  0
 16 17  2  0  0  0  0
 17 18  1  0  0  0  0
 18 19  2  0  0  0  0
 18 20  1  0  0  0  0
 20 25  1  0  0  0  0
 20 21  1  0  0  0  0
 21 22  2  0  0  0  0
 21 23  1  0  0  0  0
 23 24  1  0  0  0  0
 24 42  1  0  0  0  0
 24 43  1  0  0  0  0
 24 44  1  0  0  0  0
M  END
> <s_m_source_file>
AV-unprocessed.smi

> <i_m_source_file_index>
1887

> <i_lp_mmshare_version>
43012

> <i_f3d_flags>
0

> <s_epik_input>
W0NIM11uMWMoPU8pW25IXWMoPU8pYyhjMTIpbihbQ0gyXVtDSDJdT1tDSDNdKWMobjIpLW4zbmMoW0NIM10pYyhbQ0gzXSljM1tDSDNd

> <s_epik_cmdline>
J2VwaWtfcHl0aG9uJywgJy1waCcsICc3LjAnLCAnLXRuJywgJzgnLCAnLW1hJywgJzIwMCcsICctbWV0YWxfYmluZGluZycsICctaW1hZScsICc8aW5maWxlLm1hZT4nLCAnLW9tYWUnLCAnPG91dGZpbGUubWFlPic=

> <r_lp_tautomer_probability>
1

> <r_epik_Ionization_Penalty>
0.00244877

> <r_epik_Ionization_Penalty_Charging>
0.000731299

> <r_epik_Ionization_Penalty_Neutral>
0.00171747

> <r_epik_State_Penalty>
-0

> <r_epik_Charging_Adjusted_Penalty>
0.000731299

> <i_epik_Tot_Q>
0

> <i_epik_Tot_abs_Q>
0

> <r_epik_Metal_State_Penalty>
0.260296

> <b_epik_Metal_Only>
0

> <s_lp_Force_Field>
OPLS_2005

> <r_lp_Energy>
24.2445

> <b_lp_Chiralities_Consistent>
1

> <s_lp_Variant>
AV-unprocessed.smi:1887-1

> <Gold.Version>
5.8.1

> <Gold.Id.Protein>
6NUR|6NUR_protein|mol2

> <Gold.PLP.Fitness>
53.2620

> <Gold.PLP.PLP>
-49.3495

> <Gold.PLP.part.hbond>
-2.3266

> <Gold.PLP.part.metal>
0.0000

> <Gold.PLP.part.buried>
-4.9502

> <Gold.PLP.part.nonpolar>
-41.5683

> <Gold.PLP.part.repulsive>
0.0256

> <Gold.PLP.ligand.clash>
0.0000

> <Gold.PLP.ligand.torsion>
1.2273

> <Gold.PLP.Chemscore.Hbond>
2.0000

> <Gold.PLP.Chemscore.CHOScore>
0.0000

> <Gold.PLP.Chemscore.Metal>
0.0000

> <Gold.Chemscore.Hbonds>
donor molecule, donor type, donor heavy atom, donor atom, acceptor molecule, acceptor atom, score
      P1  H  6896  6907       L1    19  1.00
      P1  H  7997  8010       L1     2  0.96

> <Gold.PLP.Chemscore.Internal.Correction>
0.3672

> <Gold.Rescore>
     Score         DG    S(hbond)    S(metal)    S(lipo)     H(rot)  DE(clash)    DE(int)     intcor
     17.06     -19.43       1.78        0.00     101.38       1.50       0.05       2.32       ----

> <Gold.Chemscore.Fitness>
17.0617

> <Gold.Chemscore.DG>
-19.4336

> <Gold.Chemscore.ZeroCoef>
-5.4800

> <Gold.Chemscore.Hbond>
1.7771

> <Gold.Chemscore.Metal>
0.0000

> <Gold.Chemscore.Lipo>
101.3828

> <Gold.Chemscore.Internal_Hbond>
0.0000

> <Gold.Chemscore.DEClash>
0.0536

> <Gold.Chemscore.DEInternal>
2.3183

> <Gold.Chemscore.Rot>
1.5014

> <Gold.Chemscore.Internal.Correction>
   9.000000E+99

> <Gold.Chemscore.Hbonds>
donor molecule, donor type, donor heavy atom, donor atom, acceptor molecule, acceptor atom, score
      P1  H  6896  6907       L1    19  1.00
      P1  H  7997  8010       L1     2  0.87

> <Gold.Chemscore.Hbond.Weighted>
-5.9354

> <Gold.Chemscore.Metal.Weighted>
-0.0000

> <Gold.Chemscore.Lipo.Weighted>
-11.8618

> <Gold.Chemscore.Internal_Hbond.Weighted>
0.0000

> <Gold.Chemscore.DEClash.Weighted>
0.0536

> <Gold.Chemscore.DEInternal.Weighted>
2.3183

> <Gold.Chemscore.Rot.Weighted>
3.8437

> <Gold.Chemscore.Internal.Correction.Weighted>
   9.000000E+99

> <Gold.Protein.RotatedTorsions>
[ 6907 6896 6895 6894 ] final   25.07 input  -60.11 | X-H torsion
[ 7974 7965 7964 7962 ] final  -60.00 input  175.53 | X-H torsion
[ 8008 7997 7996 7995 ] final   43.97 input   59.86 | X-H torsion
[ 10167 10162 10161 10158 ] final -149.45 input  -65.29 | X-H torsion
[ 10718 10713 10712 10709 ] final -139.23 input   66.30 | X-H torsion
[ 10763 10752 10751 10750 ] final  -82.16 input  -60.55 | X-H torsion
[ 11005 11000 10999 10996 ] final -108.92 input  -57.11 | X-H torsion

> <Gold.Protein.ActiveResidues>
 VAL166  LYS551  ARG553  GLY616  TRP617  ASP618  TYR619  PRO620  LYS621  CYS622 
 ASP623  PHE694  ASN695  SER759  ASP760  ASP761  ALA762  ILE779  LEU786  VAL792 
 PHE793  MET794  SER795  GLU796  ALA797  LYS798  CYS799  TRP800  GLU811  SER814 

> <Gold.Protein.RotatedAtoms>
  151.9669  135.0096  160.0550 H   0  0  0  0  0  0  0  0  0  0  0  0  # atno 6907 bound_to 6896
  152.1818  133.4708  159.4970 H   0  0  0  0  0  0  0  0  0  0  0  0  # atno 6908 bound_to 6896
  150.6919  134.1741  159.4266 H   0  0  0  0  0  0  0  0  0  0  0  0  # atno 6909 bound_to 6896
  145.8208  140.8541  143.0134 H   0  0  0  0  0  0  0  0  0  0  0  0  # atno 7974 bound_to 7965
  155.3116  140.3391  155.4244 H   0  0  0  0  0  0  0  0  0  0  0  0  # atno 8008 bound_to 7997
  156.1953  140.1712  156.8049 H   0  0  0  0  0  0  0  0  0  0  0  0  # atno 8009 bound_to 7997
  154.5491  140.0709  156.8621 H   0  0  0  0  0  0  0  0  0  0  0  0  # atno 8010 bound_to 7997
  139.7441  143.8616  152.2570 H   0  0  0  0  0  0  0  0  0  0  0  0  # atno 10167 bound_to 10162
  156.3083  130.7468  151.1537 H   0  0  0  0  0  0  0  0  0  0  0  0  # atno 10718 bound_to 10713
  154.5723  135.5601  153.7107 H   0  0  0  0  0  0  0  0  0  0  0  0  # atno 10763 bound_to 10752
  153.0053  135.6300  154.2097 H   0  0  0  0  0  0  0  0  0  0  0  0  # atno 10764 bound_to 10752
  154.2037  135.2877  155.2962 H   0  0  0  0  0  0  0  0  0  0  0  0  # atno 10765 bound_to 10752
  141.0876  133.9112  157.2150 H   0  0  0  0  0  0  0  0  0  0  0  0  # atno 11005 bound_to 11000
  144.6748  140.0530  143.7478 LP  0  0  0  0  0  0  0  0  0  0  0  0  # atno 17320 bound_to 7965
  145.9677  139.2847  143.1117 LP  0  0  0  0  0  0  0  0  0  0  0  0  # atno 17321 bound_to 7965
  139.8576  144.7133  150.9138 LP  0  0  0  0  0  0  0  0  0  0  0  0  # atno 17342 bound_to 10162
  140.7790  143.3845  151.1417 LP  0  0  0  0  0  0  0  0  0  0  0  0  # atno 17343 bound_to 10162
  157.7385  131.0540  150.5291 LP  0  0  0  0  0  0  0  0  0  0  0  0  # atno 17370 bound_to 10713
  156.5427  130.4212  149.6146 LP  0  0  0  0  0  0  0  0  0  0  0  0  # atno 17371 bound_to 10713
  139.9696  135.0132  156.9478 LP  0  0  0  0  0  0  0  0  0  0  0  0  # atno 17394 bound_to 11000
  140.5327  134.0797  155.7320 LP  0  0  0  0  0  0  0  0  0  0  0  0  # atno 17395 bound_to 11000

$$$$
