AV-unprocessed.smi:281|AV-procd|sdf|2105|dock10
  -GOLD-   2262021393D 1   1.00000     0.00000
 Structure written by MMmdl.
 55 59  0  0  0  0  0  0  0  0  1 V2000
  148.6134  141.7601  154.4905 C   0  0  0  0  0  0  0  0  0  0  0  0
  149.1031  140.3453  154.8144 C   0  0  2  0  0  0  0  0  0  0  0  0
  147.9499  139.3308  154.8538 C   0  0  0  0  0  0  0  0  0  0  0  0
  148.4437  138.0138  155.2486 N   0  0  0  0  0  0  0  0  0  0  0  0
  147.5961  136.9590  155.1127 C   0  0  0  0  0  0  0  0  0  0  0  0
  147.5004  136.0348  156.1073 N   0  0  0  0  0  0  0  0  0  0  0  0
  146.6797  134.9878  155.9863 C   0  0  0  0  0  0  0  0  0  0  0  0
  145.8706  134.6757  154.9732 N   0  0  0  0  0  0  0  0  0  0  0  0
  145.9507  135.6004  153.9744 C   0  0  0  0  0  0  0  0  0  0  0  0
  146.7808  136.7582  153.9610 C   0  0  0  0  0  0  0  0  0  0  0  0
  146.5843  137.4597  152.7777 N   0  0  0  0  0  0  0  0  0  0  0  0
  145.7005  136.7552  152.1268 C   0  0  0  0  0  0  0  0  0  0  0  0
  145.2562  135.6266  152.7771 N   0  0  0  0  0  0  0  0  0  0  0  0
  144.2762  134.6682  152.2875 C   0  0  0  0  0  0  0  0  0  0  0  0
  144.6191  134.0841  150.8957 C   0  0  1  0  0  0  0  0  0  0  0  0
  144.4952  135.1096  149.9268 O   0  0  0  0  0  0  0  0  0  0  0  0
  146.0371  133.5116  150.8366 C   0  0  0  0  0  0  0  0  0  0  0  0
  145.8131  132.0055  150.7723 C   0  0  0  0  0  0  0  0  0  0  0  0
  144.6286  131.9022  150.0033 O   0  0  0  0  0  0  0  0  0  0  0  0
  143.7313  132.8909  150.4873 C   0  0  0  0  0  0  0  0  0  0  0  0
  149.2029  138.0318  156.4970 C   0  0  0  0  0  0  0  0  0  0  0  0
  150.3034  139.1284  156.4939 C   0  0  1  0  0  0  0  0  0  0  0  0
  150.8450  139.3329  157.9037 C   0  0  0  0  0  0  0  0  0  0  0  0
  152.0198  138.3708  157.9607 C   0  0  0  0  0  0  0  0  0  0  0  0
  152.6196  138.5218  156.6867 O   0  0  0  0  0  0  0  0  0  0  0  0
  151.6148  138.8099  155.7166 C   0  0  1  0  0  0  0  0  0  0  0  0
  151.5784  137.6703  154.6867 C   0  0  0  0  0  0  0  0  0  0  0  0
  149.7325  140.3756  156.0923 O   0  0  0  0  0  0  0  0  0  0  0  0
  148.1314  141.7945  153.5132 H   0  0  0  0  0  0  0  0  0  0  0  0
  149.4448  142.4652  154.4755 H   0  0  0  0  0  0  0  0  0  0  0  0
  147.8940  142.1089  155.2320 H   0  0  0  0  0  0  0  0  0  0  0  0
  149.8258  140.0518  154.0525 H   0  0  0  0  0  0  0  0  0  0  0  0
  147.1863  139.6602  155.5603 H   0  0  0  0  0  0  0  0  0  0  0  0
  147.4823  139.2737  153.8699 H   0  0  0  0  0  0  0  0  0  0  0  0
  146.6705  134.3021  156.8208 H   0  0  0  0  0  0  0  0  0  0  0  0
  145.3410  137.0459  151.1503 H   0  0  0  0  0  0  0  0  0  0  0  0
  144.1865  133.8672  153.0228 H   0  0  0  0  0  0  0  0  0  0  0  0
  143.3030  135.1598  152.2545 H   0  0  0  0  0  0  0  0  0  0  0  0
  145.0989  134.9286  149.2223 H   0  0  0  0  0  0  0  0  0  0  0  0
  146.5524  133.8316  149.9291 H   0  0  0  0  0  0  0  0  0  0  0  0
  146.6597  133.8012  151.6839 H   0  0  0  0  0  0  0  0  0  0  0  0
  146.6445  131.4741  150.3088 H   0  0  0  0  0  0  0  0  0  0  0  0
  145.6456  131.5894  151.7670 H   0  0  0  0  0  0  0  0  0  0  0  0
  143.2153  132.4693  151.3501 H   0  0  0  0  0  0  0  0  0  0  0  0
  142.9749  133.1421  149.7425 H   0  0  0  0  0  0  0  0  0  0  0  0
  148.4929  138.2316  157.3007 H   0  0  0  0  0  0  0  0  0  0  0  0
  149.6442  137.0617  156.7187 H   0  0  0  0  0  0  0  0  0  0  0  0
  151.2154  140.3524  158.0225 H   0  0  0  0  0  0  0  0  0  0  0  0
  150.1103  139.1559  158.6897 H   0  0  0  0  0  0  0  0  0  0  0  0
  152.7195  138.6025  158.7639 H   0  0  0  0  0  0  0  0  0  0  0  0
  151.6789  137.3420  158.0848 H   0  0  0  0  0  0  0  0  0  0  0  0
  151.9501  139.7147  155.2079 H   0  0  0  0  0  0  0  0  0  0  0  0
  150.8279  137.8430  153.9161 H   0  0  0  0  0  0  0  0  0  0  0  0
  151.3710  136.7125  155.1610 H   0  0  0  0  0  0  0  0  0  0  0  0
  152.5419  137.5784  154.1856 H   0  0  0  0  0  0  0  0  0  0  0  0
  1  2  1  0  0  0  0
  1 29  1  0  0  0  0
  1 30  1  0  0  0  0
  1 31  1  0  0  0  0
  2 28  1  0  0  0  0
  2  3  1  0  0  0  0
  2 32  1  0  0  0  0
  3  4  1  0  0  0  0
  3 33  1  0  0  0  0
  3 34  1  0  0  0  0
  4  5  1  0  0  0  0
  4 21  1  0  0  0  0
  5 10  1  0  0  0  0
  5  6  2  0  0  0  0
  6  7  1  0  0  0  0
  7  8  2  0  0  0  0
  7 35  1  0  0  0  0
  8  9  1  0  0  0  0
  9 13  1  0  0  0  0
  9 10  2  0  0  0  0
 10 11  1  0  0  0  0
 11 12  2  0  0  0  0
 12 13  1  0  0  0  0
 12 36  1  0  0  0  0
 13 14  1  0  0  0  0
 14 15  1  0  0  0  0
 14 37  1  0  0  0  0
 14 38  1  0  0  0  0
 15 20  1  0  0  0  0
 15 16  1  0  0  0  0
 15 17  1  0  0  0  0
 16 39  1  0  0  0  0
 17 18  1  0  0  0  0
 17 40  1  0  0  0  0
 17 41  1  0  0  0  0
 18 19  1  0  0  0  0
 18 42  1  0  0  0  0
 18 43  1  0  0  0  0
 19 20  1  0  0  0  0
 20 44  1  0  0  0  0
 20 45  1  0  0  0  0
 21 22  1  0  0  0  0
 21 46  1  0  0  0  0
 21 47  1  0  0  0  0
 22 26  1  0  0  0  0
 22 23  1  0  0  0  0
 22 28  1  0  0  0  0
 23 24  1  0  0  0  0
 23 48  1  0  0  0  0
 23 49  1  0  0  0  0
 24 25  1  0  0  0  0
 24 50  1  0  0  0  0
 24 51  1  0  0  0  0
 25 26  1  0  0  0  0
 26 27  1  0  0  0  0
 26 52  1  0  0  0  0
 27 53  1  0  0  0  0
 27 54  1  0  0  0  0
 27 55  1  0  0  0  0
M  END
> <s_m_source_file>
AV-unprocessed.smi

> <i_m_source_file_index>
281

> <i_lp_mmshare_version>
43012

> <i_f3d_flags>
0

> <s_epik_input>
W0NIM11bQ0BASF0xT1tDSDJdW0NIMl1bQ0BAXTEyW0NIMl1OKFtDSDJdW0NASF0oTzIpW0NIM10pYyhuW2NIXW4zKWMoYzM0KW5bY0hdbjRbQ0gyXVtDQEBdNShbT0hdKVtDSDJdW0NIMl1PW0NIMl01

> <s_epik_cmdline>
J2VwaWtfcHl0aG9uJywgJy1waCcsICc3LjAnLCAnLXRuJywgJzgnLCAnLW1hJywgJzIwMCcsICctbWV0YWxfYmluZGluZycsICctaW1hZScsICc8aW5maWxlLm1hZT4nLCAnLW9tYWUnLCAnPG91dGZpbGUubWFlPic=

> <r_lp_tautomer_probability>
1

> <r_epik_Ionization_Penalty>
0.00571331

> <r_epik_Ionization_Penalty_Charging>
0

> <r_epik_Ionization_Penalty_Neutral>
0.00571331

> <r_epik_State_Penalty>
0.00399586

> <r_epik_Charging_Adjusted_Penalty>
0.00399586

> <i_epik_Tot_Q>
0

> <i_epik_Tot_abs_Q>
0

> <r_epik_Metal_State_Penalty>
-0

> <b_epik_Metal_Only>
0

> <s_lp_Force_Field>
OPLS_2005

> <r_lp_Energy>
53.3416

> <b_lp_Chiralities_Consistent>
1

> <s_lp_Variant>
AV-unprocessed.smi:281-5

> <Gold.Version>
5.8.1

> <Gold.Id.Protein>
6NUR|6NUR_protein|mol2

> <Gold.PLP.Fitness>
42.3428

> <Gold.PLP.PLP>
-34.8580

> <Gold.PLP.part.hbond>
-2.4885

> <Gold.PLP.part.metal>
0.0000

> <Gold.PLP.part.buried>
-4.4274

> <Gold.PLP.part.nonpolar>
-27.7361

> <Gold.PLP.part.repulsive>
0.9926

> <Gold.PLP.ligand.clash>
0.0000

> <Gold.PLP.ligand.torsion>
0.3022

> <Gold.PLP.Chemscore.Hbond>
1.6012

> <Gold.PLP.Chemscore.CHOScore>
1.0000

> <Gold.PLP.Chemscore.Metal>
0.0000

> <Gold.Chemscore.Hbonds>
donor molecule, donor type, donor heavy atom, donor atom, acceptor molecule, acceptor atom, score
      L1  H    16    39       P1  7921  1.00
      P1  H  7997  8008       L1    25  0.11
      L1  C    12    36       P1 10171  1.00

> <Gold.PLP.Chemscore.Internal.Correction>
0.2854

> <Gold.Rescore>
     Score         DG    S(hbond)    S(metal)    S(lipo)     H(rot)  DE(clash)    DE(int)     intcor
     14.04     -14.47       1.30        0.00      85.46       2.09       0.09       0.34       ----

> <Gold.Chemscore.Fitness>
14.0437

> <Gold.Chemscore.DG>
-14.4734

> <Gold.Chemscore.ZeroCoef>
-5.4800

> <Gold.Chemscore.Hbond>
1.3029

> <Gold.Chemscore.Metal>
0.0000

> <Gold.Chemscore.Lipo>
85.4623

> <Gold.Chemscore.Internal_Hbond>
0.0000

> <Gold.Chemscore.DEClash>
0.0895

> <Gold.Chemscore.DEInternal>
0.3402

> <Gold.Chemscore.Rot>
2.0927

> <Gold.Chemscore.Internal.Correction>
   9.000000E+99

> <Gold.Chemscore.Hbonds>
donor molecule, donor type, donor heavy atom, donor atom, acceptor molecule, acceptor atom, score
      L1  H    16    39       P1  7921  1.00
      P1  H  7997  8008       L1    25  0.07

> <Gold.Chemscore.Hbond.Weighted>
-4.3516

> <Gold.Chemscore.Metal.Weighted>
-0.0000

> <Gold.Chemscore.Lipo.Weighted>
-9.9991

> <Gold.Chemscore.Internal_Hbond.Weighted>
0.0000

> <Gold.Chemscore.DEClash.Weighted>
0.0895

> <Gold.Chemscore.DEInternal.Weighted>
0.3402

> <Gold.Chemscore.Rot.Weighted>
5.3573

> <Gold.Chemscore.Internal.Correction.Weighted>
   9.000000E+99

> <Gold.Protein.RotatedTorsions>
[ 6907 6896 6895 6894 ] final   76.95 input  -60.11 | X-H torsion
[ 7974 7965 7964 7962 ] final -138.22 input  175.53 | X-H torsion
[ 8008 7997 7996 7995 ] final  -39.05 input   59.86 | X-H torsion
[ 10167 10162 10161 10158 ] final  130.78 input  -65.29 | X-H torsion
[ 10718 10713 10712 10709 ] final -177.92 input   66.30 | X-H torsion
[ 10763 10752 10751 10750 ] final -138.48 input  -60.55 | X-H torsion
[ 11005 11000 10999 10996 ] final  139.27 input  -57.11 | X-H torsion

> <Gold.Protein.ActiveResidues>
 VAL166  LYS551  ARG553  GLY616  TRP617  ASP618  TYR619  PRO620  LYS621  CYS622 
 ASP623  PHE694  ASN695  SER759  ASP760  ASP761  ALA762  ILE779  LEU786  VAL792 
 PHE793  MET794  SER795  GLU796  ALA797  LYS798  CYS799  TRP800  GLU811  SER814 

> <Gold.Protein.RotatedAtoms>
  152.5096  134.3892  159.9377 H   0  0  0  0  0  0  0  0  0  0  0  0  # atno 6907 bound_to 6896
  151.3851  133.3801  159.2722 H   0  0  0  0  0  0  0  0  0  0  0  0  # atno 6908 bound_to 6896
  150.9475  134.8899  159.7710 H   0  0  0  0  0  0  0  0  0  0  0  0  # atno 6909 bound_to 6896
  144.8777  140.6461  143.5226 H   0  0  0  0  0  0  0  0  0  0  0  0  # atno 7974 bound_to 7965
  154.4028  140.1561  156.2800 H   0  0  0  0  0  0  0  0  0  0  0  0  # atno 8008 bound_to 7997
  155.8878  140.3440  155.5912 H   0  0  0  0  0  0  0  0  0  0  0  0  # atno 8009 bound_to 7997
  155.7594  140.0815  157.2153 H   0  0  0  0  0  0  0  0  0  0  0  0  # atno 8010 bound_to 7997
  139.5414  144.6734  151.4612 H   0  0  0  0  0  0  0  0  0  0  0  0  # atno 10167 bound_to 10162
  156.8367  130.9672  151.3103 H   0  0  0  0  0  0  0  0  0  0  0  0  # atno 10718 bound_to 10713
  154.8635  135.3611  154.5392 H   0  0  0  0  0  0  0  0  0  0  0  0  # atno 10763 bound_to 10752
  153.6014  135.7012  153.5387 H   0  0  0  0  0  0  0  0  0  0  0  0  # atno 10764 bound_to 10752
  153.3287  135.4130  155.1439 H   0  0  0  0  0  0  0  0  0  0  0  0  # atno 10765 bound_to 10752
  140.0243  134.9382  157.0537 H   0  0  0  0  0  0  0  0  0  0  0  0  # atno 11005 bound_to 11000
  145.4013  139.1597  143.4176 LP  0  0  0  0  0  0  0  0  0  0  0  0  # atno 17320 bound_to 7965
  146.2973  140.4110  142.8717 LP  0  0  0  0  0  0  0  0  0  0  0  0  # atno 17321 bound_to 7965
  140.6645  143.8427  150.6926 LP  0  0  0  0  0  0  0  0  0  0  0  0  # atno 17342 bound_to 10162
  140.1832  143.4098  152.1918 LP  0  0  0  0  0  0  0  0  0  0  0  0  # atno 17343 bound_to 10162
  157.6378  130.8781  149.9391 LP  0  0  0  0  0  0  0  0  0  0  0  0  # atno 17370 bound_to 10713
  156.0904  130.3664  150.0407 LP  0  0  0  0  0  0  0  0  0  0  0  0  # atno 17371 bound_to 10713
  140.4333  134.1757  155.7169 LP  0  0  0  0  0  0  0  0  0  0  0  0  # atno 17394 bound_to 11000
  141.1793  133.8448  157.1314 LP  0  0  0  0  0  0  0  0  0  0  0  0  # atno 17395 bound_to 11000

$$$$
