AV-unprocessed.smi:2957|AV-procd|sdf|11306|dock1
  -GOLD-   2272016203D 1   1.00000     0.00000
 Structure written by MMmdl.
 29 30  0  0  0  0  0  0  0  0  1 V2000
  148.8521  141.6093  157.2283 O   0  0  0  0  0  0  0  0  0  0  0  0
  149.4677  141.5321  156.1639 C   0  0  0  0  0  0  0  0  0  0  0  0
  151.0022  141.4725  156.1458 C   0  0  0  0  0  0  0  0  0  0  0  0
  151.6109  141.7121  157.4658 N   0  0  0  0  0  0  0  0  0  0  0  0
  151.3664  142.9622  158.0656 C   0  0  0  0  0  0  0  0  0  0  0  0
  151.8791  143.3132  159.2595 C   0  0  0  0  0  0  0  0  0  0  0  0
  151.5575  144.6507  159.9073 C   0  0  0  0  0  0  0  0  0  0  0  0
  152.0529  144.7164  161.1434 F   0  0  0  0  0  0  0  0  0  0  0  0
  152.0922  145.6400  159.1928 F   0  0  0  0  0  0  0  0  0  0  0  0
  150.2407  144.8505  159.9729 F   0  0  0  0  0  0  0  0  0  0  0  0
  152.6844  142.3150  159.9337 C   0  0  0  0  0  0  0  0  0  0  0  0
  152.9275  141.1091  159.3818 C   0  0  0  0  0  0  0  0  0  0  0  0
  153.9005  139.9588  160.2274 Cl  0  0  0  0  0  0  0  0  0  0  0  0
  152.3793  140.7543  158.0665 C   0  0  0  0  0  0  0  0  0  0  0  0
  152.5929  139.6643  157.5331 O   0  0  0  0  0  0  0  0  0  0  0  0
  148.8664  141.4766  154.9665 N   0  0  0  0  0  0  0  0  0  0  0  0
  147.4571  141.5098  154.7436 C   0  0  0  0  0  0  0  0  0  0  0  0
  146.9703  141.4549  153.3115 C   0  0  0  0  0  0  0  0  0  0  0  0
  146.8798  142.7426  154.0825 C   0  0  0  0  0  0  0  0  0  0  0  0
  151.2984  140.4967  155.7587 H   0  0  0  0  0  0  0  0  0  0  0  0
  151.3844  142.1930  155.4200 H   0  0  0  0  0  0  0  0  0  0  0  0
  150.7363  143.6232  157.4880 H   0  0  0  0  0  0  0  0  0  0  0  0
  153.1073  142.5430  160.9012 H   0  0  0  0  0  0  0  0  0  0  0  0
  149.4528  141.4097  154.1473 H   0  0  0  0  0  0  0  0  0  0  0  0
  146.8219  141.0233  155.4825 H   0  0  0  0  0  0  0  0  0  0  0  0
  147.7161  141.3951  152.5211 H   0  0  0  0  0  0  0  0  0  0  0  0
  146.0431  140.9195  153.1178 H   0  0  0  0  0  0  0  0  0  0  0  0
  145.8922  143.0677  154.4038 H   0  0  0  0  0  0  0  0  0  0  0  0
  147.5653  143.5420  153.8070 H   0  0  0  0  0  0  0  0  0  0  0  0
  1  2  2  0  0  0  0
  2  3  1  0  0  0  0
  2 16  1  0  0  0  0
  3  4  1  0  0  0  0
  3 20  1  0  0  0  0
  3 21  1  0  0  0  0
  4 14  1  0  0  0  0
  4  5  1  0  0  0  0
  5  6  2  0  0  0  0
  5 22  1  0  0  0  0
  6  7  1  0  0  0  0
  6 11  1  0  0  0  0
  7  8  1  0  0  0  0
  7  9  1  0  0  0  0
  7 10  1  0  0  0  0
 11 12  2  0  0  0  0
 11 23  1  0  0  0  0
 12 13  1  0  0  0  0
 12 14  1  0  0  0  0
 14 15  2  0  0  0  0
 16 17  1  0  0  0  0
 16 24  1  0  0  0  0
 17 19  1  0  0  0  0
 17 18  1  0  0  0  0
 17 25  1  0  0  0  0
 18 19  1  0  0  0  0
 18 26  1  0  0  0  0
 18 27  1  0  0  0  0
 19 28  1  0  0  0  0
 19 29  1  0  0  0  0
M  END
> <s_m_source_file>
AV-unprocessed.smi

> <i_m_source_file_index>
2957

> <i_lp_mmshare_version>
43012

> <i_f3d_flags>
0

> <s_epik_input>
W0NIMl0xW0NIMl1bQ0hdMVtOSF1DKD1PKVtDSDJdbjJbY0hdYyhDKEYpKEYpRilbY0hdYyhDbCljMj1P

> <s_epik_cmdline>
J2VwaWtfcHl0aG9uJywgJy1waCcsICc3LjAnLCAnLXRuJywgJzgnLCAnLW1hJywgJzIwMCcsICctbWV0YWxfYmluZGluZycsICctaW1hZScsICc8aW5maWxlLm1hZT4nLCAnLW9tYWUnLCAnPG91dGZpbGUubWFlPic=

> <r_lp_tautomer_probability>
1

> <r_epik_Ionization_Penalty>
2.10194e-08

> <r_epik_Ionization_Penalty_Charging>
3.49098e-10

> <r_epik_Ionization_Penalty_Neutral>
2.06703e-08

> <r_epik_State_Penalty>
-0

> <r_epik_Charging_Adjusted_Penalty>
3.49098e-10

> <i_epik_Tot_Q>
0

> <i_epik_Tot_abs_Q>
0

> <r_epik_Metal_State_Penalty>
-0

> <b_epik_Metal_Only>
0

> <s_lp_Force_Field>
OPLS_2005

> <r_lp_Energy>
26.5923

> <b_lp_Chiralities_Consistent>
1

> <s_lp_Variant>
AV-unprocessed.smi:2957-1

> <Gold.Version>
5.8.1

> <Gold.Id.Protein>
6NUR|6NUR_protein|mol2

> <Gold.PLP.Fitness>
47.2620

> <Gold.PLP.PLP>
-43.3921

> <Gold.PLP.part.hbond>
-1.0000

> <Gold.PLP.part.metal>
0.0000

> <Gold.PLP.part.buried>
-4.9730

> <Gold.PLP.part.nonpolar>
-36.9159

> <Gold.PLP.part.repulsive>
0.2345

> <Gold.PLP.ligand.clash>
0.0000

> <Gold.PLP.ligand.torsion>
0.1977

> <Gold.PLP.Chemscore.Hbond>
1.0000

> <Gold.PLP.Chemscore.CHOScore>
0.3998

> <Gold.PLP.Chemscore.Metal>
0.0000

> <Gold.Chemscore.Hbonds>
donor molecule, donor type, donor heavy atom, donor atom, acceptor molecule, acceptor atom, score
      P1  H  7997  8009       L1    15  0.90
      L1  C     5    22       P1  8028  0.31

> <Gold.PLP.Chemscore.Internal.Correction>
0.0659

> <Gold.Rescore>
     Score         DG    S(hbond)    S(metal)    S(lipo)     H(rot)  DE(clash)    DE(int)     intcor
     13.15     -14.15       0.85        0.00      85.40       1.62       0.59       0.42       ----

> <Gold.Chemscore.Fitness>
13.1504

> <Gold.Chemscore.DG>
-14.1549

> <Gold.Chemscore.ZeroCoef>
-5.4800

> <Gold.Chemscore.Hbond>
0.8467

> <Gold.Chemscore.Metal>
0.0000

> <Gold.Chemscore.Lipo>
85.4027

> <Gold.Chemscore.Internal_Hbond>
0.0000

> <Gold.Chemscore.DEClash>
0.5858

> <Gold.Chemscore.DEInternal>
0.4187

> <Gold.Chemscore.Rot>
1.6192

> <Gold.Chemscore.Internal.Correction>
   9.000000E+99

> <Gold.Chemscore.Hbonds>
donor molecule, donor type, donor heavy atom, donor atom, acceptor molecule, acceptor atom, score
      P1  H  7997  8009       L1    15  0.17

> <Gold.Chemscore.Hbond.Weighted>
-2.8280

> <Gold.Chemscore.Metal.Weighted>
-0.0000

> <Gold.Chemscore.Lipo.Weighted>
-9.9921

> <Gold.Chemscore.Internal_Hbond.Weighted>
0.0000

> <Gold.Chemscore.DEClash.Weighted>
0.5858

> <Gold.Chemscore.DEInternal.Weighted>
0.4187

> <Gold.Chemscore.Rot.Weighted>
4.1452

> <Gold.Chemscore.Internal.Correction.Weighted>
   9.000000E+99

> <Gold.Protein.RotatedTorsions>
[ 6907 6896 6895 6894 ] final  -54.94 input  -60.11 | X-H torsion
[ 7974 7965 7964 7962 ] final -158.22 input  175.53 | X-H torsion
[ 8008 7997 7996 7995 ] final  173.36 input   59.86 | X-H torsion
[ 10167 10162 10161 10158 ] final    0.80 input  -65.29 | X-H torsion
[ 10718 10713 10712 10709 ] final   11.18 input   66.30 | X-H torsion
[ 10763 10752 10751 10750 ] final  138.11 input  -60.55 | X-H torsion
[ 11005 11000 10999 10996 ] final -142.18 input  -57.11 | X-H torsion

> <Gold.Protein.ActiveResidues>
 VAL166  LYS551  ARG553  GLY616  TRP617  ASP618  TYR619  PRO620  LYS621  CYS622 
 ASP623  PHE694  ASN695  SER759  ASP760  ASP761  ALA762  ILE779  LEU786  VAL792 
 PHE793  MET794  SER795  GLU796  ALA797  LYS798  CYS799  TRP800  GLU811  SER814 

> <Gold.Protein.RotatedAtoms>
  150.8294  134.7540  159.6840 H   0  0  0  0  0  0  0  0  0  0  0  0  # atno 6907 bound_to 6896
  152.4401  134.5606  159.9903 H   0  0  0  0  0  0  0  0  0  0  0  0  # atno 6908 bound_to 6896
  151.5770  133.3345  159.3037 H   0  0  0  0  0  0  0  0  0  0  0  0  # atno 6909 bound_to 6896
  144.7515  140.3858  143.6045 H   0  0  0  0  0  0  0  0  0  0  0  0  # atno 7974 bound_to 7965
  156.1083  140.1462  156.9373 H   0  0  0  0  0  0  0  0  0  0  0  0  # atno 8008 bound_to 7997
  154.4749  140.0897  156.7281 H   0  0  0  0  0  0  0  0  0  0  0  0  # atno 8009 bound_to 7997
  155.4640  140.3439  155.4319 H   0  0  0  0  0  0  0  0  0  0  0  0  # atno 8010 bound_to 7997
  140.6712  143.7043  150.7927 H   0  0  0  0  0  0  0  0  0  0  0  0  # atno 10167 bound_to 10162
  156.9918  130.6045  149.5686 H   0  0  0  0  0  0  0  0  0  0  0  0  # atno 10718 bound_to 10713
  153.8842  135.3040  155.3446 H   0  0  0  0  0  0  0  0  0  0  0  0  # atno 10763 bound_to 10752
  154.7747  135.4867  153.9723 H   0  0  0  0  0  0  0  0  0  0  0  0  # atno 10764 bound_to 10752
  153.1334  135.6809  153.9239 H   0  0  0  0  0  0  0  0  0  0  0  0  # atno 10765 bound_to 10752
  140.8250  134.2585  157.4883 H   0  0  0  0  0  0  0  0  0  0  0  0  # atno 11005 bound_to 11000
  145.6929  139.1643  143.2636 LP  0  0  0  0  0  0  0  0  0  0  0  0  # atno 17320 bound_to 7965
  146.1470  140.6978  142.9340 LP  0  0  0  0  0  0  0  0  0  0  0  0  # atno 17321 bound_to 7965
  140.0729  143.5044  152.2570 LP  0  0  0  0  0  0  0  0  0  0  0  0  # atno 17342 bound_to 10162
  139.5981  144.7574  151.3236 LP  0  0  0  0  0  0  0  0  0  0  0  0  # atno 17343 bound_to 10162
  156.0204  130.5299  150.8259 LP  0  0  0  0  0  0  0  0  0  0  0  0  # atno 17370 bound_to 10713
  157.5453  131.0942  150.9770 LP  0  0  0  0  0  0  0  0  0  0  0  0  # atno 17371 bound_to 10713
  139.8707  134.9556  156.4211 LP  0  0  0  0  0  0  0  0  0  0  0  0  # atno 17394 bound_to 11000
  140.9058  133.7746  155.9734 LP  0  0  0  0  0  0  0  0  0  0  0  0  # atno 17395 bound_to 11000

$$$$
