AV-unprocessed.smi:290|AV-procd|sdf|2219|dock8
  -GOLD-   2262022 63D 1   1.00000     0.00000
 Structure written by MMmdl.
 59 62  0  0  0  0  0  0  0  0  2 V2000
  152.4962  144.9144  157.9240 C   0  0  0  0  0  0  0  0  0  0  0  0
  151.9978  143.9997  159.0536 C   0  0  2  0  0  0  0  0  0  0  0  0
  153.0805  143.8004  159.9589 O   0  0  0  0  0  0  0  0  0  0  0  0
  152.9394  142.5280  160.5647 C   0  0  0  0  0  0  0  0  0  0  0  0
  152.4854  141.6624  159.3997 C   0  0  0  0  0  0  0  0  0  0  0  0
  151.5211  142.5761  158.6472 C   0  0  1  0  0  0  0  0  0  0  0  0
  150.2287  142.3807  159.1968 O   0  0  0  0  0  0  0  0  0  0  0  0
  151.4490  142.2808  157.1256 C   0  0  0  0  0  0  0  0  0  0  0  0
  150.8797  140.9781  156.8165 N   0  0  0  0  0  0  0  0  0  0  0  0
  151.1889  139.7779  157.4178 C   0  0  0  0  0  0  0  0  0  0  0  0
  150.5330  138.7428  156.9674 N   0  0  0  0  0  0  0  0  0  0  0  0
  149.7167  139.2704  155.9758 C   0  0  0  0  0  0  0  0  0  0  0  0
  148.7534  138.7151  155.0952 C   0  0  0  0  0  0  0  0  0  0  0  0
  148.4526  137.3967  155.1144 N   0  0  0  0  0  0  0  0  0  0  0  0
  149.6061  136.5172  155.1394 C   0  0  0  0  0  0  0  0  0  0  0  0
  149.0771  135.1378  154.7489 C   0  0  0  0  0  0  0  0  0  0  0  0
  147.6892  135.3759  154.1161 C   0  0  2  0  0  0  0  0  0  0  0  0
  147.5474  134.6353  152.8224 N   0  3  1  0  0  0  0  0  0  0  0  0
  147.7164  133.1725  153.0243 C   0  0  0  0  0  0  0  0  0  0  0  0
  146.3266  134.9596  152.0298 C   0  0  0  0  0  0  0  0  0  0  0  0
  146.0759  134.0030  150.8485 C   0  0  0  0  0  0  0  0  0  0  0  0
  145.1643  134.5777  149.9357 O   0  0  0  0  0  0  0  0  0  0  0  0
  147.5824  136.9196  154.0464 C   0  0  1  0  0  0  0  0  0  0  0  0
  146.1503  137.4639  154.2450 C   0  0  0  0  0  0  0  0  0  0  0  0
  148.1210  139.5528  154.2312 N   0  0  0  0  0  0  0  0  0  0  0  0
  148.4210  140.8556  154.2270 C   0  0  0  0  0  0  0  0  0  0  0  0
  149.2976  141.5131  154.9897 N   0  0  0  0  0  0  0  0  0  0  0  0
  149.9258  140.6726  155.8617 C   0  0  0  0  0  0  0  0  0  0  0  0
  146.9272  135.0151  154.8099 H   0  0  0  0  0  0  0  0  0  0  0  0
  147.9850  137.2692  153.0944 H   0  0  0  0  0  0  0  0  0  0  0  0
  151.7077  145.1190  157.1998 H   0  0  0  0  0  0  0  0  0  0  0  0
  153.3421  144.4752  157.3951 H   0  0  0  0  0  0  0  0  0  0  0  0
  152.8259  145.8730  158.3254 H   0  0  0  0  0  0  0  0  0  0  0  0
  151.2085  144.5244  159.5956 H   0  0  0  0  0  0  0  0  0  0  0  0
  153.8740  142.1849  161.0082 H   0  0  0  0  0  0  0  0  0  0  0  0
  152.1782  142.5712  161.3451 H   0  0  0  0  0  0  0  0  0  0  0  0
  153.3506  141.4343  158.7760 H   0  0  0  0  0  0  0  0  0  0  0  0
  152.0439  140.7156  159.7139 H   0  0  0  0  0  0  0  0  0  0  0  0
  150.2500  142.6247  160.1098 H   0  0  0  0  0  0  0  0  0  0  0  0
  150.8562  143.0412  156.6156 H   0  0  0  0  0  0  0  0  0  0  0  0
  152.4445  142.3163  156.6822 H   0  0  0  0  0  0  0  0  0  0  0  0
  151.9172  139.6940  158.2115 H   0  0  0  0  0  0  0  0  0  0  0  0
  150.3619  136.8443  154.4237 H   0  0  0  0  0  0  0  0  0  0  0  0
  150.0638  136.5041  156.1291 H   0  0  0  0  0  0  0  0  0  0  0  0
  149.7782  134.6546  154.0672 H   0  0  0  0  0  0  0  0  0  0  0  0
  148.9835  134.4988  155.6277 H   0  0  0  0  0  0  0  0  0  0  0  0
  146.8365  132.7420  153.5043 H   0  0  0  0  0  0  0  0  0  0  0  0
  148.5790  132.9457  153.6503 H   0  0  0  0  0  0  0  0  0  0  0  0
  147.8833  132.6534  152.0815 H   0  0  0  0  0  0  0  0  0  0  0  0
  145.4600  134.9634  152.6922 H   0  0  0  0  0  0  0  0  0  0  0  0
  146.4058  135.9574  151.6026 H   0  0  0  0  0  0  0  0  0  0  0  0
  146.9947  133.7242  150.3346 H   0  0  0  0  0  0  0  0  0  0  0  0
  145.6420  133.0731  151.2174 H   0  0  0  0  0  0  0  0  0  0  0  0
  145.6425  134.8811  149.1786 H   0  0  0  0  0  0  0  0  0  0  0  0
  145.4487  137.0917  153.5017 H   0  0  0  0  0  0  0  0  0  0  0  0
  146.1289  138.5522  154.1821 H   0  0  0  0  0  0  0  0  0  0  0  0
  145.7596  137.1866  155.2248 H   0  0  0  0  0  0  0  0  0  0  0  0
  147.8804  141.4582  153.5119 H   0  0  0  0  0  0  0  0  0  0  0  0
  148.3240  134.9378  152.2515 H   0  0  0  0  0  0  0  0  0  0  0  0
  1  2  1  0  0  0  0
  1 31  1  0  0  0  0
  1 32  1  0  0  0  0
  1 33  1  0  0  0  0
  2  6  1  0  0  0  0
  2  3  1  0  0  0  0
  2 34  1  0  0  0  0
  3  4  1  0  0  0  0
  4  5  1  0  0  0  0
  4 35  1  0  0  0  0
  4 36  1  0  0  0  0
  5  6  1  0  0  0  0
  5 37  1  0  0  0  0
  5 38  1  0  0  0  0
  6  7  1  0  0  0  0
  6  8  1  0  0  0  0
  7 39  1  0  0  0  0
  8  9  1  0  0  0  0
  8 40  1  0  0  0  0
  8 41  1  0  0  0  0
  9 28  1  0  0  0  0
  9 10  1  0  0  0  0
 10 11  2  0  0  0  0
 10 42  1  0  0  0  0
 11 12  1  0  0  0  0
 12 28  2  0  0  0  0
 12 13  1  0  0  0  0
 13 14  1  0  0  0  0
 13 25  2  0  0  0  0
 14 23  1  0  0  0  0
 14 15  1  0  0  0  0
 15 16  1  0  0  0  0
 15 43  1  0  0  0  0
 15 44  1  0  0  0  0
 16 17  1  0  0  0  0
 16 45  1  0  0  0  0
 16 46  1  0  0  0  0
 17 29  1  0  0  0  0
 17 18  1  0  0  0  0
 17 23  1  0  0  0  0
 18 19  1  0  0  0  0
 18 20  1  0  0  0  0
 18 59  1  0  0  0  0
 19 47  1  0  0  0  0
 19 48  1  0  0  0  0
 19 49  1  0  0  0  0
 20 21  1  0  0  0  0
 20 50  1  0  0  0  0
 20 51  1  0  0  0  0
 21 22  1  0  0  0  0
 21 52  1  0  0  0  0
 21 53  1  0  0  0  0
 22 54  1  0  0  0  0
 23 30  1  0  0  0  0
 23 24  1  0  0  0  0
 24 55  1  0  0  0  0
 24 56  1  0  0  0  0
 24 57  1  0  0  0  0
 25 26  1  0  0  0  0
 26 27  2  0  0  0  0
 26 58  1  0  0  0  0
 27 28  1  0  0  0  0
M  CHG  1  18   1
M  END
> <s_m_source_file>
AV-unprocessed.smi

> <i_m_source_file_index>
290

> <i_lp_mmshare_version>
43012

> <i_f3d_flags>
0

> <s_epik_input>
W0NIMl0xW0NIMl1PW0NAQEhdKFtDSDNdKVtDQEBdMShbT0hdKVtDSDJdbihbY0hdbjIpYyhjMjMpbltjSF1uYzNONFtDSDJdW0NIMl1bQ0BIXShbQ0BIXTRbQ0gzXSlOKFtDSDNdKVtDSDJdW0NIMl1bT0hd

> <s_epik_cmdline>
J2VwaWtfcHl0aG9uJywgJy1waCcsICc3LjAnLCAnLXRuJywgJzgnLCAnLW1hJywgJzIwMCcsICctbWV0YWxfYmluZGluZycsICctaW1hZScsICc8aW5maWxlLm1hZT4nLCAnLW9tYWUnLCAnPG91dGZpbGUubWFlPic=

> <r_lp_tautomer_probability>
1

> <r_epik_Ionization_Penalty>
0.0036983

> <r_epik_Ionization_Penalty_Charging>
0.0032725

> <r_epik_Ionization_Penalty_Neutral>
0.000425798

> <r_epik_State_Penalty>
-0

> <r_epik_Charging_Adjusted_Penalty>
0.0032725

> <i_epik_Tot_Q>
1

> <i_epik_Tot_abs_Q>
1

> <r_epik_Metal_State_Penalty>
-0

> <b_epik_Metal_Only>
0

> <s_lp_Force_Field>
OPLS_2005

> <r_lp_Energy>
64.8136

> <b_lp_Chiralities_Consistent>
1

> <s_lp_Variant>
AV-unprocessed.smi:290-5

> <Gold.Version>
5.8.1

> <Gold.Id.Protein>
6NUR|6NUR_protein|mol2

> <Gold.PLP.Fitness>
47.6769

> <Gold.PLP.PLP>
-39.7636

> <Gold.PLP.part.hbond>
-3.0006

> <Gold.PLP.part.metal>
0.0000

> <Gold.PLP.part.buried>
-7.2010

> <Gold.PLP.part.nonpolar>
-30.8230

> <Gold.PLP.part.repulsive>
0.4782

> <Gold.PLP.ligand.clash>
0.0000

> <Gold.PLP.ligand.torsion>
0.6453

> <Gold.PLP.Chemscore.Hbond>
3.0000

> <Gold.PLP.Chemscore.CHOScore>
0.0000

> <Gold.PLP.Chemscore.Metal>
0.0000

> <Gold.Chemscore.Hbonds>
donor molecule, donor type, donor heavy atom, donor atom, acceptor molecule, acceptor atom, score
      L1  H    18    59       P1  7948  1.22
      L1  H    22    54       P1  7921  1.00

> <Gold.PLP.Chemscore.Internal.Correction>
0.2039

> <Gold.Rescore>
     Score         DG    S(hbond)    S(metal)    S(lipo)     H(rot)  DE(clash)    DE(int)     intcor
      9.62     -13.29       1.99        0.00      90.14       3.67       0.02       3.64       ----

> <Gold.Chemscore.Fitness>
9.6203

> <Gold.Chemscore.DG>
-13.2852

> <Gold.Chemscore.ZeroCoef>
-5.4800

> <Gold.Chemscore.Hbond>
1.9888

> <Gold.Chemscore.Metal>
0.0000

> <Gold.Chemscore.Lipo>
90.1441

> <Gold.Chemscore.Internal_Hbond>
0.0000

> <Gold.Chemscore.DEClash>
0.0247

> <Gold.Chemscore.DEInternal>
3.6401

> <Gold.Chemscore.Rot>
3.6658

> <Gold.Chemscore.Internal.Correction>
   9.000000E+99

> <Gold.Chemscore.Hbonds>
donor molecule, donor type, donor heavy atom, donor atom, acceptor molecule, acceptor atom, score
      L1  H    18    59       P1  7948  0.18
      L1  H    22    54       P1  7921  0.96

> <Gold.Chemscore.Hbond.Weighted>
-6.6427

> <Gold.Chemscore.Metal.Weighted>
-0.0000

> <Gold.Chemscore.Lipo.Weighted>
-10.5469

> <Gold.Chemscore.Internal_Hbond.Weighted>
0.0000

> <Gold.Chemscore.DEClash.Weighted>
0.0247

> <Gold.Chemscore.DEInternal.Weighted>
3.6401

> <Gold.Chemscore.Rot.Weighted>
9.3844

> <Gold.Chemscore.Internal.Correction.Weighted>
   9.000000E+99

> <Gold.Protein.RotatedTorsions>
[ 6907 6896 6895 6894 ] final -133.30 input  -60.11 | X-H torsion
[ 7974 7965 7964 7962 ] final  103.73 input  175.53 | X-H torsion
[ 8008 7997 7996 7995 ] final   88.01 input   59.86 | X-H torsion
[ 10167 10162 10161 10158 ] final -154.93 input  -65.29 | X-H torsion
[ 10718 10713 10712 10709 ] final  139.73 input   66.30 | X-H torsion
[ 10763 10752 10751 10750 ] final -149.64 input  -60.55 | X-H torsion
[ 11005 11000 10999 10996 ] final  -44.96 input  -57.11 | X-H torsion

> <Gold.Protein.ActiveResidues>
 VAL166  LYS551  ARG553  GLY616  TRP617  ASP618  TYR619  PRO620  LYS621  CYS622 
 ASP623  PHE694  ASN695  SER759  ASP760  ASP761  ALA762  ILE779  LEU786  VAL792 
 PHE793  MET794  SER795  GLU796  ALA797  LYS798  CYS799  TRP800  GLU811  SER814 

> <Gold.Protein.RotatedAtoms>
  150.9725  133.6329  159.2735 H   0  0  0  0  0  0  0  0  0  0  0  0  # atno 6907 bound_to 6896
  151.3613  135.0903  159.9445 H   0  0  0  0  0  0  0  0  0  0  0  0  # atno 6908 bound_to 6896
  152.5188  133.9298  159.7629 H   0  0  0  0  0  0  0  0  0  0  0  0  # atno 6909 bound_to 6896
  145.3421  139.2460  143.3604 H   0  0  0  0  0  0  0  0  0  0  0  0  # atno 7974 bound_to 7965
  155.9825  140.3376  155.6676 H   0  0  0  0  0  0  0  0  0  0  0  0  # atno 8008 bound_to 7997
  155.6530  140.0707  157.2598 H   0  0  0  0  0  0  0  0  0  0  0  0  # atno 8009 bound_to 7997
  154.4196  140.1722  156.1682 H   0  0  0  0  0  0  0  0  0  0  0  0  # atno 8010 bound_to 7997
  139.6973  143.9321  152.2413 H   0  0  0  0  0  0  0  0  0  0  0  0  # atno 10167 bound_to 10162
  157.4112  131.1028  151.0452 H   0  0  0  0  0  0  0  0  0  0  0  0  # atno 10718 bound_to 10713
  154.8165  135.3304  154.7160 H   0  0  0  0  0  0  0  0  0  0  0  0  # atno 10763 bound_to 10752
  153.7800  135.6919  153.4894 H   0  0  0  0  0  0  0  0  0  0  0  0  # atno 10764 bound_to 10752
  153.1987  135.4524  155.0187 H   0  0  0  0  0  0  0  0  0  0  0  0  # atno 10765 bound_to 10752
  141.0485  133.6752  156.2946 H   0  0  0  0  0  0  0  0  0  0  0  0  # atno 11005 bound_to 11000
  146.3003  140.4020  142.8706 LP  0  0  0  0  0  0  0  0  0  0  0  0  # atno 17320 bound_to 7965
  144.8782  140.7365  143.6003 LP  0  0  0  0  0  0  0  0  0  0  0  0  # atno 17321 bound_to 7965
  139.9154  144.6832  150.8518 LP  0  0  0  0  0  0  0  0  0  0  0  0  # atno 17342 bound_to 10162
  140.7700  143.3413  151.2202 LP  0  0  0  0  0  0  0  0  0  0  0  0  # atno 17343 bound_to 10162
  157.1416  130.6145  149.5557 LP  0  0  0  0  0  0  0  0  0  0  0  0  # atno 17370 bound_to 10713
  155.9851  130.4879  150.7016 LP  0  0  0  0  0  0  0  0  0  0  0  0  # atno 17371 bound_to 10713
  140.6101  134.5467  157.5532 LP  0  0  0  0  0  0  0  0  0  0  0  0  # atno 17394 bound_to 11000
  139.9331  134.7926  156.0877 LP  0  0  0  0  0  0  0  0  0  0  0  0  # atno 17395 bound_to 11000

$$$$
