AV-unprocessed.smi:2520|AV-procd|sdf|9913|dock9
  -GOLD-   2272013553D 1   1.00000     0.00000
 Structure written by MMmdl.
 41 44  0  0  0  0  0  0  0  0  1 V2000
  146.0387  137.3173  154.9532 O   0  0  0  0  0  0  0  0  0  0  0  0
  146.8936  137.0821  154.1011 C   0  0  0  0  0  0  0  0  0  0  0  0
  146.6354  136.2633  153.0590 N   0  0  0  0  0  0  0  0  0  0  0  0
  145.4601  135.5396  152.7001 C   0  0  0  0  0  0  0  0  0  0  0  0
  145.5646  134.7959  151.5050 C   0  0  0  0  0  0  0  0  0  0  0  0
  144.4531  134.0470  151.0826 C   0  0  0  0  0  0  0  0  0  0  0  0
  143.3038  134.0894  151.8900 C   0  0  0  0  0  0  0  0  0  0  0  0
  143.2457  134.8125  153.0288 N   0  0  0  0  0  0  0  0  0  0  0  0
  144.3083  135.5216  153.4231 N   0  0  0  0  0  0  0  0  0  0  0  0
  148.1246  137.6130  154.1454 N   0  0  0  0  0  0  0  0  0  0  0  0
  148.6063  138.5468  155.1672 C   0  0  2  0  0  0  0  0  0  0  0  0
  148.0380  139.9626  155.0294 C   0  0  2  0  0  0  0  0  0  0  0  0
  146.8508  140.5698  154.3729 C   0  0  0  0  0  0  0  0  0  0  0  0
  147.5657  141.8151  153.7856 C   0  0  0  0  0  0  0  0  0  0  0  0
  148.9847  141.5899  153.9824 O   0  0  0  0  0  0  0  0  0  0  0  0
  149.1141  140.1811  153.9858 C   0  0  1  0  0  0  0  0  0  0  0  0
  149.9906  139.2217  154.8259 C   0  0  0  0  0  0  0  0  0  0  0  0
  150.7973  139.8469  155.9824 C   0  0  0  0  0  0  0  0  0  0  0  0
  152.2179  139.2820  155.9388 C   0  0  0  0  0  0  0  0  0  0  0  0
  152.4114  138.8567  154.4909 C   0  0  0  0  0  0  0  0  0  0  0  0
  151.0253  138.3801  154.0673 C   0  0  0  0  0  0  0  0  0  0  0  0
  147.4231  136.1074  152.4470 H   0  0  0  0  0  0  0  0  0  0  0  0
  146.4744  134.7973  150.9222 H   0  0  0  0  0  0  0  0  0  0  0  0
  144.4807  133.4621  150.1754 H   0  0  0  0  0  0  0  0  0  0  0  0
  142.4169  133.5355  151.6200 H   0  0  0  0  0  0  0  0  0  0  0  0
  148.7717  137.3676  153.4094 H   0  0  0  0  0  0  0  0  0  0  0  0
  148.5592  138.1511  156.1829 H   0  0  0  0  0  0  0  0  0  0  0  0
  148.2469  140.5036  155.9581 H   0  0  0  0  0  0  0  0  0  0  0  0
  146.4380  139.9305  153.5916 H   0  0  0  0  0  0  0  0  0  0  0  0
  146.0617  140.8299  155.0786 H   0  0  0  0  0  0  0  0  0  0  0  0
  147.3420  141.9256  152.7239 H   0  0  0  0  0  0  0  0  0  0  0  0
  147.2673  142.7333  154.2921 H   0  0  0  0  0  0  0  0  0  0  0  0
  148.8742  139.7753  152.9974 H   0  0  0  0  0  0  0  0  0  0  0  0
  150.8429  140.9305  155.8650 H   0  0  0  0  0  0  0  0  0  0  0  0
  150.3411  139.6591  156.9549 H   0  0  0  0  0  0  0  0  0  0  0  0
  152.9683  139.9995  156.2719 H   0  0  0  0  0  0  0  0  0  0  0  0
  152.2829  138.4068  156.5866 H   0  0  0  0  0  0  0  0  0  0  0  0
  152.7043  139.7188  153.8902 H   0  0  0  0  0  0  0  0  0  0  0  0
  153.1768  138.0889  154.3738 H   0  0  0  0  0  0  0  0  0  0  0  0
  150.9170  137.3279  154.3342 H   0  0  0  0  0  0  0  0  0  0  0  0
  150.9026  138.4433  152.9855 H   0  0  0  0  0  0  0  0  0  0  0  0
  1  2  2  0  0  0  0
  2  3  1  0  0  0  0
  2 10  1  0  0  0  0
  3  4  1  0  0  0  0
  3 22  1  0  0  0  0
  4  9  1  0  0  0  0
  4  5  2  0  0  0  0
  5  6  1  0  0  0  0
  5 23  1  0  0  0  0
  6  7  2  0  0  0  0
  6 24  1  0  0  0  0
  7  8  1  0  0  0  0
  7 25  1  0  0  0  0
  8  9  2  0  0  0  0
 10 11  1  0  0  0  0
 10 26  1  0  0  0  0
 11 17  1  0  0  0  0
 11 12  1  0  0  0  0
 11 27  1  0  0  0  0
 12 16  1  0  0  0  0
 12 13  1  0  0  0  0
 12 28  1  0  0  0  0
 13 14  1  0  0  0  0
 13 29  1  0  0  0  0
 13 30  1  0  0  0  0
 14 15  1  0  0  0  0
 14 31  1  0  0  0  0
 14 32  1  0  0  0  0
 15 16  1  0  0  0  0
 16 17  1  0  0  0  0
 16 33  1  0  0  0  0
 17 21  1  0  0  0  0
 17 18  1  0  0  0  0
 18 19  1  0  0  0  0
 18 34  1  0  0  0  0
 18 35  1  0  0  0  0
 19 20  1  0  0  0  0
 19 36  1  0  0  0  0
 19 37  1  0  0  0  0
 20 21  1  0  0  0  0
 20 38  1  0  0  0  0
 20 39  1  0  0  0  0
 21 40  1  0  0  0  0
 21 41  1  0  0  0  0
M  END
> <s_m_source_file>
AV-unprocessed.smi

> <i_m_source_file_index>
2520

> <i_lp_mmshare_version>
43012

> <i_f3d_flags>
0

> <s_epik_input>
bjFuW2NIXVtjSF1bY0hdYzFbTkhdQyg9TylbTkhdW0NAQEhdMltDQEBIXShbQ0gyXVtDSDJdTzMpW0NASF0zQzI0W0NIMl1bQ0gyXVtDSDJdW0NIMl00

> <s_epik_cmdline>
J2VwaWtfcHl0aG9uJywgJy1waCcsICc3LjAnLCAnLXRuJywgJzgnLCAnLW1hJywgJzIwMCcsICctbWV0YWxfYmluZGluZycsICctaW1hZScsICc8aW5maWxlLm1hZT4nLCAnLW9tYWUnLCAnPG91dGZpbGUubWFlPic=

> <r_lp_tautomer_probability>
1

> <r_epik_Ionization_Penalty>
0.00552561

> <r_epik_Ionization_Penalty_Charging>
0

> <r_epik_Ionization_Penalty_Neutral>
0.00552561

> <r_epik_State_Penalty>
-0

> <r_epik_Charging_Adjusted_Penalty>
0

> <i_epik_Tot_Q>
0

> <i_epik_Tot_abs_Q>
0

> <r_epik_Metal_State_Penalty>
-0

> <b_epik_Metal_Only>
0

> <s_lp_Force_Field>
OPLS_2005

> <r_lp_Energy>
86.2541

> <b_lp_Chiralities_Consistent>
1

> <s_lp_Variant>
AV-unprocessed.smi:2520-7

> <Gold.Version>
5.8.1

> <Gold.Id.Protein>
6NUR|6NUR_protein|mol2

> <Gold.PLP.Fitness>
40.3812

> <Gold.PLP.PLP>
-30.4355

> <Gold.PLP.part.hbond>
-3.3789

> <Gold.PLP.part.metal>
0.0000

> <Gold.PLP.part.buried>
-2.7045

> <Gold.PLP.part.nonpolar>
-24.5182

> <Gold.PLP.part.repulsive>
0.4305

> <Gold.PLP.ligand.clash>
0.0000

> <Gold.PLP.ligand.torsion>
0.1374

> <Gold.PLP.Chemscore.Hbond>
2.5196

> <Gold.PLP.Chemscore.CHOScore>
0.7962

> <Gold.PLP.Chemscore.Metal>
0.0000

> <Gold.Chemscore.Hbonds>
donor molecule, donor type, donor heavy atom, donor atom, acceptor molecule, acceptor atom, score
      L1  H     3    22       P1  7948  1.00
      L1  H    10    26       P1  7948  0.86
      P1  H  8011  8017       L1    15  0.64
      L1  C     7    25       P1 10186  0.55

> <Gold.PLP.Chemscore.Internal.Correction>
0.2731

> <Gold.Rescore>
     Score         DG    S(hbond)    S(metal)    S(lipo)     H(rot)  DE(clash)    DE(int)     intcor
     16.85     -19.38       2.26        0.00      76.10       1.00       1.17       1.36       ----

> <Gold.Chemscore.Fitness>
16.8450

> <Gold.Chemscore.DG>
-19.3806

> <Gold.Chemscore.ZeroCoef>
-5.4800

> <Gold.Chemscore.Hbond>
2.2625

> <Gold.Chemscore.Metal>
0.0000

> <Gold.Chemscore.Lipo>
76.1021

> <Gold.Chemscore.Internal_Hbond>
0.0000

> <Gold.Chemscore.DEClash>
1.1726

> <Gold.Chemscore.DEInternal>
1.3630

> <Gold.Chemscore.Rot>
1.0000

> <Gold.Chemscore.Internal.Correction>
   9.000000E+99

> <Gold.Chemscore.Hbonds>
donor molecule, donor type, donor heavy atom, donor atom, acceptor molecule, acceptor atom, score
      L1  H     3    22       P1  7948  0.99
      L1  H    10    26       P1  7948  0.85
      P1  H  8011  8017       L1    15  0.17

> <Gold.Chemscore.Hbond.Weighted>
-7.5566

> <Gold.Chemscore.Metal.Weighted>
-0.0000

> <Gold.Chemscore.Lipo.Weighted>
-8.9040

> <Gold.Chemscore.Internal_Hbond.Weighted>
0.0000

> <Gold.Chemscore.DEClash.Weighted>
1.1726

> <Gold.Chemscore.DEInternal.Weighted>
1.3630

> <Gold.Chemscore.Rot.Weighted>
2.5600

> <Gold.Chemscore.Internal.Correction.Weighted>
   9.000000E+99

> <Gold.Protein.RotatedTorsions>
[ 6907 6896 6895 6894 ] final  -22.63 input  -60.11 | X-H torsion
[ 7974 7965 7964 7962 ] final -179.65 input  175.53 | X-H torsion
[ 8008 7997 7996 7995 ] final   29.47 input   59.86 | X-H torsion
[ 10167 10162 10161 10158 ] final   18.76 input  -65.29 | X-H torsion
[ 10718 10713 10712 10709 ] final   27.01 input   66.30 | X-H torsion
[ 10763 10752 10751 10750 ] final  -55.63 input  -60.55 | X-H torsion
[ 11005 11000 10999 10996 ] final  -53.51 input  -57.11 | X-H torsion

> <Gold.Protein.ActiveResidues>
 VAL166  LYS551  ARG553  GLY616  TRP617  ASP618  TYR619  PRO620  LYS621  CYS622 
 ASP623  PHE694  ASN695  SER759  ASP760  ASP761  ALA762  ILE779  LEU786  VAL792 
 PHE793  MET794  SER795  GLU796  ALA797  LYS798  CYS799  TRP800  GLU811  SER814 

> <Gold.Protein.RotatedAtoms>
  151.2158  135.0499  159.8929 H   0  0  0  0  0  0  0  0  0  0  0  0  # atno 6907 bound_to 6896
  152.5420  134.0695  159.8198 H   0  0  0  0  0  0  0  0  0  0  0  0  # atno 6908 bound_to 6896
  151.0854  133.5309  159.2650 H   0  0  0  0  0  0  0  0  0  0  0  0  # atno 6909 bound_to 6896
  144.7138  140.0685  143.6430 H   0  0  0  0  0  0  0  0  0  0  0  0  # atno 7974 bound_to 7965
  155.0750  140.3204  155.4619 H   0  0  0  0  0  0  0  0  0  0  0  0  # atno 8008 bound_to 7997
  156.2781  140.2105  156.5823 H   0  0  0  0  0  0  0  0  0  0  0  0  # atno 8009 bound_to 7997
  154.7024  140.0506  157.0458 H   0  0  0  0  0  0  0  0  0  0  0  0  # atno 8010 bound_to 7997
  140.5630  143.9303  150.6656 H   0  0  0  0  0  0  0  0  0  0  0  0  # atno 10167 bound_to 10162
  157.2145  130.6950  149.6243 H   0  0  0  0  0  0  0  0  0  0  0  0  # atno 10718 bound_to 10713
  154.1938  135.6423  153.5067 H   0  0  0  0  0  0  0  0  0  0  0  0  # atno 10763 bound_to 10752
  153.0028  135.5435  154.6387 H   0  0  0  0  0  0  0  0  0  0  0  0  # atno 10764 bound_to 10752
  154.5783  135.2923  155.0731 H   0  0  0  0  0  0  0  0  0  0  0  0  # atno 10765 bound_to 10752
  141.0979  133.6622  156.4183 H   0  0  0  0  0  0  0  0  0  0  0  0  # atno 11005 bound_to 11000
  145.9803  139.2936  143.1046 LP  0  0  0  0  0  0  0  0  0  0  0  0  # atno 17320 bound_to 7965
  145.9018  140.9238  143.0499 LP  0  0  0  0  0  0  0  0  0  0  0  0  # atno 17321 bound_to 7965
  140.2758  143.3423  152.1196 LP  0  0  0  0  0  0  0  0  0  0  0  0  # atno 17342 bound_to 10162
  139.5079  144.6840  151.5935 LP  0  0  0  0  0  0  0  0  0  0  0  0  # atno 17343 bound_to 10162
  155.9687  130.4540  150.5833 LP  0  0  0  0  0  0  0  0  0  0  0  0  # atno 17370 bound_to 10713
  157.3638  131.0754  151.1614 LP  0  0  0  0  0  0  0  0  0  0  0  0  # atno 17371 bound_to 10713
  140.5094  134.6410  157.5278 LP  0  0  0  0  0  0  0  0  0  0  0  0  # atno 17394 bound_to 11000
  139.9822  134.7119  155.9839 LP  0  0  0  0  0  0  0  0  0  0  0  0  # atno 17395 bound_to 11000

$$$$
