AV-unprocessed.smi:102|AV-procd|sdf|957|dock6
  -GOLD-   2262017493D 1   1.00000     0.00000
 Structure written by MMmdl.
 44 45  0  0  0  0  0  0  0  0  1 V2000
  147.8397  132.6604  154.2430 C   0  0  0  0  0  0  0  0  0  0  0  0
  147.7172  133.3051  155.6179 C   0  0  0  0  0  0  0  0  0  0  0  0
  148.7071  133.5048  156.3222 O   0  0  0  0  0  0  0  0  0  0  0  0
  146.4490  133.6059  155.9365 O   0  0  0  0  0  0  0  0  0  0  0  0
  146.1828  134.3683  157.1014 C   0  0  0  0  0  0  0  0  0  0  0  0
  146.4602  135.8560  156.8104 C   0  0  2  0  0  0  0  0  0  0  0  0
  147.7946  136.0008  156.3350 O   0  0  0  0  0  0  0  0  0  0  0  0
  148.6650  136.0952  157.4216 C   0  0  1  0  0  0  0  0  0  0  0  0
  149.8041  137.0188  157.0567 N   0  0  0  0  0  0  0  0  0  0  0  0
  149.7900  137.7007  155.8474 C   0  0  0  0  0  0  0  0  0  0  0  0
  150.7628  138.5666  155.4763 C   0  0  0  0  0  0  0  0  0  0  0  0
  150.6822  139.1852  154.2859 F   0  0  0  0  0  0  0  0  0  0  0  0
  151.8937  138.8383  156.3585 C   0  0  0  0  0  0  0  0  0  0  0  0
  152.8248  139.6018  156.1102 O   0  0  0  0  0  0  0  0  0  0  0  0
  151.8554  138.1479  157.5734 N   0  0  0  0  0  0  0  0  0  0  0  0
  150.8571  137.2563  157.9698 C   0  0  0  0  0  0  0  0  0  0  0  0
  150.9192  136.7219  159.0753 O   0  0  0  0  0  0  0  0  0  0  0  0
  147.8548  136.5907  158.6384 C   0  0  2  0  0  0  0  0  0  0  0  0
  147.8742  135.6068  159.6684 O   0  0  0  0  0  0  0  0  0  0  0  0
  147.7483  135.9748  160.9552 C   0  0  0  0  0  0  0  0  0  0  0  0
  147.2302  134.8465  161.8372 C   0  0  0  0  0  0  0  0  0  0  0  0
  148.0182  137.0818  161.4208 O   0  0  0  0  0  0  0  0  0  0  0  0
  146.4536  136.7571  158.0497 C   0  0  2  0  0  0  0  0  0  0  0  0
  145.3966  136.4517  158.9545 O   0  0  0  0  0  0  0  0  0  0  0  0
  144.1159  136.5301  158.5538 C   0  0  0  0  0  0  0  0  0  0  0  0
  143.1372  136.1899  159.6697 C   0  0  0  0  0  0  0  0  0  0  0  0
  143.7264  136.8407  157.4281 O   0  0  0  0  0  0  0  0  0  0  0  0
  152.6109  138.3137  158.2223 H   0  0  0  0  0  0  0  0  0  0  0  0
  146.8678  132.5961  153.7529 H   0  0  0  0  0  0  0  0  0  0  0  0
  148.2459  131.6531  154.3356 H   0  0  0  0  0  0  0  0  0  0  0  0
  148.5073  133.2452  153.6101 H   0  0  0  0  0  0  0  0  0  0  0  0
  145.1346  134.2280  157.3684 H   0  0  0  0  0  0  0  0  0  0  0  0
  146.7825  134.0110  157.9394 H   0  0  0  0  0  0  0  0  0  0  0  0
  145.7491  136.2249  156.0704 H   0  0  0  0  0  0  0  0  0  0  0  0
  149.1125  135.1137  157.5877 H   0  0  0  0  0  0  0  0  0  0  0  0
  148.9748  137.5388  155.1567 H   0  0  0  0  0  0  0  0  0  0  0  0
  148.2307  137.5460  159.0080 H   0  0  0  0  0  0  0  0  0  0  0  0
  148.0583  134.3667  162.3589 H   0  0  0  0  0  0  0  0  0  0  0  0
  146.7132  134.0939  161.2412 H   0  0  0  0  0  0  0  0  0  0  0  0
  146.5329  135.2355  162.5793 H   0  0  0  0  0  0  0  0  0  0  0  0
  146.3422  137.7838  157.6993 H   0  0  0  0  0  0  0  0  0  0  0  0
  143.4343  136.6770  160.5988 H   0  0  0  0  0  0  0  0  0  0  0  0
  143.1126  135.1127  159.8349 H   0  0  0  0  0  0  0  0  0  0  0  0
  142.1320  136.5235  159.4118 H   0  0  0  0  0  0  0  0  0  0  0  0
  1  2  1  0  0  0  0
  1 29  1  0  0  0  0
  1 30  1  0  0  0  0
  1 31  1  0  0  0  0
  2  3  2  0  0  0  0
  2  4  1  0  0  0  0
  4  5  1  0  0  0  0
  5  6  1  0  0  0  0
  5 32  1  0  0  0  0
  5 33  1  0  0  0  0
  6 23  1  0  0  0  0
  6  7  1  0  0  0  0
  6 34  1  0  0  0  0
  7  8  1  0  0  0  0
  8  9  1  0  0  0  0
  8 18  1  0  0  0  0
  8 35  1  0  0  0  0
  9 16  1  0  0  0  0
  9 10  1  0  0  0  0
 10 11  2  0  0  0  0
 10 36  1  0  0  0  0
 11 12  1  0  0  0  0
 11 13  1  0  0  0  0
 13 14  2  0  0  0  0
 13 15  1  0  0  0  0
 15 28  1  0  0  0  0
 15 16  1  0  0  0  0
 16 17  2  0  0  0  0
 18 19  1  0  0  0  0
 18 23  1  0  0  0  0
 18 37  1  0  0  0  0
 19 20  1  0  0  0  0
 20 21  1  0  0  0  0
 20 22  2  0  0  0  0
 21 38  1  0  0  0  0
 21 39  1  0  0  0  0
 21 40  1  0  0  0  0
 23 24  1  0  0  0  0
 23 41  1  0  0  0  0
 24 25  1  0  0  0  0
 25 26  1  0  0  0  0
 25 27  2  0  0  0  0
 26 42  1  0  0  0  0
 26 43  1  0  0  0  0
 26 44  1  0  0  0  0
M  END
> <s_m_source_file>
AV-unprocessed.smi

> <i_m_source_file_index>
102

> <i_lp_mmshare_version>
43012

> <i_f3d_flags>
0

> <s_epik_input>
W0NIM11DKD1PKU9bQ0gyXVtDQEBIXTFPW0NASF0oW0NAQEhdKE9DKD1PKVtDSDNdKVtDQEhdMU9DKD1PKVtDSDNdKW4yW2NIXWMoRiljKD1PKVtuSF1jMj1P

> <s_epik_cmdline>
J2VwaWtfcHl0aG9uJywgJy1waCcsICc3LjAnLCAnLXRuJywgJzgnLCAnLW1hJywgJzIwMCcsICctbWV0YWxfYmluZGluZycsICctaW1hZScsICc8aW5maWxlLm1hZT4nLCAnLW9tYWUnLCAnPG91dGZpbGUubWFlPic=

> <r_lp_tautomer_probability>
0.999537

> <r_epik_Ionization_Penalty>
0.058267

> <r_epik_Ionization_Penalty_Charging>
0.058267

> <r_epik_Ionization_Penalty_Neutral>
6.57791e-16

> <r_epik_State_Penalty>
0.0503774

> <r_epik_Charging_Adjusted_Penalty>
0.108644

> <i_epik_Tot_Q>
0

> <i_epik_Tot_abs_Q>
0

> <r_epik_Metal_State_Penalty>
2.6644

> <b_epik_Metal_Only>
0

> <s_epik_Chemistry_Notes>
This compound has an ester and may undergo hydrolysis at high or low pH. This compound contains an acetal/aminal-like group ( X-CH(R)-Y where X, Y are N, S, or O) that may be acid/base labile, releasing an aldehyde.

> <s_lp_Force_Field>
OPLS_2005

> <r_lp_Energy>
12.818

> <b_lp_Chiralities_Consistent>
1

> <s_lp_Variant>
AV-unprocessed.smi:102-13

> <Gold.Version>
5.8.1

> <Gold.Id.Protein>
6NUR|6NUR_protein|mol2

> <Gold.PLP.Fitness>
38.4393

> <Gold.PLP.PLP>
-25.5823

> <Gold.PLP.part.hbond>
-5.0130

> <Gold.PLP.part.metal>
0.0000

> <Gold.PLP.part.buried>
-4.9051

> <Gold.PLP.part.nonpolar>
-15.9898

> <Gold.PLP.part.repulsive>
0.1110

> <Gold.PLP.ligand.clash>
0.0000

> <Gold.PLP.ligand.torsion>
0.9558

> <Gold.PLP.Chemscore.Hbond>
4.8720

> <Gold.PLP.Chemscore.CHOScore>
0.0000

> <Gold.PLP.Chemscore.Metal>
0.0000

> <Gold.Chemscore.Hbonds>
donor molecule, donor type, donor heavy atom, donor atom, acceptor molecule, acceptor atom, score
      P1  H  6896  6909       L1    17  1.00
      P1  H  6931  6943       L1    22  1.00
      P1  H  6934  6947       L1    22  0.45
      P1  H  7997  8010       L1    14  0.96

> <Gold.PLP.Chemscore.Internal.Correction>
0.1527

> <Gold.Rescore>
     Score         DG    S(hbond)    S(metal)    S(lipo)     H(rot)  DE(clash)    DE(int)     intcor
     13.06     -14.35       4.73        0.00      29.40       4.05       0.01       1.27       ----

> <Gold.Chemscore.Fitness>
13.0601

> <Gold.Chemscore.DG>
-14.3467

> <Gold.Chemscore.ZeroCoef>
-5.4800

> <Gold.Chemscore.Hbond>
4.7304

> <Gold.Chemscore.Metal>
0.0000

> <Gold.Chemscore.Lipo>
29.4035

> <Gold.Chemscore.Internal_Hbond>
0.0000

> <Gold.Chemscore.DEClash>
0.0135

> <Gold.Chemscore.DEInternal>
1.2731

> <Gold.Chemscore.Rot>
4.0520

> <Gold.Chemscore.Internal.Correction>
   9.000000E+99

> <Gold.Chemscore.Hbonds>
donor molecule, donor type, donor heavy atom, donor atom, acceptor molecule, acceptor atom, score
      P1  H  6896  6909       L1    17  0.98
      P1  H  6931  6943       L1    22  0.98
      P1  H  6934  6947       L1    22  0.45
      P1  H  7997  8010       L1    14  0.92

> <Gold.Chemscore.Hbond.Weighted>
-15.7997

> <Gold.Chemscore.Metal.Weighted>
-0.0000

> <Gold.Chemscore.Lipo.Weighted>
-3.4402

> <Gold.Chemscore.Internal_Hbond.Weighted>
0.0000

> <Gold.Chemscore.DEClash.Weighted>
0.0135

> <Gold.Chemscore.DEInternal.Weighted>
1.2731

> <Gold.Chemscore.Rot.Weighted>
10.3732

> <Gold.Chemscore.Internal.Correction.Weighted>
   9.000000E+99

> <Gold.Protein.RotatedTorsions>
[ 6907 6896 6895 6894 ] final  105.83 input  -60.11 | X-H torsion
[ 7974 7965 7964 7962 ] final   98.28 input  175.53 | X-H torsion
[ 8008 7997 7996 7995 ] final  101.71 input   59.86 | X-H torsion
[ 10167 10162 10161 10158 ] final   -8.45 input  -65.29 | X-H torsion
[ 10718 10713 10712 10709 ] final  146.79 input   66.30 | X-H torsion
[ 10763 10752 10751 10750 ] final -153.35 input  -60.55 | X-H torsion
[ 11005 11000 10999 10996 ] final -118.19 input  -57.11 | X-H torsion

> <Gold.Protein.ActiveResidues>
 VAL166  LYS551  ARG553  GLY616  TRP617  ASP618  TYR619  PRO620  LYS621  CYS622 
 ASP623  PHE694  ASN695  SER759  ASP760  ASP761  ALA762  ILE779  LEU786  VAL792 
 PHE793  MET794  SER795  GLU796  ALA797  LYS798  CYS799  TRP800  GLU811  SER814 

> <Gold.Protein.RotatedAtoms>
  152.5216  133.9471  159.7653 H   0  0  0  0  0  0  0  0  0  0  0  0  # atno 6907 bound_to 6896
  150.9789  133.6258  159.2733 H   0  0  0  0  0  0  0  0  0  0  0  0  # atno 6908 bound_to 6896
  151.3442  135.0876  159.9434 H   0  0  0  0  0  0  0  0  0  0  0  0  # atno 6909 bound_to 6896
  145.4143  139.2329  143.3231 H   0  0  0  0  0  0  0  0  0  0  0  0  # atno 7974 bound_to 7965
  156.1325  140.3193  155.8371 H   0  0  0  0  0  0  0  0  0  0  0  0  # atno 8008 bound_to 7997
  155.4305  140.0518  157.3036 H   0  0  0  0  0  0  0  0  0  0  0  0  # atno 8009 bound_to 7997
  154.4911  140.2092  155.9560 H   0  0  0  0  0  0  0  0  0  0  0  0  # atno 8010 bound_to 7997
  140.7059  143.5967  150.8838 H   0  0  0  0  0  0  0  0  0  0  0  0  # atno 10167 bound_to 10162
  157.3289  131.0917  151.1179 H   0  0  0  0  0  0  0  0  0  0  0  0  # atno 10718 bound_to 10713
  154.7933  135.3215  154.7726 H   0  0  0  0  0  0  0  0  0  0  0  0  # atno 10763 bound_to 10752
  153.8410  135.6871  153.4807 H   0  0  0  0  0  0  0  0  0  0  0  0  # atno 10764 bound_to 10752
  153.1613  135.4659  154.9717 H   0  0  0  0  0  0  0  0  0  0  0  0  # atno 10765 bound_to 10752
  141.0303  133.9991  157.3153 H   0  0  0  0  0  0  0  0  0  0  0  0  # atno 11005 bound_to 11000
  146.2689  140.4859  142.8822 LP  0  0  0  0  0  0  0  0  0  0  0  0  # atno 17320 bound_to 7965
  144.8288  140.6672  143.6305 LP  0  0  0  0  0  0  0  0  0  0  0  0  # atno 17321 bound_to 7965
  139.9692  143.6076  152.2979 LP  0  0  0  0  0  0  0  0  0  0  0  0  # atno 17342 bound_to 10162
  139.6656  144.7662  151.1879 LP  0  0  0  0  0  0  0  0  0  0  0  0  # atno 17343 bound_to 10162
  157.2435  130.6580  149.5900 LP  0  0  0  0  0  0  0  0  0  0  0  0  # atno 17370 bound_to 10713
  155.9693  130.4561  150.5912 LP  0  0  0  0  0  0  0  0  0  0  0  0  # atno 17371 bound_to 10713
  139.9203  135.0200  156.8040 LP  0  0  0  0  0  0  0  0  0  0  0  0  # atno 17394 bound_to 11000
  140.6418  133.9811  155.7711 LP  0  0  0  0  0  0  0  0  0  0  0  0  # atno 17395 bound_to 11000

$$$$
