AV-unprocessed.smi:766|AV-procd|sdf|3653|dock2
  -GOLD-   22720 1 63D 1   1.00000     0.00000
 Structure written by MMmdl.
 48 50  0  0  0  0  0  0  0  0  3 V2000
  151.9281  145.1584  160.4295 C   0  0  0  0  0  0  0  0  0  0  0  0
  151.7879  143.9267  159.5510 C   0  0  0  0  0  0  0  0  0  0  0  0
  151.2170  144.0757  158.2672 C   0  0  0  0  0  0  0  0  0  0  0  0
  151.1050  142.9318  157.4862 C   0  0  0  0  0  0  0  0  0  0  0  0
  150.5940  142.7513  156.1994 N   0  3  0  0  0  0  0  0  0  0  0  0
  150.6991  141.4400  155.8483 C   0  0  0  0  0  0  0  0  0  0  0  0
  151.2673  140.7785  156.8935 N   0  0  0  0  0  0  0  0  0  0  0  0
  151.6098  139.3546  157.0258 C   0  0  0  0  0  0  0  0  0  0  0  0
  151.9973  138.7031  155.6838 C   0  0  2  0  0  0  0  0  0  0  0  0
  153.0070  139.4701  155.0573 O   0  0  0  0  0  0  0  0  0  0  0  0
  150.7965  138.5997  154.7289 C   0  0  0  0  0  0  0  0  0  0  0  0
  150.9084  137.4154  153.8548 N   0  3  0  0  0  0  0  0  0  0  0  0
  150.9374  136.1293  154.5797 C   0  0  0  0  0  0  0  0  0  0  0  0
  149.5199  135.5646  154.7869 C   0  0  0  0  0  0  0  0  0  0  0  0
  149.3814  134.1769  154.3730 N   0  0  0  0  0  0  0  0  0  0  0  0
  148.8057  133.6869  153.2190 C   0  0  0  0  0  0  0  0  0  0  0  0
  148.9322  132.3276  153.2447 C   0  0  0  0  0  0  0  0  0  0  0  0
  149.6236  132.0754  154.4620 C   0  0  0  0  0  0  0  0  0  0  0  0
  149.8989  133.1840  155.1299 N   0  0  0  0  0  0  0  0  0  0  0  0
  151.5379  141.6701  157.9394 C   0  0  0  0  0  0  0  0  0  0  0  0
  152.0997  141.5058  159.2037 C   0  0  0  0  0  0  0  0  0  0  0  0
  152.2224  142.6575  160.0138 C   0  0  0  0  0  0  0  0  0  0  0  0
  152.8314  142.5087  161.3978 C   0  0  0  0  0  0  0  0  0  0  0  0
  151.5381  146.0482  159.9344 H   0  0  0  0  0  0  0  0  0  0  0  0
  152.9763  145.3417  160.6664 H   0  0  0  0  0  0  0  0  0  0  0  0
  151.3789  145.0294  161.3624 H   0  0  0  0  0  0  0  0  0  0  0  0
  150.8828  145.0385  157.9091 H   0  0  0  0  0  0  0  0  0  0  0  0
  150.3899  141.0055  154.9085 H   0  0  0  0  0  0  0  0  0  0  0  0
  152.4483  139.2941  157.7208 H   0  0  0  0  0  0  0  0  0  0  0  0
  150.7837  138.8258  157.5019 H   0  0  0  0  0  0  0  0  0  0  0  0
  152.3952  137.7058  155.8771 H   0  0  0  0  0  0  0  0  0  0  0  0
  153.3561  138.9738  154.3324 H   0  0  0  0  0  0  0  0  0  0  0  0
  149.8731  138.5148  155.3035 H   0  0  0  0  0  0  0  0  0  0  0  0
  150.7130  139.5030  154.1221 H   0  0  0  0  0  0  0  0  0  0  0  0
  150.1115  137.4076  153.2333 H   0  0  0  0  0  0  0  0  0  0  0  0
  151.5338  135.4144  154.0117 H   0  0  0  0  0  0  0  0  0  0  0  0
  151.4383  136.2625  155.5395 H   0  0  0  0  0  0  0  0  0  0  0  0
  149.2381  135.6421  155.8379 H   0  0  0  0  0  0  0  0  0  0  0  0
  148.7975  136.1576  154.2251 H   0  0  0  0  0  0  0  0  0  0  0  0
  148.3572  134.3382  152.4832 H   0  0  0  0  0  0  0  0  0  0  0  0
  148.5897  131.6214  152.5030 H   0  0  0  0  0  0  0  0  0  0  0  0
  149.9349  131.1272  154.8749 H   0  0  0  0  0  0  0  0  0  0  0  0
  152.4276  140.5406  159.5607 H   0  0  0  0  0  0  0  0  0  0  0  0
  153.1140  141.4753  161.6009 H   0  0  0  0  0  0  0  0  0  0  0  0
  152.1199  142.8159  162.1644 H   0  0  0  0  0  0  0  0  0  0  0  0
  153.7274  143.1227  161.4898 H   0  0  0  0  0  0  0  0  0  0  0  0
  151.7490  137.4977  153.3014 H   0  0  0  0  0  0  0  0  0  0  0  0
  150.2049  143.4695  155.6015 H   0  0  0  0  0  0  0  0  0  0  0  0
  1  2  1  0  0  0  0
  1 24  1  0  0  0  0
  1 25  1  0  0  0  0
  1 26  1  0  0  0  0
  2 22  1  0  0  0  0
  2  3  2  0  0  0  0
  3  4  1  0  0  0  0
  3 27  1  0  0  0  0
  4 20  2  0  0  0  0
  4  5  1  0  0  0  0
  5  6  2  0  0  0  0
  5 48  1  0  0  0  0
  6  7  1  0  0  0  0
  6 28  1  0  0  0  0
  7  8  1  0  0  0  0
  7 20  1  0  0  0  0
  8  9  1  0  0  0  0
  8 29  1  0  0  0  0
  8 30  1  0  0  0  0
  9 10  1  0  0  0  0
  9 11  1  0  0  0  0
  9 31  1  0  0  0  0
 10 32  1  0  0  0  0
 11 12  1  0  0  0  0
 11 33  1  0  0  0  0
 11 34  1  0  0  0  0
 12 13  1  0  0  0  0
 12 35  1  0  0  0  0
 12 47  1  0  0  0  0
 13 14  1  0  0  0  0
 13 36  1  0  0  0  0
 13 37  1  0  0  0  0
 14 15  1  0  0  0  0
 14 38  1  0  0  0  0
 14 39  1  0  0  0  0
 15 19  1  0  0  0  0
 15 16  1  0  0  0  0
 16 17  2  0  0  0  0
 16 40  1  0  0  0  0
 17 18  1  0  0  0  0
 17 41  1  0  0  0  0
 18 19  2  0  0  0  0
 18 42  1  0  0  0  0
 20 21  1  0  0  0  0
 21 22  2  0  0  0  0
 21 43  1  0  0  0  0
 22 23  1  0  0  0  0
 23 44  1  0  0  0  0
 23 45  1  0  0  0  0
 23 46  1  0  0  0  0
M  CHG  1   5   1
M  CHG  1  12   1
M  END
> <s_m_source_file>
AV-unprocessed.smi

> <i_m_source_file_index>
766

> <i_lp_mmshare_version>
43012

> <i_f3d_flags>
0

> <s_epik_input>
W0NIM11jKFtjSF0xKWMoW0NIM10pW2NIXWMoYzEyKW4oW2NIXW4yKVtDSDJdW0NASF0oW09IXSlbQ0gyXVtOSF1bQ0gyXVtDSDJdbjNbY0hdW2NIXVtjSF1uMw==

> <s_epik_cmdline>
J2VwaWtfcHl0aG9uJywgJy1waCcsICc3LjAnLCAnLXRuJywgJzgnLCAnLW1hJywgJzIwMCcsICctbWV0YWxfYmluZGluZycsICctaW1hZScsICc8aW5maWxlLm1hZT4nLCAnLW9tYWUnLCAnPG91dGZpbGUubWFlPic=

> <r_lp_tautomer_probability>
1

> <r_epik_Ionization_Penalty>
1.25103

> <r_epik_Ionization_Penalty_Charging>
1.25102

> <r_epik_Ionization_Penalty_Neutral>
6.05394e-06

> <r_epik_State_Penalty>
1.2613

> <r_epik_Charging_Adjusted_Penalty>
2.51232

> <i_epik_Tot_Q>
2

> <i_epik_Tot_abs_Q>
2

> <r_epik_Metal_State_Penalty>
1.33164

> <b_epik_Metal_Only>
0

> <s_lp_Force_Field>
OPLS_2005

> <r_lp_Energy>
19.7351

> <b_lp_Chiralities_Consistent>
1

> <s_lp_Variant>
AV-unprocessed.smi:766-3

> <Gold.Version>
5.8.1

> <Gold.Id.Protein>
6NUR|6NUR_protein|mol2

> <Gold.PLP.Fitness>
67.7280

> <Gold.PLP.PLP>
-54.1764

> <Gold.PLP.part.hbond>
-4.9656

> <Gold.PLP.part.metal>
0.0000

> <Gold.PLP.part.buried>
-4.4905

> <Gold.PLP.part.nonpolar>
-46.2405

> <Gold.PLP.part.repulsive>
0.2086

> <Gold.PLP.ligand.clash>
0.0000

> <Gold.PLP.ligand.torsion>
1.5354

> <Gold.PLP.Chemscore.Hbond>
4.5352

> <Gold.PLP.Chemscore.CHOScore>
0.9393

> <Gold.PLP.Chemscore.Metal>
0.0000

> <Gold.Chemscore.Hbonds>
donor molecule, donor type, donor heavy atom, donor atom, acceptor molecule, acceptor atom, score
      L1  H     5    48       P1  8028  1.57
      L1  H    12    35       P1  7948  1.34
      P1  H  7997  8009       L1    10  1.00
      L1  C    16    40       P1  7948  0.70

> <Gold.PLP.Chemscore.Internal.Correction>
0.1992

> <Gold.Rescore>
     Score         DG    S(hbond)    S(metal)    S(lipo)     H(rot)  DE(clash)    DE(int)     intcor
     17.89     -20.30       2.19        0.00     130.38       3.02       0.04       2.37       ----

> <Gold.Chemscore.Fitness>
17.8879

> <Gold.Chemscore.DG>
-20.3038

> <Gold.Chemscore.ZeroCoef>
-5.4800

> <Gold.Chemscore.Hbond>
2.1879

> <Gold.Chemscore.Metal>
0.0000

> <Gold.Chemscore.Lipo>
130.3845

> <Gold.Chemscore.Internal_Hbond>
0.0000

> <Gold.Chemscore.DEClash>
0.0420

> <Gold.Chemscore.DEInternal>
2.3739

> <Gold.Chemscore.Rot>
3.0229

> <Gold.Chemscore.Internal.Correction>
   9.000000E+99

> <Gold.Chemscore.Hbonds>
donor molecule, donor type, donor heavy atom, donor atom, acceptor molecule, acceptor atom, score
      L1  H     5    48       P1  8028  0.78
      L1  H    12    35       P1  7948  0.13
      P1  H  7997  8009       L1    10  0.45

> <Gold.Chemscore.Hbond.Weighted>
-7.3074

> <Gold.Chemscore.Metal.Weighted>
-0.0000

> <Gold.Chemscore.Lipo.Weighted>
-15.2550

> <Gold.Chemscore.Internal_Hbond.Weighted>
0.0000

> <Gold.Chemscore.DEClash.Weighted>
0.0420

> <Gold.Chemscore.DEInternal.Weighted>
2.3739

> <Gold.Chemscore.Rot.Weighted>
7.7386

> <Gold.Chemscore.Internal.Correction.Weighted>
   9.000000E+99

> <Gold.Protein.RotatedTorsions>
[ 6907 6896 6895 6894 ] final   67.99 input  -60.11 | X-H torsion
[ 7974 7965 7964 7962 ] final -135.13 input  175.53 | X-H torsion
[ 8008 7997 7996 7995 ] final -132.33 input   59.86 | X-H torsion
[ 10167 10162 10161 10158 ] final -151.25 input  -65.29 | X-H torsion
[ 10718 10713 10712 10709 ] final    5.54 input   66.30 | X-H torsion
[ 10763 10752 10751 10750 ] final -174.93 input  -60.55 | X-H torsion
[ 11005 11000 10999 10996 ] final   67.33 input  -57.11 | X-H torsion

> <Gold.Protein.ActiveResidues>
 VAL166  LYS551  ARG553  GLY616  TRP617  ASP618  TYR619  PRO620  LYS621  CYS622 
 ASP623  PHE694  ASN695  SER759  ASP760  ASP761  ALA762  ILE779  LEU786  VAL792 
 PHE793  MET794  SER795  GLU796  ALA797  LYS798  CYS799  TRP800  GLU811  SER814 

> <Gold.Protein.RotatedAtoms>
  152.4590  134.5228  159.9787 H   0  0  0  0  0  0  0  0  0  0  0  0  # atno 6907 bound_to 6896
  151.5281  133.3448  159.2921 H   0  0  0  0  0  0  0  0  0  0  0  0  # atno 6908 bound_to 6896
  150.8545  134.7909  159.7097 H   0  0  0  0  0  0  0  0  0  0  0  0  # atno 6909 bound_to 6896
  144.9041  140.6810  143.5066 H   0  0  0  0  0  0  0  0  0  0  0  0  # atno 7974 bound_to 7965
  155.3271  140.0465  157.3041 H   0  0  0  0  0  0  0  0  0  0  0  0  # atno 8008 bound_to 7997
  154.5348  140.2269  155.8707 H   0  0  0  0  0  0  0  0  0  0  0  0  # atno 8009 bound_to 7997
  156.1824  140.3070  155.9181 H   0  0  0  0  0  0  0  0  0  0  0  0  # atno 8010 bound_to 7997
  139.7283  143.8848  152.2526 H   0  0  0  0  0  0  0  0  0  0  0  0  # atno 10167 bound_to 10162
  156.9088  130.5748  149.5647 H   0  0  0  0  0  0  0  0  0  0  0  0  # atno 10718 bound_to 10713
  154.5904  135.2844  155.0641 H   0  0  0  0  0  0  0  0  0  0  0  0  # atno 10763 bound_to 10752
  154.1944  135.6435  153.5073 H   0  0  0  0  0  0  0  0  0  0  0  0  # atno 10764 bound_to 10752
  153.0119  135.5454  154.6588 H   0  0  0  0  0  0  0  0  0  0  0  0  # atno 10765 bound_to 10752
  139.9777  134.6794  156.0321 H   0  0  0  0  0  0  0  0  0  0  0  0  # atno 11005 bound_to 11000
  145.3566  139.1692  143.4406 LP  0  0  0  0  0  0  0  0  0  0  0  0  # atno 17320 bound_to 7965
  146.3124  140.3624  142.8666 LP  0  0  0  0  0  0  0  0  0  0  0  0  # atno 17321 bound_to 7965
  139.8764  144.7041  150.8928 LP  0  0  0  0  0  0  0  0  0  0  0  0  # atno 17342 bound_to 10162
  140.7767  143.3697  151.1673 LP  0  0  0  0  0  0  0  0  0  0  0  0  # atno 17343 bound_to 10162
  156.0546  130.5609  150.9063 LP  0  0  0  0  0  0  0  0  0  0  0  0  # atno 17370 bound_to 10713
  157.5980  131.0942  150.9008 LP  0  0  0  0  0  0  0  0  0  0  0  0  # atno 17371 bound_to 10713
  141.1453  133.6557  156.3849 LP  0  0  0  0  0  0  0  0  0  0  0  0  # atno 17394 bound_to 11000
  140.5160  134.6350  157.5301 LP  0  0  0  0  0  0  0  0  0  0  0  0  # atno 17395 bound_to 11000

$$$$
