AV-unprocessed.smi:2969|AV-procd|sdf|11330|dock9
  -GOLD-   2272016243D 1   1.00000     0.00000
 Structure written by MMmdl.
 39 39  0  0  0  0  0  0  0  0  2 V2000
  150.3759  140.1128  155.6211 C   0  0  0  0  0  0  0  0  0  0  0  0
  149.3823  140.0383  156.7880 C   0  0  0  0  0  0  0  0  0  0  0  0
  148.2233  139.0410  156.5755 C   0  0  0  0  0  0  0  0  0  0  0  0
  148.5749  137.6553  156.9625 N   0  0  0  0  0  0  0  0  0  0  0  0
  148.0074  137.1104  158.1463 C   0  0  0  0  0  0  0  0  0  0  0  0
  147.1353  137.8870  158.8953 N   0  0  0  0  0  0  0  0  0  0  0  0
  148.3293  135.8484  158.5361 C   0  0  0  0  0  0  0  0  0  0  0  0
  147.7891  135.2539  159.6907 N   0  0  0  0  0  0  0  0  0  0  0  0
  147.1537  133.9378  159.5155 C   0  0  0  0  0  0  0  0  0  0  0  0
  145.9044  133.9972  158.6125 C   0  0  0  0  0  0  0  0  0  0  0  0
  145.2592  132.7344  158.5263 O   0  0  0  0  0  0  0  0  0  0  0  0
  144.0312  132.7604  157.8152 C   0  0  0  0  0  0  0  0  0  0  0  0
  147.9394  135.7952  160.9301 C   0  0  0  0  0  0  0  0  0  0  0  0
  148.4878  136.8874  161.0942 O   0  0  0  0  0  0  0  0  0  0  0  0
  147.4372  135.0430  162.1815 C   0  0  0  0  0  0  0  0  0  0  0  0
  146.1111  134.9197  162.1465 F   0  0  0  0  0  0  0  0  0  0  0  0
  148.0039  133.8392  162.2585 F   0  0  0  0  0  0  0  0  0  0  0  0
  147.7654  135.7295  163.2777 F   0  0  0  0  0  0  0  0  0  0  0  0
  149.2318  135.0540  157.6956 C   0  0  0  0  0  0  0  0  0  0  0  0
  149.5096  133.8967  158.0111 O   0  0  0  0  0  0  0  0  0  0  0  0
  149.7347  135.6406  156.5780 N   0  5  0  0  0  0  0  0  0  0  0  0
  149.4354  136.9150  156.1961 C   0  0  0  0  0  0  0  0  0  0  0  0
  149.9245  137.4135  155.1815 O   0  0  0  0  0  0  0  0  0  0  0  0
  151.1270  140.8819  155.8010 H   0  0  0  0  0  0  0  0  0  0  0  0
  149.8685  140.3541  154.6868 H   0  0  0  0  0  0  0  0  0  0  0  0
  150.9017  139.1675  155.4846 H   0  0  0  0  0  0  0  0  0  0  0  0
  149.9246  139.7948  157.7016 H   0  0  0  0  0  0  0  0  0  0  0  0
  148.9600  141.0307  156.9485 H   0  0  0  0  0  0  0  0  0  0  0  0
  147.3511  139.3713  157.1402 H   0  0  0  0  0  0  0  0  0  0  0  0
  147.8868  139.1036  155.5399 H   0  0  0  0  0  0  0  0  0  0  0  0
  146.8906  138.8287  158.6255 H   0  0  0  0  0  0  0  0  0  0  0  0
  146.6899  137.5286  159.7279 H   0  0  0  0  0  0  0  0  0  0  0  0
  147.8676  133.2364  159.0798 H   0  0  0  0  0  0  0  0  0  0  0  0
  146.9095  133.5274  160.4959 H   0  0  0  0  0  0  0  0  0  0  0  0
  145.2006  134.7639  158.9391 H   0  0  0  0  0  0  0  0  0  0  0  0
  146.2056  134.2680  157.6014 H   0  0  0  0  0  0  0  0  0  0  0  0
  143.6259  131.7504  157.7562 H   0  0  0  0  0  0  0  0  0  0  0  0
  144.1727  133.1225  156.7962 H   0  0  0  0  0  0  0  0  0  0  0  0
  143.2869  133.3856  158.3078 H   0  0  0  0  0  0  0  0  0  0  0  0
  1  2  1  0  0  0  0
  1 24  1  0  0  0  0
  1 25  1  0  0  0  0
  1 26  1  0  0  0  0
  2  3  1  0  0  0  0
  2 27  1  0  0  0  0
  2 28  1  0  0  0  0
  3  4  1  0  0  0  0
  3 29  1  0  0  0  0
  3 30  1  0  0  0  0
  4 22  1  0  0  0  0
  4  5  1  0  0  0  0
  5  6  1  0  0  0  0
  5  7  2  0  0  0  0
  6 31  1  0  0  0  0
  6 32  1  0  0  0  0
  7  8  1  0  0  0  0
  7 19  1  0  0  0  0
  8  9  1  0  0  0  0
  8 13  1  0  0  0  0
  9 10  1  0  0  0  0
  9 33  1  0  0  0  0
  9 34  1  0  0  0  0
 10 11  1  0  0  0  0
 10 35  1  0  0  0  0
 10 36  1  0  0  0  0
 11 12  1  0  0  0  0
 12 37  1  0  0  0  0
 12 38  1  0  0  0  0
 12 39  1  0  0  0  0
 13 14  2  0  0  0  0
 13 15  1  0  0  0  0
 15 16  1  0  0  0  0
 15 17  1  0  0  0  0
 15 18  1  0  0  0  0
 19 20  2  0  0  0  0
 19 21  1  0  0  0  0
 21 22  1  0  0  0  0
 22 23  2  0  0  0  0
M  CHG  1  21  -1
M  END
> <s_m_source_file>
AV-unprocessed.smi

> <i_m_source_file_index>
2969

> <i_lp_mmshare_version>
43012

> <i_f3d_flags>
0

> <s_epik_input>
W0NIM11bQ0gyXVtDSDJdbjFjKFtOSDJdKWMoYyg9TylbbkhdYzE9TylOKEMoPU8pQyhGKShGKUYpW0NIMl1bQ0gyXU9bQ0gzXQ==

> <s_epik_cmdline>
J2VwaWtfcHl0aG9uJywgJy1waCcsICc3LjAnLCAnLXRuJywgJzgnLCAnLW1hJywgJzIwMCcsICctbWV0YWxfYmluZGluZycsICctaW1hZScsICc8aW5maWxlLm1hZT4nLCAnLW9tYWUnLCAnPG91dGZpbGUubWFlPic=

> <r_lp_tautomer_probability>
1

> <r_epik_Ionization_Penalty>
4.29138

> <r_epik_Ionization_Penalty_Charging>
0.0262752

> <r_epik_Ionization_Penalty_Neutral>
4.26511

> <r_epik_State_Penalty>
4.26466

> <r_epik_Charging_Adjusted_Penalty>
4.29094

> <i_epik_Tot_Q>
-1

> <i_epik_Tot_abs_Q>
1

> <r_epik_Metal_State_Penalty>
0.502851

> <b_epik_Metal_Only>
1

> <s_epik_Chemistry_Notes>
This compound has an imine and may undergo hydrolysis.

> <s_lp_Force_Field>
OPLS_2005

> <r_lp_Energy>
42.256

> <b_lp_Chiralities_Consistent>
1

> <s_lp_Variant>
AV-unprocessed.smi:2969-2

> <Gold.Version>
5.8.1

> <Gold.Id.Protein>
6NUR|6NUR_protein|mol2

> <Gold.PLP.Fitness>
31.8212

> <Gold.PLP.PLP>
-26.4009

> <Gold.PLP.part.hbond>
-2.8495

> <Gold.PLP.part.metal>
0.0000

> <Gold.PLP.part.buried>
-3.1214

> <Gold.PLP.part.nonpolar>
-20.4224

> <Gold.PLP.part.repulsive>
0.4935

> <Gold.PLP.ligand.clash>
4.2746

> <Gold.PLP.ligand.torsion>
1.3334

> <Gold.PLP.Chemscore.Hbond>
2.2374

> <Gold.PLP.Chemscore.CHOScore>
0.0000

> <Gold.PLP.Chemscore.Metal>
0.0000

> <Gold.Chemscore.Hbonds>
donor molecule, donor type, donor heavy atom, donor atom, acceptor molecule, acceptor atom, score
      P1  H  6896  6909       L1    20  1.00
      P1  H  6931  6943       L1    14  1.00

> <Gold.PLP.Chemscore.Internal.Correction>
5.6496

> <Gold.Rescore>
     Score         DG    S(hbond)    S(metal)    S(lipo)     H(rot)  DE(clash)    DE(int)     intcor
      5.75     -11.09       2.61        0.00      22.20       2.24       0.09       5.25       ----

> <Gold.Chemscore.Fitness>
5.7487

> <Gold.Chemscore.DG>
-11.0850

> <Gold.Chemscore.ZeroCoef>
-5.4800

> <Gold.Chemscore.Hbond>
2.6146

> <Gold.Chemscore.Metal>
0.0000

> <Gold.Chemscore.Lipo>
22.2036

> <Gold.Chemscore.Internal_Hbond>
0.0000

> <Gold.Chemscore.DEClash>
0.0879

> <Gold.Chemscore.DEInternal>
5.2484

> <Gold.Chemscore.Rot>
2.2366

> <Gold.Chemscore.Internal.Correction>
   9.000000E+99

> <Gold.Chemscore.Hbonds>
donor molecule, donor type, donor heavy atom, donor atom, acceptor molecule, acceptor atom, score
      P1  H  6896  6909       L1    20  0.85
      P1  H  6931  6943       L1    14  0.99
      P1  H  6934  6947       L1    14  0.01

> <Gold.Chemscore.Hbond.Weighted>
-8.7329

> <Gold.Chemscore.Metal.Weighted>
-0.0000

> <Gold.Chemscore.Lipo.Weighted>
-2.5978

> <Gold.Chemscore.Internal_Hbond.Weighted>
0.0000

> <Gold.Chemscore.DEClash.Weighted>
0.0879

> <Gold.Chemscore.DEInternal.Weighted>
5.2484

> <Gold.Chemscore.Rot.Weighted>
5.7257

> <Gold.Chemscore.Internal.Correction.Weighted>
   9.000000E+99

> <Gold.Protein.RotatedTorsions>
[ 6907 6896 6895 6894 ] final   -1.17 input  -60.11 | X-H torsion
[ 7974 7965 7964 7962 ] final  -92.89 input  175.53 | X-H torsion
[ 8008 7997 7996 7995 ] final  147.55 input   59.86 | X-H torsion
[ 10167 10162 10161 10158 ] final  -22.24 input  -65.29 | X-H torsion
[ 10718 10713 10712 10709 ] final  -34.81 input   66.30 | X-H torsion
[ 10763 10752 10751 10750 ] final   60.05 input  -60.55 | X-H torsion
[ 11005 11000 10999 10996 ] final -122.42 input  -57.11 | X-H torsion

> <Gold.Protein.ActiveResidues>
 VAL166  LYS551  ARG553  GLY616  TRP617  ASP618  TYR619  PRO620  LYS621  CYS622 
 ASP623  PHE694  ASN695  SER759  ASP760  ASP761  ALA762  ILE779  LEU786  VAL792 
 PHE793  MET794  SER795  GLU796  ALA797  LYS798  CYS799  TRP800  GLU811  SER814 

> <Gold.Protein.RotatedAtoms>
  151.5503  135.1067  159.9947 H   0  0  0  0  0  0  0  0  0  0  0  0  # atno 6907 bound_to 6896
  152.4494  133.7596  159.6750 H   0  0  0  0  0  0  0  0  0  0  0  0  # atno 6908 bound_to 6896
  150.8419  133.7856  159.3082 H   0  0  0  0  0  0  0  0  0  0  0  0  # atno 6909 bound_to 6896
  145.3938  140.9531  143.2326 H   0  0  0  0  0  0  0  0  0  0  0  0  # atno 7974 bound_to 7965
  156.2821  140.2152  156.5556 H   0  0  0  0  0  0  0  0  0  0  0  0  # atno 8008 bound_to 7997
  154.7255  140.0500  157.0701 H   0  0  0  0  0  0  0  0  0  0  0  0  # atno 8009 bound_to 7997
  155.0422  140.3147  155.4724 H   0  0  0  0  0  0  0  0  0  0  0  0  # atno 8010 bound_to 7997
  140.7285  143.4553  151.0458 H   0  0  0  0  0  0  0  0  0  0  0  0  # atno 10167 bound_to 10162
  156.3462  130.4301  149.7744 H   0  0  0  0  0  0  0  0  0  0  0  0  # atno 10718 bound_to 10713
  152.9910  135.5550  154.5812 H   0  0  0  0  0  0  0  0  0  0  0  0  # atno 10763 bound_to 10752
  154.5193  135.2807  155.1279 H   0  0  0  0  0  0  0  0  0  0  0  0  # atno 10764 bound_to 10752
  154.2639  135.6376  153.5337 H   0  0  0  0  0  0  0  0  0  0  0  0  # atno 10765 bound_to 10752
  140.9996  134.0421  157.3554 H   0  0  0  0  0  0  0  0  0  0  0  0  # atno 11005 bound_to 11000
  144.8422  139.5454  143.6895 LP  0  0  0  0  0  0  0  0  0  0  0  0  # atno 17320 bound_to 7965
  146.2785  139.6815  142.9246 LP  0  0  0  0  0  0  0  0  0  0  0  0  # atno 17321 bound_to 7965
  139.8232  143.7791  152.3177 LP  0  0  0  0  0  0  0  0  0  0  0  0  # atno 17342 bound_to 10162
  139.7881  144.7420  150.9994 LP  0  0  0  0  0  0  0  0  0  0  0  0  # atno 17343 bound_to 10162
  156.4962  130.8108  151.3114 LP  0  0  0  0  0  0  0  0  0  0  0  0  # atno 17370 bound_to 10713
  157.7454  130.9959  150.2762 LP  0  0  0  0  0  0  0  0  0  0  0  0  # atno 17371 bound_to 10713
  139.9032  135.0171  156.7366 LP  0  0  0  0  0  0  0  0  0  0  0  0  # atno 17394 bound_to 11000
  140.6910  133.9390  155.7966 LP  0  0  0  0  0  0  0  0  0  0  0  0  # atno 17395 bound_to 11000

$$$$
