AV-unprocessed.smi:1176|AV-procd|sdf|4953|dock7
  -GOLD-   22720 3543D 1   1.00000     0.00000
 Structure written by MMmdl.
 50 51  0  0  0  0  0  0  0  0  2 V2000
  143.7419  132.6422  151.0018 C   0  0  0  0  0  0  0  0  0  0  0  0
  145.0681  133.1037  150.3788 C   0  0  0  0  0  0  0  0  0  0  0  0
  145.5435  132.0947  149.3201 C   0  0  0  0  0  0  0  0  0  0  0  0
  146.1318  133.3317  151.4746 C   0  0  0  0  0  0  0  0  0  0  0  0
  145.7593  134.4058  152.4317 N   0  3  2  0  0  0  0  0  0  0  0  0
  145.4107  135.6770  151.7457 C   0  0  0  0  0  0  0  0  0  0  0  0
  144.8958  136.7320  152.7440 C   0  0  0  0  0  0  0  0  0  0  0  0
  145.8998  136.9874  153.8811 C   0  0  2  0  0  0  0  0  0  0  0  0
  147.0697  137.6973  153.3666 N   0  0  0  0  0  0  0  0  0  0  0  0
  147.5276  138.8777  153.8099 C   0  0  0  0  0  0  0  0  0  0  0  0
  146.9789  139.5285  154.6982 O   0  0  0  0  0  0  0  0  0  0  0  0
  148.8027  139.4013  153.1436 C   0  0  0  0  0  0  0  0  0  0  0  0
  149.9242  139.4215  154.0898 N   0  0  0  0  0  0  0  0  0  0  0  0
  150.8459  138.3904  154.0652 C   0  0  0  0  0  0  0  0  0  0  0  0
  151.8923  138.3043  154.9144 C   0  0  0  0  0  0  0  0  0  0  0  0
  152.1150  139.3252  155.9300 C   0  0  0  0  0  0  0  0  0  0  0  0
  153.0408  139.2808  156.7411 O   0  0  0  0  0  0  0  0  0  0  0  0
  151.1702  140.3772  155.9239 N   0  0  0  0  0  0  0  0  0  0  0  0
  151.3397  141.4143  156.9209 C   0  0  0  0  0  0  0  0  0  0  0  0
  150.0670  140.4548  155.0422 C   0  0  0  0  0  0  0  0  0  0  0  0
  149.2473  141.3742  155.0926 O   0  0  0  0  0  0  0  0  0  0  0  0
  146.2769  135.6416  154.5350 C   0  0  0  0  0  0  0  0  0  0  0  0
  146.7732  134.6195  153.4981 C   0  0  0  0  0  0  0  0  0  0  0  0
  143.8570  131.6923  151.5250 H   0  0  0  0  0  0  0  0  0  0  0  0
  142.9737  132.5100  150.2393 H   0  0  0  0  0  0  0  0  0  0  0  0
  143.3679  133.3738  151.7187 H   0  0  0  0  0  0  0  0  0  0  0  0
  144.8648  134.0473  149.8734 H   0  0  0  0  0  0  0  0  0  0  0  0
  145.7675  131.1257  149.7676 H   0  0  0  0  0  0  0  0  0  0  0  0
  146.4422  132.4427  148.8103 H   0  0  0  0  0  0  0  0  0  0  0  0
  144.7800  131.9383  148.5573 H   0  0  0  0  0  0  0  0  0  0  0  0
  146.3214  132.4096  152.0266 H   0  0  0  0  0  0  0  0  0  0  0  0
  147.0724  133.5878  150.9844 H   0  0  0  0  0  0  0  0  0  0  0  0
  146.2832  136.0527  151.2091 H   0  0  0  0  0  0  0  0  0  0  0  0
  144.6380  135.4910  150.9987 H   0  0  0  0  0  0  0  0  0  0  0  0
  144.6698  137.6631  152.2223 H   0  0  0  0  0  0  0  0  0  0  0  0
  143.9522  136.3881  153.1699 H   0  0  0  0  0  0  0  0  0  0  0  0
  145.4235  137.6258  154.6273 H   0  0  0  0  0  0  0  0  0  0  0  0
  147.5801  137.2509  152.6185 H   0  0  0  0  0  0  0  0  0  0  0  0
  149.0520  138.7811  152.2807 H   0  0  0  0  0  0  0  0  0  0  0  0
  148.6147  140.3975  152.7398 H   0  0  0  0  0  0  0  0  0  0  0  0
  150.7207  137.6068  153.3321 H   0  0  0  0  0  0  0  0  0  0  0  0
  152.5721  137.4679  154.8438 H   0  0  0  0  0  0  0  0  0  0  0  0
  150.7765  142.3071  156.6498 H   0  0  0  0  0  0  0  0  0  0  0  0
  152.3978  141.6783  156.9646 H   0  0  0  0  0  0  0  0  0  0  0  0
  150.9909  141.0031  157.8693 H   0  0  0  0  0  0  0  0  0  0  0  0
  147.0308  135.7809  155.3102 H   0  0  0  0  0  0  0  0  0  0  0  0
  145.4018  135.2346  155.0432 H   0  0  0  0  0  0  0  0  0  0  0  0
  146.9914  133.6825  154.0085 H   0  0  0  0  0  0  0  0  0  0  0  0
  147.7105  134.9576  153.0528 H   0  0  0  0  0  0  0  0  0  0  0  0
  144.9132  134.0956  152.8879 H   0  0  0  0  0  0  0  0  0  0  0  0
  1  2  1  0  0  0  0
  1 24  1  0  0  0  0
  1 25  1  0  0  0  0
  1 26  1  0  0  0  0
  2  3  1  0  0  0  0
  2  4  1  0  0  0  0
  2 27  1  0  0  0  0
  3 28  1  0  0  0  0
  3 29  1  0  0  0  0
  3 30  1  0  0  0  0
  4  5  1  0  0  0  0
  4 31  1  0  0  0  0
  4 32  1  0  0  0  0
  5 23  1  0  0  0  0
  5  6  1  0  0  0  0
  5 50  1  0  0  0  0
  6  7  1  0  0  0  0
  6 33  1  0  0  0  0
  6 34  1  0  0  0  0
  7  8  1  0  0  0  0
  7 35  1  0  0  0  0
  7 36  1  0  0  0  0
  8  9  1  0  0  0  0
  8 22  1  0  0  0  0
  8 37  1  0  0  0  0
  9 10  1  0  0  0  0
  9 38  1  0  0  0  0
 10 11  2  0  0  0  0
 10 12  1  0  0  0  0
 12 13  1  0  0  0  0
 12 39  1  0  0  0  0
 12 40  1  0  0  0  0
 13 20  1  0  0  0  0
 13 14  1  0  0  0  0
 14 15  2  0  0  0  0
 14 41  1  0  0  0  0
 15 16  1  0  0  0  0
 15 42  1  0  0  0  0
 16 17  2  0  0  0  0
 16 18  1  0  0  0  0
 18 19  1  0  0  0  0
 18 20  1  0  0  0  0
 19 43  1  0  0  0  0
 19 44  1  0  0  0  0
 19 45  1  0  0  0  0
 20 21  2  0  0  0  0
 22 23  1  0  0  0  0
 22 46  1  0  0  0  0
 22 47  1  0  0  0  0
 23 48  1  0  0  0  0
 23 49  1  0  0  0  0
M  CHG  1   5   1
M  END
> <s_m_source_file>
AV-unprocessed.smi

> <i_m_source_file_index>
1176

> <i_lp_mmshare_version>
43012

> <i_f3d_flags>
0

> <s_epik_input>
W0NIM11bQ0hdKFtDSDNdKVtDSDJdTjFbQ0gyXVtDSDJdW0NIXShbQ0gyXVtDSDJdMSlbTkhdQyg9TylbQ0gyXW4yW2NIXVtjSF1jKD1PKW4oW0NIM10pYzI9Tw==

> <s_epik_cmdline>
J2VwaWtfcHl0aG9uJywgJy1waCcsICc3LjAnLCAnLXRuJywgJzgnLCAnLW1hJywgJzIwMCcsICctbWV0YWxfYmluZGluZycsICctaW1hZScsICc8aW5maWxlLm1hZT4nLCAnLW9tYWUnLCAnPG91dGZpbGUubWFlPic=

> <r_lp_tautomer_probability>
1

> <r_epik_Ionization_Penalty>
0.00401429

> <r_epik_Ionization_Penalty_Charging>
0.00401425

> <r_epik_Ionization_Penalty_Neutral>
4.29561e-08

> <r_epik_State_Penalty>
0.00287487

> <r_epik_Charging_Adjusted_Penalty>
0.00688912

> <i_epik_Tot_Q>
1

> <i_epik_Tot_abs_Q>
1

> <r_epik_Metal_State_Penalty>
-0

> <b_epik_Metal_Only>
0

> <s_lp_Force_Field>
OPLS_2005

> <r_lp_Energy>
29.2662

> <b_lp_Chiralities_Consistent>
1

> <s_lp_Variant>
AV-unprocessed.smi:1176-2

> <Gold.Version>
5.8.1

> <Gold.Id.Protein>
6NUR|6NUR_protein|mol2

> <Gold.PLP.Fitness>
45.1253

> <Gold.PLP.PLP>
-36.4352

> <Gold.PLP.part.hbond>
-2.0000

> <Gold.PLP.part.metal>
0.0000

> <Gold.PLP.part.buried>
1.9367

> <Gold.PLP.part.nonpolar>
-34.6996

> <Gold.PLP.part.repulsive>
0.2072

> <Gold.PLP.ligand.clash>
0.0000

> <Gold.PLP.ligand.torsion>
0.3676

> <Gold.PLP.Chemscore.Hbond>
2.0000

> <Gold.PLP.Chemscore.CHOScore>
1.1167

> <Gold.PLP.Chemscore.Metal>
0.0000

> <Gold.Chemscore.Hbonds>
donor molecule, donor type, donor heavy atom, donor atom, acceptor molecule, acceptor atom, score
      L1  H     9    38       P1  7948  1.00
      P1  H  7997  8009       L1    17  1.00
      L1  C    14    41       P1  7948  0.36
      L1  C    14    41       P1  7949  0.76

> <Gold.PLP.Chemscore.Internal.Correction>
0.0754

> <Gold.Rescore>
     Score         DG    S(hbond)    S(metal)    S(lipo)     H(rot)  DE(clash)    DE(int)     intcor
     13.35     -16.92       2.00        0.00      82.73       1.92       2.03       1.54       ----

> <Gold.Chemscore.Fitness>
13.3469

> <Gold.Chemscore.DG>
-16.9167

> <Gold.Chemscore.ZeroCoef>
-5.4800

> <Gold.Chemscore.Hbond>
1.9975

> <Gold.Chemscore.Metal>
0.0000

> <Gold.Chemscore.Lipo>
82.7337

> <Gold.Chemscore.Internal_Hbond>
0.0000

> <Gold.Chemscore.DEClash>
2.0275

> <Gold.Chemscore.DEInternal>
1.5423

> <Gold.Chemscore.Rot>
1.9198

> <Gold.Chemscore.Internal.Correction>
   9.000000E+99

> <Gold.Chemscore.Hbonds>
donor molecule, donor type, donor heavy atom, donor atom, acceptor molecule, acceptor atom, score
      L1  H     9    38       P1  7948  0.99
      P1  H  7997  8009       L1    17  0.93

> <Gold.Chemscore.Hbond.Weighted>
-6.6715

> <Gold.Chemscore.Metal.Weighted>
-0.0000

> <Gold.Chemscore.Lipo.Weighted>
-9.6798

> <Gold.Chemscore.Internal_Hbond.Weighted>
0.0000

> <Gold.Chemscore.DEClash.Weighted>
2.0275

> <Gold.Chemscore.DEInternal.Weighted>
1.5423

> <Gold.Chemscore.Rot.Weighted>
4.9147

> <Gold.Chemscore.Internal.Correction.Weighted>
   9.000000E+99

> <Gold.Protein.RotatedTorsions>
[ 6907 6896 6895 6894 ] final  112.98 input  -60.11 | X-H torsion
[ 7974 7965 7964 7962 ] final  -42.52 input  175.53 | X-H torsion
[ 8008 7997 7996 7995 ] final -166.70 input   59.86 | X-H torsion
[ 10167 10162 10161 10158 ] final   34.55 input  -65.29 | X-H torsion
[ 10718 10713 10712 10709 ] final  144.89 input   66.30 | X-H torsion
[ 10763 10752 10751 10750 ] final   11.08 input  -60.55 | X-H torsion
[ 11005 11000 10999 10996 ] final   42.00 input  -57.11 | X-H torsion

> <Gold.Protein.ActiveResidues>
 VAL166  LYS551  ARG553  GLY616  TRP617  ASP618  TYR619  PRO620  LYS621  CYS622 
 ASP623  PHE694  ASN695  SER759  ASP760  ASP761  ALA762  ILE779  LEU786  VAL792 
 PHE793  MET794  SER795  GLU796  ALA797  LYS798  CYS799  TRP800  GLU811  SER814 

> <Gold.Protein.RotatedAtoms>
  152.4886  133.8440  159.7166 H   0  0  0  0  0  0  0  0  0  0  0  0  # atno 6907 bound_to 6896
  150.8995  133.7127  159.2889 H   0  0  0  0  0  0  0  0  0  0  0  0  # atno 6908 bound_to 6896
  151.4573  135.1039  159.9767 H   0  0  0  0  0  0  0  0  0  0  0  0  # atno 6909 bound_to 6896
  146.0108  140.6966  142.9225 H   0  0  0  0  0  0  0  0  0  0  0  0  # atno 7974 bound_to 7965
  155.8675  140.0988  157.1572 H   0  0  0  0  0  0  0  0  0  0  0  0  # atno 8008 bound_to 7997
  154.3994  140.1353  156.4100 H   0  0  0  0  0  0  0  0  0  0  0  0  # atno 8009 bound_to 7997
  155.7787  140.3459  155.5288 H   0  0  0  0  0  0  0  0  0  0  0  0  # atno 8010 bound_to 7997
  140.4304  144.1332  150.6159 H   0  0  0  0  0  0  0  0  0  0  0  0  # atno 10167 bound_to 10162
  157.3518  131.0952  151.0993 H   0  0  0  0  0  0  0  0  0  0  0  0  # atno 10718 bound_to 10713
  153.1963  135.6850  153.8287 H   0  0  0  0  0  0  0  0  0  0  0  0  # atno 10763 bound_to 10752
  153.7569  135.3215  155.3331 H   0  0  0  0  0  0  0  0  0  0  0  0  # atno 10764 bound_to 10752
  154.8146  135.4694  154.0710 H   0  0  0  0  0  0  0  0  0  0  0  0  # atno 10765 bound_to 10752
  140.1780  134.4139  155.8217 H   0  0  0  0  0  0  0  0  0  0  0  0  # atno 11005 bound_to 11000
  144.6952  140.3395  143.7202 LP  0  0  0  0  0  0  0  0  0  0  0  0  # atno 17320 bound_to 7965
  145.7345  139.1746  143.2411 LP  0  0  0  0  0  0  0  0  0  0  0  0  # atno 17321 bound_to 7965
  140.4433  143.2517  151.9444 LP  0  0  0  0  0  0  0  0  0  0  0  0  # atno 17342 bound_to 10162
  139.4785  144.5633  151.8204 LP  0  0  0  0  0  0  0  0  0  0  0  0  # atno 17343 bound_to 10162
  157.2166  130.6462  149.5794 LP  0  0  0  0  0  0  0  0  0  0  0  0  # atno 17370 bound_to 10713
  155.9723  130.4643  150.6212 LP  0  0  0  0  0  0  0  0  0  0  0  0  # atno 17371 bound_to 10713
  141.2221  133.6987  156.7881 LP  0  0  0  0  0  0  0  0  0  0  0  0  # atno 17394 bound_to 11000
  140.2300  134.8693  157.3466 LP  0  0  0  0  0  0  0  0  0  0  0  0  # atno 17395 bound_to 11000

$$$$
