AV-unprocessed.smi:3147|AV-procd|sdf|11987|dock3
  -GOLD-   2272017393D 1   1.00000     0.00000
 Structure written by MMmdl.
 37 38  0  0  0  0  0  0  0  0  2 V2000
  146.3399  138.6272  152.5778 C   0  0  0  0  0  0  0  0  0  0  0  0
  147.4448  139.3051  153.3160 C   0  0  0  0  0  0  0  0  0  0  0  0
  148.6279  138.6764  153.6026 N   0  3  0  0  0  0  0  0  0  0  0  0
  149.4480  139.4972  154.2606 C   0  0  0  0  0  0  0  0  0  0  0  0
  148.8001  140.6589  154.4020 N   0  0  0  0  0  0  0  0  0  0  0  0
  149.4121  141.8106  155.0832 C   0  0  0  0  0  0  0  0  0  0  0  0
  150.5099  141.3976  156.0697 C   0  0  0  0  0  0  0  0  0  0  0  0
  151.5207  140.8123  155.6789 O   0  0  0  0  0  0  0  0  0  0  0  0
  150.2929  141.7176  157.3540 N   0  0  0  0  0  0  0  0  0  0  0  0
  151.2202  141.4665  158.4534 C   0  0  0  0  0  0  0  0  0  0  0  0
  151.7284  142.7657  159.1065 C   0  0  2  0  0  0  0  0  0  0  0  0
  150.6586  143.8035  159.4472 C   0  0  0  0  0  0  0  0  0  0  0  0
  151.4995  145.0522  159.5892 C   0  0  0  0  0  0  0  0  0  0  0  0
  152.5538  144.8622  158.4989 C   0  0  0  0  0  0  0  0  0  0  0  0
  152.6442  143.4578  158.2638 O   0  0  0  0  0  0  0  0  0  0  0  0
  147.5516  140.5785  153.8257 C   0  0  0  0  0  0  0  0  0  0  0  0
  146.5870  141.7193  153.8060 C   0  0  0  0  0  0  0  0  0  0  0  0
  145.3791  138.8640  153.0356 H   0  0  0  0  0  0  0  0  0  0  0  0
  146.4720  137.5449  152.5926 H   0  0  0  0  0  0  0  0  0  0  0  0
  146.3232  138.9620  151.5404 H   0  0  0  0  0  0  0  0  0  0  0  0
  150.4402  139.2668  154.6058 H   0  0  0  0  0  0  0  0  0  0  0  0
  149.8166  142.4781  154.3213 H   0  0  0  0  0  0  0  0  0  0  0  0
  148.6340  142.3602  155.6147 H   0  0  0  0  0  0  0  0  0  0  0  0
  149.4334  142.1939  157.5864 H   0  0  0  0  0  0  0  0  0  0  0  0
  150.6958  140.8692  159.1994 H   0  0  0  0  0  0  0  0  0  0  0  0
  152.0631  140.8597  158.1189 H   0  0  0  0  0  0  0  0  0  0  0  0
  152.2674  142.5109  160.0205 H   0  0  0  0  0  0  0  0  0  0  0  0
  149.9484  143.9302  158.6295 H   0  0  0  0  0  0  0  0  0  0  0  0
  150.1009  143.5587  160.3515 H   0  0  0  0  0  0  0  0  0  0  0  0
  150.9264  145.9724  159.4730 H   0  0  0  0  0  0  0  0  0  0  0  0
  151.9753  145.0692  160.5709 H   0  0  0  0  0  0  0  0  0  0  0  0
  152.2419  145.3497  157.5752 H   0  0  0  0  0  0  0  0  0  0  0  0
  153.5196  145.2763  158.7891 H   0  0  0  0  0  0  0  0  0  0  0  0
  145.6287  141.4029  153.3944 H   0  0  0  0  0  0  0  0  0  0  0  0
  146.9767  142.5276  153.1875 H   0  0  0  0  0  0  0  0  0  0  0  0
  146.4197  142.0972  154.8148 H   0  0  0  0  0  0  0  0  0  0  0  0
  148.8534  137.7228  153.3488 H   0  0  0  0  0  0  0  0  0  0  0  0
  1  2  1  0  0  0  0
  1 18  1  0  0  0  0
  1 19  1  0  0  0  0
  1 20  1  0  0  0  0
  2 16  2  0  0  0  0
  2  3  1  0  0  0  0
  3  4  2  0  0  0  0
  3 37  1  0  0  0  0
  4  5  1  0  0  0  0
  4 21  1  0  0  0  0
  5  6  1  0  0  0  0
  5 16  1  0  0  0  0
  6  7  1  0  0  0  0
  6 22  1  0  0  0  0
  6 23  1  0  0  0  0
  7  8  2  0  0  0  0
  7  9  1  0  0  0  0
  9 10  1  0  0  0  0
  9 24  1  0  0  0  0
 10 11  1  0  0  0  0
 10 25  1  0  0  0  0
 10 26  1  0  0  0  0
 11 15  1  0  0  0  0
 11 12  1  0  0  0  0
 11 27  1  0  0  0  0
 12 13  1  0  0  0  0
 12 28  1  0  0  0  0
 12 29  1  0  0  0  0
 13 14  1  0  0  0  0
 13 30  1  0  0  0  0
 13 31  1  0  0  0  0
 14 15  1  0  0  0  0
 14 32  1  0  0  0  0
 14 33  1  0  0  0  0
 16 17  1  0  0  0  0
 17 34  1  0  0  0  0
 17 35  1  0  0  0  0
 17 36  1  0  0  0  0
M  CHG  1   3   1
M  END
> <s_m_source_file>
AV-unprocessed.smi

> <i_m_source_file_index>
3147

> <i_lp_mmshare_version>
43012

> <i_f3d_flags>
0

> <s_epik_input>
W0NIM11jMW5bY0hdbihjMVtDSDNdKVtDSDJdQyg9TylbTkhdW0NIMl1bQ0BASF0yW0NIMl1bQ0gyXVtDSDJdTzI=

> <s_epik_cmdline>
J2VwaWtfcHl0aG9uJywgJy1waCcsICc3LjAnLCAnLXRuJywgJzgnLCAnLW1hJywgJzIwMCcsICctbWV0YWxfYmluZGluZycsICctaW1hZScsICc8aW5maWxlLm1hZT4nLCAnLW9tYWUnLCAnPG91dGZpbGUubWFlPic=

> <r_lp_tautomer_probability>
1

> <r_epik_Ionization_Penalty>
0.131257

> <r_epik_Ionization_Penalty_Charging>
0

> <r_epik_Ionization_Penalty_Neutral>
0.131257

> <r_epik_State_Penalty>
0.12065

> <r_epik_Charging_Adjusted_Penalty>
0.12065

> <i_epik_Tot_Q>
1

> <i_epik_Tot_abs_Q>
1

> <r_epik_Metal_State_Penalty>
0.448684

> <b_epik_Metal_Only>
0

> <s_lp_Force_Field>
OPLS_2005

> <r_lp_Energy>
20.508

> <b_lp_Chiralities_Consistent>
1

> <s_lp_Variant>
AV-unprocessed.smi:3147-1

> <Gold.Version>
5.8.1

> <Gold.Id.Protein>
6NUR|6NUR_protein|mol2

> <Gold.PLP.Fitness>
43.3653

> <Gold.PLP.PLP>
-36.9109

> <Gold.PLP.part.hbond>
-3.0000

> <Gold.PLP.part.metal>
0.0000

> <Gold.PLP.part.buried>
2.4088

> <Gold.PLP.part.nonpolar>
-34.8412

> <Gold.PLP.part.repulsive>
0.1116

> <Gold.PLP.ligand.clash>
0.0000

> <Gold.PLP.ligand.torsion>
0.4228

> <Gold.PLP.Chemscore.Hbond>
2.4317

> <Gold.PLP.Chemscore.CHOScore>
0.0000

> <Gold.PLP.Chemscore.Metal>
0.0000

> <Gold.Chemscore.Hbonds>
donor molecule, donor type, donor heavy atom, donor atom, acceptor molecule, acceptor atom, score
      L1  H     3    37       P1  7948  1.62
      P1  H  7989  7998       L1     8  0.43

> <Gold.PLP.Chemscore.Internal.Correction>
0.0049

> <Gold.Rescore>
     Score         DG    S(hbond)    S(metal)    S(lipo)     H(rot)  DE(clash)    DE(int)     intcor
     13.05     -15.57       1.40        0.00      84.79       1.76       0.81       1.71       ----

> <Gold.Chemscore.Fitness>
13.0499

> <Gold.Chemscore.DG>
-15.5683

> <Gold.Chemscore.ZeroCoef>
-5.4800

> <Gold.Chemscore.Hbond>
1.3974

> <Gold.Chemscore.Metal>
0.0000

> <Gold.Chemscore.Lipo>
84.7922

> <Gold.Chemscore.Internal_Hbond>
0.0000

> <Gold.Chemscore.DEClash>
0.8104

> <Gold.Chemscore.DEInternal>
1.7080

> <Gold.Chemscore.Rot>
1.7577

> <Gold.Chemscore.Internal.Correction>
   9.000000E+99

> <Gold.Chemscore.Hbonds>
donor molecule, donor type, donor heavy atom, donor atom, acceptor molecule, acceptor atom, score
      L1  H     3    37       P1  7948  0.77
      P1  H  7989  7998       L1     8  0.32

> <Gold.Chemscore.Hbond.Weighted>
-4.6675

> <Gold.Chemscore.Metal.Weighted>
-0.0000

> <Gold.Chemscore.Lipo.Weighted>
-9.9207

> <Gold.Chemscore.Internal_Hbond.Weighted>
0.0000

> <Gold.Chemscore.DEClash.Weighted>
0.8104

> <Gold.Chemscore.DEInternal.Weighted>
1.7080

> <Gold.Chemscore.Rot.Weighted>
4.4998

> <Gold.Chemscore.Internal.Correction.Weighted>
   9.000000E+99

> <Gold.Protein.RotatedTorsions>
[ 6907 6896 6895 6894 ] final   -6.56 input  -60.11 | X-H torsion
[ 7974 7965 7964 7962 ] final   94.47 input  175.53 | X-H torsion
[ 8008 7997 7996 7995 ] final -176.94 input   59.86 | X-H torsion
[ 10167 10162 10161 10158 ] final   22.59 input  -65.29 | X-H torsion
[ 10718 10713 10712 10709 ] final   20.04 input   66.30 | X-H torsion
[ 10763 10752 10751 10750 ] final   90.80 input  -60.55 | X-H torsion
[ 11005 11000 10999 10996 ] final   46.98 input  -57.11 | X-H torsion

> <Gold.Protein.ActiveResidues>
 VAL166  LYS551  ARG553  GLY616  TRP617  ASP618  TYR619  PRO620  LYS621  CYS622 
 ASP623  PHE694  ASN695  SER759  ASP760  ASP761  ALA762  ILE779  LEU786  VAL792 
 PHE793  MET794  SER795  GLU796  ALA797  LYS798  CYS799  TRP800  GLU811  SER814 

> <Gold.Protein.RotatedAtoms>
  151.4636  135.1040  159.9731 H   0  0  0  0  0  0  0  0  0  0  0  0  # atno 6907 bound_to 6896
  152.4843  133.8329  159.7123 H   0  0  0  0  0  0  0  0  0  0  0  0  # atno 6908 bound_to 6896
  150.8940  133.7145  159.2924 H   0  0  0  0  0  0  0  0  0  0  0  0  # atno 6909 bound_to 6896
  145.4652  139.2285  143.2965 H   0  0  0  0  0  0  0  0  0  0  0  0  # atno 7974 bound_to 7965
  156.0009  140.1220  157.0548 H   0  0  0  0  0  0  0  0  0  0  0  0  # atno 8008 bound_to 7997
  154.4242  140.1107  156.5765 H   0  0  0  0  0  0  0  0  0  0  0  0  # atno 8009 bound_to 7997
  155.6213  140.3472  155.4655 H   0  0  0  0  0  0  0  0  0  0  0  0  # atno 8010 bound_to 7997
  140.5336  143.9798  150.6479 H   0  0  0  0  0  0  0  0  0  0  0  0  # atno 10167 bound_to 10162
  157.1189  130.6541  149.5918 H   0  0  0  0  0  0  0  0  0  0  0  0  # atno 10718 bound_to 10713
  153.2014  135.4420  155.0271 H   0  0  0  0  0  0  0  0  0  0  0  0  # atno 10763 bound_to 10752
  154.8149  135.3311  154.7206 H   0  0  0  0  0  0  0  0  0  0  0  0  # atno 10764 bound_to 10752
  153.7651  135.6989  153.4973 H   0  0  0  0  0  0  0  0  0  0  0  0  # atno 10765 bound_to 10752
  140.1320  134.4694  155.8514 H   0  0  0  0  0  0  0  0  0  0  0  0  # atno 11005 bound_to 11000
  146.2428  140.5424  142.8926 LP  0  0  0  0  0  0  0  0  0  0  0  0  # atno 17320 bound_to 7965
  144.7979  140.6157  143.6498 LP  0  0  0  0  0  0  0  0  0  0  0  0  # atno 17321 bound_to 7965
  140.3180  143.3155  152.0813 LP  0  0  0  0  0  0  0  0  0  0  0  0  # atno 17342 bound_to 10162
  139.4963  144.6592  151.6502 LP  0  0  0  0  0  0  0  0  0  0  0  0  # atno 17343 bound_to 10162
  155.9833  130.4852  150.6926 LP  0  0  0  0  0  0  0  0  0  0  0  0  # atno 17370 bound_to 10713
  157.4494  131.0871  151.0862 LP  0  0  0  0  0  0  0  0  0  0  0  0  # atno 17371 bound_to 10713
  141.2172  133.6799  156.7086 LP  0  0  0  0  0  0  0  0  0  0  0  0  # atno 17394 bound_to 11000
  140.2831  134.8301  157.3950 LP  0  0  0  0  0  0  0  0  0  0  0  0  # atno 17395 bound_to 11000

$$$$
