AV-unprocessed.smi:283|AV-procd|sdf|2128|dock7
  -GOLD-   2262021443D 1   1.00000     0.00000
 Structure written by MMmdl.
 48 51  0  0  0  0  0  0  0  0  1 V2000
  146.8141  132.8589  158.4097 C   0  0  0  0  0  0  0  0  0  0  0  0
  147.8939  133.8571  158.8482 C   0  0  1  0  0  0  0  0  0  0  0  0
  148.0770  134.8697  157.8108 N   0  0  0  0  0  0  0  0  0  0  0  0
  148.2757  134.5285  156.5181 C   0  0  0  0  0  0  0  0  0  0  0  0
  149.5660  134.3229  156.1650 N   0  0  0  0  0  0  0  0  0  0  0  0
  149.8683  133.9646  154.9156 C   0  0  0  0  0  0  0  0  0  0  0  0
  149.0459  133.7617  153.8866 N   0  0  0  0  0  0  0  0  0  0  0  0
  147.7401  133.9705  154.2246 C   0  0  0  0  0  0  0  0  0  0  0  0
  147.2757  134.3678  155.5133 C   0  0  0  0  0  0  0  0  0  0  0  0
  145.8957  134.5187  155.4775 N   0  0  0  0  0  0  0  0  0  0  0  0
  145.5683  134.2079  154.2554 C   0  0  0  0  0  0  0  0  0  0  0  0
  146.6108  133.8456  153.4323 N   0  0  0  0  0  0  0  0  0  0  0  0
  146.4983  133.4341  151.9875 C   0  0  1  0  0  0  0  0  0  0  0  0
  145.5868  132.3838  151.8598 O   0  0  0  0  0  0  0  0  0  0  0  0
  144.3612  132.8355  151.2769 C   0  0  2  0  0  0  0  0  0  0  0  0
  144.0824  132.0072  150.0080 C   0  0  0  0  0  0  0  0  0  0  0  0
  142.8462  132.3399  149.4092 O   0  0  0  0  0  0  0  0  0  0  0  0
  144.4851  134.3541  151.0626 C   0  0  1  0  0  0  0  0  0  0  0  0
  143.8146  135.0394  152.1057 O   0  0  0  0  0  0  0  0  0  0  0  0
  145.9919  134.5790  151.0923 C   0  0  1  0  0  0  0  0  0  0  0  0
  146.3590  135.8879  151.4957 O   0  0  0  0  0  0  0  0  0  0  0  0
  147.5735  134.4100  160.2403 C   0  0  0  0  0  0  0  0  0  0  0  0
  147.2696  133.5247  161.3012 C   0  0  0  0  0  0  0  0  0  0  0  0
  146.9670  134.0175  162.5844 C   0  0  0  0  0  0  0  0  0  0  0  0
  146.9734  135.4032  162.8241 C   0  0  0  0  0  0  0  0  0  0  0  0
  147.2892  136.2929  161.7810 C   0  0  0  0  0  0  0  0  0  0  0  0
  147.5932  135.8049  160.4944 C   0  0  0  0  0  0  0  0  0  0  0  0
  147.9876  136.9450  159.2554 Cl  0  0  0  0  0  0  0  0  0  0  0  0
  147.5065  133.1032  151.7355 H   0  0  0  0  0  0  0  0  0  0  0  0
  143.5552  132.6155  151.9781 H   0  0  0  0  0  0  0  0  0  0  0  0
  144.0479  134.6822  150.1189 H   0  0  0  0  0  0  0  0  0  0  0  0
  146.3947  134.4032  150.0943 H   0  0  0  0  0  0  0  0  0  0  0  0
  146.7216  132.0411  159.1250 H   0  0  0  0  0  0  0  0  0  0  0  0
  147.0542  132.4206  157.4406 H   0  0  0  0  0  0  0  0  0  0  0  0
  145.8388  133.3398  158.3263 H   0  0  0  0  0  0  0  0  0  0  0  0
  148.8313  133.3052  158.8944 H   0  0  0  0  0  0  0  0  0  0  0  0
  148.3034  135.7907  158.1569 H   0  0  0  0  0  0  0  0  0  0  0  0
  150.9180  133.8141  154.7114 H   0  0  0  0  0  0  0  0  0  0  0  0
  144.5420  134.2240  153.9188 H   0  0  0  0  0  0  0  0  0  0  0  0
  144.8861  132.1351  149.2823 H   0  0  0  0  0  0  0  0  0  0  0  0
  144.0514  130.9476  150.2633 H   0  0  0  0  0  0  0  0  0  0  0  0
  142.1992  131.7101  149.6888 H   0  0  0  0  0  0  0  0  0  0  0  0
  144.4523  135.5459  152.5853 H   0  0  0  0  0  0  0  0  0  0  0  0
  147.2926  135.9842  151.3887 H   0  0  0  0  0  0  0  0  0  0  0  0
  147.2619  132.4573  161.1364 H   0  0  0  0  0  0  0  0  0  0  0  0
  146.7310  133.3318  163.3847 H   0  0  0  0  0  0  0  0  0  0  0  0
  146.7412  135.7835  163.8079 H   0  0  0  0  0  0  0  0  0  0  0  0
  147.2999  137.3561  161.9705 H   0  0  0  0  0  0  0  0  0  0  0  0
  1  2  1  0  0  0  0
  1 33  1  0  0  0  0
  1 34  1  0  0  0  0
  1 35  1  0  0  0  0
  2  3  1  0  0  0  0
  2 22  1  0  0  0  0
  2 36  1  0  0  0  0
  3  4  1  0  0  0  0
  3 37  1  0  0  0  0
  4  9  1  0  0  0  0
  4  5  2  0  0  0  0
  5  6  1  0  0  0  0
  6  7  2  0  0  0  0
  6 38  1  0  0  0  0
  7  8  1  0  0  0  0
  8 12  1  0  0  0  0
  8  9  2  0  0  0  0
  9 10  1  0  0  0  0
 10 11  2  0  0  0  0
 11 12  1  0  0  0  0
 11 39  1  0  0  0  0
 12 13  1  0  0  0  0
 13 29  1  0  0  0  0
 13 20  1  0  0  0  0
 13 14  1  0  0  0  0
 14 15  1  0  0  0  0
 15 30  1  0  0  0  0
 15 16  1  0  0  0  0
 15 18  1  0  0  0  0
 16 17  1  0  0  0  0
 16 40  1  0  0  0  0
 16 41  1  0  0  0  0
 17 42  1  0  0  0  0
 18 31  1  0  0  0  0
 18 19  1  0  0  0  0
 18 20  1  0  0  0  0
 19 43  1  0  0  0  0
 20 32  1  0  0  0  0
 20 21  1  0  0  0  0
 21 44  1  0  0  0  0
 22 27  1  0  0  0  0
 22 23  2  0  0  0  0
 23 24  1  0  0  0  0
 23 45  1  0  0  0  0
 24 25  2  0  0  0  0
 24 46  1  0  0  0  0
 25 26  1  0  0  0  0
 25 47  1  0  0  0  0
 26 27  2  0  0  0  0
 26 48  1  0  0  0  0
 27 28  1  0  0  0  0
M  END
> <s_m_source_file>
AV-unprocessed.smi

> <i_m_source_file_index>
283

> <i_lp_mmshare_version>
43012

> <i_f3d_flags>
0

> <s_epik_input>
Q2xjMVtjSF1bY0hdW2NIXVtjSF1jMVtDQEhdKFtDSDNdKVtOSF1jKG5bY0hdbjIpYyhjMjMpbltjSF1uM1tDQEBIXTRPW0NASF0oW0NIMl1bT0hdKVtDQEBIXShbT0hdKVtDQEhdNFtPSF0=

> <s_epik_cmdline>
J2VwaWtfcHl0aG9uJywgJy1waCcsICc3LjAnLCAnLXRuJywgJzgnLCAnLW1hJywgJzIwMCcsICctbWV0YWxfYmluZGluZycsICctaW1hZScsICc8aW5maWxlLm1hZT4nLCAnLW9tYWUnLCAnPG91dGZpbGUubWFlPic=

> <r_lp_tautomer_probability>
1

> <r_epik_Ionization_Penalty>
0.000266407

> <r_epik_Ionization_Penalty_Charging>
0

> <r_epik_Ionization_Penalty_Neutral>
0.000266407

> <r_epik_State_Penalty>
-0

> <r_epik_Charging_Adjusted_Penalty>
0

> <i_epik_Tot_Q>
0

> <i_epik_Tot_abs_Q>
0

> <r_epik_Metal_State_Penalty>
-0

> <b_epik_Metal_Only>
0

> <s_epik_Chemistry_Notes>
This compound contains an acetal/aminal-like group ( X-CH(R)-Y where X, Y are N, S, or O) that may be acid/base labile, releasing an aldehyde.

> <s_lp_Force_Field>
OPLS_2005

> <r_lp_Energy>
53.7739

> <b_lp_Chiralities_Consistent>
1

> <s_lp_Variant>
AV-unprocessed.smi:283-4

> <Gold.Version>
5.8.1

> <Gold.Id.Protein>
6NUR|6NUR_protein|mol2

> <Gold.PLP.Fitness>
45.4192

> <Gold.PLP.PLP>
-44.4303

> <Gold.PLP.part.hbond>
-2.8333

> <Gold.PLP.part.metal>
0.0000

> <Gold.PLP.part.buried>
-8.5052

> <Gold.PLP.part.nonpolar>
-33.7346

> <Gold.PLP.part.repulsive>
0.3929

> <Gold.PLP.ligand.clash>
3.4001

> <Gold.PLP.ligand.torsion>
0.9981

> <Gold.PLP.Chemscore.Hbond>
2.0000

> <Gold.PLP.Chemscore.CHOScore>
0.0000

> <Gold.PLP.Chemscore.Metal>
0.0000

> <Gold.Chemscore.Hbonds>
donor molecule, donor type, donor heavy atom, donor atom, acceptor molecule, acceptor atom, score
      L1  H    17    42       P1 10952  1.00
      L1  H    21    44       P1  7948  1.00

> <Gold.PLP.Chemscore.Internal.Correction>
0.3851

> <Gold.Rescore>
     Score         DG    S(hbond)    S(metal)    S(lipo)     H(rot)  DE(clash)    DE(int)     intcor
      7.67     -11.60       1.99        0.00      85.07       4.10       0.05       3.87       ----

> <Gold.Chemscore.Fitness>
7.6738

> <Gold.Chemscore.DG>
-11.5952

> <Gold.Chemscore.ZeroCoef>
-5.4800

> <Gold.Chemscore.Hbond>
1.9910

> <Gold.Chemscore.Metal>
0.0000

> <Gold.Chemscore.Lipo>
85.0690

> <Gold.Chemscore.Internal_Hbond>
0.0000

> <Gold.Chemscore.DEClash>
0.0527

> <Gold.Chemscore.DEInternal>
3.8687

> <Gold.Chemscore.Rot>
4.0968

> <Gold.Chemscore.Internal.Correction>
   9.000000E+99

> <Gold.Chemscore.Hbonds>
donor molecule, donor type, donor heavy atom, donor atom, acceptor molecule, acceptor atom, score
      L1  H    17    42       P1 10952  0.98
      L1  H    21    44       P1  7948  0.99

> <Gold.Chemscore.Hbond.Weighted>
-6.6500

> <Gold.Chemscore.Metal.Weighted>
-0.0000

> <Gold.Chemscore.Lipo.Weighted>
-9.9531

> <Gold.Chemscore.Internal_Hbond.Weighted>
0.0000

> <Gold.Chemscore.DEClash.Weighted>
0.0527

> <Gold.Chemscore.DEInternal.Weighted>
3.8687

> <Gold.Chemscore.Rot.Weighted>
10.4879

> <Gold.Chemscore.Internal.Correction.Weighted>
   9.000000E+99

> <Gold.Protein.RotatedTorsions>
[ 6907 6896 6895 6894 ] final -151.33 input  -60.11 | X-H torsion
[ 7974 7965 7964 7962 ] final  103.36 input  175.53 | X-H torsion
[ 8008 7997 7996 7995 ] final  120.88 input   59.86 | X-H torsion
[ 10167 10162 10161 10158 ] final  -31.08 input  -65.29 | X-H torsion
[ 10718 10713 10712 10709 ] final   96.47 input   66.30 | X-H torsion
[ 10763 10752 10751 10750 ] final  -33.24 input  -60.55 | X-H torsion
[ 11005 11000 10999 10996 ] final   85.83 input  -57.11 | X-H torsion

> <Gold.Protein.ActiveResidues>
 VAL166  LYS551  ARG553  GLY616  TRP617  ASP618  TYR619  PRO620  LYS621  CYS622 
 ASP623  PHE694  ASN695  SER759  ASP760  ASP761  ALA762  ILE779  LEU786  VAL792 
 PHE793  MET794  SER795  GLU796  ALA797  LYS798  CYS799  TRP800  GLU811  SER814 

> <Gold.Protein.RotatedAtoms>
  151.2116  133.4553  159.2598 H   0  0  0  0  0  0  0  0  0  0  0  0  # atno 6907 bound_to 6896
  151.0971  134.9951  159.8441 H   0  0  0  0  0  0  0  0  0  0  0  0  # atno 6908 bound_to 6896
  152.5440  134.2045  159.8778 H   0  0  0  0  0  0  0  0  0  0  0  0  # atno 6909 bound_to 6896
  145.3470  139.2448  143.3579 H   0  0  0  0  0  0  0  0  0  0  0  0  # atno 7974 bound_to 7965
  156.2662  140.2821  156.1219 H   0  0  0  0  0  0  0  0  0  0  0  0  # atno 8008 bound_to 7997
  155.1146  140.0391  157.2751 H   0  0  0  0  0  0  0  0  0  0  0  0  # atno 8009 bound_to 7997
  154.6716  140.2589  155.7007 H   0  0  0  0  0  0  0  0  0  0  0  0  # atno 8010 bound_to 7997
  140.7241  143.3798  151.1621 H   0  0  0  0  0  0  0  0  0  0  0  0  # atno 10167 bound_to 10162
  157.6926  131.0579  150.4496 H   0  0  0  0  0  0  0  0  0  0  0  0  # atno 10718 bound_to 10713
  153.8270  135.6869  153.4819 H   0  0  0  0  0  0  0  0  0  0  0  0  # atno 10763 bound_to 10752
  153.1534  135.4609  154.9668 H   0  0  0  0  0  0  0  0  0  0  0  0  # atno 10764 bound_to 10752
  154.7903  135.3299  154.7737 H   0  0  0  0  0  0  0  0  0  0  0  0  # atno 10765 bound_to 10752
  139.8961  134.8314  156.2637 H   0  0  0  0  0  0  0  0  0  0  0  0  # atno 11005 bound_to 11000
  146.2984  140.4078  142.8713 LP  0  0  0  0  0  0  0  0  0  0  0  0  # atno 17320 bound_to 7965
  144.8747  140.7320  143.6025 LP  0  0  0  0  0  0  0  0  0  0  0  0  # atno 17321 bound_to 7965
  139.7385  143.8961  152.3042 LP  0  0  0  0  0  0  0  0  0  0  0  0  # atno 17342 bound_to 10162
  139.8774  144.7036  150.8917 LP  0  0  0  0  0  0  0  0  0  0  0  0  # atno 17343 bound_to 10162
  156.4848  130.4082  149.6440 LP  0  0  0  0  0  0  0  0  0  0  0  0  # atno 17370 bound_to 10713
  156.3473  130.7413  151.2368 LP  0  0  0  0  0  0  0  0  0  0  0  0  # atno 17371 bound_to 10713
  141.0146  133.7076  156.1167 LP  0  0  0  0  0  0  0  0  0  0  0  0  # atno 17394 bound_to 11000
  140.7319  134.4245  157.5565 LP  0  0  0  0  0  0  0  0  0  0  0  0  # atno 17395 bound_to 11000

$$$$
