AV-unprocessed.smi:740|AV-procd|sdf|3547|dock7
  -GOLD-   22720 0543D 1   1.00000     0.00000
 Structure written by MMmdl.
 44 46  0  0  0  0  0  0  0  0  1 V2000
  152.1724  143.7183  162.1498 C   0  0  0  0  0  0  0  0  0  0  0  0
  152.0933  142.9239  160.8580 C   0  0  0  0  0  0  0  0  0  0  0  0
  152.5791  141.5972  160.8364 C   0  0  0  0  0  0  0  0  0  0  0  0
  152.5212  140.8235  159.6566 C   0  0  0  0  0  0  0  0  0  0  0  0
  152.9299  139.5231  159.4142 N   0  0  0  0  0  0  0  0  0  0  0  0
  152.6079  139.3762  158.1324 C   0  0  0  0  0  0  0  0  0  0  0  0
  152.0403  140.4295  157.5141 N   0  0  0  0  0  0  0  0  0  0  0  0
  151.6063  140.4966  156.1300 C   0  0  0  0  0  0  0  0  0  0  0  0
  150.0812  140.3334  155.9839 C   0  0  1  0  0  0  0  0  0  0  0  0
  149.6789  139.1792  156.6965 O   0  0  0  0  0  0  0  0  0  0  0  0
  149.3199  141.5531  156.5430 C   0  0  0  0  0  0  0  0  0  0  0  0
  147.9903  141.6925  155.9384 N   0  0  0  0  0  0  0  0  0  0  0  0
  146.8533  141.7931  156.6406 C   0  0  0  0  0  0  0  0  0  0  0  0
  146.7499  141.7688  157.8667 O   0  0  0  0  0  0  0  0  0  0  0  0
  145.6538  141.9562  155.7178 C   0  0  0  0  0  0  0  0  0  0  0  0
  146.2827  141.9454  154.3163 C   0  0  1  0  0  0  0  0  0  0  0  0
  146.0059  143.2211  153.5034 C   0  0  0  0  0  0  0  0  0  0  0  0
  147.7705  141.7769  154.6188 C   0  0  0  0  0  0  0  0  0  0  0  0
  148.6275  141.7319  153.7362 O   0  0  0  0  0  0  0  0  0  0  0  0
  151.9614  141.4188  158.4885 C   0  0  0  0  0  0  0  0  0  0  0  0
  151.4754  142.7383  158.4972 C   0  0  0  0  0  0  0  0  0  0  0  0
  151.5388  143.4965  159.6851 C   0  0  0  0  0  0  0  0  0  0  0  0
  151.0074  144.9188  159.6852 C   0  0  0  0  0  0  0  0  0  0  0  0
  152.6569  143.1453  162.9409 H   0  0  0  0  0  0  0  0  0  0  0  0
  151.1731  143.9860  162.4938 H   0  0  0  0  0  0  0  0  0  0  0  0
  152.7454  144.6340  162.0023 H   0  0  0  0  0  0  0  0  0  0  0  0
  153.0004  141.1602  161.7298 H   0  0  0  0  0  0  0  0  0  0  0  0
  152.7936  138.4483  157.6113 H   0  0  0  0  0  0  0  0  0  0  0  0
  151.9364  141.4441  155.7022 H   0  0  0  0  0  0  0  0  0  0  0  0
  152.1220  139.7102  155.5772 H   0  0  0  0  0  0  0  0  0  0  0  0
  149.8438  140.1922  154.9285 H   0  0  0  0  0  0  0  0  0  0  0  0
  149.8990  138.4162  156.1841 H   0  0  0  0  0  0  0  0  0  0  0  0
  149.2606  141.5066  157.6321 H   0  0  0  0  0  0  0  0  0  0  0  0
  149.8835  142.4631  156.3286 H   0  0  0  0  0  0  0  0  0  0  0  0
  144.9533  141.1317  155.8542 H   0  0  0  0  0  0  0  0  0  0  0  0
  145.1369  142.8909  155.9376 H   0  0  0  0  0  0  0  0  0  0  0  0
  145.9396  141.0722  153.7601 H   0  0  0  0  0  0  0  0  0  0  0  0
  146.4795  143.1753  152.5221 H   0  0  0  0  0  0  0  0  0  0  0  0
  146.3790  144.1106  154.0129 H   0  0  0  0  0  0  0  0  0  0  0  0
  144.9357  143.3547  153.3446 H   0  0  0  0  0  0  0  0  0  0  0  0
  151.0539  143.1615  157.5975 H   0  0  0  0  0  0  0  0  0  0  0  0
  150.5998  145.1909  158.7111 H   0  0  0  0  0  0  0  0  0  0  0  0
  151.8038  145.6239  159.9237 H   0  0  0  0  0  0  0  0  0  0  0  0
  150.2124  145.0301  160.4229 H   0  0  0  0  0  0  0  0  0  0  0  0
  1  2  1  0  0  0  0
  1 24  1  0  0  0  0
  1 25  1  0  0  0  0
  1 26  1  0  0  0  0
  2 22  1  0  0  0  0
  2  3  2  0  0  0  0
  3  4  1  0  0  0  0
  3 27  1  0  0  0  0
  4 20  2  0  0  0  0
  4  5  1  0  0  0  0
  5  6  2  0  0  0  0
  6  7  1  0  0  0  0
  6 28  1  0  0  0  0
  7  8  1  0  0  0  0
  7 20  1  0  0  0  0
  8  9  1  0  0  0  0
  8 29  1  0  0  0  0
  8 30  1  0  0  0  0
  9 10  1  0  0  0  0
  9 11  1  0  0  0  0
  9 31  1  0  0  0  0
 10 32  1  0  0  0  0
 11 12  1  0  0  0  0
 11 33  1  0  0  0  0
 11 34  1  0  0  0  0
 12 18  1  0  0  0  0
 12 13  1  0  0  0  0
 13 14  2  0  0  0  0
 13 15  1  0  0  0  0
 15 16  1  0  0  0  0
 15 35  1  0  0  0  0
 15 36  1  0  0  0  0
 16 17  1  0  0  0  0
 16 18  1  0  0  0  0
 16 37  1  0  0  0  0
 17 38  1  0  0  0  0
 17 39  1  0  0  0  0
 17 40  1  0  0  0  0
 18 19  2  0  0  0  0
 20 21  1  0  0  0  0
 21 22  2  0  0  0  0
 21 41  1  0  0  0  0
 22 23  1  0  0  0  0
 23 42  1  0  0  0  0
 23 43  1  0  0  0  0
 23 44  1  0  0  0  0
M  END
> <s_m_source_file>
AV-unprocessed.smi

> <i_m_source_file_index>
740

> <i_lp_mmshare_version>
43012

> <i_f3d_flags>
0

> <s_epik_input>
W0NIM11jKFtjSF0xKWMoW0NIM10pW2NIXWMoYzEyKW4oW2NIXW4yKVtDSDJdW0NASF0oW09IXSlbQ0gyXU4zQyg9TylbQ0gyXVtDQEBIXShbQ0gzXSlDMz1P

> <s_epik_cmdline>
J2VwaWtfcHl0aG9uJywgJy1waCcsICc3LjAnLCAnLXRuJywgJzgnLCAnLW1hJywgJzIwMCcsICctbWV0YWxfYmluZGluZycsICctaW1hZScsICc8aW5maWxlLm1hZT4nLCAnLW9tYWUnLCAnPG91dGZpbGUubWFlPic=

> <r_lp_tautomer_probability>
1

> <r_epik_Ionization_Penalty>
0.104021

> <r_epik_Ionization_Penalty_Charging>
0

> <r_epik_Ionization_Penalty_Neutral>
0.104021

> <r_epik_State_Penalty>
0.0939354

> <r_epik_Charging_Adjusted_Penalty>
0.0939354

> <i_epik_Tot_Q>
0

> <i_epik_Tot_abs_Q>
0

> <r_epik_Metal_State_Penalty>
0.000101783

> <b_epik_Metal_Only>
0

> <s_lp_Force_Field>
OPLS_2005

> <r_lp_Energy>
16.7866

> <b_lp_Chiralities_Consistent>
1

> <s_lp_Variant>
AV-unprocessed.smi:740-2

> <Gold.Version>
5.8.1

> <Gold.Id.Protein>
6NUR|6NUR_protein|mol2

> <Gold.PLP.Fitness>
46.9993

> <Gold.PLP.PLP>
-46.2393

> <Gold.PLP.part.hbond>
-1.0000

> <Gold.PLP.part.metal>
0.0000

> <Gold.PLP.part.buried>
-5.7478

> <Gold.PLP.part.nonpolar>
-39.1465

> <Gold.PLP.part.repulsive>
0.2689

> <Gold.PLP.ligand.clash>
0.0000

> <Gold.PLP.ligand.torsion>
0.5837

> <Gold.PLP.Chemscore.Hbond>
0.6344

> <Gold.PLP.Chemscore.CHOScore>
0.0000

> <Gold.PLP.Chemscore.Metal>
0.0000

> <Gold.Chemscore.Hbonds>
donor molecule, donor type, donor heavy atom, donor atom, acceptor molecule, acceptor atom, score
      P1  H  8011  8017       L1    19  0.59

> <Gold.PLP.Chemscore.Internal.Correction>
0.0242

> <Gold.Rescore>
     Score         DG    S(hbond)    S(metal)    S(lipo)     H(rot)  DE(clash)    DE(int)     intcor
     13.50     -15.56       0.68        0.00     117.27       2.31       0.46       1.59       ----

> <Gold.Chemscore.Fitness>
13.5024

> <Gold.Chemscore.DG>
-15.5613

> <Gold.Chemscore.ZeroCoef>
-5.4800

> <Gold.Chemscore.Hbond>
0.6844

> <Gold.Chemscore.Metal>
0.0000

> <Gold.Chemscore.Lipo>
117.2743

> <Gold.Chemscore.Internal_Hbond>
0.0000

> <Gold.Chemscore.DEClash>
0.4645

> <Gold.Chemscore.DEInternal>
1.5943

> <Gold.Chemscore.Rot>
2.3147

> <Gold.Chemscore.Internal.Correction>
   9.000000E+99

> <Gold.Chemscore.Hbonds>
donor molecule, donor type, donor heavy atom, donor atom, acceptor molecule, acceptor atom, score
      P1  H  8011  8017       L1    19  0.60

> <Gold.Chemscore.Hbond.Weighted>
-2.2858

> <Gold.Chemscore.Metal.Weighted>
-0.0000

> <Gold.Chemscore.Lipo.Weighted>
-13.7211

> <Gold.Chemscore.Internal_Hbond.Weighted>
0.0000

> <Gold.Chemscore.DEClash.Weighted>
0.4645

> <Gold.Chemscore.DEInternal.Weighted>
1.5943

> <Gold.Chemscore.Rot.Weighted>
5.9256

> <Gold.Chemscore.Internal.Correction.Weighted>
   9.000000E+99

> <Gold.Protein.RotatedTorsions>
[ 6907 6896 6895 6894 ] final  -90.33 input  -60.11 | X-H torsion
[ 7974 7965 7964 7962 ] final   71.47 input  175.53 | X-H torsion
[ 8008 7997 7996 7995 ] final  178.25 input   59.86 | X-H torsion
[ 10167 10162 10161 10158 ] final -120.36 input  -65.29 | X-H torsion
[ 10718 10713 10712 10709 ] final -163.14 input   66.30 | X-H torsion
[ 10763 10752 10751 10750 ] final  167.32 input  -60.55 | X-H torsion
[ 11005 11000 10999 10996 ] final -179.62 input  -57.11 | X-H torsion

> <Gold.Protein.ActiveResidues>
 VAL166  LYS551  ARG553  GLY616  TRP617  ASP618  TYR619  PRO620  LYS621  CYS622 
 ASP623  PHE694  ASN695  SER759  ASP760  ASP761  ALA762  ILE779  LEU786  VAL792 
 PHE793  MET794  SER795  GLU796  ALA797  LYS798  CYS799  TRP800  GLU811  SER814 

> <Gold.Protein.RotatedAtoms>
  150.6881  134.2448  159.4486 H   0  0  0  0  0  0  0  0  0  0  0  0  # atno 6907 bound_to 6896
  152.0390  134.9720  160.0583 H   0  0  0  0  0  0  0  0  0  0  0  0  # atno 6908 bound_to 6896
  152.1229  133.4329  159.4721 H   0  0  0  0  0  0  0  0  0  0  0  0  # atno 6909 bound_to 6896
  145.7655  139.2819  143.1351 H   0  0  0  0  0  0  0  0  0  0  0  0  # atno 7974 bound_to 7965
  156.0567  140.1338  156.9988 H   0  0  0  0  0  0  0  0  0  0  0  0  # atno 8008 bound_to 7997
  154.4461  140.1000  156.6527 H   0  0  0  0  0  0  0  0  0  0  0  0  # atno 8009 bound_to 7997
  155.5440  140.3461  155.4455 H   0  0  0  0  0  0  0  0  0  0  0  0  # atno 8010 bound_to 7997
  140.0366  143.5195  152.2150 H   0  0  0  0  0  0  0  0  0  0  0  0  # atno 10167 bound_to 10162
  156.6204  130.8888  151.2956 H   0  0  0  0  0  0  0  0  0  0  0  0  # atno 10718 bound_to 10713
  154.3521  135.2753  155.2366 H   0  0  0  0  0  0  0  0  0  0  0  0  # atno 10763 bound_to 10752
  154.4591  135.5912  153.6247 H   0  0  0  0  0  0  0  0  0  0  0  0  # atno 10764 bound_to 10752
  152.9849  135.6060  154.3733 H   0  0  0  0  0  0  0  0  0  0  0  0  # atno 10765 bound_to 10752
  140.4167  134.6643  157.4642 H   0  0  0  0  0  0  0  0  0  0  0  0  # atno 11005 bound_to 11000
  146.0222  140.8337  142.9917 LP  0  0  0  0  0  0  0  0  0  0  0  0  # atno 17320 bound_to 7965
  144.6822  140.2645  143.7314 LP  0  0  0  0  0  0  0  0  0  0  0  0  # atno 17321 bound_to 7965
  139.6041  144.7591  151.3103 LP  0  0  0  0  0  0  0  0  0  0  0  0  # atno 17342 bound_to 10162
  140.7278  143.6952  150.7890 LP  0  0  0  0  0  0  0  0  0  0  0  0  # atno 17343 bound_to 10162
  157.7229  130.9583  150.1513 LP  0  0  0  0  0  0  0  0  0  0  0  0  # atno 17370 bound_to 10713
  156.2316  130.3682  149.8438 LP  0  0  0  0  0  0  0  0  0  0  0  0  # atno 17371 bound_to 10713
  140.0229  134.6520  155.9214 LP  0  0  0  0  0  0  0  0  0  0  0  0  # atno 17394 bound_to 11000
  141.1800  133.6545  156.4982 LP  0  0  0  0  0  0  0  0  0  0  0  0  # atno 17395 bound_to 11000

$$$$
