AV-unprocessed.smi:189|AV-procd|sdf|1477|dock1
  -GOLD-   2262019293D 1   1.00000     0.00000
 Structure written by MMmdl.
 53 57  0  0  0  0  0  0  0  0  1 V2000
  152.2840  138.7929  159.4475 C   0  0  0  0  0  0  0  0  0  0  0  0
  153.1170  140.0883  159.3484 C   0  0  2  0  0  0  0  0  0  0  0  0
  153.1750  140.8132  160.7157 C   0  0  0  0  0  0  0  0  0  0  0  0
  152.9466  142.2779  160.3560 C   0  0  2  0  0  0  0  0  0  0  0  0
  152.3681  143.2185  161.4200 C   0  0  0  0  0  0  0  0  0  0  0  0
  152.1582  144.6139  160.7948 C   0  0  0  0  0  0  0  0  0  0  0  0
  151.3212  144.5575  159.4964 C   0  0  0  0  0  0  0  0  0  0  0  0
  151.8717  143.5332  158.4813 C   0  0  0  0  0  0  0  0  0  0  0  0
  152.0000  142.1623  159.1708 C   0  0  1  0  0  0  0  0  0  0  0  0
  152.5886  141.0788  158.3983 N   0  0  0  0  0  0  0  0  0  0  0  0
  152.0553  140.6504  157.2266 C   0  0  0  0  0  0  0  0  0  0  0  0
  152.7169  139.7326  156.4738 N   0  0  0  0  0  0  0  0  0  0  0  0
  152.2090  139.3270  155.3063 C   0  0  0  0  0  0  0  0  0  0  0  0
  151.0768  139.7077  154.7112 N   0  0  0  0  0  0  0  0  0  0  0  0
  150.4091  140.6295  155.4629 C   0  0  0  0  0  0  0  0  0  0  0  0
  150.8221  141.1483  156.7219 C   0  0  0  0  0  0  0  0  0  0  0  0
  149.8847  142.0616  157.1889 N   0  0  0  0  0  0  0  0  0  0  0  0
  148.9733  142.0870  156.2551 C   0  0  0  0  0  0  0  0  0  0  0  0
  149.2139  141.2658  155.1764 N   0  0  0  0  0  0  0  0  0  0  0  0
  148.3740  141.1009  153.9997 C   0  0  0  0  0  0  0  0  0  0  0  0
  146.9364  140.6146  154.3151 C   0  0  1  0  0  0  0  0  0  0  0  0
  146.3100  140.2089  153.1115 O   0  0  0  0  0  0  0  0  0  0  0  0
  146.8709  139.4685  155.3252 C   0  0  0  0  0  0  0  0  0  0  0  0
  146.6407  140.1971  156.6401 C   0  0  0  0  0  0  0  0  0  0  0  0
  145.7181  141.2064  156.2691 O   0  0  0  0  0  0  0  0  0  0  0  0
  146.1013  141.7182  154.9969 C   0  0  0  0  0  0  0  0  0  0  0  0
  152.6784  138.1394  160.2259 H   0  0  0  0  0  0  0  0  0  0  0  0
  152.3000  138.2247  158.5175 H   0  0  0  0  0  0  0  0  0  0  0  0
  151.2425  139.0073  159.6899 H   0  0  0  0  0  0  0  0  0  0  0  0
  154.1329  139.8438  159.0371 H   0  0  0  0  0  0  0  0  0  0  0  0
  152.3744  140.4685  161.3721 H   0  0  0  0  0  0  0  0  0  0  0  0
  154.1207  140.6534  161.2341 H   0  0  0  0  0  0  0  0  0  0  0  0
  153.9003  142.6856  160.0130 H   0  0  0  0  0  0  0  0  0  0  0  0
  151.4196  142.8290  161.7921 H   0  0  0  0  0  0  0  0  0  0  0  0
  153.0411  143.2848  162.2752 H   0  0  0  0  0  0  0  0  0  0  0  0
  151.6805  145.2767  161.5169 H   0  0  0  0  0  0  0  0  0  0  0  0
  153.1304  145.0556  160.5721 H   0  0  0  0  0  0  0  0  0  0  0  0
  150.2929  144.2934  159.7466 H   0  0  0  0  0  0  0  0  0  0  0  0
  151.2794  145.5465  159.0395 H   0  0  0  0  0  0  0  0  0  0  0  0
  151.2089  143.4834  157.6183 H   0  0  0  0  0  0  0  0  0  0  0  0
  152.8438  143.8607  158.1107 H   0  0  0  0  0  0  0  0  0  0  0  0
  151.0161  141.8374  159.5148 H   0  0  0  0  0  0  0  0  0  0  0  0
  152.7959  138.5953  154.7710 H   0  0  0  0  0  0  0  0  0  0  0  0
  148.0964  142.7142  156.3250 H   0  0  0  0  0  0  0  0  0  0  0  0
  148.3391  142.0546  153.4716 H   0  0  0  0  0  0  0  0  0  0  0  0
  148.8692  140.4003  153.3258 H   0  0  0  0  0  0  0  0  0  0  0  0
  145.3807  140.3605  153.1925 H   0  0  0  0  0  0  0  0  0  0  0  0
  146.0091  138.8290  155.1270 H   0  0  0  0  0  0  0  0  0  0  0  0
  147.7507  138.8270  155.3454 H   0  0  0  0  0  0  0  0  0  0  0  0
  146.2387  139.5488  157.4188 H   0  0  0  0  0  0  0  0  0  0  0  0
  147.5633  140.6508  157.0054 H   0  0  0  0  0  0  0  0  0  0  0  0
  146.6847  142.6281  155.1438 H   0  0  0  0  0  0  0  0  0  0  0  0
  145.2105  141.9918  154.4300 H   0  0  0  0  0  0  0  0  0  0  0  0
  1  2  1  0  0  0  0
  1 27  1  0  0  0  0
  1 28  1  0  0  0  0
  1 29  1  0  0  0  0
  2 10  1  0  0  0  0
  2  3  1  0  0  0  0
  2 30  1  0  0  0  0
  3  4  1  0  0  0  0
  3 31  1  0  0  0  0
  3 32  1  0  0  0  0
  4  9  1  0  0  0  0
  4  5  1  0  0  0  0
  4 33  1  0  0  0  0
  5  6  1  0  0  0  0
  5 34  1  0  0  0  0
  5 35  1  0  0  0  0
  6  7  1  0  0  0  0
  6 36  1  0  0  0  0
  6 37  1  0  0  0  0
  7  8  1  0  0  0  0
  7 38  1  0  0  0  0
  7 39  1  0  0  0  0
  8  9  1  0  0  0  0
  8 40  1  0  0  0  0
  8 41  1  0  0  0  0
  9 10  1  0  0  0  0
  9 42  1  0  0  0  0
 10 11  1  0  0  0  0
 11 16  1  0  0  0  0
 11 12  2  0  0  0  0
 12 13  1  0  0  0  0
 13 14  2  0  0  0  0
 13 43  1  0  0  0  0
 14 15  1  0  0  0  0
 15 19  1  0  0  0  0
 15 16  2  0  0  0  0
 16 17  1  0  0  0  0
 17 18  2  0  0  0  0
 18 19  1  0  0  0  0
 18 44  1  0  0  0  0
 19 20  1  0  0  0  0
 20 21  1  0  0  0  0
 20 45  1  0  0  0  0
 20 46  1  0  0  0  0
 21 26  1  0  0  0  0
 21 22  1  0  0  0  0
 21 23  1  0  0  0  0
 22 47  1  0  0  0  0
 23 24  1  0  0  0  0
 23 48  1  0  0  0  0
 23 49  1  0  0  0  0
 24 25  1  0  0  0  0
 24 50  1  0  0  0  0
 24 51  1  0  0  0  0
 25 26  1  0  0  0  0
 26 52  1  0  0  0  0
 26 53  1  0  0  0  0
M  END
> <s_m_source_file>
AV-unprocessed.smi

> <i_m_source_file_index>
189

> <i_lp_mmshare_version>
43012

> <i_f3d_flags>
0

> <s_epik_input>
W0NIMl0xW0NIMl1bQ0gyXVtDSDJdW0NASF0oW0NASF0xMilOKFtDQEhdKFtDSDNdKVtDSDJdMiljKG5bY0hdbjMpYyhjMzQpbltjSF1uNFtDSDJdW0NAQF01KFtPSF0pW0NIMl1bQ0gyXU9bQ0gyXTU=

> <s_epik_cmdline>
J2VwaWtfcHl0aG9uJywgJy1waCcsICc3LjAnLCAnLXRuJywgJzgnLCAnLW1hJywgJzIwMCcsICctbWV0YWxfYmluZGluZycsICctaW1hZScsICc8aW5maWxlLm1hZT4nLCAnLW9tYWUnLCAnPG91dGZpbGUubWFlPic=

> <r_lp_tautomer_probability>
1

> <r_epik_Ionization_Penalty>
0.00594261

> <r_epik_Ionization_Penalty_Charging>
0

> <r_epik_Ionization_Penalty_Neutral>
0.00594261

> <r_epik_State_Penalty>
0.00429776

> <r_epik_Charging_Adjusted_Penalty>
0.00429776

> <i_epik_Tot_Q>
0

> <i_epik_Tot_abs_Q>
0

> <r_epik_Metal_State_Penalty>
-0

> <b_epik_Metal_Only>
0

> <s_lp_Force_Field>
OPLS_2005

> <r_lp_Energy>
58.8903

> <b_lp_Chiralities_Consistent>
1

> <s_lp_Variant>
AV-unprocessed.smi:189-3

> <Gold.Version>
5.8.1

> <Gold.Id.Protein>
6NUR|6NUR_protein|mol2

> <Gold.PLP.Fitness>
56.2292

> <Gold.PLP.PLP>
-46.7033

> <Gold.PLP.part.hbond>
-3.0000

> <Gold.PLP.part.metal>
0.0000

> <Gold.PLP.part.buried>
-3.0157

> <Gold.PLP.part.nonpolar>
-41.2756

> <Gold.PLP.part.repulsive>
0.2391

> <Gold.PLP.ligand.clash>
0.0000

> <Gold.PLP.ligand.torsion>
0.3260

> <Gold.PLP.Chemscore.Hbond>
2.8000

> <Gold.PLP.Chemscore.CHOScore>
0.4651

> <Gold.PLP.Chemscore.Metal>
0.0000

> <Gold.Chemscore.Hbonds>
donor molecule, donor type, donor heavy atom, donor atom, acceptor molecule, acceptor atom, score
      L1  H    22    47       P1 10175  1.00
      P1  H  7989  7998       L1    14  0.75
      P1  H  7997  8009       L1    12  1.00
      L1  C    18    44       P1  8028  0.47

> <Gold.PLP.Chemscore.Internal.Correction>
0.3825

> <Gold.Rescore>
     Score         DG    S(hbond)    S(metal)    S(lipo)     H(rot)  DE(clash)    DE(int)     intcor
     16.97     -20.05       1.86        0.00     115.89       2.03       1.57       1.50       ----

> <Gold.Chemscore.Fitness>
16.9685

> <Gold.Chemscore.DG>
-20.0451

> <Gold.Chemscore.ZeroCoef>
-5.4800

> <Gold.Chemscore.Hbond>
1.8568

> <Gold.Chemscore.Metal>
0.0000

> <Gold.Chemscore.Lipo>
115.8920

> <Gold.Chemscore.Internal_Hbond>
0.0000

> <Gold.Chemscore.DEClash>
1.5720

> <Gold.Chemscore.DEInternal>
1.5045

> <Gold.Chemscore.Rot>
2.0297

> <Gold.Chemscore.Internal.Correction>
   9.000000E+99

> <Gold.Chemscore.Hbonds>
donor molecule, donor type, donor heavy atom, donor atom, acceptor molecule, acceptor atom, score
      L1  H    22    47       P1 10175  0.94
      P1  H  7989  7998       L1    14  0.04
      P1  H  7997  8009       L1    12  0.66

> <Gold.Chemscore.Hbond.Weighted>
-6.2017

> <Gold.Chemscore.Metal.Weighted>
-0.0000

> <Gold.Chemscore.Lipo.Weighted>
-13.5594

> <Gold.Chemscore.Internal_Hbond.Weighted>
0.0000

> <Gold.Chemscore.DEClash.Weighted>
1.5720

> <Gold.Chemscore.DEInternal.Weighted>
1.5045

> <Gold.Chemscore.Rot.Weighted>
5.1960

> <Gold.Chemscore.Internal.Correction.Weighted>
   9.000000E+99

> <Gold.Protein.RotatedTorsions>
[ 6907 6896 6895 6894 ] final  -98.87 input  -60.11 | X-H torsion
[ 7974 7965 7964 7962 ] final -120.58 input  175.53 | X-H torsion
[ 8008 7997 7996 7995 ] final -165.88 input   59.86 | X-H torsion
[ 10167 10162 10161 10158 ] final   69.10 input  -65.29 | X-H torsion
[ 10718 10713 10712 10709 ] final  130.65 input   66.30 | X-H torsion
[ 10763 10752 10751 10750 ] final  -86.08 input  -60.55 | X-H torsion
[ 11005 11000 10999 10996 ] final -118.21 input  -57.11 | X-H torsion

> <Gold.Protein.ActiveResidues>
 VAL166  LYS551  ARG553  GLY616  TRP617  ASP618  TYR619  PRO620  LYS621  CYS622 
 ASP623  PHE694  ASN695  SER759  ASP760  ASP761  ALA762  ILE779  LEU786  VAL792 
 PHE793  MET794  SER795  GLU796  ALA797  LYS798  CYS799  TRP800  GLU811  SER814 

> <Gold.Protein.RotatedAtoms>
  150.7061  134.1128  159.4006 H   0  0  0  0  0  0  0  0  0  0  0  0  # atno 6907 bound_to 6896
  151.9114  135.0335  160.0524 H   0  0  0  0  0  0  0  0  0  0  0  0  # atno 6908 bound_to 6896
  152.2332  133.5040  159.5264 H   0  0  0  0  0  0  0  0  0  0  0  0  # atno 6909 bound_to 6896
  145.0498  140.8209  143.4216 H   0  0  0  0  0  0  0  0  0  0  0  0  # atno 7974 bound_to 7965
  155.8561  140.0970  157.1644 H   0  0  0  0  0  0  0  0  0  0  0  0  # atno 8008 bound_to 7997
  154.3988  140.1374  156.3965 H   0  0  0  0  0  0  0  0  0  0  0  0  # atno 8009 bound_to 7997
  155.7908  140.3456  155.5351 H   0  0  0  0  0  0  0  0  0  0  0  0  # atno 8010 bound_to 7997
  140.0715  144.5149  150.7224 H   0  0  0  0  0  0  0  0  0  0  0  0  # atno 10167 bound_to 10162
  157.5042  131.1095  150.9384 H   0  0  0  0  0  0  0  0  0  0  0  0  # atno 10718 bound_to 10713
  154.6184  135.5462  153.7548 H   0  0  0  0  0  0  0  0  0  0  0  0  # atno 10763 bound_to 10752
  153.0227  135.6406  154.1477 H   0  0  0  0  0  0  0  0  0  0  0  0  # atno 10764 bound_to 10752
  154.1412  135.2908  155.3140 H   0  0  0  0  0  0  0  0  0  0  0  0  # atno 10765 bound_to 10752
  141.0301  133.9994  157.3155 H   0  0  0  0  0  0  0  0  0  0  0  0  # atno 11005 bound_to 11000
  145.1542  139.2496  143.5425 LP  0  0  0  0  0  0  0  0  0  0  0  0  # atno 17320 bound_to 7965
  146.3517  140.1252  142.8599 LP  0  0  0  0  0  0  0  0  0  0  0  0  # atno 17321 bound_to 7965
  140.7123  143.2515  151.4542 LP  0  0  0  0  0  0  0  0  0  0  0  0  # atno 17342 bound_to 10162
  139.5833  144.1660  152.1997 LP  0  0  0  0  0  0  0  0  0  0  0  0  # atno 17343 bound_to 10162
  157.0045  130.5613  149.5314 LP  0  0  0  0  0  0  0  0  0  0  0  0  # atno 17370 bound_to 10713
  156.0248  130.5342  150.8376 LP  0  0  0  0  0  0  0  0  0  0  0  0  # atno 17371 bound_to 10713
  139.9202  135.0200  156.8036 LP  0  0  0  0  0  0  0  0  0  0  0  0  # atno 17394 bound_to 11000
  140.6421  133.9808  155.7713 LP  0  0  0  0  0  0  0  0  0  0  0  0  # atno 17395 bound_to 11000

$$$$
