AV-unprocessed.smi:236|AV-procd|sdf|1816|dock4
  -GOLD-   2262020403D 1   1.00000     0.00000
 Structure written by MMmdl.
 58 62  0  0  0  0  0  0  0  0  1 V2000
  147.3727  133.4799  151.9840 C   0  0  0  0  0  0  0  0  0  0  0  0
  146.2761  132.9944  151.0248 C   0  0  1  0  0  0  0  0  0  0  0  0
  145.8495  131.6789  151.3693 O   0  0  0  0  0  0  0  0  0  0  0  0
  144.4638  131.5199  151.0782 C   0  0  0  0  0  0  0  0  0  0  0  0
  144.0396  132.8028  150.3689 C   0  0  0  0  0  0  0  0  0  0  0  0
  144.9899  133.8394  150.9558 C   0  0  2  0  0  0  0  0  0  0  0  0
  145.1445  134.8950  150.0262 O   0  0  0  0  0  0  0  0  0  0  0  0
  144.5296  134.4091  152.3264 C   0  0  0  0  0  0  0  0  0  0  0  0
  145.1601  135.6704  152.6833 N   0  0  0  0  0  0  0  0  0  0  0  0
  144.8255  136.9218  152.2171 C   0  0  0  0  0  0  0  0  0  0  0  0
  145.5510  137.9013  152.6831 N   0  0  0  0  0  0  0  0  0  0  0  0
  146.4406  137.2827  153.5545 C   0  0  0  0  0  0  0  0  0  0  0  0
  147.4987  137.7461  154.3880 C   0  0  0  0  0  0  0  0  0  0  0  0
  147.8435  139.0564  154.4822 N   0  0  0  0  0  0  0  0  0  0  0  0
  147.4739  139.9423  153.3807 C   0  0  0  0  0  0  0  0  0  0  0  0
  147.6977  141.4082  153.7822 C   0  0  0  0  0  0  0  0  0  0  0  0
  149.0450  141.5806  154.2076 O   0  0  0  0  0  0  0  0  0  0  0  0
  149.3518  140.7973  155.3587 C   0  0  2  0  0  0  0  0  0  0  0  0
  150.7863  141.1224  155.7931 C   0  0  0  0  0  0  0  0  0  0  0  0
  150.8339  142.4609  156.2593 O   0  0  0  0  0  0  0  0  0  0  0  0
  151.1519  142.5498  157.6370 C   0  0  0  0  0  0  0  0  0  0  0  0
  151.2340  144.0094  158.0302 C   0  0  0  0  0  0  0  0  0  0  0  0
  152.5618  144.7320  158.0219 C   0  0  0  0  0  0  0  0  0  0  0  0
  151.8828  144.4220  159.3318 C   0  0  0  0  0  0  0  0  0  0  0  0
  149.1867  139.3084  154.9957 C   0  0  0  0  0  0  0  0  0  0  0  0
  148.1794  136.8126  155.1066 N   0  0  0  0  0  0  0  0  0  0  0  0
  147.8453  135.5213  155.0286 C   0  0  0  0  0  0  0  0  0  0  0  0
  146.8835  134.9511  154.3013 N   0  0  0  0  0  0  0  0  0  0  0  0
  146.2047  135.8783  153.5671 C   0  0  0  0  0  0  0  0  0  0  0  0
  147.6773  134.4995  151.7465 H   0  0  0  0  0  0  0  0  0  0  0  0
  148.2558  132.8451  151.9104 H   0  0  0  0  0  0  0  0  0  0  0  0
  147.0414  133.4571  153.0222 H   0  0  0  0  0  0  0  0  0  0  0  0
  146.7016  132.9206  150.0220 H   0  0  0  0  0  0  0  0  0  0  0  0
  144.2848  130.6334  150.4693 H   0  0  0  0  0  0  0  0  0  0  0  0
  143.9212  131.4012  152.0166 H   0  0  0  0  0  0  0  0  0  0  0  0
  144.2223  132.6881  149.2989 H   0  0  0  0  0  0  0  0  0  0  0  0
  142.9816  133.0313  150.4891 H   0  0  0  0  0  0  0  0  0  0  0  0
  145.5664  134.5546  149.2521 H   0  0  0  0  0  0  0  0  0  0  0  0
  143.4493  134.5584  152.3334 H   0  0  0  0  0  0  0  0  0  0  0  0
  144.7410  133.6962  153.1243 H   0  0  0  0  0  0  0  0  0  0  0  0
  144.0289  137.0848  151.5056 H   0  0  0  0  0  0  0  0  0  0  0  0
  148.0755  139.7031  152.5025 H   0  0  0  0  0  0  0  0  0  0  0  0
  146.4275  139.7927  153.1115 H   0  0  0  0  0  0  0  0  0  0  0  0
  147.5054  142.0638  152.9330 H   0  0  0  0  0  0  0  0  0  0  0  0
  147.0112  141.7054  154.5766 H   0  0  0  0  0  0  0  0  0  0  0  0
  148.6688  141.0509  156.1719 H   0  0  0  0  0  0  0  0  0  0  0  0
  151.0895  140.4521  156.5993 H   0  0  0  0  0  0  0  0  0  0  0  0
  151.4802  140.9744  154.9640 H   0  0  0  0  0  0  0  0  0  0  0  0
  150.3929  142.0454  158.2372 H   0  0  0  0  0  0  0  0  0  0  0  0
  152.1129  142.0750  157.8399 H   0  0  0  0  0  0  0  0  0  0  0  0
  150.3719  144.5965  157.7190 H   0  0  0  0  0  0  0  0  0  0  0  0
  153.4521  144.1584  157.7717 H   0  0  0  0  0  0  0  0  0  0  0  0
  152.5669  145.7685  157.6903 H   0  0  0  0  0  0  0  0  0  0  0  0
  151.4340  145.2510  159.8753 H   0  0  0  0  0  0  0  0  0  0  0  0
  152.3180  143.6400  159.9512 H   0  0  0  0  0  0  0  0  0  0  0  0
  149.3980  138.6984  155.8729 H   0  0  0  0  0  0  0  0  0  0  0  0
  149.9131  139.0255  154.2324 H   0  0  0  0  0  0  0  0  0  0  0  0
  148.4344  134.8491  155.6349 H   0  0  0  0  0  0  0  0  0  0  0  0
  1  2  1  0  0  0  0
  1 30  1  0  0  0  0
  1 31  1  0  0  0  0
  1 32  1  0  0  0  0
  2  6  1  0  0  0  0
  2  3  1  0  0  0  0
  2 33  1  0  0  0  0
  3  4  1  0  0  0  0
  4  5  1  0  0  0  0
  4 34  1  0  0  0  0
  4 35  1  0  0  0  0
  5  6  1  0  0  0  0
  5 36  1  0  0  0  0
  5 37  1  0  0  0  0
  6  7  1  0  0  0  0
  6  8  1  0  0  0  0
  7 38  1  0  0  0  0
  8  9  1  0  0  0  0
  8 39  1  0  0  0  0
  8 40  1  0  0  0  0
  9 29  1  0  0  0  0
  9 10  1  0  0  0  0
 10 11  2  0  0  0  0
 10 41  1  0  0  0  0
 11 12  1  0  0  0  0
 12 29  2  0  0  0  0
 12 13  1  0  0  0  0
 13 14  1  0  0  0  0
 13 26  2  0  0  0  0
 14 25  1  0  0  0  0
 14 15  1  0  0  0  0
 15 16  1  0  0  0  0
 15 42  1  0  0  0  0
 15 43  1  0  0  0  0
 16 17  1  0  0  0  0
 16 44  1  0  0  0  0
 16 45  1  0  0  0  0
 17 18  1  0  0  0  0
 18 19  1  0  0  0  0
 18 25  1  0  0  0  0
 18 46  1  0  0  0  0
 19 20  1  0  0  0  0
 19 47  1  0  0  0  0
 19 48  1  0  0  0  0
 20 21  1  0  0  0  0
 21 22  1  0  0  0  0
 21 49  1  0  0  0  0
 21 50  1  0  0  0  0
 22 24  1  0  0  0  0
 22 23  1  0  0  0  0
 22 51  1  0  0  0  0
 23 24  1  0  0  0  0
 23 52  1  0  0  0  0
 23 53  1  0  0  0  0
 24 54  1  0  0  0  0
 24 55  1  0  0  0  0
 25 56  1  0  0  0  0
 25 57  1  0  0  0  0
 26 27  1  0  0  0  0
 27 28  2  0  0  0  0
 27 58  1  0  0  0  0
 28 29  1  0  0  0  0
M  END
> <s_m_source_file>
AV-unprocessed.smi

> <i_m_source_file_index>
236

> <i_lp_mmshare_version>
43012

> <i_f3d_flags>
0

> <s_epik_input>
W0NIMl0xW0NIMl1PW0NAQEhdKFtDSDNdKVtDQEBdMShbT0hdKVtDSDJdbihbY0hdbjIpYyhjMjMpbltjSF1uYzNONFtDSDJdW0NIMl1PW0NASF0oW0NIMl00KVtDSDJdT1tDSDJdW0NIXTVbQ0gyXVtDSDJdNQ==

> <s_epik_cmdline>
J2VwaWtfcHl0aG9uJywgJy1waCcsICc3LjAnLCAnLXRuJywgJzgnLCAnLW1hJywgJzIwMCcsICctbWV0YWxfYmluZGluZycsICctaW1hZScsICc8aW5maWxlLm1hZT4nLCAnLW9tYWUnLCAnPG91dGZpbGUubWFlPic=

> <r_lp_tautomer_probability>
1

> <r_epik_Ionization_Penalty>
7.21838e-05

> <r_epik_Ionization_Penalty_Charging>
0

> <r_epik_Ionization_Penalty_Neutral>
7.21838e-05

> <r_epik_State_Penalty>
-0

> <r_epik_Charging_Adjusted_Penalty>
0

> <i_epik_Tot_Q>
0

> <i_epik_Tot_abs_Q>
0

> <r_epik_Metal_State_Penalty>
-0

> <b_epik_Metal_Only>
0

> <s_lp_Force_Field>
OPLS_2005

> <r_lp_Energy>
48.2383

> <b_lp_Chiralities_Consistent>
1

> <s_lp_Variant>
AV-unprocessed.smi:236-8

> <Gold.Version>
5.8.1

> <Gold.Id.Protein>
6NUR|6NUR_protein|mol2

> <Gold.PLP.Fitness>
51.1932

> <Gold.PLP.PLP>
-46.9979

> <Gold.PLP.part.hbond>
-2.2815

> <Gold.PLP.part.metal>
0.0000

> <Gold.PLP.part.buried>
-3.7540

> <Gold.PLP.part.nonpolar>
-41.1098

> <Gold.PLP.part.repulsive>
1.1565

> <Gold.PLP.ligand.clash>
0.0000

> <Gold.PLP.ligand.torsion>
1.8726

> <Gold.PLP.Chemscore.Hbond>
1.3191

> <Gold.PLP.Chemscore.CHOScore>
1.0000

> <Gold.PLP.Chemscore.Metal>
0.0000

> <Gold.Chemscore.Hbonds>
donor molecule, donor type, donor heavy atom, donor atom, acceptor molecule, acceptor atom, score
      L1  H     7    38       P1  7921  0.98
      P1  H  8011  8017       L1    17  0.31
      L1  C    10    41       P1 10171  1.00

> <Gold.PLP.Chemscore.Internal.Correction>
0.9831

> <Gold.Rescore>
     Score         DG    S(hbond)    S(metal)    S(lipo)     H(rot)  DE(clash)    DE(int)     intcor
     10.85     -16.03       1.01        0.00     124.02       2.87       0.39       4.79       ----

> <Gold.Chemscore.Fitness>
10.8541

> <Gold.Chemscore.DG>
-16.0339

> <Gold.Chemscore.ZeroCoef>
-5.4800

> <Gold.Chemscore.Hbond>
1.0118

> <Gold.Chemscore.Metal>
0.0000

> <Gold.Chemscore.Lipo>
124.0183

> <Gold.Chemscore.Internal_Hbond>
0.0000

> <Gold.Chemscore.DEClash>
0.3939

> <Gold.Chemscore.DEInternal>
4.7859

> <Gold.Chemscore.Rot>
2.8655

> <Gold.Chemscore.Internal.Correction>
   9.000000E+99

> <Gold.Chemscore.Hbonds>
donor molecule, donor type, donor heavy atom, donor atom, acceptor molecule, acceptor atom, score
      L1  H     7    38       P1  7921  0.89
      P1  H  8011  8017       L1    17  0.05

> <Gold.Chemscore.Hbond.Weighted>
-3.3795

> <Gold.Chemscore.Metal.Weighted>
-0.0000

> <Gold.Chemscore.Lipo.Weighted>
-14.5101

> <Gold.Chemscore.Internal_Hbond.Weighted>
0.0000

> <Gold.Chemscore.DEClash.Weighted>
0.3939

> <Gold.Chemscore.DEInternal.Weighted>
4.7859

> <Gold.Chemscore.Rot.Weighted>
7.3358

> <Gold.Chemscore.Internal.Correction.Weighted>
   9.000000E+99

> <Gold.Protein.RotatedTorsions>
[ 6907 6896 6895 6894 ] final -177.07 input  -60.11 | X-H torsion
[ 7974 7965 7964 7962 ] final -142.94 input  175.53 | X-H torsion
[ 8008 7997 7996 7995 ] final  159.13 input   59.86 | X-H torsion
[ 10167 10162 10161 10158 ] final -170.61 input  -65.29 | X-H torsion
[ 10718 10713 10712 10709 ] final -172.43 input   66.30 | X-H torsion
[ 10763 10752 10751 10750 ] final  170.72 input  -60.55 | X-H torsion
[ 11005 11000 10999 10996 ] final  151.02 input  -57.11 | X-H torsion

> <Gold.Protein.ActiveResidues>
 VAL166  LYS551  ARG553  GLY616  TRP617  ASP618  TYR619  PRO620  LYS621  CYS622 
 ASP623  PHE694  ASN695  SER759  ASP760  ASP761  ALA762  ILE779  LEU786  VAL792 
 PHE793  MET794  SER795  GLU796  ALA797  LYS798  CYS799  TRP800  GLU811  SER814 

> <Gold.Protein.RotatedAtoms>
  151.6151  133.3344  159.3075 H   0  0  0  0  0  0  0  0  0  0  0  0  # atno 6907 bound_to 6896
  150.8135  134.7308  159.6721 H   0  0  0  0  0  0  0  0  0  0  0  0  # atno 6908 bound_to 6896
  152.4232  134.5922  160.0029 H   0  0  0  0  0  0  0  0  0  0  0  0  # atno 6909 bound_to 6896
  144.8406  140.5896  143.5455 H   0  0  0  0  0  0  0  0  0  0  0  0  # atno 7974 bound_to 7965
  156.2259  140.1839  156.7365 H   0  0  0  0  0  0  0  0  0  0  0  0  # atno 8008 bound_to 7997
  154.5940  140.0646  156.9306 H   0  0  0  0  0  0  0  0  0  0  0  0  # atno 8009 bound_to 7997
  155.2288  140.3313  155.4308 H   0  0  0  0  0  0  0  0  0  0  0  0  # atno 8010 bound_to 7997
  139.5851  144.1336  152.1565 H   0  0  0  0  0  0  0  0  0  0  0  0  # atno 10167 bound_to 10162
  156.7555  130.9394  151.3116 H   0  0  0  0  0  0  0  0  0  0  0  0  # atno 10718 bound_to 10713
  154.4017  135.2755  155.2092 H   0  0  0  0  0  0  0  0  0  0  0  0  # atno 10763 bound_to 10752
  154.4116  135.6021  153.5959 H   0  0  0  0  0  0  0  0  0  0  0  0  # atno 10764 bound_to 10752
  152.9831  135.5951  154.4285 H   0  0  0  0  0  0  0  0  0  0  0  0  # atno 10765 bound_to 10752
  140.1182  134.8880  157.2034 H   0  0  0  0  0  0  0  0  0  0  0  0  # atno 11005 bound_to 11000
  145.4702  139.1504  143.3818 LP  0  0  0  0  0  0  0  0  0  0  0  0  # atno 17320 bound_to 7965
  146.2699  140.4835  142.8819 LP  0  0  0  0  0  0  0  0  0  0  0  0  # atno 17321 bound_to 7965
  140.0897  144.5631  150.7063 LP  0  0  0  0  0  0  0  0  0  0  0  0  # atno 17342 bound_to 10162
  140.7124  143.2516  151.4539 LP  0  0  0  0  0  0  0  0  0  0  0  0  # atno 17343 bound_to 10162
  157.6758  130.9093  150.0147 LP  0  0  0  0  0  0  0  0  0  0  0  0  # atno 17370 bound_to 10713
  156.1373  130.3642  149.9637 LP  0  0  0  0  0  0  0  0  0  0  0  0  # atno 17371 bound_to 10713
  140.3000  134.3143  155.7292 LP  0  0  0  0  0  0  0  0  0  0  0  0  # atno 17394 bound_to 11000
  141.2146  133.7586  156.9627 LP  0  0  0  0  0  0  0  0  0  0  0  0  # atno 17395 bound_to 11000

$$$$
