AV-unprocessed.smi:1947|AV-procd|sdf|7865|dock1
  -GOLD-   2272010 13D 1   1.00000     0.00000
 Structure written by MMmdl.
 39 40  0  0  0  0  0  0  0  0  1 V2000
  153.6717  140.7746  159.9968 C   0  0  0  0  0  0  0  0  0  0  0  0
  152.9931  141.8763  159.1648 C   0  0  2  0  0  0  0  0  0  0  0  0
  152.6049  143.0727  160.0566 C   0  0  0  0  0  0  0  0  0  0  0  0
  151.9143  144.1839  159.2511 C   0  0  0  0  0  0  0  0  0  0  0  0
  150.6844  143.6440  158.5074 C   0  0  0  0  0  0  0  0  0  0  0  0
  151.0618  142.4587  157.6065 C   0  0  0  0  0  0  0  0  0  0  0  0
  151.7584  141.3391  158.4069 C   0  0  1  0  0  0  0  0  0  0  0  0
  152.2065  140.3263  157.5159 O   0  0  0  0  0  0  0  0  0  0  0  0
  151.2004  139.8035  156.6609 C   0  0  0  0  0  0  0  0  0  0  0  0
  151.0304  138.3068  156.9618 C   0  0  0  0  0  0  0  0  0  0  0  0
  149.7920  138.0415  157.6868 N   0  0  0  0  0  0  0  0  0  0  0  0
  149.7088  137.4383  158.8806 C   0  0  0  0  0  0  0  0  0  0  0  0
  150.6915  137.0821  159.5306 O   0  0  0  0  0  0  0  0  0  0  0  0
  148.4292  137.2755  159.2529 N   0  0  0  0  0  0  0  0  0  0  0  0
  147.9351  136.6443  160.4216 C   0  0  0  0  0  0  0  0  0  0  0  0
  147.7533  137.3967  161.5132 N   0  0  0  0  0  0  0  0  0  0  0  0
  147.2628  136.6548  162.5811 N   0  0  0  0  0  0  0  0  0  0  0  0
  147.0941  135.3703  162.2524 C   0  0  0  0  0  0  0  0  0  0  0  0
  147.5178  134.9381  160.6056 S   0  0  0  0  0  0  0  0  0  0  0  0
  152.9921  140.3679  160.7463 H   0  0  0  0  0  0  0  0  0  0  0  0
  154.5488  141.1603  160.5173 H   0  0  0  0  0  0  0  0  0  0  0  0
  154.0040  139.9479  159.3679 H   0  0  0  0  0  0  0  0  0  0  0  0
  153.7167  142.2291  158.4281 H   0  0  0  0  0  0  0  0  0  0  0  0
  151.9400  142.7371  160.8540 H   0  0  0  0  0  0  0  0  0  0  0  0
  153.4924  143.4760  160.5460 H   0  0  0  0  0  0  0  0  0  0  0  0
  151.6198  144.9969  159.9151 H   0  0  0  0  0  0  0  0  0  0  0  0
  152.6184  144.6089  158.5345 H   0  0  0  0  0  0  0  0  0  0  0  0
  149.9282  143.3302  159.2283 H   0  0  0  0  0  0  0  0  0  0  0  0
  150.2333  144.4367  157.9099 H   0  0  0  0  0  0  0  0  0  0  0  0
  150.1653  142.0772  157.1180 H   0  0  0  0  0  0  0  0  0  0  0  0
  151.7233  142.8046  156.8110 H   0  0  0  0  0  0  0  0  0  0  0  0
  151.0624  140.9241  159.1387 H   0  0  0  0  0  0  0  0  0  0  0  0
  150.2553  140.3260  156.8168 H   0  0  0  0  0  0  0  0  0  0  0  0
  151.4797  139.9432  155.6166 H   0  0  0  0  0  0  0  0  0  0  0  0
  151.0514  137.7289  156.0366 H   0  0  0  0  0  0  0  0  0  0  0  0
  151.8646  137.9547  157.5687 H   0  0  0  0  0  0  0  0  0  0  0  0
  148.9333  138.3012  157.2237 H   0  0  0  0  0  0  0  0  0  0  0  0
  147.7266  137.6260  158.6187 H   0  0  0  0  0  0  0  0  0  0  0  0
  146.7172  134.6725  162.9856 H   0  0  0  0  0  0  0  0  0  0  0  0
  1  2  1  0  0  0  0
  1 20  1  0  0  0  0
  1 21  1  0  0  0  0
  1 22  1  0  0  0  0
  2  7  1  0  0  0  0
  2  3  1  0  0  0  0
  2 23  1  0  0  0  0
  3  4  1  0  0  0  0
  3 24  1  0  0  0  0
  3 25  1  0  0  0  0
  4  5  1  0  0  0  0
  4 26  1  0  0  0  0
  4 27  1  0  0  0  0
  5  6  1  0  0  0  0
  5 28  1  0  0  0  0
  5 29  1  0  0  0  0
  6  7  1  0  0  0  0
  6 30  1  0  0  0  0
  6 31  1  0  0  0  0
  7  8  1  0  0  0  0
  7 32  1  0  0  0  0
  8  9  1  0  0  0  0
  9 10  1  0  0  0  0
  9 33  1  0  0  0  0
  9 34  1  0  0  0  0
 10 11  1  0  0  0  0
 10 35  1  0  0  0  0
 10 36  1  0  0  0  0
 11 12  1  0  0  0  0
 11 37  1  0  0  0  0
 12 13  2  0  0  0  0
 12 14  1  0  0  0  0
 14 15  1  0  0  0  0
 14 38  1  0  0  0  0
 15 19  1  0  0  0  0
 15 16  2  0  0  0  0
 16 17  1  0  0  0  0
 17 18  2  0  0  0  0
 18 19  1  0  0  0  0
 18 39  1  0  0  0  0
M  END
> <s_m_source_file>
AV-unprocessed.smi

> <i_m_source_file_index>
1947

> <i_lp_mmshare_version>
43012

> <i_f3d_flags>
0

> <s_epik_input>
W0NIM11bQ0BASF0xW0NIMl1bQ0gyXVtDSDJdW0NIMl1bQ0BIXTFPW0NIMl1bQ0gyXVtOSF1DKD1PKVtOSF1jMm5uW2NIXXMy

> <s_epik_cmdline>
J2VwaWtfcHl0aG9uJywgJy1waCcsICc3LjAnLCAnLXRuJywgJzgnLCAnLW1hJywgJzIwMCcsICctbWV0YWxfYmluZGluZycsICctaW1hZScsICc8aW5maWxlLm1hZT4nLCAnLW9tYWUnLCAnPG91dGZpbGUubWFlPic=

> <r_lp_tautomer_probability>
1

> <r_epik_Ionization_Penalty>
0.00220897

> <r_epik_Ionization_Penalty_Charging>
0

> <r_epik_Ionization_Penalty_Neutral>
0.00220897

> <r_epik_State_Penalty>
-0

> <r_epik_Charging_Adjusted_Penalty>
0

> <i_epik_Tot_Q>
0

> <i_epik_Tot_abs_Q>
0

> <r_epik_Metal_State_Penalty>
0.345002

> <b_epik_Metal_Only>
0

> <s_lp_Force_Field>
OPLS_2005

> <r_lp_Energy>
7.38762

> <b_lp_Chiralities_Consistent>
1

> <s_lp_Variant>
AV-unprocessed.smi:1947-1

> <Gold.Version>
5.8.1

> <Gold.Id.Protein>
6NUR|6NUR_protein|mol2

> <Gold.PLP.Fitness>
45.0934

> <Gold.PLP.PLP>
-36.9790

> <Gold.PLP.part.hbond>
-4.0000

> <Gold.PLP.part.metal>
0.0000

> <Gold.PLP.part.buried>
-4.1054

> <Gold.PLP.part.nonpolar>
-28.4203

> <Gold.PLP.part.repulsive>
0.2262

> <Gold.PLP.ligand.clash>
0.0000

> <Gold.PLP.ligand.torsion>
1.4735

> <Gold.PLP.Chemscore.Hbond>
3.6640

> <Gold.PLP.Chemscore.CHOScore>
0.0000

> <Gold.PLP.Chemscore.Metal>
0.0000

> <Gold.Chemscore.Hbonds>
donor molecule, donor type, donor heavy atom, donor atom, acceptor molecule, acceptor atom, score
      P1  H  6896  6907       L1    13  0.93
      P1  H  6931  6943       L1    16  0.91
      P1  H  6934  6947       L1    16  0.69
      P1  H  7997  8008       L1     8  0.17

> <Gold.PLP.Chemscore.Internal.Correction>
0.0694

> <Gold.Rescore>
     Score         DG    S(hbond)    S(metal)    S(lipo)     H(rot)  DE(clash)    DE(int)     intcor
     20.84     -22.39       3.29        0.00      93.10       1.94       0.05       1.50       ----

> <Gold.Chemscore.Fitness>
20.8443

> <Gold.Chemscore.DG>
-22.3889

> <Gold.Chemscore.ZeroCoef>
-5.4800

> <Gold.Chemscore.Hbond>
3.2870

> <Gold.Chemscore.Metal>
0.0000

> <Gold.Chemscore.Lipo>
93.1004

> <Gold.Chemscore.Internal_Hbond>
0.0000

> <Gold.Chemscore.DEClash>
0.0478

> <Gold.Chemscore.DEInternal>
1.4967

> <Gold.Chemscore.Rot>
1.9385

> <Gold.Chemscore.Internal.Correction>
   9.000000E+99

> <Gold.Chemscore.Hbonds>
donor molecule, donor type, donor heavy atom, donor atom, acceptor molecule, acceptor atom, score
      P1  H  6896  6907       L1    13  0.88
      P1  H  6931  6943       L1    16  0.63
      P1  H  6934  6947       L1    16  0.42
      P1  H  7997  8008       L1     8  0.17

> <Gold.Chemscore.Hbond.Weighted>
-10.9787

> <Gold.Chemscore.Metal.Weighted>
-0.0000

> <Gold.Chemscore.Lipo.Weighted>
-10.8928

> <Gold.Chemscore.Internal_Hbond.Weighted>
0.0000

> <Gold.Chemscore.DEClash.Weighted>
0.0478

> <Gold.Chemscore.DEInternal.Weighted>
1.4967

> <Gold.Chemscore.Rot.Weighted>
4.9625

> <Gold.Chemscore.Internal.Correction.Weighted>
   9.000000E+99

> <Gold.Protein.RotatedTorsions>
[ 6907 6896 6895 6894 ] final  -17.62 input  -60.11 | X-H torsion
[ 7974 7965 7964 7962 ] final -174.99 input  175.53 | X-H torsion
[ 8008 7997 7996 7995 ] final  -72.41 input   59.86 | X-H torsion
[ 10167 10162 10161 10158 ] final  -76.27 input  -65.29 | X-H torsion
[ 10718 10713 10712 10709 ] final  -79.70 input   66.30 | X-H torsion
[ 10763 10752 10751 10750 ] final -161.23 input  -60.55 | X-H torsion
[ 11005 11000 10999 10996 ] final  -92.37 input  -57.11 | X-H torsion

> <Gold.Protein.ActiveResidues>
 VAL166  LYS551  ARG553  GLY616  TRP617  ASP618  TYR619  PRO620  LYS621  CYS622 
 ASP623  PHE694  ASN695  SER759  ASP760  ASP761  ALA762  ILE779  LEU786  VAL792 
 PHE793  MET794  SER795  GLU796  ALA797  LYS798  CYS799  TRP800  GLU811  SER814 

> <Gold.Protein.RotatedAtoms>
  151.2905  135.0740  159.9202 H   0  0  0  0  0  0  0  0  0  0  0  0  # atno 6907 bound_to 6896
  152.5317  133.9936  159.7872 H   0  0  0  0  0  0  0  0  0  0  0  0  # atno 6908 bound_to 6896
  151.0205  133.5830  159.2702 H   0  0  0  0  0  0  0  0  0  0  0  0  # atno 6909 bound_to 6896
  144.7129  140.1388  143.6393 H   0  0  0  0  0  0  0  0  0  0  0  0  # atno 7974 bound_to 7965
  154.5164  140.0798  156.8089 H   0  0  0  0  0  0  0  0  0  0  0  0  # atno 8008 bound_to 7997
  155.3672  140.3421  155.4224 H   0  0  0  0  0  0  0  0  0  0  0  0  # atno 8009 bound_to 7997
  156.1632  140.1595  156.8564 H   0  0  0  0  0  0  0  0  0  0  0  0  # atno 8010 bound_to 7997
  140.4871  143.2388  151.7966 H   0  0  0  0  0  0  0  0  0  0  0  0  # atno 10167 bound_to 10162
  156.0086  130.4553  150.3689 H   0  0  0  0  0  0  0  0  0  0  0  0  # atno 10718 bound_to 10713
  154.7321  135.3049  154.8873 H   0  0  0  0  0  0  0  0  0  0  0  0  # atno 10763 bound_to 10752
  153.9713  135.6741  153.4751 H   0  0  0  0  0  0  0  0  0  0  0  0  # atno 10764 bound_to 10752
  153.0928  135.4950  154.8644 H   0  0  0  0  0  0  0  0  0  0  0  0  # atno 10765 bound_to 10752
  141.1523  133.7817  157.0011 H   0  0  0  0  0  0  0  0  0  0  0  0  # atno 11005 bound_to 11000
  145.9221  139.2552  143.1375 LP  0  0  0  0  0  0  0  0  0  0  0  0  # atno 17320 bound_to 7965
  145.9610  140.8836  143.0211 LP  0  0  0  0  0  0  0  0  0  0  0  0  # atno 17321 bound_to 7965
  139.4844  144.4697  151.9440 LP  0  0  0  0  0  0  0  0  0  0  0  0  # atno 17342 bound_to 10162
  140.3784  144.2768  150.5911 LP  0  0  0  0  0  0  0  0  0  0  0  0  # atno 17343 bound_to 10162
  157.1774  131.0384  151.2765 LP  0  0  0  0  0  0  0  0  0  0  0  0  # atno 17370 bound_to 10713
  157.4176  130.7419  149.6887 LP  0  0  0  0  0  0  0  0  0  0  0  0  # atno 17371 bound_to 10713
  140.0939  134.9576  157.1820 LP  0  0  0  0  0  0  0  0  0  0  0  0  # atno 17394 bound_to 11000
  140.3408  134.2706  155.7212 LP  0  0  0  0  0  0  0  0  0  0  0  0  # atno 17395 bound_to 11000

$$$$
