AV-unprocessed.smi:781|AV-procd|sdf|3711|dock3
  -GOLD-   22720 1133D 1   1.00000     0.00000
 Structure written by MMmdl.
 38 40  0  0  0  0  0  0  0  0  1 V2000
  147.1827  142.1864  154.0586 C   0  0  0  0  0  0  0  0  0  0  0  0
  146.8536  140.7333  154.0193 C   0  0  0  0  0  0  0  0  0  0  0  0
  147.3173  139.6954  153.2609 C   0  0  0  0  0  0  0  0  0  0  0  0
  146.5736  138.5871  153.7465 C   0  0  0  0  0  0  0  0  0  0  0  0
  146.7639  137.2903  153.2053 N   0  0  0  0  0  0  0  0  0  0  0  0
  145.8921  136.2676  153.2023 C   0  0  0  0  0  0  0  0  0  0  0  0
  144.7636  136.2952  153.6941 O   0  0  0  0  0  0  0  0  0  0  0  0
  146.4037  135.1954  152.5801 N   0  0  0  0  0  0  0  0  0  0  0  0
  145.7202  133.9133  152.4017 C   0  0  2  0  0  0  0  0  0  0  0  0
  146.6636  132.8946  151.7257 C   0  0  1  0  0  0  0  0  0  0  0  0
  146.0860  131.4790  151.9043 C   0  0  0  0  0  0  0  0  0  0  0  0
  144.8694  131.4938  150.9591 C   0  0  0  0  0  0  0  0  0  0  0  0
  144.9165  132.9136  150.3595 C   0  0  2  0  0  0  0  0  0  0  0  0
  146.4179  133.1428  150.2423 C   0  0  0  0  0  0  0  0  0  0  0  0
  144.4945  133.9424  151.4378 C   0  0  2  0  0  0  0  0  0  0  0  0
  144.1190  135.3228  150.8516 C   0  0  0  0  0  0  0  0  0  0  0  0
  145.2303  135.9041  150.2033 O   0  0  0  0  0  0  0  0  0  0  0  0
  145.7308  138.9187  154.7128 N   0  0  0  0  0  0  0  0  0  0  0  0
  145.9060  140.2960  154.8925 O   0  0  0  0  0  0  0  0  0  0  0  0
  148.1459  142.3798  153.5861 H   0  0  0  0  0  0  0  0  0  0  0  0
  147.2334  142.5463  155.0863 H   0  0  0  0  0  0  0  0  0  0  0  0
  146.4251  142.7677  153.5328 H   0  0  0  0  0  0  0  0  0  0  0  0
  148.0675  139.7274  152.4849 H   0  0  0  0  0  0  0  0  0  0  0  0
  147.6577  137.1261  152.7668 H   0  0  0  0  0  0  0  0  0  0  0  0
  147.3380  135.2647  152.2042 H   0  0  0  0  0  0  0  0  0  0  0  0
  145.4209  133.5356  153.3816 H   0  0  0  0  0  0  0  0  0  0  0  0
  147.7048  132.9750  152.0411 H   0  0  0  0  0  0  0  0  0  0  0  0
  146.8065  130.7232  151.5887 H   0  0  0  0  0  0  0  0  0  0  0  0
  145.8109  131.2664  152.9379 H   0  0  0  0  0  0  0  0  0  0  0  0
  144.9831  130.7398  150.1791 H   0  0  0  0  0  0  0  0  0  0  0  0
  143.9333  131.2930  151.4813 H   0  0  0  0  0  0  0  0  0  0  0  0
  144.3670  132.9973  149.4215 H   0  0  0  0  0  0  0  0  0  0  0  0
  146.6850  134.1499  149.9191 H   0  0  0  0  0  0  0  0  0  0  0  0
  146.9162  132.4191  149.5946 H   0  0  0  0  0  0  0  0  0  0  0  0
  143.6193  133.5710  151.9736 H   0  0  0  0  0  0  0  0  0  0  0  0
  143.3255  135.2208  150.1113 H   0  0  0  0  0  0  0  0  0  0  0  0
  143.7600  136.0039  151.6233 H   0  0  0  0  0  0  0  0  0  0  0  0
  145.3071  135.5256  149.3410 H   0  0  0  0  0  0  0  0  0  0  0  0
  1  2  1  0  0  0  0
  1 20  1  0  0  0  0
  1 21  1  0  0  0  0
  1 22  1  0  0  0  0
  2 19  1  0  0  0  0
  2  3  2  0  0  0  0
  3  4  1  0  0  0  0
  3 23  1  0  0  0  0
  4  5  1  0  0  0  0
  4 18  2  0  0  0  0
  5  6  1  0  0  0  0
  5 24  1  0  0  0  0
  6  7  2  0  0  0  0
  6  8  1  0  0  0  0
  8  9  1  0  0  0  0
  8 25  1  0  0  0  0
  9 15  1  0  0  0  0
  9 10  1  0  0  0  0
  9 26  1  0  0  0  0
 10 14  1  0  0  0  0
 10 11  1  0  0  0  0
 10 27  1  0  0  0  0
 11 12  1  0  0  0  0
 11 28  1  0  0  0  0
 11 29  1  0  0  0  0
 12 13  1  0  0  0  0
 12 30  1  0  0  0  0
 12 31  1  0  0  0  0
 13 14  1  0  0  0  0
 13 15  1  0  0  0  0
 13 32  1  0  0  0  0
 14 33  1  0  0  0  0
 14 34  1  0  0  0  0
 15 16  1  0  0  0  0
 15 35  1  0  0  0  0
 16 17  1  0  0  0  0
 16 36  1  0  0  0  0
 16 37  1  0  0  0  0
 17 38  1  0  0  0  0
 18 19  1  0  0  0  0
M  END
> <s_m_source_file>
AV-unprocessed.smi

> <i_m_source_file_index>
781

> <i_lp_mmshare_version>
43012

> <i_f3d_flags>
0

> <s_epik_input>
W0NIM11jMVtjSF1jKG5vMSlbTkhdQyg9TylbTkhdW0NASF0oW0NAQEhdMjMpW0NASF0oW0NIMl1bT0hdKVtDQEBIXShbQ0gyXTMpW0NIMl1bQ0gyXTI=

> <s_epik_cmdline>
J2VwaWtfcHl0aG9uJywgJy1waCcsICc3LjAnLCAnLXRuJywgJzgnLCAnLW1hJywgJzIwMCcsICctbWV0YWxfYmluZGluZycsICctaW1hZScsICc8aW5maWxlLm1hZT4nLCAnLW9tYWUnLCAnPG91dGZpbGUubWFlPic=

> <r_lp_tautomer_probability>
1

> <r_epik_Ionization_Penalty>
2.32222e-05

> <r_epik_Ionization_Penalty_Charging>
0

> <r_epik_Ionization_Penalty_Neutral>
2.32222e-05

> <r_epik_State_Penalty>
-0

> <r_epik_Charging_Adjusted_Penalty>
0

> <i_epik_Tot_Q>
0

> <i_epik_Tot_abs_Q>
0

> <r_epik_Metal_State_Penalty>
-0

> <b_epik_Metal_Only>
0

> <s_lp_Force_Field>
OPLS_2005

> <r_lp_Energy>
47.5532

> <b_lp_Chiralities_Consistent>
1

> <s_lp_Variant>
AV-unprocessed.smi:781-5

> <Gold.Version>
5.8.1

> <Gold.Id.Protein>
6NUR|6NUR_protein|mol2

> <Gold.PLP.Fitness>
40.0542

> <Gold.PLP.PLP>
-31.3934

> <Gold.PLP.part.hbond>
-4.0000

> <Gold.PLP.part.metal>
0.0000

> <Gold.PLP.part.buried>
-4.1271

> <Gold.PLP.part.nonpolar>
-22.9088

> <Gold.PLP.part.repulsive>
0.2798

> <Gold.PLP.ligand.clash>
0.0000

> <Gold.PLP.ligand.torsion>
0.1752

> <Gold.PLP.Chemscore.Hbond>
3.0000

> <Gold.PLP.Chemscore.CHOScore>
0.0000

> <Gold.PLP.Chemscore.Metal>
0.0000

> <Gold.Chemscore.Hbonds>
donor molecule, donor type, donor heavy atom, donor atom, acceptor molecule, acceptor atom, score
      L1  H     5    24       P1  7948  1.00
      L1  H     8    25       P1  7948  1.00
      L1  H    17    38       P1  7921  1.00

> <Gold.PLP.Chemscore.Internal.Correction>
0.0112

> <Gold.Rescore>
     Score         DG    S(hbond)    S(metal)    S(lipo)     H(rot)  DE(clash)    DE(int)     intcor
     15.47     -19.39       2.95        0.00      75.27       1.86       0.17       3.76       ----

> <Gold.Chemscore.Fitness>
15.4673

> <Gold.Chemscore.DG>
-19.3906

> <Gold.Chemscore.ZeroCoef>
-5.4800

> <Gold.Chemscore.Hbond>
2.9528

> <Gold.Chemscore.Metal>
0.0000

> <Gold.Chemscore.Lipo>
75.2711

> <Gold.Chemscore.Internal_Hbond>
0.0000

> <Gold.Chemscore.DEClash>
0.1653

> <Gold.Chemscore.DEInternal>
3.7581

> <Gold.Chemscore.Rot>
1.8587

> <Gold.Chemscore.Internal.Correction>
   9.000000E+99

> <Gold.Chemscore.Hbonds>
donor molecule, donor type, donor heavy atom, donor atom, acceptor molecule, acceptor atom, score
      L1  H     5    24       P1  7948  0.99
      L1  H     8    25       P1  7948  0.97
      L1  H    17    38       P1  7921  0.94

> <Gold.Chemscore.Hbond.Weighted>
-9.8622

> <Gold.Chemscore.Metal.Weighted>
-0.0000

> <Gold.Chemscore.Lipo.Weighted>
-8.8067

> <Gold.Chemscore.Internal_Hbond.Weighted>
0.0000

> <Gold.Chemscore.DEClash.Weighted>
0.1653

> <Gold.Chemscore.DEInternal.Weighted>
3.7581

> <Gold.Chemscore.Rot.Weighted>
4.7583

> <Gold.Chemscore.Internal.Correction.Weighted>
   9.000000E+99

> <Gold.Protein.RotatedTorsions>
[ 6907 6896 6895 6894 ] final  -89.30 input  -60.11 | X-H torsion
[ 7974 7965 7964 7962 ] final  171.45 input  175.53 | X-H torsion
[ 8008 7997 7996 7995 ] final -123.22 input   59.86 | X-H torsion
[ 10167 10162 10161 10158 ] final  172.07 input  -65.29 | X-H torsion
[ 10718 10713 10712 10709 ] final -111.95 input   66.30 | X-H torsion
[ 10763 10752 10751 10750 ] final  -66.20 input  -60.55 | X-H torsion
[ 11005 11000 10999 10996 ] final   12.65 input  -57.11 | X-H torsion

> <Gold.Protein.ActiveResidues>
 VAL166  LYS551  ARG553  GLY616  TRP617  ASP618  TYR619  PRO620  LYS621  CYS622 
 ASP623  PHE694  ASN695  SER759  ASP760  ASP761  ALA762  ILE779  LEU786  VAL792 
 PHE793  MET794  SER795  GLU796  ALA797  LYS798  CYS799  TRP800  GLU811  SER814 

> <Gold.Protein.RotatedAtoms>
  150.6873  134.2608  159.4548 H   0  0  0  0  0  0  0  0  0  0  0  0  # atno 6907 bound_to 6896
  152.0538  134.9634  160.0584 H   0  0  0  0  0  0  0  0  0  0  0  0  # atno 6908 bound_to 6896
  152.1088  133.4255  159.4658 H   0  0  0  0  0  0  0  0  0  0  0  0  # atno 6909 bound_to 6896
  144.7294  139.9351  143.6426 H   0  0  0  0  0  0  0  0  0  0  0  0  # atno 7974 bound_to 7965
  155.1769  140.0409  157.2874 H   0  0  0  0  0  0  0  0  0  0  0  0  # atno 8008 bound_to 7997
  154.6230  140.2505  155.7498 H   0  0  0  0  0  0  0  0  0  0  0  0  # atno 8009 bound_to 7997
  156.2444  140.2891  156.0547 H   0  0  0  0  0  0  0  0  0  0  0  0  # atno 8010 bound_to 7997
  139.5065  144.3415  152.0013 H   0  0  0  0  0  0  0  0  0  0  0  0  # atno 10167 bound_to 10162
  156.0677  130.5894  150.8443 H   0  0  0  0  0  0  0  0  0  0  0  0  # atno 10718 bound_to 10713
  154.3563  135.6126  153.5668 H   0  0  0  0  0  0  0  0  0  0  0  0  # atno 10763 bound_to 10752
  152.9795  135.5804  154.4685 H   0  0  0  0  0  0  0  0  0  0  0  0  # atno 10764 bound_to 10752
  154.4415  135.2850  155.1822 H   0  0  0  0  0  0  0  0  0  0  0  0  # atno 10765 bound_to 10752
  140.4896  134.0854  155.7768 H   0  0  0  0  0  0  0  0  0  0  0  0  # atno 11005 bound_to 11000
  146.0827  139.3815  143.0454 LP  0  0  0  0  0  0  0  0  0  0  0  0  # atno 17320 bound_to 7965
  145.7818  140.9853  143.1095 LP  0  0  0  0  0  0  0  0  0  0  0  0  # atno 17321 bound_to 7965
  140.2853  144.3814  150.6106 LP  0  0  0  0  0  0  0  0  0  0  0  0  # atno 17342 bound_to 10162
  140.5987  143.2167  151.7113 LP  0  0  0  0  0  0  0  0  0  0  0  0  # atno 17343 bound_to 10162
  157.5729  131.0946  150.9390 LP  0  0  0  0  0  0  0  0  0  0  0  0  # atno 17370 bound_to 10713
  156.9602  130.5452  149.5285 LP  0  0  0  0  0  0  0  0  0  0  0  0  # atno 17371 bound_to 10713
  141.1491  133.9002  157.2143 LP  0  0  0  0  0  0  0  0  0  0  0  0  # atno 17394 bound_to 11000
  139.9777  135.0108  156.9673 LP  0  0  0  0  0  0  0  0  0  0  0  0  # atno 17395 bound_to 11000

$$$$
