AV-unprocessed.smi:3152|AV-procd|sdf|12017|dock7
  -GOLD-   2272017423D 1   1.00000     0.00000
 Structure written by MMmdl.
 41 42  0  0  0  0  0  0  0  0  2 V2000
  144.5249  132.3744  150.6803 C   0  0  0  0  0  0  0  0  0  0  0  0
  144.6826  133.6780  151.4087 C   0  0  0  0  0  0  0  0  0  0  0  0
  144.1594  134.0331  152.6844 C   0  0  0  0  0  0  0  0  0  0  0  0
  144.4821  135.2637  153.0480 N   0  0  0  0  0  0  0  0  0  0  0  0
  145.2213  135.7356  152.0223 N   0  0  0  0  0  0  0  0  0  0  0  0
  145.7561  137.0818  152.0844 C   0  0  0  0  0  0  0  0  0  0  0  0
  146.5713  137.3067  153.3658 C   0  0  0  0  0  0  0  0  0  0  0  0
  147.6428  138.2973  153.1490 N   0  3  0  0  0  0  0  0  0  0  0  0
  147.7724  139.2894  154.2373 C   0  0  0  0  0  0  0  0  0  0  0  0
  149.2250  139.7841  154.4167 C   0  0  0  0  0  0  0  0  0  0  0  0
  149.5327  140.5987  153.2993 O   0  0  0  0  0  0  0  0  0  0  0  0
  149.3993  140.6050  155.7187 C   0  0  0  0  0  0  0  0  0  0  0  0
  150.8639  140.9903  155.9941 C   0  0  0  0  0  0  0  0  0  0  0  0
  151.7768  139.7565  156.0039 C   0  0  0  0  0  0  0  0  0  0  0  0
  151.6544  138.9731  154.6898 C   0  0  0  0  0  0  0  0  0  0  0  0
  150.1935  138.5773  154.4092 C   0  0  0  0  0  0  0  0  0  0  0  0
  145.3565  134.8006  151.0178 C   0  0  0  0  0  0  0  0  0  0  0  0
  143.5590  131.9118  150.8841 H   0  0  0  0  0  0  0  0  0  0  0  0
  145.2925  131.6575  150.9719 H   0  0  0  0  0  0  0  0  0  0  0  0
  144.5971  132.5021  149.5999 H   0  0  0  0  0  0  0  0  0  0  0  0
  143.5582  133.4353  153.3537 H   0  0  0  0  0  0  0  0  0  0  0  0
  146.3761  137.2515  151.2031 H   0  0  0  0  0  0  0  0  0  0  0  0
  144.9252  137.7867  152.0293 H   0  0  0  0  0  0  0  0  0  0  0  0
  145.9211  137.6590  154.1679 H   0  0  0  0  0  0  0  0  0  0  0  0
  147.0119  136.3654  153.6971 H   0  0  0  0  0  0  0  0  0  0  0  0
  148.5239  137.8113  153.0582 H   0  0  0  0  0  0  0  0  0  0  0  0
  147.1183  140.1354  154.0206 H   0  0  0  0  0  0  0  0  0  0  0  0
  147.4104  138.8423  155.1645 H   0  0  0  0  0  0  0  0  0  0  0  0
  149.2397  140.1565  152.5164 H   0  0  0  0  0  0  0  0  0  0  0  0
  148.7912  141.5099  155.6880 H   0  0  0  0  0  0  0  0  0  0  0  0
  149.0288  140.0209  156.5625 H   0  0  0  0  0  0  0  0  0  0  0  0
  151.2096  141.6952  155.2369 H   0  0  0  0  0  0  0  0  0  0  0  0
  150.9352  141.5096  156.9502 H   0  0  0  0  0  0  0  0  0  0  0  0
  152.8122  140.0603  156.1614 H   0  0  0  0  0  0  0  0  0  0  0  0
  151.5127  139.1106  156.8423 H   0  0  0  0  0  0  0  0  0  0  0  0
  152.0419  139.5740  153.8666 H   0  0  0  0  0  0  0  0  0  0  0  0
  152.2767  138.0788  154.7342 H   0  0  0  0  0  0  0  0  0  0  0  0
  149.8789  137.8604  155.1690 H   0  0  0  0  0  0  0  0  0  0  0  0
  150.1345  138.0493  153.4563 H   0  0  0  0  0  0  0  0  0  0  0  0
  145.9169  135.0071  150.1179 H   0  0  0  0  0  0  0  0  0  0  0  0
  147.4566  138.7901  152.2873 H   0  0  0  0  0  0  0  0  0  0  0  0
  1  2  1  0  0  0  0
  1 18  1  0  0  0  0
  1 19  1  0  0  0  0
  1 20  1  0  0  0  0
  2 17  2  0  0  0  0
  2  3  1  0  0  0  0
  3  4  2  0  0  0  0
  3 21  1  0  0  0  0
  4  5  1  0  0  0  0
  5  6  1  0  0  0  0
  5 17  1  0  0  0  0
  6  7  1  0  0  0  0
  6 22  1  0  0  0  0
  6 23  1  0  0  0  0
  7  8  1  0  0  0  0
  7 24  1  0  0  0  0
  7 25  1  0  0  0  0
  8  9  1  0  0  0  0
  8 26  1  0  0  0  0
  8 41  1  0  0  0  0
  9 10  1  0  0  0  0
  9 27  1  0  0  0  0
  9 28  1  0  0  0  0
 10 16  1  0  0  0  0
 10 11  1  0  0  0  0
 10 12  1  0  0  0  0
 11 29  1  0  0  0  0
 12 13  1  0  0  0  0
 12 30  1  0  0  0  0
 12 31  1  0  0  0  0
 13 14  1  0  0  0  0
 13 32  1  0  0  0  0
 13 33  1  0  0  0  0
 14 15  1  0  0  0  0
 14 34  1  0  0  0  0
 14 35  1  0  0  0  0
 15 16  1  0  0  0  0
 15 36  1  0  0  0  0
 15 37  1  0  0  0  0
 16 38  1  0  0  0  0
 16 39  1  0  0  0  0
 17 40  1  0  0  0  0
M  CHG  1   8   1
M  END
> <s_m_source_file>
AV-unprocessed.smi

> <i_m_source_file_index>
3152

> <i_lp_mmshare_version>
43012

> <i_f3d_flags>
0

> <s_epik_input>
W0NIM11jMVtjSF1ubihbY0hdMSlbQ0gyXVtDSDJdW05IXVtDSDJdQzIoW09IXSlbQ0gyXVtDSDJdW0NIMl1bQ0gyXVtDSDJdMg==

> <s_epik_cmdline>
J2VwaWtfcHl0aG9uJywgJy1waCcsICc3LjAnLCAnLXRuJywgJzgnLCAnLW1hJywgJzIwMCcsICctbWV0YWxfYmluZGluZycsICctaW1hZScsICc8aW5maWxlLm1hZT4nLCAnLW9tYWUnLCAnPG91dGZpbGUubWFlPic=

> <r_lp_tautomer_probability>
1

> <r_epik_Ionization_Penalty>
0.0240188

> <r_epik_Ionization_Penalty_Charging>
0.0240119

> <r_epik_Ionization_Penalty_Neutral>
6.9154e-06

> <r_epik_State_Penalty>
0.0194671

> <r_epik_Charging_Adjusted_Penalty>
0.043479

> <i_epik_Tot_Q>
1

> <i_epik_Tot_abs_Q>
1

> <r_epik_Metal_State_Penalty>
0.0195537

> <b_epik_Metal_Only>
0

> <s_lp_Force_Field>
OPLS_2005

> <r_lp_Energy>
14.7618

> <b_lp_Chiralities_Consistent>
1

> <s_lp_Variant>
AV-unprocessed.smi:3152-1

> <Gold.Version>
5.8.1

> <Gold.Id.Protein>
6NUR|6NUR_protein|mol2

> <Gold.PLP.Fitness>
45.3163

> <Gold.PLP.PLP>
-33.3208

> <Gold.PLP.part.hbond>
-3.2477

> <Gold.PLP.part.metal>
0.0000

> <Gold.PLP.part.buried>
-3.6950

> <Gold.PLP.part.nonpolar>
-28.1788

> <Gold.PLP.part.repulsive>
0.1081

> <Gold.PLP.ligand.clash>
0.0000

> <Gold.PLP.ligand.torsion>
0.8329

> <Gold.PLP.Chemscore.Hbond>
2.6589

> <Gold.PLP.Chemscore.CHOScore>
1.8923

> <Gold.PLP.Chemscore.Metal>
0.0000

> <Gold.Chemscore.Hbonds>
donor molecule, donor type, donor heavy atom, donor atom, acceptor molecule, acceptor atom, score
      L1  H     8    26       P1  7948  1.12
      L1  H    11    29       P1  7957  0.55
      P1  H  7989  7998       L1    11  0.29
      P1  H  8011  8017       L1    11  0.59
      L1  C     3    21       P1 10957  1.00
      L1  C    17    40       P1  7921  1.00

> <Gold.PLP.Chemscore.Internal.Correction>
0.0075

> <Gold.Rescore>
     Score         DG    S(hbond)    S(metal)    S(lipo)     H(rot)  DE(clash)    DE(int)     intcor
     15.71     -16.65       2.31        0.00      76.90       2.17       0.09       0.86       ----

> <Gold.Chemscore.Fitness>
15.7125

> <Gold.Chemscore.DG>
-16.6543

> <Gold.Chemscore.ZeroCoef>
-5.4800

> <Gold.Chemscore.Hbond>
2.3140

> <Gold.Chemscore.Metal>
0.0000

> <Gold.Chemscore.Lipo>
76.8976

> <Gold.Chemscore.Internal_Hbond>
0.0000

> <Gold.Chemscore.DEClash>
0.0856

> <Gold.Chemscore.DEInternal>
0.8561

> <Gold.Chemscore.Rot>
2.1685

> <Gold.Chemscore.Internal.Correction>
   9.000000E+99

> <Gold.Chemscore.Hbonds>
donor molecule, donor type, donor heavy atom, donor atom, acceptor molecule, acceptor atom, score
      L1  H     8    26       P1  7948  0.53
      L1  H    11    29       P1  7957  0.53
      P1  H  7989  7998       L1    11  0.12
      P1  H  8011  8017       L1    11  0.05

> <Gold.Chemscore.Hbond.Weighted>
-7.7287

> <Gold.Chemscore.Metal.Weighted>
-0.0000

> <Gold.Chemscore.Lipo.Weighted>
-8.9970

> <Gold.Chemscore.Internal_Hbond.Weighted>
0.0000

> <Gold.Chemscore.DEClash.Weighted>
0.0856

> <Gold.Chemscore.DEInternal.Weighted>
0.8561

> <Gold.Chemscore.Rot.Weighted>
5.5514

> <Gold.Chemscore.Internal.Correction.Weighted>
   9.000000E+99

> <Gold.Protein.RotatedTorsions>
[ 6907 6896 6895 6894 ] final  170.82 input  -60.11 | X-H torsion
[ 7974 7965 7964 7962 ] final    8.04 input  175.53 | X-H torsion
[ 8008 7997 7996 7995 ] final -128.59 input   59.86 | X-H torsion
[ 10167 10162 10161 10158 ] final  -75.88 input  -65.29 | X-H torsion
[ 10718 10713 10712 10709 ] final  -33.10 input   66.30 | X-H torsion
[ 10763 10752 10751 10750 ] final -159.58 input  -60.55 | X-H torsion
[ 11005 11000 10999 10996 ] final  142.88 input  -57.11 | X-H torsion

> <Gold.Protein.ActiveResidues>
 VAL166  LYS551  ARG553  GLY616  TRP617  ASP618  TYR619  PRO620  LYS621  CYS622 
 ASP623  PHE694  ASN695  SER759  ASP760  ASP761  ALA762  ILE779  LEU786  VAL792 
 PHE793  MET794  SER795  GLU796  ALA797  LYS798  CYS799  TRP800  GLU811  SER814 

> <Gold.Protein.RotatedAtoms>
  151.8100  133.3380  159.3552 H   0  0  0  0  0  0  0  0  0  0  0  0  # atno 6907 bound_to 6896
  150.7329  134.5673  159.5882 H   0  0  0  0  0  0  0  0  0  0  0  0  # atno 6908 bound_to 6896
  152.3082  134.7531  160.0394 H   0  0  0  0  0  0  0  0  0  0  0  0  # atno 6909 bound_to 6896
  146.2420  139.9992  142.8417 H   0  0  0  0  0  0  0  0  0  0  0  0  # atno 7974 bound_to 7965
  155.2652  140.0437  157.3001 H   0  0  0  0  0  0  0  0  0  0  0  0  # atno 8008 bound_to 7997
  154.5686  140.2367  155.8194 H   0  0  0  0  0  0  0  0  0  0  0  0  # atno 8009 bound_to 7997
  156.2105  140.3000  155.9729 H   0  0  0  0  0  0  0  0  0  0  0  0  # atno 8010 bound_to 7997
  140.4905  143.2381  151.7915 H   0  0  0  0  0  0  0  0  0  0  0  0  # atno 10167 bound_to 10162
  156.3668  130.4333  149.7578 H   0  0  0  0  0  0  0  0  0  0  0  0  # atno 10718 bound_to 10713
  154.7463  135.3081  154.8639 H   0  0  0  0  0  0  0  0  0  0  0  0  # atno 10763 bound_to 10752
  153.9439  135.6771  153.4748 H   0  0  0  0  0  0  0  0  0  0  0  0  # atno 10764 bound_to 10752
  153.1059  135.4889  154.8877 H   0  0  0  0  0  0  0  0  0  0  0  0  # atno 10765 bound_to 10752
  140.0511  134.9255  157.1018 H   0  0  0  0  0  0  0  0  0  0  0  0  # atno 11005 bound_to 11000
  145.1431  140.9582  143.4477 LP  0  0  0  0  0  0  0  0  0  0  0  0  # atno 17320 bound_to 7965
  145.0277  139.3368  143.6040 LP  0  0  0  0  0  0  0  0  0  0  0  0  # atno 17321 bound_to 7965
  139.4850  144.4656  151.9488 LP  0  0  0  0  0  0  0  0  0  0  0  0  # atno 17342 bound_to 10162
  140.3742  144.2817  150.5916 LP  0  0  0  0  0  0  0  0  0  0  0  0  # atno 17343 bound_to 10162
  156.4721  130.8001  151.3019 LP  0  0  0  0  0  0  0  0  0  0  0  0  # atno 17370 bound_to 10713
  157.7479  131.0032  150.3031 LP  0  0  0  0  0  0  0  0  0  0  0  0  # atno 17371 bound_to 10713
  140.3916  134.2178  155.7166 LP  0  0  0  0  0  0  0  0  0  0  0  0  # atno 17394 bound_to 11000
  141.1930  133.8159  157.0814 LP  0  0  0  0  0  0  0  0  0  0  0  0  # atno 17395 bound_to 11000

$$$$
