AV-unprocessed.smi:2478|AV-procd|sdf|9766|dock6
  -GOLD-   2272013413D 1   1.00000     0.00000
 Structure written by MMmdl.
 42 43  0  0  0  0  0  0  0  0  1 V2000
  153.7623  133.2962  160.9947 C   0  0  0  0  0  0  0  0  0  0  0  0
  153.0545  133.9490  162.1934 C   0  0  1  0  0  0  0  0  0  0  0  0
  153.4511  133.2444  163.5069 C   0  0  0  0  0  0  0  0  0  0  0  0
  152.7724  133.8847  164.7275 C   0  0  0  0  0  0  0  0  0  0  0  0
  153.0809  135.3861  164.8054 C   0  0  0  0  0  0  0  0  0  0  0  0
  152.6717  136.0970  163.5078 C   0  0  0  0  0  0  0  0  0  0  0  0
  153.3510  135.4635  162.2756 C   0  0  2  0  0  0  0  0  0  0  0  0
  152.8401  136.0812  161.1015 O   0  0  0  0  0  0  0  0  0  0  0  0
  152.8592  137.5013  161.1367 C   0  0  0  0  0  0  0  0  0  0  0  0
  152.1818  138.0295  159.8754 C   0  0  0  0  0  0  0  0  0  0  0  0
  151.2985  137.3644  159.3345 O   0  0  0  0  0  0  0  0  0  0  0  0
  152.6343  139.2169  159.4329 N   0  0  0  0  0  0  0  0  0  0  0  0
  152.2166  139.9589  158.2951 C   0  0  0  0  0  0  0  0  0  0  0  0
  152.2442  139.4592  157.0342 N   0  0  0  0  0  0  0  0  0  0  0  0
  151.8260  140.2282  156.0088 C   0  0  0  0  0  0  0  0  0  0  0  0
  151.3522  141.5404  156.1775 C   0  0  0  0  0  0  0  0  0  0  0  0
  151.3193  142.0712  157.4786 C   0  0  0  0  0  0  0  0  0  0  0  0
  151.7661  141.2765  158.5613 C   0  0  0  0  0  0  0  0  0  0  0  0
  151.7464  141.7297  159.8628 O   0  0  0  0  0  0  0  0  0  0  0  0
  152.6882  142.6232  160.2664 C   0  0  0  0  0  0  0  0  0  0  0  0
  152.5350  143.8005  159.6119 F   0  0  0  0  0  0  0  0  0  0  0  0
  152.5480  142.8684  161.5913 F   0  0  0  0  0  0  0  0  0  0  0  0
  154.8448  133.4051  161.0674 H   0  0  0  0  0  0  0  0  0  0  0  0
  153.4460  133.7455  160.0529 H   0  0  0  0  0  0  0  0  0  0  0  0
  153.5385  132.2306  160.9394 H   0  0  0  0  0  0  0  0  0  0  0  0
  151.9798  133.8198  162.0552 H   0  0  0  0  0  0  0  0  0  0  0  0
  153.1865  132.1876  163.4576 H   0  0  0  0  0  0  0  0  0  0  0  0
  154.5338  133.2846  163.6339 H   0  0  0  0  0  0  0  0  0  0  0  0
  151.6936  133.7348  164.6675 H   0  0  0  0  0  0  0  0  0  0  0  0
  153.1036  133.3888  165.6403 H   0  0  0  0  0  0  0  0  0  0  0  0
  152.5587  135.8299  165.6535 H   0  0  0  0  0  0  0  0  0  0  0  0
  154.1465  135.5342  164.9847 H   0  0  0  0  0  0  0  0  0  0  0  0
  151.5878  136.0449  163.3935 H   0  0  0  0  0  0  0  0  0  0  0  0
  152.9214  137.1551  163.5820 H   0  0  0  0  0  0  0  0  0  0  0  0
  154.4326  135.6006  162.3389 H   0  0  0  0  0  0  0  0  0  0  0  0
  152.3274  137.8848  162.0077 H   0  0  0  0  0  0  0  0  0  0  0  0
  153.8878  137.8620  161.1887 H   0  0  0  0  0  0  0  0  0  0  0  0
  153.3682  139.6430  159.9801 H   0  0  0  0  0  0  0  0  0  0  0  0
  151.8675  139.7826  155.0258 H   0  0  0  0  0  0  0  0  0  0  0  0
  151.0198  142.1231  155.3312 H   0  0  0  0  0  0  0  0  0  0  0  0
  150.9496  143.0738  157.6341 H   0  0  0  0  0  0  0  0  0  0  0  0
  153.6984  142.2471  160.1021 H   0  0  0  0  0  0  0  0  0  0  0  0
  1  2  1  0  0  0  0
  1 23  1  0  0  0  0
  1 24  1  0  0  0  0
  1 25  1  0  0  0  0
  2  7  1  0  0  0  0
  2  3  1  0  0  0  0
  2 26  1  0  0  0  0
  3  4  1  0  0  0  0
  3 27  1  0  0  0  0
  3 28  1  0  0  0  0
  4  5  1  0  0  0  0
  4 29  1  0  0  0  0
  4 30  1  0  0  0  0
  5  6  1  0  0  0  0
  5 31  1  0  0  0  0
  5 32  1  0  0  0  0
  6  7  1  0  0  0  0
  6 33  1  0  0  0  0
  6 34  1  0  0  0  0
  7  8  1  0  0  0  0
  7 35  1  0  0  0  0
  8  9  1  0  0  0  0
  9 10  1  0  0  0  0
  9 36  1  0  0  0  0
  9 37  1  0  0  0  0
 10 11  2  0  0  0  0
 10 12  1  0  0  0  0
 12 13  1  0  0  0  0
 12 38  1  0  0  0  0
 13 18  1  0  0  0  0
 13 14  2  0  0  0  0
 14 15  1  0  0  0  0
 15 16  2  0  0  0  0
 15 39  1  0  0  0  0
 16 17  1  0  0  0  0
 16 40  1  0  0  0  0
 17 18  2  0  0  0  0
 17 41  1  0  0  0  0
 18 19  1  0  0  0  0
 19 20  1  0  0  0  0
 20 21  1  0  0  0  0
 20 22  1  0  0  0  0
 20 42  1  0  0  0  0
M  END
> <s_m_source_file>
AV-unprocessed.smi

> <i_m_source_file_index>
2478

> <i_lp_mmshare_version>
43012

> <i_f3d_flags>
0

> <s_epik_input>
W0NIM11bQ0BASF0xW0NIMl1bQ0gyXVtDSDJdW0NIMl1bQ0BIXTFPW0NIMl1DKD1PKVtOSF1jMm5bY0hdW2NIXVtjSF1jMk9bQ0hdKEYpRg==

> <s_epik_cmdline>
J2VwaWtfcHl0aG9uJywgJy1waCcsICc3LjAnLCAnLXRuJywgJzgnLCAnLW1hJywgJzIwMCcsICctbWV0YWxfYmluZGluZycsICctaW1hZScsICc8aW5maWxlLm1hZT4nLCAnLW9tYWUnLCAnPG91dGZpbGUubWFlPic=

> <r_lp_tautomer_probability>
1

> <r_epik_Ionization_Penalty>
6.06012e-05

> <r_epik_Ionization_Penalty_Charging>
0

> <r_epik_Ionization_Penalty_Neutral>
6.06012e-05

> <r_epik_State_Penalty>
-0

> <r_epik_Charging_Adjusted_Penalty>
0

> <i_epik_Tot_Q>
0

> <i_epik_Tot_abs_Q>
0

> <r_epik_Metal_State_Penalty>
-0

> <b_epik_Metal_Only>
0

> <s_lp_Force_Field>
OPLS_2005

> <r_lp_Energy>
13.1013

> <b_lp_Chiralities_Consistent>
1

> <s_lp_Variant>
AV-unprocessed.smi:2478-4

> <Gold.Version>
5.8.1

> <Gold.Id.Protein>
6NUR|6NUR_protein|mol2

> <Gold.PLP.Fitness>
44.1255

> <Gold.PLP.PLP>
-42.1677

> <Gold.PLP.part.hbond>
-2.2881

> <Gold.PLP.part.metal>
0.0000

> <Gold.PLP.part.buried>
-3.5815

> <Gold.PLP.part.nonpolar>
-37.3529

> <Gold.PLP.part.repulsive>
0.0847

> <Gold.PLP.ligand.clash>
0.0000

> <Gold.PLP.ligand.torsion>
1.1553

> <Gold.PLP.Chemscore.Hbond>
1.3971

> <Gold.PLP.Chemscore.CHOScore>
0.0000

> <Gold.PLP.Chemscore.Metal>
0.0000

> <Gold.Chemscore.Hbonds>
donor molecule, donor type, donor heavy atom, donor atom, acceptor molecule, acceptor atom, score
      P1  H  6896  6907       L1     8  0.59
      P1  H  7997  8008       L1    14  0.16

> <Gold.PLP.Chemscore.Internal.Correction>
0.0772

> <Gold.Rescore>
     Score         DG    S(hbond)    S(metal)    S(lipo)     H(rot)  DE(clash)    DE(int)     intcor
     12.82     -14.22       0.98        0.00      87.26       1.85       0.07       1.33       ----

> <Gold.Chemscore.Fitness>
12.8158

> <Gold.Chemscore.DG>
-14.2189

> <Gold.Chemscore.ZeroCoef>
-5.4800

> <Gold.Chemscore.Hbond>
0.9763

> <Gold.Chemscore.Metal>
0.0000

> <Gold.Chemscore.Lipo>
87.2579

> <Gold.Chemscore.Internal_Hbond>
0.0000

> <Gold.Chemscore.DEClash>
0.0717

> <Gold.Chemscore.DEInternal>
1.3314

> <Gold.Chemscore.Rot>
1.8481

> <Gold.Chemscore.Internal.Correction>
   9.000000E+99

> <Gold.Chemscore.Hbonds>
donor molecule, donor type, donor heavy atom, donor atom, acceptor molecule, acceptor atom, score
      P1  H  6896  6907       L1     8  0.57

> <Gold.Chemscore.Hbond.Weighted>
-3.2608

> <Gold.Chemscore.Metal.Weighted>
-0.0000

> <Gold.Chemscore.Lipo.Weighted>
-10.2092

> <Gold.Chemscore.Internal_Hbond.Weighted>
0.0000

> <Gold.Chemscore.DEClash.Weighted>
0.0717

> <Gold.Chemscore.DEInternal.Weighted>
1.3314

> <Gold.Chemscore.Rot.Weighted>
4.7311

> <Gold.Chemscore.Internal.Correction.Weighted>
   9.000000E+99

> <Gold.Protein.RotatedTorsions>
[ 6907 6896 6895 6894 ] final    6.83 input  -60.11 | X-H torsion
[ 7974 7965 7964 7962 ] final -112.47 input  175.53 | X-H torsion
[ 8008 7997 7996 7995 ] final  -63.09 input   59.86 | X-H torsion
[ 10167 10162 10161 10158 ] final   90.00 input  -65.29 | X-H torsion
[ 10718 10713 10712 10709 ] final  120.52 input   66.30 | X-H torsion
[ 10763 10752 10751 10750 ] final  124.48 input  -60.55 | X-H torsion
[ 11005 11000 10999 10996 ] final  -18.11 input  -57.11 | X-H torsion

> <Gold.Protein.ActiveResidues>
 VAL166  LYS551  ARG553  GLY616  TRP617  ASP618  TYR619  PRO620  LYS621  CYS622 
 ASP623  PHE694  ASN695  SER759  ASP760  ASP761  ALA762  ILE779  LEU786  VAL792 
 PHE793  MET794  SER795  GLU796  ALA797  LYS798  CYS799  TRP800  GLU811  SER814 

> <Gold.Protein.RotatedAtoms>
  151.6801  135.0963  160.0214 H   0  0  0  0  0  0  0  0  0  0  0  0  # atno 6907 bound_to 6896
  152.3841  133.6582  159.6193 H   0  0  0  0  0  0  0  0  0  0  0  0  # atno 6908 bound_to 6896
  150.7770  133.8982  159.3374 H   0  0  0  0  0  0  0  0  0  0  0  0  # atno 6909 bound_to 6896
  145.1436  140.8791  143.3687 H   0  0  0  0  0  0  0  0  0  0  0  0  # atno 7974 bound_to 7965
  154.4535  140.0982  156.6688 H   0  0  0  0  0  0  0  0  0  0  0  0  # atno 8008 bound_to 7997
  155.5211  140.3479  155.4388 H   0  0  0  0  0  0  0  0  0  0  0  0  # atno 8009 bound_to 7997
  156.0730  140.1354  156.9794 H   0  0  0  0  0  0  0  0  0  0  0  0  # atno 8010 bound_to 7997
  139.8517  144.6590  150.9162 H   0  0  0  0  0  0  0  0  0  0  0  0  # atno 10167 bound_to 10162
  157.5885  131.1067  150.8047 H   0  0  0  0  0  0  0  0  0  0  0  0  # atno 10718 bound_to 10713
  153.6621  135.3344  155.3130 H   0  0  0  0  0  0  0  0  0  0  0  0  # atno 10763 bound_to 10752
  154.8512  135.4366  154.1794 H   0  0  0  0  0  0  0  0  0  0  0  0  # atno 10764 bound_to 10752
  153.2763  135.7005  153.7505 H   0  0  0  0  0  0  0  0  0  0  0  0  # atno 10765 bound_to 10752
  140.8236  133.8050  155.9684 H   0  0  0  0  0  0  0  0  0  0  0  0  # atno 11005 bound_to 11000
  145.0506  139.3185  143.5931 LP  0  0  0  0  0  0  0  0  0  0  0  0  # atno 17320 bound_to 7965
  146.3502  139.9912  142.8685 LP  0  0  0  0  0  0  0  0  0  0  0  0  # atno 17321 bound_to 7965
  140.7786  143.3821  151.1457 LP  0  0  0  0  0  0  0  0  0  0  0  0  # atno 17342 bound_to 10162
  139.7459  143.8853  152.3063 LP  0  0  0  0  0  0  0  0  0  0  0  0  # atno 17343 bound_to 10162
  156.8475  130.5069  149.5315 LP  0  0  0  0  0  0  0  0  0  0  0  0  # atno 17370 bound_to 10713
  156.0936  130.5915  150.9776 LP  0  0  0  0  0  0  0  0  0  0  0  0  # atno 17371 bound_to 10713
  140.9073  134.2304  157.5006 LP  0  0  0  0  0  0  0  0  0  0  0  0  # atno 17394 bound_to 11000
  139.8707  134.9734  156.4808 LP  0  0  0  0  0  0  0  0  0  0  0  0  # atno 17395 bound_to 11000

$$$$
