AV-unprocessed.smi:1205|AV-procd|sdf|5040|dock10
  -GOLD-   22720 4 63D 1   1.00000     0.00000
 Structure written by MMmdl.
 49 50  0  0  0  0  0  0  0  0  2 V2000
  153.2369  141.9538  161.1243 C   0  0  0  0  0  0  0  0  0  0  0  0
  152.5625  142.4639  159.8848 C   0  0  0  0  0  0  0  0  0  0  0  0
  151.5397  141.8329  159.1186 C   0  0  0  0  0  0  0  0  0  0  0  0
  151.3129  142.7370  158.1171 C   0  0  0  0  0  0  0  0  0  0  0  0
  150.4383  142.6610  157.0790 N   0  0  0  0  0  0  0  0  0  0  0  0
  150.0124  141.5708  156.4177 C   0  0  0  0  0  0  0  0  0  0  0  0
  150.3559  140.4115  156.6503 O   0  0  0  0  0  0  0  0  0  0  0  0
  149.1396  141.8982  155.4541 N   0  0  0  0  0  0  0  0  0  0  0  0
  148.4870  140.9454  154.5616 C   0  0  0  0  0  0  0  0  0  0  0  0
  146.9419  141.0727  154.5843 C   0  0  1  0  0  0  0  0  0  0  0  0
  146.4441  142.3706  153.9200 C   0  0  0  0  0  0  0  0  0  0  0  0
  146.2458  139.8852  154.0077 N   0  3  1  0  0  0  0  0  0  0  0  0
  146.8892  139.2896  152.8049 C   0  0  0  0  0  0  0  0  0  0  0  0
  145.9685  138.2419  152.1603 C   0  0  0  0  0  0  0  0  0  0  0  0
  145.5874  137.1529  153.1718 C   0  0  0  0  0  0  0  0  0  0  0  0
  144.9591  137.7837  154.4267 C   0  0  1  0  0  0  0  0  0  0  0  0
  144.5911  136.7164  155.4668 C   0  0  0  0  0  0  0  0  0  0  0  0
  145.9036  138.8493  155.0193 C   0  0  0  0  0  0  0  0  0  0  0  0
  152.1506  143.8160  158.2930 N   0  0  0  0  0  0  0  0  0  0  0  0
  152.2881  145.0175  157.4931 C   0  0  0  0  0  0  0  0  0  0  0  0
  152.9214  143.6425  159.3883 N   0  0  0  0  0  0  0  0  0  0  0  0
  152.8316  140.9870  161.4239 H   0  0  0  0  0  0  0  0  0  0  0  0
  153.1006  142.6427  161.9579 H   0  0  0  0  0  0  0  0  0  0  0  0
  154.3082  141.8291  160.9649 H   0  0  0  0  0  0  0  0  0  0  0  0
  151.0694  140.8767  159.2914 H   0  0  0  0  0  0  0  0  0  0  0  0
  150.0520  143.5440  156.7787 H   0  0  0  0  0  0  0  0  0  0  0  0
  148.9128  142.8739  155.3270 H   0  0  0  0  0  0  0  0  0  0  0  0
  148.8714  141.1363  153.5599 H   0  0  0  0  0  0  0  0  0  0  0  0
  148.8022  139.9351  154.8259 H   0  0  0  0  0  0  0  0  0  0  0  0
  146.6254  141.1385  155.6263 H   0  0  0  0  0  0  0  0  0  0  0  0
  146.8072  143.2510  154.4507 H   0  0  0  0  0  0  0  0  0  0  0  0
  145.3548  142.4207  153.9247 H   0  0  0  0  0  0  0  0  0  0  0  0
  146.7784  142.4554  152.8863 H   0  0  0  0  0  0  0  0  0  0  0  0
  147.1162  140.0619  152.0708 H   0  0  0  0  0  0  0  0  0  0  0  0
  147.8353  138.8210  153.0785 H   0  0  0  0  0  0  0  0  0  0  0  0
  145.0666  138.7265  151.7836 H   0  0  0  0  0  0  0  0  0  0  0  0
  146.4620  137.7925  151.2982 H   0  0  0  0  0  0  0  0  0  0  0  0
  144.8932  136.4474  152.7136 H   0  0  0  0  0  0  0  0  0  0  0  0
  146.4755  136.5823  153.4468 H   0  0  0  0  0  0  0  0  0  0  0  0
  144.0352  138.2816  154.1278 H   0  0  0  0  0  0  0  0  0  0  0  0
  145.4730  136.1724  155.8065 H   0  0  0  0  0  0  0  0  0  0  0  0
  143.8911  135.9902  155.0525 H   0  0  0  0  0  0  0  0  0  0  0  0
  144.1194  137.1656  156.3413 H   0  0  0  0  0  0  0  0  0  0  0  0
  146.8149  138.3779  155.3899 H   0  0  0  0  0  0  0  0  0  0  0  0
  145.4191  139.3187  155.8765 H   0  0  0  0  0  0  0  0  0  0  0  0
  151.3029  145.4296  157.2734 H   0  0  0  0  0  0  0  0  0  0  0  0
  152.7926  144.7772  156.5569 H   0  0  0  0  0  0  0  0  0  0  0  0
  152.8711  145.7688  158.0277 H   0  0  0  0  0  0  0  0  0  0  0  0
  145.3544  140.2397  153.6916 H   0  0  0  0  0  0  0  0  0  0  0  0
  1  2  1  0  0  0  0
  1 22  1  0  0  0  0
  1 23  1  0  0  0  0
  1 24  1  0  0  0  0
  2 21  2  0  0  0  0
  2  3  1  0  0  0  0
  3  4  2  0  0  0  0
  3 25  1  0  0  0  0
  4  5  1  0  0  0  0
  4 19  1  0  0  0  0
  5  6  1  0  0  0  0
  5 26  1  0  0  0  0
  6  7  2  0  0  0  0
  6  8  1  0  0  0  0
  8  9  1  0  0  0  0
  8 27  1  0  0  0  0
  9 10  1  0  0  0  0
  9 28  1  0  0  0  0
  9 29  1  0  0  0  0
 10 11  1  0  0  0  0
 10 12  1  0  0  0  0
 10 30  1  0  0  0  0
 11 31  1  0  0  0  0
 11 32  1  0  0  0  0
 11 33  1  0  0  0  0
 12 18  1  0  0  0  0
 12 13  1  0  0  0  0
 12 49  1  0  0  0  0
 13 14  1  0  0  0  0
 13 34  1  0  0  0  0
 13 35  1  0  0  0  0
 14 15  1  0  0  0  0
 14 36  1  0  0  0  0
 14 37  1  0  0  0  0
 15 16  1  0  0  0  0
 15 38  1  0  0  0  0
 15 39  1  0  0  0  0
 16 17  1  0  0  0  0
 16 18  1  0  0  0  0
 16 40  1  0  0  0  0
 17 41  1  0  0  0  0
 17 42  1  0  0  0  0
 17 43  1  0  0  0  0
 18 44  1  0  0  0  0
 18 45  1  0  0  0  0
 19 20  1  0  0  0  0
 19 21  1  0  0  0  0
 20 46  1  0  0  0  0
 20 47  1  0  0  0  0
 20 48  1  0  0  0  0
M  CHG  1  12   1
M  END
> <s_m_source_file>
AV-unprocessed.smi

> <i_m_source_file_index>
1205

> <i_lp_mmshare_version>
43012

> <i_f3d_flags>
0

> <s_epik_input>
W0NIM11jMVtjSF1jKG4objEpW0NIM10pW05IXUMoPU8pW05IXVtDSDJdW0NASF0oW0NIM10pTjJbQ0gyXVtDSDJdW0NIMl1bQ0BASF0oW0NIM10pW0NIMl0y

> <s_epik_cmdline>
J2VwaWtfcHl0aG9uJywgJy1waCcsICc3LjAnLCAnLXRuJywgJzgnLCAnLW1hJywgJzIwMCcsICctbWV0YWxfYmluZGluZycsICctaW1hZScsICc8aW5maWxlLm1hZT4nLCAnLW9tYWUnLCAnPG91dGZpbGUubWFlPic=

> <r_lp_tautomer_probability>
1

> <r_epik_Ionization_Penalty>
0.0020309

> <r_epik_Ionization_Penalty_Charging>
0.00195276

> <r_epik_Ionization_Penalty_Neutral>
7.81448e-05

> <r_epik_State_Penalty>
0.00133177

> <r_epik_Charging_Adjusted_Penalty>
0.00328452

> <i_epik_Tot_Q>
1

> <i_epik_Tot_abs_Q>
1

> <r_epik_Metal_State_Penalty>
-0

> <b_epik_Metal_Only>
0

> <s_lp_Force_Field>
OPLS_2005

> <r_lp_Energy>
21.6269

> <b_lp_Chiralities_Consistent>
1

> <s_lp_Variant>
AV-unprocessed.smi:1205-2

> <Gold.Version>
5.8.1

> <Gold.Id.Protein>
6NUR|6NUR_protein|mol2

> <Gold.PLP.Fitness>
51.6578

> <Gold.PLP.PLP>
-41.7342

> <Gold.PLP.part.hbond>
-3.0000

> <Gold.PLP.part.metal>
0.0000

> <Gold.PLP.part.buried>
-0.7833

> <Gold.PLP.part.nonpolar>
-39.4222

> <Gold.PLP.part.repulsive>
0.2441

> <Gold.PLP.ligand.clash>
0.0000

> <Gold.PLP.ligand.torsion>
1.0682

> <Gold.PLP.Chemscore.Hbond>
3.9825

> <Gold.PLP.Chemscore.CHOScore>
0.0000

> <Gold.PLP.Chemscore.Metal>
0.0000

> <Gold.Chemscore.Hbonds>
donor molecule, donor type, donor heavy atom, donor atom, acceptor molecule, acceptor atom, score
      L1  H     5    26       P1  8028  1.00
      L1  H     8    27       P1  8028  1.00
      L1  H    12    49       P1 10175  1.76

> <Gold.PLP.Chemscore.Internal.Correction>
0.1124

> <Gold.Rescore>
     Score         DG    S(hbond)    S(metal)    S(lipo)     H(rot)  DE(clash)    DE(int)     intcor
     16.69     -19.11       2.05        0.00      90.02       1.47       1.63       0.79       ----

> <Gold.Chemscore.Fitness>
16.6921

> <Gold.Chemscore.DG>
-19.1095

> <Gold.Chemscore.ZeroCoef>
-5.4800

> <Gold.Chemscore.Hbond>
2.0507

> <Gold.Chemscore.Metal>
0.0000

> <Gold.Chemscore.Lipo>
90.0223

> <Gold.Chemscore.Internal_Hbond>
0.0000

> <Gold.Chemscore.DEClash>
1.6296

> <Gold.Chemscore.DEInternal>
0.7878

> <Gold.Chemscore.Rot>
1.4658

> <Gold.Chemscore.Internal.Correction>
   9.000000E+99

> <Gold.Chemscore.Hbonds>
donor molecule, donor type, donor heavy atom, donor atom, acceptor molecule, acceptor atom, score
      L1  H     5    26       P1  8028  0.95
      L1  H     8    27       P1  8028  1.00
      L1  H    12    49       P1 10175  0.85

> <Gold.Chemscore.Hbond.Weighted>
-6.8494

> <Gold.Chemscore.Metal.Weighted>
-0.0000

> <Gold.Chemscore.Lipo.Weighted>
-10.5326

> <Gold.Chemscore.Internal_Hbond.Weighted>
0.0000

> <Gold.Chemscore.DEClash.Weighted>
1.6296

> <Gold.Chemscore.DEInternal.Weighted>
0.7878

> <Gold.Chemscore.Rot.Weighted>
3.7526

> <Gold.Chemscore.Internal.Correction.Weighted>
   9.000000E+99

> <Gold.Protein.RotatedTorsions>
[ 6907 6896 6895 6894 ] final  142.82 input  -60.11 | X-H torsion
[ 7974 7965 7964 7962 ] final -160.85 input  175.53 | X-H torsion
[ 8008 7997 7996 7995 ] final -159.97 input   59.86 | X-H torsion
[ 10167 10162 10161 10158 ] final  -93.61 input  -65.29 | X-H torsion
[ 10718 10713 10712 10709 ] final  -96.06 input   66.30 | X-H torsion
[ 10763 10752 10751 10750 ] final -146.22 input  -60.55 | X-H torsion
[ 11005 11000 10999 10996 ] final  -26.79 input  -57.11 | X-H torsion

> <Gold.Protein.ActiveResidues>
 VAL166  LYS551  ARG553  GLY616  TRP617  ASP618  TYR619  PRO620  LYS621  CYS622 
 ASP623  PHE694  ASN695  SER759  ASP760  ASP761  ALA762  ILE779  LEU786  VAL792 
 PHE793  MET794  SER795  GLU796  ALA797  LYS798  CYS799  TRP800  GLU811  SER814 

> <Gold.Protein.RotatedAtoms>
  152.2139  133.4932  159.5125 H   0  0  0  0  0  0  0  0  0  0  0  0  # atno 6907 bound_to 6896
  150.6996  134.1430  159.4121 H   0  0  0  0  0  0  0  0  0  0  0  0  # atno 6908 bound_to 6896
  151.9350  135.0239  160.0582 H   0  0  0  0  0  0  0  0  0  0  0  0  # atno 6909 bound_to 6896
  144.7412  140.3482  143.6121 H   0  0  0  0  0  0  0  0  0  0  0  0  # atno 7974 bound_to 7965
  155.7704  140.0851  157.2110 H   0  0  0  0  0  0  0  0  0  0  0  0  # atno 8008 bound_to 7997
  154.3996  140.1526  156.2993 H   0  0  0  0  0  0  0  0  0  0  0  0  # atno 8009 bound_to 7997
  155.8752  140.3423  155.5852 H   0  0  0  0  0  0  0  0  0  0  0  0  # atno 8010 bound_to 7997
  140.3229  143.3039  152.0027 H   0  0  0  0  0  0  0  0  0  0  0  0  # atno 10167 bound_to 10162
  156.0055  130.5135  150.6169 H   0  0  0  0  0  0  0  0  0  0  0  0  # atno 10718 bound_to 10713
  154.8346  135.3392  154.6628 H   0  0  0  0  0  0  0  0  0  0  0  0  # atno 10763 bound_to 10752
  153.7244  135.6956  153.5009 H   0  0  0  0  0  0  0  0  0  0  0  0  # atno 10764 bound_to 10752
  153.2358  135.4401  155.0597 H   0  0  0  0  0  0  0  0  0  0  0  0  # atno 10765 bound_to 10752
  140.9060  133.7492  156.0607 H   0  0  0  0  0  0  0  0  0  0  0  0  # atno 11005 bound_to 11000
  145.7304  139.1734  143.2434 LP  0  0  0  0  0  0  0  0  0  0  0  0  # atno 17320 bound_to 7965
  146.1211  140.7308  142.9457 LP  0  0  0  0  0  0  0  0  0  0  0  0  # atno 17321 bound_to 7965
  139.4871  144.6297  151.7095 LP  0  0  0  0  0  0  0  0  0  0  0  0  # atno 17342 bound_to 10162
  140.5467  144.0491  150.6110 LP  0  0  0  0  0  0  0  0  0  0  0  0  # atno 17343 bound_to 10162
  157.3992  131.0807  151.1324 LP  0  0  0  0  0  0  0  0  0  0  0  0  # atno 17370 bound_to 10713
  157.1991  130.6386  149.5732 LP  0  0  0  0  0  0  0  0  0  0  0  0  # atno 17371 bound_to 10713
  140.8170  134.3334  157.5394 LP  0  0  0  0  0  0  0  0  0  0  0  0  # atno 17394 bound_to 11000
  139.8749  134.9287  156.3457 LP  0  0  0  0  0  0  0  0  0  0  0  0  # atno 17395 bound_to 11000

$$$$
