AV-unprocessed.smi:1154|AV-procd|sdf|4900|dock8
  -GOLD-   22720 3473D 1   1.00000     0.00000
 Structure written by MMmdl.
 42 43  0  0  0  0  0  0  0  0  2 V2000
  147.5897  134.1935  153.7501 C   0  0  0  0  0  0  0  0  0  0  0  0
  146.1297  134.6658  153.8652 C   0  0  2  0  0  0  0  0  0  0  0  0
  145.1834  133.9337  152.8958 C   0  0  0  0  0  0  0  0  0  0  0  0
  145.3686  134.4159  151.4455 C   0  0  1  0  0  0  0  0  0  0  0  0
  144.3752  133.7293  150.4971 C   0  0  0  0  0  0  0  0  0  0  0  0
  145.2478  135.9503  151.3725 C   0  0  0  0  0  0  0  0  0  0  0  0
  146.2086  136.6149  152.2906 N   0  3  1  0  0  0  0  0  0  0  0  0
  146.2251  138.0895  152.1169 C   0  0  0  0  0  0  0  0  0  0  0  0
  147.0799  138.7933  153.1835 C   0  0  0  0  0  0  0  0  0  0  0  0
  148.4938  138.5221  152.9657 N   0  0  0  0  0  0  0  0  0  0  0  0
  149.4830  139.0026  153.7350 C   0  0  0  0  0  0  0  0  0  0  0  0
  149.2875  139.7500  154.6927 O   0  0  0  0  0  0  0  0  0  0  0  0
  150.9107  138.5876  153.3688 C   0  0  0  0  0  0  0  0  0  0  0  0
  151.2982  137.3538  154.0289 N   0  0  0  0  0  0  0  0  0  0  0  0
  150.6713  136.1800  154.1303 C   0  0  0  0  0  0  0  0  0  0  0  0
  151.3730  135.3104  154.8406 N   0  0  0  0  0  0  0  0  0  0  0  0
  152.5088  136.0260  155.1812 N   0  0  0  0  0  0  0  0  0  0  0  0
  152.4708  137.2387  154.7014 N   0  0  0  0  0  0  0  0  0  0  0  0
  145.9960  136.1928  153.7013 C   0  0  0  0  0  0  0  0  0  0  0  0
  148.0197  134.4260  152.7759 H   0  0  0  0  0  0  0  0  0  0  0  0
  147.6656  133.1157  153.8974 H   0  0  0  0  0  0  0  0  0  0  0  0
  148.2146  134.6701  154.5060 H   0  0  0  0  0  0  0  0  0  0  0  0
  145.8085  134.4179  154.8779 H   0  0  0  0  0  0  0  0  0  0  0  0
  145.3368  132.8557  152.9614 H   0  0  0  0  0  0  0  0  0  0  0  0
  144.1523  134.1124  153.2045 H   0  0  0  0  0  0  0  0  0  0  0  0
  146.3708  134.1393  151.1162 H   0  0  0  0  0  0  0  0  0  0  0  0
  143.3439  133.9642  150.7628 H   0  0  0  0  0  0  0  0  0  0  0  0
  144.4880  132.6452  150.5286 H   0  0  0  0  0  0  0  0  0  0  0  0
  144.5331  134.0460  149.4658 H   0  0  0  0  0  0  0  0  0  0  0  0
  145.4403  136.2733  150.3484 H   0  0  0  0  0  0  0  0  0  0  0  0
  144.2324  136.2660  151.6187 H   0  0  0  0  0  0  0  0  0  0  0  0
  146.6449  138.3315  151.1391 H   0  0  0  0  0  0  0  0  0  0  0  0
  145.2041  138.4744  152.1174 H   0  0  0  0  0  0  0  0  0  0  0  0
  146.9313  139.8729  153.1621 H   0  0  0  0  0  0  0  0  0  0  0  0
  146.7895  138.4466  154.1768 H   0  0  0  0  0  0  0  0  0  0  0  0
  148.7370  137.9197  152.1926 H   0  0  0  0  0  0  0  0  0  0  0  0
  150.9869  138.4523  152.2893 H   0  0  0  0  0  0  0  0  0  0  0  0
  151.6153  139.3730  153.6468 H   0  0  0  0  0  0  0  0  0  0  0  0
  149.7063  135.9670  153.6944 H   0  0  0  0  0  0  0  0  0  0  0  0
  145.0026  136.5117  154.0211 H   0  0  0  0  0  0  0  0  0  0  0  0
  146.7055  136.6871  154.3639 H   0  0  0  0  0  0  0  0  0  0  0  0
  147.1248  136.2868  152.0198 H   0  0  0  0  0  0  0  0  0  0  0  0
  1  2  1  0  0  0  0
  1 20  1  0  0  0  0
  1 21  1  0  0  0  0
  1 22  1  0  0  0  0
  2 19  1  0  0  0  0
  2  3  1  0  0  0  0
  2 23  1  0  0  0  0
  3  4  1  0  0  0  0
  3 24  1  0  0  0  0
  3 25  1  0  0  0  0
  4  5  1  0  0  0  0
  4  6  1  0  0  0  0
  4 26  1  0  0  0  0
  5 27  1  0  0  0  0
  5 28  1  0  0  0  0
  5 29  1  0  0  0  0
  6  7  1  0  0  0  0
  6 30  1  0  0  0  0
  6 31  1  0  0  0  0
  7  8  1  0  0  0  0
  7 19  1  0  0  0  0
  7 42  1  0  0  0  0
  8  9  1  0  0  0  0
  8 32  1  0  0  0  0
  8 33  1  0  0  0  0
  9 10  1  0  0  0  0
  9 34  1  0  0  0  0
  9 35  1  0  0  0  0
 10 11  1  0  0  0  0
 10 36  1  0  0  0  0
 11 12  2  0  0  0  0
 11 13  1  0  0  0  0
 13 14  1  0  0  0  0
 13 37  1  0  0  0  0
 13 38  1  0  0  0  0
 14 18  1  0  0  0  0
 14 15  1  0  0  0  0
 15 16  2  0  0  0  0
 15 39  1  0  0  0  0
 16 17  1  0  0  0  0
 17 18  2  0  0  0  0
 19 40  1  0  0  0  0
 19 41  1  0  0  0  0
M  CHG  1   7   1
M  END
> <s_m_source_file>
AV-unprocessed.smi

> <i_m_source_file_index>
1154

> <i_lp_mmshare_version>
43012

> <i_f3d_flags>
0

> <s_epik_input>
W0NIM11bQ0BASF0xW0NIMl1bQ0BASF0oW0NIM10pW0NIMl1OKFtDSDJdMSlbQ0gyXVtDSDJdW05IXUMoPU8pW0NIMl1uMltjSF1ubm4y

> <s_epik_cmdline>
J2VwaWtfcHl0aG9uJywgJy1waCcsICc3LjAnLCAnLXRuJywgJzgnLCAnLW1hJywgJzIwMCcsICctbWV0YWxfYmluZGluZycsICctaW1hZScsICc8aW5maWxlLm1hZT4nLCAnLW9tYWUnLCAnPG91dGZpbGUubWFlPic=

> <r_lp_tautomer_probability>
1

> <r_epik_Ionization_Penalty>
0.00217773

> <r_epik_Ionization_Penalty_Charging>
0.00217329

> <r_epik_Ionization_Penalty_Neutral>
4.43997e-06

> <r_epik_State_Penalty>
0.00149294

> <r_epik_Charging_Adjusted_Penalty>
0.00366623

> <i_epik_Tot_Q>
1

> <i_epik_Tot_abs_Q>
1

> <r_epik_Metal_State_Penalty>
-0

> <b_epik_Metal_Only>
0

> <s_lp_Force_Field>
OPLS_2005

> <r_lp_Energy>
22.5946

> <b_lp_Chiralities_Consistent>
1

> <s_lp_Variant>
AV-unprocessed.smi:1154-1

> <Gold.Version>
5.8.1

> <Gold.Id.Protein>
6NUR|6NUR_protein|mol2

> <Gold.PLP.Fitness>
43.3015

> <Gold.PLP.PLP>
-29.4267

> <Gold.PLP.part.hbond>
-5.9329

> <Gold.PLP.part.metal>
0.0000

> <Gold.PLP.part.buried>
-2.5275

> <Gold.PLP.part.nonpolar>
-21.7154

> <Gold.PLP.part.repulsive>
0.2954

> <Gold.PLP.ligand.clash>
0.0000

> <Gold.PLP.ligand.torsion>
0.5778

> <Gold.PLP.Chemscore.Hbond>
4.0000

> <Gold.PLP.Chemscore.CHOScore>
1.0000

> <Gold.PLP.Chemscore.Metal>
0.0000

> <Gold.Chemscore.Hbonds>
donor molecule, donor type, donor heavy atom, donor atom, acceptor molecule, acceptor atom, score
      L1  H     7    42       P1  7948  2.00
      L1  H    10    36       P1  7948  0.82
      L1  C    15    39       P1  7948  0.81

> <Gold.PLP.Chemscore.Internal.Correction>
0.0306

> <Gold.Rescore>
     Score         DG    S(hbond)    S(metal)    S(lipo)     H(rot)  DE(clash)    DE(int)     intcor
     10.77     -11.43       2.01        0.00      52.00       2.67       0.01       0.65       ----

> <Gold.Chemscore.Fitness>
10.7741

> <Gold.Chemscore.DG>
-11.4343

> <Gold.Chemscore.ZeroCoef>
-5.4800

> <Gold.Chemscore.Hbond>
2.0058

> <Gold.Chemscore.Metal>
0.0000

> <Gold.Chemscore.Lipo>
51.9951

> <Gold.Chemscore.Internal_Hbond>
0.0000

> <Gold.Chemscore.DEClash>
0.0053

> <Gold.Chemscore.DEInternal>
0.6549

> <Gold.Chemscore.Rot>
2.6674

> <Gold.Chemscore.Internal.Correction>
   9.000000E+99

> <Gold.Chemscore.Hbonds>
donor molecule, donor type, donor heavy atom, donor atom, acceptor molecule, acceptor atom, score
      L1  H     7    42       P1  7948  1.00
      L1  H    10    36       P1  7948  0.81

> <Gold.Chemscore.Hbond.Weighted>
-6.6995

> <Gold.Chemscore.Metal.Weighted>
-0.0000

> <Gold.Chemscore.Lipo.Weighted>
-6.0834

> <Gold.Chemscore.Internal_Hbond.Weighted>
0.0000

> <Gold.Chemscore.DEClash.Weighted>
0.0053

> <Gold.Chemscore.DEInternal.Weighted>
0.6549

> <Gold.Chemscore.Rot.Weighted>
6.8286

> <Gold.Chemscore.Internal.Correction.Weighted>
   9.000000E+99

> <Gold.Protein.RotatedTorsions>
[ 6907 6896 6895 6894 ] final  -87.79 input  -60.11 | X-H torsion
[ 7974 7965 7964 7962 ] final   88.48 input  175.53 | X-H torsion
[ 8008 7997 7996 7995 ] final  -32.86 input   59.86 | X-H torsion
[ 10167 10162 10161 10158 ] final   99.99 input  -65.29 | X-H torsion
[ 10718 10713 10712 10709 ] final -114.95 input   66.30 | X-H torsion
[ 10763 10752 10751 10750 ] final -138.72 input  -60.55 | X-H torsion
[ 11005 11000 10999 10996 ] final   74.48 input  -57.11 | X-H torsion

> <Gold.Protein.ActiveResidues>
 VAL166  LYS551  ARG553  GLY616  TRP617  ASP618  TYR619  PRO620  LYS621  CYS622 
 ASP623  PHE694  ASN695  SER759  ASP760  ASP761  ALA762  ILE779  LEU786  VAL792 
 PHE793  MET794  SER795  GLU796  ALA797  LYS798  CYS799  TRP800  GLU811  SER814 

> <Gold.Protein.RotatedAtoms>
  150.6867  134.2842  159.4639 H   0  0  0  0  0  0  0  0  0  0  0  0  # atno 6907 bound_to 6896
  152.0753  134.9504  160.0583 H   0  0  0  0  0  0  0  0  0  0  0  0  # atno 6908 bound_to 6896
  152.0878  133.4150  159.4567 H   0  0  0  0  0  0  0  0  0  0  0  0  # atno 6909 bound_to 6896
  145.5451  139.2291  143.2544 H   0  0  0  0  0  0  0  0  0  0  0  0  # atno 7974 bound_to 7965
  154.4166  140.1726  156.1795 H   0  0  0  0  0  0  0  0  0  0  0  0  # atno 8008 bound_to 7997
  155.9693  140.3387  155.6537 H   0  0  0  0  0  0  0  0  0  0  0  0  # atno 8009 bound_to 7997
  155.6646  140.0705  157.2533 H   0  0  0  0  0  0  0  0  0  0  0  0  # atno 8010 bound_to 7997
  139.7568  144.6967  151.0351 H   0  0  0  0  0  0  0  0  0  0  0  0  # atno 10167 bound_to 10162
  156.0863  130.6054  150.8842 H   0  0  0  0  0  0  0  0  0  0  0  0  # atno 10718 bound_to 10713
  154.8629  135.3604  154.5430 H   0  0  0  0  0  0  0  0  0  0  0  0  # atno 10763 bound_to 10752
  153.6051  135.7011  153.5374 H   0  0  0  0  0  0  0  0  0  0  0  0  # atno 10764 bound_to 10752
  153.3257  135.4138  155.1415 H   0  0  0  0  0  0  0  0  0  0  0  0  # atno 10765 bound_to 10752
  139.9389  134.7437  156.1154 H   0  0  0  0  0  0  0  0  0  0  0  0  # atno 11005 bound_to 11000
  146.1955  140.6272  142.9126 LP  0  0  0  0  0  0  0  0  0  0  0  0  # atno 17320 bound_to 7965
  144.7557  140.5302  143.6770 LP  0  0  0  0  0  0  0  0  0  0  0  0  # atno 17321 bound_to 7965
  140.7803  143.4744  151.0102 LP  0  0  0  0  0  0  0  0  0  0  0  0  # atno 17342 bound_to 10162
  139.8431  143.7537  152.3180 LP  0  0  0  0  0  0  0  0  0  0  0  0  # atno 17343 bound_to 10162
  157.5999  131.0941  150.8978 LP  0  0  0  0  0  0  0  0  0  0  0  0  # atno 17370 bound_to 10713
  156.9138  130.5290  149.5280 LP  0  0  0  0  0  0  0  0  0  0  0  0  # atno 17371 bound_to 10713
  141.1015  133.6675  156.2765 LP  0  0  0  0  0  0  0  0  0  0  0  0  # atno 17394 bound_to 11000
  140.6004  134.5561  157.5516 LP  0  0  0  0  0  0  0  0  0  0  0  0  # atno 17395 bound_to 11000

$$$$
