AV-unprocessed.smi:3343|AV-procd|sdf|12896|dock10
  -GOLD-   2272019303D 1   1.00000     0.00000
 Structure written by MMmdl.
 42 43  0  0  0  0  0  0  0  0  2 V2000
  151.8382  138.1731  154.5490 C   0  0  0  0  0  0  0  0  0  0  0  0
  150.3297  138.0957  154.2488 C   0  0  1  0  0  0  0  0  0  0  0  0
  149.6090  137.0465  155.1085 C   0  0  0  0  0  0  0  0  0  0  0  0
  149.6230  137.1229  156.3379 O   0  0  0  0  0  0  0  0  0  0  0  0
  148.9768  136.0663  154.4441 N   0  0  0  0  0  0  0  0  0  0  0  0
  148.2260  134.9819  155.0655 C   0  0  0  0  0  0  0  0  0  0  0  0
  148.0890  133.7731  154.1197 C   0  0  0  0  0  0  0  0  0  0  0  0
  147.4258  134.1286  152.8407 N   0  3  0  0  0  0  0  0  0  0  0  0
  146.2028  134.9427  153.0433 C   0  0  0  0  0  0  0  0  0  0  0  0
  145.6031  135.3705  151.6871 C   0  0  0  0  0  0  0  0  0  0  0  0
  145.3007  134.2222  150.8311 N   0  0  0  0  0  0  0  0  0  0  0  0
  144.1532  133.4489  151.2934 C   0  0  0  0  0  0  0  0  0  0  0  0
  146.5040  133.4104  150.6425 C   0  0  0  0  0  0  0  0  0  0  0  0
  147.1182  132.9561  151.9837 C   0  0  0  0  0  0  0  0  0  0  0  0
  149.6935  139.3961  154.4055 N   0  0  0  0  0  0  0  0  0  0  0  0
  148.4300  139.7838  154.2088 C   0  0  0  0  0  0  0  0  0  0  0  0
  148.2212  141.0722  154.4394 N   0  0  0  0  0  0  0  0  0  0  0  0
  149.4853  141.4474  154.7965 C   0  0  0  0  0  0  0  0  0  0  0  0
  150.4059  140.4832  154.7873 N   0  0  0  0  0  0  0  0  0  0  0  0
  152.3159  137.2006  154.4246 H   0  0  0  0  0  0  0  0  0  0  0  0
  152.0348  138.5120  155.5670 H   0  0  0  0  0  0  0  0  0  0  0  0
  152.3328  138.8683  153.8699 H   0  0  0  0  0  0  0  0  0  0  0  0
  150.2236  137.7930  153.2050 H   0  0  0  0  0  0  0  0  0  0  0  0
  149.0081  136.0829  153.4344 H   0  0  0  0  0  0  0  0  0  0  0  0
  148.7054  134.6847  155.9998 H   0  0  0  0  0  0  0  0  0  0  0  0
  147.2472  135.3794  155.3317 H   0  0  0  0  0  0  0  0  0  0  0  0
  149.0628  133.3230  153.9205 H   0  0  0  0  0  0  0  0  0  0  0  0
  147.4942  133.0086  154.6216 H   0  0  0  0  0  0  0  0  0  0  0  0
  145.4769  134.3875  153.6386 H   0  0  0  0  0  0  0  0  0  0  0  0
  146.4533  135.8370  153.6150 H   0  0  0  0  0  0  0  0  0  0  0  0
  144.7000  135.9628  151.8392 H   0  0  0  0  0  0  0  0  0  0  0  0
  146.3102  136.0156  151.1637 H   0  0  0  0  0  0  0  0  0  0  0  0
  143.9324  132.6456  150.5898 H   0  0  0  0  0  0  0  0  0  0  0  0
  143.2700  134.0855  151.3543 H   0  0  0  0  0  0  0  0  0  0  0  0
  144.3147  133.0025  152.2737 H   0  0  0  0  0  0  0  0  0  0  0  0
  146.2691  132.5468  150.0192 H   0  0  0  0  0  0  0  0  0  0  0  0
  147.2359  134.0001  150.0886 H   0  0  0  0  0  0  0  0  0  0  0  0
  148.0295  132.3971  151.7744 H   0  0  0  0  0  0  0  0  0  0  0  0
  146.4504  132.2722  152.5088 H   0  0  0  0  0  0  0  0  0  0  0  0
  147.6482  139.1105  153.8886 H   0  0  0  0  0  0  0  0  0  0  0  0
  149.7353  142.4626  155.0680 H   0  0  0  0  0  0  0  0  0  0  0  0
  148.0717  134.7121  152.3284 H   0  0  0  0  0  0  0  0  0  0  0  0
  1  2  1  0  0  0  0
  1 20  1  0  0  0  0
  1 21  1  0  0  0  0
  1 22  1  0  0  0  0
  2  3  1  0  0  0  0
  2 15  1  0  0  0  0
  2 23  1  0  0  0  0
  3  4  2  0  0  0  0
  3  5  1  0  0  0  0
  5  6  1  0  0  0  0
  5 24  1  0  0  0  0
  6  7  1  0  0  0  0
  6 25  1  0  0  0  0
  6 26  1  0  0  0  0
  7  8  1  0  0  0  0
  7 27  1  0  0  0  0
  7 28  1  0  0  0  0
  8 14  1  0  0  0  0
  8  9  1  0  0  0  0
  8 42  1  0  0  0  0
  9 10  1  0  0  0  0
  9 29  1  0  0  0  0
  9 30  1  0  0  0  0
 10 11  1  0  0  0  0
 10 31  1  0  0  0  0
 10 32  1  0  0  0  0
 11 12  1  0  0  0  0
 11 13  1  0  0  0  0
 12 33  1  0  0  0  0
 12 34  1  0  0  0  0
 12 35  1  0  0  0  0
 13 14  1  0  0  0  0
 13 36  1  0  0  0  0
 13 37  1  0  0  0  0
 14 38  1  0  0  0  0
 14 39  1  0  0  0  0
 15 19  1  0  0  0  0
 15 16  1  0  0  0  0
 16 17  2  0  0  0  0
 16 40  1  0  0  0  0
 17 18  1  0  0  0  0
 18 19  2  0  0  0  0
 18 41  1  0  0  0  0
M  CHG  1   8   1
M  END
> <s_m_source_file>
AV-unprocessed.smi

> <i_m_source_file_index>
3343

> <i_lp_mmshare_version>
43012

> <i_f3d_flags>
0

> <s_epik_input>
bjFbY0hdbltjSF1uMVtDQEhdKFtDSDNdKUMoPU8pW05IXVtDSDJdW0NIMl1OMltDSDJdW0NIMl1OKFtDSDNdKVtDSDJdW0NIMl0y

> <s_epik_cmdline>
J2VwaWtfcHl0aG9uJywgJy1waCcsICc3LjAnLCAnLXRuJywgJzgnLCAnLW1hJywgJzIwMCcsICctbWV0YWxfYmluZGluZycsICctaW1hZScsICc8aW5maWxlLm1hZT4nLCAnLW9tYWUnLCAnPG91dGZpbGUubWFlPic=

> <r_epik_Ionization_Penalty>
0.559944

> <r_epik_Ionization_Penalty_Charging>
0.558624

> <r_epik_Ionization_Penalty_Neutral>
0.00131959

> <r_epik_State_Penalty>
2.08679

> <r_epik_Charging_Adjusted_Penalty>
2.64542

> <i_epik_Tot_Q>
1

> <i_epik_Tot_abs_Q>
1

> <r_epik_Metal_State_Penalty>
2.0868

> <b_epik_Metal_Only>
0

> <s_lp_Force_Field>
OPLS_2005

> <r_lp_Energy>
21.6118

> <b_lp_Chiralities_Consistent>
1

> <s_lp_Variant>
AV-unprocessed.smi:3343-6

> <Gold.Version>
5.8.1

> <Gold.Id.Protein>
6NUR|6NUR_protein|mol2

> <Gold.PLP.Fitness>
45.6024

> <Gold.PLP.PLP>
-31.0355

> <Gold.PLP.part.hbond>
-3.0000

> <Gold.PLP.part.metal>
0.0000

> <Gold.PLP.part.buried>
-3.7898

> <Gold.PLP.part.nonpolar>
-24.9193

> <Gold.PLP.part.repulsive>
0.4009

> <Gold.PLP.ligand.clash>
0.0000

> <Gold.PLP.ligand.torsion>
0.2646

> <Gold.PLP.Chemscore.Hbond>
4.0000

> <Gold.PLP.Chemscore.CHOScore>
1.0000

> <Gold.PLP.Chemscore.Metal>
0.0000

> <Gold.Chemscore.Hbonds>
donor molecule, donor type, donor heavy atom, donor atom, acceptor molecule, acceptor atom, score
      L1  H     5    24       P1  7948  1.00
      L1  H     8    42       P1  7948  2.00
      P1  H  7989  7998       L1    19  1.00
      L1  C    18    41       P1  8028  1.00

> <Gold.PLP.Chemscore.Internal.Correction>
0.0961

> <Gold.Rescore>
     Score         DG    S(hbond)    S(metal)    S(lipo)     H(rot)  DE(clash)    DE(int)     intcor
     13.22     -13.77       2.81        0.00      48.20       2.63       0.00       0.55       ----

> <Gold.Chemscore.Fitness>
13.2224

> <Gold.Chemscore.DG>
-13.7696

> <Gold.Chemscore.ZeroCoef>
-5.4800

> <Gold.Chemscore.Hbond>
2.8077

> <Gold.Chemscore.Metal>
0.0000

> <Gold.Chemscore.Lipo>
48.1972

> <Gold.Chemscore.Internal_Hbond>
0.0000

> <Gold.Chemscore.DEClash>
0.0000

> <Gold.Chemscore.DEInternal>
0.5471

> <Gold.Chemscore.Rot>
2.6278

> <Gold.Chemscore.Internal.Correction>
   9.000000E+99

> <Gold.Chemscore.Hbonds>
donor molecule, donor type, donor heavy atom, donor atom, acceptor molecule, acceptor atom, score
      L1  H     5    24       P1  7948  0.93
      L1  H     8    42       P1  7948  0.45
      P1  H  7989  7998       L1    19  0.43

> <Gold.Chemscore.Hbond.Weighted>
-9.3776

> <Gold.Chemscore.Metal.Weighted>
-0.0000

> <Gold.Chemscore.Lipo.Weighted>
-5.6391

> <Gold.Chemscore.Internal_Hbond.Weighted>
0.0000

> <Gold.Chemscore.DEClash.Weighted>
0.0000

> <Gold.Chemscore.DEInternal.Weighted>
0.5471

> <Gold.Chemscore.Rot.Weighted>
6.7271

> <Gold.Chemscore.Internal.Correction.Weighted>
   9.000000E+99

> <Gold.Protein.RotatedTorsions>
[ 6907 6896 6895 6894 ] final  109.55 input  -60.11 | X-H torsion
[ 7974 7965 7964 7962 ] final  -72.42 input  175.53 | X-H torsion
[ 8008 7997 7996 7995 ] final    6.48 input   59.86 | X-H torsion
[ 10167 10162 10161 10158 ] final  128.94 input  -65.29 | X-H torsion
[ 10718 10713 10712 10709 ] final  -53.83 input   66.30 | X-H torsion
[ 10763 10752 10751 10750 ] final   48.62 input  -60.55 | X-H torsion
[ 11005 11000 10999 10996 ] final  -88.02 input  -57.11 | X-H torsion

> <Gold.Protein.ActiveResidues>
 VAL166  LYS551  ARG553  GLY616  TRP617  ASP618  TYR619  PRO620  LYS621  CYS622 
 ASP623  PHE694  ASN695  SER759  ASP760  ASP761  ALA762  ILE779  LEU786  VAL792 
 PHE793  MET794  SER795  GLU796  ALA797  LYS798  CYS799  TRP800  GLU811  SER814 

> <Gold.Protein.RotatedAtoms>
  152.5062  133.8927  159.7401 H   0  0  0  0  0  0  0  0  0  0  0  0  # atno 6907 bound_to 6896
  150.9362  133.6700  159.2807 H   0  0  0  0  0  0  0  0  0  0  0  0  # atno 6908 bound_to 6896
  151.4027  135.0978  159.9613 H   0  0  0  0  0  0  0  0  0  0  0  0  # atno 6909 bound_to 6896
  145.6654  140.9239  143.0912 H   0  0  0  0  0  0  0  0  0  0  0  0  # atno 7974 bound_to 7965
  154.7416  140.2750  155.6369 H   0  0  0  0  0  0  0  0  0  0  0  0  # atno 8008 bound_to 7997
  156.2875  140.2696  156.2070 H   0  0  0  0  0  0  0  0  0  0  0  0  # atno 8009 bound_to 7997
  155.0251  140.0371  157.2442 H   0  0  0  0  0  0  0  0  0  0  0  0  # atno 8010 bound_to 7997
  139.5502  144.6807  151.4346 H   0  0  0  0  0  0  0  0  0  0  0  0  # atno 10167 bound_to 10162
  156.1502  130.4151  149.9958 H   0  0  0  0  0  0  0  0  0  0  0  0  # atno 10718 bound_to 10713
  152.9791  135.5938  154.3955 H   0  0  0  0  0  0  0  0  0  0  0  0  # atno 10763 bound_to 10752
  154.3606  135.2767  155.2324 H   0  0  0  0  0  0  0  0  0  0  0  0  # atno 10764 bound_to 10752
  154.4323  135.6033  153.6131 H   0  0  0  0  0  0  0  0  0  0  0  0  # atno 10765 bound_to 10752
  141.1608  133.7545  156.9391 H   0  0  0  0  0  0  0  0  0  0  0  0  # atno 11005 bound_to 11000
  144.7075  139.8502  143.7425 LP  0  0  0  0  0  0  0  0  0  0  0  0  # atno 17320 bound_to 7965
  146.1091  139.4093  143.0299 LP  0  0  0  0  0  0  0  0  0  0  0  0  # atno 17321 bound_to 7965
  140.6763  143.8183  150.7062 LP  0  0  0  0  0  0  0  0  0  0  0  0  # atno 17342 bound_to 10162
  140.1623  143.4265  152.2059 LP  0  0  0  0  0  0  0  0  0  0  0  0  # atno 17343 bound_to 10162
  156.7818  130.9224  151.3646 LP  0  0  0  0  0  0  0  0  0  0  0  0  # atno 17370 bound_to 10713
  157.6650  130.9000  149.9913 LP  0  0  0  0  0  0  0  0  0  0  0  0  # atno 17371 bound_to 10713
  140.1334  134.9341  157.2368 LP  0  0  0  0  0  0  0  0  0  0  0  0  # atno 17394 bound_to 11000
  140.2925  134.3224  155.7311 LP  0  0  0  0  0  0  0  0  0  0  0  0  # atno 17395 bound_to 11000

$$$$
