AV-unprocessed.smi:1570|AV-procd|sdf|6323|dock2
  -GOLD-   22720 6533D 1   1.00000     0.00000
 Structure written by MMmdl.
 52 54  0  0  0  0  0  0  0  0  2 V2000
  154.1068  141.1550  161.3878 C   0  0  0  0  0  0  0  0  0  0  0  0
  154.3491  141.3822  159.8904 C   0  0  0  0  0  0  0  0  0  0  0  0
  153.1268  141.8144  159.2175 N   0  0  0  0  0  0  0  0  0  0  0  0
  152.4321  141.1237  158.2838 C   0  0  0  0  0  0  0  0  0  0  0  0
  152.7251  140.0155  157.8344 O   0  0  0  0  0  0  0  0  0  0  0  0
  151.3454  141.8552  157.9400 N   0  0  0  0  0  0  0  0  0  0  0  0
  150.3234  141.4820  156.9626 C   0  0  0  0  0  0  0  0  0  0  0  0
  149.3829  140.3865  157.5052 C   0  0  1  0  0  0  0  0  0  0  0  0
  148.2359  141.0160  158.0423 O   0  0  0  0  0  0  0  0  0  0  0  0
  148.9128  139.4316  156.3889 C   0  0  0  0  0  0  0  0  0  0  0  0
  150.0001  138.5361  155.9182 N   0  3  1  0  0  0  0  0  0  0  0  0
  149.5064  137.1998  155.5136 C   0  0  0  0  0  0  0  0  0  0  0  0
  150.6854  136.2799  155.1466 C   0  0  1  0  0  0  0  0  0  0  0  0
  150.2122  134.9151  154.6341 C   0  0  0  0  0  0  0  0  0  0  0  0
  151.4615  136.8887  154.1178 O   0  0  0  0  0  0  0  0  0  0  0  0
  151.9764  138.1812  154.4382 C   0  0  2  0  0  0  0  0  0  0  0  0
  153.1098  138.1181  155.4776 C   0  0  0  0  0  0  0  0  0  0  0  0
  150.8270  139.1269  154.8369 C   0  0  0  0  0  0  0  0  0  0  0  0
  151.3365  143.0422  158.6873 C   0  0  0  0  0  0  0  0  0  0  0  0
  150.4269  144.1141  158.7161 C   0  0  0  0  0  0  0  0  0  0  0  0
  150.7082  145.1779  159.6052 C   0  0  0  0  0  0  0  0  0  0  0  0
  151.8629  145.1511  160.4294 C   0  0  0  0  0  0  0  0  0  0  0  0
  152.7603  144.0589  160.3832 C   0  0  0  0  0  0  0  0  0  0  0  0
  152.4579  143.0160  159.4904 C   0  0  0  0  0  0  0  0  0  0  0  0
  155.0232  140.8364  161.8845 H   0  0  0  0  0  0  0  0  0  0  0  0
  153.3531  140.3844  161.5536 H   0  0  0  0  0  0  0  0  0  0  0  0
  153.7656  142.0686  161.8758 H   0  0  0  0  0  0  0  0  0  0  0  0
  155.1295  142.1299  159.7464 H   0  0  0  0  0  0  0  0  0  0  0  0
  154.7223  140.4651  159.4323 H   0  0  0  0  0  0  0  0  0  0  0  0
  149.7633  142.3531  156.6215 H   0  0  0  0  0  0  0  0  0  0  0  0
  150.8458  141.1103  156.0795 H   0  0  0  0  0  0  0  0  0  0  0  0
  149.8823  139.8249  158.2937 H   0  0  0  0  0  0  0  0  0  0  0  0
  148.4326  141.3059  158.9202 H   0  0  0  0  0  0  0  0  0  0  0  0
  148.0751  138.8402  156.7626 H   0  0  0  0  0  0  0  0  0  0  0  0
  148.5272  139.9947  155.5373 H   0  0  0  0  0  0  0  0  0  0  0  0
  148.9382  136.7536  156.3307 H   0  0  0  0  0  0  0  0  0  0  0  0
  148.8248  137.3035  154.6675 H   0  0  0  0  0  0  0  0  0  0  0  0
  151.3067  136.1121  156.0266 H   0  0  0  0  0  0  0  0  0  0  0  0
  149.6227  134.3944  155.3892 H   0  0  0  0  0  0  0  0  0  0  0  0
  151.0604  134.2792  154.3790 H   0  0  0  0  0  0  0  0  0  0  0  0
  149.5955  135.0201  153.7410 H   0  0  0  0  0  0  0  0  0  0  0  0
  152.4166  138.5661  153.5178 H   0  0  0  0  0  0  0  0  0  0  0  0
  153.5708  139.0978  155.6059 H   0  0  0  0  0  0  0  0  0  0  0  0
  153.8910  137.4276  155.1585 H   0  0  0  0  0  0  0  0  0  0  0  0
  152.7577  137.7971  156.4575 H   0  0  0  0  0  0  0  0  0  0  0  0
  150.1937  139.3152  153.9683 H   0  0  0  0  0  0  0  0  0  0  0  0
  151.2351  140.0910  155.1385 H   0  0  0  0  0  0  0  0  0  0  0  0
  149.5465  144.1304  158.0914 H   0  0  0  0  0  0  0  0  0  0  0  0
  150.0345  146.0204  159.6592 H   0  0  0  0  0  0  0  0  0  0  0  0
  152.0583  145.9736  161.1017 H   0  0  0  0  0  0  0  0  0  0  0  0
  153.6383  144.0306  161.0115 H   0  0  0  0  0  0  0  0  0  0  0  0
  150.6077  138.3859  156.7114 H   0  0  0  0  0  0  0  0  0  0  0  0
  1  2  1  0  0  0  0
  1 25  1  0  0  0  0
  1 26  1  0  0  0  0
  1 27  1  0  0  0  0
  2  3  1  0  0  0  0
  2 28  1  0  0  0  0
  2 29  1  0  0  0  0
  3 24  1  0  0  0  0
  3  4  1  0  0  0  0
  4  5  2  0  0  0  0
  4  6  1  0  0  0  0
  6  7  1  0  0  0  0
  6 19  1  0  0  0  0
  7  8  1  0  0  0  0
  7 30  1  0  0  0  0
  7 31  1  0  0  0  0
  8  9  1  0  0  0  0
  8 10  1  0  0  0  0
  8 32  1  0  0  0  0
  9 33  1  0  0  0  0
 10 11  1  0  0  0  0
 10 34  1  0  0  0  0
 10 35  1  0  0  0  0
 11 18  1  0  0  0  0
 11 12  1  0  0  0  0
 11 52  1  0  0  0  0
 12 13  1  0  0  0  0
 12 36  1  0  0  0  0
 12 37  1  0  0  0  0
 13 14  1  0  0  0  0
 13 15  1  0  0  0  0
 13 38  1  0  0  0  0
 14 39  1  0  0  0  0
 14 40  1  0  0  0  0
 14 41  1  0  0  0  0
 15 16  1  0  0  0  0
 16 17  1  0  0  0  0
 16 18  1  0  0  0  0
 16 42  1  0  0  0  0
 17 43  1  0  0  0  0
 17 44  1  0  0  0  0
 17 45  1  0  0  0  0
 18 46  1  0  0  0  0
 18 47  1  0  0  0  0
 19 24  2  0  0  0  0
 19 20  1  0  0  0  0
 20 21  2  0  0  0  0
 20 48  1  0  0  0  0
 21 22  1  0  0  0  0
 21 49  1  0  0  0  0
 22 23  2  0  0  0  0
 22 50  1  0  0  0  0
 23 24  1  0  0  0  0
 23 51  1  0  0  0  0
M  CHG  1  11   1
M  END
> <s_m_source_file>
AV-unprocessed.smi

> <i_m_source_file_index>
1570

> <i_lp_mmshare_version>
43012

> <i_f3d_flags>
0

> <s_epik_input>
W2NIXTFbY0hdW2NIXVtjSF1jKGMxMiluKFtDSDJdW0NIM10pYyg9TyluMltDSDJdW0NASF0oW09IXSlbQ0gyXU4zW0NIMl1bQ0BASF0oW0NIM10pT1tDQEBIXShbQ0gzXSlbQ0gyXTM=

> <s_epik_cmdline>
J2VwaWtfcHl0aG9uJywgJy1waCcsICc3LjAnLCAnLXRuJywgJzgnLCAnLW1hJywgJzIwMCcsICctbWV0YWxfYmluZGluZycsICctaW1hZScsICc8aW5maWxlLm1hZT4nLCAnLW9tYWUnLCAnPG91dGZpbGUubWFlPic=

> <r_epik_Ionization_Penalty>
0.706332

> <r_epik_Ionization_Penalty_Charging>
0.706318

> <r_epik_Ionization_Penalty_Neutral>
1.42224e-05

> <r_epik_State_Penalty>
0.729493

> <r_epik_Charging_Adjusted_Penalty>
1.43581

> <i_epik_Tot_Q>
1

> <i_epik_Tot_abs_Q>
1

> <r_epik_Metal_State_Penalty>
0.729493

> <b_epik_Metal_Only>
0

> <s_lp_Force_Field>
OPLS_2005

> <r_lp_Energy>
55.371

> <b_lp_Chiralities_Consistent>
1

> <s_lp_Variant>
AV-unprocessed.smi:1570-12

> <Gold.Version>
5.8.1

> <Gold.Id.Protein>
6NUR|6NUR_protein|mol2

> <Gold.PLP.Fitness>
50.9093

> <Gold.PLP.PLP>
-46.9260

> <Gold.PLP.part.hbond>
-2.3904

> <Gold.PLP.part.metal>
0.0000

> <Gold.PLP.part.buried>
-6.9148

> <Gold.PLP.part.nonpolar>
-39.3499

> <Gold.PLP.part.repulsive>
1.7477

> <Gold.PLP.ligand.clash>
0.0000

> <Gold.PLP.ligand.torsion>
1.1144

> <Gold.PLP.Chemscore.Hbond>
1.9913

> <Gold.PLP.Chemscore.CHOScore>
0.0000

> <Gold.PLP.Chemscore.Metal>
0.0000

> <Gold.Chemscore.Hbonds>
donor molecule, donor type, donor heavy atom, donor atom, acceptor molecule, acceptor atom, score
      P1  H  7997  8009       L1     5  1.00
      P1  H 10752 10763       L1    15  1.00

> <Gold.PLP.Chemscore.Internal.Correction>
0.2384

> <Gold.Rescore>
     Score         DG    S(hbond)    S(metal)    S(lipo)     H(rot)  DE(clash)    DE(int)     intcor
     18.07     -20.05       1.55        0.00     126.92       2.13       0.05       1.93       ----

> <Gold.Chemscore.Fitness>
18.0708

> <Gold.Chemscore.DG>
-20.0478

> <Gold.Chemscore.ZeroCoef>
-5.4800

> <Gold.Chemscore.Hbond>
1.5485

> <Gold.Chemscore.Metal>
0.0000

> <Gold.Chemscore.Lipo>
126.9176

> <Gold.Chemscore.Internal_Hbond>
0.0000

> <Gold.Chemscore.DEClash>
0.0459

> <Gold.Chemscore.DEInternal>
1.9311

> <Gold.Chemscore.Rot>
2.1303

> <Gold.Chemscore.Internal.Correction>
   9.000000E+99

> <Gold.Chemscore.Hbonds>
donor molecule, donor type, donor heavy atom, donor atom, acceptor molecule, acceptor atom, score
      P1  H  7997  8009       L1     5  0.74
      P1  H 10752 10763       L1    15  0.14

> <Gold.Chemscore.Hbond.Weighted>
-5.1720

> <Gold.Chemscore.Metal.Weighted>
-0.0000

> <Gold.Chemscore.Lipo.Weighted>
-14.8494

> <Gold.Chemscore.Internal_Hbond.Weighted>
0.0000

> <Gold.Chemscore.DEClash.Weighted>
0.0459

> <Gold.Chemscore.DEInternal.Weighted>
1.9311

> <Gold.Chemscore.Rot.Weighted>
5.4535

> <Gold.Chemscore.Internal.Correction.Weighted>
   9.000000E+99

> <Gold.Protein.RotatedTorsions>
[ 6907 6896 6895 6894 ] final -114.24 input  -60.11 | X-H torsion
[ 7974 7965 7964 7962 ] final   78.81 input  175.53 | X-H torsion
[ 8008 7997 7996 7995 ] final  161.22 input   59.86 | X-H torsion
[ 10167 10162 10161 10158 ] final  -95.69 input  -65.29 | X-H torsion
[ 10718 10713 10712 10709 ] final    5.74 input   66.30 | X-H torsion
[ 10763 10752 10751 10750 ] final   30.28 input  -60.55 | X-H torsion
[ 11005 11000 10999 10996 ] final   89.83 input  -57.11 | X-H torsion

> <Gold.Protein.ActiveResidues>
 VAL166  LYS551  ARG553  GLY616  TRP617  ASP618  TYR619  PRO620  LYS621  CYS622 
 ASP623  PHE694  ASN695  SER759  ASP760  ASP761  ALA762  ILE779  LEU786  VAL792 
 PHE793  MET794  SER795  GLU796  ALA797  LYS798  CYS799  TRP800  GLU811  SER814 

> <Gold.Protein.RotatedAtoms>
  150.7887  133.8829  159.3290 H   0  0  0  0  0  0  0  0  0  0  0  0  # atno 6907 bound_to 6896
  151.6673  135.0979  160.0200 H   0  0  0  0  0  0  0  0  0  0  0  0  # atno 6908 bound_to 6896
  152.3957  133.6705  159.6310 H   0  0  0  0  0  0  0  0  0  0  0  0  # atno 6909 bound_to 6896
  145.6723  139.2500  143.1861 H   0  0  0  0  0  0  0  0  0  0  0  0  # atno 7974 bound_to 7965
  156.2118  140.1783  156.7677 H   0  0  0  0  0  0  0  0  0  0  0  0  # atno 8008 bound_to 7997
  154.5734  140.0678  156.9027 H   0  0  0  0  0  0  0  0  0  0  0  0  # atno 8009 bound_to 7997
  155.2632  140.3337  155.4274 H   0  0  0  0  0  0  0  0  0  0  0  0  # atno 8010 bound_to 7997
  140.3016  143.3159  152.0242 H   0  0  0  0  0  0  0  0  0  0  0  0  # atno 10167 bound_to 10162
  156.9118  130.5759  149.5647 H   0  0  0  0  0  0  0  0  0  0  0  0  # atno 10718 bound_to 10713
  153.0381  135.6468  154.1020 H   0  0  0  0  0  0  0  0  0  0  0  0  # atno 10763 bound_to 10752
  154.0731  135.2879  155.3306 H   0  0  0  0  0  0  0  0  0  0  0  0  # atno 10764 bound_to 10752
  154.6581  135.5401  153.8048 H   0  0  0  0  0  0  0  0  0  0  0  0  # atno 10765 bound_to 10752
  139.8867  134.8576  156.3198 H   0  0  0  0  0  0  0  0  0  0  0  0  # atno 11005 bound_to 11000
  146.1034  140.7516  142.9538 LP  0  0  0  0  0  0  0  0  0  0  0  0  # atno 17320 bound_to 7965
  144.7053  140.3824  143.7123 LP  0  0  0  0  0  0  0  0  0  0  0  0  # atno 17321 bound_to 7965
  139.4914  144.6452  151.6794 LP  0  0  0  0  0  0  0  0  0  0  0  0  # atno 17342 bound_to 10162
  140.5646  144.0211  150.6186 LP  0  0  0  0  0  0  0  0  0  0  0  0  # atno 17343 bound_to 10162
  156.0532  130.5598  150.9035 LP  0  0  0  0  0  0  0  0  0  0  0  0  # atno 17370 bound_to 10713
  157.5962  131.0943  150.9036 LP  0  0  0  0  0  0  0  0  0  0  0  0  # atno 17371 bound_to 10713
  140.9795  133.7276  156.0650 LP  0  0  0  0  0  0  0  0  0  0  0  0  # atno 17394 bound_to 11000
  140.7768  134.3770  157.5496 LP  0  0  0  0  0  0  0  0  0  0  0  0  # atno 17395 bound_to 11000

$$$$
