AV-unprocessed.smi:3206|AV-procd|sdf|12257|dock4
  -GOLD-   2272018 93D 1   1.00000     0.00000
 Structure written by MMmdl.
 42 43  0  0  0  0  0  0  0  0  2 V2000
  153.0660  142.3802  162.5461 C   0  0  0  0  0  0  0  0  0  0  0  0
  153.0267  143.2268  161.2660 C   0  0  2  0  0  0  0  0  0  0  0  0
  151.8695  144.2422  161.2971 C   0  0  0  0  0  0  0  0  0  0  0  0
  151.8240  145.0889  160.0125 C   0  0  0  0  0  0  0  0  0  0  0  0
  151.7415  144.2259  158.7352 C   0  0  2  0  0  0  0  0  0  0  0  0
  150.3481  143.5787  158.5416 C   0  0  0  0  0  0  0  0  0  0  0  0
  150.2597  142.8499  157.2601 N   0  3  0  0  0  0  0  0  0  0  0  0
  149.5526  141.5576  157.3516 C   0  0  0  0  0  0  0  0  0  0  0  0
  150.5302  140.4123  157.6637 C   0  0  0  0  0  0  0  0  0  0  0  0
  151.2260  139.8460  156.4599 C   0  0  0  0  0  0  0  0  0  0  0  0
  152.5126  139.5110  156.4068 N   0  0  0  0  0  0  0  0  0  0  0  0
  152.6012  139.0672  155.1196 C   0  0  0  0  0  0  0  0  0  0  0  0
  151.4752  139.1136  154.4135 N   0  0  0  0  0  0  0  0  0  0  0  0
  150.5900  139.6227  155.3002 N   0  0  0  0  0  0  0  0  0  0  0  0
  149.2113  139.8321  154.9007 C   0  0  0  0  0  0  0  0  0  0  0  0
  152.8854  143.1895  158.7235 C   0  0  0  0  0  0  0  0  0  0  0  0
  152.9306  142.3433  160.0086 C   0  0  0  0  0  0  0  0  0  0  0  0
  152.1547  141.7925  162.6618 H   0  0  0  0  0  0  0  0  0  0  0  0
  153.1706  143.0097  163.4302 H   0  0  0  0  0  0  0  0  0  0  0  0
  153.9088  141.6886  162.5337 H   0  0  0  0  0  0  0  0  0  0  0  0
  153.9624  143.7853  161.2135 H   0  0  0  0  0  0  0  0  0  0  0  0
  150.9227  143.7180  161.4309 H   0  0  0  0  0  0  0  0  0  0  0  0
  151.9772  144.9003  162.1602 H   0  0  0  0  0  0  0  0  0  0  0  0
  150.9856  145.7851  160.0531 H   0  0  0  0  0  0  0  0  0  0  0  0
  152.7226  145.7055  159.9676 H   0  0  0  0  0  0  0  0  0  0  0  0
  151.9202  144.8970  157.8934 H   0  0  0  0  0  0  0  0  0  0  0  0
  150.1261  142.8816  159.3505 H   0  0  0  0  0  0  0  0  0  0  0  0
  149.5610  144.3334  158.5639 H   0  0  0  0  0  0  0  0  0  0  0  0
  149.7766  143.4344  156.5927 H   0  0  0  0  0  0  0  0  0  0  0  0
  148.7911  141.6235  158.1301 H   0  0  0  0  0  0  0  0  0  0  0  0
  149.0390  141.3659  156.4083 H   0  0  0  0  0  0  0  0  0  0  0  0
  151.2905  140.7626  158.3628 H   0  0  0  0  0  0  0  0  0  0  0  0
  149.9951  139.6018  158.1602 H   0  0  0  0  0  0  0  0  0  0  0  0
  153.5220  138.6995  154.6912 H   0  0  0  0  0  0  0  0  0  0  0  0
  148.6264  140.2455  155.7216 H   0  0  0  0  0  0  0  0  0  0  0  0
  148.7688  138.8825  154.5983 H   0  0  0  0  0  0  0  0  0  0  0  0
  149.1742  140.5252  154.0598 H   0  0  0  0  0  0  0  0  0  0  0  0
  152.7986  142.5405  157.8515 H   0  0  0  0  0  0  0  0  0  0  0  0
  153.8370  143.7112  158.6144 H   0  0  0  0  0  0  0  0  0  0  0  0
  153.7844  141.6660  159.9656 H   0  0  0  0  0  0  0  0  0  0  0  0
  152.0441  141.7111  160.0691 H   0  0  0  0  0  0  0  0  0  0  0  0
  151.1969  142.6806  156.9234 H   0  0  0  0  0  0  0  0  0  0  0  0
  1  2  1  0  0  0  0
  1 18  1  0  0  0  0
  1 19  1  0  0  0  0
  1 20  1  0  0  0  0
  2 17  1  0  0  0  0
  2  3  1  0  0  0  0
  2 21  1  0  0  0  0
  3  4  1  0  0  0  0
  3 22  1  0  0  0  0
  3 23  1  0  0  0  0
  4  5  1  0  0  0  0
  4 24  1  0  0  0  0
  4 25  1  0  0  0  0
  5  6  1  0  0  0  0
  5 16  1  0  0  0  0
  5 26  1  0  0  0  0
  6  7  1  0  0  0  0
  6 27  1  0  0  0  0
  6 28  1  0  0  0  0
  7  8  1  0  0  0  0
  7 29  1  0  0  0  0
  7 42  1  0  0  0  0
  8  9  1  0  0  0  0
  8 30  1  0  0  0  0
  8 31  1  0  0  0  0
  9 10  1  0  0  0  0
  9 32  1  0  0  0  0
  9 33  1  0  0  0  0
 10 14  1  0  0  0  0
 10 11  2  0  0  0  0
 11 12  1  0  0  0  0
 12 13  2  0  0  0  0
 12 34  1  0  0  0  0
 13 14  1  0  0  0  0
 14 15  1  0  0  0  0
 15 35  1  0  0  0  0
 15 36  1  0  0  0  0
 15 37  1  0  0  0  0
 16 17  1  0  0  0  0
 16 38  1  0  0  0  0
 16 39  1  0  0  0  0
 17 40  1  0  0  0  0
 17 41  1  0  0  0  0
M  CHG  1   7   1
M  END
> <s_m_source_file>
AV-unprocessed.smi

> <i_m_source_file_index>
3206

> <i_lp_mmshare_version>
43012

> <i_f3d_flags>
0

> <s_epik_input>
W0NIM11bQ0BASF0xW0NIMl1bQ0gyXVtDQEhdKFtDSDJdW0NIMl0xKVtDSDJdW05IXVtDSDJdW0NIMl1jMm5bY0hdbm4yW0NIM10=

> <s_epik_cmdline>
J2VwaWtfcHl0aG9uJywgJy1waCcsICc3LjAnLCAnLXRuJywgJzgnLCAnLW1hJywgJzIwMCcsICctbWV0YWxfYmluZGluZycsICctaW1hZScsICc8aW5maWxlLm1hZT4nLCAnLW9tYWUnLCAnPG91dGZpbGUubWFlPic=

> <r_lp_tautomer_probability>
1

> <r_epik_Ionization_Penalty>
0.00114491

> <r_epik_Ionization_Penalty_Charging>
0.00114083

> <r_epik_Ionization_Penalty_Neutral>
4.0852e-06

> <r_epik_State_Penalty>
-0

> <r_epik_Charging_Adjusted_Penalty>
0.00114083

> <i_epik_Tot_Q>
1

> <i_epik_Tot_abs_Q>
1

> <r_epik_Metal_State_Penalty>
-0

> <b_epik_Metal_Only>
0

> <s_lp_Force_Field>
OPLS_2005

> <r_lp_Energy>
20.2126

> <b_lp_Chiralities_Consistent>
1

> <s_lp_Variant>
AV-unprocessed.smi:3206-2

> <Gold.Version>
5.8.1

> <Gold.Id.Protein>
6NUR|6NUR_protein|mol2

> <Gold.PLP.Fitness>
52.0487

> <Gold.PLP.PLP>
-42.8066

> <Gold.PLP.part.hbond>
-3.0000

> <Gold.PLP.part.metal>
0.0000

> <Gold.PLP.part.buried>
-4.4827

> <Gold.PLP.part.nonpolar>
-35.8600

> <Gold.PLP.part.repulsive>
0.1516

> <Gold.PLP.ligand.clash>
0.0000

> <Gold.PLP.ligand.torsion>
0.8697

> <Gold.PLP.Chemscore.Hbond>
3.6500

> <Gold.PLP.Chemscore.CHOScore>
0.0000

> <Gold.PLP.Chemscore.Metal>
0.0000

> <Gold.Chemscore.Hbonds>
donor molecule, donor type, donor heavy atom, donor atom, acceptor molecule, acceptor atom, score
      L1  H     7    29       P1  8028  2.00
      P1  H  7989  7998       L1    13  0.60
      P1  H  7997  8008       L1    11  0.85

> <Gold.PLP.Chemscore.Internal.Correction>
0.0314

> <Gold.Rescore>
     Score         DG    S(hbond)    S(metal)    S(lipo)     H(rot)  DE(clash)    DE(int)     intcor
     17.10     -18.10       1.69        0.00     104.62       2.05       0.26       0.73       ----

> <Gold.Chemscore.Fitness>
17.1027

> <Gold.Chemscore.DG>
-18.0982

> <Gold.Chemscore.ZeroCoef>
-5.4800

> <Gold.Chemscore.Hbond>
1.6864

> <Gold.Chemscore.Metal>
0.0000

> <Gold.Chemscore.Lipo>
104.6212

> <Gold.Chemscore.Internal_Hbond>
0.0000

> <Gold.Chemscore.DEClash>
0.2645

> <Gold.Chemscore.DEInternal>
0.7310

> <Gold.Chemscore.Rot>
2.0528

> <Gold.Chemscore.Internal.Correction>
   9.000000E+99

> <Gold.Chemscore.Hbonds>
donor molecule, donor type, donor heavy atom, donor atom, acceptor molecule, acceptor atom, score
      L1  H     7    29       P1  8028  1.00
      P1  H  7989  7998       L1    13  0.01
      P1  H  7997  8008       L1    11  0.15

> <Gold.Chemscore.Hbond.Weighted>
-5.6326

> <Gold.Chemscore.Metal.Weighted>
-0.0000

> <Gold.Chemscore.Lipo.Weighted>
-12.2407

> <Gold.Chemscore.Internal_Hbond.Weighted>
0.0000

> <Gold.Chemscore.DEClash.Weighted>
0.2645

> <Gold.Chemscore.DEInternal.Weighted>
0.7310

> <Gold.Chemscore.Rot.Weighted>
5.2551

> <Gold.Chemscore.Internal.Correction.Weighted>
   9.000000E+99

> <Gold.Protein.RotatedTorsions>
[ 6907 6896 6895 6894 ] final  102.55 input  -60.11 | X-H torsion
[ 7974 7965 7964 7962 ] final   67.66 input  175.53 | X-H torsion
[ 8008 7997 7996 7995 ] final  -57.56 input   59.86 | X-H torsion
[ 10167 10162 10161 10158 ] final  -13.57 input  -65.29 | X-H torsion
[ 10718 10713 10712 10709 ] final -162.84 input   66.30 | X-H torsion
[ 10763 10752 10751 10750 ] final   24.94 input  -60.55 | X-H torsion
[ 11005 11000 10999 10996 ] final -114.20 input  -57.11 | X-H torsion

> <Gold.Protein.ActiveResidues>
 VAL166  LYS551  ARG553  GLY616  TRP617  ASP618  TYR619  PRO620  LYS621  CYS622 
 ASP623  PHE694  ASN695  SER759  ASP760  ASP761  ALA762  ILE779  LEU786  VAL792 
 PHE793  MET794  SER795  GLU796  ALA797  LYS798  CYS799  TRP800  GLU811  SER814 

> <Gold.Protein.RotatedAtoms>
  152.5320  133.9958  159.7871 H   0  0  0  0  0  0  0  0  0  0  0  0  # atno 6907 bound_to 6896
  151.0186  133.5890  159.2681 H   0  0  0  0  0  0  0  0  0  0  0  0  # atno 6908 bound_to 6896
  151.2938  135.0756  159.9267 H   0  0  0  0  0  0  0  0  0  0  0  0  # atno 6909 bound_to 6896
  145.8120  139.3037  143.1093 H   0  0  0  0  0  0  0  0  0  0  0  0  # atno 7974 bound_to 7965
  154.4273  140.1104  156.5817 H   0  0  0  0  0  0  0  0  0  0  0  0  # atno 8008 bound_to 7997
  155.6105  140.3494  155.4602 H   0  0  0  0  0  0  0  0  0  0  0  0  # atno 8009 bound_to 7997
  156.0103  140.1217  157.0450 H   0  0  0  0  0  0  0  0  0  0  0  0  # atno 8010 bound_to 7997
  140.7185  143.5412  150.9407 H   0  0  0  0  0  0  0  0  0  0  0  0  # atno 10167 bound_to 10162
  156.6162  130.8871  151.2947 H   0  0  0  0  0  0  0  0  0  0  0  0  # atno 10718 bound_to 10713
  153.0727  135.6594  154.0212 H   0  0  0  0  0  0  0  0  0  0  0  0  # atno 10763 bound_to 10752
  153.9853  135.2951  155.3418 H   0  0  0  0  0  0  0  0  0  0  0  0  # atno 10764 bound_to 10752
  154.7107  135.5206  153.8732 H   0  0  0  0  0  0  0  0  0  0  0  0  # atno 10765 bound_to 10752
  141.0567  133.9601  157.2741 H   0  0  0  0  0  0  0  0  0  0  0  0  # atno 11005 bound_to 11000
  145.9767  140.8716  143.0135 LP  0  0  0  0  0  0  0  0  0  0  0  0  # atno 17320 bound_to 7965
  144.6756  140.2022  143.7386 LP  0  0  0  0  0  0  0  0  0  0  0  0  # atno 17321 bound_to 7965
  139.9135  143.6692  152.3111 LP  0  0  0  0  0  0  0  0  0  0  0  0  # atno 17342 bound_to 10162
  139.7083  144.7624  151.1155 LP  0  0  0  0  0  0  0  0  0  0  0  0  # atno 17343 bound_to 10162
  157.7240  130.9597  150.1557 LP  0  0  0  0  0  0  0  0  0  0  0  0  # atno 17370 bound_to 10713
  156.2349  130.3685  149.8403 LP  0  0  0  0  0  0  0  0  0  0  0  0  # atno 17371 bound_to 10713
  139.9396  135.0192  156.8666 LP  0  0  0  0  0  0  0  0  0  0  0  0  # atno 17394 bound_to 11000
  140.5950  134.0226  155.7514 LP  0  0  0  0  0  0  0  0  0  0  0  0  # atno 17395 bound_to 11000

$$$$
