AV-unprocessed.smi:1912|AV-procd|sdf|7748|dock7
  -GOLD-   22720 9483D 1   1.00000     0.00000
 Structure written by MMmdl.
 43 45  0  0  0  0  0  0  0  0  1 V2000
  145.3025  143.6800  154.5555 C   0  0  0  0  0  0  0  0  0  0  0  0
  145.6386  142.5721  153.7328 O   0  0  0  0  0  0  0  0  0  0  0  0
  146.7268  141.8043  154.0890 C   0  0  0  0  0  0  0  0  0  0  0  0
  147.0391  140.7127  153.2581 C   0  0  0  0  0  0  0  0  0  0  0  0
  148.1394  139.8828  153.5392 C   0  0  0  0  0  0  0  0  0  0  0  0
  148.9552  140.1246  154.6719 C   0  0  0  0  0  0  0  0  0  0  0  0
  150.0577  139.3572  154.9906 O   0  0  0  0  0  0  0  0  0  0  0  0
  150.4253  138.3016  154.1157 C   0  0  0  0  0  0  0  0  0  0  0  0
  148.6379  141.2111  155.5235 C   0  0  0  0  0  0  0  0  0  0  0  0
  149.5039  141.4948  156.7481 C   0  0  2  0  0  0  0  0  0  0  0  0
  149.1116  142.6615  157.4478 O   0  0  0  0  0  0  0  0  0  0  0  0
  150.9929  141.5923  156.3619 C   0  0  0  0  0  0  0  0  0  0  0  0
  151.8798  141.1418  157.4251 N   0  0  0  0  0  0  0  0  0  0  0  0
  152.5245  139.9530  157.5198 C   0  0  0  0  0  0  0  0  0  0  0  0
  152.3936  138.8974  156.4671 C   0  0  0  0  0  0  0  0  0  0  0  0
  153.2826  139.7871  158.6037 N   0  0  0  0  0  0  0  0  0  0  0  0
  153.1167  140.9836  159.2748 C   0  0  0  0  0  0  0  0  0  0  0  0
  153.6634  141.4337  160.4979 C   0  0  0  0  0  0  0  0  0  0  0  0
  153.3465  142.7161  160.9926 C   0  0  0  0  0  0  0  0  0  0  0  0
  152.4794  143.5643  160.2738 C   0  0  0  0  0  0  0  0  0  0  0  0
  151.9231  143.1352  159.0535 C   0  0  0  0  0  0  0  0  0  0  0  0
  152.2439  141.8551  158.5630 C   0  0  0  0  0  0  0  0  0  0  0  0
  147.5380  142.0473  155.2236 C   0  0  0  0  0  0  0  0  0  0  0  0
  144.4310  144.1855  154.1398 H   0  0  0  0  0  0  0  0  0  0  0  0
  146.1150  144.4066  154.5977 H   0  0  0  0  0  0  0  0  0  0  0  0
  145.0479  143.3625  155.5676 H   0  0  0  0  0  0  0  0  0  0  0  0
  146.4307  140.5120  152.3883 H   0  0  0  0  0  0  0  0  0  0  0  0
  148.3376  139.0651  152.8635 H   0  0  0  0  0  0  0  0  0  0  0  0
  151.3153  137.8073  154.5052 H   0  0  0  0  0  0  0  0  0  0  0  0
  150.6653  138.6742  153.1190 H   0  0  0  0  0  0  0  0  0  0  0  0
  149.6369  137.5513  154.0427 H   0  0  0  0  0  0  0  0  0  0  0  0
  149.3709  140.6784  157.4576 H   0  0  0  0  0  0  0  0  0  0  0  0
  148.7384  143.2700  156.8287 H   0  0  0  0  0  0  0  0  0  0  0  0
  151.1915  140.9952  155.4716 H   0  0  0  0  0  0  0  0  0  0  0  0
  151.2508  142.6187  156.0978 H   0  0  0  0  0  0  0  0  0  0  0  0
  152.9694  138.0121  156.7393 H   0  0  0  0  0  0  0  0  0  0  0  0
  152.7669  139.2674  155.5121 H   0  0  0  0  0  0  0  0  0  0  0  0
  151.3510  138.6034  156.3489 H   0  0  0  0  0  0  0  0  0  0  0  0
  154.3281  140.7912  161.0563 H   0  0  0  0  0  0  0  0  0  0  0  0
  153.7705  143.0504  161.9282 H   0  0  0  0  0  0  0  0  0  0  0  0
  152.2411  144.5446  160.6598 H   0  0  0  0  0  0  0  0  0  0  0  0
  151.2559  143.7810  158.5023 H   0  0  0  0  0  0  0  0  0  0  0  0
  147.3305  142.8808  155.8768 H   0  0  0  0  0  0  0  0  0  0  0  0
  1  2  1  0  0  0  0
  1 24  1  0  0  0  0
  1 25  1  0  0  0  0
  1 26  1  0  0  0  0
  2  3  1  0  0  0  0
  3 23  1  0  0  0  0
  3  4  2  0  0  0  0
  4  5  1  0  0  0  0
  4 27  1  0  0  0  0
  5  6  2  0  0  0  0
  5 28  1  0  0  0  0
  6  7  1  0  0  0  0
  6  9  1  0  0  0  0
  7  8  1  0  0  0  0
  8 29  1  0  0  0  0
  8 30  1  0  0  0  0
  8 31  1  0  0  0  0
  9 10  1  0  0  0  0
  9 23  2  0  0  0  0
 10 11  1  0  0  0  0
 10 12  1  0  0  0  0
 10 32  1  0  0  0  0
 11 33  1  0  0  0  0
 12 13  1  0  0  0  0
 12 34  1  0  0  0  0
 12 35  1  0  0  0  0
 13 22  1  0  0  0  0
 13 14  1  0  0  0  0
 14 15  1  0  0  0  0
 14 16  2  0  0  0  0
 15 36  1  0  0  0  0
 15 37  1  0  0  0  0
 15 38  1  0  0  0  0
 16 17  1  0  0  0  0
 17 22  2  0  0  0  0
 17 18  1  0  0  0  0
 18 19  2  0  0  0  0
 18 39  1  0  0  0  0
 19 20  1  0  0  0  0
 19 40  1  0  0  0  0
 20 21  2  0  0  0  0
 20 41  1  0  0  0  0
 21 22  1  0  0  0  0
 21 42  1  0  0  0  0
 23 43  1  0  0  0  0
M  END
> <s_m_source_file>
AV-unprocessed.smi

> <i_m_source_file_index>
1912

> <i_lp_mmshare_version>
43012

> <i_f3d_flags>
0

> <s_epik_input>
W0NIM11PYzFbY0hdW2NIXWMoT1tDSDNdKWMoW2NIXTEpW0NASF0oW09IXSlbQ0gyXW4oYyhuMilbQ0gzXSljKGMyMylbY0hdW2NIXVtjSF1bY0hdMw==

> <s_epik_cmdline>
J2VwaWtfcHl0aG9uJywgJy1waCcsICc3LjAnLCAnLXRuJywgJzgnLCAnLW1hJywgJzIwMCcsICctbWV0YWxfYmluZGluZycsICctaW1hZScsICc8aW5maWxlLm1hZT4nLCAnLW9tYWUnLCAnPG91dGZpbGUubWFlPic=

> <r_lp_tautomer_probability>
1

> <r_epik_Ionization_Penalty>
0.129663

> <r_epik_Ionization_Penalty_Charging>
0

> <r_epik_Ionization_Penalty_Neutral>
0.129663

> <r_epik_State_Penalty>
0.119073

> <r_epik_Charging_Adjusted_Penalty>
0.119073

> <i_epik_Tot_Q>
0

> <i_epik_Tot_abs_Q>
0

> <r_epik_Metal_State_Penalty>
0.000131867

> <b_epik_Metal_Only>
0

> <s_lp_Force_Field>
OPLS_2005

> <r_lp_Energy>
18.8247

> <b_lp_Chiralities_Consistent>
1

> <s_lp_Variant>
AV-unprocessed.smi:1912-1

> <Gold.Version>
5.8.1

> <Gold.Id.Protein>
6NUR|6NUR_protein|mol2

> <Gold.PLP.Fitness>
45.3149

> <Gold.PLP.PLP>
-42.7193

> <Gold.PLP.part.hbond>
-2.0000

> <Gold.PLP.part.metal>
0.0000

> <Gold.PLP.part.buried>
0.1879

> <Gold.PLP.part.nonpolar>
-40.6116

> <Gold.PLP.part.repulsive>
0.3091

> <Gold.PLP.ligand.clash>
0.0000

> <Gold.PLP.ligand.torsion>
0.6628

> <Gold.PLP.Chemscore.Hbond>
1.2846

> <Gold.PLP.Chemscore.CHOScore>
0.0000

> <Gold.PLP.Chemscore.Metal>
0.0000

> <Gold.Chemscore.Hbonds>
donor molecule, donor type, donor heavy atom, donor atom, acceptor molecule, acceptor atom, score
      L1  H    11    33       P1  8028  1.00
      P1  H  7997  8009       L1    16  0.18

> <Gold.PLP.Chemscore.Internal.Correction>
0.0674

> <Gold.Rescore>
     Score         DG    S(hbond)    S(metal)    S(lipo)     H(rot)  DE(clash)    DE(int)     intcor
     13.16     -18.11       0.69        0.00     135.68       2.17       1.96       2.98       ----

> <Gold.Chemscore.Fitness>
13.1646

> <Gold.Chemscore.DG>
-18.1085

> <Gold.Chemscore.ZeroCoef>
-5.4800

> <Gold.Chemscore.Hbond>
0.6906

> <Gold.Chemscore.Metal>
0.0000

> <Gold.Chemscore.Lipo>
135.6805

> <Gold.Chemscore.Internal_Hbond>
0.0000

> <Gold.Chemscore.DEClash>
1.9610

> <Gold.Chemscore.DEInternal>
2.9830

> <Gold.Chemscore.Rot>
2.1690

> <Gold.Chemscore.Internal.Correction>
   9.000000E+99

> <Gold.Chemscore.Hbonds>
donor molecule, donor type, donor heavy atom, donor atom, acceptor molecule, acceptor atom, score
      L1  H    11    33       P1  8028  0.67

> <Gold.Chemscore.Hbond.Weighted>
-2.3065

> <Gold.Chemscore.Metal.Weighted>
-0.0000

> <Gold.Chemscore.Lipo.Weighted>
-15.8746

> <Gold.Chemscore.Internal_Hbond.Weighted>
0.0000

> <Gold.Chemscore.DEClash.Weighted>
1.9610

> <Gold.Chemscore.DEInternal.Weighted>
2.9830

> <Gold.Chemscore.Rot.Weighted>
5.5526

> <Gold.Chemscore.Internal.Correction.Weighted>
   9.000000E+99

> <Gold.Protein.RotatedTorsions>
[ 6907 6896 6895 6894 ] final -121.12 input  -60.11 | X-H torsion
[ 7974 7965 7964 7962 ] final -100.95 input  175.53 | X-H torsion
[ 8008 7997 7996 7995 ] final  130.15 input   59.86 | X-H torsion
[ 10167 10162 10161 10158 ] final  144.40 input  -65.29 | X-H torsion
[ 10718 10713 10712 10709 ] final  166.17 input   66.30 | X-H torsion
[ 10763 10752 10751 10750 ] final -141.85 input  -60.55 | X-H torsion
[ 11005 11000 10999 10996 ] final  -42.32 input  -57.11 | X-H torsion

> <Gold.Protein.ActiveResidues>
 VAL166  LYS551  ARG553  GLY616  TRP617  ASP618  TYR619  PRO620  LYS621  CYS622 
 ASP623  PHE694  ASN695  SER759  ASP760  ASP761  ALA762  ILE779  LEU786  VAL792 
 PHE793  MET794  SER795  GLU796  ALA797  LYS798  CYS799  TRP800  GLU811  SER814 

> <Gold.Protein.RotatedAtoms>
  150.8454  133.7869  159.3044 H   0  0  0  0  0  0  0  0  0  0  0  0  # atno 6907 bound_to 6896
  151.5558  135.1065  159.9970 H   0  0  0  0  0  0  0  0  0  0  0  0  # atno 6908 bound_to 6896
  152.4509  133.7585  159.6789 H   0  0  0  0  0  0  0  0  0  0  0  0  # atno 6909 bound_to 6896
  145.2879  140.9344  143.2894 H   0  0  0  0  0  0  0  0  0  0  0  0  # atno 7974 bound_to 7965
  156.2949  140.2603  156.2714 H   0  0  0  0  0  0  0  0  0  0  0  0  # atno 8008 bound_to 7997
  154.9691  140.0391  157.2244 H   0  0  0  0  0  0  0  0  0  0  0  0  # atno 8009 bound_to 7997
  154.7875  140.2806  155.6021 H   0  0  0  0  0  0  0  0  0  0  0  0  # atno 8010 bound_to 7997
  139.4948  144.5974  151.6553 H   0  0  0  0  0  0  0  0  0  0  0  0  # atno 10167 bound_to 10162
  157.0696  131.0362  151.2616 H   0  0  0  0  0  0  0  0  0  0  0  0  # atno 10718 bound_to 10713
  154.8530  135.3512  154.5934 H   0  0  0  0  0  0  0  0  0  0  0  0  # atno 10763 bound_to 10752
  153.6543  135.6992  153.5203 H   0  0  0  0  0  0  0  0  0  0  0  0  # atno 10764 bound_to 10752
  153.2868  135.4246  155.1088 H   0  0  0  0  0  0  0  0  0  0  0  0  # atno 10765 bound_to 10752
  141.0307  133.6821  156.2578 H   0  0  0  0  0  0  0  0  0  0  0  0  # atno 11005 bound_to 11000
  144.9198  139.4426  143.6547 LP  0  0  0  0  0  0  0  0  0  0  0  0  # atno 17320 bound_to 7965
  146.3195  139.8051  142.8957 LP  0  0  0  0  0  0  0  0  0  0  0  0  # atno 17321 bound_to 7965
  140.5616  144.0259  150.6172 LP  0  0  0  0  0  0  0  0  0  0  0  0  # atno 17342 bound_to 10162
  140.3347  143.3056  152.0651 LP  0  0  0  0  0  0  0  0  0  0  0  0  # atno 17343 bound_to 10162
  157.4888  130.7810  149.7487 LP  0  0  0  0  0  0  0  0  0  0  0  0  # atno 17370 bound_to 10713
  155.9954  130.3912  150.2820 LP  0  0  0  0  0  0  0  0  0  0  0  0  # atno 17371 bound_to 10713
  140.6411  134.5164  157.5569 LP  0  0  0  0  0  0  0  0  0  0  0  0  # atno 17394 bound_to 11000
  139.9206  134.8157  156.1224 LP  0  0  0  0  0  0  0  0  0  0  0  0  # atno 17395 bound_to 11000

$$$$
