AV-unprocessed.smi:1976|AV-procd|sdf|7985|dock8
  -GOLD-   2272010163D 1   1.00000     0.00000
 Structure written by MMmdl.
 45 47  0  0  0  0  0  0  0  0  2 V2000
  150.1992  139.3693  157.5434 O   0  0  0  0  0  0  0  0  0  0  0  0
  150.2618  140.1365  156.5820 C   0  0  0  0  0  0  0  0  0  0  0  0
  151.2824  141.2827  156.5527 C   0  0  0  0  0  0  0  0  0  0  0  0
  151.8480  141.5814  157.8786 N   0  0  0  0  0  0  0  0  0  0  0  0
  151.5108  142.8269  158.4433 C   0  0  0  0  0  0  0  0  0  0  0  0
  151.9372  143.2215  159.6579 C   0  0  0  0  0  0  0  0  0  0  0  0
  151.5870  144.5918  160.2168 C   0  0  0  0  0  0  0  0  0  0  0  0
  152.1039  144.7648  161.4335 F   0  0  0  0  0  0  0  0  0  0  0  0
  152.0454  145.5616  159.4246 F   0  0  0  0  0  0  0  0  0  0  0  0
  150.2637  144.7206  160.3037 F   0  0  0  0  0  0  0  0  0  0  0  0
  152.8085  142.3035  160.3651 C   0  0  0  0  0  0  0  0  0  0  0  0
  153.1433  141.1094  159.8381 C   0  0  0  0  0  0  0  0  0  0  0  0
  152.6472  140.6826  158.5277 C   0  0  0  0  0  0  0  0  0  0  0  0
  152.9313  139.5864  158.0449 O   0  0  0  0  0  0  0  0  0  0  0  0
  149.4669  140.0288  155.5064 N   0  0  0  0  0  0  0  0  0  0  0  0
  148.4155  139.0307  155.3336 C   0  0  2  0  0  0  0  0  0  0  0  0
  148.7899  137.6634  155.8938 C   0  0  0  0  0  0  0  0  0  0  0  0
  147.8043  136.7386  155.1765 C   0  0  0  0  0  0  0  0  0  0  0  0
  147.5842  137.3337  153.8377 N   0  3  1  0  0  0  0  0  0  0  0  0
  146.2003  137.1930  153.3224 C   0  0  0  0  0  0  0  0  0  0  0  0
  146.0723  137.8117  151.9174 C   0  0  0  0  0  0  0  0  0  0  0  0
  146.6784  139.2270  151.8194 C   0  0  0  0  0  0  0  0  0  0  0  0
  147.1769  139.7438  153.1770 C   0  0  0  0  0  0  0  0  0  0  0  0
  148.1216  138.7241  153.8545 C   0  0  1  0  0  0  0  0  0  0  0  0
  152.0652  141.0317  155.8351 H   0  0  0  0  0  0  0  0  0  0  0  0
  150.8061  142.1781  156.1496 H   0  0  0  0  0  0  0  0  0  0  0  0
  150.8734  143.4419  157.8242 H   0  0  0  0  0  0  0  0  0  0  0  0
  153.1969  142.5738  161.3359 H   0  0  0  0  0  0  0  0  0  0  0  0
  153.7923  140.4490  160.3945 H   0  0  0  0  0  0  0  0  0  0  0  0
  149.5952  140.6930  154.7565 H   0  0  0  0  0  0  0  0  0  0  0  0
  147.5005  139.3567  155.8332 H   0  0  0  0  0  0  0  0  0  0  0  0
  149.8134  137.4036  155.6182 H   0  0  0  0  0  0  0  0  0  0  0  0
  148.7066  137.6094  156.9799 H   0  0  0  0  0  0  0  0  0  0  0  0
  148.1713  135.7148  155.1012 H   0  0  0  0  0  0  0  0  0  0  0  0
  146.8657  136.7152  155.7329 H   0  0  0  0  0  0  0  0  0  0  0  0
  145.9284  136.1373  153.2903 H   0  0  0  0  0  0  0  0  0  0  0  0
  145.5034  137.6755  154.0097 H   0  0  0  0  0  0  0  0  0  0  0  0
  146.5643  137.1641  151.1908 H   0  0  0  0  0  0  0  0  0  0  0  0
  145.0207  137.8383  151.6303 H   0  0  0  0  0  0  0  0  0  0  0  0
  147.5142  139.2102  151.1187 H   0  0  0  0  0  0  0  0  0  0  0  0
  145.9492  139.9215  151.4012 H   0  0  0  0  0  0  0  0  0  0  0  0
  147.6879  140.6971  153.0408 H   0  0  0  0  0  0  0  0  0  0  0  0
  146.3207  139.9495  153.8207 H   0  0  0  0  0  0  0  0  0  0  0  0
  149.0606  138.6886  153.2993 H   0  0  0  0  0  0  0  0  0  0  0  0
  148.1755  136.8253  153.1958 H   0  0  0  0  0  0  0  0  0  0  0  0
  1  2  2  0  0  0  0
  2  3  1  0  0  0  0
  2 15  1  0  0  0  0
  3  4  1  0  0  0  0
  3 25  1  0  0  0  0
  3 26  1  0  0  0  0
  4 13  1  0  0  0  0
  4  5  1  0  0  0  0
  5  6  2  0  0  0  0
  5 27  1  0  0  0  0
  6  7  1  0  0  0  0
  6 11  1  0  0  0  0
  7  8  1  0  0  0  0
  7  9  1  0  0  0  0
  7 10  1  0  0  0  0
 11 12  2  0  0  0  0
 11 28  1  0  0  0  0
 12 13  1  0  0  0  0
 12 29  1  0  0  0  0
 13 14  2  0  0  0  0
 15 16  1  0  0  0  0
 15 30  1  0  0  0  0
 16 24  1  0  0  0  0
 16 17  1  0  0  0  0
 16 31  1  0  0  0  0
 17 18  1  0  0  0  0
 17 32  1  0  0  0  0
 17 33  1  0  0  0  0
 18 19  1  0  0  0  0
 18 34  1  0  0  0  0
 18 35  1  0  0  0  0
 19 24  1  0  0  0  0
 19 20  1  0  0  0  0
 19 45  1  0  0  0  0
 20 21  1  0  0  0  0
 20 36  1  0  0  0  0
 20 37  1  0  0  0  0
 21 22  1  0  0  0  0
 21 38  1  0  0  0  0
 21 39  1  0  0  0  0
 22 23  1  0  0  0  0
 22 40  1  0  0  0  0
 22 41  1  0  0  0  0
 23 24  1  0  0  0  0
 23 42  1  0  0  0  0
 23 43  1  0  0  0  0
 24 44  1  0  0  0  0
M  CHG  1  19   1
M  END
> <s_m_source_file>
AV-unprocessed.smi

> <i_m_source_file_index>
1976

> <i_lp_mmshare_version>
43012

> <i_f3d_flags>
0

> <s_epik_input>
W0NIMl0xW0NIMl1bQ0gyXVtDSDJdW0NASF0oTjEyKVtDQEBIXShbQ0gyXVtDSDJdMilbTkhdQyg9TylbQ0gyXW4zW2NIXWMoQyhGKShGKUYpW2NIXVtjSF1jMz1P

> <s_epik_cmdline>
J2VwaWtfcHl0aG9uJywgJy1waCcsICc3LjAnLCAnLXRuJywgJzgnLCAnLW1hJywgJzIwMCcsICctbWV0YWxfYmluZGluZycsICctaW1hZScsICc8aW5maWxlLm1hZT4nLCAnLW9tYWUnLCAnPG91dGZpbGUubWFlPic=

> <r_lp_tautomer_probability>
1

> <r_epik_Ionization_Penalty>
0.00171506

> <r_epik_Ionization_Penalty_Charging>
0.00171498

> <r_epik_Ionization_Penalty_Neutral>
7.81737e-08

> <r_epik_State_Penalty>
0.00115937

> <r_epik_Charging_Adjusted_Penalty>
0.00287436

> <i_epik_Tot_Q>
1

> <i_epik_Tot_abs_Q>
1

> <r_epik_Metal_State_Penalty>
-0

> <b_epik_Metal_Only>
0

> <s_lp_Force_Field>
OPLS_2005

> <r_lp_Energy>
51.6

> <b_lp_Chiralities_Consistent>
1

> <s_lp_Variant>
AV-unprocessed.smi:1976-3

> <Gold.Version>
5.8.1

> <Gold.Id.Protein>
6NUR|6NUR_protein|mol2

> <Gold.PLP.Fitness>
50.5351

> <Gold.PLP.PLP>
-42.7451

> <Gold.PLP.part.hbond>
-2.0000

> <Gold.PLP.part.metal>
0.0000

> <Gold.PLP.part.buried>
-0.4168

> <Gold.PLP.part.nonpolar>
-40.4700

> <Gold.PLP.part.repulsive>
0.0577

> <Gold.PLP.ligand.clash>
0.0000

> <Gold.PLP.ligand.torsion>
0.6227

> <Gold.PLP.Chemscore.Hbond>
3.0000

> <Gold.PLP.Chemscore.CHOScore>
0.0000

> <Gold.PLP.Chemscore.Metal>
0.0000

> <Gold.Chemscore.Hbonds>
donor molecule, donor type, donor heavy atom, donor atom, acceptor molecule, acceptor atom, score
      L1  H    19    45       P1  7948  2.00
      P1  H  7997  8008       L1    14  1.00

> <Gold.PLP.Chemscore.Internal.Correction>
0.0355

> <Gold.Rescore>
     Score         DG    S(hbond)    S(metal)    S(lipo)     H(rot)  DE(clash)    DE(int)     intcor
     15.90     -18.45       1.82        0.00      93.50       1.58       0.40       2.15       ----

> <Gold.Chemscore.Fitness>
15.8977

> <Gold.Chemscore.DG>
-18.4482

> <Gold.Chemscore.ZeroCoef>
-5.4800

> <Gold.Chemscore.Hbond>
1.8208

> <Gold.Chemscore.Metal>
0.0000

> <Gold.Chemscore.Lipo>
93.4958

> <Gold.Chemscore.Internal_Hbond>
0.0000

> <Gold.Chemscore.DEClash>
0.4005

> <Gold.Chemscore.DEInternal>
2.1500

> <Gold.Chemscore.Rot>
1.5830

> <Gold.Chemscore.Internal.Correction>
   9.000000E+99

> <Gold.Chemscore.Hbonds>
donor molecule, donor type, donor heavy atom, donor atom, acceptor molecule, acceptor atom, score
      L1  H    19    45       P1  7948  1.00
      P1  H  7997  8008       L1    14  0.29

> <Gold.Chemscore.Hbond.Weighted>
-6.0816

> <Gold.Chemscore.Metal.Weighted>
-0.0000

> <Gold.Chemscore.Lipo.Weighted>
-10.9390

> <Gold.Chemscore.Internal_Hbond.Weighted>
0.0000

> <Gold.Chemscore.DEClash.Weighted>
0.4005

> <Gold.Chemscore.DEInternal.Weighted>
2.1500

> <Gold.Chemscore.Rot.Weighted>
4.0524

> <Gold.Chemscore.Internal.Correction.Weighted>
   9.000000E+99

> <Gold.Protein.RotatedTorsions>
[ 6907 6896 6895 6894 ] final  -42.21 input  -60.11 | X-H torsion
[ 7974 7965 7964 7962 ] final  141.10 input  175.53 | X-H torsion
[ 8008 7997 7996 7995 ] final  -87.32 input   59.86 | X-H torsion
[ 10167 10162 10161 10158 ] final   38.93 input  -65.29 | X-H torsion
[ 10718 10713 10712 10709 ] final  -31.91 input   66.30 | X-H torsion
[ 10763 10752 10751 10750 ] final -125.28 input  -60.55 | X-H torsion
[ 11005 11000 10999 10996 ] final -146.84 input  -57.11 | X-H torsion

> <Gold.Protein.ActiveResidues>
 VAL166  LYS551  ARG553  GLY616  TRP617  ASP618  TYR619  PRO620  LYS621  CYS622 
 ASP623  PHE694  ASN695  SER759  ASP760  ASP761  ALA762  ILE779  LEU786  VAL792 
 PHE793  MET794  SER795  GLU796  ALA797  LYS798  CYS799  TRP800  GLU811  SER814 

> <Gold.Protein.RotatedAtoms>
  150.9578  134.8970  159.7711 H   0  0  0  0  0  0  0  0  0  0  0  0  # atno 6907 bound_to 6896
  152.5145  134.3715  159.9330 H   0  0  0  0  0  0  0  0  0  0  0  0  # atno 6908 bound_to 6896
  151.3728  133.3808  159.2736 H   0  0  0  0  0  0  0  0  0  0  0  0  # atno 6909 bound_to 6896
  144.9127  139.5272  143.5701 H   0  0  0  0  0  0  0  0  0  0  0  0  # atno 7974 bound_to 7965
  154.6619  140.0567  157.0072 H   0  0  0  0  0  0  0  0  0  0  0  0  # atno 8008 bound_to 7997
  155.1215  140.3248  155.4477 H   0  0  0  0  0  0  0  0  0  0  0  0  # atno 8009 bound_to 7997
  156.2622  140.1996  156.6337 H   0  0  0  0  0  0  0  0  0  0  0  0  # atno 8010 bound_to 7997
  140.3889  144.1880  150.6130 H   0  0  0  0  0  0  0  0  0  0  0  0  # atno 10167 bound_to 10162
  156.3814  130.4357  149.7466 H   0  0  0  0  0  0  0  0  0  0  0  0  # atno 10718 bound_to 10713
  154.8734  135.4035  154.3242 H   0  0  0  0  0  0  0  0  0  0  0  0  # atno 10763 bound_to 10752
  153.4065  135.7019  153.6394 H   0  0  0  0  0  0  0  0  0  0  0  0  # atno 10764 bound_to 10752
  153.5115  135.3706  155.2559 H   0  0  0  0  0  0  0  0  0  0  0  0  # atno 10765 bound_to 10752
  140.7779  134.3114  157.5055 H   0  0  0  0  0  0  0  0  0  0  0  0  # atno 11005 bound_to 11000
  146.3166  139.7945  142.8978 LP  0  0  0  0  0  0  0  0  0  0  0  0  # atno 17320 bound_to 7965
  145.3428  141.0291  143.3383 LP  0  0  0  0  0  0  0  0  0  0  0  0  # atno 17321 bound_to 7965
  140.4861  143.2363  151.8886 LP  0  0  0  0  0  0  0  0  0  0  0  0  # atno 17342 bound_to 10162
  139.4790  144.5217  151.8792 LP  0  0  0  0  0  0  0  0  0  0  0  0  # atno 17343 bound_to 10162
  156.4554  130.7927  151.2947 LP  0  0  0  0  0  0  0  0  0  0  0  0  # atno 17370 bound_to 10713
  157.7492  131.0082  150.3220 LP  0  0  0  0  0  0  0  0  0  0  0  0  # atno 17371 bound_to 10713
  139.8746  134.9300  156.3492 LP  0  0  0  0  0  0  0  0  0  0  0  0  # atno 17394 bound_to 11000
  140.9511  133.7450  156.0273 LP  0  0  0  0  0  0  0  0  0  0  0  0  # atno 17395 bound_to 11000

$$$$
