AV-unprocessed.smi:53|AV-procd|sdf|519|dock3
  -GOLD-   2262016393D 1   1.00000     0.00000
 Structure written by MMmdl.
 30 31  0  0  0  0  0  0  0  0  1 V2000
  152.8887  140.9695  159.1491 N   0  0  0  0  0  0  0  0  0  0  0  0
  152.1165  141.0199  158.0548 C   0  0  0  0  0  0  0  0  0  0  0  0
  150.9766  141.9073  158.0063 C   0  0  0  0  0  0  0  0  0  0  0  0
  150.2462  141.9024  156.8695 C   0  0  0  0  0  0  0  0  0  0  0  0
  150.5648  141.0890  155.7895 N   0  0  0  0  0  0  0  0  0  0  0  0
  149.7431  141.0795  154.5129 C   0  0  2  0  0  0  0  0  0  0  0  0
  148.7772  142.0901  154.5667 O   0  0  0  0  0  0  0  0  0  0  0  0
  147.4800  141.5237  154.7335 C   0  0  1  0  0  0  0  0  0  0  0  0
  146.4163  142.4982  154.2056 C   0  0  0  0  0  0  0  0  0  0  0  0
  145.1285  142.0560  154.5786 O   0  0  0  0  0  0  0  0  0  0  0  0
  147.5990  140.2385  153.9159 C   0  0  2  0  0  0  0  0  0  0  0  0
  146.5756  139.3020  154.1976 O   0  0  0  0  0  0  0  0  0  0  0  0
  148.9955  139.7439  154.2794 C   0  0  2  0  0  0  0  0  0  0  0  0
  148.9786  138.8937  155.4171 O   0  0  0  0  0  0  0  0  0  0  0  0
  151.6855  140.2280  155.8701 C   0  0  0  0  0  0  0  0  0  0  0  0
  151.9924  139.4798  154.9426 O   0  0  0  0  0  0  0  0  0  0  0  0
  152.4145  140.2473  157.0284 N   0  0  0  0  0  0  0  0  0  0  0  0
  150.4355  141.3364  153.7089 H   0  0  0  0  0  0  0  0  0  0  0  0
  147.3061  141.2762  155.7825 H   0  0  0  0  0  0  0  0  0  0  0  0
  147.5731  140.4801  152.8520 H   0  0  0  0  0  0  0  0  0  0  0  0
  149.4584  139.2049  153.4522 H   0  0  0  0  0  0  0  0  0  0  0  0
  153.6837  140.3477  159.1795 H   0  0  0  0  0  0  0  0  0  0  0  0
  152.6724  141.5549  159.9429 H   0  0  0  0  0  0  0  0  0  0  0  0
  150.6935  142.5568  158.8223 H   0  0  0  0  0  0  0  0  0  0  0  0
  149.3932  142.5624  156.8290 H   0  0  0  0  0  0  0  0  0  0  0  0
  146.5910  143.5117  154.5681 H   0  0  0  0  0  0  0  0  0  0  0  0
  146.4463  142.5338  153.1162 H   0  0  0  0  0  0  0  0  0  0  0  0
  144.7763  141.5301  153.8767 H   0  0  0  0  0  0  0  0  0  0  0  0
  146.9724  138.5256  154.5620 H   0  0  0  0  0  0  0  0  0  0  0  0
  148.3893  138.1754  155.2423 H   0  0  0  0  0  0  0  0  0  0  0  0
  1  2  1  0  0  0  0
  1 22  1  0  0  0  0
  1 23  1  0  0  0  0
  2 17  2  0  0  0  0
  2  3  1  0  0  0  0
  3  4  2  0  0  0  0
  3 24  1  0  0  0  0
  4  5  1  0  0  0  0
  4 25  1  0  0  0  0
  5  6  1  0  0  0  0
  5 15  1  0  0  0  0
  6 18  1  0  0  0  0
  6 13  1  0  0  0  0
  6  7  1  0  0  0  0
  7  8  1  0  0  0  0
  8 19  1  0  0  0  0
  8  9  1  0  0  0  0
  8 11  1  0  0  0  0
  9 10  1  0  0  0  0
  9 26  1  0  0  0  0
  9 27  1  0  0  0  0
 10 28  1  0  0  0  0
 11 20  1  0  0  0  0
 11 12  1  0  0  0  0
 11 13  1  0  0  0  0
 12 29  1  0  0  0  0
 13 21  1  0  0  0  0
 13 14  1  0  0  0  0
 14 30  1  0  0  0  0
 15 16  2  0  0  0  0
 15 17  1  0  0  0  0
M  END
> <s_m_source_file>
AV-unprocessed.smi

> <i_m_source_file_index>
53

> <i_lp_mmshare_version>
43012

> <i_f3d_flags>
0

> <s_epik_input>
W05IMl1jMVtjSF1bY0hdbihjKD1PKW4xKVtDQEBIXTJPW0NASF0oW0NIMl1bT0hdKVtDQEBIXShbT0hdKVtDQEBIXTJbT0hd

> <s_epik_cmdline>
J2VwaWtfcHl0aG9uJywgJy1waCcsICc3LjAnLCAnLXRuJywgJzgnLCAnLW1hJywgJzIwMCcsICctbWV0YWxfYmluZGluZycsICctaW1hZScsICc8aW5maWxlLm1hZT4nLCAnLW9tYWUnLCAnPG91dGZpbGUubWFlPic=

> <r_lp_tautomer_probability>
0.99996

> <r_epik_Ionization_Penalty>
0.00069087

> <r_epik_Ionization_Penalty_Charging>
2.61959e-08

> <r_epik_Ionization_Penalty_Neutral>
0.000690844

> <r_epik_State_Penalty>
1.15523e-05

> <r_epik_Charging_Adjusted_Penalty>
1.15785e-05

> <i_epik_Tot_Q>
0

> <i_epik_Tot_abs_Q>
0

> <r_epik_Metal_State_Penalty>
-0

> <b_epik_Metal_Only>
0

> <s_epik_Chemistry_Notes>
This compound contains an acetal/aminal-like group ( X-CH(R)-Y where X, Y are N, S, or O) that may be acid/base labile, releasing an aldehyde.

> <s_lp_Force_Field>
OPLS_2005

> <r_lp_Energy>
37.6577

> <b_lp_Chiralities_Consistent>
1

> <s_lp_Variant>
AV-unprocessed.smi:53-7

> <Gold.Version>
5.8.1

> <Gold.Id.Protein>
6NUR|6NUR_protein|mol2

> <Gold.PLP.Fitness>
37.0332

> <Gold.PLP.PLP>
-26.0955

> <Gold.PLP.part.hbond>
-3.8758

> <Gold.PLP.part.metal>
0.0000

> <Gold.PLP.part.buried>
-1.7229

> <Gold.PLP.part.nonpolar>
-22.4056

> <Gold.PLP.part.repulsive>
2.1185

> <Gold.PLP.ligand.clash>
0.0000

> <Gold.PLP.ligand.torsion>
0.1885

> <Gold.PLP.Chemscore.Hbond>
2.7424

> <Gold.PLP.Chemscore.CHOScore>
1.0000

> <Gold.PLP.Chemscore.Metal>
0.0000

> <Gold.Chemscore.Hbonds>
donor molecule, donor type, donor heavy atom, donor atom, acceptor molecule, acceptor atom, score
      L1  H    10    28       P1 10175  0.88
      P1  H  7989  7998       L1    16  0.70
      P1  H  7997  8009       L1    17  1.00
      L1  C     4    25       P1  8028  1.00

> <Gold.PLP.Chemscore.Internal.Correction>
0.0875

> <Gold.Rescore>
     Score         DG    S(hbond)    S(metal)    S(lipo)     H(rot)  DE(clash)    DE(int)     intcor
      6.68      -7.38       2.28        0.00      32.40       3.71       0.40       0.30       ----

> <Gold.Chemscore.Fitness>
6.6827

> <Gold.Chemscore.DG>
-7.3821

> <Gold.Chemscore.ZeroCoef>
-5.4800

> <Gold.Chemscore.Hbond>
2.2776

> <Gold.Chemscore.Metal>
0.0000

> <Gold.Chemscore.Lipo>
32.4041

> <Gold.Chemscore.Internal_Hbond>
0.0000

> <Gold.Chemscore.DEClash>
0.3996

> <Gold.Chemscore.DEInternal>
0.2999

> <Gold.Chemscore.Rot>
3.7095

> <Gold.Chemscore.Internal.Correction>
   9.000000E+99

> <Gold.Chemscore.Hbonds>
donor molecule, donor type, donor heavy atom, donor atom, acceptor molecule, acceptor atom, score
      L1  H    10    28       P1 10175  0.17
      P1  H  7989  7998       L1    16  0.08
      P1  H  7997  8009       L1    17  0.56

> <Gold.Chemscore.Hbond.Weighted>
-7.6072

> <Gold.Chemscore.Metal.Weighted>
-0.0000

> <Gold.Chemscore.Lipo.Weighted>
-3.7913

> <Gold.Chemscore.Internal_Hbond.Weighted>
0.0000

> <Gold.Chemscore.DEClash.Weighted>
0.3996

> <Gold.Chemscore.DEInternal.Weighted>
0.2999

> <Gold.Chemscore.Rot.Weighted>
9.4964

> <Gold.Chemscore.Internal.Correction.Weighted>
   9.000000E+99

> <Gold.Protein.RotatedTorsions>
[ 6907 6896 6895 6894 ] final   58.47 input  -60.11 | X-H torsion
[ 7974 7965 7964 7962 ] final  -67.20 input  175.53 | X-H torsion
[ 8008 7997 7996 7995 ] final -174.83 input   59.86 | X-H torsion
[ 10167 10162 10161 10158 ] final  148.11 input  -65.29 | X-H torsion
[ 10718 10713 10712 10709 ] final  100.40 input   66.30 | X-H torsion
[ 10763 10752 10751 10750 ] final -104.33 input  -60.55 | X-H torsion
[ 11005 11000 10999 10996 ] final  -92.15 input  -57.11 | X-H torsion

> <Gold.Protein.ActiveResidues>
 VAL166  LYS551  ARG553  GLY616  TRP617  ASP618  TYR619  PRO620  LYS621  CYS622 
 ASP623  PHE694  ASN695  SER759  ASP760  ASP761  ALA762  ILE779  LEU786  VAL792 
 PHE793  MET794  SER795  GLU796  ALA797  LYS798  CYS799  TRP800  GLU811  SER814 

> <Gold.Protein.RotatedAtoms>
  152.3827  134.6566  160.0136 H   0  0  0  0  0  0  0  0  0  0  0  0  # atno 6907 bound_to 6896
  151.6824  133.3306  159.3231 H   0  0  0  0  0  0  0  0  0  0  0  0  # atno 6908 bound_to 6896
  150.7760  134.6705  159.6434 H   0  0  0  0  0  0  0  0  0  0  0  0  # atno 6909 bound_to 6896
  145.7322  140.8991  143.0574 H   0  0  0  0  0  0  0  0  0  0  0  0  # atno 7974 bound_to 7965
  155.9750  140.1170  157.0778 H   0  0  0  0  0  0  0  0  0  0  0  0  # atno 8008 bound_to 7997
  154.4166  140.1156  156.5425 H   0  0  0  0  0  0  0  0  0  0  0  0  # atno 8009 bound_to 7997
  155.6547  140.3473  155.4763 H   0  0  0  0  0  0  0  0  0  0  0  0  # atno 8010 bound_to 7997
  139.4880  144.5705  151.7064 H   0  0  0  0  0  0  0  0  0  0  0  0  # atno 10167 bound_to 10162
  157.6855  131.0697  150.5095 H   0  0  0  0  0  0  0  0  0  0  0  0  # atno 10718 bound_to 10713
  154.7870  135.4790  153.9969 H   0  0  0  0  0  0  0  0  0  0  0  0  # atno 10763 bound_to 10752
  153.1575  135.6802  153.8798 H   0  0  0  0  0  0  0  0  0  0  0  0  # atno 10764 bound_to 10752
  153.8422  135.3178  155.3405 H   0  0  0  0  0  0  0  0  0  0  0  0  # atno 10765 bound_to 10752
  141.1528  133.7802  156.9980 H   0  0  0  0  0  0  0  0  0  0  0  0  # atno 11005 bound_to 11000
  144.6890  139.9347  143.7473 LP  0  0  0  0  0  0  0  0  0  0  0  0  # atno 17320 bound_to 7965
  146.0526  139.3526  143.0630 LP  0  0  0  0  0  0  0  0  0  0  0  0  # atno 17321 bound_to 7965
  140.5291  144.0759  150.6047 LP  0  0  0  0  0  0  0  0  0  0  0  0  # atno 17342 bound_to 10162
  140.3743  143.2837  152.0243 LP  0  0  0  0  0  0  0  0  0  0  0  0  # atno 17343 bound_to 10162
  156.5413  130.4209  149.6152 LP  0  0  0  0  0  0  0  0  0  0  0  0  # atno 17370 bound_to 10713
  156.2983  130.7162  151.2028 LP  0  0  0  0  0  0  0  0  0  0  0  0  # atno 17371 bound_to 10713
  140.0959  134.9564  157.1849 LP  0  0  0  0  0  0  0  0  0  0  0  0  # atno 17394 bound_to 11000
  140.3383  134.2732  155.7216 LP  0  0  0  0  0  0  0  0  0  0  0  0  # atno 17395 bound_to 11000

$$$$
