AV-unprocessed.smi:2528|AV-procd|sdf|9956|dock4
  -GOLD-   2272013593D 1   1.00000     0.00000
 Structure written by MMmdl.
 43 45  0  0  0  0  0  0  0  0  1 V2000
  144.4008  136.7414  152.0989 O   0  0  0  0  0  0  0  0  0  0  0  0
  145.6073  136.6069  151.8922 C   0  0  0  0  0  0  0  0  0  0  0  0
  146.5157  137.5466  152.1915 N   0  0  0  0  0  0  0  0  0  0  0  0
  146.2120  138.8342  152.8076 C   0  0  0  0  0  0  0  0  0  0  0  0
  147.4778  139.5987  153.2369 C   0  0  2  0  0  0  0  0  0  0  0  0
  148.4582  138.7379  154.0596 C   0  0  0  0  0  0  0  0  0  0  0  0
  149.6027  139.5109  154.5261 N   0  0  0  0  0  0  0  0  0  0  0  0
  150.5135  138.6864  155.3188 C   0  0  0  0  0  0  0  0  0  0  0  0
  151.7473  139.4681  155.7979 C   0  0  0  0  0  0  0  0  0  0  0  0
  151.3168  140.7055  156.5982 C   0  0  0  0  0  0  0  0  0  0  0  0
  150.3205  141.5412  155.7800 C   0  0  0  0  0  0  0  0  0  0  0  0
  149.1422  140.6731  155.2920 C   0  0  1  0  0  0  0  0  0  0  0  0
  148.1512  141.5178  154.4662 C   0  0  0  0  0  0  0  0  0  0  0  0
  147.0656  140.7048  154.0340 O   0  0  0  0  0  0  0  0  0  0  0  0
  146.1880  135.5214  151.3513 N   0  0  0  0  0  0  0  0  0  0  0  0
  145.5659  134.3225  150.9105 C   0  0  0  0  0  0  0  0  0  0  0  0
  146.4246  133.2047  150.8043 C   0  0  0  0  0  0  0  0  0  0  0  0
  145.9030  131.9687  150.3758 C   0  0  0  0  0  0  0  0  0  0  0  0
  144.5350  131.8824  150.0617 C   0  0  0  0  0  0  0  0  0  0  0  0
  143.7501  133.0425  150.1928 C   0  0  0  0  0  0  0  0  0  0  0  0
  144.2476  134.2276  150.6044 N   0  0  0  0  0  0  0  0  0  0  0  0
  147.4863  137.3558  151.9898 H   0  0  0  0  0  0  0  0  0  0  0  0
  145.6249  139.4401  152.1152 H   0  0  0  0  0  0  0  0  0  0  0  0
  145.5748  138.6554  153.6741 H   0  0  0  0  0  0  0  0  0  0  0  0
  147.9852  139.9826  152.3500 H   0  0  0  0  0  0  0  0  0  0  0  0
  147.9316  138.3066  154.9125 H   0  0  0  0  0  0  0  0  0  0  0  0
  148.8078  137.9011  153.4543 H   0  0  0  0  0  0  0  0  0  0  0  0
  149.9865  138.2792  156.1831 H   0  0  0  0  0  0  0  0  0  0  0  0
  150.8418  137.8315  154.7266 H   0  0  0  0  0  0  0  0  0  0  0  0
  152.3841  138.8284  156.4093 H   0  0  0  0  0  0  0  0  0  0  0  0
  152.3446  139.7744  154.9380 H   0  0  0  0  0  0  0  0  0  0  0  0
  150.8509  140.3926  157.5335 H   0  0  0  0  0  0  0  0  0  0  0  0
  152.1862  141.3061  156.8667 H   0  0  0  0  0  0  0  0  0  0  0  0
  149.9537  142.3715  156.3842 H   0  0  0  0  0  0  0  0  0  0  0  0
  150.8333  141.9824  154.9241 H   0  0  0  0  0  0  0  0  0  0  0  0
  148.6083  140.3151  156.1740 H   0  0  0  0  0  0  0  0  0  0  0  0
  147.7559  142.3378  155.0662 H   0  0  0  0  0  0  0  0  0  0  0  0
  148.6439  141.9642  153.6008 H   0  0  0  0  0  0  0  0  0  0  0  0
  147.1918  135.5519  151.2524 H   0  0  0  0  0  0  0  0  0  0  0  0
  147.4733  133.2884  151.0502 H   0  0  0  0  0  0  0  0  0  0  0  0
  146.5420  131.1023  150.2898 H   0  0  0  0  0  0  0  0  0  0  0  0
  144.0986  130.9523  149.7290 H   0  0  0  0  0  0  0  0  0  0  0  0
  142.6954  133.0193  149.9617 H   0  0  0  0  0  0  0  0  0  0  0  0
  1  2  2  0  0  0  0
  2  3  1  0  0  0  0
  2 15  1  0  0  0  0
  3  4  1  0  0  0  0
  3 22  1  0  0  0  0
  4  5  1  0  0  0  0
  4 23  1  0  0  0  0
  4 24  1  0  0  0  0
  5 14  1  0  0  0  0
  5  6  1  0  0  0  0
  5 25  1  0  0  0  0
  6  7  1  0  0  0  0
  6 26  1  0  0  0  0
  6 27  1  0  0  0  0
  7 12  1  0  0  0  0
  7  8  1  0  0  0  0
  8  9  1  0  0  0  0
  8 28  1  0  0  0  0
  8 29  1  0  0  0  0
  9 10  1  0  0  0  0
  9 30  1  0  0  0  0
  9 31  1  0  0  0  0
 10 11  1  0  0  0  0
 10 32  1  0  0  0  0
 10 33  1  0  0  0  0
 11 12  1  0  0  0  0
 11 34  1  0  0  0  0
 11 35  1  0  0  0  0
 12 13  1  0  0  0  0
 12 36  1  0  0  0  0
 13 14  1  0  0  0  0
 13 37  1  0  0  0  0
 13 38  1  0  0  0  0
 15 16  1  0  0  0  0
 15 39  1  0  0  0  0
 16 21  1  0  0  0  0
 16 17  2  0  0  0  0
 17 18  1  0  0  0  0
 17 40  1  0  0  0  0
 18 19  2  0  0  0  0
 18 41  1  0  0  0  0
 19 20  1  0  0  0  0
 19 42  1  0  0  0  0
 20 21  2  0  0  0  0
 20 43  1  0  0  0  0
M  END
> <s_m_source_file>
AV-unprocessed.smi

> <i_m_source_file_index>
2528

> <i_lp_mmshare_version>
43012

> <i_f3d_flags>
0

> <s_epik_input>
bjFbY0hdW2NIXVtjSF1bY0hdYzFbTkhdQyg9TylbTkhdW0NIMl1bQ0BIXShbQ0gyXTIpT1tDSDJdW0NAQEhdKE4yMylbQ0gyXVtDSDJdW0NIMl1bQ0gyXTM=

> <s_epik_cmdline>
J2VwaWtfcHl0aG9uJywgJy1waCcsICc3LjAnLCAnLXRuJywgJzgnLCAnLW1hJywgJzIwMCcsICctbWV0YWxfYmluZGluZycsICctaW1hZScsICc8aW5maWxlLm1hZT4nLCAnLW9tYWUnLCAnPG91dGZpbGUubWFlPic=

> <r_epik_Ionization_Penalty>
1.14192

> <r_epik_Ionization_Penalty_Charging>
0

> <r_epik_Ionization_Penalty_Neutral>
1.14192

> <r_epik_State_Penalty>
1.20248

> <r_epik_Charging_Adjusted_Penalty>
1.20248

> <i_epik_Tot_Q>
0

> <i_epik_Tot_abs_Q>
0

> <r_epik_Metal_State_Penalty>
1.20248

> <b_epik_Metal_Only>
0

> <s_lp_Force_Field>
OPLS_2005

> <r_lp_Energy>
34.3645

> <b_lp_Chiralities_Consistent>
1

> <s_lp_Variant>
AV-unprocessed.smi:2528-9

> <Gold.Version>
5.8.1

> <Gold.Id.Protein>
6NUR|6NUR_protein|mol2

> <Gold.PLP.Fitness>
46.1034

> <Gold.PLP.PLP>
-37.4751

> <Gold.PLP.part.hbond>
-2.0000

> <Gold.PLP.part.metal>
0.0000

> <Gold.PLP.part.buried>
-2.7184

> <Gold.PLP.part.nonpolar>
-33.6166

> <Gold.PLP.part.repulsive>
0.7638

> <Gold.PLP.ligand.clash>
0.0000

> <Gold.PLP.ligand.torsion>
0.1860

> <Gold.PLP.Chemscore.Hbond>
2.0000

> <Gold.PLP.Chemscore.CHOScore>
1.0000

> <Gold.PLP.Chemscore.Metal>
0.0000

> <Gold.Chemscore.Hbonds>
donor molecule, donor type, donor heavy atom, donor atom, acceptor molecule, acceptor atom, score
      L1  H     3    22       P1  7948  1.00
      L1  H    15    39       P1  7948  1.00
      L1  C    20    43       P1 10186  1.00

> <Gold.PLP.Chemscore.Internal.Correction>
0.0003

> <Gold.Rescore>
     Score         DG    S(hbond)    S(metal)    S(lipo)     H(rot)  DE(clash)    DE(int)     intcor
     18.24     -19.96       1.92        0.00      96.61       1.27       0.35       1.37       ----

> <Gold.Chemscore.Fitness>
18.2417

> <Gold.Chemscore.DG>
-19.9621

> <Gold.Chemscore.ZeroCoef>
-5.4800

> <Gold.Chemscore.Hbond>
1.9249

> <Gold.Chemscore.Metal>
0.0000

> <Gold.Chemscore.Lipo>
96.6082

> <Gold.Chemscore.Internal_Hbond>
0.0000

> <Gold.Chemscore.DEClash>
0.3462

> <Gold.Chemscore.DEInternal>
1.3742

> <Gold.Chemscore.Rot>
1.2696

> <Gold.Chemscore.Internal.Correction>
   9.000000E+99

> <Gold.Chemscore.Hbonds>
donor molecule, donor type, donor heavy atom, donor atom, acceptor molecule, acceptor atom, score
      L1  H     3    22       P1  7948  0.98
      L1  H    15    39       P1  7948  0.89

> <Gold.Chemscore.Hbond.Weighted>
-6.4292

> <Gold.Chemscore.Metal.Weighted>
-0.0000

> <Gold.Chemscore.Lipo.Weighted>
-11.3032

> <Gold.Chemscore.Internal_Hbond.Weighted>
0.0000

> <Gold.Chemscore.DEClash.Weighted>
0.3462

> <Gold.Chemscore.DEInternal.Weighted>
1.3742

> <Gold.Chemscore.Rot.Weighted>
3.2502

> <Gold.Chemscore.Internal.Correction.Weighted>
   9.000000E+99

> <Gold.Protein.RotatedTorsions>
[ 6907 6896 6895 6894 ] final  -22.57 input  -60.11 | X-H torsion
[ 7974 7965 7964 7962 ] final   22.63 input  175.53 | X-H torsion
[ 8008 7997 7996 7995 ] final  -25.80 input   59.86 | X-H torsion
[ 10167 10162 10161 10158 ] final  -87.77 input  -65.29 | X-H torsion
[ 10718 10713 10712 10709 ] final   60.81 input   66.30 | X-H torsion
[ 10763 10752 10751 10750 ] final  155.46 input  -60.55 | X-H torsion
[ 11005 11000 10999 10996 ] final -160.06 input  -57.11 | X-H torsion

> <Gold.Protein.ActiveResidues>
 VAL166  LYS551  ARG553  GLY616  TRP617  ASP618  TYR619  PRO620  LYS621  CYS622 
 ASP623  PHE694  ASN695  SER759  ASP760  ASP761  ALA762  ILE779  LEU786  VAL792 
 PHE793  MET794  SER795  GLU796  ALA797  LYS798  CYS799  TRP800  GLU811  SER814 

> <Gold.Protein.RotatedAtoms>
  151.2167  135.0502  159.8932 H   0  0  0  0  0  0  0  0  0  0  0  0  # atno 6907 bound_to 6896
  152.5419  134.0686  159.8194 H   0  0  0  0  0  0  0  0  0  0  0  0  # atno 6908 bound_to 6896
  151.0846  133.5315  159.2650 H   0  0  0  0  0  0  0  0  0  0  0  0  # atno 6909 bound_to 6896
  146.2020  139.7859  142.8754 H   0  0  0  0  0  0  0  0  0  0  0  0  # atno 7974 bound_to 7965
  154.4457  140.1917  156.0675 H   0  0  0  0  0  0  0  0  0  0  0  0  # atno 8008 bound_to 7997
  156.0536  140.3305  155.7352 H   0  0  0  0  0  0  0  0  0  0  0  0  # atno 8009 bound_to 7997
  155.5520  140.0596  157.2839 H   0  0  0  0  0  0  0  0  0  0  0  0  # atno 8010 bound_to 7997
  140.3812  143.2747  151.9381 H   0  0  0  0  0  0  0  0  0  0  0  0  # atno 10167 bound_to 10162
  157.5781  130.8959  149.9382 H   0  0  0  0  0  0  0  0  0  0  0  0  # atno 10718 bound_to 10713
  154.1688  135.2805  155.3087 H   0  0  0  0  0  0  0  0  0  0  0  0  # atno 10763 bound_to 10752
  154.6091  135.5504  153.7457 H   0  0  0  0  0  0  0  0  0  0  0  0  # atno 10764 bound_to 10752
  153.0171  135.6411  154.1828 H   0  0  0  0  0  0  0  0  0  0  0  0  # atno 10765 bound_to 10752
  140.6357  134.4604  157.5231 H   0  0  0  0  0  0  0  0  0  0  0  0  # atno 11005 bound_to 11000
  145.3450  141.0295  143.3371 LP  0  0  0  0  0  0  0  0  0  0  0  0  # atno 17320 bound_to 7965
  144.8706  139.5044  143.6769 LP  0  0  0  0  0  0  0  0  0  0  0  0  # atno 17321 bound_to 7965
  139.4795  144.5816  151.7922 LP  0  0  0  0  0  0  0  0  0  0  0  0  # atno 17342 bound_to 10162
  140.4935  144.1275  150.5955 LP  0  0  0  0  0  0  0  0  0  0  0  0  # atno 17343 bound_to 10162
  156.0826  130.3671  150.0551 LP  0  0  0  0  0  0  0  0  0  0  0  0  # atno 17370 bound_to 10713
  156.8694  130.9519  151.3610 LP  0  0  0  0  0  0  0  0  0  0  0  0  # atno 17371 bound_to 10713
  139.9099  134.8367  156.1567 LP  0  0  0  0  0  0  0  0  0  0  0  0  # atno 17394 bound_to 11000
  141.0643  133.6826  156.2014 LP  0  0  0  0  0  0  0  0  0  0  0  0  # atno 17395 bound_to 11000

$$$$
