AV-unprocessed.smi:1554|AV-procd|sdf|6256|dock5
  -GOLD-   22720 6443D 1   1.00000     0.00000
 Structure written by MMmdl.
 49 51  0  0  0  0  0  0  0  0  3 V2000
  153.3380  142.5975  161.4443 C   0  0  0  0  0  0  0  0  0  0  0  0
  152.6404  142.2202  160.1483 C   0  0  0  0  0  0  0  0  0  0  0  0
  152.7274  140.8830  159.6999 C   0  0  0  0  0  0  0  0  0  0  0  0
  152.0827  140.5699  158.5091 C   0  0  0  0  0  0  0  0  0  0  0  0
  151.9853  139.3640  157.8120 N   0  3  0  0  0  0  0  0  0  0  0  0
  151.2457  139.5491  156.6838 C   0  0  0  0  0  0  0  0  0  0  0  0
  150.8711  140.8571  156.6478 N   0  0  0  0  0  0  0  0  0  0  0  0
  150.0635  141.5743  155.6498 C   0  0  0  0  0  0  0  0  0  0  0  0
  149.3038  140.6285  154.6982 C   0  0  2  0  0  0  0  0  0  0  0  0
  150.2266  139.9339  153.8816 O   0  0  0  0  0  0  0  0  0  0  0  0
  148.3268  141.4015  153.7898 C   0  0  0  0  0  0  0  0  0  0  0  0
  147.4054  142.2840  154.5507 N   0  3  1  0  0  0  0  0  0  0  0  0
  146.2077  142.7043  153.7820 C   0  0  0  0  0  0  0  0  0  0  0  0
  145.3319  143.6443  154.6266 C   0  0  0  0  0  0  0  0  0  0  0  0
  144.9720  142.9993  155.8418 O   0  0  0  0  0  0  0  0  0  0  0  0
  146.1070  142.6721  156.6356 C   0  0  1  0  0  0  0  0  0  0  0  0
  145.6118  142.0695  157.9550 C   0  0  0  0  0  0  0  0  0  0  0  0
  147.0036  141.6952  155.8504 C   0  0  0  0  0  0  0  0  0  0  0  0
  151.3675  141.5323  157.7700 C   0  0  0  0  0  0  0  0  0  0  0  0
  151.2702  142.8540  158.1996 C   0  0  0  0  0  0  0  0  0  0  0  0
  151.9210  143.1932  159.4073 C   0  0  0  0  0  0  0  0  0  0  0  0
  151.8339  144.6284  159.8979 C   0  0  0  0  0  0  0  0  0  0  0  0
  153.8215  141.7345  161.9031 H   0  0  0  0  0  0  0  0  0  0  0  0
  152.6230  142.9992  162.1626 H   0  0  0  0  0  0  0  0  0  0  0  0
  154.1052  143.3501  161.2604 H   0  0  0  0  0  0  0  0  0  0  0  0
  153.2740  140.1371  160.2585 H   0  0  0  0  0  0  0  0  0  0  0  0
  151.0003  138.7935  155.9512 H   0  0  0  0  0  0  0  0  0  0  0  0
  149.3527  142.1915  156.2007 H   0  0  0  0  0  0  0  0  0  0  0  0
  150.7019  142.2660  155.0994 H   0  0  0  0  0  0  0  0  0  0  0  0
  148.7665  139.8966  155.3006 H   0  0  0  0  0  0  0  0  0  0  0  0
  149.8347  139.8019  153.0314 H   0  0  0  0  0  0  0  0  0  0  0  0
  148.8739  141.9988  153.0587 H   0  0  0  0  0  0  0  0  0  0  0  0
  147.7451  140.6780  153.2157 H   0  0  0  0  0  0  0  0  0  0  0  0
  146.4986  143.2152  152.8652 H   0  0  0  0  0  0  0  0  0  0  0  0
  145.6325  141.8245  153.4888 H   0  0  0  0  0  0  0  0  0  0  0  0
  145.8527  144.5800  154.8364 H   0  0  0  0  0  0  0  0  0  0  0  0
  144.4238  143.9015  154.0816 H   0  0  0  0  0  0  0  0  0  0  0  0
  146.6640  143.5839  156.8587 H   0  0  0  0  0  0  0  0  0  0  0  0
  146.4468  141.8126  158.6072 H   0  0  0  0  0  0  0  0  0  0  0  0
  145.0303  141.1632  157.7829 H   0  0  0  0  0  0  0  0  0  0  0  0
  144.9770  142.7750  158.4917 H   0  0  0  0  0  0  0  0  0  0  0  0
  146.4780  140.7548  155.6761 H   0  0  0  0  0  0  0  0  0  0  0  0
  147.8925  141.4621  156.4382 H   0  0  0  0  0  0  0  0  0  0  0  0
  150.7262  143.5975  157.6361 H   0  0  0  0  0  0  0  0  0  0  0  0
  151.2797  145.2564  159.1998 H   0  0  0  0  0  0  0  0  0  0  0  0
  152.8300  145.0572  160.0104 H   0  0  0  0  0  0  0  0  0  0  0  0
  151.3258  144.6723  160.8615 H   0  0  0  0  0  0  0  0  0  0  0  0
  147.9285  143.1205  154.7695 H   0  0  0  0  0  0  0  0  0  0  0  0
  152.3909  138.4778  158.0853 H   0  0  0  0  0  0  0  0  0  0  0  0
  1  2  1  0  0  0  0
  1 23  1  0  0  0  0
  1 24  1  0  0  0  0
  1 25  1  0  0  0  0
  2 21  1  0  0  0  0
  2  3  2  0  0  0  0
  3  4  1  0  0  0  0
  3 26  1  0  0  0  0
  4 19  2  0  0  0  0
  4  5  1  0  0  0  0
  5  6  2  0  0  0  0
  5 49  1  0  0  0  0
  6  7  1  0  0  0  0
  6 27  1  0  0  0  0
  7  8  1  0  0  0  0
  7 19  1  0  0  0  0
  8  9  1  0  0  0  0
  8 28  1  0  0  0  0
  8 29  1  0  0  0  0
  9 10  1  0  0  0  0
  9 11  1  0  0  0  0
  9 30  1  0  0  0  0
 10 31  1  0  0  0  0
 11 12  1  0  0  0  0
 11 32  1  0  0  0  0
 11 33  1  0  0  0  0
 12 18  1  0  0  0  0
 12 13  1  0  0  0  0
 12 48  1  0  0  0  0
 13 14  1  0  0  0  0
 13 34  1  0  0  0  0
 13 35  1  0  0  0  0
 14 15  1  0  0  0  0
 14 36  1  0  0  0  0
 14 37  1  0  0  0  0
 15 16  1  0  0  0  0
 16 17  1  0  0  0  0
 16 18  1  0  0  0  0
 16 38  1  0  0  0  0
 17 39  1  0  0  0  0
 17 40  1  0  0  0  0
 17 41  1  0  0  0  0
 18 42  1  0  0  0  0
 18 43  1  0  0  0  0
 19 20  1  0  0  0  0
 20 21  2  0  0  0  0
 20 44  1  0  0  0  0
 21 22  1  0  0  0  0
 22 45  1  0  0  0  0
 22 46  1  0  0  0  0
 22 47  1  0  0  0  0
M  CHG  1   5   1
M  CHG  1  12   1
M  END
> <s_m_source_file>
AV-unprocessed.smi

> <i_m_source_file_index>
1554

> <i_lp_mmshare_version>
43012

> <i_f3d_flags>
0

> <s_epik_input>
W0NIM11jKFtjSF0xKWMoW0NIM10pW2NIXWMoYzEyKW4oW2NIXW4yKVtDSDJdW0NASF0oW09IXSlbQ0gyXU4zW0NIMl1bQ0gyXU9bQ0BASF0oW0NIM10pW0NIMl0z

> <s_epik_cmdline>
J2VwaWtfcHl0aG9uJywgJy1waCcsICc3LjAnLCAnLXRuJywgJzgnLCAnLW1hJywgJzIwMCcsICctbWV0YWxfYmluZGluZycsICctaW1hZScsICc8aW5maWxlLm1hZT4nLCAnLW9tYWUnLCAnPG91dGZpbGUubWFlPic=

> <r_epik_Ionization_Penalty>
1.8848

> <r_epik_Ionization_Penalty_Charging>
1.88479

> <r_epik_Ionization_Penalty_Neutral>
1.42224e-05

> <r_epik_State_Penalty>
1.94551

> <r_epik_Charging_Adjusted_Penalty>
3.8303

> <i_epik_Tot_Q>
2

> <i_epik_Tot_abs_Q>
2

> <r_epik_Metal_State_Penalty>
5.95849

> <b_epik_Metal_Only>
0

> <s_lp_Force_Field>
OPLS_2005

> <r_lp_Energy>
29.8274

> <b_lp_Chiralities_Consistent>
1

> <s_lp_Variant>
AV-unprocessed.smi:1554-17

> <Gold.Version>
5.8.1

> <Gold.Id.Protein>
6NUR|6NUR_protein|mol2

> <Gold.PLP.Fitness>
59.0832

> <Gold.PLP.PLP>
-48.0888

> <Gold.PLP.part.hbond>
-3.0000

> <Gold.PLP.part.metal>
0.0000

> <Gold.PLP.part.buried>
-6.0303

> <Gold.PLP.part.nonpolar>
-38.5237

> <Gold.PLP.part.repulsive>
0.3368

> <Gold.PLP.ligand.clash>
0.0000

> <Gold.PLP.ligand.torsion>
0.4414

> <Gold.PLP.Chemscore.Hbond>
3.9440

> <Gold.PLP.Chemscore.CHOScore>
0.0000

> <Gold.PLP.Chemscore.Metal>
0.0000

> <Gold.Chemscore.Hbonds>
donor molecule, donor type, donor heavy atom, donor atom, acceptor molecule, acceptor atom, score
      L1  H    10    31       P1  7957  1.00
      L1  H    12    48       P1  8028  2.00
      P1  H  7989  7998       L1    10  0.94

> <Gold.PLP.Chemscore.Internal.Correction>
0.0452

> <Gold.Rescore>
     Score         DG    S(hbond)    S(metal)    S(lipo)     H(rot)  DE(clash)    DE(int)     intcor
     21.31     -21.88       2.36        0.00     119.07       2.11       0.23       0.34       ----

> <Gold.Chemscore.Fitness>
21.3125

> <Gold.Chemscore.DG>
-21.8756

> <Gold.Chemscore.ZeroCoef>
-5.4800

> <Gold.Chemscore.Hbond>
2.3568

> <Gold.Chemscore.Metal>
0.0000

> <Gold.Chemscore.Lipo>
119.0697

> <Gold.Chemscore.Internal_Hbond>
0.0000

> <Gold.Chemscore.DEClash>
0.2267

> <Gold.Chemscore.DEInternal>
0.3364

> <Gold.Chemscore.Rot>
2.1122

> <Gold.Chemscore.Internal.Correction>
   9.000000E+99

> <Gold.Chemscore.Hbonds>
donor molecule, donor type, donor heavy atom, donor atom, acceptor molecule, acceptor atom, score
      L1  H    10    31       P1  7957  0.98
      L1  H    12    48       P1  8028  0.80
      P1  H  7989  7998       L1    10  0.23

> <Gold.Chemscore.Hbond.Weighted>
-7.8718

> <Gold.Chemscore.Metal.Weighted>
-0.0000

> <Gold.Chemscore.Lipo.Weighted>
-13.9312

> <Gold.Chemscore.Internal_Hbond.Weighted>
0.0000

> <Gold.Chemscore.DEClash.Weighted>
0.2267

> <Gold.Chemscore.DEInternal.Weighted>
0.3364

> <Gold.Chemscore.Rot.Weighted>
5.4073

> <Gold.Chemscore.Internal.Correction.Weighted>
   9.000000E+99

> <Gold.Protein.RotatedTorsions>
[ 6907 6896 6895 6894 ] final  -47.54 input  -60.11 | X-H torsion
[ 7974 7965 7964 7962 ] final  150.14 input  175.53 | X-H torsion
[ 8008 7997 7996 7995 ] final -178.08 input   59.86 | X-H torsion
[ 10167 10162 10161 10158 ] final   75.01 input  -65.29 | X-H torsion
[ 10718 10713 10712 10709 ] final   19.21 input   66.30 | X-H torsion
[ 10763 10752 10751 10750 ] final  109.64 input  -60.55 | X-H torsion
[ 11005 11000 10999 10996 ] final -167.85 input  -57.11 | X-H torsion

> <Gold.Protein.ActiveResidues>
 VAL166  LYS551  ARG553  GLY616  TRP617  ASP618  TYR619  PRO620  LYS621  CYS622 
 ASP623  PHE694  ASN695  SER759  ASP760  ASP761  ALA762  ILE779  LEU786  VAL792 
 PHE793  MET794  SER795  GLU796  ALA797  LYS798  CYS799  TRP800  GLU811  SER814 

> <Gold.Protein.RotatedAtoms>
  150.8997  134.8409  159.7351 H   0  0  0  0  0  0  0  0  0  0  0  0  # atno 6907 bound_to 6896
  152.4885  134.4521  159.9587 H   0  0  0  0  0  0  0  0  0  0  0  0  # atno 6908 bound_to 6896
  151.4574  133.3562  159.2839 H   0  0  0  0  0  0  0  0  0  0  0  0  # atno 6909 bound_to 6896
  144.8386  139.6370  143.6026 H   0  0  0  0  0  0  0  0  0  0  0  0  # atno 7974 bound_to 7965
  156.0146  140.1248  157.0419 H   0  0  0  0  0  0  0  0  0  0  0  0  # atno 8008 bound_to 7997
  154.4288  140.1081  156.5947 H   0  0  0  0  0  0  0  0  0  0  0  0  # atno 8009 bound_to 7997
  155.6031  140.3470  155.4602 H   0  0  0  0  0  0  0  0  0  0  0  0  # atno 8010 bound_to 7997
  140.0075  144.5639  150.7686 H   0  0  0  0  0  0  0  0  0  0  0  0  # atno 10167 bound_to 10162
  157.1073  130.6493  149.5888 H   0  0  0  0  0  0  0  0  0  0  0  0  # atno 10718 bound_to 10713
  153.4375  135.3774  155.2208 H   0  0  0  0  0  0  0  0  0  0  0  0  # atno 10763 bound_to 10752
  154.8752  135.3855  154.4192 H   0  0  0  0  0  0  0  0  0  0  0  0  # atno 10764 bound_to 10752
  153.4734  135.7087  153.6043 H   0  0  0  0  0  0  0  0  0  0  0  0  # atno 10765 bound_to 10752
  140.5487  134.5450  157.5117 H   0  0  0  0  0  0  0  0  0  0  0  0  # atno 11005 bound_to 11000
  146.2682  139.6570  142.9315 LP  0  0  0  0  0  0  0  0  0  0  0  0  # atno 17320 bound_to 7965
  145.4741  141.0437  143.2682 LP  0  0  0  0  0  0  0  0  0  0  0  0  # atno 17321 bound_to 7965
  140.7394  143.2791  151.3652 LP  0  0  0  0  0  0  0  0  0  0  0  0  # atno 17342 bound_to 10162
  139.6228  144.0873  152.2407 LP  0  0  0  0  0  0  0  0  0  0  0  0  # atno 17343 bound_to 10162
  155.9859  130.4891  150.7053 LP  0  0  0  0  0  0  0  0  0  0  0  0  # atno 17370 bound_to 10713
  157.4590  131.0881  151.0766 LP  0  0  0  0  0  0  0  0  0  0  0  0  # atno 17371 bound_to 10713
  139.9466  134.7690  156.0546 LP  0  0  0  0  0  0  0  0  0  0  0  0  # atno 17394 bound_to 11000
  141.1185  133.6620  156.3154 LP  0  0  0  0  0  0  0  0  0  0  0  0  # atno 17395 bound_to 11000

$$$$
