AV-unprocessed.smi:227|AV-procd|sdf|1732|dock6
  -GOLD-   2262020223D 1   1.00000     0.00000
 Structure written by MMmdl.
 54 58  0  0  0  0  0  0  0  0  1 V2000
  147.3053  134.0155  162.8071 O   0  0  0  0  0  0  0  0  0  0  0  0
  147.0298  135.3986  162.8919 C   0  0  0  0  0  0  0  0  0  0  0  0
  146.5833  135.9720  161.5246 C   0  0  1  0  0  0  0  0  0  0  0  0
  147.4992  135.5178  160.3610 C   0  0  0  0  0  0  0  0  0  0  0  0
  147.7866  136.5820  159.4151 N   0  0  0  0  0  0  0  0  0  0  0  0
  146.8746  137.2395  158.6229 C   0  0  0  0  0  0  0  0  0  0  0  0
  147.3740  138.1692  157.8560 N   0  0  0  0  0  0  0  0  0  0  0  0
  148.7369  138.1451  158.1303 C   0  0  0  0  0  0  0  0  0  0  0  0
  149.8618  138.8797  157.6568 C   0  0  0  0  0  0  0  0  0  0  0  0
  149.7738  139.8592  156.7203 N   0  0  0  0  0  0  0  0  0  0  0  0
  150.8966  140.7144  156.3764 C   0  0  2  0  0  0  0  0  0  0  0  0
  150.2087  141.8070  155.5361 C   0  0  0  0  0  0  0  0  0  0  0  0
  149.0908  141.0032  154.8429 C   0  0  0  0  0  0  0  0  0  0  0  0
  149.3886  139.5782  155.3451 C   0  0  1  0  0  0  0  0  0  0  0  0
  150.6850  139.0922  154.6432 C   0  0  2  0  0  0  0  0  0  0  0  0
  150.8693  137.5673  154.4788 C   0  0  0  0  0  0  0  0  0  0  0  0
  152.1183  137.1938  153.9396 O   0  0  0  0  0  0  0  0  0  0  0  0
  151.7658  139.8282  155.4590 C   0  0  0  0  0  0  0  0  0  0  0  0
  151.0722  138.5894  158.2034 N   0  0  0  0  0  0  0  0  0  0  0  0
  151.1864  137.6254  159.1209 C   0  0  0  0  0  0  0  0  0  0  0  0
  150.2330  136.8490  159.6377 N   0  0  0  0  0  0  0  0  0  0  0  0
  149.0115  137.1513  159.1129 C   0  0  0  0  0  0  0  0  0  0  0  0
  145.0905  135.6819  161.2256 C   0  0  2  0  0  0  0  0  0  0  0  0
  144.1083  136.3305  162.1855 C   0  0  0  0  0  0  0  0  0  0  0  0
  142.8410  135.5195  161.9421 C   0  0  0  0  0  0  0  0  0  0  0  0
  143.2831  134.2033  161.6317 O   0  0  0  0  0  0  0  0  0  0  0  0
  144.6822  134.2111  161.3642 C   0  0  0  0  0  0  0  0  0  0  0  0
  146.5325  133.5733  162.4906 H   0  0  0  0  0  0  0  0  0  0  0  0
  146.2612  135.5545  163.6485 H   0  0  0  0  0  0  0  0  0  0  0  0
  147.9182  135.9109  163.2609 H   0  0  0  0  0  0  0  0  0  0  0  0
  146.6880  137.0553  161.6007 H   0  0  0  0  0  0  0  0  0  0  0  0
  148.4414  135.1284  160.7483 H   0  0  0  0  0  0  0  0  0  0  0  0
  147.0371  134.7028  159.8042 H   0  0  0  0  0  0  0  0  0  0  0  0
  145.8191  137.0099  158.6375 H   0  0  0  0  0  0  0  0  0  0  0  0
  151.4409  141.1214  157.2295 H   0  0  0  0  0  0  0  0  0  0  0  0
  149.7828  142.5829  156.1735 H   0  0  0  0  0  0  0  0  0  0  0  0
  150.8908  142.2820  154.8299 H   0  0  0  0  0  0  0  0  0  0  0  0
  148.1115  141.3357  155.1901 H   0  0  0  0  0  0  0  0  0  0  0  0
  149.1077  141.0937  153.7562 H   0  0  0  0  0  0  0  0  0  0  0  0
  148.5419  138.9067  155.2125 H   0  0  0  0  0  0  0  0  0  0  0  0
  150.6934  139.4877  153.6263 H   0  0  0  0  0  0  0  0  0  0  0  0
  150.7464  137.0725  155.4425 H   0  0  0  0  0  0  0  0  0  0  0  0
  150.0919  137.1742  153.8233 H   0  0  0  0  0  0  0  0  0  0  0  0
  152.3630  137.8245  153.2797 H   0  0  0  0  0  0  0  0  0  0  0  0
  152.4457  140.4077  154.8337 H   0  0  0  0  0  0  0  0  0  0  0  0
  152.3676  139.1367  156.0492 H   0  0  0  0  0  0  0  0  0  0  0  0
  152.1847  137.4515  159.4941 H   0  0  0  0  0  0  0  0  0  0  0  0
  144.8488  136.0148  160.2147 H   0  0  0  0  0  0  0  0  0  0  0  0
  144.4405  136.2047  163.2170 H   0  0  0  0  0  0  0  0  0  0  0  0
  143.9608  137.3947  162.0003 H   0  0  0  0  0  0  0  0  0  0  0  0
  142.1691  135.5250  162.8005 H   0  0  0  0  0  0  0  0  0  0  0  0
  142.2970  135.9144  161.0832 H   0  0  0  0  0  0  0  0  0  0  0  0
  144.9121  133.6299  160.4710 H   0  0  0  0  0  0  0  0  0  0  0  0
  145.1909  133.7455  162.2094 H   0  0  0  0  0  0  0  0  0  0  0  0
  1  2  1  0  0  0  0
  1 28  1  0  0  0  0
  2  3  1  0  0  0  0
  2 29  1  0  0  0  0
  2 30  1  0  0  0  0
  3  4  1  0  0  0  0
  3 23  1  0  0  0  0
  3 31  1  0  0  0  0
  4  5  1  0  0  0  0
  4 32  1  0  0  0  0
  4 33  1  0  0  0  0
  5 22  1  0  0  0  0
  5  6  1  0  0  0  0
  6  7  2  0  0  0  0
  6 34  1  0  0  0  0
  7  8  1  0  0  0  0
  8 22  2  0  0  0  0
  8  9  1  0  0  0  0
  9 10  1  0  0  0  0
  9 19  2  0  0  0  0
 10 14  1  0  0  0  0
 10 11  1  0  0  0  0
 11 18  1  0  0  0  0
 11 12  1  0  0  0  0
 11 35  1  0  0  0  0
 12 13  1  0  0  0  0
 12 36  1  0  0  0  0
 12 37  1  0  0  0  0
 13 14  1  0  0  0  0
 13 38  1  0  0  0  0
 13 39  1  0  0  0  0
 14 15  1  0  0  0  0
 14 40  1  0  0  0  0
 15 16  1  0  0  0  0
 15 18  1  0  0  0  0
 15 41  1  0  0  0  0
 16 17  1  0  0  0  0
 16 42  1  0  0  0  0
 16 43  1  0  0  0  0
 17 44  1  0  0  0  0
 18 45  1  0  0  0  0
 18 46  1  0  0  0  0
 19 20  1  0  0  0  0
 20 21  2  0  0  0  0
 20 47  1  0  0  0  0
 21 22  1  0  0  0  0
 23 27  1  0  0  0  0
 23 24  1  0  0  0  0
 23 48  1  0  0  0  0
 24 25  1  0  0  0  0
 24 49  1  0  0  0  0
 24 50  1  0  0  0  0
 25 26  1  0  0  0  0
 25 51  1  0  0  0  0
 25 52  1  0  0  0  0
 26 27  1  0  0  0  0
 27 53  1  0  0  0  0
 27 54  1  0  0  0  0
M  END
> <s_m_source_file>
AV-unprocessed.smi

> <i_m_source_file_index>
227

> <i_lp_mmshare_version>
43012

> <i_f3d_flags>
0

> <s_epik_input>
W0NIMl0xT1tDSDJdW0NIMl1bQ0BIXTFbQ0BIXShbQ0gyXVtPSF0pW0NIMl1uKFtjSF1uMiljKGMyMyluW2NIXW5jM04oW0NASF00NSlbQ0BASF0oW0NIMl1bQ0gyXTQpW0NASF0oW0NIMl01KVtDSDJdW09IXQ==

> <s_epik_cmdline>
J2VwaWtfcHl0aG9uJywgJy1waCcsICc3LjAnLCAnLXRuJywgJzgnLCAnLW1hJywgJzIwMCcsICctbWV0YWxfYmluZGluZycsICctaW1hZScsICc8aW5maWxlLm1hZT4nLCAnLW9tYWUnLCAnPG91dGZpbGUubWFlPic=

> <r_lp_tautomer_probability>
1

> <r_epik_Ionization_Penalty>
0.0055791

> <r_epik_Ionization_Penalty_Charging>
0

> <r_epik_Ionization_Penalty_Neutral>
0.0055791

> <r_epik_State_Penalty>
0.00401299

> <r_epik_Charging_Adjusted_Penalty>
0.00401299

> <i_epik_Tot_Q>
0

> <i_epik_Tot_abs_Q>
0

> <r_epik_Metal_State_Penalty>
-0

> <b_epik_Metal_Only>
0

> <s_lp_Force_Field>
OPLS_2005

> <r_lp_Energy>
91.5057

> <b_lp_Chiralities_Consistent>
1

> <s_lp_Variant>
AV-unprocessed.smi:227-6

> <Gold.Version>
5.8.1

> <Gold.Id.Protein>
6NUR|6NUR_protein|mol2

> <Gold.PLP.Fitness>
47.9446

> <Gold.PLP.PLP>
-43.5574

> <Gold.PLP.part.hbond>
-3.2727

> <Gold.PLP.part.metal>
0.0000

> <Gold.PLP.part.buried>
-4.8639

> <Gold.PLP.part.nonpolar>
-35.1139

> <Gold.PLP.part.repulsive>
0.0468

> <Gold.PLP.ligand.clash>
0.0000

> <Gold.PLP.ligand.torsion>
0.8781

> <Gold.PLP.Chemscore.Hbond>
2.0000

> <Gold.PLP.Chemscore.CHOScore>
0.0000

> <Gold.PLP.Chemscore.Metal>
0.0000

> <Gold.Chemscore.Hbonds>
donor molecule, donor type, donor heavy atom, donor atom, acceptor molecule, acceptor atom, score
      P1  H  6896  6909       L1    21  1.00
      P1  H 10752 10765       L1    17  0.99

> <Gold.PLP.Chemscore.Internal.Correction>
0.1432

> <Gold.Rescore>
     Score         DG    S(hbond)    S(metal)    S(lipo)     H(rot)  DE(clash)    DE(int)     intcor
     10.27     -12.29       1.69        0.00      89.00       3.61       0.28       1.74       ----

> <Gold.Chemscore.Fitness>
10.2677

> <Gold.Chemscore.DG>
-12.2886

> <Gold.Chemscore.ZeroCoef>
-5.4800

> <Gold.Chemscore.Hbond>
1.6854

> <Gold.Chemscore.Metal>
0.0000

> <Gold.Chemscore.Lipo>
89.0036

> <Gold.Chemscore.Internal_Hbond>
0.0000

> <Gold.Chemscore.DEClash>
0.2848

> <Gold.Chemscore.DEInternal>
1.7361

> <Gold.Chemscore.Rot>
3.6071

> <Gold.Chemscore.Internal.Correction>
   9.000000E+99

> <Gold.Chemscore.Hbonds>
donor molecule, donor type, donor heavy atom, donor atom, acceptor molecule, acceptor atom, score
      P1  H  6896  6909       L1    21  0.24
      P1  H 10752 10765       L1    17  0.87

> <Gold.Chemscore.Hbond.Weighted>
-5.6294

> <Gold.Chemscore.Metal.Weighted>
-0.0000

> <Gold.Chemscore.Lipo.Weighted>
-10.4134

> <Gold.Chemscore.Internal_Hbond.Weighted>
0.0000

> <Gold.Chemscore.DEClash.Weighted>
0.2848

> <Gold.Chemscore.DEInternal.Weighted>
1.7361

> <Gold.Chemscore.Rot.Weighted>
9.2342

> <Gold.Chemscore.Internal.Correction.Weighted>
   9.000000E+99

> <Gold.Protein.RotatedTorsions>
[ 6907 6896 6895 6894 ] final  104.90 input  -60.11 | X-H torsion
[ 7974 7965 7964 7962 ] final  174.05 input  175.53 | X-H torsion
[ 8008 7997 7996 7995 ] final  -54.91 input   59.86 | X-H torsion
[ 10167 10162 10161 10158 ] final  116.25 input  -65.29 | X-H torsion
[ 10718 10713 10712 10709 ] final  119.64 input   66.30 | X-H torsion
[ 10763 10752 10751 10750 ] final  142.99 input  -60.55 | X-H torsion
[ 11005 11000 10999 10996 ] final   57.18 input  -57.11 | X-H torsion

> <Gold.Protein.ActiveResidues>
 VAL166  LYS551  ARG553  GLY616  TRP617  ASP618  TYR619  PRO620  LYS621  CYS622 
 ASP623  PHE694  ASN695  SER759  ASP760  ASP761  ALA762  ILE779  LEU786  VAL792 
 PHE793  MET794  SER795  GLU796  ALA797  LYS798  CYS799  TRP800  GLU811  SER814 

> <Gold.Protein.RotatedAtoms>
  152.5249  133.9609  159.7716 H   0  0  0  0  0  0  0  0  0  0  0  0  # atno 6907 bound_to 6896
  150.9900  133.6151  159.2717 H   0  0  0  0  0  0  0  0  0  0  0  0  # atno 6908 bound_to 6896
  151.3298  135.0845  159.9388 H   0  0  0  0  0  0  0  0  0  0  0  0  # atno 6909 bound_to 6896
  144.7230  139.9738  143.6437 H   0  0  0  0  0  0  0  0  0  0  0  0  # atno 7974 bound_to 7965
  154.4178  140.1165  156.5392 H   0  0  0  0  0  0  0  0  0  0  0  0  # atno 8008 bound_to 7997
  155.6526  140.3496  155.4734 H   0  0  0  0  0  0  0  0  0  0  0  0  # atno 8009 bound_to 7997
  155.9780  140.1154  157.0742 H   0  0  0  0  0  0  0  0  0  0  0  0  # atno 8010 bound_to 7997
  139.6260  144.7108  151.2532 H   0  0  0  0  0  0  0  0  0  0  0  0  # atno 10167 bound_to 10162
  157.5947  131.1059  150.7925 H   0  0  0  0  0  0  0  0  0  0  0  0  # atno 10718 bound_to 10713
  153.9650  135.2956  155.3431 H   0  0  0  0  0  0  0  0  0  0  0  0  # atno 10763 bound_to 10752
  154.7354  135.5049  153.9036 H   0  0  0  0  0  0  0  0  0  0  0  0  # atno 10764 bound_to 10752
  153.0928  135.6712  153.9932 H   0  0  0  0  0  0  0  0  0  0  0  0  # atno 10765 bound_to 10752
  140.0472  134.5788  155.9308 H   0  0  0  0  0  0  0  0  0  0  0  0  # atno 11005 bound_to 11000
  146.0541  139.3540  143.0621 LP  0  0  0  0  0  0  0  0  0  0  0  0  # atno 17320 bound_to 7965
  145.8177  140.9695  143.0915 LP  0  0  0  0  0  0  0  0  0  0  0  0  # atno 17321 bound_to 7965
  140.7411  143.6567  150.8200 LP  0  0  0  0  0  0  0  0  0  0  0  0  # atno 17342 bound_to 10162
  140.0185  143.5568  152.2810 LP  0  0  0  0  0  0  0  0  0  0  0  0  # atno 17343 bound_to 10162
  156.8338  130.5025  149.5328 LP  0  0  0  0  0  0  0  0  0  0  0  0  # atno 17370 bound_to 10713
  156.1008  130.5967  150.9890 LP  0  0  0  0  0  0  0  0  0  0  0  0  # atno 17371 bound_to 10713
  141.1913  133.6571  156.5449 LP  0  0  0  0  0  0  0  0  0  0  0  0  # atno 17394 bound_to 11000
  140.3974  134.7386  157.4759 LP  0  0  0  0  0  0  0  0  0  0  0  0  # atno 17395 bound_to 11000

$$$$
