AV-unprocessed.smi:2265|AV-procd|sdf|9145|dock4
  -GOLD-   2272012353D 1   1.00000     0.00000
 Structure written by MMmdl.
 36 37  0  0  0  0  0  0  0  0  1 V2000
  145.3480  131.6108  150.8090 C   0  0  0  0  0  0  0  0  0  0  0  0
  146.2358  132.7439  150.2833 C   0  0  0  0  0  0  0  0  0  0  0  0
  146.4433  133.8572  151.3186 C   0  0  0  0  0  0  0  0  0  0  0  0
  145.1466  134.5611  151.6764 C   0  0  2  0  0  0  0  0  0  0  0  0
  144.6705  135.7565  150.8946 C   0  0  0  0  0  0  0  0  0  0  0  0
  145.1214  135.9281  152.3311 C   0  0  2  0  0  0  0  0  0  0  0  0
  146.3528  136.6278  152.5482 N   0  0  0  0  0  0  0  0  0  0  0  0
  146.5354  137.7800  153.2175 C   0  0  0  0  0  0  0  0  0  0  0  0
  145.5794  138.3839  153.7038 O   0  0  0  0  0  0  0  0  0  0  0  0
  147.8215  138.1941  153.2517 N   0  0  0  0  0  0  0  0  0  0  0  0
  148.3467  139.3551  153.8322 C   0  0  0  0  0  0  0  0  0  0  0  0
  147.7415  140.5095  153.7980 N   0  0  0  0  0  0  0  0  0  0  0  0
  148.2953  141.6457  154.3883 C   0  0  0  0  0  0  0  0  0  0  0  0
  149.4809  141.5863  155.0210 C   0  0  0  0  0  0  0  0  0  0  0  0
  150.1891  140.3791  155.1022 N   0  0  0  0  0  0  0  0  0  0  0  0
  151.4758  140.3715  155.7987 C   0  0  0  0  0  0  0  0  0  0  0  0
  149.6994  139.2404  154.5409 C   0  0  0  0  0  0  0  0  0  0  0  0
  150.2876  138.1577  154.5813 O   0  0  0  0  0  0  0  0  0  0  0  0
  145.2220  130.8343  150.0544 H   0  0  0  0  0  0  0  0  0  0  0  0
  144.3572  131.9789  151.0765 H   0  0  0  0  0  0  0  0  0  0  0  0
  145.7840  131.1471  151.6941 H   0  0  0  0  0  0  0  0  0  0  0  0
  147.2028  132.3358  149.9875 H   0  0  0  0  0  0  0  0  0  0  0  0
  145.7878  133.1615  149.3810 H   0  0  0  0  0  0  0  0  0  0  0  0
  146.8726  133.4430  152.2315 H   0  0  0  0  0  0  0  0  0  0  0  0
  147.1609  134.5834  150.9350 H   0  0  0  0  0  0  0  0  0  0  0  0
  144.3708  133.8770  152.0156 H   0  0  0  0  0  0  0  0  0  0  0  0
  145.3197  136.1363  150.1076 H   0  0  0  0  0  0  0  0  0  0  0  0
  143.6043  135.8279  150.6901 H   0  0  0  0  0  0  0  0  0  0  0  0
  144.3159  136.1136  153.0404 H   0  0  0  0  0  0  0  0  0  0  0  0
  147.1618  136.2475  152.0787 H   0  0  0  0  0  0  0  0  0  0  0  0
  148.4818  137.5895  152.7852 H   0  0  0  0  0  0  0  0  0  0  0  0
  147.7268  142.5607  154.3092 H   0  0  0  0  0  0  0  0  0  0  0  0
  149.9496  142.4382  155.4916 H   0  0  0  0  0  0  0  0  0  0  0  0
  152.2858  140.1721  155.0960 H   0  0  0  0  0  0  0  0  0  0  0  0
  151.4947  139.5984  156.5683 H   0  0  0  0  0  0  0  0  0  0  0  0
  151.6899  141.3219  156.2888 H   0  0  0  0  0  0  0  0  0  0  0  0
  1  2  1  0  0  0  0
  1 19  1  0  0  0  0
  1 20  1  0  0  0  0
  1 21  1  0  0  0  0
  2  3  1  0  0  0  0
  2 22  1  0  0  0  0
  2 23  1  0  0  0  0
  3  4  1  0  0  0  0
  3 24  1  0  0  0  0
  3 25  1  0  0  0  0
  4  6  1  0  0  0  0
  4  5  1  0  0  0  0
  4 26  1  0  0  0  0
  5  6  1  0  0  0  0
  5 27  1  0  0  0  0
  5 28  1  0  0  0  0
  6  7  1  0  0  0  0
  6 29  1  0  0  0  0
  7  8  1  0  0  0  0
  7 30  1  0  0  0  0
  8  9  2  0  0  0  0
  8 10  1  0  0  0  0
 10 11  1  0  0  0  0
 10 31  1  0  0  0  0
 11 17  1  0  0  0  0
 11 12  2  0  0  0  0
 12 13  1  0  0  0  0
 13 14  2  0  0  0  0
 13 32  1  0  0  0  0
 14 15  1  0  0  0  0
 14 33  1  0  0  0  0
 15 16  1  0  0  0  0
 15 17  1  0  0  0  0
 16 34  1  0  0  0  0
 16 35  1  0  0  0  0
 16 36  1  0  0  0  0
 17 18  2  0  0  0  0
M  END
> <s_m_source_file>
AV-unprocessed.smi

> <i_m_source_file_index>
2265

> <i_lp_mmshare_version>
43012

> <i_f3d_flags>
0

> <s_epik_input>
W0NIM11bQ0gyXVtDSDJdW0NAQEhdMVtDSDJdW0NASF0xW05IXUMoPU8pW05IXWMybltjSF1bY0hdbihbQ0gzXSljMj1P

> <s_epik_cmdline>
J2VwaWtfcHl0aG9uJywgJy1waCcsICc3LjAnLCAnLXRuJywgJzgnLCAnLW1hJywgJzIwMCcsICctbWV0YWxfYmluZGluZycsICctaW1hZScsICc8aW5maWxlLm1hZT4nLCAnLW9tYWUnLCAnPG91dGZpbGUubWFlPic=

> <r_lp_tautomer_probability>
1

> <r_epik_Ionization_Penalty>
0.000728552

> <r_epik_Ionization_Penalty_Charging>
1.67739e-07

> <r_epik_Ionization_Penalty_Neutral>
0.000728385

> <r_epik_State_Penalty>
-0

> <r_epik_Charging_Adjusted_Penalty>
1.67739e-07

> <i_epik_Tot_Q>
0

> <i_epik_Tot_abs_Q>
0

> <r_epik_Metal_State_Penalty>
-0

> <b_epik_Metal_Only>
0

> <s_lp_Force_Field>
OPLS_2005

> <r_lp_Energy>
43.9494

> <b_lp_Chiralities_Consistent>
1

> <s_lp_Variant>
AV-unprocessed.smi:2265-3

> <Gold.Version>
5.8.1

> <Gold.Id.Protein>
6NUR|6NUR_protein|mol2

> <Gold.PLP.Fitness>
40.6843

> <Gold.PLP.PLP>
-31.7264

> <Gold.PLP.part.hbond>
-2.1175

> <Gold.PLP.part.metal>
0.0000

> <Gold.PLP.part.buried>
-1.0706

> <Gold.PLP.part.nonpolar>
-29.2713

> <Gold.PLP.part.repulsive>
0.9933

> <Gold.PLP.ligand.clash>
0.0000

> <Gold.PLP.ligand.torsion>
0.5813

> <Gold.PLP.Chemscore.Hbond>
2.0000

> <Gold.PLP.Chemscore.CHOScore>
1.1812

> <Gold.PLP.Chemscore.Metal>
0.0000

> <Gold.Chemscore.Hbonds>
donor molecule, donor type, donor heavy atom, donor atom, acceptor molecule, acceptor atom, score
      L1  H     7    30       P1  7948  1.00
      L1  H    10    31       P1  7948  1.00
      L1  C    13    32       P1  8028  0.29
      L1  C    14    33       P1  8028  0.88

> <Gold.PLP.Chemscore.Internal.Correction>
0.5769

> <Gold.Rescore>
     Score         DG    S(hbond)    S(metal)    S(lipo)     H(rot)  DE(clash)    DE(int)     intcor
     13.74     -15.33       1.96        0.00      60.25       1.46       0.08       1.51       ----

> <Gold.Chemscore.Fitness>
13.7437

> <Gold.Chemscore.DG>
-15.3337

> <Gold.Chemscore.ZeroCoef>
-5.4800

> <Gold.Chemscore.Hbond>
1.9591

> <Gold.Chemscore.Metal>
0.0000

> <Gold.Chemscore.Lipo>
60.2497

> <Gold.Chemscore.Internal_Hbond>
0.0000

> <Gold.Chemscore.DEClash>
0.0784

> <Gold.Chemscore.DEInternal>
1.5116

> <Gold.Chemscore.Rot>
1.4604

> <Gold.Chemscore.Internal.Correction>
   9.000000E+99

> <Gold.Chemscore.Hbonds>
donor molecule, donor type, donor heavy atom, donor atom, acceptor molecule, acceptor atom, score
      L1  H     7    30       P1  7948  0.94
      L1  H    10    31       P1  7948  0.98

> <Gold.Chemscore.Hbond.Weighted>
-6.5432

> <Gold.Chemscore.Metal.Weighted>
-0.0000

> <Gold.Chemscore.Lipo.Weighted>
-7.0492

> <Gold.Chemscore.Internal_Hbond.Weighted>
0.0000

> <Gold.Chemscore.DEClash.Weighted>
0.0784

> <Gold.Chemscore.DEInternal.Weighted>
1.5116

> <Gold.Chemscore.Rot.Weighted>
3.7387

> <Gold.Chemscore.Internal.Correction.Weighted>
   9.000000E+99

> <Gold.Protein.RotatedTorsions>
[ 6907 6896 6895 6894 ] final   67.54 input  -60.11 | X-H torsion
[ 7974 7965 7964 7962 ] final   17.10 input  175.53 | X-H torsion
[ 8008 7997 7996 7995 ] final  164.90 input   59.86 | X-H torsion
[ 10167 10162 10161 10158 ] final -162.62 input  -65.29 | X-H torsion
[ 10718 10713 10712 10709 ] final   44.65 input   66.30 | X-H torsion
[ 10763 10752 10751 10750 ] final  -24.61 input  -60.55 | X-H torsion
[ 11005 11000 10999 10996 ] final   58.92 input  -57.11 | X-H torsion

> <Gold.Protein.ActiveResidues>
 VAL166  LYS551  ARG553  GLY616  TRP617  ASP618  TYR619  PRO620  LYS621  CYS622 
 ASP623  PHE694  ASN695  SER759  ASP760  ASP761  ALA762  ILE779  LEU786  VAL792 
 PHE793  MET794  SER795  GLU796  ALA797  LYS798  CYS799  TRP800  GLU811  SER814 

> <Gold.Protein.RotatedAtoms>
  152.4559  134.5292  159.9805 H   0  0  0  0  0  0  0  0  0  0  0  0  # atno 6907 bound_to 6896
  151.5353  133.3436  159.2933 H   0  0  0  0  0  0  0  0  0  0  0  0  # atno 6908 bound_to 6896
  150.8503  134.7856  159.7066 H   0  0  0  0  0  0  0  0  0  0  0  0  # atno 6909 bound_to 6896
  146.2229  139.8652  142.8597 H   0  0  0  0  0  0  0  0  0  0  0  0  # atno 7974 bound_to 7965
  156.1844  140.1684  156.8214 H   0  0  0  0  0  0  0  0  0  0  0  0  # atno 8008 bound_to 7997
  154.5396  140.0739  156.8520 H   0  0  0  0  0  0  0  0  0  0  0  0  # atno 8009 bound_to 7997
  155.3241  140.3375  155.4243 H   0  0  0  0  0  0  0  0  0  0  0  0  # atno 8010 bound_to 7997
  139.6379  144.0315  152.2069 H   0  0  0  0  0  0  0  0  0  0  0  0  # atno 10167 bound_to 10162
  157.4291  130.8014  149.7586 H   0  0  0  0  0  0  0  0  0  0  0  0  # atno 10718 bound_to 10713
  153.6865  135.6964  153.5102 H   0  0  0  0  0  0  0  0  0  0  0  0  # atno 10763 bound_to 10752
  153.2445  135.4295  155.0732 H   0  0  0  0  0  0  0  0  0  0  0  0  # atno 10764 bound_to 10752
  154.8385  135.3516  154.6407 H   0  0  0  0  0  0  0  0  0  0  0  0  # atno 10765 bound_to 10752
  140.0342  134.5968  155.9467 H   0  0  0  0  0  0  0  0  0  0  0  0  # atno 11005 bound_to 11000
  145.2664  141.0094  143.3797 LP  0  0  0  0  0  0  0  0  0  0  0  0  # atno 17320 bound_to 7965
  144.9258  139.4357  143.6519 LP  0  0  0  0  0  0  0  0  0  0  0  0  # atno 17321 bound_to 7965
  139.9997  144.6302  150.7741 LP  0  0  0  0  0  0  0  0  0  0  0  0  # atno 17342 bound_to 10162
  140.7475  143.2907  151.3338 LP  0  0  0  0  0  0  0  0  0  0  0  0  # atno 17343 bound_to 10162
  155.9907  130.3943  150.3018 LP  0  0  0  0  0  0  0  0  0  0  0  0  # atno 17370 bound_to 10713
  157.1173  131.0237  151.3024 LP  0  0  0  0  0  0  0  0  0  0  0  0  # atno 17371 bound_to 10713
  141.1848  133.6553  156.5171 LP  0  0  0  0  0  0  0  0  0  0  0  0  # atno 17394 bound_to 11000
  140.4176  134.7217  157.4871 LP  0  0  0  0  0  0  0  0  0  0  0  0  # atno 17395 bound_to 11000

$$$$
