AV-unprocessed.smi:897|AV-procd|sdf|4080|dock3
  -GOLD-   22720 1563D 1   1.00000     0.00000
 Structure written by MMmdl.
 35 37  0  0  0  0  0  0  0  0  1 V2000
  147.1340  141.2135  153.5141 C   0  0  0  0  0  0  0  0  0  0  0  0
  148.4140  140.7763  154.1947 C   0  0  0  0  0  0  0  0  0  0  0  0
  148.9163  139.4729  154.0248 C   0  0  0  0  0  0  0  0  0  0  0  0
  150.1127  139.1181  154.6803 C   0  0  0  0  0  0  0  0  0  0  0  0
  150.6630  137.7105  154.5062 C   0  0  0  0  0  0  0  0  0  0  0  0
  150.7642  140.0906  155.4832 C   0  0  0  0  0  0  0  0  0  0  0  0
  152.0103  139.7664  156.1752 C   0  0  0  0  0  0  0  0  0  0  0  0
  152.9964  139.5091  156.7231 N   0  0  0  0  0  0  0  0  0  0  0  0
  150.1772  141.3819  155.5899 C   0  0  0  0  0  0  0  0  0  0  0  0
  150.7832  142.3789  156.3770 N   0  0  0  0  0  0  0  0  0  0  0  0
  150.5532  142.4530  157.8168 C   0  0  1  0  0  0  0  0  0  0  0  0
  151.5078  141.5664  158.6200 C   0  0  0  0  0  0  0  0  0  0  0  0
  152.1026  142.5675  159.6205 C   0  0  1  0  0  0  0  0  0  0  0  0
  153.1233  143.4958  158.9500 C   0  0  0  0  0  0  0  0  0  0  0  0
  152.2184  144.4018  158.1174 C   0  0  0  0  0  0  0  0  0  0  0  0
  150.8228  143.8387  158.4375 C   0  0  2  0  0  0  0  0  0  0  0  0
  151.0144  143.4604  159.7904 O   0  0  0  0  0  0  0  0  0  0  0  0
  149.0249  141.7056  154.9562 N   0  0  0  0  0  0  0  0  0  0  0  0
  146.6330  140.3715  153.0357 H   0  0  0  0  0  0  0  0  0  0  0  0
  147.3487  141.9618  152.7508 H   0  0  0  0  0  0  0  0  0  0  0  0
  146.4463  141.6491  154.2397 H   0  0  0  0  0  0  0  0  0  0  0  0
  148.3932  138.7600  153.4040 H   0  0  0  0  0  0  0  0  0  0  0  0
  151.6591  137.7404  154.0635 H   0  0  0  0  0  0  0  0  0  0  0  0
  150.0257  137.1124  153.8542 H   0  0  0  0  0  0  0  0  0  0  0  0
  150.7261  137.2031  155.4692 H   0  0  0  0  0  0  0  0  0  0  0  0
  151.1365  143.2049  155.9160 H   0  0  0  0  0  0  0  0  0  0  0  0
  149.5296  142.1461  158.0370 H   0  0  0  0  0  0  0  0  0  0  0  0
  150.9504  140.7842  159.1364 H   0  0  0  0  0  0  0  0  0  0  0  0
  152.2794  141.0875  158.0153 H   0  0  0  0  0  0  0  0  0  0  0  0
  152.4603  142.1114  160.5440 H   0  0  0  0  0  0  0  0  0  0  0  0
  153.6668  144.0789  159.6944 H   0  0  0  0  0  0  0  0  0  0  0  0
  153.8489  142.9498  158.3461 H   0  0  0  0  0  0  0  0  0  0  0  0
  152.3007  145.4344  158.4582 H   0  0  0  0  0  0  0  0  0  0  0  0
  152.4562  144.3809  157.0537 H   0  0  0  0  0  0  0  0  0  0  0  0
  150.0152  144.5559  158.2889 H   0  0  0  0  0  0  0  0  0  0  0  0
  1  2  1  0  0  0  0
  1 19  1  0  0  0  0
  1 20  1  0  0  0  0
  1 21  1  0  0  0  0
  2 18  1  0  0  0  0
  2  3  2  0  0  0  0
  3  4  1  0  0  0  0
  3 22  1  0  0  0  0
  4  5  1  0  0  0  0
  4  6  2  0  0  0  0
  5 23  1  0  0  0  0
  5 24  1  0  0  0  0
  5 25  1  0  0  0  0
  6  7  1  0  0  0  0
  6  9  1  0  0  0  0
  7  8  3  0  0  0  0
  9 10  1  0  0  0  0
  9 18  2  0  0  0  0
 10 11  1  0  0  0  0
 10 26  1  0  0  0  0
 11 16  1  0  0  0  0
 11 12  1  0  0  0  0
 11 27  1  0  0  0  0
 12 13  1  0  0  0  0
 12 28  1  0  0  0  0
 12 29  1  0  0  0  0
 13 17  1  0  0  0  0
 13 14  1  0  0  0  0
 13 30  1  0  0  0  0
 14 15  1  0  0  0  0
 14 31  1  0  0  0  0
 14 32  1  0  0  0  0
 15 16  1  0  0  0  0
 15 33  1  0  0  0  0
 15 34  1  0  0  0  0
 16 17  1  0  0  0  0
 16 35  1  0  0  0  0
M  END
> <s_m_source_file>
AV-unprocessed.smi

> <i_m_source_file_index>
897

> <i_lp_mmshare_version>
43012

> <i_f3d_flags>
0

> <s_epik_input>
W0NIM11jMVtjSF1jKFtDSDNdKWMoQyNOKWMobjEpW05IXVtDQEhdKFtDSDJdW0NAQEhdMjMpW0NAQEhdKE8zKVtDSDJdW0NIMl0y

> <s_epik_cmdline>
J2VwaWtfcHl0aG9uJywgJy1waCcsICc3LjAnLCAnLXRuJywgJzgnLCAnLW1hJywgJzIwMCcsICctbWV0YWxfYmluZGluZycsICctaW1hZScsICc8aW5maWxlLm1hZT4nLCAnLW9tYWUnLCAnPG91dGZpbGUubWFlPic=

> <r_lp_tautomer_probability>
1

> <r_epik_Ionization_Penalty>
0.000502654

> <r_epik_Ionization_Penalty_Charging>
0

> <r_epik_Ionization_Penalty_Neutral>
0.000502654

> <r_epik_State_Penalty>
-0

> <r_epik_Charging_Adjusted_Penalty>
0

> <i_epik_Tot_Q>
0

> <i_epik_Tot_abs_Q>
0

> <r_epik_Metal_State_Penalty>
-0

> <b_epik_Metal_Only>
0

> <s_lp_Force_Field>
OPLS_2005

> <r_lp_Energy>
43.9226

> <b_lp_Chiralities_Consistent>
1

> <s_lp_Variant>
AV-unprocessed.smi:897-2

> <Gold.Version>
5.8.1

> <Gold.Id.Protein>
6NUR|6NUR_protein|mol2

> <Gold.PLP.Fitness>
42.4046

> <Gold.PLP.PLP>
-41.5490

> <Gold.PLP.part.hbond>
-1.8632

> <Gold.PLP.part.metal>
0.0000

> <Gold.PLP.part.buried>
-4.1034

> <Gold.PLP.part.nonpolar>
-36.8684

> <Gold.PLP.part.repulsive>
0.5574

> <Gold.PLP.ligand.clash>
0.0000

> <Gold.PLP.ligand.torsion>
1.0772

> <Gold.PLP.Chemscore.Hbond>
1.0000

> <Gold.PLP.Chemscore.CHOScore>
0.0000

> <Gold.PLP.Chemscore.Metal>
0.0000

> <Gold.Chemscore.Hbonds>
donor molecule, donor type, donor heavy atom, donor atom, acceptor molecule, acceptor atom, score
      P1  H  7997  8010       L1     8  1.00

> <Gold.PLP.Chemscore.Internal.Correction>
0.0101

> <Gold.Rescore>
     Score         DG    S(hbond)    S(metal)    S(lipo)     H(rot)  DE(clash)    DE(int)     intcor
     17.37     -18.50       0.97        0.00     105.38       1.00       0.03       1.09       ----

> <Gold.Chemscore.Fitness>
17.3745

> <Gold.Chemscore.DG>
-18.5001

> <Gold.Chemscore.ZeroCoef>
-5.4800

> <Gold.Chemscore.Hbond>
0.9734

> <Gold.Chemscore.Metal>
0.0000

> <Gold.Chemscore.Lipo>
105.3751

> <Gold.Chemscore.Internal_Hbond>
0.0000

> <Gold.Chemscore.DEClash>
0.0329

> <Gold.Chemscore.DEInternal>
1.0927

> <Gold.Chemscore.Rot>
1.0000

> <Gold.Chemscore.Internal.Correction>
   9.000000E+99

> <Gold.Chemscore.Hbonds>
donor molecule, donor type, donor heavy atom, donor atom, acceptor molecule, acceptor atom, score
      P1  H  7997  8010       L1     8  0.92

> <Gold.Chemscore.Hbond.Weighted>
-3.2512

> <Gold.Chemscore.Metal.Weighted>
-0.0000

> <Gold.Chemscore.Lipo.Weighted>
-12.3289

> <Gold.Chemscore.Internal_Hbond.Weighted>
0.0000

> <Gold.Chemscore.DEClash.Weighted>
0.0329

> <Gold.Chemscore.DEInternal.Weighted>
1.0927

> <Gold.Chemscore.Rot.Weighted>
2.5600

> <Gold.Chemscore.Internal.Correction.Weighted>
   9.000000E+99

> <Gold.Protein.RotatedTorsions>
[ 6907 6896 6895 6894 ] final    9.03 input  -60.11 | X-H torsion
[ 7974 7965 7964 7962 ] final  -22.80 input  175.53 | X-H torsion
[ 8008 7997 7996 7995 ] final   81.47 input   59.86 | X-H torsion
[ 10167 10162 10161 10158 ] final  115.18 input  -65.29 | X-H torsion
[ 10718 10713 10712 10709 ] final  -32.60 input   66.30 | X-H torsion
[ 10763 10752 10751 10750 ] final -146.85 input  -60.55 | X-H torsion
[ 11005 11000 10999 10996 ] final -172.00 input  -57.11 | X-H torsion

> <Gold.Protein.ActiveResidues>
 VAL166  LYS551  ARG553  GLY616  TRP617  ASP618  TYR619  PRO620  LYS621  CYS622 
 ASP623  PHE694  ASN695  SER759  ASP760  ASP761  ALA762  ILE779  LEU786  VAL792 
 PHE793  MET794  SER795  GLU796  ALA797  LYS798  CYS799  TRP800  GLU811  SER814 

> <Gold.Protein.RotatedAtoms>
  151.7156  135.0904  160.0275 H   0  0  0  0  0  0  0  0  0  0  0  0  # atno 6907 bound_to 6896
  152.3634  133.6321  159.6040 H   0  0  0  0  0  0  0  0  0  0  0  0  # atno 6908 bound_to 6896
  150.7620  133.9303  159.3466 H   0  0  0  0  0  0  0  0  0  0  0  0  # atno 6909 bound_to 6896
  146.1654  140.4528  142.8554 H   0  0  0  0  0  0  0  0  0  0  0  0  # atno 7974 bound_to 7965
  155.8975  140.3435  155.6002 H   0  0  0  0  0  0  0  0  0  0  0  0  # atno 8008 bound_to 7997
  155.7538  140.0823  157.2207 H   0  0  0  0  0  0  0  0  0  0  0  0  # atno 8009 bound_to 7997
  154.4040  140.1548  156.2742 H   0  0  0  0  0  0  0  0  0  0  0  0  # atno 8010 bound_to 7997
  139.6335  144.7117  151.2383 H   0  0  0  0  0  0  0  0  0  0  0  0  # atno 10167 bound_to 10162
  156.3729  130.4342  149.7531 H   0  0  0  0  0  0  0  0  0  0  0  0  # atno 10718 bound_to 10713
  154.8315  135.3375  154.6727 H   0  0  0  0  0  0  0  0  0  0  0  0  # atno 10763 bound_to 10752
  153.7346  135.6950  153.4986 H   0  0  0  0  0  0  0  0  0  0  0  0  # atno 10764 bound_to 10752
  153.2288  135.4423  155.0523 H   0  0  0  0  0  0  0  0  0  0  0  0  # atno 10765 bound_to 10752
  140.5019  134.5886  157.4990 H   0  0  0  0  0  0  0  0  0  0  0  0  # atno 11005 bound_to 11000
  144.8085  140.6344  143.6431 LP  0  0  0  0  0  0  0  0  0  0  0  0  # atno 17320 bound_to 7965
  145.4480  139.1527  143.3934 LP  0  0  0  0  0  0  0  0  0  0  0  0  # atno 17321 bound_to 7965
  140.7452  143.6437  150.8311 LP  0  0  0  0  0  0  0  0  0  0  0  0  # atno 17342 bound_to 10162
  140.0066  143.5688  152.2855 LP  0  0  0  0  0  0  0  0  0  0  0  0  # atno 17343 bound_to 10162
  156.4651  130.7970  151.2989 LP  0  0  0  0  0  0  0  0  0  0  0  0  # atno 17370 bound_to 10713
  157.7485  131.0053  150.3110 LP  0  0  0  0  0  0  0  0  0  0  0  0  # atno 17371 bound_to 10713
  139.9709  134.7295  156.0044 LP  0  0  0  0  0  0  0  0  0  0  0  0  # atno 17394 bound_to 11000
  141.1431  133.6561  156.3788 LP  0  0  0  0  0  0  0  0  0  0  0  0  # atno 17395 bound_to 11000

$$$$
