AV-unprocessed.smi:252|AV-procd|sdf|1937|dock9
  -GOLD-   2262021 63D 1   1.00000     0.00000
 Structure written by MMmdl.
 56 59  0  0  0  0  0  0  0  0  1 V2000
  145.7195  132.5059  151.5183 C   0  0  0  0  0  0  0  0  0  0  0  0
  145.7742  133.8170  152.3180 C   0  0  0  0  0  0  0  0  0  0  0  0
  146.7639  133.7769  153.4868 C   0  0  0  0  0  0  0  0  0  0  0  0
  146.6734  132.9140  154.3612 O   0  0  0  0  0  0  0  0  0  0  0  0
  147.7068  134.7319  153.4912 N   0  0  0  0  0  0  0  0  0  0  0  0
  148.7432  134.8889  154.5067 C   0  0  1  0  0  0  0  0  0  0  0  0
  149.5930  133.6076  154.5864 C   0  0  0  0  0  0  0  0  0  0  0  0
  150.7450  133.7849  155.5880 C   0  0  0  0  0  0  0  0  0  0  0  0
  151.5843  135.0285  155.2525 C   0  0  0  0  0  0  0  0  0  0  0  0
  150.7335  136.2147  155.1494 N   0  0  0  0  0  0  0  0  0  0  0  0
  151.3304  137.4327  155.1927 C   0  0  0  0  0  0  0  0  0  0  0  0
  152.4096  137.6893  154.4058 N   0  0  0  0  0  0  0  0  0  0  0  0
  152.9924  138.8916  154.4311 C   0  0  0  0  0  0  0  0  0  0  0  0
  152.6657  139.9626  155.1566 N   0  0  0  0  0  0  0  0  0  0  0  0
  151.5887  139.7099  155.9540 C   0  0  0  0  0  0  0  0  0  0  0  0
  150.8713  138.4831  156.0369 C   0  0  0  0  0  0  0  0  0  0  0  0
  149.8494  138.5956  156.9724 N   0  0  0  0  0  0  0  0  0  0  0  0
  149.9486  139.8217  157.4071 C   0  0  0  0  0  0  0  0  0  0  0  0
  150.9594  140.5659  156.8415 N   0  0  0  0  0  0  0  0  0  0  0  0
  151.2886  141.9528  157.1342 C   0  0  0  0  0  0  0  0  0  0  0  0
  151.8090  142.1703  158.5795 C   0  0  1  0  0  0  0  0  0  0  0  0
  150.7611  141.8407  159.4756 O   0  0  0  0  0  0  0  0  0  0  0  0
  153.0131  141.3010  158.9321 C   0  0  0  0  0  0  0  0  0  0  0  0
  153.7363  142.1287  159.9829 C   0  0  0  0  0  0  0  0  0  0  0  0
  153.6043  143.4451  159.4769 O   0  0  0  0  0  0  0  0  0  0  0  0
  152.2967  143.6045  158.9318 C   0  0  1  0  0  0  0  0  0  0  0  0
  152.3977  144.6064  157.7711 C   0  0  0  0  0  0  0  0  0  0  0  0
  149.6356  136.1061  154.1897 C   0  0  0  0  0  0  0  0  0  0  0  0
  145.0352  132.5984  150.6748 H   0  0  0  0  0  0  0  0  0  0  0  0
  145.3695  131.6767  152.1345 H   0  0  0  0  0  0  0  0  0  0  0  0
  146.6998  132.2412  151.1201 H   0  0  0  0  0  0  0  0  0  0  0  0
  146.0473  134.6342  151.6488 H   0  0  0  0  0  0  0  0  0  0  0  0
  144.7842  134.0502  152.7103 H   0  0  0  0  0  0  0  0  0  0  0  0
  147.7059  135.4013  152.7353 H   0  0  0  0  0  0  0  0  0  0  0  0
  148.2659  135.0434  155.4766 H   0  0  0  0  0  0  0  0  0  0  0  0
  148.9731  132.7594  154.8797 H   0  0  0  0  0  0  0  0  0  0  0  0
  150.0023  133.3710  153.6032 H   0  0  0  0  0  0  0  0  0  0  0  0
  150.3400  133.8818  156.5960 H   0  0  0  0  0  0  0  0  0  0  0  0
  151.3783  132.8976  155.5922 H   0  0  0  0  0  0  0  0  0  0  0  0
  152.3407  135.1734  156.0251 H   0  0  0  0  0  0  0  0  0  0  0  0
  152.1102  134.8802  154.3083 H   0  0  0  0  0  0  0  0  0  0  0  0
  153.8409  139.0137  153.7741 H   0  0  0  0  0  0  0  0  0  0  0  0
  149.2789  140.2202  158.1551 H   0  0  0  0  0  0  0  0  0  0  0  0
  152.0364  142.2702  156.4070 H   0  0  0  0  0  0  0  0  0  0  0  0
  150.4021  142.5615  156.9519 H   0  0  0  0  0  0  0  0  0  0  0  0
  150.3788  142.6424  159.7980 H   0  0  0  0  0  0  0  0  0  0  0  0
  152.7507  140.3000  159.2777 H   0  0  0  0  0  0  0  0  0  0  0  0
  153.6645  141.1928  158.0639 H   0  0  0  0  0  0  0  0  0  0  0  0
  153.2434  142.0530  160.9534 H   0  0  0  0  0  0  0  0  0  0  0  0
  154.7819  141.8442  160.1003 H   0  0  0  0  0  0  0  0  0  0  0  0
  151.6657  144.0418  159.7080 H   0  0  0  0  0  0  0  0  0  0  0  0
  151.4240  144.7902  157.3171 H   0  0  0  0  0  0  0  0  0  0  0  0
  153.0768  144.2540  156.9946 H   0  0  0  0  0  0  0  0  0  0  0  0
  152.7777  145.5651  158.1244 H   0  0  0  0  0  0  0  0  0  0  0  0
  150.0611  136.0058  153.1902 H   0  0  0  0  0  0  0  0  0  0  0  0
  149.0294  137.0110  154.1767 H   0  0  0  0  0  0  0  0  0  0  0  0
  1  2  1  0  0  0  0
  1 29  1  0  0  0  0
  1 30  1  0  0  0  0
  1 31  1  0  0  0  0
  2  3  1  0  0  0  0
  2 32  1  0  0  0  0
  2 33  1  0  0  0  0
  3  4  2  0  0  0  0
  3  5  1  0  0  0  0
  5  6  1  0  0  0  0
  5 34  1  0  0  0  0
  6 28  1  0  0  0  0
  6  7  1  0  0  0  0
  6 35  1  0  0  0  0
  7  8  1  0  0  0  0
  7 36  1  0  0  0  0
  7 37  1  0  0  0  0
  8  9  1  0  0  0  0
  8 38  1  0  0  0  0
  8 39  1  0  0  0  0
  9 10  1  0  0  0  0
  9 40  1  0  0  0  0
  9 41  1  0  0  0  0
 10 11  1  0  0  0  0
 10 28  1  0  0  0  0
 11 16  1  0  0  0  0
 11 12  2  0  0  0  0
 12 13  1  0  0  0  0
 13 14  2  0  0  0  0
 13 42  1  0  0  0  0
 14 15  1  0  0  0  0
 15 19  1  0  0  0  0
 15 16  2  0  0  0  0
 16 17  1  0  0  0  0
 17 18  2  0  0  0  0
 18 19  1  0  0  0  0
 18 43  1  0  0  0  0
 19 20  1  0  0  0  0
 20 21  1  0  0  0  0
 20 44  1  0  0  0  0
 20 45  1  0  0  0  0
 21 26  1  0  0  0  0
 21 22  1  0  0  0  0
 21 23  1  0  0  0  0
 22 46  1  0  0  0  0
 23 24  1  0  0  0  0
 23 47  1  0  0  0  0
 23 48  1  0  0  0  0
 24 25  1  0  0  0  0
 24 49  1  0  0  0  0
 24 50  1  0  0  0  0
 25 26  1  0  0  0  0
 26 27  1  0  0  0  0
 26 51  1  0  0  0  0
 27 52  1  0  0  0  0
 27 53  1  0  0  0  0
 27 54  1  0  0  0  0
 28 55  1  0  0  0  0
 28 56  1  0  0  0  0
M  END
> <s_m_source_file>
AV-unprocessed.smi

> <i_m_source_file_index>
252

> <i_lp_mmshare_version>
43012

> <i_f3d_flags>
0

> <s_epik_input>
W0NIM11bQ0gyXUMoPU8pW05IXVtDQEBIXTFbQ0gyXVtDSDJdW0NIMl1OKFtDSDJdMSljKG5bY0hdbjIpYyhjMjMpbltjSF1uM1tDSDJdW0NAQF00KFtPSF0pW0NIMl1bQ0gyXU9bQ0BIXTRbQ0gzXQ==

> <s_epik_cmdline>
J2VwaWtfcHl0aG9uJywgJy1waCcsICc3LjAnLCAnLXRuJywgJzgnLCAnLW1hJywgJzIwMCcsICctbWV0YWxfYmluZGluZycsICctaW1hZScsICc8aW5maWxlLm1hZT4nLCAnLW9tYWUnLCAnPG91dGZpbGUubWFlPic=

> <r_lp_tautomer_probability>
1

> <r_epik_Ionization_Penalty>
0.00182575

> <r_epik_Ionization_Penalty_Charging>
0

> <r_epik_Ionization_Penalty_Neutral>
0.00182575

> <r_epik_State_Penalty>
0.00104524

> <r_epik_Charging_Adjusted_Penalty>
0.00104524

> <i_epik_Tot_Q>
0

> <i_epik_Tot_abs_Q>
0

> <r_epik_Metal_State_Penalty>
-0

> <b_epik_Metal_Only>
0

> <s_lp_Force_Field>
OPLS_2005

> <r_lp_Energy>
35.3243

> <b_lp_Chiralities_Consistent>
1

> <s_lp_Variant>
AV-unprocessed.smi:252-2

> <Gold.Version>
5.8.1

> <Gold.Id.Protein>
6NUR|6NUR_protein|mol2

> <Gold.PLP.Fitness>
47.7529

> <Gold.PLP.PLP>
-40.4360

> <Gold.PLP.part.hbond>
-4.0000

> <Gold.PLP.part.metal>
0.0000

> <Gold.PLP.part.buried>
-3.3663

> <Gold.PLP.part.nonpolar>
-33.3541

> <Gold.PLP.part.repulsive>
0.1939

> <Gold.PLP.ligand.clash>
0.0000

> <Gold.PLP.ligand.torsion>
0.5564

> <Gold.PLP.Chemscore.Hbond>
2.6720

> <Gold.PLP.Chemscore.CHOScore>
0.0000

> <Gold.PLP.Chemscore.Metal>
0.0000

> <Gold.Chemscore.Hbonds>
donor molecule, donor type, donor heavy atom, donor atom, acceptor molecule, acceptor atom, score
      L1  H     5    34       P1  7948  0.67
      P1  H  7989  7998       L1    14  0.24
      P1  H  7997  8009       L1    14  0.95
      P1  H 10752 10763       L1    12  0.11

> <Gold.PLP.Chemscore.Internal.Correction>
0.4137

> <Gold.Rescore>
     Score         DG    S(hbond)    S(metal)    S(lipo)     H(rot)  DE(clash)    DE(int)     intcor
     14.53     -17.94       2.33        0.00      99.05       2.70       2.57       0.85       ----

> <Gold.Chemscore.Fitness>
14.5257

> <Gold.Chemscore.DG>
-17.9447

> <Gold.Chemscore.ZeroCoef>
-5.4800

> <Gold.Chemscore.Hbond>
2.3349

> <Gold.Chemscore.Metal>
0.0000

> <Gold.Chemscore.Lipo>
99.0476

> <Gold.Chemscore.Internal_Hbond>
0.0000

> <Gold.Chemscore.DEClash>
2.5679

> <Gold.Chemscore.DEInternal>
0.8511

> <Gold.Chemscore.Rot>
2.7041

> <Gold.Chemscore.Internal.Correction>
   9.000000E+99

> <Gold.Chemscore.Hbonds>
donor molecule, donor type, donor heavy atom, donor atom, acceptor molecule, acceptor atom, score
      L1  H     5    34       P1  7948  0.68
      P1  H  7997  8009       L1    14  0.17

> <Gold.Chemscore.Hbond.Weighted>
-7.7986

> <Gold.Chemscore.Metal.Weighted>
-0.0000

> <Gold.Chemscore.Lipo.Weighted>
-11.5886

> <Gold.Chemscore.Internal_Hbond.Weighted>
0.0000

> <Gold.Chemscore.DEClash.Weighted>
2.5679

> <Gold.Chemscore.DEInternal.Weighted>
0.8511

> <Gold.Chemscore.Rot.Weighted>
6.9225

> <Gold.Chemscore.Internal.Correction.Weighted>
   9.000000E+99

> <Gold.Protein.RotatedTorsions>
[ 6907 6896 6895 6894 ] final   -3.67 input  -60.11 | X-H torsion
[ 7974 7965 7964 7962 ] final -113.78 input  175.53 | X-H torsion
[ 8008 7997 7996 7995 ] final -156.69 input   59.86 | X-H torsion
[ 10167 10162 10161 10158 ] final -138.25 input  -65.29 | X-H torsion
[ 10718 10713 10712 10709 ] final   98.72 input   66.30 | X-H torsion
[ 10763 10752 10751 10750 ] final   65.67 input  -60.55 | X-H torsion
[ 11005 11000 10999 10996 ] final  -51.68 input  -57.11 | X-H torsion

> <Gold.Protein.ActiveResidues>
 VAL166  LYS551  ARG553  GLY616  TRP617  ASP618  TYR619  PRO620  LYS621  CYS622 
 ASP623  PHE694  ASN695  SER759  ASP760  ASP761  ALA762  ILE779  LEU786  VAL792 
 PHE793  MET794  SER795  GLU796  ALA797  LYS798  CYS799  TRP800  GLU811  SER814 

> <Gold.Protein.RotatedAtoms>
  151.5100  135.1064  159.9851 H   0  0  0  0  0  0  0  0  0  0  0  0  # atno 6907 bound_to 6896
  152.4665  133.7931  159.6923 H   0  0  0  0  0  0  0  0  0  0  0  0  # atno 6908 bound_to 6896
  150.8652  133.7521  159.3004 H   0  0  0  0  0  0  0  0  0  0  0  0  # atno 6909 bound_to 6896
  145.1279  140.8707  143.3775 H   0  0  0  0  0  0  0  0  0  0  0  0  # atno 7974 bound_to 7965
  155.7210  140.0790  157.2330 H   0  0  0  0  0  0  0  0  0  0  0  0  # atno 8008 bound_to 7997
  154.4045  140.1612  156.2457 H   0  0  0  0  0  0  0  0  0  0  0  0  # atno 8009 bound_to 7997
  155.9196  140.3398  155.6165 H   0  0  0  0  0  0  0  0  0  0  0  0  # atno 8010 bound_to 7997
  139.8496  143.7215  152.2658 H   0  0  0  0  0  0  0  0  0  0  0  0  # atno 10167 bound_to 10162
  157.6890  131.0648  150.4839 H   0  0  0  0  0  0  0  0  0  0  0  0  # atno 10718 bound_to 10713
  153.0106  135.5348  154.6704 H   0  0  0  0  0  0  0  0  0  0  0  0  # atno 10763 bound_to 10752
  154.5890  135.2857  155.0657 H   0  0  0  0  0  0  0  0  0  0  0  0  # atno 10764 bound_to 10752
  154.1757  135.6524  153.5073 H   0  0  0  0  0  0  0  0  0  0  0  0  # atno 10765 bound_to 10752
  141.0884  133.6637  156.3912 H   0  0  0  0  0  0  0  0  0  0  0  0  # atno 11005 bound_to 11000
  145.0668  139.3062  143.5852 LP  0  0  0  0  0  0  0  0  0  0  0  0  # atno 17320 bound_to 7965
  146.3516  140.0128  142.8665 LP  0  0  0  0  0  0  0  0  0  0  0  0  # atno 17321 bound_to 7965
  139.7478  144.7542  151.0553 LP  0  0  0  0  0  0  0  0  0  0  0  0  # atno 17342 bound_to 10162
  140.7789  143.4896  150.9911 LP  0  0  0  0  0  0  0  0  0  0  0  0  # atno 17343 bound_to 10162
  156.5169  130.4152  149.6271 LP  0  0  0  0  0  0  0  0  0  0  0  0  # atno 17370 bound_to 10713
  156.3189  130.7270  151.2178 LP  0  0  0  0  0  0  0  0  0  0  0  0  # atno 17371 bound_to 10713
  140.5310  134.6212  157.5350 LP  0  0  0  0  0  0  0  0  0  0  0  0  # atno 17394 bound_to 11000
  139.9705  134.7300  156.0050 LP  0  0  0  0  0  0  0  0  0  0  0  0  # atno 17395 bound_to 11000

$$$$
