AV-unprocessed.smi:3056|AV-procd|sdf|11656|dock2
  -GOLD-   2272017 53D 1   1.00000     0.00000
 Structure written by MMmdl.
 47 48  0  0  0  0  0  0  0  0  1 V2000
  143.2738  132.3741  150.7031 C   0  0  0  0  0  0  0  0  0  0  0  0
  144.5738  132.8626  151.2740 C   0  0  0  0  0  0  0  0  0  0  0  0
  145.6028  133.5900  150.6125 C   0  0  0  0  0  0  0  0  0  0  0  0
  146.6301  133.8598  151.4010 N   0  0  0  0  0  0  0  0  0  0  0  0
  146.2912  133.3336  152.5979 N   0  0  0  0  0  0  0  0  0  0  0  0
  147.2328  133.4147  153.7113 C   0  0  1  0  0  0  0  0  0  0  0  0
  148.5893  132.7745  153.3474 C   0  0  0  0  0  0  0  0  0  0  0  0
  147.3396  134.8626  154.2623 C   0  0  1  0  0  0  0  0  0  0  0  0
  146.0524  135.3131  154.9820 C   0  0  0  0  0  0  0  0  0  0  0  0
  148.5081  134.9585  155.1338 N   0  0  0  0  0  0  0  0  0  0  0  0
  148.8910  136.3314  155.4864 C   0  0  0  0  0  0  0  0  0  0  0  0
  150.3701  136.5865  155.1723 C   0  0  0  0  0  0  0  0  0  0  0  0
  151.1860  135.7345  155.5242 O   0  0  0  0  0  0  0  0  0  0  0  0
  150.7390  137.7288  154.5417 N   0  0  0  0  0  0  0  0  0  0  0  0
  152.1369  138.1147  154.3392 C   0  0  0  0  0  0  0  0  0  0  0  0
  152.4214  139.3408  155.2269 C   0  0  0  0  0  0  0  0  0  0  0  0
  151.5136  140.3951  154.9068 O   0  0  0  0  0  0  0  0  0  0  0  0
  150.1409  140.0289  155.0499 C   0  0  1  0  0  0  0  0  0  0  0  0
  149.2727  141.2421  154.7018 C   0  0  0  0  0  0  0  0  0  0  0  0
  149.8519  138.8221  154.1350 C   0  0  0  0  0  0  0  0  0  0  0  0
  145.0575  132.7134  152.5422 C   0  0  0  0  0  0  0  0  0  0  0  0
  143.3087  132.3074  149.6157 H   0  0  0  0  0  0  0  0  0  0  0  0
  142.4483  133.0387  150.9583 H   0  0  0  0  0  0  0  0  0  0  0  0
  143.0167  131.3828  151.0766 H   0  0  0  0  0  0  0  0  0  0  0  0
  145.6361  133.9219  149.5851 H   0  0  0  0  0  0  0  0  0  0  0  0
  146.8155  132.7998  154.5111 H   0  0  0  0  0  0  0  0  0  0  0  0
  149.2336  132.6814  154.2215 H   0  0  0  0  0  0  0  0  0  0  0  0
  149.1301  133.3572  152.6015 H   0  0  0  0  0  0  0  0  0  0  0  0
  148.4503  131.7707  152.9453 H   0  0  0  0  0  0  0  0  0  0  0  0
  147.4995  135.5249  153.4098 H   0  0  0  0  0  0  0  0  0  0  0  0
  145.1722  135.0966  154.3760 H   0  0  0  0  0  0  0  0  0  0  0  0
  146.0473  136.3867  155.1687 H   0  0  0  0  0  0  0  0  0  0  0  0
  145.9274  134.8092  155.9410 H   0  0  0  0  0  0  0  0  0  0  0  0
  149.2739  134.4867  154.6738 H   0  0  0  0  0  0  0  0  0  0  0  0
  148.2804  137.0348  154.9181 H   0  0  0  0  0  0  0  0  0  0  0  0
  148.7082  136.5354  156.5409 H   0  0  0  0  0  0  0  0  0  0  0  0
  152.8384  137.3139  154.5761 H   0  0  0  0  0  0  0  0  0  0  0  0
  152.3015  138.3611  153.2893 H   0  0  0  0  0  0  0  0  0  0  0  0
  152.3306  139.0827  156.2833 H   0  0  0  0  0  0  0  0  0  0  0  0
  153.4413  139.6924  155.0705 H   0  0  0  0  0  0  0  0  0  0  0  0
  149.9540  139.7572  156.0904 H   0  0  0  0  0  0  0  0  0  0  0  0
  148.2134  141.0096  154.8151 H   0  0  0  0  0  0  0  0  0  0  0  0
  149.4380  141.5644  153.6734 H   0  0  0  0  0  0  0  0  0  0  0  0
  149.4994  142.0841  155.3562 H   0  0  0  0  0  0  0  0  0  0  0  0
  150.0526  139.0816  153.0944 H   0  0  0  0  0  0  0  0  0  0  0  0
  148.7950  138.5641  154.1709 H   0  0  0  0  0  0  0  0  0  0  0  0
  144.6290  132.2154  153.3995 H   0  0  0  0  0  0  0  0  0  0  0  0
  1  2  1  0  0  0  0
  1 22  1  0  0  0  0
  1 23  1  0  0  0  0
  1 24  1  0  0  0  0
  2 21  2  0  0  0  0
  2  3  1  0  0  0  0
  3  4  2  0  0  0  0
  3 25  1  0  0  0  0
  4  5  1  0  0  0  0
  5  6  1  0  0  0  0
  5 21  1  0  0  0  0
  6  7  1  0  0  0  0
  6  8  1  0  0  0  0
  6 26  1  0  0  0  0
  7 27  1  0  0  0  0
  7 28  1  0  0  0  0
  7 29  1  0  0  0  0
  8  9  1  0  0  0  0
  8 10  1  0  0  0  0
  8 30  1  0  0  0  0
  9 31  1  0  0  0  0
  9 32  1  0  0  0  0
  9 33  1  0  0  0  0
 10 11  1  0  0  0  0
 10 34  1  0  0  0  0
 11 12  1  0  0  0  0
 11 35  1  0  0  0  0
 11 36  1  0  0  0  0
 12 13  2  0  0  0  0
 12 14  1  0  0  0  0
 14 20  1  0  0  0  0
 14 15  1  0  0  0  0
 15 16  1  0  0  0  0
 15 37  1  0  0  0  0
 15 38  1  0  0  0  0
 16 17  1  0  0  0  0
 16 39  1  0  0  0  0
 16 40  1  0  0  0  0
 17 18  1  0  0  0  0
 18 19  1  0  0  0  0
 18 20  1  0  0  0  0
 18 41  1  0  0  0  0
 19 42  1  0  0  0  0
 19 43  1  0  0  0  0
 19 44  1  0  0  0  0
 20 45  1  0  0  0  0
 20 46  1  0  0  0  0
 21 47  1  0  0  0  0
M  END
> <s_m_source_file>
AV-unprocessed.smi

> <i_m_source_file_index>
3056

> <i_lp_mmshare_version>
43012

> <i_f3d_flags>
0

> <s_epik_input>
W0NIM11jMVtjSF1ubihbY0hdMSlbQ0BIXShbQ0gzXSlbQ0BIXShbQ0gzXSlbTkhdW0NIMl1DKD1PKU4yW0NIMl1bQ0gyXU9bQ0BASF0oW0NIM10pW0NIMl0y

> <s_epik_cmdline>
J2VwaWtfcHl0aG9uJywgJy1waCcsICc3LjAnLCAnLXRuJywgJzgnLCAnLW1hJywgJzIwMCcsICctbWV0YWxfYmluZGluZycsICctaW1hZScsICc8aW5maWxlLm1hZT4nLCAnLW9tYWUnLCAnPG91dGZpbGUubWFlPic=

> <r_lp_tautomer_probability>
1

> <r_epik_Ionization_Penalty>
0.667689

> <r_epik_Ionization_Penalty_Charging>
0

> <r_epik_Ionization_Penalty_Neutral>
0.667689

> <r_epik_State_Penalty>
0.684601

> <r_epik_Charging_Adjusted_Penalty>
0.684601

> <i_epik_Tot_Q>
0

> <i_epik_Tot_abs_Q>
0

> <r_epik_Metal_State_Penalty>
0.681448

> <b_epik_Metal_Only>
0

> <s_lp_Force_Field>
OPLS_2005

> <r_lp_Energy>
30.7947

> <b_lp_Chiralities_Consistent>
1

> <s_lp_Variant>
AV-unprocessed.smi:3056-12

> <Gold.Version>
5.8.1

> <Gold.Id.Protein>
6NUR|6NUR_protein|mol2

> <Gold.PLP.Fitness>
45.5553

> <Gold.PLP.PLP>
-36.7353

> <Gold.PLP.part.hbond>
-1.7345

> <Gold.PLP.part.metal>
0.0000

> <Gold.PLP.part.buried>
-1.2711

> <Gold.PLP.part.nonpolar>
-32.8659

> <Gold.PLP.part.repulsive>
0.3550

> <Gold.PLP.ligand.clash>
0.0000

> <Gold.PLP.ligand.torsion>
0.9451

> <Gold.PLP.Chemscore.Hbond>
1.9440

> <Gold.PLP.Chemscore.CHOScore>
1.5578

> <Gold.PLP.Chemscore.Metal>
0.0000

> <Gold.Chemscore.Hbonds>
donor molecule, donor type, donor heavy atom, donor atom, acceptor molecule, acceptor atom, score
      P1  H  7989  7998       L1    17  0.84
      P1  H 10752 10764       L1    13  1.00
      L1  C     3    25       P1  7921  1.00
      L1  C    21    47       P1 10957  0.64

> <Gold.PLP.Chemscore.Internal.Correction>
0.2047

> <Gold.Rescore>
     Score         DG    S(hbond)    S(metal)    S(lipo)     H(rot)  DE(clash)    DE(int)     intcor
     15.36     -16.19       1.56        0.00      83.64       1.68       0.12       0.72       ----

> <Gold.Chemscore.Fitness>
15.3552

> <Gold.Chemscore.DG>
-16.1895

> <Gold.Chemscore.ZeroCoef>
-5.4800

> <Gold.Chemscore.Hbond>
1.5635

> <Gold.Chemscore.Metal>
0.0000

> <Gold.Chemscore.Lipo>
83.6437

> <Gold.Chemscore.Internal_Hbond>
0.0000

> <Gold.Chemscore.DEClash>
0.1166

> <Gold.Chemscore.DEInternal>
0.7177

> <Gold.Chemscore.Rot>
1.6793

> <Gold.Chemscore.Internal.Correction>
   9.000000E+99

> <Gold.Chemscore.Hbonds>
donor molecule, donor type, donor heavy atom, donor atom, acceptor molecule, acceptor atom, score
      P1  H  7989  7998       L1    17  0.37
      P1  H 10752 10764       L1    13  0.98

> <Gold.Chemscore.Hbond.Weighted>
-5.2222

> <Gold.Chemscore.Metal.Weighted>
-0.0000

> <Gold.Chemscore.Lipo.Weighted>
-9.7863

> <Gold.Chemscore.Internal_Hbond.Weighted>
0.0000

> <Gold.Chemscore.DEClash.Weighted>
0.1166

> <Gold.Chemscore.DEInternal.Weighted>
0.7177

> <Gold.Chemscore.Rot.Weighted>
4.2990

> <Gold.Chemscore.Internal.Correction.Weighted>
   9.000000E+99

> <Gold.Protein.RotatedTorsions>
[ 6907 6896 6895 6894 ] final  -54.69 input  -60.11 | X-H torsion
[ 7974 7965 7964 7962 ] final  109.33 input  175.53 | X-H torsion
[ 8008 7997 7996 7995 ] final   60.68 input   59.86 | X-H torsion
[ 10167 10162 10161 10158 ] final   85.52 input  -65.29 | X-H torsion
[ 10718 10713 10712 10709 ] final  -87.27 input   66.30 | X-H torsion
[ 10763 10752 10751 10750 ] final  -38.73 input  -60.55 | X-H torsion
[ 11005 11000 10999 10996 ] final  134.78 input  -57.11 | X-H torsion

> <Gold.Protein.ActiveResidues>
 VAL166  LYS551  ARG553  GLY616  TRP617  ASP618  TYR619  PRO620  LYS621  CYS622 
 ASP623  PHE694  ASN695  SER759  ASP760  ASP761  ALA762  ILE779  LEU786  VAL792 
 PHE793  MET794  SER795  GLU796  ALA797  LYS798  CYS799  TRP800  GLU811  SER814 

> <Gold.Protein.RotatedAtoms>
  150.8316  134.7572  159.6858 H   0  0  0  0  0  0  0  0  0  0  0  0  # atno 6907 bound_to 6896
  152.4420  134.5569  159.9892 H   0  0  0  0  0  0  0  0  0  0  0  0  # atno 6908 bound_to 6896
  151.5728  133.3350  159.3029 H   0  0  0  0  0  0  0  0  0  0  0  0  # atno 6909 bound_to 6896
  145.2691  139.2673  143.3976 H   0  0  0  0  0  0  0  0  0  0  0  0  # atno 7974 bound_to 7965
  155.5861  140.3492  155.4553 H   0  0  0  0  0  0  0  0  0  0  0  0  # atno 8008 bound_to 7997
  156.0336  140.1280  157.0256 H   0  0  0  0  0  0  0  0  0  0  0  0  # atno 8009 bound_to 7997
  154.4362  140.1038  156.6121 H   0  0  0  0  0  0  0  0  0  0  0  0  # atno 8010 bound_to 7997
  139.8969  144.6353  150.8679 H   0  0  0  0  0  0  0  0  0  0  0  0  # atno 10167 bound_to 10162
  155.9986  130.4794  150.4841 H   0  0  0  0  0  0  0  0  0  0  0  0  # atno 10718 bound_to 10713
  153.9176  135.6785  153.4749 H   0  0  0  0  0  0  0  0  0  0  0  0  # atno 10763 bound_to 10752
  153.1045  135.4812  154.8924 H   0  0  0  0  0  0  0  0  0  0  0  0  # atno 10764 bound_to 10752
  154.7494  135.3181  154.8540 H   0  0  0  0  0  0  0  0  0  0  0  0  # atno 10765 bound_to 10752
  139.9937  134.9505  156.9915 H   0  0  0  0  0  0  0  0  0  0  0  0  # atno 11005 bound_to 11000
  146.3252  140.3129  142.8628 LP  0  0  0  0  0  0  0  0  0  0  0  0  # atno 17320 bound_to 7965
  144.9350  140.8017  143.5665 LP  0  0  0  0  0  0  0  0  0  0  0  0  # atno 17321 bound_to 7965
  140.7715  143.3467  151.2097 LP  0  0  0  0  0  0  0  0  0  0  0  0  # atno 17342 bound_to 10162
  139.7060  143.9455  152.2927 LP  0  0  0  0  0  0  0  0  0  0  0  0  # atno 17343 bound_to 10162
  157.2843  131.0613  151.2177 LP  0  0  0  0  0  0  0  0  0  0  0  0  # atno 17370 bound_to 10713
  157.3212  130.6938  149.6270 LP  0  0  0  0  0  0  0  0  0  0  0  0  # atno 17371 bound_to 10713
  140.4859  134.1242  155.7224 LP  0  0  0  0  0  0  0  0  0  0  0  0  # atno 17394 bound_to 11000
  141.1587  133.8834  157.1908 LP  0  0  0  0  0  0  0  0  0  0  0  0  # atno 17395 bound_to 11000

$$$$
