AV-unprocessed.smi:2577|AV-procd|sdf|10121|dock2
  -GOLD-   2272014143D 1   1.00000     0.00000
 Structure written by MMmdl.
 27 28  0  0  0  0  0  0  0  0  1 V2000
  147.3005  140.6146  153.4705 C   0  0  0  0  0  0  0  0  0  0  0  0
  148.1972  141.5869  154.2492 C   0  0  0  0  0  0  0  0  0  0  0  0
  149.4152  140.9081  154.9008 C   0  0  1  0  0  0  0  0  0  0  0  0
  150.1244  140.1818  153.9148 O   0  0  0  0  0  0  0  0  0  0  0  0
  150.3595  141.9307  155.5625 C   0  0  0  0  0  0  0  0  0  0  0  0
  151.2227  141.3267  156.5627 N   0  0  0  0  0  0  0  0  0  0  0  0
  151.8125  140.1263  156.2993 N   0  0  0  0  0  0  0  0  0  0  0  0
  152.5368  139.7848  157.3229 N   0  0  0  0  0  0  0  0  0  0  0  0
  152.4233  140.7802  158.2792 C   0  0  0  0  0  0  0  0  0  0  0  0
  152.9929  140.9217  159.5641 C   0  0  0  0  0  0  0  0  0  0  0  0
  152.7091  142.0606  160.3496 C   0  0  0  0  0  0  0  0  0  0  0  0
  153.4260  142.1977  161.9158 Cl  0  0  0  0  0  0  0  0  0  0  0  0
  151.8498  143.0724  159.8570 C   0  0  0  0  0  0  0  0  0  0  0  0
  151.4930  144.4725  160.8042 Cl  0  0  0  0  0  0  0  0  0  0  0  0
  151.2743  142.9441  158.5771 C   0  0  0  0  0  0  0  0  0  0  0  0
  151.5694  141.8029  157.8122 C   0  0  0  0  0  0  0  0  0  0  0  0
  146.4365  141.1341  153.0555 H   0  0  0  0  0  0  0  0  0  0  0  0
  146.9297  139.8180  154.1160 H   0  0  0  0  0  0  0  0  0  0  0  0
  147.8366  140.1530  152.6410 H   0  0  0  0  0  0  0  0  0  0  0  0
  148.5265  142.3915  153.5902 H   0  0  0  0  0  0  0  0  0  0  0  0
  147.5945  142.0593  155.0257 H   0  0  0  0  0  0  0  0  0  0  0  0
  149.0690  140.2028  155.6577 H   0  0  0  0  0  0  0  0  0  0  0  0
  149.6254  140.1989  153.1124 H   0  0  0  0  0  0  0  0  0  0  0  0
  150.9845  142.4147  154.8108 H   0  0  0  0  0  0  0  0  0  0  0  0
  149.7822  142.7231  156.0411 H   0  0  0  0  0  0  0  0  0  0  0  0
  153.6499  140.1538  159.9455 H   0  0  0  0  0  0  0  0  0  0  0  0
  150.6196  143.7098  158.1880 H   0  0  0  0  0  0  0  0  0  0  0  0
  1  2  1  0  0  0  0
  1 17  1  0  0  0  0
  1 18  1  0  0  0  0
  1 19  1  0  0  0  0
  2  3  1  0  0  0  0
  2 20  1  0  0  0  0
  2 21  1  0  0  0  0
  3  4  1  0  0  0  0
  3  5  1  0  0  0  0
  3 22  1  0  0  0  0
  4 23  1  0  0  0  0
  5  6  1  0  0  0  0
  5 24  1  0  0  0  0
  5 25  1  0  0  0  0
  6 16  1  0  0  0  0
  6  7  1  0  0  0  0
  7  8  2  0  0  0  0
  8  9  1  0  0  0  0
  9 16  2  0  0  0  0
  9 10  1  0  0  0  0
 10 11  2  0  0  0  0
 10 26  1  0  0  0  0
 11 12  1  0  0  0  0
 11 13  1  0  0  0  0
 13 14  1  0  0  0  0
 13 15  2  0  0  0  0
 15 16  1  0  0  0  0
 15 27  1  0  0  0  0
M  END
> <s_m_source_file>
AV-unprocessed.smi

> <i_m_source_file_index>
2577

> <i_lp_mmshare_version>
43012

> <i_f3d_flags>
0

> <s_epik_input>
W0NIM11bQ0gyXVtDQEhdKFtPSF0pW0NIMl1uKG5uMSljKGMxMilbY0hdYyhDbCljKENsKVtjSF0y

> <s_epik_cmdline>
J2VwaWtfcHl0aG9uJywgJy1waCcsICc3LjAnLCAnLXRuJywgJzgnLCAnLW1hJywgJzIwMCcsICctbWV0YWxfYmluZGluZycsICctaW1hZScsICc8aW5maWxlLm1hZT4nLCAnLW9tYWUnLCAnPG91dGZpbGUubWFlPic=

> <r_lp_tautomer_probability>
1

> <r_epik_Ionization_Penalty>
1.50913e-07

> <r_epik_Ionization_Penalty_Charging>
0

> <r_epik_Ionization_Penalty_Neutral>
1.50913e-07

> <r_epik_State_Penalty>
-0

> <r_epik_Charging_Adjusted_Penalty>
0

> <i_epik_Tot_Q>
0

> <i_epik_Tot_abs_Q>
0

> <r_epik_Metal_State_Penalty>
-0

> <b_epik_Metal_Only>
0

> <s_lp_Force_Field>
OPLS_2005

> <r_lp_Energy>
6.98618

> <b_lp_Chiralities_Consistent>
1

> <s_lp_Variant>
AV-unprocessed.smi:2577-2

> <Gold.Version>
5.8.1

> <Gold.Id.Protein>
6NUR|6NUR_protein|mol2

> <Gold.PLP.Fitness>
46.5880

> <Gold.PLP.PLP>
-38.6280

> <Gold.PLP.part.hbond>
-3.0000

> <Gold.PLP.part.metal>
0.0000

> <Gold.PLP.part.buried>
-4.3584

> <Gold.PLP.part.nonpolar>
-30.9118

> <Gold.PLP.part.repulsive>
0.0000

> <Gold.PLP.ligand.clash>
0.0000

> <Gold.PLP.ligand.torsion>
0.4389

> <Gold.PLP.Chemscore.Hbond>
2.9440

> <Gold.PLP.Chemscore.CHOScore>
0.0000

> <Gold.PLP.Chemscore.Metal>
0.0000

> <Gold.Chemscore.Hbonds>
donor molecule, donor type, donor heavy atom, donor atom, acceptor molecule, acceptor atom, score
      L1  H     4    23       P1  7957  0.96
      P1  H  7989  7998       L1     4  0.85
      P1  H  7997  8009       L1     8  1.00

> <Gold.PLP.Chemscore.Internal.Correction>
0.0058

> <Gold.Rescore>
     Score         DG    S(hbond)    S(metal)    S(lipo)     H(rot)  DE(clash)    DE(int)     intcor
     19.22     -19.89       2.17        0.00     100.38       1.79       0.08       0.59       ----

> <Gold.Chemscore.Fitness>
19.2155

> <Gold.Chemscore.DG>
-19.8919

> <Gold.Chemscore.ZeroCoef>
-5.4800

> <Gold.Chemscore.Hbond>
2.1723

> <Gold.Chemscore.Metal>
0.0000

> <Gold.Chemscore.Lipo>
100.3838

> <Gold.Chemscore.Internal_Hbond>
0.0000

> <Gold.Chemscore.DEClash>
0.0849

> <Gold.Chemscore.DEInternal>
0.5915

> <Gold.Chemscore.Rot>
1.7924

> <Gold.Chemscore.Internal.Correction>
   9.000000E+99

> <Gold.Chemscore.Hbonds>
donor molecule, donor type, donor heavy atom, donor atom, acceptor molecule, acceptor atom, score
      L1  H     4    23       P1  7957  0.91
      P1  H  7989  7998       L1     4  0.30
      P1  H  7997  8009       L1     8  0.12

> <Gold.Chemscore.Hbond.Weighted>
-7.2554

> <Gold.Chemscore.Metal.Weighted>
-0.0000

> <Gold.Chemscore.Lipo.Weighted>
-11.7449

> <Gold.Chemscore.Internal_Hbond.Weighted>
0.0000

> <Gold.Chemscore.DEClash.Weighted>
0.0849

> <Gold.Chemscore.DEInternal.Weighted>
0.5915

> <Gold.Chemscore.Rot.Weighted>
4.5884

> <Gold.Chemscore.Internal.Correction.Weighted>
   9.000000E+99

> <Gold.Protein.RotatedTorsions>
[ 6907 6896 6895 6894 ] final  161.96 input  -60.11 | X-H torsion
[ 7974 7965 7964 7962 ] final  121.38 input  175.53 | X-H torsion
[ 8008 7997 7996 7995 ] final  172.64 input   59.86 | X-H torsion
[ 10167 10162 10161 10158 ] final -166.60 input  -65.29 | X-H torsion
[ 10718 10713 10712 10709 ] final -127.55 input   66.30 | X-H torsion
[ 10763 10752 10751 10750 ] final    2.74 input  -60.55 | X-H torsion
[ 11005 11000 10999 10996 ] final -150.58 input  -57.11 | X-H torsion

> <Gold.Protein.ActiveResidues>
 VAL166  LYS551  ARG553  GLY616  TRP617  ASP618  TYR619  PRO620  LYS621  CYS622 
 ASP623  PHE694  ASN695  SER759  ASP760  ASP761  ALA762  ILE779  LEU786  VAL792 
 PHE793  MET794  SER795  GLU796  ALA797  LYS798  CYS799  TRP800  GLU811  SER814 

> <Gold.Protein.RotatedAtoms>
  151.9476  133.3656  159.3987 H   0  0  0  0  0  0  0  0  0  0  0  0  # atno 6907 bound_to 6896
  150.6986  134.4373  159.5285 H   0  0  0  0  0  0  0  0  0  0  0  0  # atno 6908 bound_to 6896
  152.2041  134.8561  160.0555 H   0  0  0  0  0  0  0  0  0  0  0  0  # atno 6909 bound_to 6896
  145.1200  139.3395  143.4719 H   0  0  0  0  0  0  0  0  0  0  0  0  # atno 7974 bound_to 7965
  156.1154  140.1480  156.9279 H   0  0  0  0  0  0  0  0  0  0  0  0  # atno 8008 bound_to 7997
  154.4797  140.0883  156.7390 H   0  0  0  0  0  0  0  0  0  0  0  0  # atno 8009 bound_to 7997
  155.4522  140.3435  155.4304 H   0  0  0  0  0  0  0  0  0  0  0  0  # atno 8010 bound_to 7997
  139.6104  144.0826  152.1836 H   0  0  0  0  0  0  0  0  0  0  0  0  # atno 10167 bound_to 10162
  156.1867  130.6768  151.0374 H   0  0  0  0  0  0  0  0  0  0  0  0  # atno 10718 bound_to 10713
  153.2918  135.6949  153.7285 H   0  0  0  0  0  0  0  0  0  0  0  0  # atno 10763 bound_to 10752
  153.6233  135.3423  155.3019 H   0  0  0  0  0  0  0  0  0  0  0  0  # atno 10764 bound_to 10752
  154.8526  135.4391  154.2003 H   0  0  0  0  0  0  0  0  0  0  0  0  # atno 10765 bound_to 10752
  140.7387  134.3538  157.5152 H   0  0  0  0  0  0  0  0  0  0  0  0  # atno 11005 bound_to 11000
  146.3521  140.1156  142.8602 LP  0  0  0  0  0  0  0  0  0  0  0  0  # atno 17320 bound_to 7965
  145.0750  140.9182  143.4859 LP  0  0  0  0  0  0  0  0  0  0  0  0  # atno 17321 bound_to 7965
  140.0444  144.5982  150.7386 LP  0  0  0  0  0  0  0  0  0  0  0  0  # atno 17342 bound_to 10162
  140.7315  143.2695  151.3935 LP  0  0  0  0  0  0  0  0  0  0  0  0  # atno 17343 bound_to 10162
  157.6903  131.0812  150.7125 LP  0  0  0  0  0  0  0  0  0  0  0  0  # atno 17370 bound_to 10713
  156.7182  130.4672  149.5529 LP  0  0  0  0  0  0  0  0  0  0  0  0  # atno 17371 bound_to 10713
  139.8810  134.9066  156.2927 LP  0  0  0  0  0  0  0  0  0  0  0  0  # atno 17394 bound_to 11000
  140.9856  133.7240  156.0737 LP  0  0  0  0  0  0  0  0  0  0  0  0  # atno 17395 bound_to 11000

$$$$
