AV-unprocessed.smi:1128|AV-procd|sdf|4842|dock4
  -GOLD-   22720 3413D 1   1.00000     0.00000
 Structure written by MMmdl.
 38 39  0  0  0  0  0  0  0  0  1 V2000
  151.6602  142.1115  158.0105 O   0  0  0  0  0  0  0  0  0  0  0  0
  151.0202  142.8710  157.2842 C   0  0  0  0  0  0  0  0  0  0  0  0
  151.0312  144.2047  157.4232 N   0  0  0  0  0  0  0  0  0  0  0  0
  151.7760  144.9506  158.4339 C   0  0  0  0  0  0  0  0  0  0  0  0
  151.8338  144.2066  159.7836 C   0  0  2  0  0  0  0  0  0  0  0  0
  151.6390  145.1496  160.9950 C   0  0  0  0  0  0  0  0  0  0  0  0
  151.9744  144.4834  162.3175 C   0  0  0  0  0  0  0  0  0  0  0  0
  152.6572  143.3305  162.4137 C   0  0  0  0  0  0  0  0  0  0  0  0
  153.1782  142.5682  161.2099 C   0  0  0  0  0  0  0  0  0  0  0  0
  153.1494  143.4170  159.9252 C   0  0  0  0  0  0  0  0  0  0  0  0
  150.2208  142.5065  156.2644 N   0  0  0  0  0  0  0  0  0  0  0  0
  149.9097  141.2265  155.7723 C   0  0  0  0  0  0  0  0  0  0  0  0
  150.3783  140.0543  156.2766 C   0  0  0  0  0  0  0  0  0  0  0  0
  150.0053  138.7676  155.7128 C   0  0  0  0  0  0  0  0  0  0  0  0
  150.5806  137.4672  156.2526 C   0  0  0  0  0  0  0  0  0  0  0  0
  151.4321  137.6913  157.2544 F   0  0  0  0  0  0  0  0  0  0  0  0
  149.6123  136.6663  156.6976 F   0  0  0  0  0  0  0  0  0  0  0  0
  151.2360  136.8267  155.2858 F   0  0  0  0  0  0  0  0  0  0  0  0
  149.1891  138.7938  154.6433 C   0  0  0  0  0  0  0  0  0  0  0  0
  148.7000  139.9927  154.1209 N   0  0  0  0  0  0  0  0  0  0  0  0
  149.0035  141.2152  154.6111 C   0  0  0  0  0  0  0  0  0  0  0  0
  148.5320  142.2258  154.0907 O   0  0  0  0  0  0  0  0  0  0  0  0
  148.0832  139.9283  153.3239 H   0  0  0  0  0  0  0  0  0  0  0  0
  150.4738  144.7497  156.7818 H   0  0  0  0  0  0  0  0  0  0  0  0
  152.7868  145.0912  158.0502 H   0  0  0  0  0  0  0  0  0  0  0  0
  151.3648  145.9525  158.5696 H   0  0  0  0  0  0  0  0  0  0  0  0
  151.0204  143.4788  159.7940 H   0  0  0  0  0  0  0  0  0  0  0  0
  152.2696  146.0339  160.8963 H   0  0  0  0  0  0  0  0  0  0  0  0
  150.6071  145.4995  161.0361 H   0  0  0  0  0  0  0  0  0  0  0  0
  151.6433  144.9871  163.2138 H   0  0  0  0  0  0  0  0  0  0  0  0
  152.8493  142.8988  163.3850 H   0  0  0  0  0  0  0  0  0  0  0  0
  154.1959  142.2315  161.4090 H   0  0  0  0  0  0  0  0  0  0  0  0
  152.5663  141.6743  161.0855 H   0  0  0  0  0  0  0  0  0  0  0  0
  153.3013  142.7693  159.0611 H   0  0  0  0  0  0  0  0  0  0  0  0
  153.9868  144.1161  159.9341 H   0  0  0  0  0  0  0  0  0  0  0  0
  149.7504  143.2586  155.7821 H   0  0  0  0  0  0  0  0  0  0  0  0
  151.0491  140.0341  157.1185 H   0  0  0  0  0  0  0  0  0  0  0  0
  148.8540  137.9158  154.1110 H   0  0  0  0  0  0  0  0  0  0  0  0
  1  2  2  0  0  0  0
  2  3  1  0  0  0  0
  2 11  1  0  0  0  0
  3  4  1  0  0  0  0
  3 24  1  0  0  0  0
  4  5  1  0  0  0  0
  4 25  1  0  0  0  0
  4 26  1  0  0  0  0
  5 10  1  0  0  0  0
  5  6  1  0  0  0  0
  5 27  1  0  0  0  0
  6  7  1  0  0  0  0
  6 28  1  0  0  0  0
  6 29  1  0  0  0  0
  7  8  2  0  0  0  0
  7 30  1  0  0  0  0
  8  9  1  0  0  0  0
  8 31  1  0  0  0  0
  9 10  1  0  0  0  0
  9 32  1  0  0  0  0
  9 33  1  0  0  0  0
 10 34  1  0  0  0  0
 10 35  1  0  0  0  0
 11 12  1  0  0  0  0
 11 36  1  0  0  0  0
 12 21  1  0  0  0  0
 12 13  2  0  0  0  0
 13 14  1  0  0  0  0
 13 37  1  0  0  0  0
 14 15  1  0  0  0  0
 14 19  2  0  0  0  0
 15 16  1  0  0  0  0
 15 17  1  0  0  0  0
 15 18  1  0  0  0  0
 19 20  1  0  0  0  0
 19 38  1  0  0  0  0
 20 23  1  0  0  0  0
 20 21  1  0  0  0  0
 21 22  2  0  0  0  0
M  END
> <s_m_source_file>
AV-unprocessed.smi

> <i_m_source_file_index>
1128

> <i_lp_mmshare_version>
43012

> <i_f3d_flags>
0

> <s_epik_input>
Tz1jMVtuSF1bY0hdYyhDKEYpKEYpRilbY0hdYzFbTkhdQyg9TylbTkhdW0NIMl1bQ0BASF0yW0NIMl1bQ0hdPVtDSF1bQ0gyXVtDSDJdMg==

> <s_epik_cmdline>
J2VwaWtfcHl0aG9uJywgJy1waCcsICc3LjAnLCAnLXRuJywgJzgnLCAnLW1hJywgJzIwMCcsICctbWV0YWxfYmluZGluZycsICctaW1hZScsICc8aW5maWxlLm1hZT4nLCAnLW9tYWUnLCAnPG91dGZpbGUubWFlPic=

> <r_lp_tautomer_probability>
1

> <r_epik_Ionization_Penalty>
0.00381734

> <r_epik_Ionization_Penalty_Charging>
0.00379608

> <r_epik_Ionization_Penalty_Neutral>
2.12611e-05

> <r_epik_State_Penalty>
-0

> <r_epik_Charging_Adjusted_Penalty>
0.00379608

> <i_epik_Tot_Q>
0

> <i_epik_Tot_abs_Q>
0

> <r_epik_Metal_State_Penalty>
0.371155

> <b_epik_Metal_Only>
0

> <s_lp_Force_Field>
OPLS_2005

> <r_lp_Energy>
20.2087

> <b_lp_Chiralities_Consistent>
1

> <s_lp_Variant>
AV-unprocessed.smi:1128-1

> <Gold.Version>
5.8.1

> <Gold.Id.Protein>
6NUR|6NUR_protein|mol2

> <Gold.PLP.Fitness>
56.9817

> <Gold.PLP.PLP>
-48.4793

> <Gold.PLP.part.hbond>
-4.0000

> <Gold.PLP.part.metal>
0.0000

> <Gold.PLP.part.buried>
-5.8429

> <Gold.PLP.part.nonpolar>
-41.4662

> <Gold.PLP.part.repulsive>
0.4370

> <Gold.PLP.ligand.clash>
0.0000

> <Gold.PLP.ligand.torsion>
0.7387

> <Gold.PLP.Chemscore.Hbond>
2.3148

> <Gold.PLP.Chemscore.CHOScore>
1.0000

> <Gold.PLP.Chemscore.Metal>
0.0000

> <Gold.Chemscore.Hbonds>
donor molecule, donor type, donor heavy atom, donor atom, acceptor molecule, acceptor atom, score
      L1  H     3    24       P1  8028  0.91
      L1  H    11    36       P1  8028  1.00
      P1  H  8011  8017       L1    22  0.20
      L1  C    19    38       P1  7948  0.34

> <Gold.PLP.Chemscore.Internal.Correction>
0.0354

> <Gold.Rescore>
     Score         DG    S(hbond)    S(metal)    S(lipo)     H(rot)  DE(clash)    DE(int)     intcor
     18.50     -22.01       2.39        0.00     101.68       1.30       0.05       3.46       ----

> <Gold.Chemscore.Fitness>
18.5030

> <Gold.Chemscore.DG>
-22.0094

> <Gold.Chemscore.ZeroCoef>
-5.4800

> <Gold.Chemscore.Hbond>
2.3866

> <Gold.Chemscore.Metal>
0.0000

> <Gold.Chemscore.Lipo>
101.6754

> <Gold.Chemscore.Internal_Hbond>
0.0000

> <Gold.Chemscore.DEClash>
0.0473

> <Gold.Chemscore.DEInternal>
3.4591

> <Gold.Chemscore.Rot>
1.3038

> <Gold.Chemscore.Internal.Correction>
   9.000000E+99

> <Gold.Chemscore.Hbonds>
donor molecule, donor type, donor heavy atom, donor atom, acceptor molecule, acceptor atom, score
      L1  H     3    24       P1  8028  0.70
      L1  H    11    36       P1  8028  0.98
      P1  H  8011  8017       L1    22  0.07

> <Gold.Chemscore.Hbond.Weighted>
-7.9711

> <Gold.Chemscore.Metal.Weighted>
-0.0000

> <Gold.Chemscore.Lipo.Weighted>
-11.8960

> <Gold.Chemscore.Internal_Hbond.Weighted>
0.0000

> <Gold.Chemscore.DEClash.Weighted>
0.0473

> <Gold.Chemscore.DEInternal.Weighted>
3.4591

> <Gold.Chemscore.Rot.Weighted>
3.3377

> <Gold.Chemscore.Internal.Correction.Weighted>
   9.000000E+99

> <Gold.Protein.RotatedTorsions>
[ 6907 6896 6895 6894 ] final   28.72 input  -60.11 | X-H torsion
[ 7974 7965 7964 7962 ] final   50.76 input  175.53 | X-H torsion
[ 8008 7997 7996 7995 ] final   80.27 input   59.86 | X-H torsion
[ 10167 10162 10161 10158 ] final   31.78 input  -65.29 | X-H torsion
[ 10718 10713 10712 10709 ] final  -85.81 input   66.30 | X-H torsion
[ 10763 10752 10751 10750 ] final  120.46 input  -60.55 | X-H torsion
[ 11005 11000 10999 10996 ] final   91.44 input  -57.11 | X-H torsion

> <Gold.Protein.ActiveResidues>
 VAL166  LYS551  ARG553  GLY616  TRP617  ASP618  TYR619  PRO620  LYS621  CYS622 
 ASP623  PHE694  ASN695  SER759  ASP760  ASP761  ALA762  ILE779  LEU786  VAL792 
 PHE793  MET794  SER795  GLU796  ALA797  LYS798  CYS799  TRP800  GLU811  SER814 

> <Gold.Protein.RotatedAtoms>
  152.0211  134.9822  160.0570 H   0  0  0  0  0  0  0  0  0  0  0  0  # atno 6907 bound_to 6896
  152.1336  133.4417  159.4741 H   0  0  0  0  0  0  0  0  0  0  0  0  # atno 6908 bound_to 6896
  150.6858  134.2309  159.4477 H   0  0  0  0  0  0  0  0  0  0  0  0  # atno 6909 bound_to 6896
  145.9980  139.4409  143.0032 H   0  0  0  0  0  0  0  0  0  0  0  0  # atno 7974 bound_to 7965
  155.8812  140.3444  155.5889 H   0  0  0  0  0  0  0  0  0  0  0  0  # atno 8008 bound_to 7997
  155.7718  140.0846  157.2123 H   0  0  0  0  0  0  0  0  0  0  0  0  # atno 8009 bound_to 7997
  154.4025  140.1517  156.2938 H   0  0  0  0  0  0  0  0  0  0  0  0  # atno 8010 bound_to 7997
  140.4558  144.0980  150.6201 H   0  0  0  0  0  0  0  0  0  0  0  0  # atno 10167 bound_to 10162
  155.9994  130.4743  150.4618 H   0  0  0  0  0  0  0  0  0  0  0  0  # atno 10718 bound_to 10713
  153.5989  135.3452  155.2938 H   0  0  0  0  0  0  0  0  0  0  0  0  # atno 10763 bound_to 10752
  154.8639  135.4223  154.2434 H   0  0  0  0  0  0  0  0  0  0  0  0  # atno 10764 bound_to 10752
  153.3258  135.7041  153.7062 H   0  0  0  0  0  0  0  0  0  0  0  0  # atno 10765 bound_to 10752
  139.8839  134.8674  156.3429 H   0  0  0  0  0  0  0  0  0  0  0  0  # atno 11005 bound_to 11000
  145.7531  140.9965  143.1240 LP  0  0  0  0  0  0  0  0  0  0  0  0  # atno 17320 bound_to 7965
  144.6910  139.9238  143.7469 LP  0  0  0  0  0  0  0  0  0  0  0  0  # atno 17321 bound_to 7965
  140.4153  143.2637  151.9783 LP  0  0  0  0  0  0  0  0  0  0  0  0  # atno 17342 bound_to 10162
  139.4801  144.5879  151.7821 LP  0  0  0  0  0  0  0  0  0  0  0  0  # atno 17343 bound_to 10162
  157.2642  131.0573  151.2301 LP  0  0  0  0  0  0  0  0  0  0  0  0  # atno 17370 bound_to 10713
  157.3405  130.7031  149.6378 LP  0  0  0  0  0  0  0  0  0  0  0  0  # atno 17371 bound_to 10713
  140.9646  133.7366  156.0449 LP  0  0  0  0  0  0  0  0  0  0  0  0  # atno 17394 bound_to 11000
  140.7946  134.3578  157.5455 LP  0  0  0  0  0  0  0  0  0  0  0  0  # atno 17395 bound_to 11000

$$$$
