AV-unprocessed.smi:2655|AV-procd|sdf|10300|dock7
  -GOLD-   2272014313D 1   1.00000     0.00000
 Structure written by MMmdl.
 34 35  0  0  0  0  0  0  0  0  1 V2000
  144.2696  134.9357  150.7794 C   0  0  0  0  0  0  0  0  0  0  0  0
  143.9684  135.8479  151.9340 C   0  0  0  0  0  0  0  0  0  0  0  0
  142.8239  135.6924  152.5922 N   0  0  0  0  0  0  0  0  0  0  0  0
  142.8601  136.6341  153.5535 N   0  0  0  0  0  0  0  0  0  0  0  0
  144.0154  137.3697  153.4977 C   0  0  0  0  0  0  0  0  0  0  0  0
  144.2515  138.3693  154.3890 O   0  0  0  0  0  0  0  0  0  0  0  0
  144.7736  136.9055  152.4624 C   0  0  0  0  0  0  0  0  0  0  0  0
  146.1235  137.3798  151.9966 C   0  0  0  0  0  0  0  0  0  0  0  0
  146.4804  138.7441  152.6086 C   0  0  0  0  0  0  0  0  0  0  0  0
  147.9234  138.9281  152.7123 N   0  0  0  0  0  0  0  0  0  0  0  0
  148.6306  138.8228  153.8469 C   0  0  0  0  0  0  0  0  0  0  0  0
  148.1261  138.5598  154.9390 O   0  0  0  0  0  0  0  0  0  0  0  0
  149.9391  139.0422  153.6306 N   0  0  0  0  0  0  0  0  0  0  0  0
  150.9875  139.0240  154.5858 C   0  0  0  0  0  0  0  0  0  0  0  0
  151.3833  137.8120  155.2119 C   0  0  0  0  0  0  0  0  0  0  0  0
  152.3971  138.2090  156.0379 C   0  0  0  0  0  0  0  0  0  0  0  0
  153.2771  137.4749  156.9905 C   0  0  0  0  0  0  0  0  0  0  0  0
  152.6007  139.5498  155.9276 O   0  0  0  0  0  0  0  0  0  0  0  0
  151.6939  140.0666  154.9946 N   0  0  0  0  0  0  0  0  0  0  0  0
  145.0828  135.3232  150.1660 H   0  0  0  0  0  0  0  0  0  0  0  0
  143.3999  134.8149  150.1330 H   0  0  0  0  0  0  0  0  0  0  0  0
  144.5636  133.9466  151.1314 H   0  0  0  0  0  0  0  0  0  0  0  0
  142.1103  136.7547  154.2194 H   0  0  0  0  0  0  0  0  0  0  0  0
  146.1446  137.4514  150.9085 H   0  0  0  0  0  0  0  0  0  0  0  0
  146.8947  136.6538  152.2557 H   0  0  0  0  0  0  0  0  0  0  0  0
  146.0422  139.5527  152.0208 H   0  0  0  0  0  0  0  0  0  0  0  0
  146.0574  138.8247  153.6103 H   0  0  0  0  0  0  0  0  0  0  0  0
  148.4166  139.1487  151.8594 H   0  0  0  0  0  0  0  0  0  0  0  0
  150.2143  139.2489  152.6819 H   0  0  0  0  0  0  0  0  0  0  0  0
  150.9923  136.8144  155.0782 H   0  0  0  0  0  0  0  0  0  0  0  0
  153.1433  136.3972  156.8946 H   0  0  0  0  0  0  0  0  0  0  0  0
  153.0493  137.7545  158.0192 H   0  0  0  0  0  0  0  0  0  0  0  0
  154.3263  137.7026  156.8018 H   0  0  0  0  0  0  0  0  0  0  0  0
  143.9581  139.1790  153.9998 H   0  0  0  0  0  0  0  0  0  0  0  0
  1 20  1  0  0  0  0
  1 21  1  0  0  0  0
  1 22  1  0  0  0  0
  1  2  1  0  0  0  0
  2  7  1  0  0  0  0
  2  3  2  0  0  0  0
  3  4  1  0  0  0  0
  4 23  1  0  0  0  0
  4  5  1  0  0  0  0
  5  7  2  0  0  0  0
  5  6  1  0  0  0  0
  6 34  1  0  0  0  0
  7  8  1  0  0  0  0
  8  9  1  0  0  0  0
  8 24  1  0  0  0  0
  8 25  1  0  0  0  0
  9 10  1  0  0  0  0
  9 26  1  0  0  0  0
  9 27  1  0  0  0  0
 10 11  1  0  0  0  0
 10 28  1  0  0  0  0
 11 12  2  0  0  0  0
 11 13  1  0  0  0  0
 13 14  1  0  0  0  0
 13 29  1  0  0  0  0
 14 19  2  0  0  0  0
 14 15  1  0  0  0  0
 15 16  2  0  0  0  0
 15 30  1  0  0  0  0
 16 17  1  0  0  0  0
 16 18  1  0  0  0  0
 17 31  1  0  0  0  0
 17 32  1  0  0  0  0
 17 33  1  0  0  0  0
 18 19  1  0  0  0  0
M  END
> <s_m_source_file>
AV-unprocessed.smi

> <i_m_source_file_index>
2655

> <i_lp_mmshare_version>
43012

> <i_f3d_flags>
0

> <s_epik_input>
W0NIM11DMT1OW05IXUMoPU8pW0NASF0xW0NIMl1bQ0gyXVtOSF1DKD1PKVtOSF1jMltjSF1jKFtDSDNdKW9uMg==

> <s_epik_cmdline>
J2VwaWtfcHl0aG9uJywgJy1waCcsICc3LjAnLCAnLXRuJywgJzgnLCAnLW1hJywgJzIwMCcsICctbWV0YWxfYmluZGluZycsICctaW1hZScsICc8aW5maWxlLm1hZT4nLCAnLW9tYWUnLCAnPG91dGZpbGUubWFlPic=

> <r_lp_tautomer_probability>
0.0227396

> <r_epik_Ionization_Penalty>
3.51829

> <r_epik_Ionization_Penalty_Charging>
0

> <r_epik_Ionization_Penalty_Neutral>
3.51829

> <r_epik_State_Penalty>
1.61027

> <r_epik_Charging_Adjusted_Penalty>
1.61027

> <i_epik_Tot_Q>
0

> <i_epik_Tot_abs_Q>
0

> <r_epik_Metal_State_Penalty>
3.01397

> <b_epik_Metal_Only>
0

> <s_lp_Force_Field>
OPLS_2005

> <r_lp_Energy>
-1.25166

> <b_lp_Chiralities_Consistent>
1

> <s_lp_Variant>
AV-unprocessed.smi:2655-3

> <Gold.Version>
5.8.1

> <Gold.Id.Protein>
6NUR|6NUR_protein|mol2

> <Gold.PLP.Fitness>
35.3076

> <Gold.PLP.PLP>
-27.6149

> <Gold.PLP.part.hbond>
-5.9792

> <Gold.PLP.part.metal>
0.0000

> <Gold.PLP.part.buried>
-2.1426

> <Gold.PLP.part.nonpolar>
-20.7294

> <Gold.PLP.part.repulsive>
0.5090

> <Gold.PLP.ligand.clash>
4.0075

> <Gold.PLP.ligand.torsion>
1.0825

> <Gold.PLP.Chemscore.Hbond>
4.6176

> <Gold.PLP.Chemscore.CHOScore>
0.0000

> <Gold.PLP.Chemscore.Metal>
0.0000

> <Gold.Chemscore.Hbonds>
donor molecule, donor type, donor heavy atom, donor atom, acceptor molecule, acceptor atom, score
      L1  H     6    34       P1 10175  1.00
      L1  H    10    28       P1  7957  0.96
      L1  H    13    29       P1  7957  0.86
      P1  H  7989  7998       L1    19  0.74
      P1  H  7997  8009       L1    18  1.00

> <Gold.PLP.Chemscore.Internal.Correction>
0.0122

> <Gold.Rescore>
     Score         DG    S(hbond)    S(metal)    S(lipo)     H(rot)  DE(clash)    DE(int)     intcor
     14.77     -17.14       3.78        0.00      47.01       2.53       0.07       2.30       ----

> <Gold.Chemscore.Fitness>
14.7741

> <Gold.Chemscore.DG>
-17.1378

> <Gold.Chemscore.ZeroCoef>
-5.4800

> <Gold.Chemscore.Hbond>
3.7841

> <Gold.Chemscore.Metal>
0.0000

> <Gold.Chemscore.Lipo>
47.0121

> <Gold.Chemscore.Internal_Hbond>
0.0000

> <Gold.Chemscore.DEClash>
0.0670

> <Gold.Chemscore.DEInternal>
2.2966

> <Gold.Chemscore.Rot>
2.5318

> <Gold.Chemscore.Internal.Correction>
   9.000000E+99

> <Gold.Chemscore.Hbonds>
donor molecule, donor type, donor heavy atom, donor atom, acceptor molecule, acceptor atom, score
      L1  H     6    34       P1 10175  0.94
      L1  H    10    28       P1  7957  0.89
      L1  H    13    29       P1  7957  0.63
      P1  H  7989  7998       L1    19  0.09
      P1  H  7997  8009       L1    18  0.93

> <Gold.Chemscore.Hbond.Weighted>
-12.6388

> <Gold.Chemscore.Metal.Weighted>
-0.0000

> <Gold.Chemscore.Lipo.Weighted>
-5.5004

> <Gold.Chemscore.Internal_Hbond.Weighted>
0.0000

> <Gold.Chemscore.DEClash.Weighted>
0.0670

> <Gold.Chemscore.DEInternal.Weighted>
2.2966

> <Gold.Chemscore.Rot.Weighted>
6.4815

> <Gold.Chemscore.Internal.Correction.Weighted>
   9.000000E+99

> <Gold.Protein.RotatedTorsions>
[ 6907 6896 6895 6894 ] final  -34.56 input  -60.11 | X-H torsion
[ 7974 7965 7964 7962 ] final -101.79 input  175.53 | X-H torsion
[ 8008 7997 7996 7995 ] final -159.08 input   59.86 | X-H torsion
[ 10167 10162 10161 10158 ] final -155.95 input  -65.29 | X-H torsion
[ 10718 10713 10712 10709 ] final  165.56 input   66.30 | X-H torsion
[ 10763 10752 10751 10750 ] final   61.34 input  -60.55 | X-H torsion
[ 11005 11000 10999 10996 ] final   99.25 input  -57.11 | X-H torsion

> <Gold.Protein.ActiveResidues>
 VAL166  LYS551  ARG553  GLY616  TRP617  ASP618  TYR619  PRO620  LYS621  CYS622 
 ASP623  PHE694  ASN695  SER759  ASP760  ASP761  ALA762  ILE779  LEU786  VAL792 
 PHE793  MET794  SER795  GLU796  ALA797  LYS798  CYS799  TRP800  GLU811  SER814 

> <Gold.Protein.RotatedAtoms>
  151.0510  134.9673  159.8211 H   0  0  0  0  0  0  0  0  0  0  0  0  # atno 6907 bound_to 6896
  152.5380  134.2537  159.8918 H   0  0  0  0  0  0  0  0  0  0  0  0  # atno 6908 bound_to 6896
  151.2553  133.4286  159.2647 H   0  0  0  0  0  0  0  0  0  0  0  0  # atno 6909 bound_to 6896
  145.2771  140.9316  143.2953 H   0  0  0  0  0  0  0  0  0  0  0  0  # atno 7974 bound_to 7965
  155.7572  140.0834  157.2173 H   0  0  0  0  0  0  0  0  0  0  0  0  # atno 8008 bound_to 7997
  154.4007  140.1549  156.2847 H   0  0  0  0  0  0  0  0  0  0  0  0  # atno 8009 bound_to 7997
  155.8874  140.3417  155.5934 H   0  0  0  0  0  0  0  0  0  0  0  0  # atno 8010 bound_to 7997
  139.6890  143.9453  152.2375 H   0  0  0  0  0  0  0  0  0  0  0  0  # atno 10167 bound_to 10162
  157.0783  131.0385  151.2585 H   0  0  0  0  0  0  0  0  0  0  0  0  # atno 10718 bound_to 10713
  152.9947  135.5504  154.6018 H   0  0  0  0  0  0  0  0  0  0  0  0  # atno 10763 bound_to 10752
  154.5358  135.2816  155.1142 H   0  0  0  0  0  0  0  0  0  0  0  0  # atno 10764 bound_to 10752
  154.2439  135.6411  153.5269 H   0  0  0  0  0  0  0  0  0  0  0  0  # atno 10765 bound_to 10752
  139.8771  134.9087  156.4578 H   0  0  0  0  0  0  0  0  0  0  0  0  # atno 11005 bound_to 11000
  144.9285  139.4327  143.6507 LP  0  0  0  0  0  0  0  0  0  0  0  0  # atno 17320 bound_to 7965
  146.3228  139.8183  142.8932 LP  0  0  0  0  0  0  0  0  0  0  0  0  # atno 17321 bound_to 7965
  139.9263  144.6768  150.8408 LP  0  0  0  0  0  0  0  0  0  0  0  0  # atno 17342 bound_to 10162
  140.7677  143.3339  151.2350 LP  0  0  0  0  0  0  0  0  0  0  0  0  # atno 17343 bound_to 10162
  157.4821  130.7771  149.7424 LP  0  0  0  0  0  0  0  0  0  0  0  0  # atno 17370 bound_to 10713
  155.9930  130.3927  150.2916 LP  0  0  0  0  0  0  0  0  0  0  0  0  # atno 17371 bound_to 10713
  140.8886  133.7865  155.9546 LP  0  0  0  0  0  0  0  0  0  0  0  0  # atno 17394 bound_to 11000
  140.8778  134.2648  157.5159 LP  0  0  0  0  0  0  0  0  0  0  0  0  # atno 17395 bound_to 11000

$$$$
