AV-unprocessed.smi:1801|AV-procd|sdf|7268|dock6
  -GOLD-   22720 8523D 1   1.00000     0.00000
 Structure written by MMmdl.
 38 39  0  0  0  0  0  0  0  0  2 V2000
  148.3605  131.0794  154.1341 C   0  0  0  0  0  0  0  0  0  0  0  0
  148.3607  132.5795  153.7926 C   0  0  1  0  0  0  0  0  0  0  0  0
  149.7094  133.2422  154.1601 C   0  0  0  0  0  0  0  0  0  0  0  0
  149.6989  134.6847  153.9401 N   0  0  0  0  0  0  0  0  0  0  0  0
  150.4377  135.5660  154.6297 C   0  0  0  0  0  0  0  0  0  0  0  0
  151.2066  135.2397  155.5346 O   0  0  0  0  0  0  0  0  0  0  0  0
  150.2271  136.8209  154.2010 N   0  0  0  0  0  0  0  0  0  0  0  0
  150.8313  138.0147  154.6692 C   0  0  0  0  0  0  0  0  0  0  0  0
  150.1860  139.1685  154.4616 N   0  0  0  0  0  0  0  0  0  0  0  0
  150.8879  140.2558  154.9674 N   0  0  0  0  0  0  0  0  0  0  0  0
  152.0366  139.8788  155.5371 C   0  0  0  0  0  0  0  0  0  0  0  0
  152.3766  138.1575  155.5126 S   0  0  0  0  0  0  0  0  0  0  0  0
  148.0102  132.7905  152.3041 C   0  0  0  0  0  0  0  0  0  0  0  0
  146.5570  132.6652  152.0355 N   0  3  0  0  0  0  0  0  0  0  0  0
  146.1438  133.1386  150.7002 C   0  0  0  0  0  0  0  0  0  0  0  0
  144.7998  132.4640  150.4482 C   0  0  0  0  0  0  0  0  0  0  0  0
  144.9849  131.0864  151.0786 C   0  0  0  0  0  0  0  0  0  0  0  0
  145.9871  131.3084  152.2201 C   0  0  0  0  0  0  0  0  0  0  0  0
  149.1281  130.5451  153.5731 H   0  0  0  0  0  0  0  0  0  0  0  0
  147.3988  130.6235  153.8976 H   0  0  0  0  0  0  0  0  0  0  0  0
  148.5444  130.9086  155.1950 H   0  0  0  0  0  0  0  0  0  0  0  0
  147.5739  133.0381  154.3923 H   0  0  0  0  0  0  0  0  0  0  0  0
  149.9438  133.0572  155.2088 H   0  0  0  0  0  0  0  0  0  0  0  0
  150.5285  132.8061  153.5862 H   0  0  0  0  0  0  0  0  0  0  0  0
  149.0909  135.0335  153.2130 H   0  0  0  0  0  0  0  0  0  0  0  0
  149.5627  136.9380  153.4500 H   0  0  0  0  0  0  0  0  0  0  0  0
  152.6888  140.6203  155.9742 H   0  0  0  0  0  0  0  0  0  0  0  0
  148.3437  133.7817  151.9930 H   0  0  0  0  0  0  0  0  0  0  0  0
  148.5471  132.0737  151.6807 H   0  0  0  0  0  0  0  0  0  0  0  0
  146.0829  134.2266  150.6585 H   0  0  0  0  0  0  0  0  0  0  0  0
  146.8663  132.8095  149.9512 H   0  0  0  0  0  0  0  0  0  0  0  0
  144.0089  133.0074  150.9673 H   0  0  0  0  0  0  0  0  0  0  0  0
  144.5393  132.4164  149.3904 H   0  0  0  0  0  0  0  0  0  0  0  0
  144.0443  130.6556  151.4231 H   0  0  0  0  0  0  0  0  0  0  0  0
  145.4125  130.4023  150.3442 H   0  0  0  0  0  0  0  0  0  0  0  0
  146.7580  130.5366  152.1986 H   0  0  0  0  0  0  0  0  0  0  0  0
  145.4976  131.2600  153.1935 H   0  0  0  0  0  0  0  0  0  0  0  0
  146.0791  133.2607  152.6968 H   0  0  0  0  0  0  0  0  0  0  0  0
  1  2  1  0  0  0  0
  1 19  1  0  0  0  0
  1 20  1  0  0  0  0
  1 21  1  0  0  0  0
  2  3  1  0  0  0  0
  2 13  1  0  0  0  0
  2 22  1  0  0  0  0
  3  4  1  0  0  0  0
  3 23  1  0  0  0  0
  3 24  1  0  0  0  0
  4  5  1  0  0  0  0
  4 25  1  0  0  0  0
  5  6  2  0  0  0  0
  5  7  1  0  0  0  0
  7  8  1  0  0  0  0
  7 26  1  0  0  0  0
  8 12  1  0  0  0  0
  8  9  2  0  0  0  0
  9 10  1  0  0  0  0
 10 11  2  0  0  0  0
 11 12  1  0  0  0  0
 11 27  1  0  0  0  0
 13 14  1  0  0  0  0
 13 28  1  0  0  0  0
 13 29  1  0  0  0  0
 14 18  1  0  0  0  0
 14 15  1  0  0  0  0
 14 38  1  0  0  0  0
 15 16  1  0  0  0  0
 15 30  1  0  0  0  0
 15 31  1  0  0  0  0
 16 17  1  0  0  0  0
 16 32  1  0  0  0  0
 16 33  1  0  0  0  0
 17 18  1  0  0  0  0
 17 34  1  0  0  0  0
 17 35  1  0  0  0  0
 18 36  1  0  0  0  0
 18 37  1  0  0  0  0
M  CHG  1  14   1
M  END
> <s_m_source_file>
AV-unprocessed.smi

> <i_m_source_file_index>
1801

> <i_lp_mmshare_version>
43012

> <i_f3d_flags>
0

> <s_epik_input>
W0NIMl0xW0NIMl1bQ0gyXVtDSDJdTjFbQ0gyXVtDQEhdKFtDSDNdKVtDSDJdW05IXUMoPU8pW05IXWMybm5bY0hdczI=

> <s_epik_cmdline>
J2VwaWtfcHl0aG9uJywgJy1waCcsICc3LjAnLCAnLXRuJywgJzgnLCAnLW1hJywgJzIwMCcsICctbWV0YWxfYmluZGluZycsICctaW1hZScsICc8aW5maWxlLm1hZT4nLCAnLW9tYWUnLCAnPG91dGZpbGUubWFlPic=

> <r_lp_tautomer_probability>
1

> <r_epik_Ionization_Penalty>
0.00281598

> <r_epik_Ionization_Penalty_Charging>
0.000371708

> <r_epik_Ionization_Penalty_Neutral>
0.00244427

> <r_epik_State_Penalty>
-0

> <r_epik_Charging_Adjusted_Penalty>
0.000371708

> <i_epik_Tot_Q>
1

> <i_epik_Tot_abs_Q>
1

> <r_epik_Metal_State_Penalty>
0.350595

> <b_epik_Metal_Only>
0

> <s_lp_Force_Field>
OPLS_2005

> <r_lp_Energy>
27.8609

> <b_lp_Chiralities_Consistent>
1

> <s_lp_Variant>
AV-unprocessed.smi:1801-2

> <Gold.Version>
5.8.1

> <Gold.Id.Protein>
6NUR|6NUR_protein|mol2

> <Gold.PLP.Fitness>
43.3524

> <Gold.PLP.PLP>
-33.2692

> <Gold.PLP.part.hbond>
-5.5394

> <Gold.PLP.part.metal>
0.0000

> <Gold.PLP.part.buried>
-0.9039

> <Gold.PLP.part.nonpolar>
-27.1084

> <Gold.PLP.part.repulsive>
0.3706

> <Gold.PLP.ligand.clash>
0.0000

> <Gold.PLP.ligand.torsion>
0.5505

> <Gold.PLP.Chemscore.Hbond>
3.7024

> <Gold.PLP.Chemscore.CHOScore>
0.0000

> <Gold.PLP.Chemscore.Metal>
0.0000

> <Gold.Chemscore.Hbonds>
donor molecule, donor type, donor heavy atom, donor atom, acceptor molecule, acceptor atom, score
      L1  H     4    25       P1  7948  0.73
      L1  H     7    26       P1  7948  0.86
      P1  H  7989  7998       L1    10  0.75
      P1  H 10752 10765       L1     6  0.99

> <Gold.PLP.Chemscore.Internal.Correction>
0.0769

> <Gold.Rescore>
     Score         DG    S(hbond)    S(metal)    S(lipo)     H(rot)  DE(clash)    DE(int)     intcor
     13.58     -14.33       1.75        0.00      68.60       1.97       0.15       0.61       ----

> <Gold.Chemscore.Fitness>
13.5753

> <Gold.Chemscore.DG>
-14.3318

> <Gold.Chemscore.ZeroCoef>
-5.4800

> <Gold.Chemscore.Hbond>
1.7546

> <Gold.Chemscore.Metal>
0.0000

> <Gold.Chemscore.Lipo>
68.6004

> <Gold.Chemscore.Internal_Hbond>
0.0000

> <Gold.Chemscore.DEClash>
0.1509

> <Gold.Chemscore.DEInternal>
0.6056

> <Gold.Chemscore.Rot>
1.9667

> <Gold.Chemscore.Internal.Correction>
   9.000000E+99

> <Gold.Chemscore.Hbonds>
donor molecule, donor type, donor heavy atom, donor atom, acceptor molecule, acceptor atom, score
      L1  H     4    25       P1  7948  0.12
      L1  H     7    26       P1  7948  0.67
      P1  H  7989  7998       L1    10  0.03
      P1  H 10752 10765       L1     6  0.65

> <Gold.Chemscore.Hbond.Weighted>
-5.8604

> <Gold.Chemscore.Metal.Weighted>
-0.0000

> <Gold.Chemscore.Lipo.Weighted>
-8.0262

> <Gold.Chemscore.Internal_Hbond.Weighted>
0.0000

> <Gold.Chemscore.DEClash.Weighted>
0.1509

> <Gold.Chemscore.DEInternal.Weighted>
0.6056

> <Gold.Chemscore.Rot.Weighted>
5.0348

> <Gold.Chemscore.Internal.Correction.Weighted>
   9.000000E+99

> <Gold.Protein.RotatedTorsions>
[ 6907 6896 6895 6894 ] final  -52.30 input  -60.11 | X-H torsion
[ 7974 7965 7964 7962 ] final   46.45 input  175.53 | X-H torsion
[ 8008 7997 7996 7995 ] final  -99.47 input   59.86 | X-H torsion
[ 10167 10162 10161 10158 ] final  178.76 input  -65.29 | X-H torsion
[ 10718 10713 10712 10709 ] final -160.98 input   66.30 | X-H torsion
[ 10763 10752 10751 10750 ] final -159.03 input  -60.55 | X-H torsion
[ 11005 11000 10999 10996 ] final -139.21 input  -57.11 | X-H torsion

> <Gold.Protein.ActiveResidues>
 VAL166  LYS551  ARG553  GLY616  TRP617  ASP618  TYR619  PRO620  LYS621  CYS622 
 ASP623  PHE694  ASN695  SER759  ASP760  ASP761  ALA762  ILE779  LEU786  VAL792 
 PHE793  MET794  SER795  GLU796  ALA797  LYS798  CYS799  TRP800  GLU811  SER814 

> <Gold.Protein.RotatedAtoms>
  150.8530  134.7861  159.7023 H   0  0  0  0  0  0  0  0  0  0  0  0  # atno 6907 bound_to 6896
  152.4590  134.5224  159.9796 H   0  0  0  0  0  0  0  0  0  0  0  0  # atno 6908 bound_to 6896
  151.5342  133.3406  159.2959 H   0  0  0  0  0  0  0  0  0  0  0  0  # atno 6909 bound_to 6896
  146.0388  139.4854  142.9791 H   0  0  0  0  0  0  0  0  0  0  0  0  # atno 7974 bound_to 7965
  154.8152  140.0447  157.1372 H   0  0  0  0  0  0  0  0  0  0  0  0  # atno 8008 bound_to 7997
  154.9322  140.3041  155.5142 H   0  0  0  0  0  0  0  0  0  0  0  0  # atno 8009 bound_to 7997
  156.2975  140.2321  156.4383 H   0  0  0  0  0  0  0  0  0  0  0  0  # atno 8010 bound_to 7997
  139.5308  144.2641  152.0682 H   0  0  0  0  0  0  0  0  0  0  0  0  # atno 10167 bound_to 10162
  156.5898  130.8765  151.2887 H   0  0  0  0  0  0  0  0  0  0  0  0  # atno 10718 bound_to 10713
  154.7509  135.3092  154.8560 H   0  0  0  0  0  0  0  0  0  0  0  0  # atno 10763 bound_to 10752
  153.9347  135.6781  153.4749 H   0  0  0  0  0  0  0  0  0  0  0  0  # atno 10764 bound_to 10752
  153.1105  135.4869  154.8954 H   0  0  0  0  0  0  0  0  0  0  0  0  # atno 10765 bound_to 10752
  140.8542  134.2249  157.4744 H   0  0  0  0  0  0  0  0  0  0  0  0  # atno 11005 bound_to 11000
  145.6919  141.0162  143.1551 LP  0  0  0  0  0  0  0  0  0  0  0  0  # atno 17320 bound_to 7965
  144.7064  139.8542  143.7428 LP  0  0  0  0  0  0  0  0  0  0  0  0  # atno 17321 bound_to 7965
  140.2104  144.4568  150.6388 LP  0  0  0  0  0  0  0  0  0  0  0  0  # atno 17342 bound_to 10162
  140.6484  143.2219  151.6134 LP  0  0  0  0  0  0  0  0  0  0  0  0  # atno 17343 bound_to 10162
  157.7306  130.9688  150.1843 LP  0  0  0  0  0  0  0  0  0  0  0  0  # atno 17370 bound_to 10713
  156.2560  130.3705  149.8181 LP  0  0  0  0  0  0  0  0  0  0  0  0  # atno 17371 bound_to 10713
  139.8705  134.9698  156.4679 LP  0  0  0  0  0  0  0  0  0  0  0  0  # atno 17394 bound_to 11000
  140.8756  133.7956  155.9411 LP  0  0  0  0  0  0  0  0  0  0  0  0  # atno 17395 bound_to 11000

$$$$
