AV-unprocessed.smi:2858|AV-procd|sdf|11001|dock3
  -GOLD-   2272015453D 1   1.00000     0.00000
 Structure written by MMmdl.
 39 40  0  0  0  0  0  0  0  0  1 V2000
  153.0665  137.8968  154.2293 O   0  0  0  0  0  0  0  0  0  0  0  0
  152.1358  138.6258  154.5645 C   0  0  0  0  0  0  0  0  0  0  0  0
  150.6964  138.2661  154.1567 C   0  0  0  0  0  0  0  0  0  0  0  0
  149.6977  139.3497  154.3275 N   0  0  0  0  0  0  0  0  0  0  0  0
  148.3488  138.8098  154.1355 C   0  0  0  0  0  0  0  0  0  0  0  0
  147.5619  139.5178  153.0144 C   0  0  0  0  0  0  0  0  0  0  0  0
  146.2751  138.7748  152.6122 C   0  0  0  0  0  0  0  0  0  0  0  0
  146.5578  137.4166  152.1625 N   0  0  0  0  0  0  0  0  0  0  0  0
  145.6365  136.4610  151.9712 C   0  0  0  0  0  0  0  0  0  0  0  0
  144.4309  136.6353  152.1514 O   0  0  0  0  0  0  0  0  0  0  0  0
  146.2041  135.3125  151.5616 N   0  0  0  0  0  0  0  0  0  0  0  0
  145.5715  134.0734  151.2738 C   0  0  0  0  0  0  0  0  0  0  0  0
  146.4294  132.9501  151.2692 C   0  0  0  0  0  0  0  0  0  0  0  0
  145.8992  131.6741  150.9971 C   0  0  0  0  0  0  0  0  0  0  0  0
  144.5225  131.5535  150.7370 C   0  0  0  0  0  0  0  0  0  0  0  0
  143.7386  132.7216  150.7605 C   0  0  0  0  0  0  0  0  0  0  0  0
  144.2450  133.9455  151.0203 N   0  0  0  0  0  0  0  0  0  0  0  0
  149.8710  140.0080  155.6243 C   0  0  0  0  0  0  0  0  0  0  0  0
  151.2678  140.6538  155.6813 C   0  0  0  0  0  0  0  0  0  0  0  0
  152.3285  139.7251  155.3084 N   0  0  0  0  0  0  0  0  0  0  0  0
  150.6989  137.9388  153.1161 H   0  0  0  0  0  0  0  0  0  0  0  0
  150.4048  137.4032  154.7581 H   0  0  0  0  0  0  0  0  0  0  0  0
  148.4157  137.7520  153.8760 H   0  0  0  0  0  0  0  0  0  0  0  0
  147.7932  138.8588  155.0736 H   0  0  0  0  0  0  0  0  0  0  0  0
  147.2938  140.5124  153.3726 H   0  0  0  0  0  0  0  0  0  0  0  0
  148.1865  139.6879  152.1386 H   0  0  0  0  0  0  0  0  0  0  0  0
  145.5989  138.7084  153.4646 H   0  0  0  0  0  0  0  0  0  0  0  0
  145.7408  139.3253  151.8360 H   0  0  0  0  0  0  0  0  0  0  0  0
  147.5256  137.1875  151.9896 H   0  0  0  0  0  0  0  0  0  0  0  0
  147.2069  135.3231  151.4500 H   0  0  0  0  0  0  0  0  0  0  0  0
  147.4848  133.0603  151.4723 H   0  0  0  0  0  0  0  0  0  0  0  0
  146.5384  130.8037  150.9888 H   0  0  0  0  0  0  0  0  0  0  0  0
  144.0792  130.5918  150.5252 H   0  0  0  0  0  0  0  0  0  0  0  0
  142.6775  132.6732  150.5658 H   0  0  0  0  0  0  0  0  0  0  0  0
  149.1249  140.7856  155.7796 H   0  0  0  0  0  0  0  0  0  0  0  0
  149.7506  139.2838  156.4319 H   0  0  0  0  0  0  0  0  0  0  0  0
  151.3111  141.5074  155.0037 H   0  0  0  0  0  0  0  0  0  0  0  0
  151.4649  141.0368  156.6827 H   0  0  0  0  0  0  0  0  0  0  0  0
  153.2695  139.9521  155.5963 H   0  0  0  0  0  0  0  0  0  0  0  0
  1  2  2  0  0  0  0
  2 20  1  0  0  0  0
  2  3  1  0  0  0  0
  3  4  1  0  0  0  0
  3 21  1  0  0  0  0
  3 22  1  0  0  0  0
  4  5  1  0  0  0  0
  4 18  1  0  0  0  0
  5  6  1  0  0  0  0
  5 23  1  0  0  0  0
  5 24  1  0  0  0  0
  6  7  1  0  0  0  0
  6 25  1  0  0  0  0
  6 26  1  0  0  0  0
  7  8  1  0  0  0  0
  7 27  1  0  0  0  0
  7 28  1  0  0  0  0
  8  9  1  0  0  0  0
  8 29  1  0  0  0  0
  9 10  2  0  0  0  0
  9 11  1  0  0  0  0
 11 12  1  0  0  0  0
 11 30  1  0  0  0  0
 12 17  1  0  0  0  0
 12 13  2  0  0  0  0
 13 14  1  0  0  0  0
 13 31  1  0  0  0  0
 14 15  2  0  0  0  0
 14 32  1  0  0  0  0
 15 16  1  0  0  0  0
 15 33  1  0  0  0  0
 16 17  2  0  0  0  0
 16 34  1  0  0  0  0
 18 19  1  0  0  0  0
 18 35  1  0  0  0  0
 18 36  1  0  0  0  0
 19 20  1  0  0  0  0
 19 37  1  0  0  0  0
 19 38  1  0  0  0  0
 20 39  1  0  0  0  0
M  END
> <s_m_source_file>
AV-unprocessed.smi

> <i_m_source_file_index>
2858

> <i_lp_mmshare_version>
43012

> <i_f3d_flags>
0

> <s_epik_input>
Tz1DMVtDSDJdTihbQ0gyXVtDSDJdW05IXTEpW0NIMl1bQ0gyXVtDSDJdW05IXUMoPU8pW05IXWMyW2NIXVtjSF1bY0hdW2NIXW4y

> <s_epik_cmdline>
J2VwaWtfcHl0aG9uJywgJy1waCcsICc3LjAnLCAnLXRuJywgJzgnLCAnLW1hJywgJzIwMCcsICctbWV0YWxfYmluZGluZycsICctaW1hZScsICc8aW5maWxlLm1hZT4nLCAnLW9tYWUnLCAnPG91dGZpbGUubWFlPic=

> <r_epik_Ionization_Penalty>
1.05093

> <r_epik_Ionization_Penalty_Charging>
0

> <r_epik_Ionization_Penalty_Neutral>
1.05093

> <r_epik_State_Penalty>
1.10373

> <r_epik_Charging_Adjusted_Penalty>
1.10373

> <i_epik_Tot_Q>
0

> <i_epik_Tot_abs_Q>
0

> <r_epik_Metal_State_Penalty>
1.17671

> <b_epik_Metal_Only>
0

> <s_lp_Force_Field>
OPLS_2005

> <r_lp_Energy>
22.2327

> <b_lp_Chiralities_Consistent>
1

> <s_lp_Variant>
AV-unprocessed.smi:2858-3

> <Gold.Version>
5.8.1

> <Gold.Id.Protein>
6NUR|6NUR_protein|mol2

> <Gold.PLP.Fitness>
42.9977

> <Gold.PLP.PLP>
-34.9277

> <Gold.PLP.part.hbond>
-3.0000

> <Gold.PLP.part.metal>
0.0000

> <Gold.PLP.part.buried>
-4.7000

> <Gold.PLP.part.nonpolar>
-29.7604

> <Gold.PLP.part.repulsive>
1.3790

> <Gold.PLP.ligand.clash>
0.0000

> <Gold.PLP.ligand.torsion>
0.9207

> <Gold.PLP.Chemscore.Hbond>
2.2952

> <Gold.PLP.Chemscore.CHOScore>
1.0000

> <Gold.PLP.Chemscore.Metal>
0.0000

> <Gold.Chemscore.Hbonds>
donor molecule, donor type, donor heavy atom, donor atom, acceptor molecule, acceptor atom, score
      L1  H     8    29       P1  7948  1.00
      L1  H    11    30       P1  7948  0.99
      P1  H 10752 10765       L1     1  0.23
      L1  C    16    34       P1 10186  0.78

> <Gold.PLP.Chemscore.Internal.Correction>
0.0259

> <Gold.Rescore>
     Score         DG    S(hbond)    S(metal)    S(lipo)     H(rot)  DE(clash)    DE(int)     intcor
     14.10     -16.30       2.32        0.00      70.63       2.02       0.02       2.18       ----

> <Gold.Chemscore.Fitness>
14.0974

> <Gold.Chemscore.DG>
-16.3009

> <Gold.Chemscore.ZeroCoef>
-5.4800

> <Gold.Chemscore.Hbond>
2.3150

> <Gold.Chemscore.Metal>
0.0000

> <Gold.Chemscore.Lipo>
70.6252

> <Gold.Chemscore.Internal_Hbond>
0.0000

> <Gold.Chemscore.DEClash>
0.0201

> <Gold.Chemscore.DEInternal>
2.1834

> <Gold.Chemscore.Rot>
2.0213

> <Gold.Chemscore.Internal.Correction>
   9.000000E+99

> <Gold.Chemscore.Hbonds>
donor molecule, donor type, donor heavy atom, donor atom, acceptor molecule, acceptor atom, score
      L1  H     8    29       P1  7948  1.00
      L1  H    11    30       P1  7948  0.83
      P1  H 10752 10765       L1     1  0.23

> <Gold.Chemscore.Hbond.Weighted>
-7.7321

> <Gold.Chemscore.Metal.Weighted>
-0.0000

> <Gold.Chemscore.Lipo.Weighted>
-8.2631

> <Gold.Chemscore.Internal_Hbond.Weighted>
0.0000

> <Gold.Chemscore.DEClash.Weighted>
0.0201

> <Gold.Chemscore.DEInternal.Weighted>
2.1834

> <Gold.Chemscore.Rot.Weighted>
5.1744

> <Gold.Chemscore.Internal.Correction.Weighted>
   9.000000E+99

> <Gold.Protein.RotatedTorsions>
[ 6907 6896 6895 6894 ] final  112.06 input  -60.11 | X-H torsion
[ 7974 7965 7964 7962 ] final   28.05 input  175.53 | X-H torsion
[ 8008 7997 7996 7995 ] final   89.95 input   59.86 | X-H torsion
[ 10167 10162 10161 10158 ] final    5.03 input  -65.29 | X-H torsion
[ 10718 10713 10712 10709 ] final -101.53 input   66.30 | X-H torsion
[ 10763 10752 10751 10750 ] final  147.83 input  -60.55 | X-H torsion
[ 11005 11000 10999 10996 ] final -137.88 input  -57.11 | X-H torsion

> <Gold.Protein.ActiveResidues>
 VAL166  LYS551  ARG553  GLY616  TRP617  ASP618  TYR619  PRO620  LYS621  CYS622 
 ASP623  PHE694  ASN695  SER759  ASP760  ASP761  ALA762  ILE779  LEU786  VAL792 
 PHE793  MET794  SER795  GLU796  ALA797  LYS798  CYS799  TRP800  GLU811  SER814 

> <Gold.Protein.RotatedAtoms>
  152.4936  133.8569  159.7229 H   0  0  0  0  0  0  0  0  0  0  0  0  # atno 6907 bound_to 6896
  150.9091  133.7011  159.2866 H   0  0  0  0  0  0  0  0  0  0  0  0  # atno 6908 bound_to 6896
  151.4427  135.1026  159.9727 H   0  0  0  0  0  0  0  0  0  0  0  0  # atno 6909 bound_to 6896
  146.1751  139.7109  142.8940 H   0  0  0  0  0  0  0  0  0  0  0  0  # atno 7974 bound_to 7965
  156.0062  140.3355  155.6894 H   0  0  0  0  0  0  0  0  0  0  0  0  # atno 8008 bound_to 7997
  155.6222  140.0676  157.2692 H   0  0  0  0  0  0  0  0  0  0  0  0  # atno 8009 bound_to 7997
  154.4265  140.1774  156.1371 H   0  0  0  0  0  0  0  0  0  0  0  0  # atno 8010 bound_to 7997
  140.6504  143.7560  150.7565 H   0  0  0  0  0  0  0  0  0  0  0  0  # atno 10167 bound_to 10162
  156.0198  130.5378  150.6976 H   0  0  0  0  0  0  0  0  0  0  0  0  # atno 10718 bound_to 10713
  154.0448  135.2886  155.3349 H   0  0  0  0  0  0  0  0  0  0  0  0  # atno 10763 bound_to 10752
  154.6906  135.5228  153.8390 H   0  0  0  0  0  0  0  0  0  0  0  0  # atno 10764 bound_to 10752
  153.0585  135.6604  154.0649 H   0  0  0  0  0  0  0  0  0  0  0  0  # atno 10765 bound_to 10752
  140.8669  134.2100  157.4675 H   0  0  0  0  0  0  0  0  0  0  0  0  # atno 11005 bound_to 11000
  145.4235  141.0408  143.2951 LP  0  0  0  0  0  0  0  0  0  0  0  0  # atno 17320 bound_to 7965
  144.8223  139.5770  143.6981 LP  0  0  0  0  0  0  0  0  0  0  0  0  # atno 17321 bound_to 7965
  140.1209  143.4613  152.2313 LP  0  0  0  0  0  0  0  0  0  0  0  0  # atno 17342 bound_to 10162
  139.5718  144.7467  151.3870 LP  0  0  0  0  0  0  0  0  0  0  0  0  # atno 17343 bound_to 10162
  157.4643  131.0886  151.0711 LP  0  0  0  0  0  0  0  0  0  0  0  0  # atno 17370 bound_to 10713
  157.1190  130.6053  149.5500 LP  0  0  0  0  0  0  0  0  0  0  0  0  # atno 17371 bound_to 10713
  139.8710  134.9756  156.4888 LP  0  0  0  0  0  0  0  0  0  0  0  0  # atno 17394 bound_to 11000
  140.8619  133.8053  155.9274 LP  0  0  0  0  0  0  0  0  0  0  0  0  # atno 17395 bound_to 11000

$$$$
