AV-unprocessed.smi:1341|AV-procd|sdf|5506|dock9
  -GOLD-   22720 5 93D 1   1.00000     0.00000
 Structure written by MMmdl.
 33 34  0  0  0  0  0  0  0  0  2 V2000
  153.4716  137.6494  160.6414 C   0  0  0  0  0  0  0  0  0  0  0  0
  154.0753  136.9334  159.6782 C   0  0  0  0  0  0  0  0  0  0  0  0
  154.0861  137.2802  158.2026 C   0  0  0  0  0  0  0  0  0  0  0  0
  153.5256  138.5911  157.8915 N   0  5  0  0  0  0  0  0  0  0  0  0
  152.3928  138.7982  157.1575 C   0  0  0  0  0  0  0  0  0  0  0  0
  151.6786  137.9748  156.5746 O   0  0  0  0  0  0  0  0  0  0  0  0
  152.0085  140.2586  157.0904 C   0  0  0  0  0  0  0  0  0  0  0  0
  152.5505  141.0958  158.0112 N   0  0  0  0  0  0  0  0  0  0  0  0
  152.2118  142.3887  157.9933 C   0  0  0  0  0  0  0  0  0  0  0  0
  152.7856  143.2225  158.9618 N   0  0  0  0  0  0  0  0  0  0  0  0
  152.2515  144.5551  159.2371 C   0  0  0  0  0  0  0  0  0  0  0  0
  151.2605  144.4765  160.4131 C   0  0  0  0  0  0  0  0  0  0  0  0
  151.9163  143.9273  161.5549 O   0  0  0  0  0  0  0  0  0  0  0  0
  152.4399  142.6224  161.3128 C   0  0  0  0  0  0  0  0  0  0  0  0
  153.4464  142.6835  160.1497 C   0  0  0  0  0  0  0  0  0  0  0  0
  151.3623  142.9450  157.1225 N   0  0  0  0  0  0  0  0  0  0  0  0
  150.8105  142.1401  156.1915 C   0  0  0  0  0  0  0  0  0  0  0  0
  151.0989  140.7635  156.1226 C   0  0  0  0  0  0  0  0  0  0  0  0
  150.3746  139.8055  154.8756 Cl  0  0  0  0  0  0  0  0  0  0  0  0
  152.9284  138.5607  160.4316 H   0  0  0  0  0  0  0  0  0  0  0  0
  153.5163  137.3255  161.6705 H   0  0  0  0  0  0  0  0  0  0  0  0
  154.6043  136.0324  159.9523 H   0  0  0  0  0  0  0  0  0  0  0  0
  155.1260  137.2258  157.8806 H   0  0  0  0  0  0  0  0  0  0  0  0
  153.5870  136.4731  157.6640 H   0  0  0  0  0  0  0  0  0  0  0  0
  153.0799  145.2142  159.4982 H   0  0  0  0  0  0  0  0  0  0  0  0
  151.7747  145.0049  158.3669 H   0  0  0  0  0  0  0  0  0  0  0  0
  150.8912  145.4713  160.6620 H   0  0  0  0  0  0  0  0  0  0  0  0
  150.3927  143.8691  160.1511 H   0  0  0  0  0  0  0  0  0  0  0  0
  152.9300  142.2637  162.2177 H   0  0  0  0  0  0  0  0  0  0  0  0
  151.6287  141.9272  161.0902 H   0  0  0  0  0  0  0  0  0  0  0  0
  153.8909  141.7041  159.9719 H   0  0  0  0  0  0  0  0  0  0  0  0
  154.2750  143.3405  160.4158 H   0  0  0  0  0  0  0  0  0  0  0  0
  150.1334  142.6026  155.4888 H   0  0  0  0  0  0  0  0  0  0  0  0
  1  2  2  0  0  0  0
  1 20  1  0  0  0  0
  1 21  1  0  0  0  0
  2  3  1  0  0  0  0
  2 22  1  0  0  0  0
  3  4  1  0  0  0  0
  3 23  1  0  0  0  0
  3 24  1  0  0  0  0
  4  5  1  0  0  0  0
  5  6  2  0  0  0  0
  5  7  1  0  0  0  0
  7 18  1  0  0  0  0
  7  8  2  0  0  0  0
  8  9  1  0  0  0  0
  9 10  1  0  0  0  0
  9 16  2  0  0  0  0
 10 15  1  0  0  0  0
 10 11  1  0  0  0  0
 11 12  1  0  0  0  0
 11 25  1  0  0  0  0
 11 26  1  0  0  0  0
 12 13  1  0  0  0  0
 12 27  1  0  0  0  0
 12 28  1  0  0  0  0
 13 14  1  0  0  0  0
 14 15  1  0  0  0  0
 14 29  1  0  0  0  0
 14 30  1  0  0  0  0
 15 31  1  0  0  0  0
 15 32  1  0  0  0  0
 16 17  1  0  0  0  0
 17 18  2  0  0  0  0
 17 33  1  0  0  0  0
 18 19  1  0  0  0  0
M  CHG  1   4  -1
M  END
> <s_m_source_file>
AV-unprocessed.smi

> <i_m_source_file_index>
1341

> <i_lp_mmshare_version>
43012

> <i_f3d_flags>
0

> <s_epik_input>
W0NIMl09W0NIXVtDSDJdW05IXUMoPU8pYzFuYyhuW2NIXWMxQ2wpTjJbQ0gyXVtDSDJdT1tDSDJdW0NIMl0y

> <s_epik_cmdline>
J2VwaWtfcHl0aG9uJywgJy1waCcsICc3LjAnLCAnLXRuJywgJzgnLCAnLW1hJywgJzIwMCcsICctbWV0YWxfYmluZGluZycsICctaW1hZScsICc8aW5maWxlLm1hZT4nLCAnLW9tYWUnLCAnPG91dGZpbGUubWFlPic=

> <r_lp_tautomer_probability>
1

> <r_epik_Ionization_Penalty>
5.99598

> <r_epik_Ionization_Penalty_Charging>
5.99596

> <r_epik_Ionization_Penalty_Neutral>
2.0749e-05

> <r_epik_State_Penalty>
5.99593

> <r_epik_Charging_Adjusted_Penalty>
11.9919

> <i_epik_Tot_Q>
-1

> <i_epik_Tot_abs_Q>
1

> <r_epik_Metal_State_Penalty>
1.94906

> <b_epik_Metal_Only>
1

> <s_lp_Force_Field>
OPLS_2005

> <r_lp_Energy>
16.4854

> <b_lp_Chiralities_Consistent>
1

> <s_lp_Variant>
AV-unprocessed.smi:1341-2

> <Gold.Version>
5.8.1

> <Gold.Id.Protein>
6NUR|6NUR_protein|mol2

> <Gold.PLP.Fitness>
43.8800

> <Gold.PLP.PLP>
-35.2095

> <Gold.PLP.part.hbond>
-1.3012

> <Gold.PLP.part.metal>
0.0000

> <Gold.PLP.part.buried>
-3.2847

> <Gold.PLP.part.nonpolar>
-29.8685

> <Gold.PLP.part.repulsive>
0.2818

> <Gold.PLP.ligand.clash>
0.0000

> <Gold.PLP.ligand.torsion>
0.2866

> <Gold.PLP.Chemscore.Hbond>
2.0000

> <Gold.PLP.Chemscore.CHOScore>
1.0000

> <Gold.PLP.Chemscore.Metal>
0.0000

> <Gold.Chemscore.Hbonds>
donor molecule, donor type, donor heavy atom, donor atom, acceptor molecule, acceptor atom, score
      P1  H  7997  8009       L1     4  1.90
      L1  C    17    33       P1  8028  1.00

> <Gold.PLP.Chemscore.Internal.Correction>
0.2438

> <Gold.Rescore>
     Score         DG    S(hbond)    S(metal)    S(lipo)     H(rot)  DE(clash)    DE(int)     intcor
     13.14     -15.09       0.78        0.00      85.02       1.15       0.22       1.73       ----

> <Gold.Chemscore.Fitness>
13.1426

> <Gold.Chemscore.DG>
-15.0937

> <Gold.Chemscore.ZeroCoef>
-5.4800

> <Gold.Chemscore.Hbond>
0.7827

> <Gold.Chemscore.Metal>
0.0000

> <Gold.Chemscore.Lipo>
85.0178

> <Gold.Chemscore.Internal_Hbond>
0.0000

> <Gold.Chemscore.DEClash>
0.2247

> <Gold.Chemscore.DEInternal>
1.7265

> <Gold.Chemscore.Rot>
1.1514

> <Gold.Chemscore.Internal.Correction>
   9.000000E+99

> <Gold.Chemscore.Hbonds>
donor molecule, donor type, donor heavy atom, donor atom, acceptor molecule, acceptor atom, score
      P1  H  7997  8009       L1     4  0.20

> <Gold.Chemscore.Hbond.Weighted>
-2.6142

> <Gold.Chemscore.Metal.Weighted>
-0.0000

> <Gold.Chemscore.Lipo.Weighted>
-9.9471

> <Gold.Chemscore.Internal_Hbond.Weighted>
0.0000

> <Gold.Chemscore.DEClash.Weighted>
0.2247

> <Gold.Chemscore.DEInternal.Weighted>
1.7265

> <Gold.Chemscore.Rot.Weighted>
2.9477

> <Gold.Chemscore.Internal.Correction.Weighted>
   9.000000E+99

> <Gold.Protein.RotatedTorsions>
[ 6907 6896 6895 6894 ] final   18.53 input  -60.11 | X-H torsion
[ 7974 7965 7964 7962 ] final -170.90 input  175.53 | X-H torsion
[ 8008 7997 7996 7995 ] final  147.95 input   59.86 | X-H torsion
[ 10167 10162 10161 10158 ] final   61.02 input  -65.29 | X-H torsion
[ 10718 10713 10712 10709 ] final   35.76 input   66.30 | X-H torsion
[ 10763 10752 10751 10750 ] final  118.37 input  -60.55 | X-H torsion
[ 11005 11000 10999 10996 ] final    4.25 input  -57.11 | X-H torsion

> <Gold.Protein.ActiveResidues>
 VAL166  LYS551  ARG553  GLY616  TRP617  ASP618  TYR619  PRO620  LYS621  CYS622 
 ASP623  PHE694  ASN695  SER759  ASP760  ASP761  ALA762  ILE779  LEU786  VAL792 
 PHE793  MET794  SER795  GLU796  ALA797  LYS798  CYS799  TRP800  GLU811  SER814 

> <Gold.Protein.RotatedAtoms>
  151.8667  135.0504  160.0474 H   0  0  0  0  0  0  0  0  0  0  0  0  # atno 6907 bound_to 6896
  152.2620  133.5301  159.5396 H   0  0  0  0  0  0  0  0  0  0  0  0  # atno 6908 bound_to 6896
  150.7120  134.0733  159.3914 H   0  0  0  0  0  0  0  0  0  0  0  0  # atno 6909 bound_to 6896
  144.7164  140.2002  143.6339 H   0  0  0  0  0  0  0  0  0  0  0  0  # atno 7974 bound_to 7965
  156.2808  140.2142  156.5619 H   0  0  0  0  0  0  0  0  0  0  0  0  # atno 8008 bound_to 7997
  154.7206  140.0504  157.0658 H   0  0  0  0  0  0  0  0  0  0  0  0  # atno 8009 bound_to 7997
  155.0484  140.3153  155.4703 H   0  0  0  0  0  0  0  0  0  0  0  0  # atno 8010 bound_to 7997
  140.1593  144.4386  150.6717 H   0  0  0  0  0  0  0  0  0  0  0  0  # atno 10167 bound_to 10162
  157.3266  130.7476  149.6820 H   0  0  0  0  0  0  0  0  0  0  0  0  # atno 10718 bound_to 10713
  153.5665  135.3510  155.2820 H   0  0  0  0  0  0  0  0  0  0  0  0  # atno 10763 bound_to 10752
  154.8688  135.4149  154.2772 H   0  0  0  0  0  0  0  0  0  0  0  0  # atno 10764 bound_to 10752
  153.3529  135.7056  153.6843 H   0  0  0  0  0  0  0  0  0  0  0  0  # atno 10765 bound_to 10752
  140.5840  133.9986  155.8060 H   0  0  0  0  0  0  0  0  0  0  0  0  # atno 11005 bound_to 11000
  145.8686  139.2260  143.1674 LP  0  0  0  0  0  0  0  0  0  0  0  0  # atno 17320 bound_to 7965
  146.0106  140.8439  142.9973 LP  0  0  0  0  0  0  0  0  0  0  0  0  # atno 17321 bound_to 7965
  140.6653  143.2266  151.5758 LP  0  0  0  0  0  0  0  0  0  0  0  0  # atno 17342 bound_to 10162
  139.5388  144.2704  152.1309 LP  0  0  0  0  0  0  0  0  0  0  0  0  # atno 17343 bound_to 10162
  155.9691  130.4207  150.4437 LP  0  0  0  0  0  0  0  0  0  0  0  0  # atno 17370 bound_to 10713
  157.2461  131.0536  151.2407 LP  0  0  0  0  0  0  0  0  0  0  0  0  # atno 17371 bound_to 10713
  141.0978  133.9816  157.3131 LP  0  0  0  0  0  0  0  0  0  0  0  0  # atno 17394 bound_to 11000
  139.9304  135.0200  156.8380 LP  0  0  0  0  0  0  0  0  0  0  0  0  # atno 17395 bound_to 11000

$$$$
