AV-unprocessed.smi:2760|AV-procd|sdf|10631|dock7
  -GOLD-   2272015 83D 1   1.00000     0.00000
 Structure written by MMmdl.
 32 33  0  0  0  0  0  0  0  0  1 V2000
  151.8357  136.9639  154.2440 O   0  0  0  0  0  0  0  0  0  0  0  0
  150.6708  137.5904  154.5747 C   0  0  0  0  0  0  0  0  0  0  0  0
  150.5009  138.9581  154.2717 C   0  0  0  0  0  0  0  0  0  0  0  0
  149.2688  139.5408  154.6419 C   0  0  0  0  0  0  0  0  0  0  0  0
  148.9441  140.9780  154.3811 C   0  0  0  0  0  0  0  0  0  0  0  0
  147.7141  141.6244  154.9788 C   0  0  0  0  0  0  0  0  0  0  0  0
  147.7806  141.3597  153.4950 C   0  0  0  0  0  0  0  0  0  0  0  0
  148.2990  138.8174  155.2437 N   0  0  0  0  0  0  0  0  0  0  0  0
  148.5741  137.5323  155.4778 C   0  0  0  0  0  0  0  0  0  0  0  0
  147.2990  136.5705  156.2597 S   0  0  0  0  0  0  0  0  0  0  0  0
  147.0915  137.4751  157.8222 C   0  0  0  0  0  0  0  0  0  0  0  0
  147.9969  136.9235  158.9307 C   0  0  0  0  0  0  0  0  0  0  0  0
  147.2147  136.6688  160.0847 O   0  0  0  0  0  0  0  0  0  0  0  0
  148.0068  136.4272  161.2376 C   0  0  0  0  0  0  0  0  0  0  0  0
  147.1148  136.4182  162.4847 C   0  0  0  0  0  0  0  0  0  0  0  0
  147.8354  136.7908  163.5419 F   0  0  0  0  0  0  0  0  0  0  0  0
  146.1034  137.2729  162.3340 F   0  0  0  0  0  0  0  0  0  0  0  0
  146.6378  135.1929  162.7029 F   0  0  0  0  0  0  0  0  0  0  0  0
  149.6991  136.8781  155.1851 N   0  0  0  0  0  0  0  0  0  0  0  0
  151.7247  136.3095  153.5720 H   0  0  0  0  0  0  0  0  0  0  0  0
  151.2739  139.5318  153.7816 H   0  0  0  0  0  0  0  0  0  0  0  0
  149.8495  141.5786  154.3155 H   0  0  0  0  0  0  0  0  0  0  0  0
  147.0368  141.0039  155.5624 H   0  0  0  0  0  0  0  0  0  0  0  0
  147.7885  142.6626  155.2959 H   0  0  0  0  0  0  0  0  0  0  0  0
  147.8983  142.2251  152.8459 H   0  0  0  0  0  0  0  0  0  0  0  0
  147.1563  140.5599  153.1016 H   0  0  0  0  0  0  0  0  0  0  0  0
  147.3298  138.5230  157.6397 H   0  0  0  0  0  0  0  0  0  0  0  0
  146.0459  137.4400  158.1288 H   0  0  0  0  0  0  0  0  0  0  0  0
  148.4811  136.0020  158.6048 H   0  0  0  0  0  0  0  0  0  0  0  0
  148.7820  137.6445  159.1641 H   0  0  0  0  0  0  0  0  0  0  0  0
  148.5216  135.4696  161.1425 H   0  0  0  0  0  0  0  0  0  0  0  0
  148.7711  137.2002  161.3343 H   0  0  0  0  0  0  0  0  0  0  0  0
  1  2  1  0  0  0  0
  1 20  1  0  0  0  0
  2 19  1  0  0  0  0
  2  3  2  0  0  0  0
  3  4  1  0  0  0  0
  3 21  1  0  0  0  0
  4  5  1  0  0  0  0
  4  8  2  0  0  0  0
  5  7  1  0  0  0  0
  5  6  1  0  0  0  0
  5 22  1  0  0  0  0
  6  7  1  0  0  0  0
  6 23  1  0  0  0  0
  6 24  1  0  0  0  0
  7 25  1  0  0  0  0
  7 26  1  0  0  0  0
  8  9  1  0  0  0  0
  9 10  1  0  0  0  0
  9 19  2  0  0  0  0
 10 11  1  0  0  0  0
 11 12  1  0  0  0  0
 11 27  1  0  0  0  0
 11 28  1  0  0  0  0
 12 13  1  0  0  0  0
 12 29  1  0  0  0  0
 12 30  1  0  0  0  0
 13 14  1  0  0  0  0
 14 15  1  0  0  0  0
 14 31  1  0  0  0  0
 14 32  1  0  0  0  0
 15 16  1  0  0  0  0
 15 17  1  0  0  0  0
 15 18  1  0  0  0  0
M  END
> <s_m_source_file>
AV-unprocessed.smi

> <i_m_source_file_index>
2760

> <i_lp_mmshare_version>
43012

> <i_f3d_flags>
0

> <s_epik_input>
W09IXWMxW2NIXWMoW0NIXTJbQ0gyXVtDSDJdMiluYyhuMSlTW0NIMl1bQ0gyXU9bQ0gyXUMoRikoRilG

> <s_epik_cmdline>
J2VwaWtfcHl0aG9uJywgJy1waCcsICc3LjAnLCAnLXRuJywgJzgnLCAnLW1hJywgJzIwMCcsICctbWV0YWxfYmluZGluZycsICctaW1hZScsICc8aW5maWxlLm1hZT4nLCAnLW9tYWUnLCAnPG91dGZpbGUubWFlPic=

> <r_lp_tautomer_probability>
0.0660145

> <r_epik_Ionization_Penalty>
3.02064

> <r_epik_Ionization_Penalty_Charging>
0

> <r_epik_Ionization_Penalty_Neutral>
3.02064

> <r_epik_State_Penalty>
2.51658

> <r_epik_Charging_Adjusted_Penalty>
2.51658

> <i_epik_Tot_Q>
0

> <i_epik_Tot_abs_Q>
0

> <r_epik_Metal_State_Penalty>
3.1674

> <b_epik_Metal_Only>
0

> <s_lp_Force_Field>
OPLS_2005

> <r_lp_Energy>
-0.868617

> <b_lp_Chiralities_Consistent>
1

> <s_lp_Variant>
AV-unprocessed.smi:2760-4

> <Gold.Version>
5.8.1

> <Gold.Id.Protein>
6NUR|6NUR_protein|mol2

> <Gold.PLP.Fitness>
37.4953

> <Gold.PLP.PLP>
-36.6582

> <Gold.PLP.part.hbond>
-2.0000

> <Gold.PLP.part.metal>
0.0000

> <Gold.PLP.part.buried>
-3.8364

> <Gold.PLP.part.nonpolar>
-29.8924

> <Gold.PLP.part.repulsive>
0.2148

> <Gold.PLP.ligand.clash>
0.0000

> <Gold.PLP.ligand.torsion>
1.2076

> <Gold.PLP.Chemscore.Hbond>
1.0135

> <Gold.PLP.Chemscore.CHOScore>
0.0000

> <Gold.PLP.Chemscore.Metal>
0.0000

> <Gold.Chemscore.Hbonds>
donor molecule, donor type, donor heavy atom, donor atom, acceptor molecule, acceptor atom, score
      L1  H     1    20       P1  7949  0.58
      P1  H 10752 10763       L1     1  0.01

> <Gold.PLP.Chemscore.Internal.Correction>
0.2118

> <Gold.Rescore>
     Score         DG    S(hbond)    S(metal)    S(lipo)     H(rot)  DE(clash)    DE(int)     intcor
      5.97      -7.03       0.96        0.00      54.90       3.16       0.10       0.95       ----

> <Gold.Chemscore.Fitness>
5.9729

> <Gold.Chemscore.DG>
-7.0258

> <Gold.Chemscore.ZeroCoef>
-5.4800

> <Gold.Chemscore.Hbond>
0.9583

> <Gold.Chemscore.Metal>
0.0000

> <Gold.Chemscore.Lipo>
54.9019

> <Gold.Chemscore.Internal_Hbond>
0.0000

> <Gold.Chemscore.DEClash>
0.1011

> <Gold.Chemscore.DEInternal>
0.9519

> <Gold.Chemscore.Rot>
3.1557

> <Gold.Chemscore.Internal.Correction>
   9.000000E+99

> <Gold.Chemscore.Hbonds>
donor molecule, donor type, donor heavy atom, donor atom, acceptor molecule, acceptor atom, score
      L1  H     1    20       P1  7949  0.55

> <Gold.Chemscore.Hbond.Weighted>
-3.2008

> <Gold.Chemscore.Metal.Weighted>
-0.0000

> <Gold.Chemscore.Lipo.Weighted>
-6.4235

> <Gold.Chemscore.Internal_Hbond.Weighted>
0.0000

> <Gold.Chemscore.DEClash.Weighted>
0.1011

> <Gold.Chemscore.DEInternal.Weighted>
0.9519

> <Gold.Chemscore.Rot.Weighted>
8.0785

> <Gold.Chemscore.Internal.Correction.Weighted>
   9.000000E+99

> <Gold.Protein.RotatedTorsions>
[ 6907 6896 6895 6894 ] final   56.16 input  -60.11 | X-H torsion
[ 7974 7965 7964 7962 ] final  150.47 input  175.53 | X-H torsion
[ 8008 7997 7996 7995 ] final -133.16 input   59.86 | X-H torsion
[ 10167 10162 10161 10158 ] final -161.87 input  -65.29 | X-H torsion
[ 10718 10713 10712 10709 ] final  -60.92 input   66.30 | X-H torsion
[ 10763 10752 10751 10750 ] final   90.08 input  -60.55 | X-H torsion
[ 11005 11000 10999 10996 ] final   57.35 input  -57.11 | X-H torsion

> <Gold.Protein.ActiveResidues>
 VAL166  LYS551  ARG553  GLY616  TRP617  ASP618  TYR619  PRO620  LYS621  CYS622 
 ASP623  PHE694  ASN695  SER759  ASP760  ASP761  ALA762  ILE779  LEU786  VAL792 
 PHE793  MET794  SER795  GLU796  ALA797  LYS798  CYS799  TRP800  GLU811  SER814 

> <Gold.Protein.RotatedAtoms>
  152.3609  134.6873  160.0207 H   0  0  0  0  0  0  0  0  0  0  0  0  # atno 6907 bound_to 6896
  151.7197  133.3309  159.3320 H   0  0  0  0  0  0  0  0  0  0  0  0  # atno 6908 bound_to 6896
  150.7604  134.6393  159.6273 H   0  0  0  0  0  0  0  0  0  0  0  0  # atno 6909 bound_to 6896
  144.8362  139.6413  143.6037 H   0  0  0  0  0  0  0  0  0  0  0  0  # atno 7974 bound_to 7965
  155.3409  140.0472  157.3045 H   0  0  0  0  0  0  0  0  0  0  0  0  # atno 8008 bound_to 7997
  154.5278  140.2247  155.8824 H   0  0  0  0  0  0  0  0  0  0  0  0  # atno 8009 bound_to 7997
  156.1757  140.3085  155.9061 H   0  0  0  0  0  0  0  0  0  0  0  0  # atno 8010 bound_to 7997
  139.6433  144.0218  152.2108 H   0  0  0  0  0  0  0  0  0  0  0  0  # atno 10167 bound_to 10162
  156.0957  130.4193  150.0922 H   0  0  0  0  0  0  0  0  0  0  0  0  # atno 10718 bound_to 10713
  153.1938  135.4447  155.0183 H   0  0  0  0  0  0  0  0  0  0  0  0  # atno 10763 bound_to 10752
  154.8106  135.3293  154.7316 H   0  0  0  0  0  0  0  0  0  0  0  0  # atno 10764 bound_to 10752
  153.7768  135.6980  153.4951 H   0  0  0  0  0  0  0  0  0  0  0  0  # atno 10765 bound_to 10752
  140.0459  134.5807  155.9323 H   0  0  0  0  0  0  0  0  0  0  0  0  # atno 11005 bound_to 11000
  146.2660  139.6521  142.9329 LP  0  0  0  0  0  0  0  0  0  0  0  0  # atno 17320 bound_to 7965
  145.4790  141.0437  143.2656 LP  0  0  0  0  0  0  0  0  0  0  0  0  # atno 17321 bound_to 7965
  139.9913  144.6359  150.7811 LP  0  0  0  0  0  0  0  0  0  0  0  0  # atno 17342 bound_to 10162
  140.7502  143.2951  151.3225 LP  0  0  0  0  0  0  0  0  0  0  0  0  # atno 17343 bound_to 10162
  156.8921  130.9592  151.3587 LP  0  0  0  0  0  0  0  0  0  0  0  0  # atno 17370 bound_to 10713
  157.6117  130.8588  149.8962 LP  0  0  0  0  0  0  0  0  0  0  0  0  # atno 17371 bound_to 10713
  141.1906  133.6569  156.5421 LP  0  0  0  0  0  0  0  0  0  0  0  0  # atno 17394 bound_to 11000
  140.3995  134.7369  157.4771 LP  0  0  0  0  0  0  0  0  0  0  0  0  # atno 17395 bound_to 11000

$$$$
