AV-unprocessed.smi:1976|AV-procd|sdf|7985|dock1
  -GOLD-   2272010163D 1   1.00000     0.00000
 Structure written by MMmdl.
 45 47  0  0  0  0  0  0  0  0  2 V2000
  145.9901  134.6284  157.8046 O   0  0  0  0  0  0  0  0  0  0  0  0
  147.0993  135.1464  157.6694 C   0  0  0  0  0  0  0  0  0  0  0  0
  147.7416  135.9448  158.8122 C   0  0  0  0  0  0  0  0  0  0  0  0
  147.6509  135.2600  160.1122 N   0  0  0  0  0  0  0  0  0  0  0  0
  147.7456  133.8548  160.0940 C   0  0  0  0  0  0  0  0  0  0  0  0
  147.7021  133.1019  161.2093 C   0  0  0  0  0  0  0  0  0  0  0  0
  147.7649  131.5837  161.1464 C   0  0  0  0  0  0  0  0  0  0  0  0
  146.6330  131.0338  161.5866 F   0  0  0  0  0  0  0  0  0  0  0  0
  147.9760  131.1662  159.8976 F   0  0  0  0  0  0  0  0  0  0  0  0
  148.7665  131.1401  161.9048 F   0  0  0  0  0  0  0  0  0  0  0  0
  147.5142  133.8115  162.4595 C   0  0  0  0  0  0  0  0  0  0  0  0
  147.4188  135.1551  162.4945 C   0  0  0  0  0  0  0  0  0  0  0  0
  147.4973  135.9622  161.2747 C   0  0  0  0  0  0  0  0  0  0  0  0
  147.4303  137.1912  161.2968 O   0  0  0  0  0  0  0  0  0  0  0  0
  147.8201  135.0493  156.5418 N   0  0  0  0  0  0  0  0  0  0  0  0
  147.3944  134.3591  155.3277 C   0  0  2  0  0  0  0  0  0  0  0  0
  148.4552  133.4163  154.7716 C   0  0  0  0  0  0  0  0  0  0  0  0
  147.9939  133.2270  153.3251 C   0  0  0  0  0  0  0  0  0  0  0  0
  147.3710  134.5095  152.9224 N   0  3  1  0  0  0  0  0  0  0  0  0
  146.1969  134.3682  152.0270 C   0  0  0  0  0  0  0  0  0  0  0  0
  145.6347  135.7484  151.6372 C   0  0  0  0  0  0  0  0  0  0  0  0
  145.4415  136.6887  152.8449 C   0  0  0  0  0  0  0  0  0  0  0  0
  145.7521  135.9958  154.1797 C   0  0  0  0  0  0  0  0  0  0  0  0
  147.1428  135.3202  154.1524 C   0  0  1  0  0  0  0  0  0  0  0  0
  148.7787  136.1565  158.5471 H   0  0  0  0  0  0  0  0  0  0  0  0
  147.2623  136.9229  158.8814 H   0  0  0  0  0  0  0  0  0  0  0  0
  147.8635  133.4263  159.1090 H   0  0  0  0  0  0  0  0  0  0  0  0
  147.4531  133.2588  163.3854 H   0  0  0  0  0  0  0  0  0  0  0  0
  147.2823  135.6511  163.4444 H   0  0  0  0  0  0  0  0  0  0  0  0
  148.7267  135.4938  156.5217 H   0  0  0  0  0  0  0  0  0  0  0  0
  146.4952  133.7708  155.5242 H   0  0  0  0  0  0  0  0  0  0  0  0
  149.4377  133.8910  154.7908 H   0  0  0  0  0  0  0  0  0  0  0  0
  148.5215  132.4764  155.3208 H   0  0  0  0  0  0  0  0  0  0  0  0
  148.8122  132.9555  152.6578 H   0  0  0  0  0  0  0  0  0  0  0  0
  147.2544  132.4253  153.2873 H   0  0  0  0  0  0  0  0  0  0  0  0
  146.4853  133.8173  151.1310 H   0  0  0  0  0  0  0  0  0  0  0  0
  145.4267  133.7763  152.5244 H   0  0  0  0  0  0  0  0  0  0  0  0
  146.3066  136.2237  150.9216 H   0  0  0  0  0  0  0  0  0  0  0  0
  144.6866  135.6165  151.1149 H   0  0  0  0  0  0  0  0  0  0  0  0
  146.0977  137.5529  152.7337 H   0  0  0  0  0  0  0  0  0  0  0  0
  144.4249  137.0828  152.8573 H   0  0  0  0  0  0  0  0  0  0  0  0
  145.7032  136.7234  154.9902 H   0  0  0  0  0  0  0  0  0  0  0  0
  144.9783  135.2565  154.3906 H   0  0  0  0  0  0  0  0  0  0  0  0
  147.9121  136.0942  154.1475 H   0  0  0  0  0  0  0  0  0  0  0  0
  148.0677  135.0145  152.3936 H   0  0  0  0  0  0  0  0  0  0  0  0
  1  2  2  0  0  0  0
  2  3  1  0  0  0  0
  2 15  1  0  0  0  0
  3  4  1  0  0  0  0
  3 25  1  0  0  0  0
  3 26  1  0  0  0  0
  4 13  1  0  0  0  0
  4  5  1  0  0  0  0
  5  6  2  0  0  0  0
  5 27  1  0  0  0  0
  6  7  1  0  0  0  0
  6 11  1  0  0  0  0
  7  8  1  0  0  0  0
  7  9  1  0  0  0  0
  7 10  1  0  0  0  0
 11 12  2  0  0  0  0
 11 28  1  0  0  0  0
 12 13  1  0  0  0  0
 12 29  1  0  0  0  0
 13 14  2  0  0  0  0
 15 16  1  0  0  0  0
 15 30  1  0  0  0  0
 16 24  1  0  0  0  0
 16 17  1  0  0  0  0
 16 31  1  0  0  0  0
 17 18  1  0  0  0  0
 17 32  1  0  0  0  0
 17 33  1  0  0  0  0
 18 19  1  0  0  0  0
 18 34  1  0  0  0  0
 18 35  1  0  0  0  0
 19 24  1  0  0  0  0
 19 20  1  0  0  0  0
 19 45  1  0  0  0  0
 20 21  1  0  0  0  0
 20 36  1  0  0  0  0
 20 37  1  0  0  0  0
 21 22  1  0  0  0  0
 21 38  1  0  0  0  0
 21 39  1  0  0  0  0
 22 23  1  0  0  0  0
 22 40  1  0  0  0  0
 22 41  1  0  0  0  0
 23 24  1  0  0  0  0
 23 42  1  0  0  0  0
 23 43  1  0  0  0  0
 24 44  1  0  0  0  0
M  CHG  1  19   1
M  END
> <s_m_source_file>
AV-unprocessed.smi

> <i_m_source_file_index>
1976

> <i_lp_mmshare_version>
43012

> <i_f3d_flags>
0

> <s_epik_input>
W0NIMl0xW0NIMl1bQ0gyXVtDSDJdW0NASF0oTjEyKVtDQEBIXShbQ0gyXVtDSDJdMilbTkhdQyg9TylbQ0gyXW4zW2NIXWMoQyhGKShGKUYpW2NIXVtjSF1jMz1P

> <s_epik_cmdline>
J2VwaWtfcHl0aG9uJywgJy1waCcsICc3LjAnLCAnLXRuJywgJzgnLCAnLW1hJywgJzIwMCcsICctbWV0YWxfYmluZGluZycsICctaW1hZScsICc8aW5maWxlLm1hZT4nLCAnLW9tYWUnLCAnPG91dGZpbGUubWFlPic=

> <r_lp_tautomer_probability>
1

> <r_epik_Ionization_Penalty>
0.00171506

> <r_epik_Ionization_Penalty_Charging>
0.00171498

> <r_epik_Ionization_Penalty_Neutral>
7.81737e-08

> <r_epik_State_Penalty>
0.00115937

> <r_epik_Charging_Adjusted_Penalty>
0.00287436

> <i_epik_Tot_Q>
1

> <i_epik_Tot_abs_Q>
1

> <r_epik_Metal_State_Penalty>
-0

> <b_epik_Metal_Only>
0

> <s_lp_Force_Field>
OPLS_2005

> <r_lp_Energy>
51.6

> <b_lp_Chiralities_Consistent>
1

> <s_lp_Variant>
AV-unprocessed.smi:1976-3

> <Gold.Version>
5.8.1

> <Gold.Id.Protein>
6NUR|6NUR_protein|mol2

> <Gold.PLP.Fitness>
43.6838

> <Gold.PLP.PLP>
-34.9306

> <Gold.PLP.part.hbond>
-3.0000

> <Gold.PLP.part.metal>
0.0000

> <Gold.PLP.part.buried>
-2.8284

> <Gold.PLP.part.nonpolar>
-28.9511

> <Gold.PLP.part.repulsive>
0.0000

> <Gold.PLP.ligand.clash>
1.6033

> <Gold.PLP.ligand.torsion>
0.6447

> <Gold.PLP.Chemscore.Hbond>
3.8560

> <Gold.PLP.Chemscore.CHOScore>
0.0000

> <Gold.PLP.Chemscore.Metal>
0.0000

> <Gold.Chemscore.Hbonds>
donor molecule, donor type, donor heavy atom, donor atom, acceptor molecule, acceptor atom, score
      L1  H    19    45       P1  7948  2.00
      P1  H  6931  6943       L1    14  0.90
      P1  H  6934  6947       L1    14  0.96

> <Gold.PLP.Chemscore.Internal.Correction>
0.0778

> <Gold.Rescore>
     Score         DG    S(hbond)    S(metal)    S(lipo)     H(rot)  DE(clash)    DE(int)     intcor
     17.37     -17.89       2.77        0.00      61.65       1.58       0.00       0.52       ----

> <Gold.Chemscore.Fitness>
17.3658

> <Gold.Chemscore.DG>
-17.8934

> <Gold.Chemscore.ZeroCoef>
-5.4800

> <Gold.Chemscore.Hbond>
2.7703

> <Gold.Chemscore.Metal>
0.0000

> <Gold.Chemscore.Lipo>
61.6488

> <Gold.Chemscore.Internal_Hbond>
0.0000

> <Gold.Chemscore.DEClash>
0.0048

> <Gold.Chemscore.DEInternal>
0.5228

> <Gold.Chemscore.Rot>
1.5830

> <Gold.Chemscore.Internal.Correction>
   9.000000E+99

> <Gold.Chemscore.Hbonds>
donor molecule, donor type, donor heavy atom, donor atom, acceptor molecule, acceptor atom, score
      L1  H    19    45       P1  7948  0.75
      P1  H  6931  6943       L1    14  0.82
      P1  H  6934  6947       L1    14  0.92

> <Gold.Chemscore.Hbond.Weighted>
-9.2529

> <Gold.Chemscore.Metal.Weighted>
-0.0000

> <Gold.Chemscore.Lipo.Weighted>
-7.2129

> <Gold.Chemscore.Internal_Hbond.Weighted>
0.0000

> <Gold.Chemscore.DEClash.Weighted>
0.0048

> <Gold.Chemscore.DEInternal.Weighted>
0.5228

> <Gold.Chemscore.Rot.Weighted>
4.0524

> <Gold.Chemscore.Internal.Correction.Weighted>
   9.000000E+99

> <Gold.Protein.RotatedTorsions>
[ 6907 6896 6895 6894 ] final  -41.88 input  -60.11 | X-H torsion
[ 7974 7965 7964 7962 ] final  125.60 input  175.53 | X-H torsion
[ 8008 7997 7996 7995 ] final  167.41 input   59.86 | X-H torsion
[ 10167 10162 10161 10158 ] final   82.28 input  -65.29 | X-H torsion
[ 10718 10713 10712 10709 ] final  -33.63 input   66.30 | X-H torsion
[ 10763 10752 10751 10750 ] final -149.61 input  -60.55 | X-H torsion
[ 11005 11000 10999 10996 ] final -171.14 input  -57.11 | X-H torsion

> <Gold.Protein.ActiveResidues>
 VAL166  LYS551  ARG553  GLY616  TRP617  ASP618  TYR619  PRO620  LYS621  CYS622 
 ASP623  PHE694  ASN695  SER759  ASP760  ASP761  ALA762  ILE779  LEU786  VAL792 
 PHE793  MET794  SER795  GLU796  ALA797  LYS798  CYS799  TRP800  GLU811  SER814 

> <Gold.Protein.RotatedAtoms>
  150.9616  134.9003  159.7733 H   0  0  0  0  0  0  0  0  0  0  0  0  # atno 6907 bound_to 6896
  152.5158  134.3665  159.9313 H   0  0  0  0  0  0  0  0  0  0  0  0  # atno 6908 bound_to 6896
  151.3677  133.3825  159.2731 H   0  0  0  0  0  0  0  0  0  0  0  0  # atno 6909 bound_to 6896
  145.0711  139.3729  143.4957 H   0  0  0  0  0  0  0  0  0  0  0  0  # atno 7974 bound_to 7965
  156.1636  140.1617  156.8570 H   0  0  0  0  0  0  0  0  0  0  0  0  # atno 8008 bound_to 7997
  154.5185  140.0784  156.8162 H   0  0  0  0  0  0  0  0  0  0  0  0  # atno 8009 bound_to 7997
  155.3657  140.3397  155.4244 H   0  0  0  0  0  0  0  0  0  0  0  0  # atno 8010 bound_to 7997
  139.9304  144.6155  150.8350 H   0  0  0  0  0  0  0  0  0  0  0  0  # atno 10167 bound_to 10162
  156.3603  130.4322  149.7629 H   0  0  0  0  0  0  0  0  0  0  0  0  # atno 10718 bound_to 10713
  154.8167  135.3305  154.7156 H   0  0  0  0  0  0  0  0  0  0  0  0  # atno 10763 bound_to 10752
  153.7795  135.6919  153.4895 H   0  0  0  0  0  0  0  0  0  0  0  0  # atno 10764 bound_to 10752
  153.1990  135.4523  155.0190 H   0  0  0  0  0  0  0  0  0  0  0  0  # atno 10765 bound_to 10752
  140.5115  134.5797  157.5020 H   0  0  0  0  0  0  0  0  0  0  0  0  # atno 11005 bound_to 11000
  146.3528  140.0457  142.8639 LP  0  0  0  0  0  0  0  0  0  0  0  0  # atno 17320 bound_to 7965
  145.1291  140.9507  143.4555 LP  0  0  0  0  0  0  0  0  0  0  0  0  # atno 17321 bound_to 7965
  140.7639  143.3234  151.2570 LP  0  0  0  0  0  0  0  0  0  0  0  0  # atno 17342 bound_to 10162
  139.6787  143.9893  152.2796 LP  0  0  0  0  0  0  0  0  0  0  0  0  # atno 17343 bound_to 10162
  156.4796  130.8035  151.3049 LP  0  0  0  0  0  0  0  0  0  0  0  0  # atno 17370 bound_to 10713
  157.7472  131.0010  150.2946 LP  0  0  0  0  0  0  0  0  0  0  0  0  # atno 17371 bound_to 10713
  139.9656  134.7379  156.0146 LP  0  0  0  0  0  0  0  0  0  0  0  0  # atno 17394 bound_to 11000
  141.1383  133.6570  156.3656 LP  0  0  0  0  0  0  0  0  0  0  0  0  # atno 17395 bound_to 11000

$$$$
