AV-unprocessed.smi:1633|AV-procd|sdf|6532|dock10
  -GOLD-   22720 7213D 1   1.00000     0.00000
 Structure written by MMmdl.
 51 53  0  0  0  0  0  0  0  0  2 V2000
  147.5307  135.1368  158.0925 C   0  0  0  0  0  0  0  0  0  0  0  0
  148.8883  135.1171  157.3866 C   0  0  0  0  0  0  0  0  0  0  0  0
  149.8633  134.7131  158.0196 O   0  0  0  0  0  0  0  0  0  0  0  0
  148.9750  135.5393  156.1025 N   0  0  0  0  0  0  0  0  0  0  0  0
  150.2424  135.5932  155.3684 C   0  0  0  0  0  0  0  0  0  0  0  0
  150.5976  137.0634  155.0831 C   0  0  0  0  0  0  0  0  0  0  0  0
  149.4986  137.7566  154.3594 N   0  3  0  0  0  0  0  0  0  0  0  0
  149.8348  139.1686  154.0430 C   0  0  0  0  0  0  0  0  0  0  0  0
  149.1505  140.1703  154.9939 C   0  0  2  0  0  0  0  0  0  0  0  0
  147.9680  140.6415  154.3762 O   0  0  0  0  0  0  0  0  0  0  0  0
  150.0662  141.3650  155.3234 C   0  0  0  0  0  0  0  0  0  0  0  0
  151.0328  141.0489  156.3599 N   0  0  0  0  0  0  0  0  0  0  0  0
  151.8712  139.9951  156.3908 C   0  0  0  0  0  0  0  0  0  0  0  0
  152.6724  139.8854  157.4461 N   0  0  0  0  0  0  0  0  0  0  0  0
  152.3154  141.0001  158.1854 C   0  0  0  0  0  0  0  0  0  0  0  0
  152.7922  141.4665  159.4298 C   0  0  0  0  0  0  0  0  0  0  0  0
  152.2717  142.6453  160.0099 C   0  0  0  0  0  0  0  0  0  0  0  0
  152.8105  143.1083  161.3518 C   0  0  0  0  0  0  0  0  0  0  0  0
  151.2594  143.3795  159.3407 C   0  0  0  0  0  0  0  0  0  0  0  0
  150.6871  144.6505  159.9434 C   0  0  0  0  0  0  0  0  0  0  0  0
  150.7712  142.9272  158.0971 C   0  0  0  0  0  0  0  0  0  0  0  0
  151.2948  141.7509  157.5319 C   0  0  0  0  0  0  0  0  0  0  0  0
  148.1780  137.5913  155.0279 C   0  0  0  0  0  0  0  0  0  0  0  0
  147.8760  136.1094  155.3168 C   0  0  0  0  0  0  0  0  0  0  0  0
  147.1345  136.1514  158.1440 H   0  0  0  0  0  0  0  0  0  0  0  0
  147.6234  134.7633  159.1128 H   0  0  0  0  0  0  0  0  0  0  0  0
  146.8145  134.5013  157.5707 H   0  0  0  0  0  0  0  0  0  0  0  0
  151.0641  135.1129  155.9014 H   0  0  0  0  0  0  0  0  0  0  0  0
  150.1360  135.0441  154.4316 H   0  0  0  0  0  0  0  0  0  0  0  0
  150.7986  137.5850  156.0204 H   0  0  0  0  0  0  0  0  0  0  0  0
  151.5129  137.1069  154.4911 H   0  0  0  0  0  0  0  0  0  0  0  0
  150.9182  139.2955  154.0659 H   0  0  0  0  0  0  0  0  0  0  0  0
  149.5236  139.3971  153.0221 H   0  0  0  0  0  0  0  0  0  0  0  0
  148.8761  139.6816  155.9283 H   0  0  0  0  0  0  0  0  0  0  0  0
  147.7103  140.0230  153.7087 H   0  0  0  0  0  0  0  0  0  0  0  0
  150.6128  141.6776  154.4324 H   0  0  0  0  0  0  0  0  0  0  0  0
  149.4779  142.2257  155.6442 H   0  0  0  0  0  0  0  0  0  0  0  0
  151.8905  139.2640  155.5959 H   0  0  0  0  0  0  0  0  0  0  0  0
  153.5638  140.9073  159.9385 H   0  0  0  0  0  0  0  0  0  0  0  0
  153.2774  144.0887  161.2575 H   0  0  0  0  0  0  0  0  0  0  0  0
  153.5586  142.4170  161.7408 H   0  0  0  0  0  0  0  0  0  0  0  0
  152.0062  143.1760  162.0846 H   0  0  0  0  0  0  0  0  0  0  0  0
  149.9406  145.1006  159.2882 H   0  0  0  0  0  0  0  0  0  0  0  0
  151.4753  145.3859  160.1059 H   0  0  0  0  0  0  0  0  0  0  0  0
  150.2089  144.4376  160.8997 H   0  0  0  0  0  0  0  0  0  0  0  0
  149.9981  143.4753  157.5790 H   0  0  0  0  0  0  0  0  0  0  0  0
  148.1712  138.1564  155.9614 H   0  0  0  0  0  0  0  0  0  0  0  0
  147.3831  137.9991  154.4053 H   0  0  0  0  0  0  0  0  0  0  0  0
  147.7890  135.5585  154.3791 H   0  0  0  0  0  0  0  0  0  0  0  0
  146.9023  136.0222  155.7962 H   0  0  0  0  0  0  0  0  0  0  0  0
  149.4264  137.2863  153.4679 H   0  0  0  0  0  0  0  0  0  0  0  0
  1  2  1  0  0  0  0
  1 25  1  0  0  0  0
  1 26  1  0  0  0  0
  1 27  1  0  0  0  0
  2  3  2  0  0  0  0
  2  4  1  0  0  0  0
  4 24  1  0  0  0  0
  4  5  1  0  0  0  0
  5  6  1  0  0  0  0
  5 28  1  0  0  0  0
  5 29  1  0  0  0  0
  6  7  1  0  0  0  0
  6 30  1  0  0  0  0
  6 31  1  0  0  0  0
  7  8  1  0  0  0  0
  7 23  1  0  0  0  0
  7 51  1  0  0  0  0
  8  9  1  0  0  0  0
  8 32  1  0  0  0  0
  8 33  1  0  0  0  0
  9 10  1  0  0  0  0
  9 11  1  0  0  0  0
  9 34  1  0  0  0  0
 10 35  1  0  0  0  0
 11 12  1  0  0  0  0
 11 36  1  0  0  0  0
 11 37  1  0  0  0  0
 12 22  1  0  0  0  0
 12 13  1  0  0  0  0
 13 14  2  0  0  0  0
 13 38  1  0  0  0  0
 14 15  1  0  0  0  0
 15 22  2  0  0  0  0
 15 16  1  0  0  0  0
 16 17  2  0  0  0  0
 16 39  1  0  0  0  0
 17 18  1  0  0  0  0
 17 19  1  0  0  0  0
 18 40  1  0  0  0  0
 18 41  1  0  0  0  0
 18 42  1  0  0  0  0
 19 20  1  0  0  0  0
 19 21  2  0  0  0  0
 20 43  1  0  0  0  0
 20 44  1  0  0  0  0
 20 45  1  0  0  0  0
 21 22  1  0  0  0  0
 21 46  1  0  0  0  0
 23 24  1  0  0  0  0
 23 47  1  0  0  0  0
 23 48  1  0  0  0  0
 24 49  1  0  0  0  0
 24 50  1  0  0  0  0
M  CHG  1   7   1
M  END
> <s_m_source_file>
AV-unprocessed.smi

> <i_m_source_file_index>
1633

> <i_lp_mmshare_version>
43012

> <i_f3d_flags>
0

> <s_epik_input>
W0NIM11DKD1PKU4xW0NIMl1bQ0gyXU4oW0NIMl1bQ0gyXTEpW0NIMl1bQ0BIXShbT0hdKVtDSDJdbihbY0hdbjIpYyhjMjMpW2NIXWMoW0NIM10pYyhbY0hdMylbQ0gzXQ==

> <s_epik_cmdline>
J2VwaWtfcHl0aG9uJywgJy1waCcsICc3LjAnLCAnLXRuJywgJzgnLCAnLW1hJywgJzIwMCcsICctbWV0YWxfYmluZGluZycsICctaW1hZScsICc8aW5maWxlLm1hZT4nLCAnLW9tYWUnLCAnPG91dGZpbGUubWFlPic=

> <r_epik_Ionization_Penalty>
0.0939669

> <r_epik_Ionization_Penalty_Charging>
0.00645254

> <r_epik_Ionization_Penalty_Neutral>
0.0875144

> <r_epik_State_Penalty>
0.0777239

> <r_epik_Charging_Adjusted_Penalty>
0.0841764

> <i_epik_Tot_Q>
1

> <i_epik_Tot_abs_Q>
1

> <r_epik_Metal_State_Penalty>
7.71307e-05

> <b_epik_Metal_Only>
0

> <s_lp_Force_Field>
OPLS_2005

> <r_lp_Energy>
43.6945

> <b_lp_Chiralities_Consistent>
1

> <s_lp_Variant>
AV-unprocessed.smi:1633-1

> <Gold.Version>
5.8.1

> <Gold.Id.Protein>
6NUR|6NUR_protein|mol2

> <Gold.PLP.Fitness>
50.3368

> <Gold.PLP.PLP>
-40.8617

> <Gold.PLP.part.hbond>
-3.0000

> <Gold.PLP.part.metal>
0.0000

> <Gold.PLP.part.buried>
-4.3465

> <Gold.PLP.part.nonpolar>
-33.3094

> <Gold.PLP.part.repulsive>
0.0094

> <Gold.PLP.ligand.clash>
0.0000

> <Gold.PLP.ligand.torsion>
1.2991

> <Gold.PLP.Chemscore.Hbond>
4.0000

> <Gold.PLP.Chemscore.CHOScore>
0.0000

> <Gold.PLP.Chemscore.Metal>
0.0000

> <Gold.Chemscore.Hbonds>
donor molecule, donor type, donor heavy atom, donor atom, acceptor molecule, acceptor atom, score
      L1  H     7    51       P1  7948  2.00
      P1  H  6896  6907       L1     3  1.00
      P1  H  7997  8008       L1    14  0.95

> <Gold.PLP.Chemscore.Internal.Correction>
0.0733

> <Gold.Rescore>
     Score         DG    S(hbond)    S(metal)    S(lipo)     H(rot)  DE(clash)    DE(int)     intcor
     19.73     -21.41       2.81        0.00     103.19       2.16       0.57       1.12       ----

> <Gold.Chemscore.Fitness>
19.7253

> <Gold.Chemscore.DG>
-21.4131

> <Gold.Chemscore.ZeroCoef>
-5.4800

> <Gold.Chemscore.Hbond>
2.8118

> <Gold.Chemscore.Metal>
0.0000

> <Gold.Chemscore.Lipo>
103.1912

> <Gold.Chemscore.Internal_Hbond>
0.0000

> <Gold.Chemscore.DEClash>
0.5713

> <Gold.Chemscore.DEInternal>
1.1164

> <Gold.Chemscore.Rot>
2.1608

> <Gold.Chemscore.Internal.Correction>
   9.000000E+99

> <Gold.Chemscore.Hbonds>
donor molecule, donor type, donor heavy atom, donor atom, acceptor molecule, acceptor atom, score
      L1  H     7    51       P1  7948  0.93
      P1  H  6896  6907       L1     3  0.95
      P1  H  7997  8008       L1    14  0.17

> <Gold.Chemscore.Hbond.Weighted>
-9.3914

> <Gold.Chemscore.Metal.Weighted>
-0.0000

> <Gold.Chemscore.Lipo.Weighted>
-12.0734

> <Gold.Chemscore.Internal_Hbond.Weighted>
0.0000

> <Gold.Chemscore.DEClash.Weighted>
0.5713

> <Gold.Chemscore.DEInternal.Weighted>
1.1164

> <Gold.Chemscore.Rot.Weighted>
5.5317

> <Gold.Chemscore.Internal.Correction.Weighted>
   9.000000E+99

> <Gold.Protein.RotatedTorsions>
[ 6907 6896 6895 6894 ] final  -91.44 input  -60.11 | X-H torsion
[ 7974 7965 7964 7962 ] final -167.02 input  175.53 | X-H torsion
[ 8008 7997 7996 7995 ] final  -55.40 input   59.86 | X-H torsion
[ 10167 10162 10161 10158 ] final   69.55 input  -65.29 | X-H torsion
[ 10718 10713 10712 10709 ] final  -40.13 input   66.30 | X-H torsion
[ 10763 10752 10751 10750 ] final -145.51 input  -60.55 | X-H torsion
[ 11005 11000 10999 10996 ] final -174.68 input  -57.11 | X-H torsion

> <Gold.Protein.ActiveResidues>
 VAL166  LYS551  ARG553  GLY616  TRP617  ASP618  TYR619  PRO620  LYS621  CYS622 
 ASP623  PHE694  ASN695  SER759  ASP760  ASP761  ALA762  ILE779  LEU786  VAL792 
 PHE793  MET794  SER795  GLU796  ALA797  LYS798  CYS799  TRP800  GLU811  SER814 

> <Gold.Protein.RotatedAtoms>
  150.6892  134.2277  159.4421 H   0  0  0  0  0  0  0  0  0  0  0  0  # atno 6907 bound_to 6896
  152.0229  134.9810  160.0580 H   0  0  0  0  0  0  0  0  0  0  0  0  # atno 6908 bound_to 6896
  152.1380  133.4412  159.4789 H   0  0  0  0  0  0  0  0  0  0  0  0  # atno 6909 bound_to 6896
  144.7232  140.2580  143.6269 H   0  0  0  0  0  0  0  0  0  0  0  0  # atno 7974 bound_to 7965
  154.4194  140.1154  156.5470 H   0  0  0  0  0  0  0  0  0  0  0  0  # atno 8008 bound_to 7997
  155.6449  140.3496  155.4708 H   0  0  0  0  0  0  0  0  0  0  0  0  # atno 8009 bound_to 7997
  155.9841  140.1166  157.0689 H   0  0  0  0  0  0  0  0  0  0  0  0  # atno 8010 bound_to 7997
  140.0665  144.5188  150.7257 H   0  0  0  0  0  0  0  0  0  0  0  0  # atno 10167 bound_to 10162
  156.2847  130.4221  149.8300 H   0  0  0  0  0  0  0  0  0  0  0  0  # atno 10718 bound_to 10713
  154.8380  135.3411  154.6515 H   0  0  0  0  0  0  0  0  0  0  0  0  # atno 10763 bound_to 10752
  153.7128  135.6963  153.5037 H   0  0  0  0  0  0  0  0  0  0  0  0  # atno 10764 bound_to 10752
  153.2439  135.4375  155.0680 H   0  0  0  0  0  0  0  0  0  0  0  0  # atno 10765 bound_to 10752
  140.4717  134.6159  157.4885 H   0  0  0  0  0  0  0  0  0  0  0  0  # atno 11005 bound_to 11000
  145.8164  139.2025  143.1963 LP  0  0  0  0  0  0  0  0  0  0  0  0  # atno 17320 bound_to 7965
  146.0552  140.8028  142.9762 LP  0  0  0  0  0  0  0  0  0  0  0  0  # atno 17321 bound_to 7965
  140.7146  143.2534  151.4474 LP  0  0  0  0  0  0  0  0  0  0  0  0  # atno 17342 bound_to 10162
  139.5862  144.1600  152.2031 LP  0  0  0  0  0  0  0  0  0  0  0  0  # atno 17343 bound_to 10162
  156.5735  130.8435  151.3363 LP  0  0  0  0  0  0  0  0  0  0  0  0  # atno 17370 bound_to 10713
  157.7325  130.9716  150.1931 LP  0  0  0  0  0  0  0  0  0  0  0  0  # atno 17371 bound_to 10713
  139.9881  134.7029  155.9738 LP  0  0  0  0  0  0  0  0  0  0  0  0  # atno 17394 bound_to 11000
  141.1573  133.6541  156.4204 LP  0  0  0  0  0  0  0  0  0  0  0  0  # atno 17395 bound_to 11000

$$$$
