AV-unprocessed.smi:2198|AV-procd|sdf|8917|dock4
  -GOLD-   2272012133D 1   1.00000     0.00000
 Structure written by MMmdl.
 43 44  0  0  0  0  0  0  0  0  1 V2000
  143.7079  141.4650  157.5148 C   0  0  0  0  0  0  0  0  0  0  0  0
  145.0202  141.4193  156.7624 C   0  0  0  0  0  0  0  0  0  0  0  0
  145.0579  142.2544  155.6582 N   0  0  0  0  0  0  0  0  0  0  0  0
  146.2209  142.2855  154.9090 C   0  0  0  0  0  0  0  0  0  0  0  0
  146.1805  143.2318  153.7217 C   0  0  0  0  0  0  0  0  0  0  0  0
  147.2903  141.5176  155.2396 C   0  0  0  0  0  0  0  0  0  0  0  0
  148.5908  141.5217  154.4386 C   0  0  0  0  0  0  0  0  0  0  0  0
  149.8700  141.4447  155.2738 C   0  0  0  0  0  0  0  0  0  0  0  0
  150.6644  140.5214  155.0974 O   0  0  0  0  0  0  0  0  0  0  0  0
  150.0601  142.4232  156.1723 N   0  0  0  0  0  0  0  0  0  0  0  0
  151.2186  142.5503  157.0507 C   0  0  2  0  0  0  0  0  0  0  0  0
  151.3515  141.3111  157.9580 C   0  0  0  0  0  0  0  0  0  0  0  0
  152.5212  141.4637  158.9422 C   0  0  0  0  0  0  0  0  0  0  0  0
  152.3871  142.7480  159.7755 C   0  0  0  0  0  0  0  0  0  0  0  0
  152.2623  143.9935  158.8773 C   0  0  2  0  0  0  0  0  0  0  0  0
  152.1253  145.2755  159.7107 C   0  0  0  0  0  0  0  0  0  0  0  0
  151.0867  143.8326  157.8935 C   0  0  0  0  0  0  0  0  0  0  0  0
  147.1862  140.6358  156.4265 C   0  0  0  0  0  0  0  0  0  0  0  0
  148.1142  139.9045  156.7694 O   0  0  0  0  0  0  0  0  0  0  0  0
  145.9875  140.6490  157.1580 N   0  0  0  0  0  0  0  0  0  0  0  0
  144.2845  142.8391  155.3759 H   0  0  0  0  0  0  0  0  0  0  0  0
  143.7625  140.8748  158.4304 H   0  0  0  0  0  0  0  0  0  0  0  0
  142.9033  141.0637  156.8980 H   0  0  0  0  0  0  0  0  0  0  0  0
  143.4588  142.4911  157.7867 H   0  0  0  0  0  0  0  0  0  0  0  0
  146.9572  143.9913  153.8113 H   0  0  0  0  0  0  0  0  0  0  0  0
  145.2205  143.7446  153.6494 H   0  0  0  0  0  0  0  0  0  0  0  0
  146.3371  142.6847  152.7919 H   0  0  0  0  0  0  0  0  0  0  0  0
  148.6515  142.4069  153.8048 H   0  0  0  0  0  0  0  0  0  0  0  0
  148.5678  140.6862  153.7379 H   0  0  0  0  0  0  0  0  0  0  0  0
  149.3531  143.1402  156.2468 H   0  0  0  0  0  0  0  0  0  0  0  0
  152.1201  142.6393  156.4410 H   0  0  0  0  0  0  0  0  0  0  0  0
  150.4265  141.1596  158.5162 H   0  0  0  0  0  0  0  0  0  0  0  0
  151.4982  140.4150  157.3538 H   0  0  0  0  0  0  0  0  0  0  0  0
  152.5676  140.5962  159.6012 H   0  0  0  0  0  0  0  0  0  0  0  0
  153.4615  141.4828  158.3900 H   0  0  0  0  0  0  0  0  0  0  0  0
  151.5134  142.6707  160.4243 H   0  0  0  0  0  0  0  0  0  0  0  0
  153.2516  142.8473  160.4328 H   0  0  0  0  0  0  0  0  0  0  0  0
  153.1797  144.0791  158.2928 H   0  0  0  0  0  0  0  0  0  0  0  0
  151.2226  145.2572  160.3222 H   0  0  0  0  0  0  0  0  0  0  0  0
  152.0758  146.1567  159.0703 H   0  0  0  0  0  0  0  0  0  0  0  0
  152.9776  145.4023  160.3788 H   0  0  0  0  0  0  0  0  0  0  0  0
  151.0361  144.7007  157.2347 H   0  0  0  0  0  0  0  0  0  0  0  0
  150.1475  143.8124  158.4486 H   0  0  0  0  0  0  0  0  0  0  0  0
  1 22  1  0  0  0  0
  1 23  1  0  0  0  0
  1 24  1  0  0  0  0
  1  2  1  0  0  0  0
  2  3  1  0  0  0  0
  2 20  2  0  0  0  0
  3  4  1  0  0  0  0
  3 21  1  0  0  0  0
  4  6  2  0  0  0  0
  4  5  1  0  0  0  0
  5 25  1  0  0  0  0
  5 26  1  0  0  0  0
  5 27  1  0  0  0  0
  6 18  1  0  0  0  0
  6  7  1  0  0  0  0
  7  8  1  0  0  0  0
  7 28  1  0  0  0  0
  7 29  1  0  0  0  0
  8  9  2  0  0  0  0
  8 10  1  0  0  0  0
 10 11  1  0  0  0  0
 10 30  1  0  0  0  0
 11 17  1  0  0  0  0
 11 12  1  0  0  0  0
 11 31  1  0  0  0  0
 12 13  1  0  0  0  0
 12 32  1  0  0  0  0
 12 33  1  0  0  0  0
 13 14  1  0  0  0  0
 13 34  1  0  0  0  0
 13 35  1  0  0  0  0
 14 15  1  0  0  0  0
 14 36  1  0  0  0  0
 14 37  1  0  0  0  0
 15 16  1  0  0  0  0
 15 17  1  0  0  0  0
 15 38  1  0  0  0  0
 16 39  1  0  0  0  0
 16 40  1  0  0  0  0
 16 41  1  0  0  0  0
 17 42  1  0  0  0  0
 17 43  1  0  0  0  0
 18 19  2  0  0  0  0
 18 20  1  0  0  0  0
M  END
> <s_m_source_file>
AV-unprocessed.smi

> <i_m_source_file_index>
2198

> <i_lp_mmshare_version>
43012

> <i_f3d_flags>
0

> <s_epik_input>
W0NIM11jMW5jKFtDSDNdKWMoYyg9TylbbkhdMSlbQ0gyXUMoPU8pW05IXVtDQEBIXTJbQ0gyXVtDSDJdW0NIMl1bQ0BASF0oW0NIM10pW0NIMl0y

> <s_epik_cmdline>
J2VwaWtfcHl0aG9uJywgJy1waCcsICc3LjAnLCAnLXRuJywgJzgnLCAnLW1hJywgJzIwMCcsICctbWV0YWxfYmluZGluZycsICctaW1hZScsICc8aW5maWxlLm1hZT4nLCAnLW9tYWUnLCAnPG91dGZpbGUubWFlPic=

> <r_lp_tautomer_probability>
0.156392

> <r_epik_Ionization_Penalty>
0.0136514

> <r_epik_Ionization_Penalty_Charging>
0.0135207

> <r_epik_Ionization_Penalty_Neutral>
0.000130657

> <r_epik_State_Penalty>
1.15342

> <r_epik_Charging_Adjusted_Penalty>
1.16694

> <i_epik_Tot_Q>
0

> <i_epik_Tot_abs_Q>
0

> <r_epik_Metal_State_Penalty>
1.31404

> <b_epik_Metal_Only>
0

> <s_lp_Force_Field>
OPLS_2005

> <r_lp_Energy>
14.0485

> <b_lp_Chiralities_Consistent>
1

> <s_lp_Variant>
AV-unprocessed.smi:2198-7

> <Gold.Version>
5.8.1

> <Gold.Id.Protein>
6NUR|6NUR_protein|mol2

> <Gold.PLP.Fitness>
43.6928

> <Gold.PLP.PLP>
-38.5477

> <Gold.PLP.part.hbond>
-2.0000

> <Gold.PLP.part.metal>
0.0000

> <Gold.PLP.part.buried>
-5.4727

> <Gold.PLP.part.nonpolar>
-30.7228

> <Gold.PLP.part.repulsive>
0.1758

> <Gold.PLP.ligand.clash>
0.0000

> <Gold.PLP.ligand.torsion>
0.2981

> <Gold.PLP.Chemscore.Hbond>
1.9120

> <Gold.PLP.Chemscore.CHOScore>
0.0000

> <Gold.PLP.Chemscore.Metal>
0.0000

> <Gold.Chemscore.Hbonds>
donor molecule, donor type, donor heavy atom, donor atom, acceptor molecule, acceptor atom, score
      L1  H    10    30       P1  8028  0.88
      P1  H  7989  7998       L1     9  1.00

> <Gold.PLP.Chemscore.Internal.Correction>
0.0054

> <Gold.Rescore>
     Score         DG    S(hbond)    S(metal)    S(lipo)     H(rot)  DE(clash)    DE(int)     intcor
     16.61     -18.28       1.62        0.00      95.65       1.48       0.12       1.55       ----

> <Gold.Chemscore.Fitness>
16.6096

> <Gold.Chemscore.DG>
-18.2768

> <Gold.Chemscore.ZeroCoef>
-5.4800

> <Gold.Chemscore.Hbond>
1.6154

> <Gold.Chemscore.Metal>
0.0000

> <Gold.Chemscore.Lipo>
95.6454

> <Gold.Chemscore.Internal_Hbond>
0.0000

> <Gold.Chemscore.DEClash>
0.1164

> <Gold.Chemscore.DEInternal>
1.5509

> <Gold.Chemscore.Rot>
1.4801

> <Gold.Chemscore.Internal.Correction>
   9.000000E+99

> <Gold.Chemscore.Hbonds>
donor molecule, donor type, donor heavy atom, donor atom, acceptor molecule, acceptor atom, score
      L1  H    10    30       P1  8028  0.87
      P1  H  7989  7998       L1     9  0.62

> <Gold.Chemscore.Hbond.Weighted>
-5.3954

> <Gold.Chemscore.Metal.Weighted>
-0.0000

> <Gold.Chemscore.Lipo.Weighted>
-11.1905

> <Gold.Chemscore.Internal_Hbond.Weighted>
0.0000

> <Gold.Chemscore.DEClash.Weighted>
0.1164

> <Gold.Chemscore.DEInternal.Weighted>
1.5509

> <Gold.Chemscore.Rot.Weighted>
3.7891

> <Gold.Chemscore.Internal.Correction.Weighted>
   9.000000E+99

> <Gold.Protein.RotatedTorsions>
[ 6907 6896 6895 6894 ] final  162.44 input  -60.11 | X-H torsion
[ 7974 7965 7964 7962 ] final   -3.98 input  175.53 | X-H torsion
[ 8008 7997 7996 7995 ] final  170.97 input   59.86 | X-H torsion
[ 10167 10162 10161 10158 ] final -129.16 input  -65.29 | X-H torsion
[ 10718 10713 10712 10709 ] final   39.32 input   66.30 | X-H torsion
[ 10763 10752 10751 10750 ] final  167.04 input  -60.55 | X-H torsion
[ 11005 11000 10999 10996 ] final  144.43 input  -57.11 | X-H torsion

> <Gold.Protein.ActiveResidues>
 VAL166  LYS551  ARG553  GLY616  TRP617  ASP618  TYR619  PRO620  LYS621  CYS622 
 ASP623  PHE694  ASN695  SER759  ASP760  ASP761  ALA762  ILE779  LEU786  VAL792 
 PHE793  MET794  SER795  GLU796  ALA797  LYS798  CYS799  TRP800  GLU811  SER814 

> <Gold.Protein.RotatedAtoms>
  151.9404  133.3636  159.3962 H   0  0  0  0  0  0  0  0  0  0  0  0  # atno 6907 bound_to 6896
  150.6999  134.4445  159.5317 H   0  0  0  0  0  0  0  0  0  0  0  0  # atno 6908 bound_to 6896
  152.2101  134.8509  160.0549 H   0  0  0  0  0  0  0  0  0  0  0  0  # atno 6909 bound_to 6896
  146.2380  140.1803  142.8332 H   0  0  0  0  0  0  0  0  0  0  0  0  # atno 7974 bound_to 7965
  156.1315  140.1524  156.9057 H   0  0  0  0  0  0  0  0  0  0  0  0  # atno 8008 bound_to 7997
  154.4913  140.0850  156.7641 H   0  0  0  0  0  0  0  0  0  0  0  0  # atno 8009 bound_to 7997
  155.4246  140.3424  155.4276 H   0  0  0  0  0  0  0  0  0  0  0  0  # atno 8010 bound_to 7997
  139.9427  143.6145  152.2499 H   0  0  0  0  0  0  0  0  0  0  0  0  # atno 10167 bound_to 10162
  157.3692  130.7692  149.7106 H   0  0  0  0  0  0  0  0  0  0  0  0  # atno 10718 bound_to 10713
  154.3479  135.2753  155.2387 H   0  0  0  0  0  0  0  0  0  0  0  0  # atno 10763 bound_to 10752
  154.4629  135.5902  153.6272 H   0  0  0  0  0  0  0  0  0  0  0  0  # atno 10764 bound_to 10752
  152.9852  135.6069  154.3687 H   0  0  0  0  0  0  0  0  0  0  0  0  # atno 10765 bound_to 10752
  140.0632  134.9193  157.1219 H   0  0  0  0  0  0  0  0  0  0  0  0  # atno 11005 bound_to 11000
  144.9940  140.8572  143.5322 LP  0  0  0  0  0  0  0  0  0  0  0  0  # atno 17320 bound_to 7965
  145.1813  139.2350  143.5291 LP  0  0  0  0  0  0  0  0  0  0  0  0  # atno 17321 bound_to 7965
  139.6692  144.7661  151.1815 LP  0  0  0  0  0  0  0  0  0  0  0  0  # atno 17342 bound_to 10162
  140.7606  143.5891  150.8815 LP  0  0  0  0  0  0  0  0  0  0  0  0  # atno 17343 bound_to 10162
  155.9752  130.4092  150.3865 LP  0  0  0  0  0  0  0  0  0  0  0  0  # atno 17370 bound_to 10713
  157.1954  131.0425  151.2678 LP  0  0  0  0  0  0  0  0  0  0  0  0  # atno 17371 bound_to 10713
  140.3739  134.2360  155.7176 LP  0  0  0  0  0  0  0  0  0  0  0  0  # atno 17394 bound_to 11000
  141.1982  133.8042  157.0595 LP  0  0  0  0  0  0  0  0  0  0  0  0  # atno 17395 bound_to 11000

$$$$
