AV-unprocessed.smi:1612|AV-procd|sdf|6477|dock10
  -GOLD-   22720 7143D 1   1.00000     0.00000
 Structure written by MMmdl.
 37 38  0  0  0  0  0  0  0  0  1 V2000
  147.6205  141.7625  153.9190 C   0  0  0  0  0  0  0  0  0  0  0  0
  148.1213  140.3616  154.3348 C   0  0  1  0  0  0  0  0  0  0  0  0
  147.7694  139.3270  153.3558 N   0  0  0  0  0  0  0  0  0  0  0  0
  146.7094  138.5010  153.3712 C   0  0  0  0  0  0  0  0  0  0  0  0
  145.8166  138.5453  154.2173 O   0  0  0  0  0  0  0  0  0  0  0  0
  146.7565  137.6389  152.3402 N   0  0  0  0  0  0  0  0  0  0  0  0
  145.8279  136.6168  152.0061 C   0  0  0  0  0  0  0  0  0  0  0  0
  145.0204  136.1690  153.0762 C   0  0  0  0  0  0  0  0  0  0  0  0
  144.0675  135.1573  152.8490 C   0  0  0  0  0  0  0  0  0  0  0  0
  143.9466  134.6177  151.5560 C   0  0  0  0  0  0  0  0  0  0  0  0
  144.7891  135.1194  150.5470 C   0  0  0  0  0  0  0  0  0  0  0  0
  145.7026  136.0894  150.7626 N   0  0  0  0  0  0  0  0  0  0  0  0
  149.6159  140.3094  154.7147 C   0  0  0  0  0  0  0  0  0  0  0  0
  150.3866  139.6488  154.0170 O   0  0  0  0  0  0  0  0  0  0  0  0
  150.0445  140.9762  155.8093 N   0  0  0  0  0  0  0  0  0  0  0  0
  151.4164  141.0230  156.3168 C   0  0  0  0  0  0  0  0  0  0  0  0
  151.4155  142.0792  157.4223 C   0  0  0  0  0  0  0  0  0  0  0  0
  149.9746  142.1058  157.9109 C   0  0  0  0  0  0  0  0  0  0  0  0
  149.1548  141.7554  156.6692 C   0  0  0  0  0  0  0  0  0  0  0  0
  147.7728  142.4819  154.7242 H   0  0  0  0  0  0  0  0  0  0  0  0
  146.5531  141.7464  153.6966 H   0  0  0  0  0  0  0  0  0  0  0  0
  148.1364  142.1505  153.0407 H   0  0  0  0  0  0  0  0  0  0  0  0
  147.5560  140.1127  155.2327 H   0  0  0  0  0  0  0  0  0  0  0  0
  148.4267  139.2066  152.5992 H   0  0  0  0  0  0  0  0  0  0  0  0
  147.5510  137.7203  151.7232 H   0  0  0  0  0  0  0  0  0  0  0  0
  145.1263  136.5948  154.0636 H   0  0  0  0  0  0  0  0  0  0  0  0
  143.4407  134.8020  153.6534 H   0  0  0  0  0  0  0  0  0  0  0  0
  143.2278  133.8404  151.3426 H   0  0  0  0  0  0  0  0  0  0  0  0
  144.7279  134.7324  149.5407 H   0  0  0  0  0  0  0  0  0  0  0  0
  151.6777  140.0466  156.7271 H   0  0  0  0  0  0  0  0  0  0  0  0
  152.1414  141.2743  155.5426 H   0  0  0  0  0  0  0  0  0  0  0  0
  152.1283  141.8599  158.2176 H   0  0  0  0  0  0  0  0  0  0  0  0
  151.6745  143.0508  156.9996 H   0  0  0  0  0  0  0  0  0  0  0  0
  149.8335  141.3372  158.6719 H   0  0  0  0  0  0  0  0  0  0  0  0
  149.6920  143.0641  158.3476 H   0  0  0  0  0  0  0  0  0  0  0  0
  148.8552  142.6610  156.1395 H   0  0  0  0  0  0  0  0  0  0  0  0
  148.2514  141.2040  156.9351 H   0  0  0  0  0  0  0  0  0  0  0  0
  1  2  1  0  0  0  0
  1 20  1  0  0  0  0
  1 21  1  0  0  0  0
  1 22  1  0  0  0  0
  2  3  1  0  0  0  0
  2 13  1  0  0  0  0
  2 23  1  0  0  0  0
  3  4  1  0  0  0  0
  3 24  1  0  0  0  0
  4  5  2  0  0  0  0
  4  6  1  0  0  0  0
  6  7  1  0  0  0  0
  6 25  1  0  0  0  0
  7 12  1  0  0  0  0
  7  8  2  0  0  0  0
  8  9  1  0  0  0  0
  8 26  1  0  0  0  0
  9 10  2  0  0  0  0
  9 27  1  0  0  0  0
 10 11  1  0  0  0  0
 10 28  1  0  0  0  0
 11 12  2  0  0  0  0
 11 29  1  0  0  0  0
 13 14  2  0  0  0  0
 13 15  1  0  0  0  0
 15 19  1  0  0  0  0
 15 16  1  0  0  0  0
 16 17  1  0  0  0  0
 16 30  1  0  0  0  0
 16 31  1  0  0  0  0
 17 18  1  0  0  0  0
 17 32  1  0  0  0  0
 17 33  1  0  0  0  0
 18 19  1  0  0  0  0
 18 34  1  0  0  0  0
 18 35  1  0  0  0  0
 19 36  1  0  0  0  0
 19 37  1  0  0  0  0
M  END
> <s_m_source_file>
AV-unprocessed.smi

> <i_m_source_file_index>
1612

> <i_lp_mmshare_version>
43012

> <i_f3d_flags>
0

> <s_epik_input>
W0NIMl0xW0NIMl1bQ0gyXVtDSDJdTjFDKD1PKVtDQEhdKFtDSDNdKVtOSF1DKD1PKVtOSF1jMltjSF1bY0hdW2NIXVtjSF1uMg==

> <s_epik_cmdline>
J2VwaWtfcHl0aG9uJywgJy1waCcsICc3LjAnLCAnLXRuJywgJzgnLCAnLW1hJywgJzIwMCcsICctbWV0YWxfYmluZGluZycsICctaW1hZScsICc8aW5maWxlLm1hZT4nLCAnLW9tYWUnLCAnPG91dGZpbGUubWFlPic=

> <r_lp_tautomer_probability>
1

> <r_epik_Ionization_Penalty>
3.95281e-05

> <r_epik_Ionization_Penalty_Charging>
0

> <r_epik_Ionization_Penalty_Neutral>
3.95281e-05

> <r_epik_State_Penalty>
-0

> <r_epik_Charging_Adjusted_Penalty>
0

> <i_epik_Tot_Q>
0

> <i_epik_Tot_abs_Q>
0

> <r_epik_Metal_State_Penalty>
-0

> <b_epik_Metal_Only>
0

> <s_lp_Force_Field>
OPLS_2005

> <r_lp_Energy>
35.1648

> <b_lp_Chiralities_Consistent>
1

> <s_lp_Variant>
AV-unprocessed.smi:1612-2

> <Gold.Version>
5.8.1

> <Gold.Id.Protein>
6NUR|6NUR_protein|mol2

> <Gold.PLP.Fitness>
39.7646

> <Gold.PLP.PLP>
-30.7384

> <Gold.PLP.part.hbond>
-3.0000

> <Gold.PLP.part.metal>
0.0000

> <Gold.PLP.part.buried>
-5.6965

> <Gold.PLP.part.nonpolar>
-23.5380

> <Gold.PLP.part.repulsive>
1.1941

> <Gold.PLP.ligand.clash>
0.0000

> <Gold.PLP.ligand.torsion>
0.5694

> <Gold.PLP.Chemscore.Hbond>
2.3413

> <Gold.PLP.Chemscore.CHOScore>
1.0000

> <Gold.PLP.Chemscore.Metal>
0.0000

> <Gold.Chemscore.Hbonds>
donor molecule, donor type, donor heavy atom, donor atom, acceptor molecule, acceptor atom, score
      L1  H     3    24       P1  7957  0.99
      L1  H     6    25       P1  7948  0.35
      P1  H  7989  7998       L1    14  1.00
      L1  C    11    29       P1  7921  1.00

> <Gold.PLP.Chemscore.Internal.Correction>
0.1411

> <Gold.Rescore>
     Score         DG    S(hbond)    S(metal)    S(lipo)     H(rot)  DE(clash)    DE(int)     intcor
     12.36     -14.68       1.94        0.00      51.65       1.30       0.18       2.13       ----

> <Gold.Chemscore.Fitness>
12.3645

> <Gold.Chemscore.DG>
-14.6826

> <Gold.Chemscore.ZeroCoef>
-5.4800

> <Gold.Chemscore.Hbond>
1.9436

> <Gold.Chemscore.Metal>
0.0000

> <Gold.Chemscore.Lipo>
51.6507

> <Gold.Chemscore.Internal_Hbond>
0.0000

> <Gold.Chemscore.DEClash>
0.1832

> <Gold.Chemscore.DEInternal>
2.1348

> <Gold.Chemscore.Rot>
1.3016

> <Gold.Chemscore.Internal.Correction>
   9.000000E+99

> <Gold.Chemscore.Hbonds>
donor molecule, donor type, donor heavy atom, donor atom, acceptor molecule, acceptor atom, score
      L1  H     3    24       P1  7957  0.88
      L1  H     6    25       P1  7948  0.32
      P1  H  7989  7998       L1    14  0.44

> <Gold.Chemscore.Hbond.Weighted>
-6.4916

> <Gold.Chemscore.Metal.Weighted>
-0.0000

> <Gold.Chemscore.Lipo.Weighted>
-6.0431

> <Gold.Chemscore.Internal_Hbond.Weighted>
0.0000

> <Gold.Chemscore.DEClash.Weighted>
0.1832

> <Gold.Chemscore.DEInternal.Weighted>
2.1348

> <Gold.Chemscore.Rot.Weighted>
3.3322

> <Gold.Chemscore.Internal.Correction.Weighted>
   9.000000E+99

> <Gold.Protein.RotatedTorsions>
[ 6907 6896 6895 6894 ] final  101.82 input  -60.11 | X-H torsion
[ 7974 7965 7964 7962 ] final   57.45 input  175.53 | X-H torsion
[ 8008 7997 7996 7995 ] final   23.79 input   59.86 | X-H torsion
[ 10167 10162 10161 10158 ] final  -48.69 input  -65.29 | X-H torsion
[ 10718 10713 10712 10709 ] final -162.85 input   66.30 | X-H torsion
[ 10763 10752 10751 10750 ] final  107.80 input  -60.55 | X-H torsion
[ 11005 11000 10999 10996 ] final  -76.29 input  -57.11 | X-H torsion

> <Gold.Protein.ActiveResidues>
 VAL166  LYS551  ARG553  GLY616  TRP617  ASP618  TYR619  PRO620  LYS621  CYS622 
 ASP623  PHE694  ASN695  SER759  ASP760  ASP761  ALA762  ILE779  LEU786  VAL792 
 PHE793  MET794  SER795  GLU796  ALA797  LYS798  CYS799  TRP800  GLU811  SER814 

> <Gold.Protein.RotatedAtoms>
  152.5340  134.0069  159.7920 H   0  0  0  0  0  0  0  0  0  0  0  0  # atno 6907 bound_to 6896
  151.0278  133.5810  159.2671 H   0  0  0  0  0  0  0  0  0  0  0  0  # atno 6908 bound_to 6896
  151.2826  135.0725  159.9228 H   0  0  0  0  0  0  0  0  0  0  0  0  # atno 6909 bound_to 6896
  145.9289  139.3791  143.0433 H   0  0  0  0  0  0  0  0  0  0  0  0  # atno 7974 bound_to 7965
  154.9863  140.3108  155.4925 H   0  0  0  0  0  0  0  0  0  0  0  0  # atno 8008 bound_to 7997
  156.2946  140.2257  156.4905 H   0  0  0  0  0  0  0  0  0  0  0  0  # atno 8009 bound_to 7997
  154.7743  140.0450  157.1065 H   0  0  0  0  0  0  0  0  0  0  0  0  # atno 8010 bound_to 7997
  140.6719  143.2729  151.4107 H   0  0  0  0  0  0  0  0  0  0  0  0  # atno 10167 bound_to 10162
  156.6163  130.8872  151.2948 H   0  0  0  0  0  0  0  0  0  0  0  0  # atno 10718 bound_to 10713
  153.4117  135.3833  155.2055 H   0  0  0  0  0  0  0  0  0  0  0  0  # atno 10763 bound_to 10752
  154.8738  135.3796  154.4492 H   0  0  0  0  0  0  0  0  0  0  0  0  # atno 10764 bound_to 10752
  153.5002  135.7088  153.5898 H   0  0  0  0  0  0  0  0  0  0  0  0  # atno 10765 bound_to 10752
  141.1652  133.6978  156.7647 H   0  0  0  0  0  0  0  0  0  0  0  0  # atno 11005 bound_to 11000
  145.8452  140.9559  143.0778 LP  0  0  0  0  0  0  0  0  0  0  0  0  # atno 17320 bound_to 7965
  144.6762  140.0336  143.7482 LP  0  0  0  0  0  0  0  0  0  0  0  0  # atno 17321 bound_to 7965
  139.5992  144.1331  152.2179 LP  0  0  0  0  0  0  0  0  0  0  0  0  # atno 17342 bound_to 10162
  140.0710  144.5779  150.7192 LP  0  0  0  0  0  0  0  0  0  0  0  0  # atno 17343 bound_to 10162
  157.7240  130.9597  150.1556 LP  0  0  0  0  0  0  0  0  0  0  0  0  # atno 17370 bound_to 10713
  156.2348  130.3685  149.8404 LP  0  0  0  0  0  0  0  0  0  0  0  0  # atno 17371 bound_to 10713
  140.2508  134.8542  157.3665 LP  0  0  0  0  0  0  0  0  0  0  0  0  # atno 17394 bound_to 11000
  140.1704  134.4615  155.7835 LP  0  0  0  0  0  0  0  0  0  0  0  0  # atno 17395 bound_to 11000

$$$$
