AV-unprocessed.smi:1224|AV-procd|sdf|5133|dock1
  -GOLD-   22720 4193D 1   1.00000     0.00000
 Structure written by MMmdl.
 43 45  0  0  0  0  0  0  0  0  1 V2000
  151.9336  145.1725  160.3381 C   0  0  0  0  0  0  0  0  0  0  0  0
  151.9053  143.8816  159.5386 C   0  0  0  0  0  0  0  0  0  0  0  0
  151.2987  143.8765  158.2622 C   0  0  0  0  0  0  0  0  0  0  0  0
  151.2521  142.6970  157.4872 C   0  0  0  0  0  0  0  0  0  0  0  0
  150.7146  142.4670  156.2322 N   0  0  0  0  0  0  0  0  0  0  0  0
  150.9846  141.1766  156.0575 C   0  0  0  0  0  0  0  0  0  0  0  0
  151.6429  140.5447  157.0486 N   0  0  0  0  0  0  0  0  0  0  0  0
  152.0502  139.1514  157.0822 C   0  0  0  0  0  0  0  0  0  0  0  0
  151.9559  138.5386  158.4937 C   0  0  1  0  0  0  0  0  0  0  0  0
  150.5881  138.3181  158.7674 O   0  0  0  0  0  0  0  0  0  0  0  0
  152.7020  137.1978  158.6357 C   0  0  0  0  0  0  0  0  0  0  0  0
  152.8448  136.8198  160.0382 N   0  0  0  0  0  0  0  0  0  0  0  0
  154.2121  136.9475  160.5288 C   0  0  0  0  0  0  0  0  0  0  0  0
  154.3236  136.5845  161.9716 C   0  0  0  0  0  0  0  0  0  0  0  0
  153.7420  137.2131  163.0435 C   0  0  0  0  0  0  0  0  0  0  0  0
  154.0597  136.6022  164.2921 C   0  0  0  0  0  0  0  0  0  0  0  0
  154.8808  135.5144  164.1566 C   0  0  0  0  0  0  0  0  0  0  0  0
  155.2802  135.2181  162.4867 S   0  0  0  0  0  0  0  0  0  0  0  0
  151.8358  141.5139  158.0269 C   0  0  0  0  0  0  0  0  0  0  0  0
  152.4404  141.5057  159.2962 C   0  0  0  0  0  0  0  0  0  0  0  0
  152.4774  142.6925  160.0579 C   0  0  0  0  0  0  0  0  0  0  0  0
  153.1332  142.6733  161.4273 C   0  0  0  0  0  0  0  0  0  0  0  0
  151.4517  145.9873  159.7968 H   0  0  0  0  0  0  0  0  0  0  0  0
  152.9615  145.4709  160.5449 H   0  0  0  0  0  0  0  0  0  0  0  0
  151.4116  145.0464  161.2869 H   0  0  0  0  0  0  0  0  0  0  0  0
  150.8623  144.7815  157.8663 H   0  0  0  0  0  0  0  0  0  0  0  0
  150.6942  140.6623  155.1531 H   0  0  0  0  0  0  0  0  0  0  0  0
  151.4168  138.5986  156.3869 H   0  0  0  0  0  0  0  0  0  0  0  0
  153.0706  139.0766  156.7026 H   0  0  0  0  0  0  0  0  0  0  0  0
  152.3410  139.2589  159.2170 H   0  0  0  0  0  0  0  0  0  0  0  0
  150.1039  139.0824  158.4936 H   0  0  0  0  0  0  0  0  0  0  0  0
  152.1943  136.4147  158.0707 H   0  0  0  0  0  0  0  0  0  0  0  0
  153.6986  137.2869  158.2039 H   0  0  0  0  0  0  0  0  0  0  0  0
  152.2320  137.4005  160.6020 H   0  0  0  0  0  0  0  0  0  0  0  0
  154.8764  136.3069  159.9477 H   0  0  0  0  0  0  0  0  0  0  0  0
  154.5648  137.9689  160.3807 H   0  0  0  0  0  0  0  0  0  0  0  0
  153.1051  138.0829  162.9741 H   0  0  0  0  0  0  0  0  0  0  0  0
  153.6807  136.9768  165.2315 H   0  0  0  0  0  0  0  0  0  0  0  0
  155.2733  134.8718  164.9310 H   0  0  0  0  0  0  0  0  0  0  0  0
  152.8723  140.5932  159.6797 H   0  0  0  0  0  0  0  0  0  0  0  0
  153.5173  141.6822  161.6704 H   0  0  0  0  0  0  0  0  0  0  0  0
  152.4154  142.9520  162.1990 H   0  0  0  0  0  0  0  0  0  0  0  0
  153.9684  143.3733  161.4612 H   0  0  0  0  0  0  0  0  0  0  0  0
  1  2  1  0  0  0  0
  1 23  1  0  0  0  0
  1 24  1  0  0  0  0
  1 25  1  0  0  0  0
  2 21  1  0  0  0  0
  2  3  2  0  0  0  0
  3  4  1  0  0  0  0
  3 26  1  0  0  0  0
  4 19  2  0  0  0  0
  4  5  1  0  0  0  0
  5  6  2  0  0  0  0
  6  7  1  0  0  0  0
  6 27  1  0  0  0  0
  7  8  1  0  0  0  0
  7 19  1  0  0  0  0
  8  9  1  0  0  0  0
  8 28  1  0  0  0  0
  8 29  1  0  0  0  0
  9 10  1  0  0  0  0
  9 11  1  0  0  0  0
  9 30  1  0  0  0  0
 10 31  1  0  0  0  0
 11 12  1  0  0  0  0
 11 32  1  0  0  0  0
 11 33  1  0  0  0  0
 12 13  1  0  0  0  0
 12 34  1  0  0  0  0
 13 14  1  0  0  0  0
 13 35  1  0  0  0  0
 13 36  1  0  0  0  0
 14 18  1  0  0  0  0
 14 15  2  0  0  0  0
 15 16  1  0  0  0  0
 15 37  1  0  0  0  0
 16 17  2  0  0  0  0
 16 38  1  0  0  0  0
 17 18  1  0  0  0  0
 17 39  1  0  0  0  0
 19 20  1  0  0  0  0
 20 21  2  0  0  0  0
 20 40  1  0  0  0  0
 21 22  1  0  0  0  0
 22 41  1  0  0  0  0
 22 42  1  0  0  0  0
 22 43  1  0  0  0  0
M  END
> <s_m_source_file>
AV-unprocessed.smi

> <i_m_source_file_index>
1224

> <i_lp_mmshare_version>
43012

> <i_f3d_flags>
0

> <s_epik_input>
W0NIM11jKFtjSF0xKWMoW0NIM10pW2NIXWMoYzEyKW4oW2NIXW4yKVtDSDJdW0NASF0oW09IXSlbQ0gyXVtOSF1bQ0gyXWMzW2NIXVtjSF1bY0hdczM=

> <s_epik_cmdline>
J2VwaWtfcHl0aG9uJywgJy1waCcsICc3LjAnLCAnLXRuJywgJzgnLCAnLW1hJywgJzIwMCcsICctbWV0YWxfYmluZGluZycsICctaW1hZScsICc8aW5maWxlLm1hZT4nLCAnLW9tYWUnLCAnPG91dGZpbGUubWFlPic=

> <r_epik_Ionization_Penalty>
1.55566

> <r_epik_Ionization_Penalty_Charging>
0

> <r_epik_Ionization_Penalty_Neutral>
1.55566

> <r_epik_State_Penalty>
1.63945

> <r_epik_Charging_Adjusted_Penalty>
1.63945

> <i_epik_Tot_Q>
0

> <i_epik_Tot_abs_Q>
0

> <r_epik_Metal_State_Penalty>
1.52326

> <b_epik_Metal_Only>
0

> <s_lp_Force_Field>
OPLS_2005

> <r_lp_Energy>
15.3814

> <b_lp_Chiralities_Consistent>
1

> <s_lp_Variant>
AV-unprocessed.smi:1224-6

> <Gold.Version>
5.8.1

> <Gold.Id.Protein>
6NUR|6NUR_protein|mol2

> <Gold.PLP.Fitness>
52.4564

> <Gold.PLP.PLP>
-50.9137

> <Gold.PLP.part.hbond>
-1.0000

> <Gold.PLP.part.metal>
0.0000

> <Gold.PLP.part.buried>
-6.3176

> <Gold.PLP.part.nonpolar>
-43.7552

> <Gold.PLP.part.repulsive>
1.2186

> <Gold.PLP.ligand.clash>
0.0000

> <Gold.PLP.ligand.torsion>
0.8930

> <Gold.PLP.Chemscore.Hbond>
1.0000

> <Gold.PLP.Chemscore.CHOScore>
0.0000

> <Gold.PLP.Chemscore.Metal>
0.0000

> <Gold.Chemscore.Hbonds>
donor molecule, donor type, donor heavy atom, donor atom, acceptor molecule, acceptor atom, score
      P1  H  6896  6907       L1    12  1.00

> <Gold.PLP.Chemscore.Internal.Correction>
0.3288

> <Gold.Rescore>
     Score         DG    S(hbond)    S(metal)    S(lipo)     H(rot)  DE(clash)    DE(int)     intcor
     16.51     -17.57       0.30        0.00     145.53       2.32       0.24       0.83       ----

> <Gold.Chemscore.Fitness>
16.5075

> <Gold.Chemscore.DG>
-17.5683

> <Gold.Chemscore.ZeroCoef>
-5.4800

> <Gold.Chemscore.Hbond>
0.2974

> <Gold.Chemscore.Metal>
0.0000

> <Gold.Chemscore.Lipo>
145.5343

> <Gold.Chemscore.Internal_Hbond>
0.0000

> <Gold.Chemscore.DEClash>
0.2356

> <Gold.Chemscore.DEInternal>
0.8251

> <Gold.Chemscore.Rot>
2.3173

> <Gold.Chemscore.Internal.Correction>
   9.000000E+99

> <Gold.Chemscore.Hbonds>
donor molecule, donor type, donor heavy atom, donor atom, acceptor molecule, acceptor atom, score
      P1  H  6896  6907       L1    12  0.23

> <Gold.Chemscore.Hbond.Weighted>
-0.9932

> <Gold.Chemscore.Metal.Weighted>
-0.0000

> <Gold.Chemscore.Lipo.Weighted>
-17.0275

> <Gold.Chemscore.Internal_Hbond.Weighted>
0.0000

> <Gold.Chemscore.DEClash.Weighted>
0.2356

> <Gold.Chemscore.DEInternal.Weighted>
0.8251

> <Gold.Chemscore.Rot.Weighted>
5.9324

> <Gold.Chemscore.Internal.Correction.Weighted>
   9.000000E+99

> <Gold.Protein.RotatedTorsions>
[ 6907 6896 6895 6894 ] final   45.35 input  -60.11 | X-H torsion
[ 7974 7965 7964 7962 ] final   22.61 input  175.53 | X-H torsion
[ 8008 7997 7996 7995 ] final  -79.72 input   59.86 | X-H torsion
[ 10167 10162 10161 10158 ] final  -73.06 input  -65.29 | X-H torsion
[ 10718 10713 10712 10709 ] final -134.56 input   66.30 | X-H torsion
[ 10763 10752 10751 10750 ] final   49.39 input  -60.55 | X-H torsion
[ 11005 11000 10999 10996 ] final   68.35 input  -57.11 | X-H torsion

> <Gold.Protein.ActiveResidues>
 VAL166  LYS551  ARG553  GLY616  TRP617  ASP618  TYR619  PRO620  LYS621  CYS622 
 ASP623  PHE694  ASN695  SER759  ASP760  ASP761  ALA762  ILE779  LEU786  VAL792 
 PHE793  MET794  SER795  GLU796  ALA797  LYS798  CYS799  TRP800  GLU811  SER814 

> <Gold.Protein.RotatedAtoms>
  152.2435  134.8205  160.0456 H   0  0  0  0  0  0  0  0  0  0  0  0  # atno 6907 bound_to 6896
  151.8911  133.3511  159.3806 H   0  0  0  0  0  0  0  0  0  0  0  0  # atno 6908 bound_to 6896
  150.7061  134.4849  159.5532 H   0  0  0  0  0  0  0  0  0  0  0  0  # atno 6909 bound_to 6896
  146.2021  139.7860  142.8754 H   0  0  0  0  0  0  0  0  0  0  0  0  # atno 7974 bound_to 7965
  154.5812  140.0674  156.9107 H   0  0  0  0  0  0  0  0  0  0  0  0  # atno 8008 bound_to 7997
  155.2459  140.3348  155.4269 H   0  0  0  0  0  0  0  0  0  0  0  0  # atno 8009 bound_to 7997
  156.2191  140.1791  156.7505 H   0  0  0  0  0  0  0  0  0  0  0  0  # atno 8010 bound_to 7997
  140.5141  143.2340  151.7542 H   0  0  0  0  0  0  0  0  0  0  0  0  # atno 10167 bound_to 10162
  156.2567  130.7186  151.1105 H   0  0  0  0  0  0  0  0  0  0  0  0  # atno 10718 bound_to 10713
  152.9787  135.5913  154.4082 H   0  0  0  0  0  0  0  0  0  0  0  0  # atno 10763 bound_to 10752
  154.3720  135.2767  155.2263 H   0  0  0  0  0  0  0  0  0  0  0  0  # atno 10764 bound_to 10752
  154.4214  135.6058  153.6067 H   0  0  0  0  0  0  0  0  0  0  0  0  # atno 10765 bound_to 10752
  139.9717  134.6890  156.0434 H   0  0  0  0  0  0  0  0  0  0  0  0  # atno 11005 bound_to 11000
  145.3448  141.0295  143.3372 LP  0  0  0  0  0  0  0  0  0  0  0  0  # atno 17320 bound_to 7965
  144.8707  139.5042  143.6769 LP  0  0  0  0  0  0  0  0  0  0  0  0  # atno 17321 bound_to 7965
  139.4904  144.4348  151.9831 LP  0  0  0  0  0  0  0  0  0  0  0  0  # atno 17342 bound_to 10162
  140.3442  144.3167  150.5961 LP  0  0  0  0  0  0  0  0  0  0  0  0  # atno 17343 bound_to 10162
  157.7235  131.0666  150.6033 LP  0  0  0  0  0  0  0  0  0  0  0  0  # atno 17370 bound_to 10713
  156.6117  130.4382  149.5856 LP  0  0  0  0  0  0  0  0  0  0  0  0  # atno 17371 bound_to 10713
  141.1396  133.6567  156.3692 LP  0  0  0  0  0  0  0  0  0  0  0  0  # atno 17394 bound_to 11000
  140.5280  134.6240  157.5340 LP  0  0  0  0  0  0  0  0  0  0  0  0  # atno 17395 bound_to 11000

$$$$
