AV-unprocessed.smi:3118|AV-procd|sdf|11887|dock3
  -GOLD-   2272017273D 1   1.00000     0.00000
 Structure written by MMmdl.
 33 34  0  0  0  0  0  0  0  0  2 V2000
  148.9225  141.4865  154.9501 C   0  0  0  0  0  0  0  0  0  0  0  0
  149.9394  141.3612  156.1005 C   0  0  1  0  0  0  0  0  0  0  0  0
  151.2708  140.7172  155.6652 C   0  0  0  0  0  0  0  0  0  0  0  0
  151.1161  139.3274  155.2236 N   0  0  0  0  0  0  0  0  0  0  0  0
  151.6839  138.2121  155.7838 C   0  0  0  0  0  0  0  0  0  0  0  0
  151.2574  137.1412  155.0411 C   0  0  0  0  0  0  0  0  0  0  0  0
  150.4523  137.6483  154.0565 N   0  3  0  0  0  0  0  0  0  0  0  0
  150.3699  138.9782  154.1670 C   0  0  0  0  0  0  0  0  0  0  0  0
  150.2100  142.6745  156.6793 N   0  0  0  0  0  0  0  0  0  0  0  0
  150.9070  142.8999  157.8040 C   0  0  0  0  0  0  0  0  0  0  0  0
  151.4161  141.9994  158.4726 O   0  0  0  0  0  0  0  0  0  0  0  0
  151.0425  144.3682  158.2287 C   0  0  0  0  0  0  0  0  0  0  0  0
  152.4628  144.8014  158.6358 C   0  0  0  0  0  0  0  0  0  0  0  0
  151.8522  145.5251  159.8395 C   0  0  0  0  0  0  0  0  0  0  0  0
  150.6086  144.6462  159.6781 C   0  0  0  0  0  0  0  0  0  0  0  0
  148.6467  140.5102  154.5513 H   0  0  0  0  0  0  0  0  0  0  0  0
  149.3249  142.0814  154.1295 H   0  0  0  0  0  0  0  0  0  0  0  0
  148.0016  141.9647  155.2853 H   0  0  0  0  0  0  0  0  0  0  0  0
  149.5016  140.7255  156.8727 H   0  0  0  0  0  0  0  0  0  0  0  0
  151.7262  141.2864  154.8530 H   0  0  0  0  0  0  0  0  0  0  0  0
  151.9837  140.7187  156.4913 H   0  0  0  0  0  0  0  0  0  0  0  0
  152.3299  138.2622  156.6486 H   0  0  0  0  0  0  0  0  0  0  0  0
  151.4616  136.0847  155.1369 H   0  0  0  0  0  0  0  0  0  0  0  0
  149.8061  139.6380  153.5315 H   0  0  0  0  0  0  0  0  0  0  0  0
  149.8305  143.4745  156.1938 H   0  0  0  0  0  0  0  0  0  0  0  0
  150.5893  145.0691  157.5248 H   0  0  0  0  0  0  0  0  0  0  0  0
  153.1211  143.9818  158.9292 H   0  0  0  0  0  0  0  0  0  0  0  0
  152.9518  145.4659  157.9228 H   0  0  0  0  0  0  0  0  0  0  0  0
  152.3905  145.3833  160.7771 H   0  0  0  0  0  0  0  0  0  0  0  0
  151.6531  146.5793  159.6416 H   0  0  0  0  0  0  0  0  0  0  0  0
  149.6672  145.1891  159.7699 H   0  0  0  0  0  0  0  0  0  0  0  0
  150.6258  143.7683  160.3268 H   0  0  0  0  0  0  0  0  0  0  0  0
  149.9853  137.0983  153.3463 H   0  0  0  0  0  0  0  0  0  0  0  0
  1  2  1  0  0  0  0
  1 16  1  0  0  0  0
  1 17  1  0  0  0  0
  1 18  1  0  0  0  0
  2  3  1  0  0  0  0
  2  9  1  0  0  0  0
  2 19  1  0  0  0  0
  3  4  1  0  0  0  0
  3 20  1  0  0  0  0
  3 21  1  0  0  0  0
  4  8  1  0  0  0  0
  4  5  1  0  0  0  0
  5  6  2  0  0  0  0
  5 22  1  0  0  0  0
  6  7  1  0  0  0  0
  6 23  1  0  0  0  0
  7  8  2  0  0  0  0
  7 33  1  0  0  0  0
  8 24  1  0  0  0  0
  9 10  1  0  0  0  0
  9 25  1  0  0  0  0
 10 11  2  0  0  0  0
 10 12  1  0  0  0  0
 12 15  1  0  0  0  0
 12 13  1  0  0  0  0
 12 26  1  0  0  0  0
 13 14  1  0  0  0  0
 13 27  1  0  0  0  0
 13 28  1  0  0  0  0
 14 15  1  0  0  0  0
 14 29  1  0  0  0  0
 14 30  1  0  0  0  0
 15 31  1  0  0  0  0
 15 32  1  0  0  0  0
M  CHG  1   7   1
M  END
> <s_m_source_file>
AV-unprocessed.smi

> <i_m_source_file_index>
3118

> <i_lp_mmshare_version>
43012

> <i_f3d_flags>
0

> <s_epik_input>
W0NIMl0xW0NIMl1bQ0gyXVtDSF0xQyg9TylbTkhdW0NASF0oW0NIM10pW0NIMl1uMltjSF1bY0hdbltjSF0y

> <s_epik_cmdline>
J2VwaWtfcHl0aG9uJywgJy1waCcsICc3LjAnLCAnLXRuJywgJzgnLCAnLW1hJywgJzIwMCcsICctbWV0YWxfYmluZGluZycsICctaW1hZScsICc8aW5maWxlLm1hZT4nLCAnLW9tYWUnLCAnPG91dGZpbGUubWFlPic=

> <r_lp_tautomer_probability>
1

> <r_epik_Ionization_Penalty>
0.244425

> <r_epik_Ionization_Penalty_Charging>
0

> <r_epik_Ionization_Penalty_Neutral>
0.244425

> <r_epik_State_Penalty>
0.23553

> <r_epik_Charging_Adjusted_Penalty>
0.23553

> <i_epik_Tot_Q>
1

> <i_epik_Tot_abs_Q>
1

> <r_epik_Metal_State_Penalty>
0.5288

> <b_epik_Metal_Only>
0

> <s_lp_Force_Field>
OPLS_2005

> <r_lp_Energy>
14.8718

> <b_lp_Chiralities_Consistent>
1

> <s_lp_Variant>
AV-unprocessed.smi:3118-2

> <Gold.Version>
5.8.1

> <Gold.Id.Protein>
6NUR|6NUR_protein|mol2

> <Gold.PLP.Fitness>
49.4363

> <Gold.PLP.PLP>
-37.5885

> <Gold.PLP.part.hbond>
-2.7139

> <Gold.PLP.part.metal>
0.0000

> <Gold.PLP.part.buried>
-3.3872

> <Gold.PLP.part.nonpolar>
-32.5816

> <Gold.PLP.part.repulsive>
0.1398

> <Gold.PLP.ligand.clash>
0.0026

> <Gold.PLP.ligand.torsion>
0.2842

> <Gold.PLP.Chemscore.Hbond>
3.0000

> <Gold.PLP.Chemscore.CHOScore>
1.0000

> <Gold.PLP.Chemscore.Metal>
0.0000

> <Gold.Chemscore.Hbonds>
donor molecule, donor type, donor heavy atom, donor atom, acceptor molecule, acceptor atom, score
      L1  H     7    33       P1  7948  2.00
      L1  H     9    25       P1  8028  1.00
      L1  C     8    24       P1  7957  1.00

> <Gold.PLP.Chemscore.Internal.Correction>
0.4187

> <Gold.Rescore>
     Score         DG    S(hbond)    S(metal)    S(lipo)     H(rot)  DE(clash)    DE(int)     intcor
     14.90     -16.49       1.90        0.00      80.37       1.86       0.21       1.38       ----

> <Gold.Chemscore.Fitness>
14.8954

> <Gold.Chemscore.DG>
-16.4886

> <Gold.Chemscore.ZeroCoef>
-5.4800

> <Gold.Chemscore.Hbond>
1.9033

> <Gold.Chemscore.Metal>
0.0000

> <Gold.Chemscore.Lipo>
80.3681

> <Gold.Chemscore.Internal_Hbond>
0.0000

> <Gold.Chemscore.DEClash>
0.2141

> <Gold.Chemscore.DEInternal>
1.3791

> <Gold.Chemscore.Rot>
1.8561

> <Gold.Chemscore.Internal.Correction>
   9.000000E+99

> <Gold.Chemscore.Hbonds>
donor molecule, donor type, donor heavy atom, donor atom, acceptor molecule, acceptor atom, score
      L1  H     7    33       P1  7948  0.25
      L1  H     9    25       P1  8028  1.00

> <Gold.Chemscore.Hbond.Weighted>
-6.3571

> <Gold.Chemscore.Metal.Weighted>
-0.0000

> <Gold.Chemscore.Lipo.Weighted>
-9.4031

> <Gold.Chemscore.Internal_Hbond.Weighted>
0.0000

> <Gold.Chemscore.DEClash.Weighted>
0.2141

> <Gold.Chemscore.DEInternal.Weighted>
1.3791

> <Gold.Chemscore.Rot.Weighted>
4.7516

> <Gold.Chemscore.Internal.Correction.Weighted>
   9.000000E+99

> <Gold.Protein.RotatedTorsions>
[ 6907 6896 6895 6894 ] final   82.38 input  -60.11 | X-H torsion
[ 7974 7965 7964 7962 ] final -110.50 input  175.53 | X-H torsion
[ 8008 7997 7996 7995 ] final  -92.19 input   59.86 | X-H torsion
[ 10167 10162 10161 10158 ] final  -60.54 input  -65.29 | X-H torsion
[ 10718 10713 10712 10709 ] final   38.80 input   66.30 | X-H torsion
[ 10763 10752 10751 10750 ] final -178.36 input  -60.55 | X-H torsion
[ 11005 11000 10999 10996 ] final   -6.40 input  -57.11 | X-H torsion

> <Gold.Protein.ActiveResidues>
 VAL166  LYS551  ARG553  GLY616  TRP617  ASP618  TYR619  PRO620  LYS621  CYS622 
 ASP623  PHE694  ASN695  SER759  ASP760  ASP761  ALA762  ILE779  LEU786  VAL792 
 PHE793  MET794  SER795  GLU796  ALA797  LYS798  CYS799  TRP800  GLU811  SER814 

> <Gold.Protein.RotatedAtoms>
  152.5297  134.3058  159.9095 H   0  0  0  0  0  0  0  0  0  0  0  0  # atno 6907 bound_to 6896
  151.3008  133.4116  159.2647 H   0  0  0  0  0  0  0  0  0  0  0  0  # atno 6908 bound_to 6896
  151.0120  134.9420  159.8070 H   0  0  0  0  0  0  0  0  0  0  0  0  # atno 6909 bound_to 6896
  145.1675  140.8909  143.3555 H   0  0  0  0  0  0  0  0  0  0  0  0  # atno 7974 bound_to 7965
  154.7201  140.0511  157.0631 H   0  0  0  0  0  0  0  0  0  0  0  0  # atno 8008 bound_to 7997
  155.0439  140.3171  155.4696 H   0  0  0  0  0  0  0  0  0  0  0  0  # atno 8009 bound_to 7997
  156.2814  140.2128  156.5564 H   0  0  0  0  0  0  0  0  0  0  0  0  # atno 8010 bound_to 7997
  140.6065  143.2375  151.5810 H   0  0  0  0  0  0  0  0  0  0  0  0  # atno 10167 bound_to 10162
  157.3631  130.7660  149.7062 H   0  0  0  0  0  0  0  0  0  0  0  0  # atno 10718 bound_to 10713
  154.5487  135.2811  155.1029 H   0  0  0  0  0  0  0  0  0  0  0  0  # atno 10763 bound_to 10752
  154.2483  135.6344  153.5235 H   0  0  0  0  0  0  0  0  0  0  0  0  # atno 10764 bound_to 10752
  152.9997  135.5576  154.6047 H   0  0  0  0  0  0  0  0  0  0  0  0  # atno 10765 bound_to 10752
  140.7015  133.8985  155.8687 H   0  0  0  0  0  0  0  0  0  0  0  0  # atno 11005 bound_to 11000
  145.0267  139.3376  143.6045 LP  0  0  0  0  0  0  0  0  0  0  0  0  # atno 17320 bound_to 7965
  146.3473  139.9589  142.8720 LP  0  0  0  0  0  0  0  0  0  0  0  0  # atno 17321 bound_to 7965
  139.5329  144.2865  152.1187 LP  0  0  0  0  0  0  0  0  0  0  0  0  # atno 17342 bound_to 10162
  140.2056  144.4614  150.6410 LP  0  0  0  0  0  0  0  0  0  0  0  0  # atno 17343 bound_to 10162
  155.9741  130.4108  150.3949 LP  0  0  0  0  0  0  0  0  0  0  0  0  # atno 17370 bound_to 10713
  157.2030  131.0442  151.2640 LP  0  0  0  0  0  0  0  0  0  0  0  0  # atno 17371 bound_to 10713
  141.0159  134.0956  157.4172 LP  0  0  0  0  0  0  0  0  0  0  0  0  # atno 17394 bound_to 11000
  139.8895  135.0106  156.6685 LP  0  0  0  0  0  0  0  0  0  0  0  0  # atno 17395 bound_to 11000

$$$$
