AV-unprocessed.smi:1701|AV-procd|sdf|6825|dock1
  -GOLD-   22720 8 03D 1   1.00000     0.00000
 Structure written by MMmdl.
 55 57  0  0  0  0  0  0  0  0  3 V2000
  154.0916  141.6472  160.1593 C   0  0  0  0  0  0  0  0  0  0  0  0
  152.6023  142.0115  160.1016 C   0  0  0  0  0  0  0  0  0  0  0  0
  152.1615  142.3141  158.7423 N   0  0  0  0  0  0  0  0  0  0  0  0
  152.3787  143.6586  158.2100 C   0  0  0  0  0  0  0  0  0  0  0  0
  151.7851  144.7440  159.1173 C   0  0  0  0  0  0  0  0  0  0  0  0
  151.5722  141.3113  157.9375 C   0  0  0  0  0  0  0  0  0  0  0  0
  151.1677  140.0483  158.4370 C   0  0  0  0  0  0  0  0  0  0  0  0
  150.5882  139.1011  157.5687 C   0  0  0  0  0  0  0  0  0  0  0  0
  150.4042  139.4165  156.2068 C   0  0  0  0  0  0  0  0  0  0  0  0
  149.8242  138.4251  155.3709 N   0  0  0  0  0  0  0  0  0  0  0  0
  149.1805  137.2953  155.7250 C   0  0  0  0  0  0  0  0  0  0  0  0
  148.9704  136.9431  156.8830 O   0  0  0  0  0  0  0  0  0  0  0  0
  148.8022  136.5262  154.6874 N   0  0  0  0  0  0  0  0  0  0  0  0
  148.0899  135.2449  154.7099 C   0  0  2  0  0  0  0  0  0  0  0  0
  148.9712  134.0666  154.2520 C   0  0  0  0  0  0  0  0  0  0  0  0
  148.0413  133.1919  153.4056 C   0  0  0  0  0  0  0  0  0  0  0  0
  147.1548  134.1752  152.7733 N   0  3  1  0  0  0  0  0  0  0  0  0
  145.9550  133.6910  152.0611 C   0  0  0  0  0  0  0  0  0  0  0  0
  145.3074  134.8866  151.3298 C   0  0  0  0  0  0  0  0  0  0  0  0
  145.0548  136.0847  152.2736 C   0  0  0  0  0  0  0  0  0  0  0  0
  146.3151  136.4541  153.0855 C   0  0  0  0  0  0  0  0  0  0  0  0
  146.8423  135.1920  153.7927 C   0  0  2  0  0  0  0  0  0  0  0  0
  150.8330  140.6853  155.7513 C   0  0  0  0  0  0  0  0  0  0  0  0
  151.3841  141.5613  156.6183 N   0  3  0  0  0  0  0  0  0  0  0  0
  154.3919  141.4123  161.1805 H   0  0  0  0  0  0  0  0  0  0  0  0
  154.7178  142.4686  159.8107 H   0  0  0  0  0  0  0  0  0  0  0  0
  154.3096  140.7754  159.5418 H   0  0  0  0  0  0  0  0  0  0  0  0
  152.0181  141.1701  160.4753 H   0  0  0  0  0  0  0  0  0  0  0  0
  152.3795  142.8387  160.7753 H   0  0  0  0  0  0  0  0  0  0  0  0
  153.4401  143.8417  158.0407 H   0  0  0  0  0  0  0  0  0  0  0  0
  151.9112  143.7215  157.2269 H   0  0  0  0  0  0  0  0  0  0  0  0
  151.9495  145.7342  158.6923 H   0  0  0  0  0  0  0  0  0  0  0  0
  152.2420  144.7289  160.1072 H   0  0  0  0  0  0  0  0  0  0  0  0
  150.7102  144.6119  159.2425 H   0  0  0  0  0  0  0  0  0  0  0  0
  151.2837  139.7879  159.4779 H   0  0  0  0  0  0  0  0  0  0  0  0
  150.2808  138.1397  157.9540 H   0  0  0  0  0  0  0  0  0  0  0  0
  149.9777  138.5514  154.3814 H   0  0  0  0  0  0  0  0  0  0  0  0
  149.0858  136.8493  153.7731 H   0  0  0  0  0  0  0  0  0  0  0  0
  147.7750  135.0284  155.7325 H   0  0  0  0  0  0  0  0  0  0  0  0
  149.7902  134.4269  153.6272 H   0  0  0  0  0  0  0  0  0  0  0  0
  149.4116  133.5201  155.0868 H   0  0  0  0  0  0  0  0  0  0  0  0
  148.5793  132.5934  152.6699 H   0  0  0  0  0  0  0  0  0  0  0  0
  147.4587  132.5226  154.0404 H   0  0  0  0  0  0  0  0  0  0  0  0
  146.2373  132.9191  151.3444 H   0  0  0  0  0  0  0  0  0  0  0  0
  145.2554  133.2394  152.7663 H   0  0  0  0  0  0  0  0  0  0  0  0
  145.9639  135.2069  150.5195 H   0  0  0  0  0  0  0  0  0  0  0  0
  144.3730  134.5764  150.8611 H   0  0  0  0  0  0  0  0  0  0  0  0
  144.7132  136.9471  151.7004 H   0  0  0  0  0  0  0  0  0  0  0  0
  144.2454  135.8342  152.9605 H   0  0  0  0  0  0  0  0  0  0  0  0
  147.0787  136.8675  152.4250 H   0  0  0  0  0  0  0  0  0  0  0  0
  146.0652  137.2298  153.8090 H   0  0  0  0  0  0  0  0  0  0  0  0
  146.0324  134.7967  154.4100 H   0  0  0  0  0  0  0  0  0  0  0  0
  150.7715  141.0368  154.7326 H   0  0  0  0  0  0  0  0  0  0  0  0
  147.7258  134.6425  152.0832 H   0  0  0  0  0  0  0  0  0  0  0  0
  151.6809  142.4673  156.2553 H   0  0  0  0  0  0  0  0  0  0  0  0
  1  2  1  0  0  0  0
  1 25  1  0  0  0  0
  1 26  1  0  0  0  0
  1 27  1  0  0  0  0
  2  3  1  0  0  0  0
  2 28  1  0  0  0  0
  2 29  1  0  0  0  0
  3  4  1  0  0  0  0
  3  6  1  0  0  0  0
  4  5  1  0  0  0  0
  4 30  1  0  0  0  0
  4 31  1  0  0  0  0
  5 32  1  0  0  0  0
  5 33  1  0  0  0  0
  5 34  1  0  0  0  0
  6 24  1  0  0  0  0
  6  7  2  0  0  0  0
  7  8  1  0  0  0  0
  7 35  1  0  0  0  0
  8  9  2  0  0  0  0
  8 36  1  0  0  0  0
  9 10  1  0  0  0  0
  9 23  1  0  0  0  0
 10 11  1  0  0  0  0
 10 37  1  0  0  0  0
 11 12  2  0  0  0  0
 11 13  1  0  0  0  0
 13 14  1  0  0  0  0
 13 38  1  0  0  0  0
 14 22  1  0  0  0  0
 14 15  1  0  0  0  0
 14 39  1  0  0  0  0
 15 16  1  0  0  0  0
 15 40  1  0  0  0  0
 15 41  1  0  0  0  0
 16 17  1  0  0  0  0
 16 42  1  0  0  0  0
 16 43  1  0  0  0  0
 17 22  1  0  0  0  0
 17 18  1  0  0  0  0
 17 54  1  0  0  0  0
 18 19  1  0  0  0  0
 18 44  1  0  0  0  0
 18 45  1  0  0  0  0
 19 20  1  0  0  0  0
 19 46  1  0  0  0  0
 19 47  1  0  0  0  0
 20 21  1  0  0  0  0
 20 48  1  0  0  0  0
 20 49  1  0  0  0  0
 21 22  1  0  0  0  0
 21 50  1  0  0  0  0
 21 51  1  0  0  0  0
 22 52  1  0  0  0  0
 23 24  2  0  0  0  0
 23 53  1  0  0  0  0
 24 55  1  0  0  0  0
M  CHG  1  17   1
M  CHG  1  24   1
M  END
> <s_m_source_file>
AV-unprocessed.smi

> <i_m_source_file_index>
1701

> <i_lp_mmshare_version>
43012

> <i_f3d_flags>
0

> <s_epik_input>
W0NIM11bQ0gyXU4oW0NIMl1bQ0gzXSljMVtjSF1bY0hdYyhbY0hdbjEpW05IXUMoPU8pW05IXVtDQEhdKFtDSDJdW0NIMl0yKVtDQEBIXShOMjMpW0NIMl1bQ0gyXVtDSDJdW0NIMl0z

> <s_epik_cmdline>
J2VwaWtfcHl0aG9uJywgJy1waCcsICc3LjAnLCAnLXRuJywgJzgnLCAnLW1hJywgJzIwMCcsICctbWV0YWxfYmluZGluZycsICctaW1hZScsICc8aW5maWxlLm1hZT4nLCAnLW9tYWUnLCAnPG91dGZpbGUubWFlPic=

> <r_lp_tautomer_probability>
0.999994

> <r_epik_Ionization_Penalty>
0.302862

> <r_epik_Ionization_Penalty_Charging>
0.302842

> <r_epik_Ionization_Penalty_Neutral>
1.95166e-05

> <r_epik_State_Penalty>
0.019791

> <r_epik_Charging_Adjusted_Penalty>
0.322633

> <i_epik_Tot_Q>
2

> <i_epik_Tot_abs_Q>
2

> <r_epik_Metal_State_Penalty>
0.0536763

> <b_epik_Metal_Only>
0

> <s_lp_Force_Field>
OPLS_2005

> <r_lp_Energy>
67.2191

> <b_lp_Chiralities_Consistent>
1

> <s_lp_Variant>
AV-unprocessed.smi:1701-5

> <Gold.Version>
5.8.1

> <Gold.Id.Protein>
6NUR|6NUR_protein|mol2

> <Gold.PLP.Fitness>
45.2851

> <Gold.PLP.PLP>
-38.5203

> <Gold.PLP.part.hbond>
-2.0000

> <Gold.PLP.part.metal>
0.0000

> <Gold.PLP.part.buried>
-0.0562

> <Gold.PLP.part.nonpolar>
-35.5215

> <Gold.PLP.part.repulsive>
0.1222

> <Gold.PLP.ligand.clash>
0.0000

> <Gold.PLP.ligand.torsion>
0.5370

> <Gold.PLP.Chemscore.Hbond>
2.5533

> <Gold.PLP.Chemscore.CHOScore>
0.0000

> <Gold.PLP.Chemscore.Metal>
0.0000

> <Gold.Chemscore.Hbonds>
donor molecule, donor type, donor heavy atom, donor atom, acceptor molecule, acceptor atom, score
      L1  H    13    38       P1  7948  0.77
      L1  H    17    54       P1  7948  1.73

> <Gold.PLP.Chemscore.Internal.Correction>
0.1789

> <Gold.Rescore>
     Score         DG    S(hbond)    S(metal)    S(lipo)     H(rot)  DE(clash)    DE(int)     intcor
     15.50     -17.61       1.29        0.00      95.24       1.30       0.03       2.08       ----

> <Gold.Chemscore.Fitness>
15.5030

> <Gold.Chemscore.DG>
-17.6085

> <Gold.Chemscore.ZeroCoef>
-5.4800

> <Gold.Chemscore.Hbond>
1.2929

> <Gold.Chemscore.Metal>
0.0000

> <Gold.Chemscore.Lipo>
95.2406

> <Gold.Chemscore.Internal_Hbond>
0.0000

> <Gold.Chemscore.DEClash>
0.0289

> <Gold.Chemscore.DEInternal>
2.0766

> <Gold.Chemscore.Rot>
1.3020

> <Gold.Chemscore.Internal.Correction>
   9.000000E+99

> <Gold.Chemscore.Hbonds>
donor molecule, donor type, donor heavy atom, donor atom, acceptor molecule, acceptor atom, score
      L1  H    13    38       P1  7948  0.75
      L1  H    17    54       P1  7948  0.46

> <Gold.Chemscore.Hbond.Weighted>
-4.3184

> <Gold.Chemscore.Metal.Weighted>
-0.0000

> <Gold.Chemscore.Lipo.Weighted>
-11.1432

> <Gold.Chemscore.Internal_Hbond.Weighted>
0.0000

> <Gold.Chemscore.DEClash.Weighted>
0.0289

> <Gold.Chemscore.DEInternal.Weighted>
2.0766

> <Gold.Chemscore.Rot.Weighted>
3.3330

> <Gold.Chemscore.Internal.Correction.Weighted>
   9.000000E+99

> <Gold.Protein.RotatedTorsions>
[ 6907 6896 6895 6894 ] final -143.47 input  -60.11 | X-H torsion
[ 7974 7965 7964 7962 ] final  107.33 input  175.53 | X-H torsion
[ 8008 7997 7996 7995 ] final  -97.72 input   59.86 | X-H torsion
[ 10167 10162 10161 10158 ] final  165.74 input  -65.29 | X-H torsion
[ 10718 10713 10712 10709 ] final   24.60 input   66.30 | X-H torsion
[ 10763 10752 10751 10750 ] final   60.55 input  -60.55 | X-H torsion
[ 11005 11000 10999 10996 ] final  -62.34 input  -57.11 | X-H torsion

> <Gold.Protein.ActiveResidues>
 VAL166  LYS551  ARG553  GLY616  TRP617  ASP618  TYR619  PRO620  LYS621  CYS622 
 ASP623  PHE694  ASN695  SER759  ASP760  ASP761  ALA762  ILE779  LEU786  VAL792 
 PHE793  MET794  SER795  GLU796  ALA797  LYS798  CYS799  TRP800  GLU811  SER814 

> <Gold.Protein.RotatedAtoms>
  151.1010  133.5244  159.2609 H   0  0  0  0  0  0  0  0  0  0  0  0  # atno 6907 bound_to 6896
  151.2075  135.0467  159.8907 H   0  0  0  0  0  0  0  0  0  0  0  0  # atno 6908 bound_to 6896
  152.5443  134.0830  159.8297 H   0  0  0  0  0  0  0  0  0  0  0  0  # atno 6909 bound_to 6896
  145.2950  139.2588  143.3845 H   0  0  0  0  0  0  0  0  0  0  0  0  # atno 7974 bound_to 7965
  154.7915  140.0461  157.1204 H   0  0  0  0  0  0  0  0  0  0  0  0  # atno 8008 bound_to 7997
  154.9585  140.3074  155.5022 H   0  0  0  0  0  0  0  0  0  0  0  0  # atno 8009 bound_to 7997
  156.2950  140.2275  156.4669 H   0  0  0  0  0  0  0  0  0  0  0  0  # atno 8010 bound_to 7997
  139.4911  144.4100  151.9310 H   0  0  0  0  0  0  0  0  0  0  0  0  # atno 10167 bound_to 10162
  157.1820  130.6807  149.6117 H   0  0  0  0  0  0  0  0  0  0  0  0  # atno 10718 bound_to 10713
  152.9924  135.5532  154.5891 H   0  0  0  0  0  0  0  0  0  0  0  0  # atno 10763 bound_to 10752
  154.5256  135.2810  155.1226 H   0  0  0  0  0  0  0  0  0  0  0  0  # atno 10764 bound_to 10752
  154.2562  135.6389  153.5311 H   0  0  0  0  0  0  0  0  0  0  0  0  # atno 10765 bound_to 10752
  141.1356  133.6639  156.5513 H   0  0  0  0  0  0  0  0  0  0  0  0  # atno 11005 bound_to 11000
  146.3172  140.3450  142.8651 LP  0  0  0  0  0  0  0  0  0  0  0  0  # atno 17320 bound_to 7965
  144.9141  140.7792  143.5789 LP  0  0  0  0  0  0  0  0  0  0  0  0  # atno 17321 bound_to 7965
  140.3541  144.3053  150.5944 LP  0  0  0  0  0  0  0  0  0  0  0  0  # atno 17342 bound_to 10162
  140.5460  143.2215  151.8007 LP  0  0  0  0  0  0  0  0  0  0  0  0  # atno 17343 bound_to 10162
  155.9723  130.4643  150.6214 LP  0  0  0  0  0  0  0  0  0  0  0  0  # atno 17370 bound_to 10713
  157.3943  131.0800  151.1365 LP  0  0  0  0  0  0  0  0  0  0  0  0  # atno 17371 bound_to 10713
  140.4061  134.7313  157.4809 LP  0  0  0  0  0  0  0  0  0  0  0  0  # atno 17394 bound_to 11000
  140.0461  134.6198  155.8920 LP  0  0  0  0  0  0  0  0  0  0  0  0  # atno 17395 bound_to 11000

$$$$
