AV-unprocessed.smi:2171|AV-procd|sdf|8828|dock3
  -GOLD-   2272012 23D 1   1.00000     0.00000
 Structure written by MMmdl.
 39 41  0  0  0  0  0  0  0  0  2 V2000
  144.1696  134.3165  152.1121 O   0  0  0  0  0  0  0  0  0  0  0  0
  145.1157  135.1008  152.1738 C   0  0  0  0  0  0  0  0  0  0  0  0
  144.9040  136.5123  152.7270 C   0  0  0  0  0  0  0  0  0  0  0  0
  143.5447  136.7067  153.2023 N   0  0  0  0  0  0  0  0  0  0  0  0
  142.6541  137.7062  152.8688 C   0  0  0  0  0  0  0  0  0  0  0  0
  141.5042  137.4769  153.5684 C   0  0  0  0  0  0  0  0  0  0  0  0
  141.7896  136.2969  154.3109 C   0  0  0  0  0  0  0  0  0  0  0  0
  143.0112  135.8386  154.0899 N   0  0  0  0  0  0  0  0  0  0  0  0
  146.3564  134.7927  151.7633 N   0  0  0  0  0  0  0  0  0  0  0  0
  146.7684  133.5001  151.2251 C   0  0  2  0  0  0  0  0  0  0  0  0
  145.7722  132.9363  150.1966 C   0  0  0  0  0  0  0  0  0  0  0  0
  145.7402  131.4161  150.4493 C   0  0  0  0  0  0  0  0  0  0  0  0
  146.7516  131.1721  151.4954 N   0  3  2  0  0  0  0  0  0  0  0  0
  146.5865  129.9569  152.3223 C   0  0  0  0  0  0  0  0  0  0  0  0
  147.7803  129.8349  153.2905 C   0  0  0  0  0  0  0  0  0  0  0  0
  147.9796  131.1216  154.1174 C   0  0  0  0  0  0  0  0  0  0  0  0
  148.0500  132.3633  153.2077 C   0  0  0  0  0  0  0  0  0  0  0  0
  146.8126  132.4054  152.2947 C   0  0  1  0  0  0  0  0  0  0  0  0
  145.5970  136.6900  153.5502 H   0  0  0  0  0  0  0  0  0  0  0  0
  145.1215  137.2554  151.9580 H   0  0  0  0  0  0  0  0  0  0  0  0
  142.9104  138.4892  152.1704 H   0  0  0  0  0  0  0  0  0  0  0  0
  140.5965  138.0615  153.5516 H   0  0  0  0  0  0  0  0  0  0  0  0
  141.1504  135.7638  154.9990 H   0  0  0  0  0  0  0  0  0  0  0  0
  147.0708  135.5011  151.8504 H   0  0  0  0  0  0  0  0  0  0  0  0
  147.7463  133.5789  150.7450 H   0  0  0  0  0  0  0  0  0  0  0  0
  144.7735  133.3530  150.3374 H   0  0  0  0  0  0  0  0  0  0  0  0
  146.0834  133.1724  149.1783 H   0  0  0  0  0  0  0  0  0  0  0  0
  144.7526  131.1176  150.8047 H   0  0  0  0  0  0  0  0  0  0  0  0
  145.9657  130.8399  149.5517 H   0  0  0  0  0  0  0  0  0  0  0  0
  145.6482  130.0089  152.8766 H   0  0  0  0  0  0  0  0  0  0  0  0
  146.5333  129.0789  151.6777 H   0  0  0  0  0  0  0  0  0  0  0  0
  147.6379  128.9820  153.9547 H   0  0  0  0  0  0  0  0  0  0  0  0
  148.6876  129.6318  152.7199 H   0  0  0  0  0  0  0  0  0  0  0  0
  147.1516  131.2328  154.8189 H   0  0  0  0  0  0  0  0  0  0  0  0
  148.8857  131.0449  154.7190 H   0  0  0  0  0  0  0  0  0  0  0  0
  148.1048  133.2655  153.8171 H   0  0  0  0  0  0  0  0  0  0  0  0
  148.9603  132.3344  152.6072 H   0  0  0  0  0  0  0  0  0  0  0  0
  145.9104  132.4673  152.9081 H   0  0  0  0  0  0  0  0  0  0  0  0
  147.6407  131.0957  151.0221 H   0  0  0  0  0  0  0  0  0  0  0  0
  1  2  2  0  0  0  0
  2  3  1  0  0  0  0
  2  9  1  0  0  0  0
  3  4  1  0  0  0  0
  3 19  1  0  0  0  0
  3 20  1  0  0  0  0
  4  8  1  0  0  0  0
  4  5  1  0  0  0  0
  5  6  2  0  0  0  0
  5 21  1  0  0  0  0
  6  7  1  0  0  0  0
  6 22  1  0  0  0  0
  7  8  2  0  0  0  0
  7 23  1  0  0  0  0
  9 10  1  0  0  0  0
  9 24  1  0  0  0  0
 10 18  1  0  0  0  0
 10 11  1  0  0  0  0
 10 25  1  0  0  0  0
 11 12  1  0  0  0  0
 11 26  1  0  0  0  0
 11 27  1  0  0  0  0
 12 13  1  0  0  0  0
 12 28  1  0  0  0  0
 12 29  1  0  0  0  0
 13 18  1  0  0  0  0
 13 14  1  0  0  0  0
 13 39  1  0  0  0  0
 14 15  1  0  0  0  0
 14 30  1  0  0  0  0
 14 31  1  0  0  0  0
 15 16  1  0  0  0  0
 15 32  1  0  0  0  0
 15 33  1  0  0  0  0
 16 17  1  0  0  0  0
 16 34  1  0  0  0  0
 16 35  1  0  0  0  0
 17 18  1  0  0  0  0
 17 36  1  0  0  0  0
 17 37  1  0  0  0  0
 18 38  1  0  0  0  0
M  CHG  1  13   1
M  END
> <s_m_source_file>
AV-unprocessed.smi

> <i_m_source_file_index>
2171

> <i_lp_mmshare_version>
43012

> <i_f3d_flags>
0

> <s_epik_input>
bjFbY0hdW2NIXVtjSF1uMVtDSDJdQyg9TylbTkhdW0NASF0oW0NIMl1bQ0gyXTIpW0NAQEhdKE4yMylbQ0gyXVtDSDJdW0NIMl1bQ0gyXTM=

> <s_epik_cmdline>
J2VwaWtfcHl0aG9uJywgJy1waCcsICc3LjAnLCAnLXRuJywgJzgnLCAnLW1hJywgJzIwMCcsICctbWV0YWxfYmluZGluZycsICctaW1hZScsICc8aW5maWxlLm1hZT4nLCAnLW9tYWUnLCAnPG91dGZpbGUubWFlPic=

> <r_lp_tautomer_probability>
1

> <r_epik_Ionization_Penalty>
0.00204179

> <r_epik_Ionization_Penalty_Charging>
0.00203239

> <r_epik_Ionization_Penalty_Neutral>
9.40205e-06

> <r_epik_State_Penalty>
0.00138983

> <r_epik_Charging_Adjusted_Penalty>
0.00342221

> <i_epik_Tot_Q>
1

> <i_epik_Tot_abs_Q>
1

> <r_epik_Metal_State_Penalty>
-0

> <b_epik_Metal_Only>
0

> <s_lp_Force_Field>
OPLS_2005

> <r_lp_Energy>
34.6158

> <b_lp_Chiralities_Consistent>
1

> <s_lp_Variant>
AV-unprocessed.smi:2171-3

> <Gold.Version>
5.8.1

> <Gold.Id.Protein>
6NUR|6NUR_protein|mol2

> <Gold.PLP.Fitness>
43.0851

> <Gold.PLP.PLP>
-28.8271

> <Gold.PLP.part.hbond>
-2.0000

> <Gold.PLP.part.metal>
0.0000

> <Gold.PLP.part.buried>
-2.2974

> <Gold.PLP.part.nonpolar>
-24.8871

> <Gold.PLP.part.repulsive>
0.2089

> <Gold.PLP.ligand.clash>
0.0000

> <Gold.PLP.ligand.torsion>
0.2123

> <Gold.PLP.Chemscore.Hbond>
2.0000

> <Gold.PLP.Chemscore.CHOScore>
2.8910

> <Gold.PLP.Chemscore.Metal>
0.0000

> <Gold.Chemscore.Hbonds>
donor molecule, donor type, donor heavy atom, donor atom, acceptor molecule, acceptor atom, score
      L1  H     9    24       P1  7948  1.00
      L1  H    13    39       P1 10747  1.00
      L1  C     5    21       P1 10171  0.89
      L1  C     5    21       P1 10175  1.00
      L1  C     7    23       P1 11000  1.00

> <Gold.PLP.Chemscore.Internal.Correction>
0.0095

> <Gold.Rescore>
     Score         DG    S(hbond)    S(metal)    S(lipo)     H(rot)  DE(clash)    DE(int)     intcor
     13.77     -17.12       1.93        0.00      75.80       1.44       0.65       2.70       ----

> <Gold.Chemscore.Fitness>
13.7662

> <Gold.Chemscore.DG>
-17.1219

> <Gold.Chemscore.ZeroCoef>
-5.4800

> <Gold.Chemscore.Hbond>
1.9346

> <Gold.Chemscore.Metal>
0.0000

> <Gold.Chemscore.Lipo>
75.8049

> <Gold.Chemscore.Internal_Hbond>
0.0000

> <Gold.Chemscore.DEClash>
0.6513

> <Gold.Chemscore.DEInternal>
2.7044

> <Gold.Chemscore.Rot>
1.4410

> <Gold.Chemscore.Internal.Correction>
   9.000000E+99

> <Gold.Chemscore.Hbonds>
donor molecule, donor type, donor heavy atom, donor atom, acceptor molecule, acceptor atom, score
      L1  H     9    24       P1  7948  0.95
      L1  H    13    39       P1 10747  0.95

> <Gold.Chemscore.Hbond.Weighted>
-6.4617

> <Gold.Chemscore.Metal.Weighted>
-0.0000

> <Gold.Chemscore.Lipo.Weighted>
-8.8692

> <Gold.Chemscore.Internal_Hbond.Weighted>
0.0000

> <Gold.Chemscore.DEClash.Weighted>
0.6513

> <Gold.Chemscore.DEInternal.Weighted>
2.7044

> <Gold.Chemscore.Rot.Weighted>
3.6889

> <Gold.Chemscore.Internal.Correction.Weighted>
   9.000000E+99

> <Gold.Protein.RotatedTorsions>
[ 6907 6896 6895 6894 ] final  136.41 input  -60.11 | X-H torsion
[ 7974 7965 7964 7962 ] final  150.12 input  175.53 | X-H torsion
[ 8008 7997 7996 7995 ] final   16.85 input   59.86 | X-H torsion
[ 10167 10162 10161 10158 ] final  -72.36 input  -65.29 | X-H torsion
[ 10718 10713 10712 10709 ] final   -2.72 input   66.30 | X-H torsion
[ 10763 10752 10751 10750 ] final    1.81 input  -60.55 | X-H torsion
[ 11005 11000 10999 10996 ] final -111.62 input  -57.11 | X-H torsion

> <Gold.Protein.ActiveResidues>
 VAL166  LYS551  ARG553  GLY616  TRP617  ASP618  TYR619  PRO620  LYS621  CYS622 
 ASP623  PHE694  ASN695  SER759  ASP760  ASP761  ALA762  ILE779  LEU786  VAL792 
 PHE793  MET794  SER795  GLU796  ALA797  LYS798  CYS799  TRP800  GLU811  SER814 

> <Gold.Protein.RotatedAtoms>
  152.2896  133.5549  159.5548 H   0  0  0  0  0  0  0  0  0  0  0  0  # atno 6907 bound_to 6896
  150.7230  134.0447  159.3786 H   0  0  0  0  0  0  0  0  0  0  0  0  # atno 6908 bound_to 6896
  151.8354  135.0608  160.0492 H   0  0  0  0  0  0  0  0  0  0  0  0  # atno 6909 bound_to 6896
  144.8387  139.6368  143.6026 H   0  0  0  0  0  0  0  0  0  0  0  0  # atno 7974 bound_to 7965
  154.8830  140.2975  155.5414 H   0  0  0  0  0  0  0  0  0  0  0  0  # atno 8008 bound_to 7997
  156.3022  140.2439  156.3769 H   0  0  0  0  0  0  0  0  0  0  0  0  # atno 8009 bound_to 7997
  154.8698  140.0402  157.1706 H   0  0  0  0  0  0  0  0  0  0  0  0  # atno 8010 bound_to 7997
  140.5198  143.2333  151.7449 H   0  0  0  0  0  0  0  0  0  0  0  0  # atno 10167 bound_to 10162
  156.7866  130.5348  149.5742 H   0  0  0  0  0  0  0  0  0  0  0  0  # atno 10718 bound_to 10713
  153.3033  135.6957  153.7183 H   0  0  0  0  0  0  0  0  0  0  0  0  # atno 10763 bound_to 10752
  153.6088  135.3448  155.2972 H   0  0  0  0  0  0  0  0  0  0  0  0  # atno 10764 bound_to 10752
  154.8556  135.4358  154.2151 H   0  0  0  0  0  0  0  0  0  0  0  0  # atno 10765 bound_to 10752
  141.0724  133.9358  157.2459 H   0  0  0  0  0  0  0  0  0  0  0  0  # atno 11005 bound_to 11000
  146.2683  139.6572  142.9314 LP  0  0  0  0  0  0  0  0  0  0  0  0  # atno 17320 bound_to 7965
  145.4739  141.0436  143.2683 LP  0  0  0  0  0  0  0  0  0  0  0  0  # atno 17321 bound_to 7965
  139.4920  144.4271  151.9914 LP  0  0  0  0  0  0  0  0  0  0  0  0  # atno 17342 bound_to 10162
  140.3367  144.3252  150.5976 LP  0  0  0  0  0  0  0  0  0  0  0  0  # atno 17343 bound_to 10162
  156.1185  130.6092  151.0157 LP  0  0  0  0  0  0  0  0  0  0  0  0  # atno 17370 bound_to 10713
  157.6621  131.0879  150.7815 LP  0  0  0  0  0  0  0  0  0  0  0  0  # atno 17371 bound_to 10713
  139.9536  135.0170  156.9066 LP  0  0  0  0  0  0  0  0  0  0  0  0  # atno 17394 bound_to 11000
  140.5646  134.0502  155.7410 LP  0  0  0  0  0  0  0  0  0  0  0  0  # atno 17395 bound_to 11000

$$$$
