AV-unprocessed.smi:1854|AV-procd|sdf|7529|dock3
  -GOLD-   22720 9243D 1   1.00000     0.00000
 Structure written by MMmdl.
 39 41  0  0  0  0  0  0  0  0  1 V2000
  151.8674  135.7081  155.9009 O   0  0  0  0  0  0  0  0  0  0  0  0
  151.0807  135.6495  154.9573 C   0  0  0  0  0  0  0  0  0  0  0  0
  150.7654  136.6839  154.1650 N   0  0  0  0  0  0  0  0  0  0  0  0
  151.2959  138.0368  154.3006 C   0  0  0  0  0  0  0  0  0  0  0  0
  150.1546  139.0093  154.3711 C   0  0  0  0  0  0  0  0  0  0  0  0
  149.1221  138.9490  153.5292 N   0  0  0  0  0  0  0  0  0  0  0  0
  148.3262  139.9973  153.9475 C   0  0  0  0  0  0  0  0  0  0  0  0
  147.0837  140.4596  153.4579 C   0  0  0  0  0  0  0  0  0  0  0  0
  146.4451  141.5632  154.0608 C   0  0  0  0  0  0  0  0  0  0  0  0
  147.0386  142.2192  155.1587 C   0  0  0  0  0  0  0  0  0  0  0  0
  148.2772  141.7759  155.6608 C   0  0  0  0  0  0  0  0  0  0  0  0
  148.9108  140.6746  155.0548 C   0  0  0  0  0  0  0  0  0  0  0  0
  150.1029  140.0005  155.2966 N   0  0  0  0  0  0  0  0  0  0  0  0
  151.0659  140.3102  156.3413 C   0  0  0  0  0  0  0  0  0  0  0  0
  150.4933  140.0254  157.7346 C   0  0  0  0  0  0  0  0  0  0  0  0
  151.3946  140.5361  158.7059 O   0  0  0  0  0  0  0  0  0  0  0  0
  151.4620  141.9025  158.8845 C   0  0  0  0  0  0  0  0  0  0  0  0
  150.8160  142.8426  158.0409 C   0  0  0  0  0  0  0  0  0  0  0  0
  150.9311  144.2240  158.2892 C   0  0  0  0  0  0  0  0  0  0  0  0
  151.6904  144.6851  159.3796 C   0  0  0  0  0  0  0  0  0  0  0  0
  152.3362  143.7618  160.2219 C   0  0  0  0  0  0  0  0  0  0  0  0
  152.2228  142.3793  159.9758 C   0  0  0  0  0  0  0  0  0  0  0  0
  153.0249  141.2679  161.0272 Cl  0  0  0  0  0  0  0  0  0  0  0  0
  150.5411  134.7409  154.6485 H   0  0  0  0  0  0  0  0  0  0  0  0
  150.1048  136.5253  153.4181 H   0  0  0  0  0  0  0  0  0  0  0  0
  151.9180  138.1282  155.1928 H   0  0  0  0  0  0  0  0  0  0  0  0
  151.9345  138.2676  153.4482 H   0  0  0  0  0  0  0  0  0  0  0  0
  146.6205  139.9632  152.6180 H   0  0  0  0  0  0  0  0  0  0  0  0
  145.4949  141.9077  153.6796 H   0  0  0  0  0  0  0  0  0  0  0  0
  146.5425  143.0631  155.6154 H   0  0  0  0  0  0  0  0  0  0  0  0
  148.7343  142.2757  156.5018 H   0  0  0  0  0  0  0  0  0  0  0  0
  151.9790  139.7383  156.1770 H   0  0  0  0  0  0  0  0  0  0  0  0
  151.3445  141.3610  156.2579 H   0  0  0  0  0  0  0  0  0  0  0  0
  149.5174  140.5031  157.8358 H   0  0  0  0  0  0  0  0  0  0  0  0
  150.3636  138.9503  157.8694 H   0  0  0  0  0  0  0  0  0  0  0  0
  150.2250  142.5300  157.1938 H   0  0  0  0  0  0  0  0  0  0  0  0
  150.4354  144.9312  157.6406 H   0  0  0  0  0  0  0  0  0  0  0  0
  151.7777  145.7447  159.5696 H   0  0  0  0  0  0  0  0  0  0  0  0
  152.9199  144.1162  161.0589 H   0  0  0  0  0  0  0  0  0  0  0  0
  1  2  2  0  0  0  0
  2  3  1  0  0  0  0
  2 24  1  0  0  0  0
  3  4  1  0  0  0  0
  3 25  1  0  0  0  0
  4  5  1  0  0  0  0
  4 26  1  0  0  0  0
  4 27  1  0  0  0  0
  5 13  1  0  0  0  0
  5  6  2  0  0  0  0
  6  7  1  0  0  0  0
  7 12  2  0  0  0  0
  7  8  1  0  0  0  0
  8  9  2  0  0  0  0
  8 28  1  0  0  0  0
  9 10  1  0  0  0  0
  9 29  1  0  0  0  0
 10 11  2  0  0  0  0
 10 30  1  0  0  0  0
 11 12  1  0  0  0  0
 11 31  1  0  0  0  0
 12 13  1  0  0  0  0
 13 14  1  0  0  0  0
 14 15  1  0  0  0  0
 14 32  1  0  0  0  0
 14 33  1  0  0  0  0
 15 16  1  0  0  0  0
 15 34  1  0  0  0  0
 15 35  1  0  0  0  0
 16 17  1  0  0  0  0
 17 22  1  0  0  0  0
 17 18  2  0  0  0  0
 18 19  1  0  0  0  0
 18 36  1  0  0  0  0
 19 20  2  0  0  0  0
 19 37  1  0  0  0  0
 20 21  1  0  0  0  0
 20 38  1  0  0  0  0
 21 22  2  0  0  0  0
 21 39  1  0  0  0  0
 22 23  1  0  0  0  0
M  END
> <s_m_source_file>
AV-unprocessed.smi

> <i_m_source_file_index>
1854

> <i_lp_mmshare_version>
43012

> <i_f3d_flags>
0

> <s_epik_input>
Tz1bQ0hdW05IXVtDSDJdYyhuMSluKGMoYzEyKVtjSF1bY0hdW2NIXVtjSF0yKVtDSDJdW0NIMl1PYzNbY0hdW2NIXVtjSF1bY0hdYzNDbA==

> <s_epik_cmdline>
J2VwaWtfcHl0aG9uJywgJy1waCcsICc3LjAnLCAnLXRuJywgJzgnLCAnLW1hJywgJzIwMCcsICctbWV0YWxfYmluZGluZycsICctaW1hZScsICc8aW5maWxlLm1hZT4nLCAnLW9tYWUnLCAnPG91dGZpbGUubWFlPic=

> <r_lp_tautomer_probability>
1

> <r_epik_Ionization_Penalty>
0.0546265

> <r_epik_Ionization_Penalty_Charging>
0

> <r_epik_Ionization_Penalty_Neutral>
0.0546265

> <r_epik_State_Penalty>
0.0470049

> <r_epik_Charging_Adjusted_Penalty>
0.0470049

> <i_epik_Tot_Q>
0

> <i_epik_Tot_abs_Q>
0

> <r_epik_Metal_State_Penalty>
0.0430103

> <b_epik_Metal_Only>
0

> <s_lp_Force_Field>
OPLS_2005

> <r_lp_Energy>
13.3616

> <b_lp_Chiralities_Consistent>
1

> <s_lp_Variant>
AV-unprocessed.smi:1854-1

> <Gold.Version>
5.8.1

> <Gold.Id.Protein>
6NUR|6NUR_protein|mol2

> <Gold.PLP.Fitness>
54.8559

> <Gold.PLP.PLP>
-49.5724

> <Gold.PLP.part.hbond>
-3.0000

> <Gold.PLP.part.metal>
0.0000

> <Gold.PLP.part.buried>
-1.4245

> <Gold.PLP.part.nonpolar>
-48.6090

> <Gold.PLP.part.repulsive>
2.8889

> <Gold.PLP.ligand.clash>
0.0000

> <Gold.PLP.ligand.torsion>
0.3827

> <Gold.PLP.Chemscore.Hbond>
2.0000

> <Gold.PLP.Chemscore.CHOScore>
0.0000

> <Gold.PLP.Chemscore.Metal>
0.0000

> <Gold.Chemscore.Hbonds>
donor molecule, donor type, donor heavy atom, donor atom, acceptor molecule, acceptor atom, score
      L1  H     3    25       P1  7948  0.65
      P1  H 10752 10765       L1     1  0.95

> <Gold.PLP.Chemscore.Internal.Correction>
0.0491

> <Gold.Rescore>
     Score         DG    S(hbond)    S(metal)    S(lipo)     H(rot)  DE(clash)    DE(int)     intcor
     16.17     -19.16       1.47        0.00     127.83       2.42       2.31       0.69       ----

> <Gold.Chemscore.Fitness>
16.1660

> <Gold.Chemscore.DG>
-19.1637

> <Gold.Chemscore.ZeroCoef>
-5.4800

> <Gold.Chemscore.Hbond>
1.4744

> <Gold.Chemscore.Metal>
0.0000

> <Gold.Chemscore.Lipo>
127.8258

> <Gold.Chemscore.Internal_Hbond>
0.0000

> <Gold.Chemscore.DEClash>
2.3124

> <Gold.Chemscore.DEInternal>
0.6853

> <Gold.Chemscore.Rot>
2.4205

> <Gold.Chemscore.Internal.Correction>
   9.000000E+99

> <Gold.Chemscore.Hbonds>
donor molecule, donor type, donor heavy atom, donor atom, acceptor molecule, acceptor atom, score
      L1  H     3    25       P1  7948  0.06
      P1  H 10752 10765       L1     1  0.21

> <Gold.Chemscore.Hbond.Weighted>
-4.9246

> <Gold.Chemscore.Metal.Weighted>
-0.0000

> <Gold.Chemscore.Lipo.Weighted>
-14.9556

> <Gold.Chemscore.Internal_Hbond.Weighted>
0.0000

> <Gold.Chemscore.DEClash.Weighted>
2.3124

> <Gold.Chemscore.DEInternal.Weighted>
0.6853

> <Gold.Chemscore.Rot.Weighted>
6.1965

> <Gold.Chemscore.Internal.Correction.Weighted>
   9.000000E+99

> <Gold.Protein.RotatedTorsions>
[ 6907 6896 6895 6894 ] final  146.78 input  -60.11 | X-H torsion
[ 7974 7965 7964 7962 ] final  -55.30 input  175.53 | X-H torsion
[ 8008 7997 7996 7995 ] final   16.28 input   59.86 | X-H torsion
[ 10167 10162 10161 10158 ] final   10.51 input  -65.29 | X-H torsion
[ 10718 10713 10712 10709 ] final -106.85 input   66.30 | X-H torsion
[ 10763 10752 10751 10750 ] final -143.93 input  -60.55 | X-H torsion
[ 11005 11000 10999 10996 ] final   93.28 input  -57.11 | X-H torsion

> <Gold.Protein.ActiveResidues>
 VAL166  LYS551  ARG553  GLY616  TRP617  ASP618  TYR619  PRO620  LYS621  CYS622 
 ASP623  PHE694  ASN695  SER759  ASP760  ASP761  ALA762  ILE779  LEU786  VAL792 
 PHE793  MET794  SER795  GLU796  ALA797  LYS798  CYS799  TRP800  GLU811  SER814 

> <Gold.Protein.RotatedAtoms>
  152.1634  133.4596  159.4872 H   0  0  0  0  0  0  0  0  0  0  0  0  # atno 6907 bound_to 6896
  150.6910  134.2043  159.4343 H   0  0  0  0  0  0  0  0  0  0  0  0  # atno 6908 bound_to 6896
  151.9946  134.9960  160.0613 H   0  0  0  0  0  0  0  0  0  0  0  0  # atno 6909 bound_to 6896
  145.8758  140.8182  142.9865 H   0  0  0  0  0  0  0  0  0  0  0  0  # atno 7974 bound_to 7965
  154.8748  140.2964  155.5460 H   0  0  0  0  0  0  0  0  0  0  0  0  # atno 8008 bound_to 7997
  156.3022  140.2453  156.3675 H   0  0  0  0  0  0  0  0  0  0  0  0  # atno 8009 bound_to 7997
  154.8779  140.0399  157.1753 H   0  0  0  0  0  0  0  0  0  0  0  0  # atno 8010 bound_to 7997
  140.6190  143.8246  150.7152 H   0  0  0  0  0  0  0  0  0  0  0  0  # atno 10167 bound_to 10162
  156.0409  130.5633  150.7739 H   0  0  0  0  0  0  0  0  0  0  0  0  # atno 10718 bound_to 10713
  154.8449  135.3454  154.6265 H   0  0  0  0  0  0  0  0  0  0  0  0  # atno 10763 bound_to 10752
  153.6874  135.6977  153.5104 H   0  0  0  0  0  0  0  0  0  0  0  0  # atno 10764 bound_to 10752
  153.2621  135.4319  155.0860 H   0  0  0  0  0  0  0  0  0  0  0  0  # atno 10765 bound_to 10752
  139.8812  134.8781  156.3694 H   0  0  0  0  0  0  0  0  0  0  0  0  # atno 11005 bound_to 11000
  144.6726  140.1308  143.7444 LP  0  0  0  0  0  0  0  0  0  0  0  0  # atno 17320 bound_to 7965
  145.9083  139.2471  143.1452 LP  0  0  0  0  0  0  0  0  0  0  0  0  # atno 17321 bound_to 7965
  140.1832  143.4098  152.1918 LP  0  0  0  0  0  0  0  0  0  0  0  0  # atno 17342 bound_to 10162
  139.5422  144.7267  151.4696 LP  0  0  0  0  0  0  0  0  0  0  0  0  # atno 17343 bound_to 10162
  157.5225  131.0932  151.0060 LP  0  0  0  0  0  0  0  0  0  0  0  0  # atno 17370 bound_to 10713
  157.0387  130.5740  149.5353 LP  0  0  0  0  0  0  0  0  0  0  0  0  # atno 17371 bound_to 10713
  140.9474  133.7473  156.0227 LP  0  0  0  0  0  0  0  0  0  0  0  0  # atno 17394 bound_to 11000
  140.8146  134.3359  157.5401 LP  0  0  0  0  0  0  0  0  0  0  0  0  # atno 17395 bound_to 11000

$$$$
