AV-unprocessed.smi:3034|AV-procd|sdf|11578|dock7
  -GOLD-   2272016543D 1   1.00000     0.00000
 Structure written by MMmdl.
 32 32  0  0  0  0  0  0  0  0  1 V2000
  146.6553  137.7633  154.5926 C   0  0  0  0  0  0  0  0  0  0  0  0
  147.9081  138.6045  154.3273 C   0  0  0  0  0  0  0  0  0  0  0  0
  148.1460  139.6633  155.4131 C   0  0  0  0  0  0  0  0  0  0  0  0
  149.5570  140.7705  154.9838 S   0  0  0  0  0  0  0  0  0  0  0  0
  150.8125  140.0082  155.0707 O   0  0  0  0  0  0  0  0  0  0  0  0
  149.2242  141.5186  153.7623 O   0  0  0  0  0  0  0  0  0  0  0  0
  149.5430  141.8985  156.2859 N   0  0  0  0  0  0  0  0  0  0  0  0
  150.6809  141.8965  157.2055 C   0  0  0  0  0  0  0  0  0  0  0  0
  150.7497  143.2151  157.9957 C   0  0  1  0  0  0  0  0  0  0  0  0
  149.4319  143.6741  158.2328 O   0  0  0  0  0  0  0  0  0  0  0  0
  151.5376  143.0358  159.2878 C   0  0  0  0  0  0  0  0  0  0  0  0
  151.6233  144.0640  160.2550 C   0  0  0  0  0  0  0  0  0  0  0  0
  152.3503  143.8191  161.4360 C   0  0  0  0  0  0  0  0  0  0  0  0
  152.9579  142.5613  161.6107 C   0  0  0  0  0  0  0  0  0  0  0  0
  152.8091  141.5993  160.5927 C   0  0  0  0  0  0  0  0  0  0  0  0
  152.1140  141.8237  159.4571 N   0  0  0  0  0  0  0  0  0  0  0  0
  146.5144  137.0193  153.8083 H   0  0  0  0  0  0  0  0  0  0  0  0
  145.7616  138.3870  154.6236 H   0  0  0  0  0  0  0  0  0  0  0  0
  146.7297  137.2345  155.5430 H   0  0  0  0  0  0  0  0  0  0  0  0
  148.7753  137.9465  154.2640 H   0  0  0  0  0  0  0  0  0  0  0  0
  147.8146  139.0879  153.3545 H   0  0  0  0  0  0  0  0  0  0  0  0
  147.2590  140.2877  155.5215 H   0  0  0  0  0  0  0  0  0  0  0  0
  148.3472  139.2081  156.3829 H   0  0  0  0  0  0  0  0  0  0  0  0
  149.3539  142.8414  155.9463 H   0  0  0  0  0  0  0  0  0  0  0  0
  150.6190  141.0372  157.8744 H   0  0  0  0  0  0  0  0  0  0  0  0
  151.5889  141.7754  156.6130 H   0  0  0  0  0  0  0  0  0  0  0  0
  151.2552  143.9741  157.3960 H   0  0  0  0  0  0  0  0  0  0  0  0
  149.0276  143.8608  157.3995 H   0  0  0  0  0  0  0  0  0  0  0  0
  151.1428  145.0195  160.1054 H   0  0  0  0  0  0  0  0  0  0  0  0
  152.4380  144.5821  162.1954 H   0  0  0  0  0  0  0  0  0  0  0  0
  153.5223  142.3382  162.5040 H   0  0  0  0  0  0  0  0  0  0  0  0
  153.2589  140.6228  160.6939 H   0  0  0  0  0  0  0  0  0  0  0  0
  1  2  1  0  0  0  0
  1 17  1  0  0  0  0
  1 18  1  0  0  0  0
  1 19  1  0  0  0  0
  2  3  1  0  0  0  0
  2 20  1  0  0  0  0
  2 21  1  0  0  0  0
  3  4  1  0  0  0  0
  3 22  1  0  0  0  0
  3 23  1  0  0  0  0
  4  5  2  0  0  0  0
  4  6  2  0  0  0  0
  4  7  1  0  0  0  0
  7  8  1  0  0  0  0
  7 24  1  0  0  0  0
  8  9  1  0  0  0  0
  8 25  1  0  0  0  0
  8 26  1  0  0  0  0
  9 10  1  0  0  0  0
  9 11  1  0  0  0  0
  9 27  1  0  0  0  0
 10 28  1  0  0  0  0
 11 16  1  0  0  0  0
 11 12  2  0  0  0  0
 12 13  1  0  0  0  0
 12 29  1  0  0  0  0
 13 14  2  0  0  0  0
 13 30  1  0  0  0  0
 14 15  1  0  0  0  0
 14 31  1  0  0  0  0
 15 16  2  0  0  0  0
 15 32  1  0  0  0  0
M  END
> <s_m_source_file>
AV-unprocessed.smi

> <i_m_source_file_index>
3034

> <i_lp_mmshare_version>
43012

> <i_f3d_flags>
0

> <s_epik_input>
W0NIM11bQ0gyXVtDSDJdUyg9TykoPU8pW05IXVtDSDJdW0NASF0oW09IXSljMVtjSF1bY0hdW2NIXVtjSF1uMQ==

> <s_epik_cmdline>
J2VwaWtfcHl0aG9uJywgJy1waCcsICc3LjAnLCAnLXRuJywgJzgnLCAnLW1hJywgJzIwMCcsICctbWV0YWxfYmluZGluZycsICctaW1hZScsICc8aW5maWxlLm1hZT4nLCAnLW9tYWUnLCAnPG91dGZpbGUubWFlPic=

> <r_epik_Ionization_Penalty>
0.00187371

> <r_epik_Ionization_Penalty_Charging>
0

> <r_epik_Ionization_Penalty_Neutral>
0.00187371

> <r_epik_State_Penalty>
0.0012608

> <r_epik_Charging_Adjusted_Penalty>
0.0012608

> <i_epik_Tot_Q>
0

> <i_epik_Tot_abs_Q>
0

> <r_epik_Metal_State_Penalty>
0.0168387

> <b_epik_Metal_Only>
0

> <s_lp_Force_Field>
OPLS_2005

> <r_lp_Energy>
4.76334

> <b_lp_Chiralities_Consistent>
1

> <s_lp_Variant>
AV-unprocessed.smi:3034-2

> <Gold.Version>
5.8.1

> <Gold.Id.Protein>
6NUR|6NUR_protein|mol2

> <Gold.PLP.Fitness>
42.4027

> <Gold.PLP.PLP>
-33.0725

> <Gold.PLP.part.hbond>
-5.8929

> <Gold.PLP.part.metal>
0.0000

> <Gold.PLP.part.buried>
-3.7398

> <Gold.PLP.part.nonpolar>
-23.4642

> <Gold.PLP.part.repulsive>
0.7543

> <Gold.PLP.ligand.clash>
0.0000

> <Gold.PLP.ligand.torsion>
0.5862

> <Gold.PLP.Chemscore.Hbond>
3.4380

> <Gold.PLP.Chemscore.CHOScore>
0.0000

> <Gold.PLP.Chemscore.Metal>
0.0000

> <Gold.Chemscore.Hbonds>
donor molecule, donor type, donor heavy atom, donor atom, acceptor molecule, acceptor atom, score
      L1  H     7    24       P1  8028  1.00
      L1  H    10    28       P1  8028  0.80
      P1  H  7989  7998       L1     5  0.75
      P1  H  8011  8017       L1     6  0.75

> <Gold.PLP.Chemscore.Internal.Correction>
0.1885

> <Gold.Rescore>
     Score         DG    S(hbond)    S(metal)    S(lipo)     H(rot)  DE(clash)    DE(int)     intcor
     15.97     -16.54       2.62        0.00      77.35       2.63       0.03       0.54       ----

> <Gold.Chemscore.Fitness>
15.9688

> <Gold.Chemscore.DG>
-16.5419

> <Gold.Chemscore.ZeroCoef>
-5.4800

> <Gold.Chemscore.Hbond>
2.6161

> <Gold.Chemscore.Metal>
0.0000

> <Gold.Chemscore.Lipo>
77.3546

> <Gold.Chemscore.Internal_Hbond>
0.0000

> <Gold.Chemscore.DEClash>
0.0299

> <Gold.Chemscore.DEInternal>
0.5432

> <Gold.Chemscore.Rot>
2.6275

> <Gold.Chemscore.Internal.Correction>
   9.000000E+99

> <Gold.Chemscore.Hbonds>
donor molecule, donor type, donor heavy atom, donor atom, acceptor molecule, acceptor atom, score
      L1  H     7    24       P1  8028  0.99
      L1  H    10    28       P1  8028  0.12
      P1  H  7989  7998       L1     5  0.09
      P1  H  8011  8017       L1     6  0.74

> <Gold.Chemscore.Hbond.Weighted>
-8.7379

> <Gold.Chemscore.Metal.Weighted>
-0.0000

> <Gold.Chemscore.Lipo.Weighted>
-9.0505

> <Gold.Chemscore.Internal_Hbond.Weighted>
0.0000

> <Gold.Chemscore.DEClash.Weighted>
0.0299

> <Gold.Chemscore.DEInternal.Weighted>
0.5432

> <Gold.Chemscore.Rot.Weighted>
6.7265

> <Gold.Chemscore.Internal.Correction.Weighted>
   9.000000E+99

> <Gold.Protein.RotatedTorsions>
[ 6907 6896 6895 6894 ] final -135.49 input  -60.11 | X-H torsion
[ 7974 7965 7964 7962 ] final  144.34 input  175.53 | X-H torsion
[ 8008 7997 7996 7995 ] final  163.55 input   59.86 | X-H torsion
[ 10167 10162 10161 10158 ] final -133.16 input  -65.29 | X-H torsion
[ 10718 10713 10712 10709 ] final  -37.88 input   66.30 | X-H torsion
[ 10763 10752 10751 10750 ] final  -79.54 input  -60.55 | X-H torsion
[ 11005 11000 10999 10996 ] final -152.40 input  -57.11 | X-H torsion

> <Gold.Protein.ActiveResidues>
 VAL166  LYS551  ARG553  GLY616  TRP617  ASP618  TYR619  PRO620  LYS621  CYS622 
 ASP623  PHE694  ASN695  SER759  ASP760  ASP761  ALA762  ILE779  LEU786  VAL792 
 PHE793  MET794  SER795  GLU796  ALA797  LYS798  CYS799  TRP800  GLU811  SER814 

> <Gold.Protein.RotatedAtoms>
  150.9985  133.6080  159.2698 H   0  0  0  0  0  0  0  0  0  0  0  0  # atno 6907 bound_to 6896
  151.3275  135.0832  159.9337 H   0  0  0  0  0  0  0  0  0  0  0  0  # atno 6908 bound_to 6896
  152.5267  133.9620  159.7776 H   0  0  0  0  0  0  0  0  0  0  0  0  # atno 6909 bound_to 6896
  144.8844  139.5651  143.5828 H   0  0  0  0  0  0  0  0  0  0  0  0  # atno 7974 bound_to 7965
  156.1949  140.1720  156.8019 H   0  0  0  0  0  0  0  0  0  0  0  0  # atno 8008 bound_to 7997
  154.5516  140.0716  156.8709 H   0  0  0  0  0  0  0  0  0  0  0  0  # atno 8009 bound_to 7997
  155.3017  140.3362  155.4250 H   0  0  0  0  0  0  0  0  0  0  0  0  # atno 8010 bound_to 7997
  139.9012  143.6606  152.2594 H   0  0  0  0  0  0  0  0  0  0  0  0  # atno 10167 bound_to 10162
  156.3102  130.4251  149.8058 H   0  0  0  0  0  0  0  0  0  0  0  0  # atno 10718 bound_to 10713
  154.5399  135.5692  153.6830 H   0  0  0  0  0  0  0  0  0  0  0  0  # atno 10763 bound_to 10752
  152.9961  135.6225  154.2516 H   0  0  0  0  0  0  0  0  0  0  0  0  # atno 10764 bound_to 10752
  154.2446  135.2861  155.2820 H   0  0  0  0  0  0  0  0  0  0  0  0  # atno 10765 bound_to 10752
  140.7193  134.3745  157.5186 H   0  0  0  0  0  0  0  0  0  0  0  0  # atno 11005 bound_to 11000
  146.3015  139.7441  142.9088 LP  0  0  0  0  0  0  0  0  0  0  0  0  # atno 17320 bound_to 7965
  145.3896  141.0370  143.3131 LP  0  0  0  0  0  0  0  0  0  0  0  0  # atno 17321 bound_to 7965
  139.7024  144.7633  151.1251 LP  0  0  0  0  0  0  0  0  0  0  0  0  # atno 17342 bound_to 10162
  140.7706  143.5440  150.9280 LP  0  0  0  0  0  0  0  0  0  0  0  0  # atno 17343 bound_to 10162
  156.5404  130.8297  151.3267 LP  0  0  0  0  0  0  0  0  0  0  0  0  # atno 17370 bound_to 10713
  157.7389  130.9822  150.2281 LP  0  0  0  0  0  0  0  0  0  0  0  0  # atno 17371 bound_to 10713
  139.8852  134.8944  156.2657 LP  0  0  0  0  0  0  0  0  0  0  0  0  # atno 17394 bound_to 11000
  141.0017  133.7147  156.0971 LP  0  0  0  0  0  0  0  0  0  0  0  0  # atno 17395 bound_to 11000

$$$$
