AV-unprocessed.smi:3188|AV-procd|sdf|12184|dock2
  -GOLD-   2272018 23D 1   1.00000     0.00000
 Structure written by MMmdl.
 40 41  0  0  0  0  0  0  0  0  2 V2000
  151.3571  144.9881  158.3423 C   0  0  0  0  0  0  0  0  0  0  0  0
  151.8368  143.6963  158.9838 C   0  0  0  0  0  0  0  0  0  0  0  0
  152.5167  143.7404  160.1456 C   0  0  0  0  0  0  0  0  0  0  0  0
  153.1037  142.5315  160.8370 C   0  0  0  0  0  0  0  0  0  0  0  0
  153.2735  141.3671  159.8588 C   0  0  0  0  0  0  0  0  0  0  0  0
  151.9870  141.1155  159.0552 C   0  0  2  0  0  0  0  0  0  0  0  0
  152.1795  139.8763  158.1593 C   0  0  0  0  0  0  0  0  0  0  0  0
  151.5372  142.3732  158.2489 C   0  0  1  0  0  0  0  0  0  0  0  0
  150.0467  142.2399  157.8376 C   0  0  0  0  0  0  0  0  0  0  0  0
  149.8609  142.1296  156.3758 N   0  3  0  0  0  0  0  0  0  0  0  0
  149.0483  140.9717  155.9569 C   0  0  0  0  0  0  0  0  0  0  0  0
  149.4803  140.4685  154.5718 C   0  0  0  0  0  0  0  0  0  0  0  0
  150.7036  139.6928  154.6383 N   0  0  0  0  0  0  0  0  0  0  0  0
  150.9501  138.4293  154.1417 C   0  0  0  0  0  0  0  0  0  0  0  0
  152.2520  138.2020  154.4865 C   0  0  0  0  0  0  0  0  0  0  0  0
  152.7359  139.3189  155.1657 N   0  0  0  0  0  0  0  0  0  0  0  0
  151.7980  140.2091  155.2471 N   0  0  0  0  0  0  0  0  0  0  0  0
  151.6735  145.0384  157.3003 H   0  0  0  0  0  0  0  0  0  0  0  0
  151.7677  145.8597  158.8533 H   0  0  0  0  0  0  0  0  0  0  0  0
  150.2712  145.0677  158.3896 H   0  0  0  0  0  0  0  0  0  0  0  0
  152.6840  144.6879  160.6371 H   0  0  0  0  0  0  0  0  0  0  0  0
  154.0709  142.7981  161.2643 H   0  0  0  0  0  0  0  0  0  0  0  0
  152.4527  142.2523  161.6658 H   0  0  0  0  0  0  0  0  0  0  0  0
  154.0952  141.5839  159.1743 H   0  0  0  0  0  0  0  0  0  0  0  0
  153.5615  140.4715  160.4110 H   0  0  0  0  0  0  0  0  0  0  0  0
  151.2048  140.8815  159.7796 H   0  0  0  0  0  0  0  0  0  0  0  0
  152.9426  140.0524  157.4005 H   0  0  0  0  0  0  0  0  0  0  0  0
  151.2645  139.5843  157.6465 H   0  0  0  0  0  0  0  0  0  0  0  0
  152.4973  139.0156  158.7486 H   0  0  0  0  0  0  0  0  0  0  0  0
  152.1406  142.4039  157.3401 H   0  0  0  0  0  0  0  0  0  0  0  0
  149.5934  141.3547  158.2809 H   0  0  0  0  0  0  0  0  0  0  0  0
  149.4831  143.0937  158.2169 H   0  0  0  0  0  0  0  0  0  0  0  0
  149.4087  142.9717  156.0494 H   0  0  0  0  0  0  0  0  0  0  0  0
  149.1507  140.1769  156.6973 H   0  0  0  0  0  0  0  0  0  0  0  0
  147.9969  141.2614  155.9362 H   0  0  0  0  0  0  0  0  0  0  0  0
  148.6993  139.8450  154.1345 H   0  0  0  0  0  0  0  0  0  0  0  0
  149.6368  141.3058  153.8901 H   0  0  0  0  0  0  0  0  0  0  0  0
  150.2190  137.8337  153.6149 H   0  0  0  0  0  0  0  0  0  0  0  0
  152.8744  137.3379  154.3045 H   0  0  0  0  0  0  0  0  0  0  0  0
  150.7701  142.0619  155.9408 H   0  0  0  0  0  0  0  0  0  0  0  0
  1  2  1  0  0  0  0
  1 18  1  0  0  0  0
  1 19  1  0  0  0  0
  1 20  1  0  0  0  0
  2  8  1  0  0  0  0
  2  3  2  0  0  0  0
  3  4  1  0  0  0  0
  3 21  1  0  0  0  0
  4  5  1  0  0  0  0
  4 22  1  0  0  0  0
  4 23  1  0  0  0  0
  5  6  1  0  0  0  0
  5 24  1  0  0  0  0
  5 25  1  0  0  0  0
  6  7  1  0  0  0  0
  6  8  1  0  0  0  0
  6 26  1  0  0  0  0
  7 27  1  0  0  0  0
  7 28  1  0  0  0  0
  7 29  1  0  0  0  0
  8  9  1  0  0  0  0
  8 30  1  0  0  0  0
  9 10  1  0  0  0  0
  9 31  1  0  0  0  0
  9 32  1  0  0  0  0
 10 11  1  0  0  0  0
 10 33  1  0  0  0  0
 10 40  1  0  0  0  0
 11 12  1  0  0  0  0
 11 34  1  0  0  0  0
 11 35  1  0  0  0  0
 12 13  1  0  0  0  0
 12 36  1  0  0  0  0
 12 37  1  0  0  0  0
 13 17  1  0  0  0  0
 13 14  1  0  0  0  0
 14 15  2  0  0  0  0
 14 38  1  0  0  0  0
 15 16  1  0  0  0  0
 15 39  1  0  0  0  0
 16 17  2  0  0  0  0
M  CHG  1  10   1
M  END
> <s_m_source_file>
AV-unprocessed.smi

> <i_m_source_file_index>
3188

> <i_lp_mmshare_version>
43012

> <i_f3d_flags>
0

> <s_epik_input>
W0NIM11DMT1bQ0hdW0NIMl1bQ0gyXVtDQEBIXShbQ0gzXSlbQ0BIXTFbQ0gyXVtOSF1bQ0gyXVtDSDJdbjJbY0hdW2NIXW5uMg==

> <s_epik_cmdline>
J2VwaWtfcHl0aG9uJywgJy1waCcsICc3LjAnLCAnLXRuJywgJzgnLCAnLW1hJywgJzIwMCcsICctbWV0YWxfYmluZGluZycsICctaW1hZScsICc8aW5maWxlLm1hZT4nLCAnLW9tYWUnLCAnPG91dGZpbGUubWFlPic=

> <r_lp_tautomer_probability>
1

> <r_epik_Ionization_Penalty>
0.007268

> <r_epik_Ionization_Penalty_Charging>
0.00726786

> <r_epik_Ionization_Penalty_Neutral>
1.34882e-07

> <r_epik_State_Penalty>
0.00542069

> <r_epik_Charging_Adjusted_Penalty>
0.0126886

> <i_epik_Tot_Q>
1

> <i_epik_Tot_abs_Q>
1

> <r_epik_Metal_State_Penalty>
-0

> <b_epik_Metal_Only>
0

> <s_lp_Force_Field>
OPLS_2005

> <r_lp_Energy>
15.008

> <b_lp_Chiralities_Consistent>
1

> <s_lp_Variant>
AV-unprocessed.smi:3188-2

> <Gold.Version>
5.8.1

> <Gold.Id.Protein>
6NUR|6NUR_protein|mol2

> <Gold.PLP.Fitness>
50.7702

> <Gold.PLP.PLP>
-42.5327

> <Gold.PLP.part.hbond>
-3.1291

> <Gold.PLP.part.metal>
0.0000

> <Gold.PLP.part.buried>
-4.4422

> <Gold.PLP.part.nonpolar>
-34.7332

> <Gold.PLP.part.repulsive>
0.0879

> <Gold.PLP.ligand.clash>
0.0000

> <Gold.PLP.ligand.torsion>
1.4176

> <Gold.PLP.Chemscore.Hbond>
3.0000

> <Gold.PLP.Chemscore.CHOScore>
0.6624

> <Gold.PLP.Chemscore.Metal>
0.0000

> <Gold.Chemscore.Hbonds>
donor molecule, donor type, donor heavy atom, donor atom, acceptor molecule, acceptor atom, score
      L1  H    10    33       P1  8028  2.00
      P1  H  7997  8010       L1    16  0.94
      L1  C    14    38       P1  7948  0.71

> <Gold.PLP.Chemscore.Internal.Correction>
0.0854

> <Gold.Rescore>
     Score         DG    S(hbond)    S(metal)    S(lipo)     H(rot)  DE(clash)    DE(int)     intcor
     18.01     -20.77       1.94        0.00     114.25       1.78       0.15       2.61       ----

> <Gold.Chemscore.Fitness>
18.0065

> <Gold.Chemscore.DG>
-20.7683

> <Gold.Chemscore.ZeroCoef>
-5.4800

> <Gold.Chemscore.Hbond>
1.9402

> <Gold.Chemscore.Metal>
0.0000

> <Gold.Chemscore.Lipo>
114.2493

> <Gold.Chemscore.Internal_Hbond>
0.0000

> <Gold.Chemscore.DEClash>
0.1519

> <Gold.Chemscore.DEInternal>
2.6100

> <Gold.Chemscore.Rot>
1.7809

> <Gold.Chemscore.Internal.Correction>
   9.000000E+99

> <Gold.Chemscore.Hbonds>
donor molecule, donor type, donor heavy atom, donor atom, acceptor molecule, acceptor atom, score
      L1  H    10    33       P1  8028  1.00
      P1  H  7997  8010       L1    16  0.50

> <Gold.Chemscore.Hbond.Weighted>
-6.4802

> <Gold.Chemscore.Metal.Weighted>
-0.0000

> <Gold.Chemscore.Lipo.Weighted>
-13.3672

> <Gold.Chemscore.Internal_Hbond.Weighted>
0.0000

> <Gold.Chemscore.DEClash.Weighted>
0.1519

> <Gold.Chemscore.DEInternal.Weighted>
2.6100

> <Gold.Chemscore.Rot.Weighted>
4.5590

> <Gold.Chemscore.Internal.Correction.Weighted>
   9.000000E+99

> <Gold.Protein.RotatedTorsions>
[ 6907 6896 6895 6894 ] final  -86.67 input  -60.11 | X-H torsion
[ 7974 7965 7964 7962 ] final  -86.53 input  175.53 | X-H torsion
[ 8008 7997 7996 7995 ] final   93.25 input   59.86 | X-H torsion
[ 10167 10162 10161 10158 ] final  177.35 input  -65.29 | X-H torsion
[ 10718 10713 10712 10709 ] final   56.06 input   66.30 | X-H torsion
[ 10763 10752 10751 10750 ] final   91.84 input  -60.55 | X-H torsion
[ 11005 11000 10999 10996 ] final  170.26 input  -57.11 | X-H torsion

> <Gold.Protein.ActiveResidues>
 VAL166  LYS551  ARG553  GLY616  TRP617  ASP618  TYR619  PRO620  LYS621  CYS622 
 ASP623  PHE694  ASN695  SER759  ASP760  ASP761  ALA762  ILE779  LEU786  VAL792 
 PHE793  MET794  SER795  GLU796  ALA797  LYS798  CYS799  TRP800  GLU811  SER814 

> <Gold.Protein.RotatedAtoms>
  150.6866  134.3015  159.4707 H   0  0  0  0  0  0  0  0  0  0  0  0  # atno 6907 bound_to 6896
  152.0910  134.9404  160.0581 H   0  0  0  0  0  0  0  0  0  0  0  0  # atno 6908 bound_to 6896
  152.0720  133.4077  159.4500 H   0  0  0  0  0  0  0  0  0  0  0  0  # atno 6909 bound_to 6896
  145.4786  140.9557  143.1877 H   0  0  0  0  0  0  0  0  0  0  0  0  # atno 7974 bound_to 7965
  156.0446  140.3315  155.7282 H   0  0  0  0  0  0  0  0  0  0  0  0  # atno 8008 bound_to 7997
  155.5692  140.0626  157.2828 H   0  0  0  0  0  0  0  0  0  0  0  0  # atno 8009 bound_to 7997
  154.4408  140.1863  156.0850 H   0  0  0  0  0  0  0  0  0  0  0  0  # atno 8010 bound_to 7997
  139.5250  144.2808  152.0548 H   0  0  0  0  0  0  0  0  0  0  0  0  # atno 10167 bound_to 10162
  157.5398  130.8689  149.8806 H   0  0  0  0  0  0  0  0  0  0  0  0  # atno 10718 bound_to 10713
  153.2126  135.4383  155.0397 H   0  0  0  0  0  0  0  0  0  0  0  0  # atno 10763 bound_to 10752
  154.8208  135.3336  154.7046 H   0  0  0  0  0  0  0  0  0  0  0  0  # atno 10764 bound_to 10752
  153.7483  135.7000  153.5007 H   0  0  0  0  0  0  0  0  0  0  0  0  # atno 10765 bound_to 10752
  140.3065  134.7552  157.3957 H   0  0  0  0  0  0  0  0  0  0  0  0  # atno 11005 bound_to 11000
  144.7902  139.6343  143.7116 LP  0  0  0  0  0  0  0  0  0  0  0  0  # atno 17320 bound_to 7965
  146.2354  139.5896  142.9527 LP  0  0  0  0  0  0  0  0  0  0  0  0  # atno 17321 bound_to 7965
  140.2263  144.4414  150.6319 LP  0  0  0  0  0  0  0  0  0  0  0  0  # atno 17342 bound_to 10162
  140.6385  143.2199  151.6342 LP  0  0  0  0  0  0  0  0  0  0  0  0  # atno 17343 bound_to 10162
  156.0488  130.3722  150.1252 LP  0  0  0  0  0  0  0  0  0  0  0  0  # atno 17370 bound_to 10713
  156.9433  130.9751  151.3512 LP  0  0  0  0  0  0  0  0  0  0  0  0  # atno 17371 bound_to 10713
  140.1063  134.5405  155.8306 LP  0  0  0  0  0  0  0  0  0  0  0  0  # atno 17394 bound_to 11000
  141.2117  133.6710  156.6605 LP  0  0  0  0  0  0  0  0  0  0  0  0  # atno 17395 bound_to 11000

$$$$
