AV-unprocessed.smi:1717|AV-procd|sdf|6919|dock4
  -GOLD-   22720 8123D 1   1.00000     0.00000
 Structure written by MMmdl.
 41 42  0  0  0  0  0  0  0  0  2 V2000
  151.4002  137.4407  154.2577 C   0  0  0  0  0  0  0  0  0  0  0  0
  150.1147  138.0204  153.8987 N   0  0  0  0  0  0  0  0  0  0  0  0
  149.7423  139.2716  154.2019 C   0  0  0  0  0  0  0  0  0  0  0  0
  150.4572  140.0563  154.8265 O   0  0  0  0  0  0  0  0  0  0  0  0
  148.3424  139.6931  153.7440 C   0  0  0  0  0  0  0  0  0  0  0  0
  147.6084  138.6044  153.0488 N   0  3  2  0  0  0  0  0  0  0  0  0
  146.8318  139.0984  151.8831 C   0  0  0  0  0  0  0  0  0  0  0  0
  146.2021  137.9332  151.0975 C   0  0  0  0  0  0  0  0  0  0  0  0
  145.3314  137.0344  151.9928 C   0  0  2  0  0  0  0  0  0  0  0  0
  144.0968  137.7256  152.3642 N   0  0  0  0  0  0  0  0  0  0  0  0
  142.9451  137.1274  152.7014 C   0  0  0  0  0  0  0  0  0  0  0  0
  142.8033  135.9060  152.7511 O   0  0  0  0  0  0  0  0  0  0  0  0
  141.9888  138.0291  152.9759 N   0  0  0  0  0  0  0  0  0  0  0  0
  140.6518  137.7680  153.3675 C   0  0  0  0  0  0  0  0  0  0  0  0
  139.4502  138.4266  152.9723 C   0  0  0  0  0  0  0  0  0  0  0  0
  138.3923  137.8880  153.5618 N   0  0  0  0  0  0  0  0  0  0  0  0
  138.9040  136.8976  154.3268 N   0  0  0  0  0  0  0  0  0  0  0  0
  140.2743  136.7905  154.2390 C   0  0  0  0  0  0  0  0  0  0  0  0
  146.1408  136.5948  153.2293 C   0  0  0  0  0  0  0  0  0  0  0  0
  146.7634  137.7935  153.9655 C   0  0  0  0  0  0  0  0  0  0  0  0
  138.3114  136.3107  154.8969 H   0  0  0  0  0  0  0  0  0  0  0  0
  151.4637  136.4178  153.8870 H   0  0  0  0  0  0  0  0  0  0  0  0
  151.5280  137.4193  155.3408 H   0  0  0  0  0  0  0  0  0  0  0  0
  152.2206  138.0123  153.8215 H   0  0  0  0  0  0  0  0  0  0  0  0
  149.4704  137.4321  153.3900 H   0  0  0  0  0  0  0  0  0  0  0  0
  147.7554  140.0615  154.5870 H   0  0  0  0  0  0  0  0  0  0  0  0
  148.4789  140.5361  153.0654 H   0  0  0  0  0  0  0  0  0  0  0  0
  146.0598  139.7895  152.2251 H   0  0  0  0  0  0  0  0  0  0  0  0
  147.4867  139.6615  151.2173 H   0  0  0  0  0  0  0  0  0  0  0  0
  145.6161  138.3168  150.2613 H   0  0  0  0  0  0  0  0  0  0  0  0
  146.9987  137.3318  150.6571 H   0  0  0  0  0  0  0  0  0  0  0  0
  145.0578  136.1479  151.4175 H   0  0  0  0  0  0  0  0  0  0  0  0
  144.1150  138.7347  152.3441 H   0  0  0  0  0  0  0  0  0  0  0  0
  142.2418  139.0031  152.8984 H   0  0  0  0  0  0  0  0  0  0  0  0
  139.3035  139.2564  152.2969 H   0  0  0  0  0  0  0  0  0  0  0  0
  140.8399  136.0514  154.7874 H   0  0  0  0  0  0  0  0  0  0  0  0
  145.5181  136.0175  153.9137 H   0  0  0  0  0  0  0  0  0  0  0  0
  146.9385  135.9216  152.9121 H   0  0  0  0  0  0  0  0  0  0  0  0
  147.3607  137.4253  154.8000 H   0  0  0  0  0  0  0  0  0  0  0  0
  145.9808  138.4211  154.3948 H   0  0  0  0  0  0  0  0  0  0  0  0
  148.3157  137.9859  152.6769 H   0  0  0  0  0  0  0  0  0  0  0  0
  1  2  1  0  0  0  0
  1 22  1  0  0  0  0
  1 23  1  0  0  0  0
  1 24  1  0  0  0  0
  2  3  1  0  0  0  0
  2 25  1  0  0  0  0
  3  4  2  0  0  0  0
  3  5  1  0  0  0  0
  5  6  1  0  0  0  0
  5 26  1  0  0  0  0
  5 27  1  0  0  0  0
  6 20  1  0  0  0  0
  6  7  1  0  0  0  0
  6 41  1  0  0  0  0
  7  8  1  0  0  0  0
  7 28  1  0  0  0  0
  7 29  1  0  0  0  0
  8  9  1  0  0  0  0
  8 30  1  0  0  0  0
  8 31  1  0  0  0  0
  9 10  1  0  0  0  0
  9 19  1  0  0  0  0
  9 32  1  0  0  0  0
 10 11  1  0  0  0  0
 10 33  1  0  0  0  0
 11 12  2  0  0  0  0
 11 13  1  0  0  0  0
 13 14  1  0  0  0  0
 13 34  1  0  0  0  0
 14 18  2  0  0  0  0
 14 15  1  0  0  0  0
 15 16  2  0  0  0  0
 15 35  1  0  0  0  0
 16 17  1  0  0  0  0
 17 21  1  0  0  0  0
 17 18  1  0  0  0  0
 18 36  1  0  0  0  0
 19 20  1  0  0  0  0
 19 37  1  0  0  0  0
 19 38  1  0  0  0  0
 20 39  1  0  0  0  0
 20 40  1  0  0  0  0
M  CHG  1   6   1
M  END
> <s_m_source_file>
AV-unprocessed.smi

> <i_m_source_file_index>
1717

> <i_lp_mmshare_version>
43012

> <i_f3d_flags>
0

> <s_epik_input>
W0NIM11bTkhdQyg9TylbQ0gyXU4xW0NIMl1bQ0gyXVtDSF0oW0NIMl1bQ0gyXTEpW05IXUMoPU8pW05IXWMyW2NIXW5bbkhdW2NIXTI=

> <s_epik_cmdline>
J2VwaWtfcHl0aG9uJywgJy1waCcsICc3LjAnLCAnLXRuJywgJzgnLCAnLW1hJywgJzIwMCcsICctbWV0YWxfYmluZGluZycsICctaW1hZScsICc8aW5maWxlLm1hZT4nLCAnLW9tYWUnLCAnPG91dGZpbGUubWFlPic=

> <r_lp_tautomer_probability>
0.5

> <r_epik_Ionization_Penalty>
0.838906

> <r_epik_Ionization_Penalty_Charging>
0.838844

> <r_epik_Ionization_Penalty_Neutral>
6.24243e-05

> <r_epik_State_Penalty>
0.8734

> <r_epik_Charging_Adjusted_Penalty>
1.71224

> <i_epik_Tot_Q>
1

> <i_epik_Tot_abs_Q>
1

> <r_epik_Metal_State_Penalty>
0.877921

> <b_epik_Metal_Only>
0

> <s_lp_Force_Field>
OPLS_2005

> <r_lp_Energy>
16.7427

> <b_lp_Chiralities_Consistent>
1

> <s_lp_Variant>
AV-unprocessed.smi:1717-3

> <Gold.Version>
5.8.1

> <Gold.Id.Protein>
6NUR|6NUR_protein|mol2

> <Gold.PLP.Fitness>
52.8970

> <Gold.PLP.PLP>
-32.6140

> <Gold.PLP.part.hbond>
-6.6718

> <Gold.PLP.part.metal>
0.0000

> <Gold.PLP.part.buried>
2.5572

> <Gold.PLP.part.nonpolar>
-29.6438

> <Gold.PLP.part.repulsive>
0.5275

> <Gold.PLP.ligand.clash>
0.0000

> <Gold.PLP.ligand.torsion>
1.1433

> <Gold.PLP.Chemscore.Hbond>
5.8247

> <Gold.PLP.Chemscore.CHOScore>
1.6892

> <Gold.PLP.Chemscore.Metal>
0.0000

> <Gold.Chemscore.Hbonds>
donor molecule, donor type, donor heavy atom, donor atom, acceptor molecule, acceptor atom, score
      L1  H     2    25       P1  7948  1.00
      L1  H     6    41       P1  7948  2.00
      L1  H    10    33       P1 10175  1.00
      L1  H    13    34       P1 10175  1.00
      P1  H  7989  7998       L1     4  1.00
      L1  C    15    35       P1 10160  1.00
      L1  C    18    36       P1 11000  0.54

> <Gold.PLP.Chemscore.Internal.Correction>
0.0279

> <Gold.Rescore>
     Score         DG    S(hbond)    S(metal)    S(lipo)     H(rot)  DE(clash)    DE(int)     intcor
     19.38     -23.59       4.53        0.00      65.07       1.81       3.22       0.99       ----

> <Gold.Chemscore.Fitness>
19.3812

> <Gold.Chemscore.DG>
-23.5878

> <Gold.Chemscore.ZeroCoef>
-5.4800

> <Gold.Chemscore.Hbond>
4.5292

> <Gold.Chemscore.Metal>
0.0000

> <Gold.Chemscore.Lipo>
65.0677

> <Gold.Chemscore.Internal_Hbond>
0.0000

> <Gold.Chemscore.DEClash>
3.2205

> <Gold.Chemscore.DEInternal>
0.9861

> <Gold.Chemscore.Rot>
1.8096

> <Gold.Chemscore.Internal.Correction>
   9.000000E+99

> <Gold.Chemscore.Hbonds>
donor molecule, donor type, donor heavy atom, donor atom, acceptor molecule, acceptor atom, score
      L1  H     2    25       P1  7948  0.87
      L1  H     6    41       P1  7948  0.92
      L1  H    10    33       P1 10175  1.00
      L1  H    13    34       P1 10175  0.89
      P1  H  7989  7998       L1     4  0.55

> <Gold.Chemscore.Hbond.Weighted>
-15.1274

> <Gold.Chemscore.Metal.Weighted>
-0.0000

> <Gold.Chemscore.Lipo.Weighted>
-7.6129

> <Gold.Chemscore.Internal_Hbond.Weighted>
0.0000

> <Gold.Chemscore.DEClash.Weighted>
3.2205

> <Gold.Chemscore.DEInternal.Weighted>
0.9861

> <Gold.Chemscore.Rot.Weighted>
4.6325

> <Gold.Chemscore.Internal.Correction.Weighted>
   9.000000E+99

> <Gold.Protein.RotatedTorsions>
[ 6907 6896 6895 6894 ] final  -13.15 input  -60.11 | X-H torsion
[ 7974 7965 7964 7962 ] final   76.64 input  175.53 | X-H torsion
[ 8008 7997 7996 7995 ] final -132.10 input   59.86 | X-H torsion
[ 10167 10162 10161 10158 ] final  -52.92 input  -65.29 | X-H torsion
[ 10718 10713 10712 10709 ] final   27.37 input   66.30 | X-H torsion
[ 10763 10752 10751 10750 ] final  -15.51 input  -60.55 | X-H torsion
[ 11005 11000 10999 10996 ] final -104.44 input  -57.11 | X-H torsion

> <Gold.Protein.ActiveResidues>
 VAL166  LYS551  ARG553  GLY616  TRP617  ASP618  TYR619  PRO620  LYS621  CYS622 
 ASP623  PHE694  ASN695  SER759  ASP760  ASP761  ALA762  ILE779  LEU786  VAL792 
 PHE793  MET794  SER795  GLU796  ALA797  LYS798  CYS799  TRP800  GLU811  SER814 

> <Gold.Protein.RotatedAtoms>
  151.3594  135.0901  159.9429 H   0  0  0  0  0  0  0  0  0  0  0  0  # atno 6907 bound_to 6896
  152.5166  133.9273  159.7574 H   0  0  0  0  0  0  0  0  0  0  0  0  # atno 6908 bound_to 6896
  150.9664  133.6336  159.2774 H   0  0  0  0  0  0  0  0  0  0  0  0  # atno 6909 bound_to 6896
  145.7003  139.2580  143.1709 H   0  0  0  0  0  0  0  0  0  0  0  0  # atno 7974 bound_to 7965
  155.3233  140.0463  157.3040 H   0  0  0  0  0  0  0  0  0  0  0  0  # atno 8008 bound_to 7997
  154.5368  140.2275  155.8674 H   0  0  0  0  0  0  0  0  0  0  0  0  # atno 8009 bound_to 7997
  156.1843  140.3066  155.9214 H   0  0  0  0  0  0  0  0  0  0  0  0  # atno 8010 bound_to 7997
  140.6512  143.2567  151.4717 H   0  0  0  0  0  0  0  0  0  0  0  0  # atno 10167 bound_to 10162
  157.2192  130.6971  149.6263 H   0  0  0  0  0  0  0  0  0  0  0  0  # atno 10718 bound_to 10713
  153.5445  135.7012  153.5621 H   0  0  0  0  0  0  0  0  0  0  0  0  # atno 10763 bound_to 10752
  153.3572  135.3979  155.1691 H   0  0  0  0  0  0  0  0  0  0  0  0  # atno 10764 bound_to 10752
  154.8669  135.3780  154.4952 H   0  0  0  0  0  0  0  0  0  0  0  0  # atno 10765 bound_to 10752
  141.1100  133.8724  157.1612 H   0  0  0  0  0  0  0  0  0  0  0  0  # atno 11005 bound_to 11000
  146.0804  140.7771  142.9644 LP  0  0  0  0  0  0  0  0  0  0  0  0  # atno 17320 bound_to 7965
  144.6970  140.3479  143.7187 LP  0  0  0  0  0  0  0  0  0  0  0  0  # atno 17321 bound_to 7965
  139.5728  144.1889  152.1860 LP  0  0  0  0  0  0  0  0  0  0  0  0  # atno 17342 bound_to 10162
  140.1191  144.5389  150.6875 LP  0  0  0  0  0  0  0  0  0  0  0  0  # atno 17343 bound_to 10162
  155.9683  130.4525  150.5777 LP  0  0  0  0  0  0  0  0  0  0  0  0  # atno 17370 bound_to 10713
  157.3593  131.0747  151.1650 LP  0  0  0  0  0  0  0  0  0  0  0  0  # atno 17371 bound_to 10713
  139.9989  135.0036  157.0145 LP  0  0  0  0  0  0  0  0  0  0  0  0  # atno 17394 bound_to 11000
  140.4800  134.1299  155.7215 LP  0  0  0  0  0  0  0  0  0  0  0  0  # atno 17395 bound_to 11000

$$$$
