AV-unprocessed.smi:937|AV-procd|sdf|4213|dock1
  -GOLD-   22720 2123D 1   1.00000     0.00000
 Structure written by MMmdl.
 46 47  0  0  0  0  0  0  0  0  2 V2000
  151.3861  143.6063  158.5865 C   0  0  0  0  0  0  0  0  0  0  0  0
  151.1641  142.4656  157.6160 C   0  0  0  0  0  0  0  0  0  0  0  0
  151.8156  141.2220  157.7594 C   0  0  0  0  0  0  0  0  0  0  0  0
  151.5659  140.2015  156.8186 C   0  0  0  0  0  0  0  0  0  0  0  0
  150.6698  140.4444  155.7543 C   0  0  0  0  0  0  0  0  0  0  0  0
  150.3846  139.3641  154.7301 C   0  0  0  0  0  0  0  0  0  0  0  0
  150.4711  137.9543  155.3367 C   0  0  0  0  0  0  0  0  0  0  0  0
  149.7004  136.9916  154.5597 N   0  0  0  0  0  0  0  0  0  0  0  0
  148.8153  136.1227  155.0768 C   0  0  0  0  0  0  0  0  0  0  0  0
  148.5693  136.0445  156.2791 O   0  0  0  0  0  0  0  0  0  0  0  0
  148.2059  135.3316  154.1761 N   0  0  0  0  0  0  0  0  0  0  0  0
  147.2000  134.2889  154.4039 C   0  0  2  0  0  0  0  0  0  0  0  0
  147.6293  132.9412  153.7844 C   0  0  0  0  0  0  0  0  0  0  0  0
  147.6104  132.9800  152.2477 C   0  0  0  0  0  0  0  0  0  0  0  0
  146.2360  133.4171  151.7174 C   0  0  0  0  0  0  0  0  0  0  0  0
  145.8080  134.7821  152.2958 C   0  0  1  0  0  0  0  0  0  0  0  0
  144.4352  135.2342  151.7566 C   0  0  0  0  0  0  0  0  0  0  0  0
  144.0981  136.4248  152.2536 F   0  0  0  0  0  0  0  0  0  0  0  0
  144.4726  135.3173  150.4268 F   0  0  0  0  0  0  0  0  0  0  0  0
  143.4985  134.3467  152.0912 F   0  0  0  0  0  0  0  0  0  0  0  0
  145.8364  134.7384  153.8413 C   0  0  0  0  0  0  0  0  0  0  0  0
  150.0498  141.7087  155.6590 C   0  0  0  0  0  0  0  0  0  0  0  0
  150.3161  142.6606  156.5805 N   0  3  0  0  0  0  0  0  0  0  0  0
  151.7032  143.2300  159.5597 H   0  0  0  0  0  0  0  0  0  0  0  0
  150.4701  144.1809  158.7285 H   0  0  0  0  0  0  0  0  0  0  0  0
  152.1591  144.2767  158.2101 H   0  0  0  0  0  0  0  0  0  0  0  0
  152.4990  141.0496  158.5783 H   0  0  0  0  0  0  0  0  0  0  0  0
  152.0580  139.2440  156.9135 H   0  0  0  0  0  0  0  0  0  0  0  0
  149.3930  139.5368  154.3093 H   0  0  0  0  0  0  0  0  0  0  0  0
  151.0892  139.4591  153.9024 H   0  0  0  0  0  0  0  0  0  0  0  0
  151.5089  137.6214  155.3625 H   0  0  0  0  0  0  0  0  0  0  0  0
  150.1207  137.9600  156.3704 H   0  0  0  0  0  0  0  0  0  0  0  0
  149.8459  136.9847  153.5605 H   0  0  0  0  0  0  0  0  0  0  0  0
  148.4874  135.4574  153.2145 H   0  0  0  0  0  0  0  0  0  0  0  0
  147.0762  134.1563  155.4799 H   0  0  0  0  0  0  0  0  0  0  0  0
  148.6196  132.6512  154.1366 H   0  0  0  0  0  0  0  0  0  0  0  0
  146.9493  132.1601  154.1267 H   0  0  0  0  0  0  0  0  0  0  0  0
  148.3786  133.6639  151.8850 H   0  0  0  0  0  0  0  0  0  0  0  0
  147.8635  131.9967  151.8507 H   0  0  0  0  0  0  0  0  0  0  0  0
  146.2688  133.4651  150.6286 H   0  0  0  0  0  0  0  0  0  0  0  0
  145.4932  132.6593  151.9698 H   0  0  0  0  0  0  0  0  0  0  0  0
  146.5393  135.5225  151.9675 H   0  0  0  0  0  0  0  0  0  0  0  0
  145.0664  134.0511  154.1942 H   0  0  0  0  0  0  0  0  0  0  0  0
  145.5759  135.7152  154.2504 H   0  0  0  0  0  0  0  0  0  0  0  0
  149.3548  141.9868  154.8799 H   0  0  0  0  0  0  0  0  0  0  0  0
  149.8563  143.5670  156.4908 H   0  0  0  0  0  0  0  0  0  0  0  0
  1  2  1  0  0  0  0
  1 24  1  0  0  0  0
  1 25  1  0  0  0  0
  1 26  1  0  0  0  0
  2 23  1  0  0  0  0
  2  3  2  0  0  0  0
  3  4  1  0  0  0  0
  3 27  1  0  0  0  0
  4  5  2  0  0  0  0
  4 28  1  0  0  0  0
  5  6  1  0  0  0  0
  5 22  1  0  0  0  0
  6  7  1  0  0  0  0
  6 29  1  0  0  0  0
  6 30  1  0  0  0  0
  7  8  1  0  0  0  0
  7 31  1  0  0  0  0
  7 32  1  0  0  0  0
  8  9  1  0  0  0  0
  8 33  1  0  0  0  0
  9 10  2  0  0  0  0
  9 11  1  0  0  0  0
 11 12  1  0  0  0  0
 11 34  1  0  0  0  0
 12 21  1  0  0  0  0
 12 13  1  0  0  0  0
 12 35  1  0  0  0  0
 13 14  1  0  0  0  0
 13 36  1  0  0  0  0
 13 37  1  0  0  0  0
 14 15  1  0  0  0  0
 14 38  1  0  0  0  0
 14 39  1  0  0  0  0
 15 16  1  0  0  0  0
 15 40  1  0  0  0  0
 15 41  1  0  0  0  0
 16 17  1  0  0  0  0
 16 21  1  0  0  0  0
 16 42  1  0  0  0  0
 17 18  1  0  0  0  0
 17 19  1  0  0  0  0
 17 20  1  0  0  0  0
 21 43  1  0  0  0  0
 21 44  1  0  0  0  0
 22 23  2  0  0  0  0
 22 45  1  0  0  0  0
 23 46  1  0  0  0  0
M  CHG  1  23   1
M  END
> <s_m_source_file>
AV-unprocessed.smi

> <i_m_source_file_index>
937

> <i_lp_mmshare_version>
43012

> <i_f3d_flags>
0

> <s_epik_input>
W0NIM11jMVtjSF1bY0hdYyhbY0hdbjEpW0NIMl1bQ0gyXVtOSF1DKD1PKVtOSF1bQ0BASF0yW0NIMl1bQ0gyXVtDSDJdW0NAQEhdKEMoRikoRilGKVtDSDJdMg==

> <s_epik_cmdline>
J2VwaWtfcHl0aG9uJywgJy1waCcsICc3LjAnLCAnLXRuJywgJzgnLCAnLW1hJywgJzIwMCcsICctbWV0YWxfYmluZGluZycsICctaW1hZScsICc8aW5maWxlLm1hZT4nLCAnLW9tYWUnLCAnPG91dGZpbGUubWFlPic=

> <r_epik_Ionization_Penalty>
1.4226

> <r_epik_Ionization_Penalty_Charging>
1.42255

> <r_epik_Ionization_Penalty_Neutral>
5.16456e-05

> <r_epik_State_Penalty>
1.50646

> <r_epik_Charging_Adjusted_Penalty>
2.92901

> <i_epik_Tot_Q>
1

> <i_epik_Tot_abs_Q>
1

> <r_epik_Metal_State_Penalty>
1.55846

> <b_epik_Metal_Only>
0

> <s_lp_Force_Field>
OPLS_2005

> <r_lp_Energy>
23.8668

> <b_lp_Chiralities_Consistent>
1

> <s_lp_Variant>
AV-unprocessed.smi:937-5

> <Gold.Version>
5.8.1

> <Gold.Id.Protein>
6NUR|6NUR_protein|mol2

> <Gold.PLP.Fitness>
49.9735

> <Gold.PLP.PLP>
-39.6783

> <Gold.PLP.part.hbond>
-3.0000

> <Gold.PLP.part.metal>
0.0000

> <Gold.PLP.part.buried>
-4.5634

> <Gold.PLP.part.nonpolar>
-32.6271

> <Gold.PLP.part.repulsive>
0.1238

> <Gold.PLP.ligand.clash>
0.0000

> <Gold.PLP.ligand.torsion>
0.6159

> <Gold.PLP.Chemscore.Hbond>
3.8160

> <Gold.PLP.Chemscore.CHOScore>
0.0000

> <Gold.PLP.Chemscore.Metal>
0.0000

> <Gold.Chemscore.Hbonds>
donor molecule, donor type, donor heavy atom, donor atom, acceptor molecule, acceptor atom, score
      L1  H     8    33       P1  7948  0.82
      L1  H    11    34       P1  7948  1.00
      L1  H    23    46       P1  8028  2.00

> <Gold.PLP.Chemscore.Internal.Correction>
0.0790

> <Gold.Rescore>
     Score         DG    S(hbond)    S(metal)    S(lipo)     H(rot)  DE(clash)    DE(int)     intcor
     19.52     -20.14       2.62        0.00      86.86       1.66       0.04       0.58       ----

> <Gold.Chemscore.Fitness>
19.5179

> <Gold.Chemscore.DG>
-20.1381

> <Gold.Chemscore.ZeroCoef>
-5.4800

> <Gold.Chemscore.Hbond>
2.6171

> <Gold.Chemscore.Metal>
0.0000

> <Gold.Chemscore.Lipo>
86.8606

> <Gold.Chemscore.Internal_Hbond>
0.0000

> <Gold.Chemscore.DEClash>
0.0386

> <Gold.Chemscore.DEInternal>
0.5816

> <Gold.Chemscore.Rot>
1.6585

> <Gold.Chemscore.Internal.Correction>
   9.000000E+99

> <Gold.Chemscore.Hbonds>
donor molecule, donor type, donor heavy atom, donor atom, acceptor molecule, acceptor atom, score
      L1  H     8    33       P1  7948  0.38
      L1  H    11    34       P1  7948  0.96
      L1  H    23    46       P1  8028  0.98

> <Gold.Chemscore.Hbond.Weighted>
-8.7412

> <Gold.Chemscore.Metal.Weighted>
-0.0000

> <Gold.Chemscore.Lipo.Weighted>
-10.1627

> <Gold.Chemscore.Internal_Hbond.Weighted>
0.0000

> <Gold.Chemscore.DEClash.Weighted>
0.0386

> <Gold.Chemscore.DEInternal.Weighted>
0.5816

> <Gold.Chemscore.Rot.Weighted>
4.2457

> <Gold.Chemscore.Internal.Correction.Weighted>
   9.000000E+99

> <Gold.Protein.RotatedTorsions>
[ 6907 6896 6895 6894 ] final  -50.30 input  -60.11 | X-H torsion
[ 7974 7965 7964 7962 ] final  -94.03 input  175.53 | X-H torsion
[ 8008 7997 7996 7995 ] final    6.38 input   59.86 | X-H torsion
[ 10167 10162 10161 10158 ] final -133.97 input  -65.29 | X-H torsion
[ 10718 10713 10712 10709 ] final  -50.42 input   66.30 | X-H torsion
[ 10763 10752 10751 10750 ] final  -29.96 input  -60.55 | X-H torsion
[ 11005 11000 10999 10996 ] final -155.74 input  -57.11 | X-H torsion

> <Gold.Protein.ActiveResidues>
 VAL166  LYS551  ARG553  GLY616  TRP617  ASP618  TYR619  PRO620  LYS621  CYS622 
 ASP623  PHE694  ASN695  SER759  ASP760  ASP761  ALA762  ILE779  LEU786  VAL792 
 PHE793  MET794  SER795  GLU796  ALA797  LYS798  CYS799  TRP800  GLU811  SER814 

> <Gold.Protein.RotatedAtoms>
  150.8721  134.8097  159.7162 H   0  0  0  0  0  0  0  0  0  0  0  0  # atno 6907 bound_to 6896
  152.4721  134.4930  159.9711 H   0  0  0  0  0  0  0  0  0  0  0  0  # atno 6908 bound_to 6896
  151.5017  133.3464  159.2905 H   0  0  0  0  0  0  0  0  0  0  0  0  # atno 6909 bound_to 6896
  145.3787  140.9515  143.2406 H   0  0  0  0  0  0  0  0  0  0  0  0  # atno 7974 bound_to 7965
  154.7403  140.2747  155.6379 H   0  0  0  0  0  0  0  0  0  0  0  0  # atno 8008 bound_to 7997
  156.2872  140.2698  156.2054 H   0  0  0  0  0  0  0  0  0  0  0  0  # atno 8009 bound_to 7997
  155.0267  140.0371  157.2448 H   0  0  0  0  0  0  0  0  0  0  0  0  # atno 8010 bound_to 7997
  139.8928  143.6701  152.2609 H   0  0  0  0  0  0  0  0  0  0  0  0  # atno 10167 bound_to 10162
  156.1803  130.4150  149.9517 H   0  0  0  0  0  0  0  0  0  0  0  0  # atno 10718 bound_to 10713
  153.7731  135.6911  153.4902 H   0  0  0  0  0  0  0  0  0  0  0  0  # atno 10763 bound_to 10752
  153.1861  135.4488  155.0089 H   0  0  0  0  0  0  0  0  0  0  0  0  # atno 10764 bound_to 10752
  154.8110  135.3377  154.7239 H   0  0  0  0  0  0  0  0  0  0  0  0  # atno 10765 bound_to 10752
  140.6832  134.4122  157.5225 H   0  0  0  0  0  0  0  0  0  0  0  0  # atno 11005 bound_to 11000
  144.8524  139.5302  143.6850 LP  0  0  0  0  0  0  0  0  0  0  0  0  # atno 17320 bound_to 7965
  146.2852  139.6985  142.9200 LP  0  0  0  0  0  0  0  0  0  0  0  0  # atno 17321 bound_to 7965
  139.7094  144.7623  151.1138 LP  0  0  0  0  0  0  0  0  0  0  0  0  # atno 17342 bound_to 10162
  140.7723  143.5351  150.9378 LP  0  0  0  0  0  0  0  0  0  0  0  0  # atno 17343 bound_to 10162
  156.7290  130.9036  151.3624 LP  0  0  0  0  0  0  0  0  0  0  0  0  # atno 17370 bound_to 10713
  157.6863  130.9189  150.0396 LP  0  0  0  0  0  0  0  0  0  0  0  0  # atno 17371 bound_to 10713
  139.8945  134.8704  156.2172 LP  0  0  0  0  0  0  0  0  0  0  0  0  # atno 17394 bound_to 11000
  141.0301  133.6993  156.1415 LP  0  0  0  0  0  0  0  0  0  0  0  0  # atno 17395 bound_to 11000

$$$$
