AV-unprocessed.smi:2031|AV-procd|sdf|8229|dock1
  -GOLD-   2272010503D 1   1.00000     0.00000
 Structure written by MMmdl.
 41 42  0  0  0  0  0  0  0  0  3 V2000
  134.8766  138.1433  154.1759 C   0  0  0  0  0  0  0  0  0  0  0  0
  136.3345  138.3357  153.9305 C   0  0  0  0  0  0  0  0  0  0  0  0
  137.3851  137.4653  153.8598 C   0  0  0  0  0  0  0  0  0  0  0  0
  138.4936  138.3151  153.5956 C   0  0  0  0  0  0  0  0  0  0  0  0
  139.7690  137.9227  153.4533 N   0  5  0  0  0  0  0  0  0  0  0  0
  140.1431  136.6760  153.8199 C   0  0  0  0  0  0  0  0  0  0  0  0
  139.6829  136.0181  154.7561 O   0  0  0  0  0  0  0  0  0  0  0  0
  141.1180  136.1600  153.0576 N   0  0  0  0  0  0  0  0  0  0  0  0
  141.7247  134.8450  153.2253 C   0  0  0  0  0  0  0  0  0  0  0  0
  143.2558  134.9058  153.0561 C   0  0  0  0  0  0  0  0  0  0  0  0
  143.8449  133.6005  152.6543 N   0  3  0  0  0  0  0  0  0  0  0  0
  145.3168  133.5500  152.8799 C   0  0  0  0  0  0  0  0  0  0  0  0
  146.1623  134.1161  151.7231 C   0  0  0  0  0  0  0  0  0  0  0  0
  146.5538  133.0416  150.6965 C   0  0  0  0  0  0  0  0  0  0  0  0
  145.3823  132.5272  149.8497 C   0  0  0  0  0  0  0  0  0  0  0  0
  144.1894  132.0080  150.6703 C   0  0  0  0  0  0  0  0  0  0  0  0
  143.3681  133.1403  151.3179 C   0  0  0  0  0  0  0  0  0  0  0  0
  138.1488  139.5902  153.5274 N   0  0  0  0  0  0  0  0  0  0  0  0
  136.7642  139.6111  153.7336 O   0  0  0  0  0  0  0  0  0  0  0  0
  134.7103  137.6297  155.1228 H   0  0  0  0  0  0  0  0  0  0  0  0
  134.4284  137.5447  153.3830 H   0  0  0  0  0  0  0  0  0  0  0  0
  134.3534  139.0991  154.2143 H   0  0  0  0  0  0  0  0  0  0  0  0
  137.3645  136.3923  153.9767 H   0  0  0  0  0  0  0  0  0  0  0  0
  141.4628  136.7311  152.2997 H   0  0  0  0  0  0  0  0  0  0  0  0
  141.4596  134.4331  154.2005 H   0  0  0  0  0  0  0  0  0  0  0  0
  141.2770  134.1916  152.4771 H   0  0  0  0  0  0  0  0  0  0  0  0
  143.5288  135.6727  152.3298 H   0  0  0  0  0  0  0  0  0  0  0  0
  143.6912  135.2152  154.0069 H   0  0  0  0  0  0  0  0  0  0  0  0
  145.5605  134.0852  153.7984 H   0  0  0  0  0  0  0  0  0  0  0  0
  145.6064  132.5188  153.0839 H   0  0  0  0  0  0  0  0  0  0  0  0
  145.6698  134.9628  151.2429 H   0  0  0  0  0  0  0  0  0  0  0  0
  147.0854  134.5141  152.1459 H   0  0  0  0  0  0  0  0  0  0  0  0
  147.3117  133.4503  150.0272 H   0  0  0  0  0  0  0  0  0  0  0  0
  147.0309  132.2043  151.2071 H   0  0  0  0  0  0  0  0  0  0  0  0
  145.0475  133.3125  149.1707 H   0  0  0  0  0  0  0  0  0  0  0  0
  145.7485  131.7225  149.2111 H   0  0  0  0  0  0  0  0  0  0  0  0
  143.5314  131.4799  149.9794 H   0  0  0  0  0  0  0  0  0  0  0  0
  144.4984  131.2620  151.4033 H   0  0  0  0  0  0  0  0  0  0  0  0
  142.3461  132.7834  151.4459 H   0  0  0  0  0  0  0  0  0  0  0  0
  143.3067  133.9855  150.6305 H   0  0  0  0  0  0  0  0  0  0  0  0
  143.4746  132.9351  153.3178 H   0  0  0  0  0  0  0  0  0  0  0  0
  1  2  1  0  0  0  0
  1 20  1  0  0  0  0
  1 21  1  0  0  0  0
  1 22  1  0  0  0  0
  2 19  1  0  0  0  0
  2  3  2  0  0  0  0
  3  4  1  0  0  0  0
  3 23  1  0  0  0  0
  4  5  1  0  0  0  0
  4 18  2  0  0  0  0
  5  6  1  0  0  0  0
  6  7  2  0  0  0  0
  6  8  1  0  0  0  0
  8  9  1  0  0  0  0
  8 24  1  0  0  0  0
  9 10  1  0  0  0  0
  9 25  1  0  0  0  0
  9 26  1  0  0  0  0
 10 11  1  0  0  0  0
 10 27  1  0  0  0  0
 10 28  1  0  0  0  0
 11 17  1  0  0  0  0
 11 12  1  0  0  0  0
 11 41  1  0  0  0  0
 12 13  1  0  0  0  0
 12 29  1  0  0  0  0
 12 30  1  0  0  0  0
 13 14  1  0  0  0  0
 13 31  1  0  0  0  0
 13 32  1  0  0  0  0
 14 15  1  0  0  0  0
 14 33  1  0  0  0  0
 14 34  1  0  0  0  0
 15 16  1  0  0  0  0
 15 35  1  0  0  0  0
 15 36  1  0  0  0  0
 16 17  1  0  0  0  0
 16 37  1  0  0  0  0
 16 38  1  0  0  0  0
 17 39  1  0  0  0  0
 17 40  1  0  0  0  0
 18 19  1  0  0  0  0
M  CHG  1   5  -1
M  CHG  1  11   1
M  END
> <s_m_source_file>
AV-unprocessed.smi

> <i_m_source_file_index>
2031

> <i_lp_mmshare_version>
43012

> <i_f3d_flags>
0

> <s_epik_input>
W0NIM11jMVtjSF1jKG5vMSlbTkhdQyg9TylbTkhdW0NIMl1bQ0gyXU4yW0NIMl1bQ0gyXVtDSDJdW0NIMl1bQ0gyXVtDSDJdMg==

> <s_epik_cmdline>
J2VwaWtfcHl0aG9uJywgJy1waCcsICc3LjAnLCAnLXRuJywgJzgnLCAnLW1hJywgJzIwMCcsICctbWV0YWxfYmluZGluZycsICctaW1hZScsICc8aW5maWxlLm1hZT4nLCAnLW9tYWUnLCAnPG91dGZpbGUubWFlPic=

> <r_epik_Ionization_Penalty>
6.22371

> <r_epik_Ionization_Penalty_Charging>
6.22362

> <r_epik_Ionization_Penalty_Neutral>
9.36972e-05

> <r_epik_State_Penalty>
6.22363

> <r_epik_Charging_Adjusted_Penalty>
12.4472

> <i_epik_Tot_Q>
0

> <i_epik_Tot_abs_Q>
2

> <r_epik_Metal_State_Penalty>
2.16675

> <b_epik_Metal_Only>
1

> <s_lp_Force_Field>
OPLS_2005

> <r_lp_Energy>
10.3007

> <b_lp_Chiralities_Consistent>
1

> <s_lp_Variant>
AV-unprocessed.smi:2031-2

> <Gold.Version>
5.8.1

> <Gold.Id.Protein>
6NUR|6NUR_protein|mol2

> <Gold.PLP.Fitness>
43.7893

> <Gold.PLP.PLP>
-35.8626

> <Gold.PLP.part.hbond>
-2.4700

> <Gold.PLP.part.metal>
0.0000

> <Gold.PLP.part.buried>
-5.3773

> <Gold.PLP.part.nonpolar>
-28.4479

> <Gold.PLP.part.repulsive>
0.3133

> <Gold.PLP.ligand.clash>
0.0000

> <Gold.PLP.ligand.torsion>
0.5900

> <Gold.PLP.Chemscore.Hbond>
3.0000

> <Gold.PLP.Chemscore.CHOScore>
0.0000

> <Gold.PLP.Chemscore.Metal>
0.0000

> <Gold.Chemscore.Hbonds>
donor molecule, donor type, donor heavy atom, donor atom, acceptor molecule, acceptor atom, score
      L1  H    11    41       P1 10957  1.98
      P1  H 11000 11005       L1     7  1.00

> <Gold.PLP.Chemscore.Internal.Correction>
0.1067

> <Gold.Rescore>
     Score         DG    S(hbond)    S(metal)    S(lipo)     H(rot)  DE(clash)    DE(int)     intcor
     15.69     -16.50       1.91        0.00      73.35       1.54       0.05       0.77       ----

> <Gold.Chemscore.Fitness>
15.6869

> <Gold.Chemscore.DG>
-16.5023

> <Gold.Chemscore.ZeroCoef>
-5.4800

> <Gold.Chemscore.Hbond>
1.9116

> <Gold.Chemscore.Metal>
0.0000

> <Gold.Chemscore.Lipo>
73.3531

> <Gold.Chemscore.Internal_Hbond>
0.0000

> <Gold.Chemscore.DEClash>
0.0496

> <Gold.Chemscore.DEInternal>
0.7657

> <Gold.Chemscore.Rot>
1.5409

> <Gold.Chemscore.Internal.Correction>
   9.000000E+99

> <Gold.Chemscore.Hbonds>
donor molecule, donor type, donor heavy atom, donor atom, acceptor molecule, acceptor atom, score
      L1  H    11    41       P1 10957  0.65
      P1  H 11000 11005       L1     7  1.00

> <Gold.Chemscore.Hbond.Weighted>
-6.3846

> <Gold.Chemscore.Metal.Weighted>
-0.0000

> <Gold.Chemscore.Lipo.Weighted>
-8.5823

> <Gold.Chemscore.Internal_Hbond.Weighted>
0.0000

> <Gold.Chemscore.DEClash.Weighted>
0.0496

> <Gold.Chemscore.DEInternal.Weighted>
0.7657

> <Gold.Chemscore.Rot.Weighted>
3.9446

> <Gold.Chemscore.Internal.Correction.Weighted>
   9.000000E+99

> <Gold.Protein.RotatedTorsions>
[ 6907 6896 6895 6894 ] final   59.21 input  -60.11 | X-H torsion
[ 7974 7965 7964 7962 ] final   55.41 input  175.53 | X-H torsion
[ 8008 7997 7996 7995 ] final  118.80 input   59.86 | X-H torsion
[ 10167 10162 10161 10158 ] final    3.91 input  -65.29 | X-H torsion
[ 10718 10713 10712 10709 ] final  -69.60 input   66.30 | X-H torsion
[ 10763 10752 10751 10750 ] final  159.89 input  -60.55 | X-H torsion
[ 11005 11000 10999 10996 ] final   76.67 input  -57.11 | X-H torsion

> <Gold.Protein.ActiveResidues>
 VAL166  LYS551  ARG553  GLY616  TRP617  ASP618  TYR619  PRO620  LYS621  CYS622 
 ASP623  PHE694  ASN695  SER759  ASP760  ASP761  ALA762  ILE779  LEU786  VAL792 
 PHE793  MET794  SER795  GLU796  ALA797  LYS798  CYS799  TRP800  GLU811  SER814 

> <Gold.Protein.RotatedAtoms>
  152.3894  134.6465  160.0112 H   0  0  0  0  0  0  0  0  0  0  0  0  # atno 6907 bound_to 6896
  151.6704  133.3308  159.3203 H   0  0  0  0  0  0  0  0  0  0  0  0  # atno 6908 bound_to 6896
  150.7813  134.6804  159.6485 H   0  0  0  0  0  0  0  0  0  0  0  0  # atno 6909 bound_to 6896
  145.9507  139.3969  143.0308 H   0  0  0  0  0  0  0  0  0  0  0  0  # atno 7974 bound_to 7965
  156.2565  140.2867  156.0892 H   0  0  0  0  0  0  0  0  0  0  0  0  # atno 8008 bound_to 7997
  155.1482  140.0397  157.2832 H   0  0  0  0  0  0  0  0  0  0  0  0  # atno 8009 bound_to 7997
  154.6480  140.2538  155.7252 H   0  0  0  0  0  0  0  0  0  0  0  0  # atno 8010 bound_to 7997
  140.6562  143.7421  150.7658 H   0  0  0  0  0  0  0  0  0  0  0  0  # atno 10167 bound_to 10162
  156.0447  130.4315  150.2172 H   0  0  0  0  0  0  0  0  0  0  0  0  # atno 10718 bound_to 10713
  154.2389  135.2775  155.2861 H   0  0  0  0  0  0  0  0  0  0  0  0  # atno 10763 bound_to 10752
  154.5562  135.5660  153.6969 H   0  0  0  0  0  0  0  0  0  0  0  0  # atno 10764 bound_to 10752
  153.0004  135.6286  154.2532 H   0  0  0  0  0  0  0  0  0  0  0  0  # atno 10765 bound_to 10752
  139.9288  134.7620  156.1425 H   0  0  0  0  0  0  0  0  0  0  0  0  # atno 11005 bound_to 11000
  145.8175  140.9695  143.0916 LP  0  0  0  0  0  0  0  0  0  0  0  0  # atno 17320 bound_to 7965
  144.6795  140.0000  143.7484 LP  0  0  0  0  0  0  0  0  0  0  0  0  # atno 17321 bound_to 7965
  140.1081  143.4724  152.2386 LP  0  0  0  0  0  0  0  0  0  0  0  0  # atno 17342 bound_to 10162
  139.5785  144.7499  151.3702 LP  0  0  0  0  0  0  0  0  0  0  0  0  # atno 17343 bound_to 10162
  157.0263  130.9994  151.3325 LP  0  0  0  0  0  0  0  0  0  0  0  0  # atno 17370 bound_to 10713
  157.5309  130.8058  149.7916 LP  0  0  0  0  0  0  0  0  0  0  0  0  # atno 17371 bound_to 10713
  141.0863  133.6733  156.2444 LP  0  0  0  0  0  0  0  0  0  0  0  0  # atno 17394 bound_to 11000
  140.6260  134.5312  157.5554 LP  0  0  0  0  0  0  0  0  0  0  0  0  # atno 17395 bound_to 11000

$$$$
