AV-unprocessed.smi:1867|AV-procd|sdf|7581|dock2
  -GOLD-   22720 9293D 1   1.00000     0.00000
 Structure written by MMmdl.
 52 55  0  0  0  0  0  0  0  0  4 V2000
  151.0638  138.3061  154.5080 O   0  0  0  0  0  0  0  0  0  0  0  0
  151.3041  137.4558  155.3612 C   0  0  0  0  0  0  0  0  0  0  0  0
  151.5350  137.8390  156.6419 N   0  0  0  0  0  0  0  0  0  0  0  0
  151.5562  139.1304  157.2405 C   0  0  0  0  0  0  0  0  0  0  0  0
  150.9455  140.1774  156.5188 C   0  0  0  0  0  0  0  0  0  0  0  0
  150.9295  141.4838  157.0478 C   0  0  0  0  0  0  0  0  0  0  0  0
  151.5273  141.7366  158.3045 C   0  0  0  0  0  0  0  0  0  0  0  0
  151.5575  143.0138  158.8957 N   0  0  0  0  0  0  0  0  0  0  0  0
  152.2649  143.2600  160.1412 C   0  0  0  0  0  0  0  0  0  0  0  0
  152.1921  144.7742  160.3343 C   0  0  0  0  0  0  0  0  0  0  0  0
  152.1974  145.3081  158.9015 C   0  0  0  0  0  0  0  0  0  0  0  0
  151.4626  144.2293  158.0975 C   0  0  0  0  0  0  0  0  0  0  0  0
  152.1081  140.7051  158.9612 N   0  3  0  0  0  0  0  0  0  0  0  0
  152.1461  139.4397  158.4907 C   0  0  0  0  0  0  0  0  0  0  0  0
  151.3422  136.1286  155.0350 N   0  5  0  0  0  0  0  0  0  0  0  0
  150.5365  135.0089  155.5551 C   0  0  1  0  0  0  0  0  0  0  0  0
  149.3193  135.5611  156.2992 C   0  0  0  0  0  0  0  0  0  0  0  0
  148.2805  135.8357  155.2059 C   0  0  0  0  0  0  0  0  0  0  0  0
  148.6363  134.9679  154.0581 N   0  3  2  0  0  0  0  0  0  0  0  0
  147.5162  134.1295  153.5505 C   0  0  0  0  0  0  0  0  0  0  0  0
  148.0408  132.9873  152.6667 C   0  0  0  0  0  0  0  0  0  0  0  0
  148.9702  132.0442  153.4557 C   0  0  0  0  0  0  0  0  0  0  0  0
  149.6210  132.7381  154.6690 C   0  0  0  0  0  0  0  0  0  0  0  0
  149.8963  134.2370  154.3815 C   0  0  2  0  0  0  0  0  0  0  0  0
  151.7321  137.0781  157.2753 H   0  0  0  0  0  0  0  0  0  0  0  0
  150.4888  139.9832  155.5592 H   0  0  0  0  0  0  0  0  0  0  0  0
  150.4603  142.2737  156.4807 H   0  0  0  0  0  0  0  0  0  0  0  0
  151.8102  142.7270  160.9767 H   0  0  0  0  0  0  0  0  0  0  0  0
  153.3008  142.9333  160.0415 H   0  0  0  0  0  0  0  0  0  0  0  0
  151.2533  145.0405  160.8221 H   0  0  0  0  0  0  0  0  0  0  0  0
  153.0099  145.1653  160.9400 H   0  0  0  0  0  0  0  0  0  0  0  0
  151.7347  146.2914  158.8116 H   0  0  0  0  0  0  0  0  0  0  0  0
  153.2264  145.3896  158.5485 H   0  0  0  0  0  0  0  0  0  0  0  0
  151.9040  144.1133  157.1067 H   0  0  0  0  0  0  0  0  0  0  0  0
  150.4100  144.4872  157.9753 H   0  0  0  0  0  0  0  0  0  0  0  0
  152.6507  138.7432  159.1412 H   0  0  0  0  0  0  0  0  0  0  0  0
  151.1075  134.3381  156.1986 H   0  0  0  0  0  0  0  0  0  0  0  0
  148.9356  134.7943  156.9735 H   0  0  0  0  0  0  0  0  0  0  0  0
  149.5395  136.4414  156.9048 H   0  0  0  0  0  0  0  0  0  0  0  0
  147.2677  135.6630  155.5732 H   0  0  0  0  0  0  0  0  0  0  0  0
  148.3286  136.8754  154.8767 H   0  0  0  0  0  0  0  0  0  0  0  0
  146.9561  133.7047  154.3852 H   0  0  0  0  0  0  0  0  0  0  0  0
  146.8239  134.7616  152.9939 H   0  0  0  0  0  0  0  0  0  0  0  0
  147.2126  132.4226  152.2378 H   0  0  0  0  0  0  0  0  0  0  0  0
  148.5858  133.4156  151.8241 H   0  0  0  0  0  0  0  0  0  0  0  0
  148.4136  131.1730  153.8030 H   0  0  0  0  0  0  0  0  0  0  0  0
  149.7409  131.6634  152.7847 H   0  0  0  0  0  0  0  0  0  0  0  0
  148.9555  132.6327  155.5289 H   0  0  0  0  0  0  0  0  0  0  0  0
  150.5383  132.2068  154.9308 H   0  0  0  0  0  0  0  0  0  0  0  0
  150.5483  134.2782  153.5066 H   0  0  0  0  0  0  0  0  0  0  0  0
  148.8920  135.5987  153.3118 H   0  0  0  0  0  0  0  0  0  0  0  0
  152.5437  140.8920  159.8641 H   0  0  0  0  0  0  0  0  0  0  0  0
  1  2  2  0  0  0  0
  2  3  1  0  0  0  0
  2 15  1  0  0  0  0
  3  4  1  0  0  0  0
  3 25  1  0  0  0  0
  4 14  1  0  0  0  0
  4  5  2  0  0  0  0
  5  6  1  0  0  0  0
  5 26  1  0  0  0  0
  6  7  2  0  0  0  0
  6 27  1  0  0  0  0
  7  8  1  0  0  0  0
  7 13  1  0  0  0  0
  8 12  1  0  0  0  0
  8  9  1  0  0  0  0
  9 10  1  0  0  0  0
  9 28  1  0  0  0  0
  9 29  1  0  0  0  0
 10 11  1  0  0  0  0
 10 30  1  0  0  0  0
 10 31  1  0  0  0  0
 11 12  1  0  0  0  0
 11 32  1  0  0  0  0
 11 33  1  0  0  0  0
 12 34  1  0  0  0  0
 12 35  1  0  0  0  0
 13 14  2  0  0  0  0
 13 52  1  0  0  0  0
 14 36  1  0  0  0  0
 15 16  1  0  0  0  0
 16 24  1  0  0  0  0
 16 17  1  0  0  0  0
 16 37  1  0  0  0  0
 17 18  1  0  0  0  0
 17 38  1  0  0  0  0
 17 39  1  0  0  0  0
 18 19  1  0  0  0  0
 18 40  1  0  0  0  0
 18 41  1  0  0  0  0
 19 24  1  0  0  0  0
 19 20  1  0  0  0  0
 19 51  1  0  0  0  0
 20 21  1  0  0  0  0
 20 42  1  0  0  0  0
 20 43  1  0  0  0  0
 21 22  1  0  0  0  0
 21 44  1  0  0  0  0
 21 45  1  0  0  0  0
 22 23  1  0  0  0  0
 22 46  1  0  0  0  0
 22 47  1  0  0  0  0
 23 24  1  0  0  0  0
 23 48  1  0  0  0  0
 23 49  1  0  0  0  0
 24 50  1  0  0  0  0
M  CHG  1  13   1
M  CHG  1  15  -1
M  CHG  1  19   1
M  END
> <s_m_source_file>
AV-unprocessed.smi

> <i_m_source_file_index>
1867

> <i_lp_mmshare_version>
43012

> <i_f3d_flags>
0

> <s_epik_input>
W0NIMl0xW0NIMl1bQ0gyXVtDSDJdW0NASF0oTjEyKVtDQEBIXShbQ0gyXVtDSDJdMilbTkhdQyg9TylbTkhdYzNbY0hdW2NIXWMobltjSF0zKU40W0NIMl1bQ0gyXVtDSDJdW0NIMl00

> <s_epik_cmdline>
J2VwaWtfcHl0aG9uJywgJy1waCcsICc3LjAnLCAnLXRuJywgJzgnLCAnLW1hJywgJzIwMCcsICctbWV0YWxfYmluZGluZycsICctaW1hZScsICc8aW5maWxlLm1hZT4nLCAnLW9tYWUnLCAnPG91dGZpbGUubWFlPic=

> <r_lp_tautomer_probability>
0.999994

> <r_epik_Ionization_Penalty>
8.56137

> <r_epik_Ionization_Penalty_Charging>
8.56136

> <r_epik_Ionization_Penalty_Neutral>
3.91889e-06

> <r_epik_State_Penalty>
8.16255

> <r_epik_Charging_Adjusted_Penalty>
16.7239

> <i_epik_Tot_Q>
1

> <i_epik_Tot_abs_Q>
3

> <r_epik_Metal_State_Penalty>
4.14279

> <b_epik_Metal_Only>
1

> <s_lp_Force_Field>
OPLS_2005

> <r_lp_Energy>
71.031

> <b_lp_Chiralities_Consistent>
1

> <s_lp_Variant>
AV-unprocessed.smi:1867-22

> <Gold.Version>
5.8.1

> <Gold.Id.Protein>
6NUR|6NUR_protein|mol2

> <Gold.PLP.Fitness>
55.9848

> <Gold.PLP.PLP>
-45.4983

> <Gold.PLP.part.hbond>
-2.0000

> <Gold.PLP.part.metal>
0.0000

> <Gold.PLP.part.buried>
-5.5683

> <Gold.PLP.part.nonpolar>
-38.1431

> <Gold.PLP.part.repulsive>
0.4914

> <Gold.PLP.ligand.clash>
0.0231

> <Gold.PLP.ligand.torsion>
0.8777

> <Gold.PLP.Chemscore.Hbond>
4.0000

> <Gold.PLP.Chemscore.CHOScore>
0.0000

> <Gold.PLP.Chemscore.Metal>
0.0000

> <Gold.Chemscore.Hbonds>
donor molecule, donor type, donor heavy atom, donor atom, acceptor molecule, acceptor atom, score
      L1  H    19    51       P1  7948  2.00
      P1  H 10752 10763       L1    15  2.00

> <Gold.PLP.Chemscore.Internal.Correction>
0.2651

> <Gold.Rescore>
     Score         DG    S(hbond)    S(metal)    S(lipo)     H(rot)  DE(clash)    DE(int)     intcor
     18.61     -20.98       1.66        0.00     106.89       1.00       0.02       2.35       ----

> <Gold.Chemscore.Fitness>
18.6069

> <Gold.Chemscore.DG>
-20.9758

> <Gold.Chemscore.ZeroCoef>
-5.4800

> <Gold.Chemscore.Hbond>
1.6615

> <Gold.Chemscore.Metal>
0.0000

> <Gold.Chemscore.Lipo>
106.8921

> <Gold.Chemscore.Internal_Hbond>
0.0000

> <Gold.Chemscore.DEClash>
0.0162

> <Gold.Chemscore.DEInternal>
2.3527

> <Gold.Chemscore.Rot>
1.0000

> <Gold.Chemscore.Internal.Correction>
   9.000000E+99

> <Gold.Chemscore.Hbonds>
donor molecule, donor type, donor heavy atom, donor atom, acceptor molecule, acceptor atom, score
      L1  H    19    51       P1  7948  0.81
      P1  H 10752 10763       L1    15  0.70

> <Gold.Chemscore.Hbond.Weighted>
-5.5494

> <Gold.Chemscore.Metal.Weighted>
-0.0000

> <Gold.Chemscore.Lipo.Weighted>
-12.5064

> <Gold.Chemscore.Internal_Hbond.Weighted>
0.0000

> <Gold.Chemscore.DEClash.Weighted>
0.0162

> <Gold.Chemscore.DEInternal.Weighted>
2.3527

> <Gold.Chemscore.Rot.Weighted>
2.5600

> <Gold.Chemscore.Internal.Correction.Weighted>
   9.000000E+99

> <Gold.Protein.RotatedTorsions>
[ 6907 6896 6895 6894 ] final   90.01 input  -60.11 | X-H torsion
[ 7974 7965 7964 7962 ] final   67.96 input  175.53 | X-H torsion
[ 8008 7997 7996 7995 ] final  -39.84 input   59.86 | X-H torsion
[ 10167 10162 10161 10158 ] final  100.63 input  -65.29 | X-H torsion
[ 10718 10713 10712 10709 ] final -145.94 input   66.30 | X-H torsion
[ 10763 10752 10751 10750 ] final   50.34 input  -60.55 | X-H torsion
[ 11005 11000 10999 10996 ] final   69.85 input  -57.11 | X-H torsion

> <Gold.Protein.ActiveResidues>
 VAL166  LYS551  ARG553  GLY616  TRP617  ASP618  TYR619  PRO620  LYS621  CYS622 
 ASP623  PHE694  ASN695  SER759  ASP760  ASP761  ALA762  ILE779  LEU786  VAL792 
 PHE793  MET794  SER795  GLU796  ALA797  LYS798  CYS799  TRP800  GLU811  SER814 

> <Gold.Protein.RotatedAtoms>
  152.5441  134.1877  159.8661 H   0  0  0  0  0  0  0  0  0  0  0  0  # atno 6907 bound_to 6896
  151.1875  133.4680  159.2602 H   0  0  0  0  0  0  0  0  0  0  0  0  # atno 6908 bound_to 6896
  151.1116  135.0042  159.8552 H   0  0  0  0  0  0  0  0  0  0  0  0  # atno 6909 bound_to 6896
  145.8083  139.3019  143.1114 H   0  0  0  0  0  0  0  0  0  0  0  0  # atno 7974 bound_to 7965
  154.4018  140.1541  156.2929 H   0  0  0  0  0  0  0  0  0  0  0  0  # atno 8008 bound_to 7997
  155.8769  140.3446  155.5838 H   0  0  0  0  0  0  0  0  0  0  0  0  # atno 8009 bound_to 7997
  155.7711  140.0830  157.2098 H   0  0  0  0  0  0  0  0  0  0  0  0  # atno 8010 bound_to 7997
  139.7509  144.6984  151.0433 H   0  0  0  0  0  0  0  0  0  0  0  0  # atno 10167 bound_to 10162
  156.3887  130.7875  151.2075 H   0  0  0  0  0  0  0  0  0  0  0  0  # atno 10718 bound_to 10713
  152.9785  135.5882  154.4236 H   0  0  0  0  0  0  0  0  0  0  0  0  # atno 10763 bound_to 10752
  154.3858  135.2767  155.2186 H   0  0  0  0  0  0  0  0  0  0  0  0  # atno 10764 bound_to 10752
  154.4080  135.6088  153.5990 H   0  0  0  0  0  0  0  0  0  0  0  0  # atno 10765 bound_to 10752
  139.9631  134.7028  156.0604 H   0  0  0  0  0  0  0  0  0  0  0  0  # atno 11005 bound_to 11000
  145.9804  140.8687  143.0117 LP  0  0  0  0  0  0  0  0  0  0  0  0  # atno 17320 bound_to 7965
  144.6760  140.2072  143.7381 LP  0  0  0  0  0  0  0  0  0  0  0  0  # atno 17321 bound_to 7965
  140.7797  143.4810  151.0019 LP  0  0  0  0  0  0  0  0  0  0  0  0  # atno 17342 bound_to 10162
  139.8497  143.7454  152.3178 LP  0  0  0  0  0  0  0  0  0  0  0  0  # atno 17343 bound_to 10162
  157.7497  131.0322  150.4216 LP  0  0  0  0  0  0  0  0  0  0  0  0  # atno 17370 bound_to 10713
  156.4473  130.4004  149.6658 LP  0  0  0  0  0  0  0  0  0  0  0  0  # atno 17371 bound_to 10713
  141.1309  133.6587  156.3462 LP  0  0  0  0  0  0  0  0  0  0  0  0  # atno 17394 bound_to 11000
  140.5457  134.6077  157.5393 LP  0  0  0  0  0  0  0  0  0  0  0  0  # atno 17395 bound_to 11000

$$$$
