AV-unprocessed.smi:1641|AV-procd|sdf|6560|dock3
  -GOLD-   22720 7243D 1   1.00000     0.00000
 Structure written by MMmdl.
 42 43  0  0  0  0  0  0  0  0  2 V2000
  150.2785  142.3600  157.8256 C   0  0  0  0  0  0  0  0  0  0  0  0
  150.1216  141.5347  156.5944 C   0  0  0  0  0  0  0  0  0  0  0  0
  151.1460  140.9027  156.0087 N   0  0  0  0  0  0  0  0  0  0  0  0
  150.7533  140.1985  154.8792 N   0  0  0  0  0  0  0  0  0  0  0  0
  149.4395  140.3210  154.6455 C   0  0  0  0  0  0  0  0  0  0  0  0
  148.7720  139.7044  153.5541 N   0  0  0  0  0  0  0  0  0  0  0  0
  147.6031  139.0398  153.5620 C   0  0  0  0  0  0  0  0  0  0  0  0
  146.8959  138.8508  154.5522 O   0  0  0  0  0  0  0  0  0  0  0  0
  147.2890  138.5901  152.3384 N   0  0  0  0  0  0  0  0  0  0  0  0
  146.0848  137.8331  152.0160 C   0  0  0  0  0  0  0  0  0  0  0  0
  145.7814  136.7711  153.0901 C   0  0  0  0  0  0  0  0  0  0  0  0
  146.4223  135.4668  152.7897 N   0  3  1  0  0  0  0  0  0  0  0  0
  146.4880  134.5824  153.9771 C   0  0  0  0  0  0  0  0  0  0  0  0
  147.2137  133.2623  153.6497 C   0  0  2  0  0  0  0  0  0  0  0  0
  148.7371  133.4185  153.4962 C   0  0  0  0  0  0  0  0  0  0  0  0
  146.6167  132.6409  152.5118 O   0  0  0  0  0  0  0  0  0  0  0  0
  146.5653  133.4544  151.3425 C   0  0  1  0  0  0  0  0  0  0  0  0
  145.8946  132.6391  150.2314 C   0  0  0  0  0  0  0  0  0  0  0  0
  145.7958  134.7510  151.6521 C   0  0  0  0  0  0  0  0  0  0  0  0
  148.5676  141.3161  155.7992 S   0  0  0  0  0  0  0  0  0  0  0  0
  151.3206  142.3781  158.1470 H   0  0  0  0  0  0  0  0  0  0  0  0
  149.6719  141.9458  158.6308 H   0  0  0  0  0  0  0  0  0  0  0  0
  149.9552  143.3829  157.6325 H   0  0  0  0  0  0  0  0  0  0  0  0
  149.2424  139.7764  152.6640 H   0  0  0  0  0  0  0  0  0  0  0  0
  147.9226  138.7897  151.5778 H   0  0  0  0  0  0  0  0  0  0  0  0
  145.2514  138.5248  151.8893 H   0  0  0  0  0  0  0  0  0  0  0  0
  146.2357  137.3508  151.0500 H   0  0  0  0  0  0  0  0  0  0  0  0
  146.1541  137.1433  154.0457 H   0  0  0  0  0  0  0  0  0  0  0  0
  144.7067  136.6290  153.2146 H   0  0  0  0  0  0  0  0  0  0  0  0
  146.9950  135.0898  154.7989 H   0  0  0  0  0  0  0  0  0  0  0  0
  145.4729  134.3686  154.3162 H   0  0  0  0  0  0  0  0  0  0  0  0
  147.0515  132.5798  154.4844 H   0  0  0  0  0  0  0  0  0  0  0  0
  149.1846  133.7698  154.4262 H   0  0  0  0  0  0  0  0  0  0  0  0
  149.0053  134.1333  152.7189 H   0  0  0  0  0  0  0  0  0  0  0  0
  149.2017  132.4637  153.2486 H   0  0  0  0  0  0  0  0  0  0  0  0
  147.5771  133.6971  151.0171 H   0  0  0  0  0  0  0  0  0  0  0  0
  145.8385  133.2099  149.3042 H   0  0  0  0  0  0  0  0  0  0  0  0
  144.8803  132.3505  150.5092 H   0  0  0  0  0  0  0  0  0  0  0  0
  146.4553  131.7268  150.0254 H   0  0  0  0  0  0  0  0  0  0  0  0
  144.7558  134.5241  151.8931 H   0  0  0  0  0  0  0  0  0  0  0  0
  145.7850  135.3828  150.7647 H   0  0  0  0  0  0  0  0  0  0  0  0
  147.3782  135.6646  152.5296 H   0  0  0  0  0  0  0  0  0  0  0  0
  1  2  1  0  0  0  0
  1 21  1  0  0  0  0
  1 22  1  0  0  0  0
  1 23  1  0  0  0  0
  2 20  1  0  0  0  0
  2  3  2  0  0  0  0
  3  4  1  0  0  0  0
  4  5  2  0  0  0  0
  5  6  1  0  0  0  0
  5 20  1  0  0  0  0
  6  7  1  0  0  0  0
  6 24  1  0  0  0  0
  7  8  2  0  0  0  0
  7  9  1  0  0  0  0
  9 10  1  0  0  0  0
  9 25  1  0  0  0  0
 10 11  1  0  0  0  0
 10 26  1  0  0  0  0
 10 27  1  0  0  0  0
 11 12  1  0  0  0  0
 11 28  1  0  0  0  0
 11 29  1  0  0  0  0
 12 19  1  0  0  0  0
 12 13  1  0  0  0  0
 12 42  1  0  0  0  0
 13 14  1  0  0  0  0
 13 30  1  0  0  0  0
 13 31  1  0  0  0  0
 14 15  1  0  0  0  0
 14 16  1  0  0  0  0
 14 32  1  0  0  0  0
 15 33  1  0  0  0  0
 15 34  1  0  0  0  0
 15 35  1  0  0  0  0
 16 17  1  0  0  0  0
 17 18  1  0  0  0  0
 17 19  1  0  0  0  0
 17 36  1  0  0  0  0
 18 37  1  0  0  0  0
 18 38  1  0  0  0  0
 18 39  1  0  0  0  0
 19 40  1  0  0  0  0
 19 41  1  0  0  0  0
M  CHG  1  12   1
M  END
> <s_m_source_file>
AV-unprocessed.smi

> <i_m_source_file_index>
1641

> <i_lp_mmshare_version>
43012

> <i_f3d_flags>
0

> <s_epik_input>
W0NIM11jMW5uYyhzMSlbTkhdQyg9TylbTkhdW0NIMl1bQ0gyXU4yW0NIMl1bQ0BASF0oW0NIM10pT1tDQEBIXShbQ0gzXSlbQ0gyXTI=

> <s_epik_cmdline>
J2VwaWtfcHl0aG9uJywgJy1waCcsICc3LjAnLCAnLXRuJywgJzgnLCAnLW1hJywgJzIwMCcsICctbWV0YWxfYmluZGluZycsICctaW1hZScsICc8aW5maWxlLm1hZT4nLCAnLW9tYWUnLCAnPG91dGZpbGUubWFlPic=

> <r_lp_tautomer_probability>
1

> <r_epik_Ionization_Penalty>
0.700114

> <r_epik_Ionization_Penalty_Charging>
0.695697

> <r_epik_Ionization_Penalty_Neutral>
0.00441638

> <r_epik_State_Penalty>
0.717972

> <r_epik_Charging_Adjusted_Penalty>
1.41367

> <i_epik_Tot_Q>
1

> <i_epik_Tot_abs_Q>
1

> <r_epik_Metal_State_Penalty>
1.06958

> <b_epik_Metal_Only>
0

> <s_lp_Force_Field>
OPLS_2005

> <r_lp_Energy>
16.0757

> <b_lp_Chiralities_Consistent>
1

> <s_lp_Variant>
AV-unprocessed.smi:1641-5

> <Gold.Version>
5.8.1

> <Gold.Id.Protein>
6NUR|6NUR_protein|mol2

> <Gold.PLP.Fitness>
45.7730

> <Gold.PLP.PLP>
-32.8835

> <Gold.PLP.part.hbond>
-4.8813

> <Gold.PLP.part.metal>
0.0000

> <Gold.PLP.part.buried>
-4.4804

> <Gold.PLP.part.nonpolar>
-24.6428

> <Gold.PLP.part.repulsive>
0.5275

> <Gold.PLP.ligand.clash>
0.0000

> <Gold.PLP.ligand.torsion>
0.7915

> <Gold.PLP.Chemscore.Hbond>
4.8160

> <Gold.PLP.Chemscore.CHOScore>
0.0000

> <Gold.PLP.Chemscore.Metal>
0.0000

> <Gold.Chemscore.Hbonds>
donor molecule, donor type, donor heavy atom, donor atom, acceptor molecule, acceptor atom, score
      L1  H     6    24       P1  7957  1.00
      L1  H     9    25       P1  7957  0.68
      L1  H    12    42       P1  7948  2.00
      P1  H  7989  7998       L1     4  1.00

> <Gold.PLP.Chemscore.Internal.Correction>
0.0244

> <Gold.Rescore>
     Score         DG    S(hbond)    S(metal)    S(lipo)     H(rot)  DE(clash)    DE(int)     intcor
     18.22     -20.50       3.67        0.00      59.31       1.64       0.13       2.15       ----

> <Gold.Chemscore.Fitness>
18.2159

> <Gold.Chemscore.DG>
-20.4983

> <Gold.Chemscore.ZeroCoef>
-5.4800

> <Gold.Chemscore.Hbond>
3.6729

> <Gold.Chemscore.Metal>
0.0000

> <Gold.Chemscore.Lipo>
59.3051

> <Gold.Chemscore.Internal_Hbond>
0.0000

> <Gold.Chemscore.DEClash>
0.1334

> <Gold.Chemscore.DEInternal>
2.1490

> <Gold.Chemscore.Rot>
1.6358

> <Gold.Chemscore.Internal.Correction>
   9.000000E+99

> <Gold.Chemscore.Hbonds>
donor molecule, donor type, donor heavy atom, donor atom, acceptor molecule, acceptor atom, score
      L1  H     6    24       P1  7957  0.97
      L1  H     9    25       P1  7957  0.50
      L1  H    12    42       P1  7948  1.00
      P1  H  7989  7998       L1     4  0.39

> <Gold.Chemscore.Hbond.Weighted>
-12.2673

> <Gold.Chemscore.Metal.Weighted>
-0.0000

> <Gold.Chemscore.Lipo.Weighted>
-6.9387

> <Gold.Chemscore.Internal_Hbond.Weighted>
0.0000

> <Gold.Chemscore.DEClash.Weighted>
0.1334

> <Gold.Chemscore.DEInternal.Weighted>
2.1490

> <Gold.Chemscore.Rot.Weighted>
4.1878

> <Gold.Chemscore.Internal.Correction.Weighted>
   9.000000E+99

> <Gold.Protein.RotatedTorsions>
[ 6907 6896 6895 6894 ] final   90.34 input  -60.11 | X-H torsion
[ 7974 7965 7964 7962 ] final  -62.97 input  175.53 | X-H torsion
[ 8008 7997 7996 7995 ] final -110.63 input   59.86 | X-H torsion
[ 10167 10162 10161 10158 ] final -130.08 input  -65.29 | X-H torsion
[ 10718 10713 10712 10709 ] final  -35.21 input   66.30 | X-H torsion
[ 10763 10752 10751 10750 ] final  -84.00 input  -60.55 | X-H torsion
[ 11005 11000 10999 10996 ] final  131.87 input  -57.11 | X-H torsion

> <Gold.Protein.ActiveResidues>
 VAL166  LYS551  ARG553  GLY616  TRP617  ASP618  TYR619  PRO620  LYS621  CYS622 
 ASP623  PHE694  ASN695  SER759  ASP760  ASP761  ALA762  ILE779  LEU786  VAL792 
 PHE793  MET794  SER795  GLU796  ALA797  LYS798  CYS799  TRP800  GLU811  SER814 

> <Gold.Protein.RotatedAtoms>
  152.5444  134.1827  159.8641 H   0  0  0  0  0  0  0  0  0  0  0  0  # atno 6907 bound_to 6896
  151.1828  133.4707  159.2601 H   0  0  0  0  0  0  0  0  0  0  0  0  # atno 6908 bound_to 6896
  151.1161  135.0065  159.8572 H   0  0  0  0  0  0  0  0  0  0  0  0  # atno 6909 bound_to 6896
  145.7848  140.8742  143.0311 H   0  0  0  0  0  0  0  0  0  0  0  0  # atno 7974 bound_to 7965
  154.9774  140.0396  157.2262 H   0  0  0  0  0  0  0  0  0  0  0  0  # atno 8008 bound_to 7997
  154.7745  140.2808  155.6089 H   0  0  0  0  0  0  0  0  0  0  0  0  # atno 8009 bound_to 7997
  156.2926  140.2603  156.2555 H   0  0  0  0  0  0  0  0  0  0  0  0  # atno 8010 bound_to 7997
  139.9330  143.6250  152.2524 H   0  0  0  0  0  0  0  0  0  0  0  0  # atno 10167 bound_to 10162
  156.3413  130.4294  149.7785 H   0  0  0  0  0  0  0  0  0  0  0  0  # atno 10718 bound_to 10713
  154.5944  135.5536  153.7311 H   0  0  0  0  0  0  0  0  0  0  0  0  # atno 10763 bound_to 10752
  153.0129  135.6351  154.1803 H   0  0  0  0  0  0  0  0  0  0  0  0  # atno 10764 bound_to 10752
  154.1744  135.2890  155.3051 H   0  0  0  0  0  0  0  0  0  0  0  0  # atno 10765 bound_to 10752
  139.9756  134.9564  156.9501 H   0  0  0  0  0  0  0  0  0  0  0  0  # atno 11005 bound_to 11000
  144.6790  140.0040  143.7484 LP  0  0  0  0  0  0  0  0  0  0  0  0  # atno 17320 bound_to 7965
  146.0037  139.3112  143.0912 LP  0  0  0  0  0  0  0  0  0  0  0  0  # atno 17321 bound_to 7965
  139.6766  144.7658  151.1684 LP  0  0  0  0  0  0  0  0  0  0  0  0  # atno 17342 bound_to 10162
  140.7632  143.5786  150.8919 LP  0  0  0  0  0  0  0  0  0  0  0  0  # atno 17343 bound_to 10162
  156.5020  130.8133  151.3136 LP  0  0  0  0  0  0  0  0  0  0  0  0  # atno 17370 bound_to 10713
  157.7447  130.9941  150.2697 LP  0  0  0  0  0  0  0  0  0  0  0  0  # atno 17371 bound_to 10713
  140.5202  134.0915  155.7290 LP  0  0  0  0  0  0  0  0  0  0  0  0  # atno 17394 bound_to 11000
  141.1433  133.9099  157.2275 LP  0  0  0  0  0  0  0  0  0  0  0  0  # atno 17395 bound_to 11000

$$$$
