AV-unprocessed.smi:2448|AV-procd|sdf|9651|dock7
  -GOLD-   2272013283D 1   1.00000     0.00000
 Structure written by MMmdl.
 37 38  0  0  0  0  0  0  0  0  1 V2000
  149.4981  143.0855  157.8210 O   0  0  0  0  0  0  0  0  0  0  0  0
  150.8326  142.7435  157.4894 C   0  0  1  0  0  0  0  0  0  0  0  0
  150.8022  141.8627  156.2238 C   0  0  0  0  0  0  0  0  0  0  0  0
  149.5931  142.0826  155.4281 N   0  0  0  0  0  0  0  0  0  0  0  0
  148.6233  140.9771  155.3888 C   0  0  2  0  0  0  0  0  0  0  0  0
  148.9414  139.9246  154.2934 C   0  0  0  0  0  0  0  0  0  0  0  0
  150.0094  138.9057  154.6590 C   0  0  0  0  0  0  0  0  0  0  0  0
  151.3679  139.2811  154.7251 C   0  0  0  0  0  0  0  0  0  0  0  0
  152.3219  138.3021  155.0676 C   0  0  0  0  0  0  0  0  0  0  0  0
  152.0037  137.0167  155.3310 N   0  0  0  0  0  0  0  0  0  0  0  0
  150.7037  136.6603  155.2545 C   0  0  0  0  0  0  0  0  0  0  0  0
  149.6722  137.5608  154.9216 C   0  0  0  0  0  0  0  0  0  0  0  0
  147.2010  141.5501  155.2115 C   0  0  0  0  0  0  0  0  0  0  0  0
  146.3223  140.5540  155.0908 F   0  0  0  0  0  0  0  0  0  0  0  0
  146.8601  142.3008  156.2599 F   0  0  0  0  0  0  0  0  0  0  0  0
  147.1357  142.2936  154.1069 F   0  0  0  0  0  0  0  0  0  0  0  0
  151.5964  144.0556  157.2455 C   0  0  0  0  0  0  0  0  0  0  0  0
  151.8491  144.7117  158.6061 C   0  0  0  0  0  0  0  0  0  0  0  0
  152.1175  143.3855  159.8077 S   0  0  0  0  0  0  0  0  0  0  0  0
  151.5230  142.0813  158.6964 C   0  0  0  0  0  0  0  0  0  0  0  0
  149.0680  143.4050  157.0426 H   0  0  0  0  0  0  0  0  0  0  0  0
  151.6946  142.0603  155.6332 H   0  0  0  0  0  0  0  0  0  0  0  0
  150.8498  140.8145  156.5219 H   0  0  0  0  0  0  0  0  0  0  0  0
  149.1266  142.9261  155.7467 H   0  0  0  0  0  0  0  0  0  0  0  0
  148.6216  140.4804  156.3594 H   0  0  0  0  0  0  0  0  0  0  0  0
  148.0441  139.3485  154.0676 H   0  0  0  0  0  0  0  0  0  0  0  0
  149.2089  140.4275  153.3631 H   0  0  0  0  0  0  0  0  0  0  0  0
  151.6761  140.2968  154.5247 H   0  0  0  0  0  0  0  0  0  0  0  0
  153.3689  138.5590  155.1323 H   0  0  0  0  0  0  0  0  0  0  0  0
  150.4783  135.6251  155.4641 H   0  0  0  0  0  0  0  0  0  0  0  0
  148.6481  137.2213  154.8705 H   0  0  0  0  0  0  0  0  0  0  0  0
  152.5586  143.8333  156.7821 H   0  0  0  0  0  0  0  0  0  0  0  0
  151.0676  144.7251  156.5660 H   0  0  0  0  0  0  0  0  0  0  0  0
  152.6961  145.3975  158.5811 H   0  0  0  0  0  0  0  0  0  0  0  0
  150.9718  145.2795  158.9176 H   0  0  0  0  0  0  0  0  0  0  0  0
  150.8696  141.3860  159.2250 H   0  0  0  0  0  0  0  0  0  0  0  0
  152.3960  141.5186  158.3640 H   0  0  0  0  0  0  0  0  0  0  0  0
  1  2  1  0  0  0  0
  1 21  1  0  0  0  0
  2 20  1  0  0  0  0
  2  3  1  0  0  0  0
  2 17  1  0  0  0  0
  3  4  1  0  0  0  0
  3 22  1  0  0  0  0
  3 23  1  0  0  0  0
  4  5  1  0  0  0  0
  4 24  1  0  0  0  0
  5  6  1  0  0  0  0
  5 13  1  0  0  0  0
  5 25  1  0  0  0  0
  6  7  1  0  0  0  0
  6 26  1  0  0  0  0
  6 27  1  0  0  0  0
  7 12  1  0  0  0  0
  7  8  2  0  0  0  0
  8  9  1  0  0  0  0
  8 28  1  0  0  0  0
  9 10  2  0  0  0  0
  9 29  1  0  0  0  0
 10 11  1  0  0  0  0
 11 12  2  0  0  0  0
 11 30  1  0  0  0  0
 12 31  1  0  0  0  0
 13 14  1  0  0  0  0
 13 15  1  0  0  0  0
 13 16  1  0  0  0  0
 17 18  1  0  0  0  0
 17 32  1  0  0  0  0
 17 33  1  0  0  0  0
 18 19  1  0  0  0  0
 18 34  1  0  0  0  0
 18 35  1  0  0  0  0
 19 20  1  0  0  0  0
 20 36  1  0  0  0  0
 20 37  1  0  0  0  0
M  END
> <s_m_source_file>
AV-unprocessed.smi

> <i_m_source_file_index>
2448

> <i_lp_mmshare_version>
43012

> <i_f3d_flags>
0

> <s_epik_input>
W0NIMl0xU1tDSDJdW0NIMl1bQ0BAXTEoW09IXSlbQ0gyXVtOSF1bQ0BASF0oQyhGKShGKUYpW0NIMl1jMltjSF1bY0hdbltjSF1bY0hdMg==

> <s_epik_cmdline>
J2VwaWtfcHl0aG9uJywgJy1waCcsICc3LjAnLCAnLXRuJywgJzgnLCAnLW1hJywgJzIwMCcsICctbWV0YWxfYmluZGluZycsICctaW1hZScsICc8aW5maWxlLm1hZT4nLCAnLW9tYWUnLCAnPG91dGZpbGUubWFlPic=

> <r_epik_Ionization_Penalty>
0.187708

> <r_epik_Ionization_Penalty_Charging>
0

> <r_epik_Ionization_Penalty_Neutral>
0.187708

> <r_epik_State_Penalty>
0.22769

> <r_epik_Charging_Adjusted_Penalty>
0.22769

> <i_epik_Tot_Q>
0

> <i_epik_Tot_abs_Q>
0

> <r_epik_Metal_State_Penalty>
0.176206

> <b_epik_Metal_Only>
0

> <s_lp_Force_Field>
OPLS_2005

> <r_lp_Energy>
32.3304

> <b_lp_Chiralities_Consistent>
1

> <s_lp_Variant>
AV-unprocessed.smi:2448-1

> <Gold.Version>
5.8.1

> <Gold.Id.Protein>
6NUR|6NUR_protein|mol2

> <Gold.PLP.Fitness>
49.2645

> <Gold.PLP.PLP>
-43.6004

> <Gold.PLP.part.hbond>
-3.0537

> <Gold.PLP.part.metal>
0.0000

> <Gold.PLP.part.buried>
-3.0020

> <Gold.PLP.part.nonpolar>
-38.1211

> <Gold.PLP.part.repulsive>
0.0683

> <Gold.PLP.ligand.clash>
0.0000

> <Gold.PLP.ligand.torsion>
1.8088

> <Gold.PLP.Chemscore.Hbond>
2.9760

> <Gold.PLP.Chemscore.CHOScore>
0.0000

> <Gold.PLP.Chemscore.Metal>
0.0000

> <Gold.Chemscore.Hbonds>
donor molecule, donor type, donor heavy atom, donor atom, acceptor molecule, acceptor atom, score
      L1  H     1    21       P1  8028  1.00
      L1  H     4    24       P1  8028  1.00
      P1  H 10752 10764       L1    10  0.98

> <Gold.PLP.Chemscore.Internal.Correction>
0.3537

> <Gold.Rescore>
     Score         DG    S(hbond)    S(metal)    S(lipo)     H(rot)  DE(clash)    DE(int)     intcor
     18.69     -20.81       2.45        0.00     111.61       2.31       0.25       1.88       ----

> <Gold.Chemscore.Fitness>
18.6867

> <Gold.Chemscore.DG>
-20.8145

> <Gold.Chemscore.ZeroCoef>
-5.4800

> <Gold.Chemscore.Hbond>
2.4527

> <Gold.Chemscore.Metal>
0.0000

> <Gold.Chemscore.Lipo>
111.6125

> <Gold.Chemscore.Internal_Hbond>
0.0000

> <Gold.Chemscore.DEClash>
0.2487

> <Gold.Chemscore.DEInternal>
1.8790

> <Gold.Chemscore.Rot>
2.3111

> <Gold.Chemscore.Internal.Correction>
   9.000000E+99

> <Gold.Chemscore.Hbonds>
donor molecule, donor type, donor heavy atom, donor atom, acceptor molecule, acceptor atom, score
      L1  H     1    21       P1  8028  0.70
      L1  H     4    24       P1  8028  0.94
      P1  H 10752 10764       L1    10  0.51

> <Gold.Chemscore.Hbond.Weighted>
-8.1921

> <Gold.Chemscore.Metal.Weighted>
-0.0000

> <Gold.Chemscore.Lipo.Weighted>
-13.0587

> <Gold.Chemscore.Internal_Hbond.Weighted>
0.0000

> <Gold.Chemscore.DEClash.Weighted>
0.2487

> <Gold.Chemscore.DEInternal.Weighted>
1.8790

> <Gold.Chemscore.Rot.Weighted>
5.9164

> <Gold.Chemscore.Internal.Correction.Weighted>
   9.000000E+99

> <Gold.Protein.RotatedTorsions>
[ 6907 6896 6895 6894 ] final  -35.86 input  -60.11 | X-H torsion
[ 7974 7965 7964 7962 ] final  -87.22 input  175.53 | X-H torsion
[ 8008 7997 7996 7995 ] final  138.43 input   59.86 | X-H torsion
[ 10167 10162 10161 10158 ] final  156.30 input  -65.29 | X-H torsion
[ 10718 10713 10712 10709 ] final   50.64 input   66.30 | X-H torsion
[ 10763 10752 10751 10750 ] final  -56.73 input  -60.55 | X-H torsion
[ 11005 11000 10999 10996 ] final  169.46 input  -57.11 | X-H torsion

> <Gold.Protein.ActiveResidues>
 VAL166  LYS551  ARG553  GLY616  TRP617  ASP618  TYR619  PRO620  LYS621  CYS622 
 ASP623  PHE694  ASN695  SER759  ASP760  ASP761  ALA762  ILE779  LEU786  VAL792 
 PHE793  MET794  SER795  GLU796  ALA797  LYS798  CYS799  TRP800  GLU811  SER814 

> <Gold.Protein.RotatedAtoms>
  151.0345  134.9563  159.8128 H   0  0  0  0  0  0  0  0  0  0  0  0  # atno 6907 bound_to 6896
  152.5352  134.2738  159.8991 H   0  0  0  0  0  0  0  0  0  0  0  0  # atno 6908 bound_to 6896
  151.2748  133.4195  159.2657 H   0  0  0  0  0  0  0  0  0  0  0  0  # atno 6909 bound_to 6896
  145.4695  140.9560  143.1925 H   0  0  0  0  0  0  0  0  0  0  0  0  # atno 7974 bound_to 7965
  156.2997  140.2394  156.4072 H   0  0  0  0  0  0  0  0  0  0  0  0  # atno 8008 bound_to 7997
  154.8474  140.0425  157.1601 H   0  0  0  0  0  0  0  0  0  0  0  0  # atno 8009 bound_to 7997
  154.9036  140.2980  155.5308 H   0  0  0  0  0  0  0  0  0  0  0  0  # atno 8010 bound_to 7997
  139.4821  144.5021  151.8152 H   0  0  0  0  0  0  0  0  0  0  0  0  # atno 10167 bound_to 10162
  157.4904  130.8372  149.8196 H   0  0  0  0  0  0  0  0  0  0  0  0  # atno 10718 bound_to 10713
  154.2113  135.6394  153.5116 H   0  0  0  0  0  0  0  0  0  0  0  0  # atno 10763 bound_to 10752
  152.9989  135.5474  154.6212 H   0  0  0  0  0  0  0  0  0  0  0  0  # atno 10764 bound_to 10752
  154.5650  135.2912  155.0856 H   0  0  0  0  0  0  0  0  0  0  0  0  # atno 10765 bound_to 10752
  140.2980  134.7619  157.3893 H   0  0  0  0  0  0  0  0  0  0  0  0  # atno 11005 bound_to 11000
  144.7954  139.6245  143.7095 LP  0  0  0  0  0  0  0  0  0  0  0  0  # atno 17320 bound_to 7965
  146.2405  139.5992  142.9494 LP  0  0  0  0  0  0  0  0  0  0  0  0  # atno 17321 bound_to 7965
  140.4516  144.1847  150.5898 LP  0  0  0  0  0  0  0  0  0  0  0  0  # atno 17342 bound_to 10162
  140.4579  143.2460  151.9260 LP  0  0  0  0  0  0  0  0  0  0  0  0  # atno 17343 bound_to 10162
  156.0170  130.3810  150.2079 LP  0  0  0  0  0  0  0  0  0  0  0  0  # atno 17370 bound_to 10713
  157.0268  130.9995  151.3324 LP  0  0  0  0  0  0  0  0  0  0  0  0  # atno 17371 bound_to 10713
  140.1135  134.5314  155.8245 LP  0  0  0  0  0  0  0  0  0  0  0  0  # atno 17394 bound_to 11000
  141.2133  133.6732  156.6733 LP  0  0  0  0  0  0  0  0  0  0  0  0  # atno 17395 bound_to 11000

$$$$
