AV-unprocessed.smi:2198|AV-procd|sdf|8914|dock5
  -GOLD-   2272012133D 1   1.00000     0.00000
 Structure written by MMmdl.
 43 44  0  0  0  0  0  0  0  0  1 V2000
  147.3697  142.1008  152.8056 C   0  0  0  0  0  0  0  0  0  0  0  0
  148.0401  141.6622  154.0907 C   0  0  0  0  0  0  0  0  0  0  0  0
  147.5685  141.9049  155.2691 N   0  0  0  0  0  0  0  0  0  0  0  0
  148.2817  141.4516  156.3880 C   0  0  0  0  0  0  0  0  0  0  0  0
  147.6623  141.7802  157.7358 C   0  0  0  0  0  0  0  0  0  0  0  0
  149.4537  140.7627  156.2588 C   0  0  0  0  0  0  0  0  0  0  0  0
  150.2562  140.2580  157.4564 C   0  0  0  0  0  0  0  0  0  0  0  0
  151.5641  141.0030  157.7272 C   0  0  0  0  0  0  0  0  0  0  0  0
  152.6349  140.3973  157.6930 O   0  0  0  0  0  0  0  0  0  0  0  0
  151.4621  142.3132  157.9985 N   0  0  0  0  0  0  0  0  0  0  0  0
  152.5774  143.2128  158.2860 C   0  0  1  0  0  0  0  0  0  0  0  0
  152.1452  144.6906  158.1840 C   0  0  0  0  0  0  0  0  0  0  0  0
  151.2089  145.1011  159.3332 C   0  0  0  0  0  0  0  0  0  0  0  0
  151.8402  144.8011  160.7015 C   0  0  0  0  0  0  0  0  0  0  0  0
  152.2331  143.3170  160.8303 C   0  0  2  0  0  0  0  0  0  0  0  0
  152.8662  143.0222  162.1975 C   0  0  0  0  0  0  0  0  0  0  0  0
  153.1700  142.9030  159.6756 C   0  0  0  0  0  0  0  0  0  0  0  0
  149.9807  140.4878  154.9078 C   0  0  0  0  0  0  0  0  0  0  0  0
  151.0200  139.8721  154.6758 O   0  0  0  0  0  0  0  0  0  0  0  0
  149.2298  140.9645  153.8898 N   0  0  0  0  0  0  0  0  0  0  0  0
  149.5495  140.8023  152.9459 H   0  0  0  0  0  0  0  0  0  0  0  0
  146.3749  141.6609  152.7321 H   0  0  0  0  0  0  0  0  0  0  0  0
  147.9431  141.7985  151.9280 H   0  0  0  0  0  0  0  0  0  0  0  0
  147.2668  143.1859  152.7877 H   0  0  0  0  0  0  0  0  0  0  0  0
  148.3520  142.3616  158.3472 H   0  0  0  0  0  0  0  0  0  0  0  0
  147.4041  140.8672  158.2721 H   0  0  0  0  0  0  0  0  0  0  0  0
  146.7497  142.3660  157.6192 H   0  0  0  0  0  0  0  0  0  0  0  0
  149.6537  140.2956  158.3645 H   0  0  0  0  0  0  0  0  0  0  0  0
  150.4663  139.1974  157.3150 H   0  0  0  0  0  0  0  0  0  0  0  0
  150.5388  142.7216  158.0072 H   0  0  0  0  0  0  0  0  0  0  0  0
  153.3601  143.0298  157.5474 H   0  0  0  0  0  0  0  0  0  0  0  0
  153.0336  145.3226  158.2087 H   0  0  0  0  0  0  0  0  0  0  0  0
  151.6653  144.8833  157.2237 H   0  0  0  0  0  0  0  0  0  0  0  0
  150.9760  146.1637  159.2585 H   0  0  0  0  0  0  0  0  0  0  0  0
  150.2594  144.5720  159.2434 H   0  0  0  0  0  0  0  0  0  0  0  0
  152.7210  145.4297  160.8399 H   0  0  0  0  0  0  0  0  0  0  0  0
  151.1407  145.0727  161.4930 H   0  0  0  0  0  0  0  0  0  0  0  0
  151.3220  142.7210  160.7603 H   0  0  0  0  0  0  0  0  0  0  0  0
  153.7858  143.5906  162.3403 H   0  0  0  0  0  0  0  0  0  0  0  0
  153.1099  141.9642  162.2973 H   0  0  0  0  0  0  0  0  0  0  0  0
  152.1857  143.2815  163.0090 H   0  0  0  0  0  0  0  0  0  0  0  0
  153.4091  141.8411  159.7480 H   0  0  0  0  0  0  0  0  0  0  0  0
  154.1183  143.4321  159.7784 H   0  0  0  0  0  0  0  0  0  0  0  0
  1  2  1  0  0  0  0
  1 22  1  0  0  0  0
  1 23  1  0  0  0  0
  1 24  1  0  0  0  0
  2 20  1  0  0  0  0
  2  3  2  0  0  0  0
  3  4  1  0  0  0  0
  4  5  1  0  0  0  0
  4  6  2  0  0  0  0
  5 25  1  0  0  0  0
  5 26  1  0  0  0  0
  5 27  1  0  0  0  0
  6  7  1  0  0  0  0
  6 18  1  0  0  0  0
  7  8  1  0  0  0  0
  7 28  1  0  0  0  0
  7 29  1  0  0  0  0
  8  9  2  0  0  0  0
  8 10  1  0  0  0  0
 10 11  1  0  0  0  0
 10 30  1  0  0  0  0
 11 17  1  0  0  0  0
 11 12  1  0  0  0  0
 11 31  1  0  0  0  0
 12 13  1  0  0  0  0
 12 32  1  0  0  0  0
 12 33  1  0  0  0  0
 13 14  1  0  0  0  0
 13 34  1  0  0  0  0
 13 35  1  0  0  0  0
 14 15  1  0  0  0  0
 14 36  1  0  0  0  0
 14 37  1  0  0  0  0
 15 16  1  0  0  0  0
 15 17  1  0  0  0  0
 15 38  1  0  0  0  0
 16 39  1  0  0  0  0
 16 40  1  0  0  0  0
 16 41  1  0  0  0  0
 17 42  1  0  0  0  0
 17 43  1  0  0  0  0
 18 19  2  0  0  0  0
 18 20  1  0  0  0  0
 20 21  1  0  0  0  0
M  END
> <s_m_source_file>
AV-unprocessed.smi

> <i_m_source_file_index>
2198

> <i_lp_mmshare_version>
43012

> <i_f3d_flags>
0

> <s_epik_input>
W0NIM11jMW5jKFtDSDNdKWMoYyg9TylbbkhdMSlbQ0gyXUMoPU8pW05IXVtDQEBIXTJbQ0gyXVtDSDJdW0NIMl1bQ0BASF0oW0NIM10pW0NIMl0y

> <s_epik_cmdline>
J2VwaWtfcHl0aG9uJywgJy1waCcsICc3LjAnLCAnLXRuJywgJzgnLCAnLW1hJywgJzIwMCcsICctbWV0YWxfYmluZGluZycsICctaW1hZScsICc8aW5maWxlLm1hZT4nLCAnLW9tYWUnLCAnPG91dGZpbGUubWFlPic=

> <r_lp_tautomer_probability>
0.839158

> <r_epik_Ionization_Penalty>
0.000372587

> <r_epik_Ionization_Penalty_Charging>
0.000337977

> <r_epik_Ionization_Penalty_Neutral>
3.46101e-05

> <r_epik_State_Penalty>
0.09125

> <r_epik_Charging_Adjusted_Penalty>
0.091588

> <i_epik_Tot_Q>
0

> <i_epik_Tot_abs_Q>
0

> <r_epik_Metal_State_Penalty>
0.25197

> <b_epik_Metal_Only>
0

> <s_lp_Force_Field>
OPLS_2005

> <r_lp_Energy>
10.5346

> <b_lp_Chiralities_Consistent>
1

> <s_lp_Variant>
AV-unprocessed.smi:2198-4

> <Gold.Version>
5.8.1

> <Gold.Id.Protein>
6NUR|6NUR_protein|mol2

> <Gold.PLP.Fitness>
50.2550

> <Gold.PLP.PLP>
-41.9913

> <Gold.PLP.part.hbond>
-3.0000

> <Gold.PLP.part.metal>
0.0000

> <Gold.PLP.part.buried>
-7.2735

> <Gold.PLP.part.nonpolar>
-31.2124

> <Gold.PLP.part.repulsive>
0.4407

> <Gold.PLP.ligand.clash>
0.0000

> <Gold.PLP.ligand.torsion>
0.2757

> <Gold.PLP.Chemscore.Hbond>
2.9357

> <Gold.PLP.Chemscore.CHOScore>
0.0000

> <Gold.PLP.Chemscore.Metal>
0.0000

> <Gold.Chemscore.Hbonds>
donor molecule, donor type, donor heavy atom, donor atom, acceptor molecule, acceptor atom, score
      L1  H    20    21       P1  7957  1.00
      P1  H  7989  7998       L1    19  0.95
      P1  H  7997  8009       L1     9  0.91

> <Gold.PLP.Chemscore.Internal.Correction>
0.0080

> <Gold.Rescore>
     Score         DG    S(hbond)    S(metal)    S(lipo)     H(rot)  DE(clash)    DE(int)     intcor
     20.20     -22.45       2.54        0.00     104.99       1.48       2.05       0.19       ----

> <Gold.Chemscore.Fitness>
20.2004

> <Gold.Chemscore.DG>
-22.4456

> <Gold.Chemscore.ZeroCoef>
-5.4800

> <Gold.Chemscore.Hbond>
2.5363

> <Gold.Chemscore.Metal>
0.0000

> <Gold.Chemscore.Lipo>
104.9877

> <Gold.Chemscore.Internal_Hbond>
0.0000

> <Gold.Chemscore.DEClash>
2.0532

> <Gold.Chemscore.DEInternal>
0.1920

> <Gold.Chemscore.Rot>
1.4801

> <Gold.Chemscore.Internal.Correction>
   9.000000E+99

> <Gold.Chemscore.Hbonds>
donor molecule, donor type, donor heavy atom, donor atom, acceptor molecule, acceptor atom, score
      L1  H    20    21       P1  7957  0.99
      P1  H  7989  7998       L1    19  0.22
      P1  H  7997  8009       L1     9  0.82

> <Gold.Chemscore.Hbond.Weighted>
-8.4712

> <Gold.Chemscore.Metal.Weighted>
-0.0000

> <Gold.Chemscore.Lipo.Weighted>
-12.2836

> <Gold.Chemscore.Internal_Hbond.Weighted>
0.0000

> <Gold.Chemscore.DEClash.Weighted>
2.0532

> <Gold.Chemscore.DEInternal.Weighted>
0.1920

> <Gold.Chemscore.Rot.Weighted>
3.7891

> <Gold.Chemscore.Internal.Correction.Weighted>
   9.000000E+99

> <Gold.Protein.RotatedTorsions>
[ 6907 6896 6895 6894 ] final   80.34 input  -60.11 | X-H torsion
[ 7974 7965 7964 7962 ] final   54.21 input  175.53 | X-H torsion
[ 8008 7997 7996 7995 ] final  171.66 input   59.86 | X-H torsion
[ 10167 10162 10161 10158 ] final -144.55 input  -65.29 | X-H torsion
[ 10718 10713 10712 10709 ] final -146.90 input   66.30 | X-H torsion
[ 10763 10752 10751 10750 ] final -129.65 input  -60.55 | X-H torsion
[ 11005 11000 10999 10996 ] final  114.56 input  -57.11 | X-H torsion

> <Gold.Protein.ActiveResidues>
 VAL166  LYS551  ARG553  GLY616  TRP617  ASP618  TYR619  PRO620  LYS621  CYS622 
 ASP623  PHE694  ASN695  SER759  ASP760  ASP761  ALA762  ILE779  LEU786  VAL792 
 PHE793  MET794  SER795  GLU796  ALA797  LYS798  CYS799  TRP800  GLU811  SER814 

> <Gold.Protein.RotatedAtoms>
  152.5231  134.3372  159.9203 H   0  0  0  0  0  0  0  0  0  0  0  0  # atno 6907 bound_to 6896
  151.3322  133.3989  159.2671 H   0  0  0  0  0  0  0  0  0  0  0  0  # atno 6908 bound_to 6896
  150.9871  134.9232  159.7936 H   0  0  0  0  0  0  0  0  0  0  0  0  # atno 6909 bound_to 6896
  145.9632  139.4079  143.0235 H   0  0  0  0  0  0  0  0  0  0  0  0  # atno 7974 bound_to 7965
  156.1249  140.1506  156.9150 H   0  0  0  0  0  0  0  0  0  0  0  0  # atno 8008 bound_to 7997
  154.4864  140.0864  156.7537 H   0  0  0  0  0  0  0  0  0  0  0  0  # atno 8009 bound_to 7997
  155.4361  140.3429  155.4287 H   0  0  0  0  0  0  0  0  0  0  0  0  # atno 8010 bound_to 7997
  139.7889  143.7995  152.2647 H   0  0  0  0  0  0  0  0  0  0  0  0  # atno 10167 bound_to 10162
  156.4007  130.7932  151.2142 H   0  0  0  0  0  0  0  0  0  0  0  0  # atno 10718 bound_to 10713
  154.8757  135.3888  154.3954 H   0  0  0  0  0  0  0  0  0  0  0  0  # atno 10763 bound_to 10752
  153.4685  135.7030  153.6013 H   0  0  0  0  0  0  0  0  0  0  0  0  # atno 10764 bound_to 10752
  153.4480  135.3840  155.2235 H   0  0  0  0  0  0  0  0  0  0  0  0  # atno 10765 bound_to 10752
  139.8984  134.9570  156.6911 H   0  0  0  0  0  0  0  0  0  0  0  0  # atno 11005 bound_to 11000
  145.8010  140.9771  143.0999 LP  0  0  0  0  0  0  0  0  0  0  0  0  # atno 17320 bound_to 7965
  144.6820  139.9801  143.7483 LP  0  0  0  0  0  0  0  0  0  0  0  0  # atno 17321 bound_to 7965
  139.8080  144.7347  150.9736 LP  0  0  0  0  0  0  0  0  0  0  0  0  # atno 17342 bound_to 10162
  140.7820  143.4279  151.0740 LP  0  0  0  0  0  0  0  0  0  0  0  0  # atno 17343 bound_to 10162
  157.7503  131.0287  150.4063 LP  0  0  0  0  0  0  0  0  0  0  0  0  # atno 17370 bound_to 10713
  156.4342  130.3978  149.6740 LP  0  0  0  0  0  0  0  0  0  0  0  0  # atno 17371 bound_to 10713
  140.7224  133.9129  155.8156 LP  0  0  0  0  0  0  0  0  0  0  0  0  # atno 17394 bound_to 11000
  141.0217  134.0880  157.4113 LP  0  0  0  0  0  0  0  0  0  0  0  0  # atno 17395 bound_to 11000

$$$$
