AV-unprocessed.smi:3143|AV-procd|sdf|11976|dock4
  -GOLD-   2272017373D 1   1.00000     0.00000
 Structure written by MMmdl.
 37 38  0  0  0  0  0  0  0  0  1 V2000
  148.9475  141.4674  154.2386 C   0  0  0  0  0  0  0  0  0  0  0  0
  149.6180  141.2304  155.6004 C   0  0  2  0  0  0  0  0  0  0  0  0
  150.2853  142.4687  156.0432 N   0  0  0  0  0  0  0  0  0  0  0  0
  150.7830  142.4037  157.4131 C   0  0  0  0  0  0  0  0  0  0  0  0
  151.5868  143.6752  157.7209 C   0  0  0  0  0  0  0  0  0  0  0  0
  151.8516  143.8124  159.1404 N   0  0  0  0  0  0  0  0  0  0  0  0
  152.4578  142.9118  159.9909 C   0  0  0  0  0  0  0  0  0  0  0  0
  152.4828  143.4793  161.2327 C   0  0  0  0  0  0  0  0  0  0  0  0
  151.8604  144.7443  161.0387 C   0  0  0  0  0  0  0  0  0  0  0  0
  151.4828  144.9403  159.7856 N   0  0  0  0  0  0  0  0  0  0  0  0
  150.5709  140.0163  155.5090 C   0  0  0  0  0  0  0  0  0  0  0  0
  151.0733  139.7377  154.4189 O   0  0  0  0  0  0  0  0  0  0  0  0
  150.8315  139.2887  156.6171 N   0  0  0  0  0  0  0  0  0  0  0  0
  150.2630  139.4969  157.9489 C   0  0  0  0  0  0  0  0  0  0  0  0
  150.6581  138.2677  158.7674 C   0  0  0  0  0  0  0  0  0  0  0  0
  151.9250  137.7639  158.0919 C   0  0  0  0  0  0  0  0  0  0  0  0
  151.7380  138.1413  156.6226 C   0  0  0  0  0  0  0  0  0  0  0  0
  148.4166  140.5781  153.8964 H   0  0  0  0  0  0  0  0  0  0  0  0
  149.6782  141.7328  153.4732 H   0  0  0  0  0  0  0  0  0  0  0  0
  148.2197  142.2773  154.2962 H   0  0  0  0  0  0  0  0  0  0  0  0
  148.8259  141.0297  156.3205 H   0  0  0  0  0  0  0  0  0  0  0  0
  149.6753  143.2679  155.9483 H   0  0  0  0  0  0  0  0  0  0  0  0
  149.9426  142.3190  158.1036 H   0  0  0  0  0  0  0  0  0  0  0  0
  151.4151  141.5272  157.5585 H   0  0  0  0  0  0  0  0  0  0  0  0
  152.5402  143.6638  157.1900 H   0  0  0  0  0  0  0  0  0  0  0  0
  151.0464  144.5605  157.3832 H   0  0  0  0  0  0  0  0  0  0  0  0
  152.8168  141.9533  159.6459 H   0  0  0  0  0  0  0  0  0  0  0  0
  152.8844  143.0558  162.1412 H   0  0  0  0  0  0  0  0  0  0  0  0
  151.6714  145.5198  161.7660 H   0  0  0  0  0  0  0  0  0  0  0  0
  150.6975  140.3979  158.3843 H   0  0  0  0  0  0  0  0  0  0  0  0
  149.1789  139.6153  157.9226 H   0  0  0  0  0  0  0  0  0  0  0  0
  150.8019  138.4912  159.8248 H   0  0  0  0  0  0  0  0  0  0  0  0
  149.8772  137.5100  158.6891 H   0  0  0  0  0  0  0  0  0  0  0  0
  152.7891  138.2914  158.4979 H   0  0  0  0  0  0  0  0  0  0  0  0
  152.0876  136.6954  158.2366 H   0  0  0  0  0  0  0  0  0  0  0  0
  151.2750  137.3208  156.0724 H   0  0  0  0  0  0  0  0  0  0  0  0
  152.6937  138.3711  156.1485 H   0  0  0  0  0  0  0  0  0  0  0  0
  1  2  1  0  0  0  0
  1 18  1  0  0  0  0
  1 19  1  0  0  0  0
  1 20  1  0  0  0  0
  2  3  1  0  0  0  0
  2 11  1  0  0  0  0
  2 21  1  0  0  0  0
  3  4  1  0  0  0  0
  3 22  1  0  0  0  0
  4  5  1  0  0  0  0
  4 23  1  0  0  0  0
  4 24  1  0  0  0  0
  5  6  1  0  0  0  0
  5 25  1  0  0  0  0
  5 26  1  0  0  0  0
  6 10  1  0  0  0  0
  6  7  1  0  0  0  0
  7  8  2  0  0  0  0
  7 27  1  0  0  0  0
  8  9  1  0  0  0  0
  8 28  1  0  0  0  0
  9 10  2  0  0  0  0
  9 29  1  0  0  0  0
 11 12  2  0  0  0  0
 11 13  1  0  0  0  0
 13 17  1  0  0  0  0
 13 14  1  0  0  0  0
 14 15  1  0  0  0  0
 14 30  1  0  0  0  0
 14 31  1  0  0  0  0
 15 16  1  0  0  0  0
 15 32  1  0  0  0  0
 15 33  1  0  0  0  0
 16 17  1  0  0  0  0
 16 34  1  0  0  0  0
 16 35  1  0  0  0  0
 17 36  1  0  0  0  0
 17 37  1  0  0  0  0
M  END
> <s_m_source_file>
AV-unprocessed.smi

> <i_m_source_file_index>
3143

> <i_lp_mmshare_version>
43012

> <i_f3d_flags>
0

> <s_epik_input>
W0NIMl0xW0NIMl1bQ0gyXVtDSDJdTjFDKD1PKVtDQEhdKFtDSDNdKVtOSF1bQ0gyXVtDSDJdbjJbY0hdW2NIXVtjSF1uMg==

> <s_epik_cmdline>
J2VwaWtfcHl0aG9uJywgJy1waCcsICc3LjAnLCAnLXRuJywgJzgnLCAnLW1hJywgJzIwMCcsICctbWV0YWxfYmluZGluZycsICctaW1hZScsICc8aW5maWxlLm1hZT4nLCAnLW9tYWUnLCAnPG91dGZpbGUubWFlPic=

> <r_lp_tautomer_probability>
1

> <r_epik_Ionization_Penalty>
0.733724

> <r_epik_Ionization_Penalty_Charging>
0

> <r_epik_Ionization_Penalty_Neutral>
0.733724

> <r_epik_State_Penalty>
0.75825

> <r_epik_Charging_Adjusted_Penalty>
0.75825

> <i_epik_Tot_Q>
0

> <i_epik_Tot_abs_Q>
0

> <r_epik_Metal_State_Penalty>
0.757598

> <b_epik_Metal_Only>
0

> <s_lp_Force_Field>
OPLS_2005

> <r_lp_Energy>
31.3447

> <b_lp_Chiralities_Consistent>
1

> <s_lp_Variant>
AV-unprocessed.smi:3143-3

> <Gold.Version>
5.8.1

> <Gold.Id.Protein>
6NUR|6NUR_protein|mol2

> <Gold.PLP.Fitness>
40.4210

> <Gold.PLP.PLP>
-36.0075

> <Gold.PLP.part.hbond>
-2.0000

> <Gold.PLP.part.metal>
0.0000

> <Gold.PLP.part.buried>
-3.9774

> <Gold.PLP.part.nonpolar>
-30.8532

> <Gold.PLP.part.repulsive>
0.2131

> <Gold.PLP.ligand.clash>
0.0000

> <Gold.PLP.ligand.torsion>
0.8135

> <Gold.PLP.Chemscore.Hbond>
2.0000

> <Gold.PLP.Chemscore.CHOScore>
0.0000

> <Gold.PLP.Chemscore.Metal>
0.0000

> <Gold.Chemscore.Hbonds>
donor molecule, donor type, donor heavy atom, donor atom, acceptor molecule, acceptor atom, score
      L1  H     3    22       P1  8028  1.00
      P1  H  7989  7998       L1    12  1.00

> <Gold.PLP.Chemscore.Internal.Correction>
0.0404

> <Gold.Rescore>
     Score         DG    S(hbond)    S(metal)    S(lipo)     H(rot)  DE(clash)    DE(int)     intcor
     16.90     -17.73       1.99        0.00      86.82       1.77       0.00       0.83       ----

> <Gold.Chemscore.Fitness>
16.8964

> <Gold.Chemscore.DG>
-17.7332

> <Gold.Chemscore.ZeroCoef>
-5.4800

> <Gold.Chemscore.Hbond>
1.9859

> <Gold.Chemscore.Metal>
0.0000

> <Gold.Chemscore.Lipo>
86.8205

> <Gold.Chemscore.Internal_Hbond>
0.0000

> <Gold.Chemscore.DEClash>
0.0029

> <Gold.Chemscore.DEInternal>
0.8339

> <Gold.Chemscore.Rot>
1.7726

> <Gold.Chemscore.Internal.Correction>
   9.000000E+99

> <Gold.Chemscore.Hbonds>
donor molecule, donor type, donor heavy atom, donor atom, acceptor molecule, acceptor atom, score
      L1  H     3    22       P1  8028  1.00
      P1  H  7989  7998       L1    12  0.95

> <Gold.Chemscore.Hbond.Weighted>
-6.6330

> <Gold.Chemscore.Metal.Weighted>
-0.0000

> <Gold.Chemscore.Lipo.Weighted>
-10.1580

> <Gold.Chemscore.Internal_Hbond.Weighted>
0.0000

> <Gold.Chemscore.DEClash.Weighted>
0.0029

> <Gold.Chemscore.DEInternal.Weighted>
0.8339

> <Gold.Chemscore.Rot.Weighted>
4.5378

> <Gold.Chemscore.Internal.Correction.Weighted>
   9.000000E+99

> <Gold.Protein.RotatedTorsions>
[ 6907 6896 6895 6894 ] final  -21.54 input  -60.11 | X-H torsion
[ 7974 7965 7964 7962 ] final  -11.71 input  175.53 | X-H torsion
[ 8008 7997 7996 7995 ] final  -73.41 input   59.86 | X-H torsion
[ 10167 10162 10161 10158 ] final   20.14 input  -65.29 | X-H torsion
[ 10718 10713 10712 10709 ] final   99.53 input   66.30 | X-H torsion
[ 10763 10752 10751 10750 ] final  164.21 input  -60.55 | X-H torsion
[ 11005 11000 10999 10996 ] final  -43.99 input  -57.11 | X-H torsion

> <Gold.Protein.ActiveResidues>
 VAL166  LYS551  ARG553  GLY616  TRP617  ASP618  TYR619  PRO620  LYS621  CYS622 
 ASP623  PHE694  ASN695  SER759  ASP760  ASP761  ALA762  ILE779  LEU786  VAL792 
 PHE793  MET794  SER795  GLU796  ALA797  LYS798  CYS799  TRP800  GLU811  SER814 

> <Gold.Protein.RotatedAtoms>
  151.2318  135.0557  159.8990 H   0  0  0  0  0  0  0  0  0  0  0  0  # atno 6907 bound_to 6896
  152.5404  134.0528  159.8128 H   0  0  0  0  0  0  0  0  0  0  0  0  # atno 6908 bound_to 6896
  151.0709  133.5418  159.2658 H   0  0  0  0  0  0  0  0  0  0  0  0  # atno 6909 bound_to 6896
  146.2178  140.2950  142.8371 H   0  0  0  0  0  0  0  0  0  0  0  0  # atno 7974 bound_to 7965
  154.5245  140.0779  156.8233 H   0  0  0  0  0  0  0  0  0  0  0  0  # atno 8008 bound_to 7997
  155.3505  140.3412  155.4221 H   0  0  0  0  0  0  0  0  0  0  0  0  # atno 8009 bound_to 7997
  156.1717  140.1622  156.8423 H   0  0  0  0  0  0  0  0  0  0  0  0  # atno 8010 bound_to 7997
  140.5526  143.9482  150.6588 H   0  0  0  0  0  0  0  0  0  0  0  0  # atno 10167 bound_to 10162
  157.6874  131.0672  150.4962 H   0  0  0  0  0  0  0  0  0  0  0  0  # atno 10718 bound_to 10713
  154.3055  135.2758  155.2591 H   0  0  0  0  0  0  0  0  0  0  0  0  # atno 10763 bound_to 10752
  154.5009  135.5808  153.6533 H   0  0  0  0  0  0  0  0  0  0  0  0  # atno 10764 bound_to 10752
  152.9895  135.6157  154.3229 H   0  0  0  0  0  0  0  0  0  0  0  0  # atno 10765 bound_to 10752
  141.0421  133.6776  156.2810 H   0  0  0  0  0  0  0  0  0  0  0  0  # atno 11005 bound_to 11000
  144.9098  140.7744  143.5814 LP  0  0  0  0  0  0  0  0  0  0  0  0  # atno 17320 bound_to 7965
  145.2881  139.1894  143.4755 LP  0  0  0  0  0  0  0  0  0  0  0  0  # atno 17321 bound_to 7965
  140.2912  143.3323  152.1061 LP  0  0  0  0  0  0  0  0  0  0  0  0  # atno 17342 bound_to 10162
  139.5034  144.6754  151.6141 LP  0  0  0  0  0  0  0  0  0  0  0  0  # atno 17343 bound_to 10162
  156.5286  130.4179  149.6213 LP  0  0  0  0  0  0  0  0  0  0  0  0  # atno 17370 bound_to 10713
  156.3089  130.7218  151.2107 LP  0  0  0  0  0  0  0  0  0  0  0  0  # atno 17371 bound_to 10713
  140.6216  134.5356  157.5548 LP  0  0  0  0  0  0  0  0  0  0  0  0  # atno 17394 bound_to 11000
  139.9283  134.8012  156.1003 LP  0  0  0  0  0  0  0  0  0  0  0  0  # atno 17395 bound_to 11000

$$$$
