AV-unprocessed.smi:2895|AV-procd|sdf|11130|dock1
  -GOLD-   2272016 03D 1   1.00000     0.00000
 Structure written by MMmdl.
 53 56  0  0  0  0  0  0  0  0  2 V2000
  149.5730  133.0324  154.6573 O   0  0  0  0  0  0  0  0  0  0  0  0
  148.7361  133.9339  154.5979 C   0  0  0  0  0  0  0  0  0  0  0  0
  148.8184  135.0319  155.3689 N   0  0  0  0  0  0  0  0  0  0  0  0
  149.8704  135.3010  156.3427 C   0  0  0  0  0  0  0  0  0  0  0  0
  151.1917  135.6991  155.6633 C   0  0  0  0  0  0  0  0  0  0  0  0
  151.2264  137.1706  155.2983 C   0  0  0  0  0  0  0  0  0  0  0  0
  150.2376  137.7257  154.4601 C   0  0  0  0  0  0  0  0  0  0  0  0
  150.3101  139.0994  154.1534 C   0  0  0  0  0  0  0  0  0  0  0  0
  151.2813  139.9133  154.6207 N   0  0  0  0  0  0  0  0  0  0  0  0
  152.2255  139.3742  155.4218 C   0  0  0  0  0  0  0  0  0  0  0  0
  152.2437  138.0140  155.7908 C   0  0  0  0  0  0  0  0  0  0  0  0
  147.6749  133.9066  153.7511 N   0  0  0  0  0  0  0  0  0  0  0  0
  146.5680  134.8757  153.7026 C   0  0  0  0  0  0  0  0  0  0  0  0
  145.2538  134.1758  154.1083 C   0  0  0  0  0  0  0  0  0  0  0  0
  144.9648  132.9775  153.2644 N   0  3  0  0  0  0  0  0  0  0  0  0
  144.4165  133.3137  151.9106 C   0  0  2  0  0  0  0  0  0  0  0  0
  143.9342  132.0626  151.1260 C   0  0  0  0  0  0  0  0  0  0  0  0
  144.6480  132.1816  149.7707 C   0  0  1  0  0  0  0  0  0  0  0  0
  144.0888  133.3820  148.9880 C   0  0  0  0  0  0  0  0  0  0  0  0
  144.6757  134.5811  149.7528 C   0  0  0  0  0  0  0  0  0  0  0  0
  145.4462  133.9103  150.9068 C   0  0  2  0  0  0  0  0  0  0  0  0
  146.0168  132.6820  150.2067 C   0  0  0  0  0  0  0  0  0  0  0  0
  146.1404  132.0579  153.2550 C   0  0  0  0  0  0  0  0  0  0  0  0
  147.4373  132.7805  152.8405 C   0  0  0  0  0  0  0  0  0  0  0  0
  148.1050  135.7385  155.2654 H   0  0  0  0  0  0  0  0  0  0  0  0
  149.5438  136.0788  157.0352 H   0  0  0  0  0  0  0  0  0  0  0  0
  150.0178  134.3984  156.9366 H   0  0  0  0  0  0  0  0  0  0  0  0
  152.0327  135.4699  156.3192 H   0  0  0  0  0  0  0  0  0  0  0  0
  151.3432  135.1162  154.7542 H   0  0  0  0  0  0  0  0  0  0  0  0
  149.4393  137.1158  154.0624 H   0  0  0  0  0  0  0  0  0  0  0  0
  149.5677  139.5565  153.5159 H   0  0  0  0  0  0  0  0  0  0  0  0
  152.9895  140.0475  155.7810 H   0  0  0  0  0  0  0  0  0  0  0  0
  153.0210  137.6323  156.4363 H   0  0  0  0  0  0  0  0  0  0  0  0
  146.7135  135.7487  154.3382 H   0  0  0  0  0  0  0  0  0  0  0  0
  146.4919  135.2728  152.6897 H   0  0  0  0  0  0  0  0  0  0  0  0
  145.3378  133.8418  155.1434 H   0  0  0  0  0  0  0  0  0  0  0  0
  144.4362  134.8940  154.1029 H   0  0  0  0  0  0  0  0  0  0  0  0
  143.5884  134.0114  152.0385 H   0  0  0  0  0  0  0  0  0  0  0  0
  144.2531  131.1322  151.5971 H   0  0  0  0  0  0  0  0  0  0  0  0
  142.8488  132.0288  151.0251 H   0  0  0  0  0  0  0  0  0  0  0  0
  144.6578  131.2528  149.1997 H   0  0  0  0  0  0  0  0  0  0  0  0
  144.4414  133.3751  147.9558 H   0  0  0  0  0  0  0  0  0  0  0  0
  142.9982  133.3912  148.9708 H   0  0  0  0  0  0  0  0  0  0  0  0
  145.3561  135.1436  149.1121 H   0  0  0  0  0  0  0  0  0  0  0  0
  143.9074  135.2706  150.1044 H   0  0  0  0  0  0  0  0  0  0  0  0
  146.1997  134.5769  151.3181 H   0  0  0  0  0  0  0  0  0  0  0  0
  146.5360  131.9995  150.8820 H   0  0  0  0  0  0  0  0  0  0  0  0
  146.6736  132.9259  149.3696 H   0  0  0  0  0  0  0  0  0  0  0  0
  146.2647  131.6724  154.2682 H   0  0  0  0  0  0  0  0  0  0  0  0
  145.9841  131.1759  152.6407 H   0  0  0  0  0  0  0  0  0  0  0  0
  147.3625  133.1525  151.8182 H   0  0  0  0  0  0  0  0  0  0  0  0
  148.2598  132.0640  152.8289 H   0  0  0  0  0  0  0  0  0  0  0  0
  144.2209  132.4772  153.7298 H   0  0  0  0  0  0  0  0  0  0  0  0
  1  2  2  0  0  0  0
  2  3  1  0  0  0  0
  2 12  1  0  0  0  0
  3  4  1  0  0  0  0
  3 25  1  0  0  0  0
  4  5  1  0  0  0  0
  4 26  1  0  0  0  0
  4 27  1  0  0  0  0
  5  6  1  0  0  0  0
  5 28  1  0  0  0  0
  5 29  1  0  0  0  0
  6 11  1  0  0  0  0
  6  7  2  0  0  0  0
  7  8  1  0  0  0  0
  7 30  1  0  0  0  0
  8  9  2  0  0  0  0
  8 31  1  0  0  0  0
  9 10  1  0  0  0  0
 10 11  2  0  0  0  0
 10 32  1  0  0  0  0
 11 33  1  0  0  0  0
 12 24  1  0  0  0  0
 12 13  1  0  0  0  0
 13 14  1  0  0  0  0
 13 34  1  0  0  0  0
 13 35  1  0  0  0  0
 14 15  1  0  0  0  0
 14 36  1  0  0  0  0
 14 37  1  0  0  0  0
 15 16  1  0  0  0  0
 15 23  1  0  0  0  0
 15 53  1  0  0  0  0
 16 21  1  0  0  0  0
 16 17  1  0  0  0  0
 16 38  1  0  0  0  0
 17 18  1  0  0  0  0
 17 39  1  0  0  0  0
 17 40  1  0  0  0  0
 18 22  1  0  0  0  0
 18 19  1  0  0  0  0
 18 41  1  0  0  0  0
 19 20  1  0  0  0  0
 19 42  1  0  0  0  0
 19 43  1  0  0  0  0
 20 21  1  0  0  0  0
 20 44  1  0  0  0  0
 20 45  1  0  0  0  0
 21 22  1  0  0  0  0
 21 46  1  0  0  0  0
 22 47  1  0  0  0  0
 22 48  1  0  0  0  0
 23 24  1  0  0  0  0
 23 49  1  0  0  0  0
 23 50  1  0  0  0  0
 24 51  1  0  0  0  0
 24 52  1  0  0  0  0
M  CHG  1  15   1
M  END
> <s_m_source_file>
AV-unprocessed.smi

> <i_m_source_file_index>
2895

> <i_lp_mmshare_version>
43012

> <i_f3d_flags>
0

> <s_epik_input>
W0NIMl0xW0NIMl1bQ0BASF0oW0NIMl0yKVtDQEBIXShbQ0gyXVtDQEhdMTIpTihbQ0gyXVtDSDJdMylbQ0gyXVtDSDJdTjNDKD1PKVtOSF1bQ0gyXVtDSDJdYzRbY0hdW2NIXW5bY0hdW2NIXTQ=

> <s_epik_cmdline>
J2VwaWtfcHl0aG9uJywgJy1waCcsICc3LjAnLCAnLXRuJywgJzgnLCAnLW1hJywgJzIwMCcsICctbWV0YWxfYmluZGluZycsICctaW1hZScsICc8aW5maWxlLm1hZT4nLCAnLW9tYWUnLCAnPG91dGZpbGUubWFlPic=

> <r_epik_Ionization_Penalty>
0.0566172

> <r_epik_Ionization_Penalty_Charging>
0.00262064

> <r_epik_Ionization_Penalty_Neutral>
0.0539965

> <r_epik_State_Penalty>
0.0463959

> <r_epik_Charging_Adjusted_Penalty>
0.0490165

> <i_epik_Tot_Q>
1

> <i_epik_Tot_abs_Q>
1

> <r_epik_Metal_State_Penalty>
0.0424856

> <b_epik_Metal_Only>
0

> <s_lp_Force_Field>
OPLS_2005

> <r_lp_Energy>
100.404

> <b_lp_Chiralities_Consistent>
1

> <s_lp_Variant>
AV-unprocessed.smi:2895-3

> <Gold.Version>
5.8.1

> <Gold.Id.Protein>
6NUR|6NUR_protein|mol2

> <Gold.PLP.Fitness>
48.6528

> <Gold.PLP.PLP>
-37.3712

> <Gold.PLP.part.hbond>
-2.0000

> <Gold.PLP.part.metal>
0.0000

> <Gold.PLP.part.buried>
1.8936

> <Gold.PLP.part.nonpolar>
-37.6679

> <Gold.PLP.part.repulsive>
0.1294

> <Gold.PLP.ligand.clash>
0.3074

> <Gold.PLP.ligand.torsion>
0.2846

> <Gold.PLP.Chemscore.Hbond>
3.0000

> <Gold.PLP.Chemscore.CHOScore>
1.0000

> <Gold.PLP.Chemscore.Metal>
0.0000

> <Gold.Chemscore.Hbonds>
donor molecule, donor type, donor heavy atom, donor atom, acceptor molecule, acceptor atom, score
      L1  H    15    53       P1 10957  2.00
      P1  H  7989  7998       L1     9  0.96
      L1  C     8    31       P1  7957  1.00

> <Gold.PLP.Chemscore.Internal.Correction>
0.1582

> <Gold.Rescore>
     Score         DG    S(hbond)    S(metal)    S(lipo)     H(rot)  DE(clash)    DE(int)     intcor
     17.13     -20.05       1.68        0.00     106.54       1.37       0.51       2.41       ----

> <Gold.Chemscore.Fitness>
17.1300

> <Gold.Chemscore.DG>
-20.0486

> <Gold.Chemscore.ZeroCoef>
-5.4800

> <Gold.Chemscore.Hbond>
1.6821

> <Gold.Chemscore.Metal>
0.0000

> <Gold.Chemscore.Lipo>
106.5419

> <Gold.Chemscore.Internal_Hbond>
0.0000

> <Gold.Chemscore.DEClash>
0.5057

> <Gold.Chemscore.DEInternal>
2.4129

> <Gold.Chemscore.Rot>
1.3731

> <Gold.Chemscore.Internal.Correction>
   9.000000E+99

> <Gold.Chemscore.Hbonds>
donor molecule, donor type, donor heavy atom, donor atom, acceptor molecule, acceptor atom, score
      L1  H    15    53       P1 10957  0.38
      P1  H  7989  7998       L1     9  0.54

> <Gold.Chemscore.Hbond.Weighted>
-5.6183

> <Gold.Chemscore.Metal.Weighted>
-0.0000

> <Gold.Chemscore.Lipo.Weighted>
-12.4654

> <Gold.Chemscore.Internal_Hbond.Weighted>
0.0000

> <Gold.Chemscore.DEClash.Weighted>
0.5057

> <Gold.Chemscore.DEInternal.Weighted>
2.4129

> <Gold.Chemscore.Rot.Weighted>
3.5152

> <Gold.Chemscore.Internal.Correction.Weighted>
   9.000000E+99

> <Gold.Protein.RotatedTorsions>
[ 6907 6896 6895 6894 ] final  -16.29 input  -60.11 | X-H torsion
[ 7974 7965 7964 7962 ] final  149.76 input  175.53 | X-H torsion
[ 8008 7997 7996 7995 ] final  122.23 input   59.86 | X-H torsion
[ 10167 10162 10161 10158 ] final   41.21 input  -65.29 | X-H torsion
[ 10718 10713 10712 10709 ] final  -99.53 input   66.30 | X-H torsion
[ 10763 10752 10751 10750 ] final  -97.00 input  -60.55 | X-H torsion
[ 11005 11000 10999 10996 ] final -143.43 input  -57.11 | X-H torsion

> <Gold.Protein.ActiveResidues>
 VAL166  LYS551  ARG553  GLY616  TRP617  ASP618  TYR619  PRO620  LYS621  CYS622 
 ASP623  PHE694  ASN695  SER759  ASP760  ASP761  ALA762  ILE779  LEU786  VAL792 
 PHE793  MET794  SER795  GLU796  ALA797  LYS798  CYS799  TRP800  GLU811  SER814 

> <Gold.Protein.RotatedAtoms>
  151.3108  135.0793  159.9271 H   0  0  0  0  0  0  0  0  0  0  0  0  # atno 6907 bound_to 6896
  152.5278  133.9738  159.7784 H   0  0  0  0  0  0  0  0  0  0  0  0  # atno 6908 bound_to 6896
  151.0041  133.5976  159.2721 H   0  0  0  0  0  0  0  0  0  0  0  0  # atno 6909 bound_to 6896
  144.8414  139.6322  143.6015 H   0  0  0  0  0  0  0  0  0  0  0  0  # atno 7974 bound_to 7965
  156.2719  140.2790  156.1435 H   0  0  0  0  0  0  0  0  0  0  0  0  # atno 8008 bound_to 7997
  155.0929  140.0389  157.2691 H   0  0  0  0  0  0  0  0  0  0  0  0  # atno 8009 bound_to 7997
  154.6875  140.2622  155.6851 H   0  0  0  0  0  0  0  0  0  0  0  0  # atno 8010 bound_to 7997
  140.3666  144.2160  150.6135 H   0  0  0  0  0  0  0  0  0  0  0  0  # atno 10167 bound_to 10162
  156.0137  130.5287  150.6684 H   0  0  0  0  0  0  0  0  0  0  0  0  # atno 10718 bound_to 10713
  154.7290  135.5062  153.8932 H   0  0  0  0  0  0  0  0  0  0  0  0  # atno 10763 bound_to 10752
  153.0931  135.6665  153.9823 H   0  0  0  0  0  0  0  0  0  0  0  0  # atno 10764 bound_to 10752
  153.9629  135.3046  155.3411 H   0  0  0  0  0  0  0  0  0  0  0  0  # atno 10765 bound_to 10752
  140.8126  134.2726  157.4934 H   0  0  0  0  0  0  0  0  0  0  0  0  # atno 11005 bound_to 11000
  146.2706  139.6625  142.9299 LP  0  0  0  0  0  0  0  0  0  0  0  0  # atno 17320 bound_to 7965
  145.4686  141.0435  143.2711 LP  0  0  0  0  0  0  0  0  0  0  0  0  # atno 17321 bound_to 7965
  140.5075  143.2300  151.8586 LP  0  0  0  0  0  0  0  0  0  0  0  0  # atno 17342 bound_to 10162
  139.4808  144.4989  151.9087 LP  0  0  0  0  0  0  0  0  0  0  0  0  # atno 17343 bound_to 10162
  157.4412  131.0861  151.0942 LP  0  0  0  0  0  0  0  0  0  0  0  0  # atno 17370 bound_to 10713
  157.1485  130.6174  149.5575 LP  0  0  0  0  0  0  0  0  0  0  0  0  # atno 17371 bound_to 10713
  139.8713  134.9491  156.4017 LP  0  0  0  0  0  0  0  0  0  0  0  0  # atno 17394 bound_to 11000
  140.9182  133.7664  155.9874 LP  0  0  0  0  0  0  0  0  0  0  0  0  # atno 17395 bound_to 11000

$$$$
