AV-unprocessed.smi:2104|AV-procd|sdf|8585|dock2
  -GOLD-   2272011313D 1   1.00000     0.00000
 Structure written by MMmdl.
 43 44  0  0  0  0  0  0  0  0  1 V2000
  144.1705  132.2712  149.4438 C   0  0  0  0  0  0  0  0  0  0  0  0
  145.0209  132.6629  150.6031 C   0  0  0  0  0  0  0  0  0  0  0  0
  146.0107  133.5915  150.7572 C   0  0  0  0  0  0  0  0  0  0  0  0
  146.3910  133.4294  152.1213 C   0  0  0  0  0  0  0  0  0  0  0  0
  147.3788  134.1819  152.8068 N   0  0  0  0  0  0  0  0  0  0  0  0
  147.7062  134.1175  154.1077 C   0  0  0  0  0  0  0  0  0  0  0  0
  147.0753  133.5016  154.9668 O   0  0  0  0  0  0  0  0  0  0  0  0
  148.8262  134.8096  154.3650 N   0  0  0  0  0  0  0  0  0  0  0  0
  149.5220  134.8224  155.6485 C   0  0  0  0  0  0  0  0  0  0  0  0
  150.6817  135.8307  155.6389 C   0  0  0  0  0  0  0  0  0  0  0  0
  150.1506  137.1299  155.4279 O   0  0  0  0  0  0  0  0  0  0  0  0
  150.7446  137.8789  154.3756 C   0  0  2  0  0  0  0  0  0  0  0  0
  152.2438  138.1254  154.6570 C   0  0  0  0  0  0  0  0  0  0  0  0
  152.4545  138.9772  155.9201 C   0  0  0  0  0  0  0  0  0  0  0  0
  151.6879  140.3052  155.8323 C   0  0  0  0  0  0  0  0  0  0  0  0
  150.1964  140.0752  155.5403 C   0  0  0  0  0  0  0  0  0  0  0  0
  149.9905  139.2236  154.2697 C   0  0  2  0  0  0  0  0  0  0  0  0
  148.5003  139.0266  153.9504 C   0  0  0  0  0  0  0  0  0  0  0  0
  145.6837  132.5024  152.7406 N   0  0  0  0  0  0  0  0  0  0  0  0
  144.8073  131.9996  151.7715 O   0  0  0  0  0  0  0  0  0  0  0  0
  144.5573  132.6952  148.5170 H   0  0  0  0  0  0  0  0  0  0  0  0
  143.1488  132.6263  149.5780 H   0  0  0  0  0  0  0  0  0  0  0  0
  144.1417  131.1871  149.3325 H   0  0  0  0  0  0  0  0  0  0  0  0
  146.3862  134.2722  150.0078 H   0  0  0  0  0  0  0  0  0  0  0  0
  147.9325  134.7977  152.2301 H   0  0  0  0  0  0  0  0  0  0  0  0
  149.2694  135.3004  153.6022 H   0  0  0  0  0  0  0  0  0  0  0  0
  148.8016  135.1032  156.4169 H   0  0  0  0  0  0  0  0  0  0  0  0
  149.8802  133.8252  155.9093 H   0  0  0  0  0  0  0  0  0  0  0  0
  151.2312  135.7664  156.5776 H   0  0  0  0  0  0  0  0  0  0  0  0
  151.3807  135.5923  154.8363 H   0  0  0  0  0  0  0  0  0  0  0  0
  150.6313  137.3368  153.4350 H   0  0  0  0  0  0  0  0  0  0  0  0
  152.7878  137.1865  154.7489 H   0  0  0  0  0  0  0  0  0  0  0  0
  152.6859  138.6399  153.8031 H   0  0  0  0  0  0  0  0  0  0  0  0
  152.1240  138.4215  156.7976 H   0  0  0  0  0  0  0  0  0  0  0  0
  153.5174  139.1724  156.0637 H   0  0  0  0  0  0  0  0  0  0  0  0
  151.8025  140.8615  156.7632 H   0  0  0  0  0  0  0  0  0  0  0  0
  152.1214  140.9245  155.0462 H   0  0  0  0  0  0  0  0  0  0  0  0
  149.7299  139.5860  156.3965 H   0  0  0  0  0  0  0  0  0  0  0  0
  149.6962  141.0376  155.4292 H   0  0  0  0  0  0  0  0  0  0  0  0
  150.4221  139.7749  153.4330 H   0  0  0  0  0  0  0  0  0  0  0  0
  147.9859  138.4977  154.7533 H   0  0  0  0  0  0  0  0  0  0  0  0
  148.3685  138.4509  153.0340 H   0  0  0  0  0  0  0  0  0  0  0  0
  147.9997  139.9853  153.8122 H   0  0  0  0  0  0  0  0  0  0  0  0
  1  2  1  0  0  0  0
  1 21  1  0  0  0  0
  1 22  1  0  0  0  0
  1 23  1  0  0  0  0
  2 20  1  0  0  0  0
  2  3  2  0  0  0  0
  3  4  1  0  0  0  0
  3 24  1  0  0  0  0
  4  5  1  0  0  0  0
  4 19  2  0  0  0  0
  5  6  1  0  0  0  0
  5 25  1  0  0  0  0
  6  7  2  0  0  0  0
  6  8  1  0  0  0  0
  8  9  1  0  0  0  0
  8 26  1  0  0  0  0
  9 10  1  0  0  0  0
  9 27  1  0  0  0  0
  9 28  1  0  0  0  0
 10 11  1  0  0  0  0
 10 29  1  0  0  0  0
 10 30  1  0  0  0  0
 11 12  1  0  0  0  0
 12 17  1  0  0  0  0
 12 13  1  0  0  0  0
 12 31  1  0  0  0  0
 13 14  1  0  0  0  0
 13 32  1  0  0  0  0
 13 33  1  0  0  0  0
 14 15  1  0  0  0  0
 14 34  1  0  0  0  0
 14 35  1  0  0  0  0
 15 16  1  0  0  0  0
 15 36  1  0  0  0  0
 15 37  1  0  0  0  0
 16 17  1  0  0  0  0
 16 38  1  0  0  0  0
 16 39  1  0  0  0  0
 17 18  1  0  0  0  0
 17 40  1  0  0  0  0
 18 41  1  0  0  0  0
 18 42  1  0  0  0  0
 18 43  1  0  0  0  0
 19 20  1  0  0  0  0
M  END
> <s_m_source_file>
AV-unprocessed.smi

> <i_m_source_file_index>
2104

> <i_lp_mmshare_version>
43012

> <i_f3d_flags>
0

> <s_epik_input>
W0NIM11jMVtjSF1jKG5vMSlbTkhdQyg9TylbTkhdW0NIMl1bQ0gyXU9bQ0BASF0yW0NIMl1bQ0gyXVtDSDJdW0NIMl1bQ0BIXTJbQ0gzXQ==

> <s_epik_cmdline>
J2VwaWtfcHl0aG9uJywgJy1waCcsICc3LjAnLCAnLXRuJywgJzgnLCAnLW1hJywgJzIwMCcsICctbWV0YWxfYmluZGluZycsICctaW1hZScsICc8aW5maWxlLm1hZT4nLCAnLW9tYWUnLCAnPG91dGZpbGUubWFlPic=

> <r_lp_tautomer_probability>
1

> <r_epik_Ionization_Penalty>
2.94418e-05

> <r_epik_Ionization_Penalty_Charging>
0

> <r_epik_Ionization_Penalty_Neutral>
2.94418e-05

> <r_epik_State_Penalty>
-0

> <r_epik_Charging_Adjusted_Penalty>
0

> <i_epik_Tot_Q>
0

> <i_epik_Tot_abs_Q>
0

> <r_epik_Metal_State_Penalty>
0.0104148

> <b_epik_Metal_Only>
0

> <s_lp_Force_Field>
OPLS_2005

> <r_lp_Energy>
9.69009

> <b_lp_Chiralities_Consistent>
1

> <s_lp_Variant>
AV-unprocessed.smi:2104-3

> <Gold.Version>
5.8.1

> <Gold.Id.Protein>
6NUR|6NUR_protein|mol2

> <Gold.PLP.Fitness>
40.2364

> <Gold.PLP.PLP>
-35.0716

> <Gold.PLP.part.hbond>
-2.0000

> <Gold.PLP.part.metal>
0.0000

> <Gold.PLP.part.buried>
-5.1507

> <Gold.PLP.part.nonpolar>
-29.5777

> <Gold.PLP.part.repulsive>
0.4004

> <Gold.PLP.ligand.clash>
0.0000

> <Gold.PLP.ligand.torsion>
0.3820

> <Gold.PLP.Chemscore.Hbond>
1.9600

> <Gold.PLP.Chemscore.CHOScore>
0.0000

> <Gold.PLP.Chemscore.Metal>
0.0000

> <Gold.Chemscore.Hbonds>
donor molecule, donor type, donor heavy atom, donor atom, acceptor molecule, acceptor atom, score
      L1  H     5    25       P1  7948  1.00
      L1  H     8    26       P1  7948  0.91

> <Gold.PLP.Chemscore.Internal.Correction>
0.0488

> <Gold.Rescore>
     Score         DG    S(hbond)    S(metal)    S(lipo)     H(rot)  DE(clash)    DE(int)     intcor
     15.11     -16.88       1.71        0.00      86.94       1.75       0.02       1.75       ----

> <Gold.Chemscore.Fitness>
15.1110

> <Gold.Chemscore.DG>
-16.8753

> <Gold.Chemscore.ZeroCoef>
-5.4800

> <Gold.Chemscore.Hbond>
1.7095

> <Gold.Chemscore.Metal>
0.0000

> <Gold.Chemscore.Lipo>
86.9376

> <Gold.Chemscore.Internal_Hbond>
0.0000

> <Gold.Chemscore.DEClash>
0.0189

> <Gold.Chemscore.DEInternal>
1.7454

> <Gold.Chemscore.Rot>
1.7524

> <Gold.Chemscore.Internal.Correction>
   9.000000E+99

> <Gold.Chemscore.Hbonds>
donor molecule, donor type, donor heavy atom, donor atom, acceptor molecule, acceptor atom, score
      L1  H     5    25       P1  7948  0.60
      L1  H     8    26       P1  7948  0.26

> <Gold.Chemscore.Hbond.Weighted>
-5.7097

> <Gold.Chemscore.Metal.Weighted>
-0.0000

> <Gold.Chemscore.Lipo.Weighted>
-10.1717

> <Gold.Chemscore.Internal_Hbond.Weighted>
0.0000

> <Gold.Chemscore.DEClash.Weighted>
0.0189

> <Gold.Chemscore.DEInternal.Weighted>
1.7454

> <Gold.Chemscore.Rot.Weighted>
4.4861

> <Gold.Chemscore.Internal.Correction.Weighted>
   9.000000E+99

> <Gold.Protein.RotatedTorsions>
[ 6907 6896 6895 6894 ] final   74.27 input  -60.11 | X-H torsion
[ 7974 7965 7964 7962 ] final   14.87 input  175.53 | X-H torsion
[ 8008 7997 7996 7995 ] final  132.09 input   59.86 | X-H torsion
[ 10167 10162 10161 10158 ] final   26.01 input  -65.29 | X-H torsion
[ 10718 10713 10712 10709 ] final   80.05 input   66.30 | X-H torsion
[ 10763 10752 10751 10750 ] final  160.32 input  -60.55 | X-H torsion
[ 11005 11000 10999 10996 ] final -144.87 input  -57.11 | X-H torsion

> <Gold.Protein.ActiveResidues>
 VAL166  LYS551  ARG553  GLY616  TRP617  ASP618  TYR619  PRO620  LYS621  CYS622 
 ASP623  PHE694  ASN695  SER759  ASP760  ASP761  ALA762  ILE779  LEU786  VAL792 
 PHE793  MET794  SER795  GLU796  ALA797  LYS798  CYS799  TRP800  GLU811  SER814 

> <Gold.Protein.RotatedAtoms>
  152.4967  134.4297  159.9507 H   0  0  0  0  0  0  0  0  0  0  0  0  # atno 6907 bound_to 6896
  151.4274  133.3674  159.2772 H   0  0  0  0  0  0  0  0  0  0  0  0  # atno 6908 bound_to 6896
  150.9179  134.8619  159.7529 H   0  0  0  0  0  0  0  0  0  0  0  0  # atno 6909 bound_to 6896
  146.2293  139.8977  142.8544 H   0  0  0  0  0  0  0  0  0  0  0  0  # atno 7974 bound_to 7965
  156.2978  140.2555  156.3032 H   0  0  0  0  0  0  0  0  0  0  0  0  # atno 8008 bound_to 7997
  154.9397  140.0396  157.2109 H   0  0  0  0  0  0  0  0  0  0  0  0  # atno 8009 bound_to 7997
  154.8138  140.2849  155.5839 H   0  0  0  0  0  0  0  0  0  0  0  0  # atno 8010 bound_to 7997
  140.5058  144.0241  150.6351 H   0  0  0  0  0  0  0  0  0  0  0  0  # atno 10167 bound_to 10162
  157.6795  130.9942  150.2022 H   0  0  0  0  0  0  0  0  0  0  0  0  # atno 10718 bound_to 10713
  154.2455  135.2773  155.2837 H   0  0  0  0  0  0  0  0  0  0  0  0  # atno 10763 bound_to 10752
  154.5509  135.5675  153.6924 H   0  0  0  0  0  0  0  0  0  0  0  0  # atno 10764 bound_to 10752
  152.9991  135.6274  154.2601 H   0  0  0  0  0  0  0  0  0  0  0  0  # atno 10765 bound_to 10752
  140.7980  134.2890  157.4989 H   0  0  0  0  0  0  0  0  0  0  0  0  # atno 11005 bound_to 11000
  145.2354  140.9989  143.3966 LP  0  0  0  0  0  0  0  0  0  0  0  0  # atno 17320 bound_to 7965
  144.9495  139.4098  143.6409 LP  0  0  0  0  0  0  0  0  0  0  0  0  # atno 17321 bound_to 7965
  140.3549  143.2941  152.0446 LP  0  0  0  0  0  0  0  0  0  0  0  0  # atno 17342 bound_to 10162
  139.4883  144.6346  151.7001 LP  0  0  0  0  0  0  0  0  0  0  0  0  # atno 17343 bound_to 10162
  156.2710  130.3722  149.8031 LP  0  0  0  0  0  0  0  0  0  0  0  0  # atno 17370 bound_to 10713
  156.5748  130.8440  151.3366 LP  0  0  0  0  0  0  0  0  0  0  0  0  # atno 17371 bound_to 10713
  139.8724  134.9413  156.3794 LP  0  0  0  0  0  0  0  0  0  0  0  0  # atno 17394 bound_to 11000
  140.9323  133.7571  156.0040 LP  0  0  0  0  0  0  0  0  0  0  0  0  # atno 17395 bound_to 11000

$$$$
