AV-unprocessed.smi:809|AV-procd|sdf|3806|dock7
  -GOLD-   22720 1243D 1   1.00000     0.00000
 Structure written by MMmdl.
 40 41  0  0  0  0  0  0  0  0  2 V2000
  153.2882  141.8340  160.9700 C   0  0  0  0  0  0  0  0  0  0  0  0
  152.5828  142.7646  160.0345 C   0  0  0  0  0  0  0  0  0  0  0  0
  152.6967  144.1327  159.9866 C   0  0  0  0  0  0  0  0  0  0  0  0
  151.6961  144.8289  158.7400 S   0  0  0  0  0  0  0  0  0  0  0  0
  151.1523  143.2104  158.3273 C   0  0  0  0  0  0  0  0  0  0  0  0
  150.2221  142.9733  157.2815 N   0  0  0  0  0  0  0  0  0  0  0  0
  149.5775  141.8304  156.9889 C   0  0  0  0  0  0  0  0  0  0  0  0
  149.6826  140.7750  157.6146 O   0  0  0  0  0  0  0  0  0  0  0  0
  148.7972  141.9757  155.9081 N   0  0  0  0  0  0  0  0  0  0  0  0
  147.9677  140.9330  155.3064 C   0  0  0  0  0  0  0  0  0  0  0  0
  148.6741  140.1916  154.1400 C   0  0  1  0  0  0  0  0  0  0  0  0
  149.1753  141.1930  153.2747 O   0  0  0  0  0  0  0  0  0  0  0  0
  149.8480  139.2749  154.5570 C   0  0  0  0  0  0  0  0  0  0  0  0
  149.3597  138.0056  155.2773 C   0  0  0  0  0  0  0  0  0  0  0  0
  148.4031  137.2500  154.4320 N   0  3  1  0  0  0  0  0  0  0  0  0
  148.0057  135.9641  155.0444 C   0  0  0  0  0  0  0  0  0  0  0  0
  147.2326  138.0730  154.0387 C   0  0  0  0  0  0  0  0  0  0  0  0
  147.6731  139.3578  153.3106 C   0  0  0  0  0  0  0  0  0  0  0  0
  151.6983  142.2501  159.0823 N   0  0  0  0  0  0  0  0  0  0  0  0
  154.0491  142.3546  161.5518 H   0  0  0  0  0  0  0  0  0  0  0  0
  153.7835  141.0289  160.4268 H   0  0  0  0  0  0  0  0  0  0  0  0
  152.5896  141.3790  161.6723 H   0  0  0  0  0  0  0  0  0  0  0  0
  153.3077  144.7713  160.6072 H   0  0  0  0  0  0  0  0  0  0  0  0
  150.0326  143.7633  156.6823 H   0  0  0  0  0  0  0  0  0  0  0  0
  148.7751  142.8796  155.4583 H   0  0  0  0  0  0  0  0  0  0  0  0
  147.6524  140.2259  156.0736 H   0  0  0  0  0  0  0  0  0  0  0  0
  147.0472  141.3983  154.9508 H   0  0  0  0  0  0  0  0  0  0  0  0
  149.0724  140.9032  152.3813 H   0  0  0  0  0  0  0  0  0  0  0  0
  150.4026  138.9710  153.6677 H   0  0  0  0  0  0  0  0  0  0  0  0
  150.5672  139.8075  155.1793 H   0  0  0  0  0  0  0  0  0  0  0  0
  150.2163  137.3722  155.5111 H   0  0  0  0  0  0  0  0  0  0  0  0
  148.8870  138.2572  156.2265 H   0  0  0  0  0  0  0  0  0  0  0  0
  147.4602  136.1253  155.9753 H   0  0  0  0  0  0  0  0  0  0  0  0
  148.8825  135.3535  155.2629 H   0  0  0  0  0  0  0  0  0  0  0  0
  147.3665  135.3966  154.3671 H   0  0  0  0  0  0  0  0  0  0  0  0
  146.5871  137.4901  153.3804 H   0  0  0  0  0  0  0  0  0  0  0  0
  146.6388  138.3124  154.9214 H   0  0  0  0  0  0  0  0  0  0  0  0
  146.7983  139.9574  153.0550 H   0  0  0  0  0  0  0  0  0  0  0  0
  148.1309  139.0730  152.3618 H   0  0  0  0  0  0  0  0  0  0  0  0
  148.8934  137.0207  153.5793 H   0  0  0  0  0  0  0  0  0  0  0  0
  1  2  1  0  0  0  0
  1 20  1  0  0  0  0
  1 21  1  0  0  0  0
  1 22  1  0  0  0  0
  2 19  1  0  0  0  0
  2  3  2  0  0  0  0
  3  4  1  0  0  0  0
  3 23  1  0  0  0  0
  4  5  1  0  0  0  0
  5  6  1  0  0  0  0
  5 19  2  0  0  0  0
  6  7  1  0  0  0  0
  6 24  1  0  0  0  0
  7  8  2  0  0  0  0
  7  9  1  0  0  0  0
  9 10  1  0  0  0  0
  9 25  1  0  0  0  0
 10 11  1  0  0  0  0
 10 26  1  0  0  0  0
 10 27  1  0  0  0  0
 11 18  1  0  0  0  0
 11 12  1  0  0  0  0
 11 13  1  0  0  0  0
 12 28  1  0  0  0  0
 13 14  1  0  0  0  0
 13 29  1  0  0  0  0
 13 30  1  0  0  0  0
 14 15  1  0  0  0  0
 14 31  1  0  0  0  0
 14 32  1  0  0  0  0
 15 16  1  0  0  0  0
 15 17  1  0  0  0  0
 15 40  1  0  0  0  0
 16 33  1  0  0  0  0
 16 34  1  0  0  0  0
 16 35  1  0  0  0  0
 17 18  1  0  0  0  0
 17 36  1  0  0  0  0
 17 37  1  0  0  0  0
 18 38  1  0  0  0  0
 18 39  1  0  0  0  0
M  CHG  1  15   1
M  END
> <s_m_source_file>
AV-unprocessed.smi

> <i_m_source_file_index>
809

> <i_lp_mmshare_version>
43012

> <i_f3d_flags>
0

> <s_epik_input>
W0NIM11jMVtjSF1zYyhuMSlbTkhdQyg9TylbTkhdW0NIMl1DMihbT0hdKVtDSDJdW0NIMl1OKFtDSDNdKVtDSDJdW0NIMl0y

> <s_epik_cmdline>
J2VwaWtfcHl0aG9uJywgJy1waCcsICc3LjAnLCAnLXRuJywgJzgnLCAnLW1hJywgJzIwMCcsICctbWV0YWxfYmluZGluZycsICctaW1hZScsICc8aW5maWxlLm1hZT4nLCAnLW9tYWUnLCAnPG91dGZpbGUubWFlPic=

> <r_lp_tautomer_probability>
0.999

> <r_epik_Ionization_Penalty>
0.00116503

> <r_epik_Ionization_Penalty_Charging>
0.000767707

> <r_epik_Ionization_Penalty_Neutral>
0.00039732

> <r_epik_State_Penalty>
0.000177984

> <r_epik_Charging_Adjusted_Penalty>
0.00094569

> <i_epik_Tot_Q>
1

> <i_epik_Tot_abs_Q>
1

> <r_epik_Metal_State_Penalty>
0.00775393

> <b_epik_Metal_Only>
0

> <s_lp_Force_Field>
OPLS_2005

> <r_lp_Energy>
16.2661

> <b_lp_Chiralities_Consistent>
1

> <s_lp_Variant>
AV-unprocessed.smi:809-2

> <Gold.Version>
5.8.1

> <Gold.Id.Protein>
6NUR|6NUR_protein|mol2

> <Gold.PLP.Fitness>
49.2913

> <Gold.PLP.PLP>
-34.8607

> <Gold.PLP.part.hbond>
-5.6715

> <Gold.PLP.part.metal>
0.0000

> <Gold.PLP.part.buried>
-2.8770

> <Gold.PLP.part.nonpolar>
-26.2874

> <Gold.PLP.part.repulsive>
0.1075

> <Gold.PLP.ligand.clash>
0.0000

> <Gold.PLP.ligand.torsion>
0.3015

> <Gold.PLP.Chemscore.Hbond>
5.0089

> <Gold.PLP.Chemscore.CHOScore>
0.0000

> <Gold.PLP.Chemscore.Metal>
0.0000

> <Gold.Chemscore.Hbonds>
donor molecule, donor type, donor heavy atom, donor atom, acceptor molecule, acceptor atom, score
      L1  H     6    24       P1  8028  1.00
      L1  H     9    25       P1  8028  0.96
      L1  H    12    28       P1  7957  0.99
      L1  H    15    40       P1  7948  2.00

> <Gold.PLP.Chemscore.Internal.Correction>
0.0068

> <Gold.Rescore>
     Score         DG    S(hbond)    S(metal)    S(lipo)     H(rot)  DE(clash)    DE(int)     intcor
     21.22     -22.94       3.87        0.00      79.26       1.85       0.15       1.57       ----

> <Gold.Chemscore.Fitness>
21.2166

> <Gold.Chemscore.DG>
-22.9393

> <Gold.Chemscore.ZeroCoef>
-5.4800

> <Gold.Chemscore.Hbond>
3.8667

> <Gold.Chemscore.Metal>
0.0000

> <Gold.Chemscore.Lipo>
79.2577

> <Gold.Chemscore.Internal_Hbond>
0.0000

> <Gold.Chemscore.DEClash>
0.1494

> <Gold.Chemscore.DEInternal>
1.5733

> <Gold.Chemscore.Rot>
1.8471

> <Gold.Chemscore.Internal.Correction>
   9.000000E+99

> <Gold.Chemscore.Hbonds>
donor molecule, donor type, donor heavy atom, donor atom, acceptor molecule, acceptor atom, score
      L1  H     6    24       P1  8028  0.95
      L1  H     9    25       P1  8028  0.92
      L1  H    12    28       P1  7957  0.92
      L1  H    15    40       P1  7948  0.96

> <Gold.Chemscore.Hbond.Weighted>
-12.9148

> <Gold.Chemscore.Metal.Weighted>
-0.0000

> <Gold.Chemscore.Lipo.Weighted>
-9.2732

> <Gold.Chemscore.Internal_Hbond.Weighted>
0.0000

> <Gold.Chemscore.DEClash.Weighted>
0.1494

> <Gold.Chemscore.DEInternal.Weighted>
1.5733

> <Gold.Chemscore.Rot.Weighted>
4.7286

> <Gold.Chemscore.Internal.Correction.Weighted>
   9.000000E+99

> <Gold.Protein.RotatedTorsions>
[ 6907 6896 6895 6894 ] final -147.26 input  -60.11 | X-H torsion
[ 7974 7965 7964 7962 ] final  139.05 input  175.53 | X-H torsion
[ 8008 7997 7996 7995 ] final   69.20 input   59.86 | X-H torsion
[ 10167 10162 10161 10158 ] final   23.68 input  -65.29 | X-H torsion
[ 10718 10713 10712 10709 ] final  107.15 input   66.30 | X-H torsion
[ 10763 10752 10751 10750 ] final   71.96 input  -60.55 | X-H torsion
[ 11005 11000 10999 10996 ] final  115.45 input  -57.11 | X-H torsion

> <Gold.Protein.ActiveResidues>
 VAL166  LYS551  ARG553  GLY616  TRP617  ASP618  TYR619  PRO620  LYS621  CYS622 
 ASP623  PHE694  ASN695  SER759  ASP760  ASP761  ALA762  ILE779  LEU786  VAL792 
 PHE793  MET794  SER795  GLU796  ALA797  LYS798  CYS799  TRP800  GLU811  SER814 

> <Gold.Protein.RotatedAtoms>
  151.1532  133.4894  159.2594 H   0  0  0  0  0  0  0  0  0  0  0  0  # atno 6907 bound_to 6896
  151.1532  135.0237  159.8687 H   0  0  0  0  0  0  0  0  0  0  0  0  # atno 6908 bound_to 6896
  152.5463  134.1413  159.8533 H   0  0  0  0  0  0  0  0  0  0  0  0  # atno 6909 bound_to 6896
  144.9315  139.5041  143.5615 H   0  0  0  0  0  0  0  0  0  0  0  0  # atno 7974 bound_to 7965
  155.7200  140.3493  155.5012 H   0  0  0  0  0  0  0  0  0  0  0  0  # atno 8008 bound_to 7997
  155.9278  140.1079  157.1178 H   0  0  0  0  0  0  0  0  0  0  0  0  # atno 8009 bound_to 7997
  154.4080  140.1237  156.4750 H   0  0  0  0  0  0  0  0  0  0  0  0  # atno 8010 bound_to 7997
  140.5250  143.9939  150.6435 H   0  0  0  0  0  0  0  0  0  0  0  0  # atno 10167 bound_to 10162
  157.6640  131.0866  150.6113 H   0  0  0  0  0  0  0  0  0  0  0  0  # atno 10718 bound_to 10713
  153.0430  135.5117  154.7672 H   0  0  0  0  0  0  0  0  0  0  0  0  # atno 10763 bound_to 10752
  154.6594  135.2936  154.9888 H   0  0  0  0  0  0  0  0  0  0  0  0  # atno 10764 bound_to 10752
  154.0744  135.6673  153.4881 H   0  0  0  0  0  0  0  0  0  0  0  0  # atno 10765 bound_to 10752
  139.9010  134.9584  156.7048 H   0  0  0  0  0  0  0  0  0  0  0  0  # atno 11005 bound_to 11000
  146.3249  139.8269  142.8916 LP  0  0  0  0  0  0  0  0  0  0  0  0  # atno 17320 bound_to 7965
  145.3134  141.0226  143.3541 LP  0  0  0  0  0  0  0  0  0  0  0  0  # atno 17321 bound_to 7965
  140.3298  143.3084  152.0699 LP  0  0  0  0  0  0  0  0  0  0  0  0  # atno 17342 bound_to 10162
  139.4935  144.6517  151.6662 LP  0  0  0  0  0  0  0  0  0  0  0  0  # atno 17343 bound_to 10162
  156.6414  130.4459  149.5751 LP  0  0  0  0  0  0  0  0  0  0  0  0  # atno 17370 bound_to 10713
  156.2206  130.6735  151.1364 LP  0  0  0  0  0  0  0  0  0  0  0  0  # atno 17371 bound_to 10713
  140.7122  133.9213  155.8092 LP  0  0  0  0  0  0  0  0  0  0  0  0  # atno 17394 bound_to 11000
  141.0291  134.0781  157.4034 LP  0  0  0  0  0  0  0  0  0  0  0  0  # atno 17395 bound_to 11000

$$$$
