AV-unprocessed.smi:1930|AV-procd|sdf|7809|dock3
  -GOLD-   22720 9553D 1   1.00000     0.00000
 Structure written by MMmdl.
 41 42  0  0  0  0  0  0  0  0  1 V2000
  150.5766  139.6499  157.5144 C   0  0  0  0  0  0  0  0  0  0  0  0
  151.9666  139.1623  156.4130 S   0  0  0  0  0  0  0  0  0  0  0  0
  151.9621  140.0537  155.2429 O   0  0  0  0  0  0  0  0  0  0  0  0
  153.1823  139.0397  157.2318 O   0  0  0  0  0  0  0  0  0  0  0  0
  151.5247  137.5694  155.8723 N   0  0  0  0  0  0  0  0  0  0  0  0
  150.9619  137.3962  154.5134 C   0  0  0  0  0  0  0  0  0  0  0  0
  149.4412  137.1510  154.5565 C   0  0  0  0  0  0  0  0  0  0  0  0
  149.1713  136.0131  155.4452 N   0  0  0  0  0  0  0  0  0  0  0  0
  148.8424  134.7517  155.0701 C   0  0  0  0  0  0  0  0  0  0  0  0
  148.5837  133.8547  155.8735 O   0  0  0  0  0  0  0  0  0  0  0  0
  148.7907  134.5559  153.7428 N   0  0  0  0  0  0  0  0  0  0  0  0
  148.4644  133.2884  153.1052 C   0  0  0  0  0  0  0  0  0  0  0  0
  147.0044  132.9075  153.3827 C   0  0  0  0  0  0  0  0  0  0  0  0
  146.0847  133.2987  152.2429 C   0  0  0  0  0  0  0  0  0  0  0  0
  145.1619  132.3755  151.7098 C   0  0  0  0  0  0  0  0  0  0  0  0
  144.3265  132.7848  150.6526 C   0  0  0  0  0  0  0  0  0  0  0  0
  144.4496  134.1040  150.1729 C   0  0  0  0  0  0  0  0  0  0  0  0
  145.3286  134.9971  150.6765 N   0  0  0  0  0  0  0  0  0  0  0  0
  146.1259  134.5966  151.6902 C   0  0  0  0  0  0  0  0  0  0  0  0
  149.5578  136.3489  156.8170 C   0  0  0  0  0  0  0  0  0  0  0  0
  151.0832  136.5647  156.8670 C   0  0  0  0  0  0  0  0  0  0  0  0
  150.7666  140.6480  157.9083 H   0  0  0  0  0  0  0  0  0  0  0  0
  150.5000  138.9490  158.3442 H   0  0  0  0  0  0  0  0  0  0  0  0
  149.6451  139.6619  156.9505 H   0  0  0  0  0  0  0  0  0  0  0  0
  151.1874  138.2637  153.8938 H   0  0  0  0  0  0  0  0  0  0  0  0
  151.4558  136.5453  154.0428 H   0  0  0  0  0  0  0  0  0  0  0  0
  148.9247  138.0325  154.9364 H   0  0  0  0  0  0  0  0  0  0  0  0
  149.0632  137.0171  153.5432 H   0  0  0  0  0  0  0  0  0  0  0  0
  149.0012  135.3353  153.1368 H   0  0  0  0  0  0  0  0  0  0  0  0
  148.6320  133.3727  152.0301 H   0  0  0  0  0  0  0  0  0  0  0  0
  149.1338  132.5112  153.4779 H   0  0  0  0  0  0  0  0  0  0  0  0
  146.9233  131.8328  153.5530 H   0  0  0  0  0  0  0  0  0  0  0  0
  146.6576  133.3915  154.2970 H   0  0  0  0  0  0  0  0  0  0  0  0
  145.0935  131.3720  152.1035 H   0  0  0  0  0  0  0  0  0  0  0  0
  143.6084  132.1042  150.2199 H   0  0  0  0  0  0  0  0  0  0  0  0
  143.8251  134.4510  149.3631 H   0  0  0  0  0  0  0  0  0  0  0  0
  146.8164  135.3345  152.0714 H   0  0  0  0  0  0  0  0  0  0  0  0
  149.0316  137.2497  157.1330 H   0  0  0  0  0  0  0  0  0  0  0  0
  149.2691  135.5785  157.5334 H   0  0  0  0  0  0  0  0  0  0  0  0
  151.5921  135.6238  156.6538 H   0  0  0  0  0  0  0  0  0  0  0  0
  151.3902  136.8598  157.8699 H   0  0  0  0  0  0  0  0  0  0  0  0
  1  2  1  0  0  0  0
  1 22  1  0  0  0  0
  1 23  1  0  0  0  0
  1 24  1  0  0  0  0
  2  3  2  0  0  0  0
  2  4  2  0  0  0  0
  2  5  1  0  0  0  0
  5 21  1  0  0  0  0
  5  6  1  0  0  0  0
  6  7  1  0  0  0  0
  6 25  1  0  0  0  0
  6 26  1  0  0  0  0
  7  8  1  0  0  0  0
  7 27  1  0  0  0  0
  7 28  1  0  0  0  0
  8  9  1  0  0  0  0
  8 20  1  0  0  0  0
  9 10  2  0  0  0  0
  9 11  1  0  0  0  0
 11 12  1  0  0  0  0
 11 29  1  0  0  0  0
 12 13  1  0  0  0  0
 12 30  1  0  0  0  0
 12 31  1  0  0  0  0
 13 14  1  0  0  0  0
 13 32  1  0  0  0  0
 13 33  1  0  0  0  0
 14 19  1  0  0  0  0
 14 15  2  0  0  0  0
 15 16  1  0  0  0  0
 15 34  1  0  0  0  0
 16 17  2  0  0  0  0
 16 35  1  0  0  0  0
 17 18  1  0  0  0  0
 17 36  1  0  0  0  0
 18 19  2  0  0  0  0
 19 37  1  0  0  0  0
 20 21  1  0  0  0  0
 20 38  1  0  0  0  0
 20 39  1  0  0  0  0
 21 40  1  0  0  0  0
 21 41  1  0  0  0  0
M  END
> <s_m_source_file>
AV-unprocessed.smi

> <i_m_source_file_index>
1930

> <i_lp_mmshare_version>
43012

> <i_f3d_flags>
0

> <s_epik_input>
W0NIM11TKD1PKSg9TylOMVtDSDJdW0NIMl1OKFtDSDJdW0NIMl0xKUMoPU8pW05IXVtDSDJdW0NIMl1jMltjSF1bY0hdW2NIXW5bY0hdMg==

> <s_epik_cmdline>
J2VwaWtfcHl0aG9uJywgJy1waCcsICc3LjAnLCAnLXRuJywgJzgnLCAnLW1hJywgJzIwMCcsICctbWV0YWxfYmluZGluZycsICctaW1hZScsICc8aW5maWxlLm1hZT4nLCAnLW9tYWUnLCAnPG91dGZpbGUubWFlPic=

> <r_epik_Ionization_Penalty>
0.0143741

> <r_epik_Ionization_Penalty_Charging>
0

> <r_epik_Ionization_Penalty_Neutral>
0.0143741

> <r_epik_State_Penalty>
0.0112033

> <r_epik_Charging_Adjusted_Penalty>
0.0112033

> <i_epik_Tot_Q>
0

> <i_epik_Tot_abs_Q>
0

> <r_epik_Metal_State_Penalty>
0.0109376

> <b_epik_Metal_Only>
0

> <s_lp_Force_Field>
OPLS_2005

> <r_lp_Energy>
24.8651

> <b_lp_Chiralities_Consistent>
1

> <s_lp_Variant>
AV-unprocessed.smi:1930-1

> <Gold.Version>
5.8.1

> <Gold.Id.Protein>
6NUR|6NUR_protein|mol2

> <Gold.PLP.Fitness>
41.8012

> <Gold.PLP.PLP>
-28.1152

> <Gold.PLP.part.hbond>
-2.7774

> <Gold.PLP.part.metal>
0.0000

> <Gold.PLP.part.buried>
-2.5943

> <Gold.PLP.part.nonpolar>
-23.2335

> <Gold.PLP.part.repulsive>
0.2173

> <Gold.PLP.ligand.clash>
0.0000

> <Gold.PLP.ligand.torsion>
1.5025

> <Gold.PLP.Chemscore.Hbond>
2.8800

> <Gold.PLP.Chemscore.CHOScore>
1.9721

> <Gold.PLP.Chemscore.Metal>
0.0000

> <Gold.Chemscore.Hbonds>
donor molecule, donor type, donor heavy atom, donor atom, acceptor molecule, acceptor atom, score
      L1  H    11    29       P1  7948  0.99
      P1  H  7989  7998       L1     3  0.83
      P1  H  7997  8010       L1     4  1.00
      L1  C    17    36       P1  7921  0.02
      L1  C    17    36       P1 10186  0.24
      L1  C    19    37       P1  7948  1.00

> <Gold.PLP.Chemscore.Internal.Correction>
2.1348

> <Gold.Rescore>
     Score         DG    S(hbond)    S(metal)    S(lipo)     H(rot)  DE(clash)    DE(int)     intcor
     15.98     -17.65       2.55        0.00      62.05       1.40       0.21       1.47       ----

> <Gold.Chemscore.Fitness>
15.9779

> <Gold.Chemscore.DG>
-17.6520

> <Gold.Chemscore.ZeroCoef>
-5.4800

> <Gold.Chemscore.Hbond>
2.5465

> <Gold.Chemscore.Metal>
0.0000

> <Gold.Chemscore.Lipo>
62.0535

> <Gold.Chemscore.Internal_Hbond>
0.0000

> <Gold.Chemscore.DEClash>
0.2073

> <Gold.Chemscore.DEInternal>
1.4667

> <Gold.Chemscore.Rot>
1.4037

> <Gold.Chemscore.Internal.Correction>
   9.000000E+99

> <Gold.Chemscore.Hbonds>
donor molecule, donor type, donor heavy atom, donor atom, acceptor molecule, acceptor atom, score
      L1  H    11    29       P1  7948  0.36
      P1  H  7989  7998       L1     3  0.82
      P1  H  7997  8010       L1     4  0.47

> <Gold.Chemscore.Hbond.Weighted>
-8.5052

> <Gold.Chemscore.Metal.Weighted>
-0.0000

> <Gold.Chemscore.Lipo.Weighted>
-7.2603

> <Gold.Chemscore.Internal_Hbond.Weighted>
0.0000

> <Gold.Chemscore.DEClash.Weighted>
0.2073

> <Gold.Chemscore.DEInternal.Weighted>
1.4667

> <Gold.Chemscore.Rot.Weighted>
3.5935

> <Gold.Chemscore.Internal.Correction.Weighted>
   9.000000E+99

> <Gold.Protein.RotatedTorsions>
[ 6907 6896 6895 6894 ] final  122.25 input  -60.11 | X-H torsion
[ 7974 7965 7964 7962 ] final  161.68 input  175.53 | X-H torsion
[ 8008 7997 7996 7995 ] final   70.78 input   59.86 | X-H torsion
[ 10167 10162 10161 10158 ] final  158.12 input  -65.29 | X-H torsion
[ 10718 10713 10712 10709 ] final   59.23 input   66.30 | X-H torsion
[ 10763 10752 10751 10750 ] final   20.42 input  -60.55 | X-H torsion
[ 11005 11000 10999 10996 ] final -133.85 input  -57.11 | X-H torsion

> <Gold.Protein.ActiveResidues>
 VAL166  LYS551  ARG553  GLY616  TRP617  ASP618  TYR619  PRO620  LYS621  CYS622 
 ASP623  PHE694  ASN695  SER759  ASP760  ASP761  ALA762  ILE779  LEU786  VAL792 
 PHE793  MET794  SER795  GLU796  ALA797  LYS798  CYS799  TRP800  GLU811  SER814 

> <Gold.Protein.RotatedAtoms>
  152.4258  133.7192  159.6523 H   0  0  0  0  0  0  0  0  0  0  0  0  # atno 6907 bound_to 6896
  150.8134  133.8369  159.3177 H   0  0  0  0  0  0  0  0  0  0  0  0  # atno 6908 bound_to 6896
  151.6073  135.1045  160.0125 H   0  0  0  0  0  0  0  0  0  0  0  0  # atno 6909 bound_to 6896
  144.7674  139.7932  143.6310 H   0  0  0  0  0  0  0  0  0  0  0  0  # atno 7974 bound_to 7965
  155.7440  140.3490  155.5118 H   0  0  0  0  0  0  0  0  0  0  0  0  # atno 8008 bound_to 7997
  155.9067  140.1043  157.1331 H   0  0  0  0  0  0  0  0  0  0  0  0  # atno 8009 bound_to 7997
  154.4050  140.1275  156.4492 H   0  0  0  0  0  0  0  0  0  0  0  0  # atno 8010 bound_to 7997
  139.4825  144.4854  151.8384 H   0  0  0  0  0  0  0  0  0  0  0  0  # atno 10167 bound_to 10162
  157.5659  130.8871  149.9187 H   0  0  0  0  0  0  0  0  0  0  0  0  # atno 10718 bound_to 10713
  153.1079  135.6689  153.9553 H   0  0  0  0  0  0  0  0  0  0  0  0  # atno 10763 bound_to 10752
  153.9105  135.3025  155.3450 H   0  0  0  0  0  0  0  0  0  0  0  0  # atno 10764 bound_to 10752
  154.7500  135.5039  153.9348 H   0  0  0  0  0  0  0  0  0  0  0  0  # atno 10765 bound_to 10752
  140.9044  134.1649  157.4437 H   0  0  0  0  0  0  0  0  0  0  0  0  # atno 11005 bound_to 11000
  146.1792  139.4977  142.9877 LP  0  0  0  0  0  0  0  0  0  0  0  0  # atno 17320 bound_to 7965
  145.6428  141.0280  143.1802 LP  0  0  0  0  0  0  0  0  0  0  0  0  # atno 17321 bound_to 7965
  140.4334  144.2085  150.5888 LP  0  0  0  0  0  0  0  0  0  0  0  0  # atno 17342 bound_to 10162
  140.4757  143.2397  151.9027 LP  0  0  0  0  0  0  0  0  0  0  0  0  # atno 17343 bound_to 10162
  156.0708  130.3685  150.0781 LP  0  0  0  0  0  0  0  0  0  0  0  0  # atno 17370 bound_to 10713
  156.8939  130.9598  151.3585 LP  0  0  0  0  0  0  0  0  0  0  0  0  # atno 17371 bound_to 10713
  139.8747  134.9911  156.5532 LP  0  0  0  0  0  0  0  0  0  0  0  0  # atno 17394 bound_to 11000
  140.8190  133.8369  155.8878 LP  0  0  0  0  0  0  0  0  0  0  0  0  # atno 17395 bound_to 11000

$$$$
