AV-unprocessed.smi:2520|AV-procd|sdf|9910|dock10
  -GOLD-   2272013543D 1   1.00000     0.00000
 Structure written by MMmdl.
 41 44  0  0  0  0  0  0  0  0  1 V2000
  145.1929  137.1479  153.7341 O   0  0  0  0  0  0  0  0  0  0  0  0
  146.3307  136.9617  153.3060 C   0  0  0  0  0  0  0  0  0  0  0  0
  147.2753  137.9217  153.3966 N   0  0  0  0  0  0  0  0  0  0  0  0
  147.2278  139.2385  153.9406 C   0  0  0  0  0  0  0  0  0  0  0  0
  148.4382  139.9589  153.8519 C   0  0  0  0  0  0  0  0  0  0  0  0
  148.4756  141.2702  154.3560 C   0  0  0  0  0  0  0  0  0  0  0  0
  147.2916  141.7781  154.9167 C   0  0  0  0  0  0  0  0  0  0  0  0
  146.1520  141.0562  154.9777 N   0  0  0  0  0  0  0  0  0  0  0  0
  146.1252  139.8097  154.4947 N   0  0  0  0  0  0  0  0  0  0  0  0
  146.7078  135.8115  152.7260 N   0  0  0  0  0  0  0  0  0  0  0  0
  145.8555  134.6401  152.5656 C   0  0  1  0  0  0  0  0  0  0  0  0
  145.7064  134.2230  151.0933 C   0  0  2  0  0  0  0  0  0  0  0  0
  144.3642  134.3160  150.4210 C   0  0  0  0  0  0  0  0  0  0  0  0
  143.8023  132.9008  150.5839 C   0  0  0  0  0  0  0  0  0  0  0  0
  144.5238  132.3507  151.6839 O   0  0  0  0  0  0  0  0  0  0  0  0
  145.8759  132.7882  151.5709 C   0  0  2  0  0  0  0  0  0  0  0  0
  146.5565  133.2930  152.8607 C   0  0  0  0  0  0  0  0  0  0  0  0
  146.2253  132.5645  154.1605 C   0  0  0  0  0  0  0  0  0  0  0  0
  147.2835  131.4725  154.3568 C   0  0  0  0  0  0  0  0  0  0  0  0
  148.4487  131.8472  153.4355 C   0  0  0  0  0  0  0  0  0  0  0  0
  148.0861  133.2179  152.8637 C   0  0  0  0  0  0  0  0  0  0  0  0
  148.1554  137.6820  152.9638 H   0  0  0  0  0  0  0  0  0  0  0  0
  149.3200  139.5188  153.4091 H   0  0  0  0  0  0  0  0  0  0  0  0
  149.3768  141.8639  154.3145 H   0  0  0  0  0  0  0  0  0  0  0  0
  147.2559  142.7785  155.3216 H   0  0  0  0  0  0  0  0  0  0  0  0
  147.6594  135.7359  152.3954 H   0  0  0  0  0  0  0  0  0  0  0  0
  144.8880  134.7192  153.0671 H   0  0  0  0  0  0  0  0  0  0  0  0
  146.5497  134.5423  150.4777 H   0  0  0  0  0  0  0  0  0  0  0  0
  143.7280  135.0469  150.9213 H   0  0  0  0  0  0  0  0  0  0  0  0
  144.4394  134.5992  149.3708 H   0  0  0  0  0  0  0  0  0  0  0  0
  142.7273  132.8927  150.7641 H   0  0  0  0  0  0  0  0  0  0  0  0
  144.0048  132.3035  149.6938 H   0  0  0  0  0  0  0  0  0  0  0  0
  146.4847  132.1663  150.9128 H   0  0  0  0  0  0  0  0  0  0  0  0
  146.2705  133.2648  154.9956 H   0  0  0  0  0  0  0  0  0  0  0  0
  145.2189  132.1454  154.1630 H   0  0  0  0  0  0  0  0  0  0  0  0
  147.5967  131.4160  155.3997 H   0  0  0  0  0  0  0  0  0  0  0  0
  146.8856  130.4959  154.0793 H   0  0  0  0  0  0  0  0  0  0  0  0
  149.4052  131.8626  153.9588 H   0  0  0  0  0  0  0  0  0  0  0  0
  148.5261  131.1185  152.6277 H   0  0  0  0  0  0  0  0  0  0  0  0
  148.5175  133.3661  151.8731 H   0  0  0  0  0  0  0  0  0  0  0  0
  148.5078  133.9873  153.5114 H   0  0  0  0  0  0  0  0  0  0  0  0
  1  2  2  0  0  0  0
  2  3  1  0  0  0  0
  2 10  1  0  0  0  0
  3  4  1  0  0  0  0
  3 22  1  0  0  0  0
  4  9  1  0  0  0  0
  4  5  2  0  0  0  0
  5  6  1  0  0  0  0
  5 23  1  0  0  0  0
  6  7  2  0  0  0  0
  6 24  1  0  0  0  0
  7  8  1  0  0  0  0
  7 25  1  0  0  0  0
  8  9  2  0  0  0  0
 10 11  1  0  0  0  0
 10 26  1  0  0  0  0
 11 17  1  0  0  0  0
 11 12  1  0  0  0  0
 11 27  1  0  0  0  0
 12 16  1  0  0  0  0
 12 13  1  0  0  0  0
 12 28  1  0  0  0  0
 13 14  1  0  0  0  0
 13 29  1  0  0  0  0
 13 30  1  0  0  0  0
 14 15  1  0  0  0  0
 14 31  1  0  0  0  0
 14 32  1  0  0  0  0
 15 16  1  0  0  0  0
 16 17  1  0  0  0  0
 16 33  1  0  0  0  0
 17 21  1  0  0  0  0
 17 18  1  0  0  0  0
 18 19  1  0  0  0  0
 18 34  1  0  0  0  0
 18 35  1  0  0  0  0
 19 20  1  0  0  0  0
 19 36  1  0  0  0  0
 19 37  1  0  0  0  0
 20 21  1  0  0  0  0
 20 38  1  0  0  0  0
 20 39  1  0  0  0  0
 21 40  1  0  0  0  0
 21 41  1  0  0  0  0
M  END
> <s_m_source_file>
AV-unprocessed.smi

> <i_m_source_file_index>
2520

> <i_lp_mmshare_version>
43012

> <i_f3d_flags>
0

> <s_epik_input>
bjFuW2NIXVtjSF1bY0hdYzFbTkhdQyg9TylbTkhdW0NAQEhdMltDQEBIXShbQ0gyXVtDSDJdTzMpW0NASF0zQzI0W0NIMl1bQ0gyXVtDSDJdW0NIMl00

> <s_epik_cmdline>
J2VwaWtfcHl0aG9uJywgJy1waCcsICc3LjAnLCAnLXRuJywgJzgnLCAnLW1hJywgJzIwMCcsICctbWV0YWxfYmluZGluZycsICctaW1hZScsICc8aW5maWxlLm1hZT4nLCAnLW9tYWUnLCAnPG91dGZpbGUubWFlPic=

> <r_lp_tautomer_probability>
1

> <r_epik_Ionization_Penalty>
0.00552561

> <r_epik_Ionization_Penalty_Charging>
0

> <r_epik_Ionization_Penalty_Neutral>
0.00552561

> <r_epik_State_Penalty>
-0

> <r_epik_Charging_Adjusted_Penalty>
0

> <i_epik_Tot_Q>
0

> <i_epik_Tot_abs_Q>
0

> <r_epik_Metal_State_Penalty>
-0

> <b_epik_Metal_Only>
0

> <s_lp_Force_Field>
OPLS_2005

> <r_lp_Energy>
61.147

> <b_lp_Chiralities_Consistent>
1

> <s_lp_Variant>
AV-unprocessed.smi:2520-4

> <Gold.Version>
5.8.1

> <Gold.Id.Protein>
6NUR|6NUR_protein|mol2

> <Gold.PLP.Fitness>
37.1605

> <Gold.PLP.PLP>
-29.1014

> <Gold.PLP.part.hbond>
-1.7133

> <Gold.PLP.part.metal>
0.0000

> <Gold.PLP.part.buried>
-2.5272

> <Gold.PLP.part.nonpolar>
-26.4853

> <Gold.PLP.part.repulsive>
0.5424

> <Gold.PLP.ligand.clash>
0.0000

> <Gold.PLP.ligand.torsion>
0.1236

> <Gold.PLP.Chemscore.Hbond>
1.7098

> <Gold.PLP.Chemscore.CHOScore>
0.9971

> <Gold.PLP.Chemscore.Metal>
0.0000

> <Gold.Chemscore.Hbonds>
donor molecule, donor type, donor heavy atom, donor atom, acceptor molecule, acceptor atom, score
      L1  H     3    22       P1  7948  0.80
      L1  H    10    26       P1  7948  0.84
      L1  C     7    25       P1  8028  1.00

> <Gold.PLP.Chemscore.Internal.Correction>
0.1859

> <Gold.Rescore>
     Score         DG    S(hbond)    S(metal)    S(lipo)     H(rot)  DE(clash)    DE(int)     intcor
     15.78     -17.28       1.84        0.00      70.08       1.00       0.18       1.33       ----

> <Gold.Chemscore.Fitness>
15.7760

> <Gold.Chemscore.DG>
-17.2820

> <Gold.Chemscore.ZeroCoef>
-5.4800

> <Gold.Chemscore.Hbond>
1.8450

> <Gold.Chemscore.Metal>
0.0000

> <Gold.Chemscore.Lipo>
70.0845

> <Gold.Chemscore.Internal_Hbond>
0.0000

> <Gold.Chemscore.DEClash>
0.1799

> <Gold.Chemscore.DEInternal>
1.3262

> <Gold.Chemscore.Rot>
1.0000

> <Gold.Chemscore.Internal.Correction>
   9.000000E+99

> <Gold.Chemscore.Hbonds>
donor molecule, donor type, donor heavy atom, donor atom, acceptor molecule, acceptor atom, score
      L1  H     3    22       P1  7948  0.78
      L1  H    10    26       P1  7948  0.81

> <Gold.Chemscore.Hbond.Weighted>
-6.1622

> <Gold.Chemscore.Metal.Weighted>
-0.0000

> <Gold.Chemscore.Lipo.Weighted>
-8.1999

> <Gold.Chemscore.Internal_Hbond.Weighted>
0.0000

> <Gold.Chemscore.DEClash.Weighted>
0.1799

> <Gold.Chemscore.DEInternal.Weighted>
1.3262

> <Gold.Chemscore.Rot.Weighted>
2.5600

> <Gold.Chemscore.Internal.Correction.Weighted>
   9.000000E+99

> <Gold.Protein.RotatedTorsions>
[ 6907 6896 6895 6894 ] final -161.80 input  -60.11 | X-H torsion
[ 7974 7965 7964 7962 ] final   67.11 input  175.53 | X-H torsion
[ 8008 7997 7996 7995 ] final   64.48 input   59.86 | X-H torsion
[ 10167 10162 10161 10158 ] final  148.15 input  -65.29 | X-H torsion
[ 10718 10713 10712 10709 ] final -122.31 input   66.30 | X-H torsion
[ 10763 10752 10751 10750 ] final  -19.86 input  -60.55 | X-H torsion
[ 11005 11000 10999 10996 ] final -152.20 input  -57.11 | X-H torsion

> <Gold.Protein.ActiveResidues>
 VAL166  LYS551  ARG553  GLY616  TRP617  ASP618  TYR619  PRO620  LYS621  CYS622 
 ASP623  PHE694  ASN695  SER759  ASP760  ASP761  ALA762  ILE779  LEU786  VAL792 
 PHE793  MET794  SER795  GLU796  ALA797  LYS798  CYS799  TRP800  GLU811  SER814 

> <Gold.Protein.RotatedAtoms>
  151.3703  133.3857  159.2698 H   0  0  0  0  0  0  0  0  0  0  0  0  # atno 6907 bound_to 6896
  150.9656  134.9038  159.7767 H   0  0  0  0  0  0  0  0  0  0  0  0  # atno 6908 bound_to 6896
  152.5166  134.3664  159.9355 H   0  0  0  0  0  0  0  0  0  0  0  0  # atno 6909 bound_to 6896
  145.8185  139.3072  143.1057 H   0  0  0  0  0  0  0  0  0  0  0  0  # atno 7974 bound_to 7965
  155.6467  140.3497  155.4734 H   0  0  0  0  0  0  0  0  0  0  0  0  # atno 8008 bound_to 7997
  155.9882  140.1188  157.0687 H   0  0  0  0  0  0  0  0  0  0  0  0  # atno 8009 bound_to 7997
  154.4211  140.1125  156.5514 H   0  0  0  0  0  0  0  0  0  0  0  0  # atno 8010 bound_to 7997
  139.4879  144.5701  151.7070 H   0  0  0  0  0  0  0  0  0  0  0  0  # atno 10167 bound_to 10162
  156.1408  130.6464  150.9768 H   0  0  0  0  0  0  0  0  0  0  0  0  # atno 10718 bound_to 10713
  153.6114  135.6996  153.5345 H   0  0  0  0  0  0  0  0  0  0  0  0  # atno 10763 bound_to 10752
  153.3014  135.4128  155.1255 H   0  0  0  0  0  0  0  0  0  0  0  0  # atno 10764 bound_to 10752
  154.8562  135.3649  154.5652 H   0  0  0  0  0  0  0  0  0  0  0  0  # atno 10765 bound_to 10752
  140.7215  134.3722  157.5182 H   0  0  0  0  0  0  0  0  0  0  0  0  # atno 11005 bound_to 11000
  145.9700  140.8767  143.0167 LP  0  0  0  0  0  0  0  0  0  0  0  0  # atno 17320 bound_to 7965
  144.6750  140.1933  143.7394 LP  0  0  0  0  0  0  0  0  0  0  0  0  # atno 17321 bound_to 7965
  140.5287  144.0765  150.6046 LP  0  0  0  0  0  0  0  0  0  0  0  0  # atno 17342 bound_to 10162
  140.3747  143.2835  152.0238 LP  0  0  0  0  0  0  0  0  0  0  0  0  # atno 17343 bound_to 10162
  157.6574  131.0887  150.7917 LP  0  0  0  0  0  0  0  0  0  0  0  0  # atno 17370 bound_to 10713
  156.7992  130.4915  149.5372 LP  0  0  0  0  0  0  0  0  0  0  0  0  # atno 17371 bound_to 10713
  139.8847  134.8958  156.2687 LP  0  0  0  0  0  0  0  0  0  0  0  0  # atno 17394 bound_to 11000
  141.0000  133.7157  156.0945 LP  0  0  0  0  0  0  0  0  0  0  0  0  # atno 17395 bound_to 11000

$$$$
