AV-unprocessed.smi:703|AV-procd|sdf|3439|dock4
  -GOLD-   22720 0423D 1   1.00000     0.00000
 Structure written by MMmdl.
 37 38  0  0  0  0  0  0  0  0  3 V2000
  146.1292  132.2028  152.1424 C   0  0  0  0  0  0  0  0  0  0  0  0
  146.7931  133.5563  151.8548 C   0  0  0  0  0  0  0  0  0  0  0  0
  147.8091  133.9103  152.8747 N   0  3  2  0  0  0  0  0  0  0  0  0
  148.8122  132.8489  153.1330 C   0  0  0  0  0  0  0  0  0  0  0  0
  148.9137  132.6888  154.6591 C   0  0  1  0  0  0  0  0  0  0  0  0
  150.3293  132.3140  155.1408 C   0  0  0  0  0  0  0  0  0  0  0  0
  148.3577  134.0151  155.1989 C   0  0  2  0  0  0  0  0  0  0  0  0
  147.8246  133.8606  156.5431 N   0  5  0  0  0  0  0  0  0  0  0  0
  148.3398  134.8350  157.7336 S   0  0  0  0  0  0  0  0  0  0  0  0
  149.7038  134.4967  158.1706 O   0  0  0  0  0  0  0  0  0  0  0  0
  148.0543  136.2548  157.4672 O   0  0  0  0  0  0  0  0  0  0  0  0
  147.2246  134.3194  159.1133 C   0  0  0  0  0  0  0  0  0  0  0  0
  147.3789  135.2396  160.2927 C   0  0  0  0  0  0  0  0  0  0  0  0
  147.5843  134.8980  161.6584 C   0  0  0  0  0  0  0  0  0  0  0  0
  147.6519  136.1093  162.2838 C   0  0  0  0  0  0  0  0  0  0  0  0
  147.4939  137.1162  161.3882 O   0  0  0  0  0  0  0  0  0  0  0  0
  147.3151  136.5511  160.1205 N   0  0  0  0  0  0  0  0  0  0  0  0
  147.2625  134.3384  154.1804 C   0  0  0  0  0  0  0  0  0  0  0  0
  145.3503  131.9929  151.4093 H   0  0  0  0  0  0  0  0  0  0  0  0
  145.6666  132.1924  153.1298 H   0  0  0  0  0  0  0  0  0  0  0  0
  146.8483  131.3845  152.0984 H   0  0  0  0  0  0  0  0  0  0  0  0
  147.2471  133.5544  150.8626 H   0  0  0  0  0  0  0  0  0  0  0  0
  146.0228  134.3286  151.8474 H   0  0  0  0  0  0  0  0  0  0  0  0
  148.5407  131.9006  152.6662 H   0  0  0  0  0  0  0  0  0  0  0  0
  149.7616  133.1628  152.6946 H   0  0  0  0  0  0  0  0  0  0  0  0
  148.2315  131.8854  154.9459 H   0  0  0  0  0  0  0  0  0  0  0  0
  151.0722  133.0660  154.8688 H   0  0  0  0  0  0  0  0  0  0  0  0
  150.6458  131.3715  154.6937 H   0  0  0  0  0  0  0  0  0  0  0  0
  150.3677  132.1829  156.2238 H   0  0  0  0  0  0  0  0  0  0  0  0
  149.1368  134.7767  155.1400 H   0  0  0  0  0  0  0  0  0  0  0  0
  146.1985  134.2879  158.7462 H   0  0  0  0  0  0  0  0  0  0  0  0
  147.5006  133.3038  159.3953 H   0  0  0  0  0  0  0  0  0  0  0  0
  147.6748  133.9195  162.1058 H   0  0  0  0  0  0  0  0  0  0  0  0
  147.7993  136.4068  163.3114 H   0  0  0  0  0  0  0  0  0  0  0  0
  147.0027  135.3974  154.1712 H   0  0  0  0  0  0  0  0  0  0  0  0
  146.3564  133.7704  154.4024 H   0  0  0  0  0  0  0  0  0  0  0  0
  148.3319  134.6970  152.5175 H   0  0  0  0  0  0  0  0  0  0  0  0
  1  2  1  0  0  0  0
  1 19  1  0  0  0  0
  1 20  1  0  0  0  0
  1 21  1  0  0  0  0
  2  3  1  0  0  0  0
  2 22  1  0  0  0  0
  2 23  1  0  0  0  0
  3 18  1  0  0  0  0
  3  4  1  0  0  0  0
  3 37  1  0  0  0  0
  4  5  1  0  0  0  0
  4 24  1  0  0  0  0
  4 25  1  0  0  0  0
  5  6  1  0  0  0  0
  5  7  1  0  0  0  0
  5 26  1  0  0  0  0
  6 27  1  0  0  0  0
  6 28  1  0  0  0  0
  6 29  1  0  0  0  0
  7  8  1  0  0  0  0
  7 18  1  0  0  0  0
  7 30  1  0  0  0  0
  8  9  1  0  0  0  0
  9 10  2  0  0  0  0
  9 11  2  0  0  0  0
  9 12  1  0  0  0  0
 12 13  1  0  0  0  0
 12 31  1  0  0  0  0
 12 32  1  0  0  0  0
 13 17  2  0  0  0  0
 13 14  1  0  0  0  0
 14 15  2  0  0  0  0
 14 33  1  0  0  0  0
 15 16  1  0  0  0  0
 15 34  1  0  0  0  0
 16 17  1  0  0  0  0
 18 35  1  0  0  0  0
 18 36  1  0  0  0  0
M  CHG  1   3   1
M  CHG  1   8  -1
M  END
> <s_m_source_file>
AV-unprocessed.smi

> <i_m_source_file_index>
703

> <i_lp_mmshare_version>
43012

> <i_f3d_flags>
0

> <s_epik_input>
W0NIM11bQ0gyXU4xW0NIMl1bQ0BASF0oW0NIM10pW0NASF0oW0NIMl0xKVtOSF1TKD1PKSg9TylbQ0gyXWMyW2NIXVtjSF1vbjI=

> <s_epik_cmdline>
J2VwaWtfcHl0aG9uJywgJy1waCcsICc3LjAnLCAnLXRuJywgJzgnLCAnLW1hJywgJzIwMCcsICctbWV0YWxfYmluZGluZycsICctaW1hZScsICc8aW5maWxlLm1hZT4nLCAnLW9tYWUnLCAnPG91dGZpbGUubWFlPic=

> <r_epik_Ionization_Penalty>
3.62494

> <r_epik_Ionization_Penalty_Charging>
3.62494

> <r_epik_Ionization_Penalty_Neutral>
2.0321e-10

> <r_epik_State_Penalty>
3.62558

> <r_epik_Charging_Adjusted_Penalty>
7.25052

> <i_epik_Tot_Q>
0

> <i_epik_Tot_abs_Q>
2

> <r_epik_Metal_State_Penalty>
0.530836

> <b_epik_Metal_Only>
1

> <s_lp_Force_Field>
OPLS_2005

> <r_lp_Energy>
15.0444

> <b_lp_Chiralities_Consistent>
1

> <s_lp_Variant>
AV-unprocessed.smi:703-14

> <Gold.Version>
5.8.1

> <Gold.Id.Protein>
6NUR|6NUR_protein|mol2

> <Gold.PLP.Fitness>
40.2484

> <Gold.PLP.PLP>
-26.4869

> <Gold.PLP.part.hbond>
-3.9839

> <Gold.PLP.part.metal>
0.0000

> <Gold.PLP.part.buried>
-3.8255

> <Gold.PLP.part.nonpolar>
-18.9873

> <Gold.PLP.part.repulsive>
0.0000

> <Gold.PLP.ligand.clash>
0.0000

> <Gold.PLP.ligand.torsion>
0.9354

> <Gold.PLP.Chemscore.Hbond>
4.8640

> <Gold.PLP.Chemscore.CHOScore>
0.0000

> <Gold.PLP.Chemscore.Metal>
0.0000

> <Gold.Chemscore.Hbonds>
donor molecule, donor type, donor heavy atom, donor atom, acceptor molecule, acceptor atom, score
      L1  H     3    37       P1  7948  2.00
      P1  H  6896  6907       L1    10  0.98
      P1  H  6931  6943       L1    16  0.96
      P1  H  6934  6947       L1    16  0.91

> <Gold.PLP.Chemscore.Internal.Correction>
1.0404

> <Gold.Rescore>
     Score         DG    S(hbond)    S(metal)    S(lipo)     H(rot)  DE(clash)    DE(int)     intcor
     15.20     -17.58       2.94        0.00      55.31       1.63       0.02       2.36       ----

> <Gold.Chemscore.Fitness>
15.1977

> <Gold.Chemscore.DG>
-17.5782

> <Gold.Chemscore.ZeroCoef>
-5.4800

> <Gold.Chemscore.Hbond>
2.9370

> <Gold.Chemscore.Metal>
0.0000

> <Gold.Chemscore.Lipo>
55.3102

> <Gold.Chemscore.Internal_Hbond>
0.0000

> <Gold.Chemscore.DEClash>
0.0202

> <Gold.Chemscore.DEInternal>
2.3603

> <Gold.Chemscore.Rot>
1.6338

> <Gold.Chemscore.Internal.Correction>
   9.000000E+99

> <Gold.Chemscore.Hbonds>
donor molecule, donor type, donor heavy atom, donor atom, acceptor molecule, acceptor atom, score
      L1  H     3    37       P1  7948  0.26
      P1  H  6896  6907       L1    10  0.91
      P1  H  6931  6943       L1    16  0.23
      P1  H  6934  6947       L1    16  0.22

> <Gold.Chemscore.Hbond.Weighted>
-9.8095

> <Gold.Chemscore.Metal.Weighted>
-0.0000

> <Gold.Chemscore.Lipo.Weighted>
-6.4713

> <Gold.Chemscore.Internal_Hbond.Weighted>
0.0000

> <Gold.Chemscore.DEClash.Weighted>
0.0202

> <Gold.Chemscore.DEInternal.Weighted>
2.3603

> <Gold.Chemscore.Rot.Weighted>
4.1825

> <Gold.Chemscore.Internal.Correction.Weighted>
   9.000000E+99

> <Gold.Protein.RotatedTorsions>
[ 6907 6896 6895 6894 ] final -111.98 input  -60.11 | X-H torsion
[ 7974 7965 7964 7962 ] final  -21.28 input  175.53 | X-H torsion
[ 8008 7997 7996 7995 ] final   95.73 input   59.86 | X-H torsion
[ 10167 10162 10161 10158 ] final   40.65 input  -65.29 | X-H torsion
[ 10718 10713 10712 10709 ] final   88.58 input   66.30 | X-H torsion
[ 10763 10752 10751 10750 ] final  -10.36 input  -60.55 | X-H torsion
[ 11005 11000 10999 10996 ] final  119.78 input  -57.11 | X-H torsion

> <Gold.Protein.ActiveResidues>
 VAL166  LYS551  ARG553  GLY616  TRP617  ASP618  TYR619  PRO620  LYS621  CYS622 
 ASP623  PHE694  ASN695  SER759  ASP760  ASP761  ALA762  ILE779  LEU786  VAL792 
 PHE793  MET794  SER795  GLU796  ALA797  LYS798  CYS799  TRP800  GLU811  SER814 

> <Gold.Protein.RotatedAtoms>
  150.7727  133.9156  159.3382 H   0  0  0  0  0  0  0  0  0  0  0  0  # atno 6907 bound_to 6896
  151.7038  135.0923  160.0265 H   0  0  0  0  0  0  0  0  0  0  0  0  # atno 6908 bound_to 6896
  152.3751  133.6432  159.6153 H   0  0  0  0  0  0  0  0  0  0  0  0  # atno 6909 bound_to 6896
  146.1742  140.4318  142.8520 H   0  0  0  0  0  0  0  0  0  0  0  0  # atno 7974 bound_to 7965
  156.0720  140.3282  155.7587 H   0  0  0  0  0  0  0  0  0  0  0  0  # atno 8008 bound_to 7997
  155.5290  140.0591  157.2910 H   0  0  0  0  0  0  0  0  0  0  0  0  # atno 8009 bound_to 7997
  154.4535  140.1930  156.0465 H   0  0  0  0  0  0  0  0  0  0  0  0  # atno 8010 bound_to 7997
  140.3721  144.2091  150.6133 H   0  0  0  0  0  0  0  0  0  0  0  0  # atno 10167 bound_to 10162
  157.6950  131.0300  150.3296 H   0  0  0  0  0  0  0  0  0  0  0  0  # atno 10718 bound_to 10713
  153.4680  135.7016  153.6010 H   0  0  0  0  0  0  0  0  0  0  0  0  # atno 10763 bound_to 10752
  153.4276  135.3810  155.2150 H   0  0  0  0  0  0  0  0  0  0  0  0  # atno 10764 bound_to 10752
  154.8726  135.3943  154.4115 H   0  0  0  0  0  0  0  0  0  0  0  0  # atno 10765 bound_to 10752
  139.9160  134.9631  156.7708 H   0  0  0  0  0  0  0  0  0  0  0  0  # atno 11005 bound_to 11000
  144.8210  140.6549  143.6353 LP  0  0  0  0  0  0  0  0  0  0  0  0  # atno 17320 bound_to 7965
  145.4258  139.1557  143.4049 LP  0  0  0  0  0  0  0  0  0  0  0  0  # atno 17321 bound_to 7965
  140.5023  143.2314  151.8661 LP  0  0  0  0  0  0  0  0  0  0  0  0  # atno 17342 bound_to 10162
  139.4803  144.5046  151.9015 LP  0  0  0  0  0  0  0  0  0  0  0  0  # atno 17343 bound_to 10162
  156.3771  130.3874  149.7130 LP  0  0  0  0  0  0  0  0  0  0  0  0  # atno 17370 bound_to 10713
  156.4525  130.7913  151.2934 LP  0  0  0  0  0  0  0  0  0  0  0  0  # atno 17371 bound_to 10713
  140.6623  133.9634  155.7811 LP  0  0  0  0  0  0  0  0  0  0  0  0  # atno 17394 bound_to 11000
  141.0635  134.0311  157.3626 LP  0  0  0  0  0  0  0  0  0  0  0  0  # atno 17395 bound_to 11000

$$$$
