AV-unprocessed.smi:2971|AV-procd|sdf|11334|dock7
  -GOLD-   2272016243D 1   1.00000     0.00000
 Structure written by MMmdl.
 37 39  0  0  0  0  0  0  0  0  2 V2000
  150.4834  139.7252  157.8913 O   0  0  0  0  0  0  0  0  0  0  0  0
  151.7301  139.8009  157.2281 C   0  0  2  0  0  0  0  0  0  0  0  0
  152.7164  140.5567  158.1324 C   0  0  0  0  0  0  0  0  0  0  0  0
  152.1398  141.8025  158.5018 O   0  0  0  0  0  0  0  0  0  0  0  0
  152.4563  142.3304  159.7359 C   0  0  0  0  0  0  0  0  0  0  0  0
  153.2716  141.6770  160.6954 C   0  0  0  0  0  0  0  0  0  0  0  0
  153.5454  142.2882  161.9345 C   0  0  0  0  0  0  0  0  0  0  0  0
  153.0104  143.5550  162.2314 C   0  0  0  0  0  0  0  0  0  0  0  0
  152.2000  144.2107  161.2865 C   0  0  0  0  0  0  0  0  0  0  0  0
  151.9261  143.6011  160.0467 C   0  0  0  0  0  0  0  0  0  0  0  0
  151.1446  144.2439  159.1462 F   0  0  0  0  0  0  0  0  0  0  0  0
  151.5422  140.5074  155.8706 C   0  0  0  0  0  0  0  0  0  0  0  0
  150.6294  139.7872  154.9706 N   0  0  0  0  0  0  0  0  0  0  0  0
  150.8315  138.6389  154.2693 C   0  0  0  0  0  0  0  0  0  0  0  0
  149.6914  138.3752  153.5729 N   0  3  0  0  0  0  0  0  0  0  0  0
  148.7449  139.3680  153.8344 C   0  0  0  0  0  0  0  0  0  0  0  0
  147.4457  139.5335  153.3645 C   0  0  0  0  0  0  0  0  0  0  0  0
  146.7415  140.6614  153.8345 C   0  0  0  0  0  0  0  0  0  0  0  0
  147.3305  141.5717  154.7359 C   0  0  0  0  0  0  0  0  0  0  0  0
  148.6492  141.3950  155.2043 C   0  0  0  0  0  0  0  0  0  0  0  0
  149.3398  140.2783  154.7340 C   0  0  0  0  0  0  0  0  0  0  0  0
  150.2569  140.5898  158.1996 H   0  0  0  0  0  0  0  0  0  0  0  0
  152.0980  138.7892  157.0508 H   0  0  0  0  0  0  0  0  0  0  0  0
  152.8881  139.9757  159.0400 H   0  0  0  0  0  0  0  0  0  0  0  0
  153.6783  140.6886  157.6335 H   0  0  0  0  0  0  0  0  0  0  0  0
  153.6995  140.7047  160.5061 H   0  0  0  0  0  0  0  0  0  0  0  0
  154.1674  141.7828  162.6585 H   0  0  0  0  0  0  0  0  0  0  0  0
  153.2208  144.0226  163.1821 H   0  0  0  0  0  0  0  0  0  0  0  0
  151.7874  145.1831  161.5122 H   0  0  0  0  0  0  0  0  0  0  0  0
  151.1904  141.5313  156.0005 H   0  0  0  0  0  0  0  0  0  0  0  0
  152.5010  140.5790  155.3558 H   0  0  0  0  0  0  0  0  0  0  0  0
  151.7341  138.0450  154.2647 H   0  0  0  0  0  0  0  0  0  0  0  0
  146.9915  138.8367  152.6752 H   0  0  0  0  0  0  0  0  0  0  0  0
  145.7288  140.8311  153.4984 H   0  0  0  0  0  0  0  0  0  0  0  0
  146.7592  142.4227  155.0772 H   0  0  0  0  0  0  0  0  0  0  0  0
  149.0875  142.0953  155.8997 H   0  0  0  0  0  0  0  0  0  0  0  0
  149.5710  137.5753  152.9648 H   0  0  0  0  0  0  0  0  0  0  0  0
  1  2  1  0  0  0  0
  1 22  1  0  0  0  0
  2  3  1  0  0  0  0
  2 12  1  0  0  0  0
  2 23  1  0  0  0  0
  3  4  1  0  0  0  0
  3 24  1  0  0  0  0
  3 25  1  0  0  0  0
  4  5  1  0  0  0  0
  5 10  1  0  0  0  0
  5  6  2  0  0  0  0
  6  7  1  0  0  0  0
  6 26  1  0  0  0  0
  7  8  2  0  0  0  0
  7 27  1  0  0  0  0
  8  9  1  0  0  0  0
  8 28  1  0  0  0  0
  9 10  2  0  0  0  0
  9 29  1  0  0  0  0
 10 11  1  0  0  0  0
 12 13  1  0  0  0  0
 12 30  1  0  0  0  0
 12 31  1  0  0  0  0
 13 21  1  0  0  0  0
 13 14  1  0  0  0  0
 14 15  2  0  0  0  0
 14 32  1  0  0  0  0
 15 16  1  0  0  0  0
 15 37  1  0  0  0  0
 16 21  2  0  0  0  0
 16 17  1  0  0  0  0
 17 18  2  0  0  0  0
 17 33  1  0  0  0  0
 18 19  1  0  0  0  0
 18 34  1  0  0  0  0
 19 20  2  0  0  0  0
 19 35  1  0  0  0  0
 20 21  1  0  0  0  0
 20 36  1  0  0  0  0
M  CHG  1  15   1
M  END
> <s_m_source_file>
AV-unprocessed.smi

> <i_m_source_file_index>
2971

> <i_lp_mmshare_version>
43012

> <i_f3d_flags>
0

> <s_epik_input>
W2NIXTFbY0hdW2NIXVtjSF1jKGMxMiluKFtjSF1uMilbQ0gyXVtDQEhdKFtPSF0pW0NIMl1PYzNbY0hdW2NIXVtjSF1bY0hdYzNG

> <s_epik_cmdline>
J2VwaWtfcHl0aG9uJywgJy1waCcsICc3LjAnLCAnLXRuJywgJzgnLCAnLW1hJywgJzIwMCcsICctbWV0YWxfYmluZGluZycsICctaW1hZScsICc8aW5maWxlLm1hZT4nLCAnLW9tYWUnLCAnPG91dGZpbGUubWFlPic=

> <r_lp_tautomer_probability>
1

> <r_epik_Ionization_Penalty>
1.38569

> <r_epik_Ionization_Penalty_Charging>
1.38568

> <r_epik_Ionization_Penalty_Neutral>
2.3993e-06

> <r_epik_State_Penalty>
1.46659

> <r_epik_Charging_Adjusted_Penalty>
2.85227

> <i_epik_Tot_Q>
1

> <i_epik_Tot_abs_Q>
1

> <r_epik_Metal_State_Penalty>
5.50731

> <b_epik_Metal_Only>
0

> <s_lp_Force_Field>
OPLS_2005

> <r_lp_Energy>
22.099

> <b_lp_Chiralities_Consistent>
1

> <s_lp_Variant>
AV-unprocessed.smi:2971-3

> <Gold.Version>
5.8.1

> <Gold.Id.Protein>
6NUR|6NUR_protein|mol2

> <Gold.PLP.Fitness>
57.1204

> <Gold.PLP.PLP>
-51.9049

> <Gold.PLP.part.hbond>
-2.0000

> <Gold.PLP.part.metal>
0.0000

> <Gold.PLP.part.buried>
1.8269

> <Gold.PLP.part.nonpolar>
-50.4355

> <Gold.PLP.part.repulsive>
0.0697

> <Gold.PLP.ligand.clash>
0.0000

> <Gold.PLP.ligand.torsion>
0.4025

> <Gold.PLP.Chemscore.Hbond>
2.0000

> <Gold.PLP.Chemscore.CHOScore>
0.0000

> <Gold.PLP.Chemscore.Metal>
0.0000

> <Gold.Chemscore.Hbonds>
donor molecule, donor type, donor heavy atom, donor atom, acceptor molecule, acceptor atom, score
      L1  H    15    37       P1  7948  2.00

> <Gold.PLP.Chemscore.Internal.Correction>
0.0206

> <Gold.Rescore>
     Score         DG    S(hbond)    S(metal)    S(lipo)     H(rot)  DE(clash)    DE(int)     intcor
     15.96     -16.71       1.00        0.00     121.35       2.46       0.15       0.61       ----

> <Gold.Chemscore.Fitness>
15.9602

> <Gold.Chemscore.DG>
-16.7144

> <Gold.Chemscore.ZeroCoef>
-5.4800

> <Gold.Chemscore.Hbond>
0.9971

> <Gold.Chemscore.Metal>
0.0000

> <Gold.Chemscore.Lipo>
121.3484

> <Gold.Chemscore.Internal_Hbond>
0.0000

> <Gold.Chemscore.DEClash>
0.1484

> <Gold.Chemscore.DEInternal>
0.6058

> <Gold.Chemscore.Rot>
2.4584

> <Gold.Chemscore.Internal.Correction>
   9.000000E+99

> <Gold.Chemscore.Hbonds>
donor molecule, donor type, donor heavy atom, donor atom, acceptor molecule, acceptor atom, score
      L1  H    15    37       P1  7948  0.74

> <Gold.Chemscore.Hbond.Weighted>
-3.3303

> <Gold.Chemscore.Metal.Weighted>
-0.0000

> <Gold.Chemscore.Lipo.Weighted>
-14.1978

> <Gold.Chemscore.Internal_Hbond.Weighted>
0.0000

> <Gold.Chemscore.DEClash.Weighted>
0.1484

> <Gold.Chemscore.DEInternal.Weighted>
0.6058

> <Gold.Chemscore.Rot.Weighted>
6.2936

> <Gold.Chemscore.Internal.Correction.Weighted>
   9.000000E+99

> <Gold.Protein.RotatedTorsions>
[ 6907 6896 6895 6894 ] final -175.97 input  -60.11 | X-H torsion
[ 7974 7965 7964 7962 ] final    9.92 input  175.53 | X-H torsion
[ 8008 7997 7996 7995 ] final  -16.92 input   59.86 | X-H torsion
[ 10167 10162 10161 10158 ] final -128.83 input  -65.29 | X-H torsion
[ 10718 10713 10712 10709 ] final  174.27 input   66.30 | X-H torsion
[ 10763 10752 10751 10750 ] final -156.20 input  -60.55 | X-H torsion
[ 11005 11000 10999 10996 ] final  -71.77 input  -57.11 | X-H torsion

> <Gold.Protein.ActiveResidues>
 VAL166  LYS551  ARG553  GLY616  TRP617  ASP618  TYR619  PRO620  LYS621  CYS622 
 ASP623  PHE694  ASN695  SER759  ASP760  ASP761  ALA762  ILE779  LEU786  VAL792 
 PHE793  MET794  SER795  GLU796  ALA797  LYS798  CYS799  TRP800  GLU811  SER814 

> <Gold.Protein.RotatedAtoms>
  151.5973  133.3360  159.3039 H   0  0  0  0  0  0  0  0  0  0  0  0  # atno 6907 bound_to 6896
  150.8227  134.7446  159.6798 H   0  0  0  0  0  0  0  0  0  0  0  0  # atno 6908 bound_to 6896
  152.4319  134.5766  159.9988 H   0  0  0  0  0  0  0  0  0  0  0  0  # atno 6909 bound_to 6896
  146.2396  139.9712  142.8447 H   0  0  0  0  0  0  0  0  0  0  0  0  # atno 7974 bound_to 7965
  154.5017  140.2156  155.9334 H   0  0  0  0  0  0  0  0  0  0  0  0  # atno 8008 bound_to 7997
  156.1442  140.3174  155.8510 H   0  0  0  0  0  0  0  0  0  0  0  0  # atno 8009 bound_to 7997
  155.4063  140.0487  157.3025 H   0  0  0  0  0  0  0  0  0  0  0  0  # atno 8010 bound_to 7997
  139.9461  143.6108  152.2489 H   0  0  0  0  0  0  0  0  0  0  0  0  # atno 10167 bound_to 10162
  156.9520  131.0034  151.2946 H   0  0  0  0  0  0  0  0  0  0  0  0  # atno 10718 bound_to 10713
  154.7731  135.3151  154.8149 H   0  0  0  0  0  0  0  0  0  0  0  0  # atno 10763 bound_to 10752
  153.8879  135.6828  153.4767 H   0  0  0  0  0  0  0  0  0  0  0  0  # atno 10764 bound_to 10752
  153.1349  135.4764  154.9341 H   0  0  0  0  0  0  0  0  0  0  0  0  # atno 10765 bound_to 10752
  141.1598  133.6827  156.6957 H   0  0  0  0  0  0  0  0  0  0  0  0  # atno 11005 bound_to 11000
  145.1679  140.9706  143.4339 LP  0  0  0  0  0  0  0  0  0  0  0  0  # atno 17320 bound_to 7965
  145.0055  139.3558  143.6146 LP  0  0  0  0  0  0  0  0  0  0  0  0  # atno 17321 bound_to 7965
  139.6665  144.7662  151.1863 LP  0  0  0  0  0  0  0  0  0  0  0  0  # atno 17342 bound_to 10162
  140.7597  143.5929  150.8777 LP  0  0  0  0  0  0  0  0  0  0  0  0  # atno 17343 bound_to 10162
  157.5716  130.8314  149.8399 LP  0  0  0  0  0  0  0  0  0  0  0  0  # atno 17370 bound_to 10713
  156.0359  130.3751  150.1563 LP  0  0  0  0  0  0  0  0  0  0  0  0  # atno 17371 bound_to 10713
  140.2997  134.8174  157.4087 LP  0  0  0  0  0  0  0  0  0  0  0  0  # atno 17394 bound_to 11000
  140.1273  134.5141  155.8134 LP  0  0  0  0  0  0  0  0  0  0  0  0  # atno 17395 bound_to 11000

$$$$
