AV-unprocessed.smi:1283|AV-procd|sdf|5362|dock10
  -GOLD-   22720 4503D 1   1.00000     0.00000
 Structure written by MMmdl.
 30 31  0  0  0  0  0  0  0  0  1 V2000
  151.7357  137.8459  153.7596 C   0  0  0  0  0  0  0  0  0  0  0  0
  151.6858  138.6003  155.0130 N   0  0  0  0  0  0  0  0  0  0  0  0
  151.0988  139.8412  154.8784 N   0  0  0  0  0  0  0  0  0  0  0  0
  150.9946  140.6104  155.9065 C   0  0  0  0  0  0  0  0  0  0  0  0
  151.4727  140.2297  157.2260 C   0  0  0  0  0  0  0  0  0  0  0  0
  151.3607  141.0637  158.3300 N   0  0  0  0  0  0  0  0  0  0  0  0
  150.7828  142.3971  158.3914 C   0  0  0  0  0  0  0  0  0  0  0  0
  151.7027  143.3975  159.1089 C   0  0  1  0  0  0  0  0  0  0  0  0
  151.1553  144.8195  159.2527 C   0  0  0  0  0  0  0  0  0  0  0  0
  151.9327  145.3159  160.4509 C   0  0  0  0  0  0  0  0  0  0  0  0
  151.9815  144.0671  161.3277 C   0  0  0  0  0  0  0  0  0  0  0  0
  152.0132  142.9604  160.4298 O   0  0  0  0  0  0  0  0  0  0  0  0
  152.0445  139.0006  157.3327 C   0  0  0  0  0  0  0  0  0  0  0  0
  152.6439  138.4473  158.8611 Cl  0  0  0  0  0  0  0  0  0  0  0  0
  152.1801  138.0947  156.1822 C   0  0  0  0  0  0  0  0  0  0  0  0
  152.6928  136.9776  156.2594 O   0  0  0  0  0  0  0  0  0  0  0  0
  152.1993  136.8628  153.8491 H   0  0  0  0  0  0  0  0  0  0  0  0
  152.2995  138.4029  153.0101 H   0  0  0  0  0  0  0  0  0  0  0  0
  150.7267  137.6949  153.3741 H   0  0  0  0  0  0  0  0  0  0  0  0
  150.5369  141.5962  155.8290 H   0  0  0  0  0  0  0  0  0  0  0  0
  151.7187  140.7147  159.2080 H   0  0  0  0  0  0  0  0  0  0  0  0
  150.5826  142.7430  157.3770 H   0  0  0  0  0  0  0  0  0  0  0  0
  149.8240  142.3450  158.9083 H   0  0  0  0  0  0  0  0  0  0  0  0
  152.6492  143.4504  158.5690 H   0  0  0  0  0  0  0  0  0  0  0  0
  151.3086  145.4267  158.3603 H   0  0  0  0  0  0  0  0  0  0  0  0
  150.0893  144.8161  159.4836 H   0  0  0  0  0  0  0  0  0  0  0  0
  152.9410  145.6048  160.1509 H   0  0  0  0  0  0  0  0  0  0  0  0
  151.4645  146.1672  160.9457 H   0  0  0  0  0  0  0  0  0  0  0  0
  152.8406  144.0625  161.9988 H   0  0  0  0  0  0  0  0  0  0  0  0
  151.0775  143.9942  161.9336 H   0  0  0  0  0  0  0  0  0  0  0  0
  1  2  1  0  0  0  0
  1 17  1  0  0  0  0
  1 18  1  0  0  0  0
  1 19  1  0  0  0  0
  2 15  1  0  0  0  0
  2  3  1  0  0  0  0
  3  4  2  0  0  0  0
  4  5  1  0  0  0  0
  4 20  1  0  0  0  0
  5  6  1  0  0  0  0
  5 13  2  0  0  0  0
  6  7  1  0  0  0  0
  6 21  1  0  0  0  0
  7  8  1  0  0  0  0
  7 22  1  0  0  0  0
  7 23  1  0  0  0  0
  8 12  1  0  0  0  0
  8  9  1  0  0  0  0
  8 24  1  0  0  0  0
  9 10  1  0  0  0  0
  9 25  1  0  0  0  0
  9 26  1  0  0  0  0
 10 11  1  0  0  0  0
 10 27  1  0  0  0  0
 10 28  1  0  0  0  0
 11 12  1  0  0  0  0
 11 29  1  0  0  0  0
 11 30  1  0  0  0  0
 13 14  1  0  0  0  0
 13 15  1  0  0  0  0
 15 16  2  0  0  0  0
M  END
> <s_m_source_file>
AV-unprocessed.smi

> <i_m_source_file_index>
1283

> <i_lp_mmshare_version>
43012

> <i_f3d_flags>
0

> <s_epik_input>
W0NIM11uMW5bY0hdYyhjKENsKWMxPU8pW05IXVtDSDJdW0NAQEhdMltDSDJdW0NIMl1bQ0gyXU8y

> <s_epik_cmdline>
J2VwaWtfcHl0aG9uJywgJy1waCcsICc3LjAnLCAnLXRuJywgJzgnLCAnLW1hJywgJzIwMCcsICctbWV0YWxfYmluZGluZycsICctaW1hZScsICc8aW5maWxlLm1hZT4nLCAnLW9tYWUnLCAnPG91dGZpbGUubWFlPic=

> <r_lp_tautomer_probability>
1

> <r_epik_Ionization_Penalty>
2.40876e-05

> <r_epik_Ionization_Penalty_Charging>
4.17655e-09

> <r_epik_Ionization_Penalty_Neutral>
2.40834e-05

> <r_epik_State_Penalty>
-0

> <r_epik_Charging_Adjusted_Penalty>
4.17655e-09

> <i_epik_Tot_Q>
0

> <i_epik_Tot_abs_Q>
0

> <r_epik_Metal_State_Penalty>
-0

> <b_epik_Metal_Only>
0

> <s_lp_Force_Field>
OPLS_2005

> <r_lp_Energy>
41.0811

> <b_lp_Chiralities_Consistent>
1

> <s_lp_Variant>
AV-unprocessed.smi:1283-2

> <Gold.Version>
5.8.1

> <Gold.Id.Protein>
6NUR|6NUR_protein|mol2

> <Gold.PLP.Fitness>
37.4433

> <Gold.PLP.PLP>
-31.5894

> <Gold.PLP.part.hbond>
-2.0000

> <Gold.PLP.part.metal>
0.0000

> <Gold.PLP.part.buried>
-4.8450

> <Gold.PLP.part.nonpolar>
-25.5269

> <Gold.PLP.part.repulsive>
0.2093

> <Gold.PLP.ligand.clash>
0.0000

> <Gold.PLP.ligand.torsion>
0.0613

> <Gold.PLP.Chemscore.Hbond>
1.9920

> <Gold.PLP.Chemscore.CHOScore>
0.0000

> <Gold.PLP.Chemscore.Metal>
0.0000

> <Gold.Chemscore.Hbonds>
donor molecule, donor type, donor heavy atom, donor atom, acceptor molecule, acceptor atom, score
      P1  H  7989  7998       L1     3  1.00
      P1  H 10752 10765       L1    16  0.88

> <Gold.PLP.Chemscore.Internal.Correction>
0.0004

> <Gold.Rescore>
     Score         DG    S(hbond)    S(metal)    S(lipo)     H(rot)  DE(clash)    DE(int)     intcor
     16.54     -16.86       1.45        0.00      82.71       1.22       0.23       0.09       ----

> <Gold.Chemscore.Fitness>
16.5403

> <Gold.Chemscore.DG>
-16.8627

> <Gold.Chemscore.ZeroCoef>
-5.4800

> <Gold.Chemscore.Hbond>
1.4464

> <Gold.Chemscore.Metal>
0.0000

> <Gold.Chemscore.Lipo>
82.7111

> <Gold.Chemscore.Internal_Hbond>
0.0000

> <Gold.Chemscore.DEClash>
0.2306

> <Gold.Chemscore.DEInternal>
0.0918

> <Gold.Chemscore.Rot>
1.2208

> <Gold.Chemscore.Internal.Correction>
   9.000000E+99

> <Gold.Chemscore.Hbonds>
donor molecule, donor type, donor heavy atom, donor atom, acceptor molecule, acceptor atom, score
      P1  H  7989  7998       L1     3  0.57
      P1  H 10752 10765       L1    16  0.86

> <Gold.Chemscore.Hbond.Weighted>
-4.8308

> <Gold.Chemscore.Metal.Weighted>
-0.0000

> <Gold.Chemscore.Lipo.Weighted>
-9.6772

> <Gold.Chemscore.Internal_Hbond.Weighted>
0.0000

> <Gold.Chemscore.DEClash.Weighted>
0.2306

> <Gold.Chemscore.DEInternal.Weighted>
0.0918

> <Gold.Chemscore.Rot.Weighted>
3.1253

> <Gold.Chemscore.Internal.Correction.Weighted>
   9.000000E+99

> <Gold.Protein.RotatedTorsions>
[ 6907 6896 6895 6894 ] final -154.52 input  -60.11 | X-H torsion
[ 7974 7965 7964 7962 ] final   24.71 input  175.53 | X-H torsion
[ 8008 7997 7996 7995 ] final   20.48 input   59.86 | X-H torsion
[ 10167 10162 10161 10158 ] final   87.21 input  -65.29 | X-H torsion
[ 10718 10713 10712 10709 ] final   56.08 input   66.30 | X-H torsion
[ 10763 10752 10751 10750 ] final -143.33 input  -60.55 | X-H torsion
[ 11005 11000 10999 10996 ] final  154.80 input  -57.11 | X-H torsion

> <Gold.Protein.ActiveResidues>
 VAL166  LYS551  ARG553  GLY616  TRP617  ASP618  TYR619  PRO620  LYS621  CYS622 
 ASP623  PHE694  ASN695  SER759  ASP760  ASP761  ALA762  ILE779  LEU786  VAL792 
 PHE793  MET794  SER795  GLU796  ALA797  LYS798  CYS799  TRP800  GLU811  SER814 

> <Gold.Protein.RotatedAtoms>
  151.2587  133.4313  159.2614 H   0  0  0  0  0  0  0  0  0  0  0  0  # atno 6907 bound_to 6896
  151.0551  134.9699  159.8241 H   0  0  0  0  0  0  0  0  0  0  0  0  # atno 6908 bound_to 6896
  152.5389  134.2540  159.8962 H   0  0  0  0  0  0  0  0  0  0  0  0  # atno 6909 bound_to 6896
  146.1924  139.7567  142.8822 H   0  0  0  0  0  0  0  0  0  0  0  0  # atno 7974 bound_to 7965
  154.9363  140.3047  155.5142 H   0  0  0  0  0  0  0  0  0  0  0  0  # atno 8008 bound_to 7997
  156.2999  140.2344  156.4365 H   0  0  0  0  0  0  0  0  0  0  0  0  # atno 8009 bound_to 7997
  154.8188  140.0424  157.1385 H   0  0  0  0  0  0  0  0  0  0  0  0  # atno 8010 bound_to 7997
  139.8797  144.6447  150.8857 H   0  0  0  0  0  0  0  0  0  0  0  0  # atno 10167 bound_to 10162
  157.5400  130.8690  149.8809 H   0  0  0  0  0  0  0  0  0  0  0  0  # atno 10718 bound_to 10713
  154.8474  135.3471  154.6170 H   0  0  0  0  0  0  0  0  0  0  0  0  # atno 10763 bound_to 10752
  153.6779  135.6981  153.5131 H   0  0  0  0  0  0  0  0  0  0  0  0  # atno 10764 bound_to 10752
  153.2691  135.4298  155.0926 H   0  0  0  0  0  0  0  0  0  0  0  0  # atno 10765 bound_to 10752
  140.1523  134.8666  157.2469 H   0  0  0  0  0  0  0  0  0  0  0  0  # atno 11005 bound_to 11000
  145.3750  141.0349  143.3210 LP  0  0  0  0  0  0  0  0  0  0  0  0  # atno 17320 bound_to 7965
  144.8513  139.5317  143.6855 LP  0  0  0  0  0  0  0  0  0  0  0  0  # atno 17321 bound_to 7965
  140.7747  143.3596  151.1854 LP  0  0  0  0  0  0  0  0  0  0  0  0  # atno 17342 bound_to 10162
  139.7207  143.9227  152.2984 LP  0  0  0  0  0  0  0  0  0  0  0  0  # atno 17343 bound_to 10162
  156.0489  130.3722  150.1249 LP  0  0  0  0  0  0  0  0  0  0  0  0  # atno 17370 bound_to 10713
  156.9429  130.9750  151.3513 LP  0  0  0  0  0  0  0  0  0  0  0  0  # atno 17371 bound_to 10713
  140.2590  134.3593  155.7413 LP  0  0  0  0  0  0  0  0  0  0  0  0  # atno 17394 bound_to 11000
  141.2200  133.7359  156.9051 LP  0  0  0  0  0  0  0  0  0  0  0  0  # atno 17395 bound_to 11000

$$$$
