AV-unprocessed.smi:1725|AV-procd|sdf|6956|dock2
  -GOLD-   22720 8163D 1   1.00000     0.00000
 Structure written by MMmdl.
 35 36  0  0  0  0  0  0  0  0  2 V2000
  150.4484  137.3355  156.0819 C   0  0  0  0  0  0  0  0  0  0  0  0
  150.5390  138.6138  155.2366 C   0  0  1  0  0  0  0  0  0  0  0  0
  149.2151  139.1162  155.0780 O   0  0  0  0  0  0  0  0  0  0  0  0
  149.1130  140.3683  154.4069 C   0  0  0  0  0  0  0  0  0  0  0  0
  147.6620  140.7489  154.1767 C   0  0  0  0  0  0  0  0  0  0  0  0
  147.2526  142.2033  154.0669 C   0  0  0  0  0  0  0  0  0  0  0  0
  146.8358  141.3986  155.2682 C   0  0  0  0  0  0  0  0  0  0  0  0
  151.4296  139.6671  155.9149 C   0  0  0  0  0  0  0  0  0  0  0  0
  152.3623  140.1663  155.2850 O   0  0  0  0  0  0  0  0  0  0  0  0
  151.1031  139.9671  157.1871 N   0  0  0  0  0  0  0  0  0  0  0  0
  151.7466  140.8296  158.0903 C   0  0  0  0  0  0  0  0  0  0  0  0
  151.2703  142.0481  158.4686 C   0  0  0  0  0  0  0  0  0  0  0  0
  151.9915  142.9122  159.3953 C   0  0  0  0  0  0  0  0  0  0  0  0
  151.5065  144.2773  159.8478 C   0  0  0  0  0  0  0  0  0  0  0  0
  152.1677  145.2382  159.2033 F   0  0  0  0  0  0  0  0  0  0  0  0
  150.2088  144.4181  159.5784 F   0  0  0  0  0  0  0  0  0  0  0  0
  151.6853  144.4490  161.1577 F   0  0  0  0  0  0  0  0  0  0  0  0
  153.1827  142.3547  159.8146 C   0  0  0  0  0  0  0  0  0  0  0  0
  153.7285  141.1639  159.4830 N   0  5  0  0  0  0  0  0  0  0  0  0
  153.0473  140.3642  158.6144 C   0  0  0  0  0  0  0  0  0  0  0  0
  153.4910  139.2708  158.2612 O   0  0  0  0  0  0  0  0  0  0  0  0
  151.4346  136.8996  156.2451 H   0  0  0  0  0  0  0  0  0  0  0  0
  149.8360  136.5852  155.5818 H   0  0  0  0  0  0  0  0  0  0  0  0
  150.0009  137.5288  157.0576 H   0  0  0  0  0  0  0  0  0  0  0  0
  150.9460  138.3514  154.2579 H   0  0  0  0  0  0  0  0  0  0  0  0
  149.5855  141.1650  154.9821 H   0  0  0  0  0  0  0  0  0  0  0  0
  149.6179  140.3144  153.4417 H   0  0  0  0  0  0  0  0  0  0  0  0
  147.1298  140.0571  153.5266 H   0  0  0  0  0  0  0  0  0  0  0  0
  148.0186  142.9627  154.2121 H   0  0  0  0  0  0  0  0  0  0  0  0
  146.4842  142.4536  153.3385 H   0  0  0  0  0  0  0  0  0  0  0  0
  145.7880  141.1142  155.3405 H   0  0  0  0  0  0  0  0  0  0  0  0
  147.3212  141.6235  156.2159 H   0  0  0  0  0  0  0  0  0  0  0  0
  150.2585  139.5448  157.5448 H   0  0  0  0  0  0  0  0  0  0  0  0
  150.3423  142.4228  158.0688 H   0  0  0  0  0  0  0  0  0  0  0  0
  153.7888  142.9607  160.5215 H   0  0  0  0  0  0  0  0  0  0  0  0
  1  2  1  0  0  0  0
  1 22  1  0  0  0  0
  1 23  1  0  0  0  0
  1 24  1  0  0  0  0
  2  3  1  0  0  0  0
  2  8  1  0  0  0  0
  2 25  1  0  0  0  0
  3  4  1  0  0  0  0
  4  5  1  0  0  0  0
  4 26  1  0  0  0  0
  4 27  1  0  0  0  0
  5  7  1  0  0  0  0
  5  6  1  0  0  0  0
  5 28  1  0  0  0  0
  6  7  1  0  0  0  0
  6 29  1  0  0  0  0
  6 30  1  0  0  0  0
  7 31  1  0  0  0  0
  7 32  1  0  0  0  0
  8  9  2  0  0  0  0
  8 10  1  0  0  0  0
 10 11  1  0  0  0  0
 10 33  1  0  0  0  0
 11 20  1  0  0  0  0
 11 12  2  0  0  0  0
 12 13  1  0  0  0  0
 12 34  1  0  0  0  0
 13 14  1  0  0  0  0
 13 18  2  0  0  0  0
 14 15  1  0  0  0  0
 14 16  1  0  0  0  0
 14 17  1  0  0  0  0
 18 19  1  0  0  0  0
 18 35  1  0  0  0  0
 19 20  1  0  0  0  0
 20 21  2  0  0  0  0
M  CHG  1  19  -1
M  END
> <s_m_source_file>
AV-unprocessed.smi

> <i_m_source_file_index>
1725

> <i_lp_mmshare_version>
43012

> <i_f3d_flags>
0

> <s_epik_input>
W0NIMl0xW0NIMl1bQ0hdMVtDSDJdT1tDQEBIXShbQ0gzXSlDKD1PKVtOSF1jMltjSF1jKEMoRikoRilGKVtjSF1bbkhdYzI9Tw==

> <s_epik_cmdline>
J2VwaWtfcHl0aG9uJywgJy1waCcsICc3LjAnLCAnLXRuJywgJzgnLCAnLW1hJywgJzIwMCcsICctbWV0YWxfYmluZGluZycsICctaW1hZScsICc8aW5maWxlLm1hZT4nLCAnLW9tYWUnLCAnPG91dGZpbGUubWFlPic=

> <r_lp_tautomer_probability>
0.999

> <r_epik_Ionization_Penalty>
2.64397

> <r_epik_Ionization_Penalty_Charging>
0.0618254

> <r_epik_Ionization_Penalty_Neutral>
2.58215

> <r_epik_State_Penalty>
2.58023

> <r_epik_Charging_Adjusted_Penalty>
2.64205

> <i_epik_Tot_Q>
-1

> <i_epik_Tot_abs_Q>
1

> <r_epik_Metal_State_Penalty>
0.429101

> <b_epik_Metal_Only>
1

> <s_lp_Force_Field>
OPLS_2005

> <r_lp_Energy>
29.0368

> <b_lp_Chiralities_Consistent>
1

> <s_lp_Variant>
AV-unprocessed.smi:1725-4

> <Gold.Version>
5.8.1

> <Gold.Id.Protein>
6NUR|6NUR_protein|mol2

> <Gold.PLP.Fitness>
43.2636

> <Gold.PLP.PLP>
-42.1995

> <Gold.PLP.part.hbond>
-2.5429

> <Gold.PLP.part.metal>
0.0000

> <Gold.PLP.part.buried>
-3.7316

> <Gold.PLP.part.nonpolar>
-35.7381

> <Gold.PLP.part.repulsive>
0.1436

> <Gold.PLP.ligand.clash>
0.0000

> <Gold.PLP.ligand.torsion>
1.7085

> <Gold.PLP.Chemscore.Hbond>
1.2740

> <Gold.PLP.Chemscore.CHOScore>
0.0000

> <Gold.PLP.Chemscore.Metal>
0.0000

> <Gold.Chemscore.Hbonds>
donor molecule, donor type, donor heavy atom, donor atom, acceptor molecule, acceptor atom, score
      P1  H  7989  7998       L1     9  0.61
      P1  H  7997  8009       L1    21  0.65

> <Gold.PLP.Chemscore.Internal.Correction>
0.6591

> <Gold.Rescore>
     Score         DG    S(hbond)    S(metal)    S(lipo)     H(rot)  DE(clash)    DE(int)     intcor
     11.40     -12.72       0.82        0.00      76.87       1.76       0.22       1.10       ----

> <Gold.Chemscore.Fitness>
11.4010

> <Gold.Chemscore.DG>
-12.7174

> <Gold.Chemscore.ZeroCoef>
-5.4800

> <Gold.Chemscore.Hbond>
0.8235

> <Gold.Chemscore.Metal>
0.0000

> <Gold.Chemscore.Lipo>
76.8670

> <Gold.Chemscore.Internal_Hbond>
0.0000

> <Gold.Chemscore.DEClash>
0.2165

> <Gold.Chemscore.DEInternal>
1.0998

> <Gold.Chemscore.Rot>
1.7604

> <Gold.Chemscore.Internal.Correction>
   9.000000E+99

> <Gold.Chemscore.Hbonds>
donor molecule, donor type, donor heavy atom, donor atom, acceptor molecule, acceptor atom, score
      P1  H  7989  7998       L1     9  0.42
      P1  H  7997  8009       L1    21  0.06

> <Gold.Chemscore.Hbond.Weighted>
-2.7505

> <Gold.Chemscore.Metal.Weighted>
-0.0000

> <Gold.Chemscore.Lipo.Weighted>
-8.9934

> <Gold.Chemscore.Internal_Hbond.Weighted>
0.0000

> <Gold.Chemscore.DEClash.Weighted>
0.2165

> <Gold.Chemscore.DEInternal.Weighted>
1.0998

> <Gold.Chemscore.Rot.Weighted>
4.5065

> <Gold.Chemscore.Internal.Correction.Weighted>
   9.000000E+99

> <Gold.Protein.RotatedTorsions>
[ 6907 6896 6895 6894 ] final  124.29 input  -60.11 | X-H torsion
[ 7974 7965 7964 7962 ] final  -20.93 input  175.53 | X-H torsion
[ 8008 7997 7996 7995 ] final  149.88 input   59.86 | X-H torsion
[ 10167 10162 10161 10158 ] final  145.48 input  -65.29 | X-H torsion
[ 10718 10713 10712 10709 ] final  -25.85 input   66.30 | X-H torsion
[ 10763 10752 10751 10750 ] final  101.46 input  -60.55 | X-H torsion
[ 11005 11000 10999 10996 ] final  159.59 input  -57.11 | X-H torsion

> <Gold.Protein.ActiveResidues>
 VAL166  LYS551  ARG553  GLY616  TRP617  ASP618  TYR619  PRO620  LYS621  CYS622 
 ASP623  PHE694  ASN695  SER759  ASP760  ASP761  ALA762  ILE779  LEU786  VAL792 
 PHE793  MET794  SER795  GLU796  ALA797  LYS798  CYS799  TRP800  GLU811  SER814 

> <Gold.Protein.RotatedAtoms>
  152.4091  133.6935  159.6381 H   0  0  0  0  0  0  0  0  0  0  0  0  # atno 6907 bound_to 6896
  150.7973  133.8657  159.3253 H   0  0  0  0  0  0  0  0  0  0  0  0  # atno 6908 bound_to 6896
  151.6404  135.1015  160.0191 H   0  0  0  0  0  0  0  0  0  0  0  0  # atno 6909 bound_to 6896
  146.1761  140.4271  142.8513 H   0  0  0  0  0  0  0  0  0  0  0  0  # atno 7974 bound_to 7965
  156.2738  140.2090  156.5929 H   0  0  0  0  0  0  0  0  0  0  0  0  # atno 8008 bound_to 7997
  154.6968  140.0525  157.0442 H   0  0  0  0  0  0  0  0  0  0  0  0  # atno 8009 bound_to 7997
  155.0790  140.3184  155.4610 H   0  0  0  0  0  0  0  0  0  0  0  0  # atno 8010 bound_to 7997
  139.4925  144.5899  151.6703 H   0  0  0  0  0  0  0  0  0  0  0  0  # atno 10167 bound_to 10162
  156.4589  130.4499  149.6941 H   0  0  0  0  0  0  0  0  0  0  0  0  # atno 10718 bound_to 10713
  153.3269  135.4044  155.1464 H   0  0  0  0  0  0  0  0  0  0  0  0  # atno 10763 bound_to 10752
  154.8614  135.3601  154.5521 H   0  0  0  0  0  0  0  0  0  0  0  0  # atno 10764 bound_to 10752
  153.5958  135.7072  153.5463 H   0  0  0  0  0  0  0  0  0  0  0  0  # atno 10765 bound_to 10752
  140.1977  134.8361  157.2983 H   0  0  0  0  0  0  0  0  0  0  0  0  # atno 11005 bound_to 11000
  144.8238  140.6595  143.6335 LP  0  0  0  0  0  0  0  0  0  0  0  0  # atno 17320 bound_to 7965
  145.4208  139.1564  143.4075 LP  0  0  0  0  0  0  0  0  0  0  0  0  # atno 17321 bound_to 7965
  140.5523  144.0405  150.6132 LP  0  0  0  0  0  0  0  0  0  0  0  0  # atno 17342 bound_to 10162
  140.3463  143.2989  152.0535 LP  0  0  0  0  0  0  0  0  0  0  0  0  # atno 17343 bound_to 10162
  156.3738  130.7544  151.2530 LP  0  0  0  0  0  0  0  0  0  0  0  0  # atno 17370 bound_to 10713
  157.7499  131.0315  150.4186 LP  0  0  0  0  0  0  0  0  0  0  0  0  # atno 17371 bound_to 10713
  140.2089  134.4163  155.7623 LP  0  0  0  0  0  0  0  0  0  0  0  0  # atno 17394 bound_to 11000
  141.2227  133.7108  156.8306 LP  0  0  0  0  0  0  0  0  0  0  0  0  # atno 17395 bound_to 11000

$$$$
