AV-unprocessed.smi:2511|AV-procd|sdf|9886|dock5
  -GOLD-   2272013523D 1   1.00000     0.00000
 Structure written by MMmdl.
 40 41  0  0  0  0  0  0  0  0  1 V2000
  142.4330  132.4083  150.1126 N   0  0  0  0  0  0  0  0  0  0  0  0
  143.6881  132.2674  150.5524 C   0  0  0  0  0  0  0  0  0  0  0  0
  144.2737  131.1859  150.5254 O   0  0  0  0  0  0  0  0  0  0  0  0
  144.3365  133.4991  151.1265 C   0  0  0  0  0  0  0  0  0  0  0  0
  143.5471  134.4724  151.7805 C   0  0  0  0  0  0  0  0  0  0  0  0
  144.1713  135.6145  152.3172 C   0  0  0  0  0  0  0  0  0  0  0  0
  145.5724  135.7560  152.1825 C   0  0  0  0  0  0  0  0  0  0  0  0
  146.3230  136.8508  152.6898 N   0  0  0  0  0  0  0  0  0  0  0  0
  146.1410  137.5443  153.8308 C   0  0  0  0  0  0  0  0  0  0  0  0
  145.2570  137.3192  154.6541 O   0  0  0  0  0  0  0  0  0  0  0  0
  147.0123  138.5543  154.0089 N   0  0  0  0  0  0  0  0  0  0  0  0
  147.1043  139.5026  155.1242 C   0  0  2  0  0  0  0  0  0  0  0  0
  147.0405  140.9477  154.5935 C   0  0  0  0  0  0  0  0  0  0  0  0
  148.3161  141.3428  153.8304 C   0  0  0  0  0  0  0  0  0  0  0  0
  149.5726  141.1241  154.6877 C   0  0  0  0  0  0  0  0  0  0  0  0
  149.6732  139.6690  155.1919 C   0  0  1  0  0  0  0  0  0  0  0  0
  150.9406  139.4362  156.0403 C   0  0  0  0  0  0  0  0  0  0  0  0
  151.0258  140.3338  157.0226 F   0  0  0  0  0  0  0  0  0  0  0  0
  150.9143  138.2148  156.5737 F   0  0  0  0  0  0  0  0  0  0  0  0
  152.0273  139.5319  155.2741 F   0  0  0  0  0  0  0  0  0  0  0  0
  148.3872  139.2836  155.9579 C   0  0  0  0  0  0  0  0  0  0  0  0
  146.2742  134.7211  151.5324 C   0  0  0  0  0  0  0  0  0  0  0  0
  145.6813  133.6251  151.0145 N   0  0  0  0  0  0  0  0  0  0  0  0
  141.9462  131.6191  149.7137 H   0  0  0  0  0  0  0  0  0  0  0  0
  141.9820  133.3092  150.1806 H   0  0  0  0  0  0  0  0  0  0  0  0
  142.4774  134.3535  151.8752 H   0  0  0  0  0  0  0  0  0  0  0  0
  143.5651  136.3458  152.8284 H   0  0  0  0  0  0  0  0  0  0  0  0
  147.0482  137.1963  152.0780 H   0  0  0  0  0  0  0  0  0  0  0  0
  147.6926  138.6855  153.2741 H   0  0  0  0  0  0  0  0  0  0  0  0
  146.2370  139.3585  155.7708 H   0  0  0  0  0  0  0  0  0  0  0  0
  146.1664  141.0776  153.9541 H   0  0  0  0  0  0  0  0  0  0  0  0
  146.9041  141.6303  155.4334 H   0  0  0  0  0  0  0  0  0  0  0  0
  148.3944  140.7599  152.9121 H   0  0  0  0  0  0  0  0  0  0  0  0
  148.2543  142.3875  153.5249 H   0  0  0  0  0  0  0  0  0  0  0  0
  150.4563  141.3801  154.1025 H   0  0  0  0  0  0  0  0  0  0  0  0
  149.5567  141.8098  155.5358 H   0  0  0  0  0  0  0  0  0  0  0  0
  149.7497  139.0206  154.3176 H   0  0  0  0  0  0  0  0  0  0  0  0
  148.3201  139.8835  156.8663 H   0  0  0  0  0  0  0  0  0  0  0  0
  148.4469  138.2477  156.2921 H   0  0  0  0  0  0  0  0  0  0  0  0
  147.3471  134.7749  151.4175 H   0  0  0  0  0  0  0  0  0  0  0  0
  1  2  1  0  0  0  0
  1 24  1  0  0  0  0
  1 25  1  0  0  0  0
  2  3  2  0  0  0  0
  2  4  1  0  0  0  0
  4 23  1  0  0  0  0
  4  5  2  0  0  0  0
  5  6  1  0  0  0  0
  5 26  1  0  0  0  0
  6  7  2  0  0  0  0
  6 27  1  0  0  0  0
  7  8  1  0  0  0  0
  7 22  1  0  0  0  0
  8  9  1  0  0  0  0
  8 28  1  0  0  0  0
  9 10  2  0  0  0  0
  9 11  1  0  0  0  0
 11 12  1  0  0  0  0
 11 29  1  0  0  0  0
 12 21  1  0  0  0  0
 12 13  1  0  0  0  0
 12 30  1  0  0  0  0
 13 14  1  0  0  0  0
 13 31  1  0  0  0  0
 13 32  1  0  0  0  0
 14 15  1  0  0  0  0
 14 33  1  0  0  0  0
 14 34  1  0  0  0  0
 15 16  1  0  0  0  0
 15 35  1  0  0  0  0
 15 36  1  0  0  0  0
 16 17  1  0  0  0  0
 16 21  1  0  0  0  0
 16 37  1  0  0  0  0
 17 18  1  0  0  0  0
 17 19  1  0  0  0  0
 17 20  1  0  0  0  0
 21 38  1  0  0  0  0
 21 39  1  0  0  0  0
 22 23  2  0  0  0  0
 22 40  1  0  0  0  0
M  END
> <s_m_source_file>
AV-unprocessed.smi

> <i_m_source_file_index>
2511

> <i_lp_mmshare_version>
43012

> <i_f3d_flags>
0

> <s_epik_input>
W05IMl1DKD1PKWMxW2NIXVtjSF1jKFtjSF1uMSlbTkhdQyg9TylbTkhdW0NAQEhdMltDSDJdW0NIMl1bQ0gyXVtDQEBIXShDKEYpKEYpRilbQ0gyXTI=

> <s_epik_cmdline>
J2VwaWtfcHl0aG9uJywgJy1waCcsICc3LjAnLCAnLXRuJywgJzgnLCAnLW1hJywgJzIwMCcsICctbWV0YWxfYmluZGluZycsICctaW1hZScsICc8aW5maWxlLm1hZT4nLCAnLW9tYWUnLCAnPG91dGZpbGUubWFlPic=

> <r_lp_tautomer_probability>
1

> <r_epik_Ionization_Penalty>
4.28758e-05

> <r_epik_Ionization_Penalty_Charging>
0

> <r_epik_Ionization_Penalty_Neutral>
4.28758e-05

> <r_epik_State_Penalty>
-0

> <r_epik_Charging_Adjusted_Penalty>
0

> <i_epik_Tot_Q>
0

> <i_epik_Tot_abs_Q>
0

> <r_epik_Metal_State_Penalty>
-0

> <b_epik_Metal_Only>
0

> <s_lp_Force_Field>
OPLS_2005

> <r_lp_Energy>
27.7433

> <b_lp_Chiralities_Consistent>
1

> <s_lp_Variant>
AV-unprocessed.smi:2511-1

> <Gold.Version>
5.8.1

> <Gold.Id.Protein>
6NUR|6NUR_protein|mol2

> <Gold.PLP.Fitness>
41.1935

> <Gold.PLP.PLP>
-32.4321

> <Gold.PLP.part.hbond>
-3.8734

> <Gold.PLP.part.metal>
0.0000

> <Gold.PLP.part.buried>
-1.5590

> <Gold.PLP.part.nonpolar>
-26.9297

> <Gold.PLP.part.repulsive>
0.4827

> <Gold.PLP.ligand.clash>
0.0000

> <Gold.PLP.ligand.torsion>
0.8611

> <Gold.PLP.Chemscore.Hbond>
2.4846

> <Gold.PLP.Chemscore.CHOScore>
1.0000

> <Gold.PLP.Chemscore.Metal>
0.0000

> <Gold.Chemscore.Hbonds>
donor molecule, donor type, donor heavy atom, donor atom, acceptor molecule, acceptor atom, score
      L1  H     1    24       P1 10952  1.00
      L1  H     1    25       P1 10186  0.99
      L1  H     8    28       P1  7948  0.37
      P1  H 10785 10796       L1     3  0.14
      L1  C    22    40       P1  7948  1.00

> <Gold.PLP.Chemscore.Internal.Correction>
0.0296

> <Gold.Rescore>
     Score         DG    S(hbond)    S(metal)    S(lipo)     H(rot)  DE(clash)    DE(int)     intcor
     16.06     -17.41       2.22        0.00      60.42       1.00       0.52       0.83       ----

> <Gold.Chemscore.Fitness>
16.0592

> <Gold.Chemscore.DG>
-17.4100

> <Gold.Chemscore.ZeroCoef>
-5.4800

> <Gold.Chemscore.Hbond>
2.2218

> <Gold.Chemscore.Metal>
0.0000

> <Gold.Chemscore.Lipo>
60.4201

> <Gold.Chemscore.Internal_Hbond>
0.0000

> <Gold.Chemscore.DEClash>
0.5219

> <Gold.Chemscore.DEInternal>
0.8289

> <Gold.Chemscore.Rot>
1.0000

> <Gold.Chemscore.Internal.Correction>
   9.000000E+99

> <Gold.Chemscore.Hbonds>
donor molecule, donor type, donor heavy atom, donor atom, acceptor molecule, acceptor atom, score
      L1  H     1    24       P1 10952  0.99
      L1  H     1    25       P1 10186  0.92
      L1  H     8    28       P1  7948  0.36
      P1  H 10785 10796       L1     3  0.05

> <Gold.Chemscore.Hbond.Weighted>
-7.4208

> <Gold.Chemscore.Metal.Weighted>
-0.0000

> <Gold.Chemscore.Lipo.Weighted>
-7.0691

> <Gold.Chemscore.Internal_Hbond.Weighted>
0.0000

> <Gold.Chemscore.DEClash.Weighted>
0.5219

> <Gold.Chemscore.DEInternal.Weighted>
0.8289

> <Gold.Chemscore.Rot.Weighted>
2.5600

> <Gold.Chemscore.Internal.Correction.Weighted>
   9.000000E+99

> <Gold.Protein.RotatedTorsions>
[ 6907 6896 6895 6894 ] final -153.08 input  -60.11 | X-H torsion
[ 7974 7965 7964 7962 ] final  130.59 input  175.53 | X-H torsion
[ 8008 7997 7996 7995 ] final  -94.81 input   59.86 | X-H torsion
[ 10167 10162 10161 10158 ] final  -18.08 input  -65.29 | X-H torsion
[ 10718 10713 10712 10709 ] final   41.62 input   66.30 | X-H torsion
[ 10763 10752 10751 10750 ] final -169.03 input  -60.55 | X-H torsion
[ 11005 11000 10999 10996 ] final -119.75 input  -57.11 | X-H torsion

> <Gold.Protein.ActiveResidues>
 VAL166  LYS551  ARG553  GLY616  TRP617  ASP618  TYR619  PRO620  LYS621  CYS622 
 ASP623  PHE694  ASN695  SER759  ASP760  ASP761  ALA762  ILE779  LEU786  VAL792 
 PHE793  MET794  SER795  GLU796  ALA797  LYS798  CYS799  TRP800  GLU811  SER814 

> <Gold.Protein.RotatedAtoms>
  151.2373  133.4418  159.2605 H   0  0  0  0  0  0  0  0  0  0  0  0  # atno 6907 bound_to 6896
  151.0738  134.9815  159.8332 H   0  0  0  0  0  0  0  0  0  0  0  0  # atno 6908 bound_to 6896
  152.5415  134.2317  159.8880 H   0  0  0  0  0  0  0  0  0  0  0  0  # atno 6909 bound_to 6896
  145.0163  139.4173  143.5220 H   0  0  0  0  0  0  0  0  0  0  0  0  # atno 7974 bound_to 7965
  154.7533  140.0486  157.0911 H   0  0  0  0  0  0  0  0  0  0  0  0  # atno 8008 bound_to 7997
  155.0030  140.3127  155.4840 H   0  0  0  0  0  0  0  0  0  0  0  0  # atno 8009 bound_to 7997
  156.2889  140.2198  156.5141 H   0  0  0  0  0  0  0  0  0  0  0  0  # atno 8010 bound_to 7997
  140.7255  143.4951  150.9941 H   0  0  0  0  0  0  0  0  0  0  0  0  # atno 10167 bound_to 10162
  157.3956  130.7831  149.7306 H   0  0  0  0  0  0  0  0  0  0  0  0  # atno 10718 bound_to 10713
  154.6566  135.2919  154.9919 H   0  0  0  0  0  0  0  0  0  0  0  0  # atno 10763 bound_to 10752
  154.0993  135.6579  153.4869 H   0  0  0  0  0  0  0  0  0  0  0  0  # atno 10764 bound_to 10752
  153.0406  135.5239  154.7499 H   0  0  0  0  0  0  0  0  0  0  0  0  # atno 10765 bound_to 10752
  141.0193  134.0148  157.3305 H   0  0  0  0  0  0  0  0  0  0  0  0  # atno 11005 bound_to 11000
  146.3478  139.9635  142.8714 LP  0  0  0  0  0  0  0  0  0  0  0  0  # atno 17320 bound_to 7965
  145.1955  140.9831  143.4186 LP  0  0  0  0  0  0  0  0  0  0  0  0  # atno 17321 bound_to 7965
  139.8658  143.7256  152.3170 LP  0  0  0  0  0  0  0  0  0  0  0  0  # atno 17342 bound_to 10162
  139.7487  144.7540  151.0539 LP  0  0  0  0  0  0  0  0  0  0  0  0  # atno 17343 bound_to 10162
  155.9809  130.4024  150.3499 LP  0  0  0  0  0  0  0  0  0  0  0  0  # atno 17370 bound_to 10713
  157.1620  131.0347  151.2836 LP  0  0  0  0  0  0  0  0  0  0  0  0  # atno 17371 bound_to 10713
  139.9136  135.0194  156.7792 LP  0  0  0  0  0  0  0  0  0  0  0  0  # atno 17394 bound_to 11000
  140.6601  133.9653  155.7800 LP  0  0  0  0  0  0  0  0  0  0  0  0  # atno 17395 bound_to 11000

$$$$
