AV-unprocessed.smi:2472|AV-procd|sdf|9742|dock8
  -GOLD-   2272013383D 1   1.00000     0.00000
 Structure written by MMmdl.
 48 50  0  0  0  0  0  0  0  0  2 V2000
  149.0766  133.2255  152.6462 C   0  0  0  0  0  0  0  0  0  0  0  0
  149.9882  133.0250  153.8442 C   0  0  0  0  0  0  0  0  0  0  0  0
  150.3725  131.7181  154.2160 C   0  0  0  0  0  0  0  0  0  0  0  0
  151.1810  131.5255  155.2796 N   0  3  0  0  0  0  0  0  0  0  0  0
  151.6515  132.5415  156.0324 C   0  0  0  0  0  0  0  0  0  0  0  0
  151.3055  133.8698  155.7145 C   0  0  0  0  0  0  0  0  0  0  0  0
  150.4726  134.1261  154.5959 C   0  0  0  0  0  0  0  0  0  0  0  0
  150.0681  135.4398  154.2281 N   0  0  0  0  0  0  0  0  0  0  0  0
  150.0974  136.5527  154.9802 C   0  0  0  0  0  0  0  0  0  0  0  0
  150.4806  136.6055  156.1486 O   0  0  0  0  0  0  0  0  0  0  0  0
  149.6860  137.6247  154.2797 N   0  0  0  0  0  0  0  0  0  0  0  0
  149.6105  139.0266  154.7327 C   0  0  0  0  0  0  0  0  0  0  0  0
  150.9442  139.5392  155.3492 C   0  0  0  0  0  0  0  0  0  0  0  0
  151.9852  139.4889  154.6927 O   0  0  0  0  0  0  0  0  0  0  0  0
  150.9202  140.0124  156.6061 N   0  0  0  0  0  0  0  0  0  0  0  0
  152.0694  140.5399  157.3249 C   0  0  0  0  0  0  0  0  0  0  0  0
  151.7176  141.1617  158.6600 C   0  0  0  0  0  0  0  0  0  0  0  0
  152.4096  142.4203  159.1282 C   0  0  0  0  0  0  0  0  0  0  0  0
  152.6807  141.1069  159.8225 C   0  0  0  0  0  0  0  0  0  0  0  0
  149.2581  139.9106  153.5120 C   0  0  0  0  0  0  0  0  0  0  0  0
  148.3389  141.0144  154.0305 C   0  0  0  0  0  0  0  0  0  0  0  0
  147.4970  140.3199  155.0923 C   0  0  0  0  0  0  0  0  0  0  0  0
  148.4046  139.2430  155.7009 C   0  0  0  0  0  0  0  0  0  0  0  0
  148.8396  132.2759  152.1657 H   0  0  0  0  0  0  0  0  0  0  0  0
  149.5554  133.8664  151.9052 H   0  0  0  0  0  0  0  0  0  0  0  0
  148.1400  133.6909  152.9543 H   0  0  0  0  0  0  0  0  0  0  0  0
  150.0584  130.8230  153.6987 H   0  0  0  0  0  0  0  0  0  0  0  0
  152.2815  132.2637  156.8646 H   0  0  0  0  0  0  0  0  0  0  0  0
  151.6746  134.6685  156.3400 H   0  0  0  0  0  0  0  0  0  0  0  0
  149.8243  135.5647  153.2564 H   0  0  0  0  0  0  0  0  0  0  0  0
  149.3996  137.4650  153.3250 H   0  0  0  0  0  0  0  0  0  0  0  0
  150.0352  140.0203  157.0909 H   0  0  0  0  0  0  0  0  0  0  0  0
  152.7965  139.7406  157.4756 H   0  0  0  0  0  0  0  0  0  0  0  0
  152.5568  141.3013  156.7138 H   0  0  0  0  0  0  0  0  0  0  0  0
  150.6600  141.0915  158.9087 H   0  0  0  0  0  0  0  0  0  0  0  0
  153.1999  142.8291  158.5016 H   0  0  0  0  0  0  0  0  0  0  0  0
  151.8093  143.1554  159.6604 H   0  0  0  0  0  0  0  0  0  0  0  0
  152.2600  140.9655  160.8161 H   0  0  0  0  0  0  0  0  0  0  0  0
  153.6511  140.6430  159.6570 H   0  0  0  0  0  0  0  0  0  0  0  0
  150.1335  140.3225  153.0065 H   0  0  0  0  0  0  0  0  0  0  0  0
  148.7149  139.3292  152.7651 H   0  0  0  0  0  0  0  0  0  0  0  0
  148.9307  141.8092  154.4862 H   0  0  0  0  0  0  0  0  0  0  0  0
  147.7329  141.4616  153.2421 H   0  0  0  0  0  0  0  0  0  0  0  0
  147.1158  141.0155  155.8405 H   0  0  0  0  0  0  0  0  0  0  0  0
  146.6374  139.8447  154.6179 H   0  0  0  0  0  0  0  0  0  0  0  0
  147.8200  138.3359  155.8576 H   0  0  0  0  0  0  0  0  0  0  0  0
  148.7311  139.5547  156.6941 H   0  0  0  0  0  0  0  0  0  0  0  0
  151.4433  130.5712  155.5280 H   0  0  0  0  0  0  0  0  0  0  0  0
  1  2  1  0  0  0  0
  1 24  1  0  0  0  0
  1 25  1  0  0  0  0
  1 26  1  0  0  0  0
  2  7  1  0  0  0  0
  2  3  2  0  0  0  0
  3  4  1  0  0  0  0
  3 27  1  0  0  0  0
  4  5  2  0  0  0  0
  4 48  1  0  0  0  0
  5  6  1  0  0  0  0
  5 28  1  0  0  0  0
  6  7  2  0  0  0  0
  6 29  1  0  0  0  0
  7  8  1  0  0  0  0
  8  9  1  0  0  0  0
  8 30  1  0  0  0  0
  9 10  2  0  0  0  0
  9 11  1  0  0  0  0
 11 12  1  0  0  0  0
 11 31  1  0  0  0  0
 12 23  1  0  0  0  0
 12 13  1  0  0  0  0
 12 20  1  0  0  0  0
 13 14  2  0  0  0  0
 13 15  1  0  0  0  0
 15 16  1  0  0  0  0
 15 32  1  0  0  0  0
 16 17  1  0  0  0  0
 16 33  1  0  0  0  0
 16 34  1  0  0  0  0
 17 19  1  0  0  0  0
 17 18  1  0  0  0  0
 17 35  1  0  0  0  0
 18 19  1  0  0  0  0
 18 36  1  0  0  0  0
 18 37  1  0  0  0  0
 19 38  1  0  0  0  0
 19 39  1  0  0  0  0
 20 21  1  0  0  0  0
 20 40  1  0  0  0  0
 20 41  1  0  0  0  0
 21 22  1  0  0  0  0
 21 42  1  0  0  0  0
 21 43  1  0  0  0  0
 22 23  1  0  0  0  0
 22 44  1  0  0  0  0
 22 45  1  0  0  0  0
 23 46  1  0  0  0  0
 23 47  1  0  0  0  0
M  CHG  1   4   1
M  END
> <s_m_source_file>
AV-unprocessed.smi

> <i_m_source_file_index>
2472

> <i_lp_mmshare_version>
43012

> <i_f3d_flags>
0

> <s_epik_input>
W0NIM11jMVtjSF1uW2NIXVtjSF1jMVtOSF1DKD1PKVtOSF1DMihbQ0gyXVtDSDJdW0NIMl1bQ0gyXTIpQyg9TylbTkhdW0NIMl1bQ0hdM1tDSDJdW0NIMl0z

> <s_epik_cmdline>
J2VwaWtfcHl0aG9uJywgJy1waCcsICc3LjAnLCAnLXRuJywgJzgnLCAnLW1hJywgJzIwMCcsICctbWV0YWxfYmluZGluZycsICctaW1hZScsICc8aW5maWxlLm1hZT4nLCAnLW9tYWUnLCAnPG91dGZpbGUubWFlPic=

> <r_epik_Ionization_Penalty>
0.772167

> <r_epik_Ionization_Penalty_Charging>
0.772149

> <r_epik_Ionization_Penalty_Neutral>
1.87678e-05

> <r_epik_State_Penalty>
0.800952

> <r_epik_Charging_Adjusted_Penalty>
1.5731

> <i_epik_Tot_Q>
1

> <i_epik_Tot_abs_Q>
1

> <r_epik_Metal_State_Penalty>
0.9454

> <b_epik_Metal_Only>
0

> <s_lp_Force_Field>
OPLS_2005

> <r_lp_Energy>
39.076

> <b_lp_Chiralities_Consistent>
1

> <s_lp_Variant>
AV-unprocessed.smi:2472-2

> <Gold.Version>
5.8.1

> <Gold.Id.Protein>
6NUR|6NUR_protein|mol2

> <Gold.PLP.Fitness>
44.4316

> <Gold.PLP.PLP>
-36.4291

> <Gold.PLP.part.hbond>
-3.0000

> <Gold.PLP.part.metal>
0.0000

> <Gold.PLP.part.buried>
0.2133

> <Gold.PLP.part.nonpolar>
-33.3097

> <Gold.PLP.part.repulsive>
0.1884

> <Gold.PLP.ligand.clash>
0.0000

> <Gold.PLP.ligand.torsion>
0.7586

> <Gold.PLP.Chemscore.Hbond>
2.9600

> <Gold.PLP.Chemscore.CHOScore>
0.0000

> <Gold.PLP.Chemscore.Metal>
0.0000

> <Gold.Chemscore.Hbonds>
donor molecule, donor type, donor heavy atom, donor atom, acceptor molecule, acceptor atom, score
      L1  H     8    30       P1  7948  0.30
      L1  H    11    31       P1  7948  1.00
      P1  H  7989  7998       L1    14  0.93

> <Gold.PLP.Chemscore.Internal.Correction>
0.6397

> <Gold.Rescore>
     Score         DG    S(hbond)    S(metal)    S(lipo)     H(rot)  DE(clash)    DE(int)     intcor
     17.31     -19.40       2.55        0.00      81.65       1.63       0.08       2.01       ----

> <Gold.Chemscore.Fitness>
17.3143

> <Gold.Chemscore.DG>
-19.3974

> <Gold.Chemscore.ZeroCoef>
-5.4800

> <Gold.Chemscore.Hbond>
2.5549

> <Gold.Chemscore.Metal>
0.0000

> <Gold.Chemscore.Lipo>
81.6525

> <Gold.Chemscore.Internal_Hbond>
0.0000

> <Gold.Chemscore.DEClash>
0.0777

> <Gold.Chemscore.DEInternal>
2.0054

> <Gold.Chemscore.Rot>
1.6286

> <Gold.Chemscore.Internal.Correction>
   9.000000E+99

> <Gold.Chemscore.Hbonds>
donor molecule, donor type, donor heavy atom, donor atom, acceptor molecule, acceptor atom, score
      L1  H    11    31       P1  7948  0.91
      P1  H  7989  7998       L1    14  0.23

> <Gold.Chemscore.Hbond.Weighted>
-8.5332

> <Gold.Chemscore.Metal.Weighted>
-0.0000

> <Gold.Chemscore.Lipo.Weighted>
-9.5533

> <Gold.Chemscore.Internal_Hbond.Weighted>
0.0000

> <Gold.Chemscore.DEClash.Weighted>
0.0777

> <Gold.Chemscore.DEInternal.Weighted>
2.0054

> <Gold.Chemscore.Rot.Weighted>
4.1692

> <Gold.Chemscore.Internal.Correction.Weighted>
   9.000000E+99

> <Gold.Protein.RotatedTorsions>
[ 6907 6896 6895 6894 ] final  -53.31 input  -60.11 | X-H torsion
[ 7974 7965 7964 7962 ] final   -6.03 input  175.53 | X-H torsion
[ 8008 7997 7996 7995 ] final -179.31 input   59.86 | X-H torsion
[ 10167 10162 10161 10158 ] final   90.22 input  -65.29 | X-H torsion
[ 10718 10713 10712 10709 ] final  148.91 input   66.30 | X-H torsion
[ 10763 10752 10751 10750 ] final  -43.98 input  -60.55 | X-H torsion
[ 11005 11000 10999 10996 ] final  105.37 input  -57.11 | X-H torsion

> <Gold.Protein.ActiveResidues>
 VAL166  LYS551  ARG553  GLY616  TRP617  ASP618  TYR619  PRO620  LYS621  CYS622 
 ASP623  PHE694  ASN695  SER759  ASP760  ASP761  ALA762  ILE779  LEU786  VAL792 
 PHE793  MET794  SER795  GLU796  ALA797  LYS798  CYS799  TRP800  GLU811  SER814 

> <Gold.Protein.RotatedAtoms>
  150.8439  134.7740  159.6953 H   0  0  0  0  0  0  0  0  0  0  0  0  # atno 6907 bound_to 6896
  152.4520  134.5370  159.9837 H   0  0  0  0  0  0  0  0  0  0  0  0  # atno 6908 bound_to 6896
  151.5504  133.3380  159.2988 H   0  0  0  0  0  0  0  0  0  0  0  0  # atno 6909 bound_to 6896
  146.2340  140.2110  142.8335 H   0  0  0  0  0  0  0  0  0  0  0  0  # atno 7974 bound_to 7965
  156.0290  140.1278  157.0278 H   0  0  0  0  0  0  0  0  0  0  0  0  # atno 8008 bound_to 7997
  154.4342  140.1053  156.6143 H   0  0  0  0  0  0  0  0  0  0  0  0  # atno 8009 bound_to 7997
  155.5834  140.3468  155.4549 H   0  0  0  0  0  0  0  0  0  0  0  0  # atno 8010 bound_to 7997
  139.8495  144.6601  150.9187 H   0  0  0  0  0  0  0  0  0  0  0  0  # atno 10167 bound_to 10162
  157.3027  131.0873  151.1378 H   0  0  0  0  0  0  0  0  0  0  0  0  # atno 10718 bound_to 10713
  154.0046  135.6689  153.4761 H   0  0  0  0  0  0  0  0  0  0  0  0  # atno 10763 bound_to 10752
  153.0647  135.5007  154.8170 H   0  0  0  0  0  0  0  0  0  0  0  0  # atno 10764 bound_to 10752
  154.7032  135.3083  154.9272 H   0  0  0  0  0  0  0  0  0  0  0  0  # atno 10765 bound_to 10752
  139.8801  134.9333  156.5504 H   0  0  0  0  0  0  0  0  0  0  0  0  # atno 11005 bound_to 11000
  144.9707  140.8365  143.5457 LP  0  0  0  0  0  0  0  0  0  0  0  0  # atno 17320 bound_to 7965
  145.2091  139.2213  143.5152 LP  0  0  0  0  0  0  0  0  0  0  0  0  # atno 17321 bound_to 7965
  140.7789  143.3840  151.1426 LP  0  0  0  0  0  0  0  0  0  0  0  0  # atno 17342 bound_to 10162
  139.7479  143.8823  152.3069 LP  0  0  0  0  0  0  0  0  0  0  0  0  # atno 17343 bound_to 10162
  157.2731  130.6714  149.6029 LP  0  0  0  0  0  0  0  0  0  0  0  0  # atno 17370 bound_to 10713
  155.9672  130.4473  150.5575 LP  0  0  0  0  0  0  0  0  0  0  0  0  # atno 17371 bound_to 10713
  140.8244  133.8328  155.8925 LP  0  0  0  0  0  0  0  0  0  0  0  0  # atno 17394 bound_to 11000
  140.9388  134.1928  157.4812 LP  0  0  0  0  0  0  0  0  0  0  0  0  # atno 17395 bound_to 11000

$$$$
