AV-unprocessed.smi:2418|AV-procd|sdf|9551|dock9
  -GOLD-   2272013183D 1   1.00000     0.00000
 Structure written by MMmdl.
 34 35  0  0  0  0  0  0  0  0  1 V2000
  150.6525  138.5490  153.9108 C   0  0  0  0  0  0  0  0  0  0  0  0
  150.7947  139.5082  155.0791 C   0  0  0  0  0  0  0  0  0  0  0  0
  149.8659  140.5522  155.1204 N   0  0  0  0  0  0  0  0  0  0  0  0
  149.9148  141.4214  156.0764 C   0  0  0  0  0  0  0  0  0  0  0  0
  150.8811  141.3467  157.0927 N   0  0  0  0  0  0  0  0  0  0  0  0
  150.8339  142.4030  158.1178 C   0  0  0  0  0  0  0  0  0  0  0  0
  152.2210  143.0347  158.3700 C   0  0  1  0  0  0  0  0  0  0  0  0
  152.1872  144.3831  157.9422 O   0  0  0  0  0  0  0  0  0  0  0  0
  152.6105  142.9233  159.8387 C   0  0  0  0  0  0  0  0  0  0  0  0
  153.3643  141.8194  160.2981 C   0  0  0  0  0  0  0  0  0  0  0  0
  153.7292  141.7206  161.6546 C   0  0  0  0  0  0  0  0  0  0  0  0
  154.4486  140.6579  162.0863 F   0  0  0  0  0  0  0  0  0  0  0  0
  153.3481  142.7270  162.5616 C   0  0  0  0  0  0  0  0  0  0  0  0
  152.6047  143.8338  162.1100 C   0  0  0  0  0  0  0  0  0  0  0  0
  152.2382  143.9349  160.7536 C   0  0  0  0  0  0  0  0  0  0  0  0
  151.5293  145.0116  160.3368 F   0  0  0  0  0  0  0  0  0  0  0  0
  151.8241  140.3610  157.1279 C   0  0  0  0  0  0  0  0  0  0  0  0
  152.6718  140.3084  158.0212 O   0  0  0  0  0  0  0  0  0  0  0  0
  151.7588  139.3814  156.0315 C   0  0  0  0  0  0  0  0  0  0  0  0
  152.8001  138.2693  156.0353 C   0  0  0  0  0  0  0  0  0  0  0  0
  150.4894  137.5319  154.2679 H   0  0  0  0  0  0  0  0  0  0  0  0
  151.5523  138.5630  153.2951 H   0  0  0  0  0  0  0  0  0  0  0  0
  149.8079  138.8185  153.2752 H   0  0  0  0  0  0  0  0  0  0  0  0
  149.2198  142.2597  156.1493 H   0  0  0  0  0  0  0  0  0  0  0  0
  150.0959  143.1749  157.8889 H   0  0  0  0  0  0  0  0  0  0  0  0
  150.4715  141.9532  159.0444 H   0  0  0  0  0  0  0  0  0  0  0  0
  152.9798  142.5297  157.7717 H   0  0  0  0  0  0  0  0  0  0  0  0
  151.2905  144.6147  157.7537 H   0  0  0  0  0  0  0  0  0  0  0  0
  153.6677  141.0435  159.6104 H   0  0  0  0  0  0  0  0  0  0  0  0
  153.6276  142.6521  163.6021 H   0  0  0  0  0  0  0  0  0  0  0  0
  152.3162  144.6087  162.8050 H   0  0  0  0  0  0  0  0  0  0  0  0
  153.8037  138.6945  155.9943 H   0  0  0  0  0  0  0  0  0  0  0  0
  152.7007  137.5841  155.1951 H   0  0  0  0  0  0  0  0  0  0  0  0
  152.7190  137.6813  156.9501 H   0  0  0  0  0  0  0  0  0  0  0  0
  1  2  1  0  0  0  0
  1 21  1  0  0  0  0
  1 22  1  0  0  0  0
  1 23  1  0  0  0  0
  2 19  2  0  0  0  0
  2  3  1  0  0  0  0
  3  4  2  0  0  0  0
  4  5  1  0  0  0  0
  4 24  1  0  0  0  0
  5  6  1  0  0  0  0
  5 17  1  0  0  0  0
  6  7  1  0  0  0  0
  6 25  1  0  0  0  0
  6 26  1  0  0  0  0
  7  8  1  0  0  0  0
  7  9  1  0  0  0  0
  7 27  1  0  0  0  0
  8 28  1  0  0  0  0
  9 15  1  0  0  0  0
  9 10  2  0  0  0  0
 10 11  1  0  0  0  0
 10 29  1  0  0  0  0
 11 12  1  0  0  0  0
 11 13  2  0  0  0  0
 13 14  1  0  0  0  0
 13 30  1  0  0  0  0
 14 15  2  0  0  0  0
 14 31  1  0  0  0  0
 15 16  1  0  0  0  0
 17 18  2  0  0  0  0
 17 19  1  0  0  0  0
 19 20  1  0  0  0  0
 20 32  1  0  0  0  0
 20 33  1  0  0  0  0
 20 34  1  0  0  0  0
M  END
> <s_m_source_file>
AV-unprocessed.smi

> <i_m_source_file_index>
2418

> <i_lp_mmshare_version>
43012

> <i_f3d_flags>
0

> <s_epik_input>
W0NIM11jMW5bY0hdbihjKD1PKWMxW0NIM10pW0NIMl1bQ0BIXShbT0hdKWMyW2NIXWMoRilbY0hdW2NIXWMyRg==

> <s_epik_cmdline>
J2VwaWtfcHl0aG9uJywgJy1waCcsICc3LjAnLCAnLXRuJywgJzgnLCAnLW1hJywgJzIwMCcsICctbWV0YWxfYmluZGluZycsICctaW1hZScsICc8aW5maWxlLm1hZT4nLCAnLW9tYWUnLCAnPG91dGZpbGUubWFlPic=

> <r_lp_tautomer_probability>
1

> <r_epik_Ionization_Penalty>
5.08222e-05

> <r_epik_Ionization_Penalty_Charging>
7.56727e-08

> <r_epik_Ionization_Penalty_Neutral>
5.07465e-05

> <r_epik_State_Penalty>
-0

> <r_epik_Charging_Adjusted_Penalty>
7.56727e-08

> <i_epik_Tot_Q>
0

> <i_epik_Tot_abs_Q>
0

> <r_epik_Metal_State_Penalty>
-0

> <b_epik_Metal_Only>
0

> <s_lp_Force_Field>
OPLS_2005

> <r_lp_Energy>
18.8119

> <b_lp_Chiralities_Consistent>
1

> <s_lp_Variant>
AV-unprocessed.smi:2418-2

> <Gold.Version>
5.8.1

> <Gold.Id.Protein>
6NUR|6NUR_protein|mol2

> <Gold.PLP.Fitness>
53.7621

> <Gold.PLP.PLP>
-51.1832

> <Gold.PLP.part.hbond>
-1.5114

> <Gold.PLP.part.metal>
0.0000

> <Gold.PLP.part.buried>
-3.1679

> <Gold.PLP.part.nonpolar>
-44.6915

> <Gold.PLP.part.repulsive>
0.0914

> <Gold.PLP.ligand.clash>
0.0000

> <Gold.PLP.ligand.torsion>
1.5944

> <Gold.PLP.Chemscore.Hbond>
0.9199

> <Gold.PLP.Chemscore.CHOScore>
1.0000

> <Gold.PLP.Chemscore.Metal>
0.0000

> <Gold.Chemscore.Hbonds>
donor molecule, donor type, donor heavy atom, donor atom, acceptor molecule, acceptor atom, score
      P1  H  7997  8008       L1    18  0.66
      L1  C     4    24       P1  8028  1.00

> <Gold.PLP.Chemscore.Internal.Correction>
0.0080

> <Gold.Rescore>
     Score         DG    S(hbond)    S(metal)    S(lipo)     H(rot)  DE(clash)    DE(int)     intcor
     10.30     -16.44       0.81        0.00     116.69       2.11       0.06       6.08       ----

> <Gold.Chemscore.Fitness>
10.2996

> <Gold.Chemscore.DG>
-16.4368

> <Gold.Chemscore.ZeroCoef>
-5.4800

> <Gold.Chemscore.Hbond>
0.8098

> <Gold.Chemscore.Metal>
0.0000

> <Gold.Chemscore.Lipo>
116.6919

> <Gold.Chemscore.Internal_Hbond>
0.0000

> <Gold.Chemscore.DEClash>
0.0566

> <Gold.Chemscore.DEInternal>
6.0806

> <Gold.Chemscore.Rot>
2.1097

> <Gold.Chemscore.Internal.Correction>
   9.000000E+99

> <Gold.Chemscore.Hbonds>
donor molecule, donor type, donor heavy atom, donor atom, acceptor molecule, acceptor atom, score
      P1  H  7997  8008       L1    18  0.19

> <Gold.Chemscore.Hbond.Weighted>
-2.7048

> <Gold.Chemscore.Metal.Weighted>
-0.0000

> <Gold.Chemscore.Lipo.Weighted>
-13.6529

> <Gold.Chemscore.Internal_Hbond.Weighted>
0.0000

> <Gold.Chemscore.DEClash.Weighted>
0.0566

> <Gold.Chemscore.DEInternal.Weighted>
6.0806

> <Gold.Chemscore.Rot.Weighted>
5.4009

> <Gold.Chemscore.Internal.Correction.Weighted>
   9.000000E+99

> <Gold.Protein.RotatedTorsions>
[ 6907 6896 6895 6894 ] final -148.04 input  -60.11 | X-H torsion
[ 7974 7965 7964 7962 ] final   74.55 input  175.53 | X-H torsion
[ 8008 7997 7996 7995 ] final  -74.04 input   59.86 | X-H torsion
[ 10167 10162 10161 10158 ] final  108.55 input  -65.29 | X-H torsion
[ 10718 10713 10712 10709 ] final   89.80 input   66.30 | X-H torsion
[ 10763 10752 10751 10750 ] final   57.70 input  -60.55 | X-H torsion
[ 11005 11000 10999 10996 ] final  120.79 input  -57.11 | X-H torsion

> <Gold.Protein.ActiveResidues>
 VAL166  LYS551  ARG553  GLY616  TRP617  ASP618  TYR619  PRO620  LYS621  CYS622 
 ASP623  PHE694  ASN695  SER759  ASP760  ASP761  ALA762  ILE779  LEU786  VAL792 
 PHE793  MET794  SER795  GLU796  ALA797  LYS798  CYS799  TRP800  GLU811  SER814 

> <Gold.Protein.RotatedAtoms>
  151.1642  133.4825  159.2593 H   0  0  0  0  0  0  0  0  0  0  0  0  # atno 6907 bound_to 6896
  151.1422  135.0185  159.8641 H   0  0  0  0  0  0  0  0  0  0  0  0  # atno 6908 bound_to 6896
  152.5462  134.1535  159.8581 H   0  0  0  0  0  0  0  0  0  0  0  0  # atno 6909 bound_to 6896
  145.7268  139.2669  143.1564 H   0  0  0  0  0  0  0  0  0  0  0  0  # atno 7974 bound_to 7965
  154.5298  140.0768  156.8324 H   0  0  0  0  0  0  0  0  0  0  0  0  # atno 8008 bound_to 7997
  155.3399  140.3406  155.4221 H   0  0  0  0  0  0  0  0  0  0  0  0  # atno 8009 bound_to 7997
  156.1769  140.1639  156.8333 H   0  0  0  0  0  0  0  0  0  0  0  0  # atno 8010 bound_to 7997
  139.6837  144.7115  151.1470 H   0  0  0  0  0  0  0  0  0  0  0  0  # atno 10167 bound_to 10162
  157.6957  131.0346  150.3480 H   0  0  0  0  0  0  0  0  0  0  0  0  # atno 10718 bound_to 10713
  152.9855  135.5632  154.5434 H   0  0  0  0  0  0  0  0  0  0  0  0  # atno 10763 bound_to 10752
  154.4884  135.2791  155.1518 H   0  0  0  0  0  0  0  0  0  0  0  0  # atno 10764 bound_to 10752
  154.2998  135.6310  153.5473 H   0  0  0  0  0  0  0  0  0  0  0  0  # atno 10765 bound_to 10752
  139.9199  134.9636  156.7860 H   0  0  0  0  0  0  0  0  0  0  0  0  # atno 11005 bound_to 11000
  146.0575  140.8006  142.9751 LP  0  0  0  0  0  0  0  0  0  0  0  0  # atno 17320 bound_to 7965
  144.6903  140.3146  143.7242 LP  0  0  0  0  0  0  0  0  0  0  0  0  # atno 17321 bound_to 7965
  140.7660  143.5661  150.9046 LP  0  0  0  0  0  0  0  0  0  0  0  0  # atno 17342 bound_to 10162
  139.9335  143.6465  152.3071 LP  0  0  0  0  0  0  0  0  0  0  0  0  # atno 17343 bound_to 10162
  156.3932  130.3902  149.7014 LP  0  0  0  0  0  0  0  0  0  0  0  0  # atno 17370 bound_to 10713
  156.4357  130.7836  151.2857 LP  0  0  0  0  0  0  0  0  0  0  0  0  # atno 17371 bound_to 10713
  140.6505  133.9736  155.7753 LP  0  0  0  0  0  0  0  0  0  0  0  0  # atno 17394 bound_to 11000
  141.0711  134.0204  157.3525 LP  0  0  0  0  0  0  0  0  0  0  0  0  # atno 17395 bound_to 11000

$$$$
