AV-unprocessed.smi:1554|AV-procd|sdf|6255|dock3
  -GOLD-   22720 6443D 1   1.00000     0.00000
 Structure written by MMmdl.
 48 50  0  0  0  0  0  0  0  0  2 V2000
  152.2521  144.4198  161.2049 C   0  0  0  0  0  0  0  0  0  0  0  0
  152.1357  143.4057  160.0795 C   0  0  0  0  0  0  0  0  0  0  0  0
  151.3238  143.7231  158.9671 C   0  0  0  0  0  0  0  0  0  0  0  0
  151.2385  142.7760  157.9535 C   0  0  0  0  0  0  0  0  0  0  0  0
  150.5369  142.7904  156.7462 N   0  3  0  0  0  0  0  0  0  0  0  0
  150.7629  141.6272  156.0754 C   0  0  0  0  0  0  0  0  0  0  0  0
  151.5977  140.8692  156.8367 N   0  0  0  0  0  0  0  0  0  0  0  0
  152.1483  139.5310  156.5754 C   0  0  0  0  0  0  0  0  0  0  0  0
  152.4794  139.2973  155.0882 C   0  0  1  0  0  0  0  0  0  0  0  0
  153.8643  139.0514  154.9453 O   0  0  0  0  0  0  0  0  0  0  0  0
  151.7096  138.0874  154.5224 C   0  0  0  0  0  0  0  0  0  0  0  0
  150.3206  137.9579  154.9668 N   0  0  0  0  0  0  0  0  0  0  0  0
  149.8607  136.5707  154.9988 C   0  0  0  0  0  0  0  0  0  0  0  0
  148.3905  136.4641  155.4392 C   0  0  0  0  0  0  0  0  0  0  0  0
  147.5742  137.2543  154.5811 O   0  0  0  0  0  0  0  0  0  0  0  0
  147.9570  138.6266  154.5581 C   0  0  2  0  0  0  0  0  0  0  0  0
  147.0091  139.3761  153.6157 C   0  0  0  0  0  0  0  0  0  0  0  0
  149.4274  138.7297  154.1088 C   0  0  0  0  0  0  0  0  0  0  0  0
  151.9228  141.5466  158.0183 C   0  0  0  0  0  0  0  0  0  0  0  0
  152.7276  141.2192  159.1071 C   0  0  0  0  0  0  0  0  0  0  0  0
  152.8302  142.1702  160.1474 C   0  0  0  0  0  0  0  0  0  0  0  0
  153.7031  141.8403  161.3463 C   0  0  0  0  0  0  0  0  0  0  0  0
  151.6327  145.2972  161.0170 H   0  0  0  0  0  0  0  0  0  0  0  0
  153.2835  144.7566  161.3112 H   0  0  0  0  0  0  0  0  0  0  0  0
  151.9308  143.9826  162.1503 H   0  0  0  0  0  0  0  0  0  0  0  0
  150.7936  144.6624  158.9073 H   0  0  0  0  0  0  0  0  0  0  0  0
  150.3530  141.3550  155.1135 H   0  0  0  0  0  0  0  0  0  0  0  0
  153.0213  139.3700  157.2087 H   0  0  0  0  0  0  0  0  0  0  0  0
  151.3985  138.8099  156.9032 H   0  0  0  0  0  0  0  0  0  0  0  0
  152.2321  140.2044  154.5381 H   0  0  0  0  0  0  0  0  0  0  0  0
  154.0350  138.8385  154.0399 H   0  0  0  0  0  0  0  0  0  0  0  0
  151.7328  138.1552  153.4334 H   0  0  0  0  0  0  0  0  0  0  0  0
  152.2484  137.1718  154.7712 H   0  0  0  0  0  0  0  0  0  0  0  0
  149.9750  136.1195  154.0120 H   0  0  0  0  0  0  0  0  0  0  0  0
  150.4676  135.9817  155.6847 H   0  0  0  0  0  0  0  0  0  0  0  0
  148.0552  135.4278  155.3942 H   0  0  0  0  0  0  0  0  0  0  0  0
  148.2716  136.7947  156.4722 H   0  0  0  0  0  0  0  0  0  0  0  0
  147.8522  139.0404  155.5626 H   0  0  0  0  0  0  0  0  0  0  0  0
  147.2578  140.4368  153.5699 H   0  0  0  0  0  0  0  0  0  0  0  0
  145.9762  139.2912  153.9540 H   0  0  0  0  0  0  0  0  0  0  0  0
  147.0624  138.9756  152.6029 H   0  0  0  0  0  0  0  0  0  0  0  0
  149.7299  139.7776  154.1111 H   0  0  0  0  0  0  0  0  0  0  0  0
  149.5167  138.3828  153.0778 H   0  0  0  0  0  0  0  0  0  0  0  0
  153.2609  140.2815  159.1571 H   0  0  0  0  0  0  0  0  0  0  0  0
  154.2148  140.8860  161.2167 H   0  0  0  0  0  0  0  0  0  0  0  0
  153.0983  141.7749  162.2510 H   0  0  0  0  0  0  0  0  0  0  0  0
  154.4641  142.6072  161.4918 H   0  0  0  0  0  0  0  0  0  0  0  0
  149.9476  143.5380  156.4024 H   0  0  0  0  0  0  0  0  0  0  0  0
  1  2  1  0  0  0  0
  1 23  1  0  0  0  0
  1 24  1  0  0  0  0
  1 25  1  0  0  0  0
  2 21  1  0  0  0  0
  2  3  2  0  0  0  0
  3  4  1  0  0  0  0
  3 26  1  0  0  0  0
  4 19  2  0  0  0  0
  4  5  1  0  0  0  0
  5  6  2  0  0  0  0
  5 48  1  0  0  0  0
  6  7  1  0  0  0  0
  6 27  1  0  0  0  0
  7  8  1  0  0  0  0
  7 19  1  0  0  0  0
  8  9  1  0  0  0  0
  8 28  1  0  0  0  0
  8 29  1  0  0  0  0
  9 10  1  0  0  0  0
  9 11  1  0  0  0  0
  9 30  1  0  0  0  0
 10 31  1  0  0  0  0
 11 12  1  0  0  0  0
 11 32  1  0  0  0  0
 11 33  1  0  0  0  0
 12 18  1  0  0  0  0
 12 13  1  0  0  0  0
 13 14  1  0  0  0  0
 13 34  1  0  0  0  0
 13 35  1  0  0  0  0
 14 15  1  0  0  0  0
 14 36  1  0  0  0  0
 14 37  1  0  0  0  0
 15 16  1  0  0  0  0
 16 17  1  0  0  0  0
 16 18  1  0  0  0  0
 16 38  1  0  0  0  0
 17 39  1  0  0  0  0
 17 40  1  0  0  0  0
 17 41  1  0  0  0  0
 18 42  1  0  0  0  0
 18 43  1  0  0  0  0
 19 20  1  0  0  0  0
 20 21  2  0  0  0  0
 20 44  1  0  0  0  0
 21 22  1  0  0  0  0
 22 45  1  0  0  0  0
 22 46  1  0  0  0  0
 22 47  1  0  0  0  0
M  CHG  1   5   1
M  END
> <s_m_source_file>
AV-unprocessed.smi

> <i_m_source_file_index>
1554

> <i_lp_mmshare_version>
43012

> <i_f3d_flags>
0

> <s_epik_input>
W0NIM11jKFtjSF0xKWMoW0NIM10pW2NIXWMoYzEyKW4oW2NIXW4yKVtDSDJdW0NASF0oW09IXSlbQ0gyXU4zW0NIMl1bQ0gyXU9bQ0BASF0oW0NIM10pW0NIMl0z

> <s_epik_cmdline>
J2VwaWtfcHl0aG9uJywgJy1waCcsICc3LjAnLCAnLXRuJywgJzgnLCAnLW1hJywgJzIwMCcsICctbWV0YWxfYmluZGluZycsICctaW1hZScsICc8aW5maWxlLm1hZT4nLCAnLW9tYWUnLCAnPG91dGZpbGUubWFlPic=

> <r_epik_Ionization_Penalty>
1.42504

> <r_epik_Ionization_Penalty_Charging>
1.21068

> <r_epik_Ionization_Penalty_Neutral>
0.214359

> <r_epik_State_Penalty>
1.46962

> <r_epik_Charging_Adjusted_Penalty>
2.6803

> <i_epik_Tot_Q>
1

> <i_epik_Tot_abs_Q>
1

> <r_epik_Metal_State_Penalty>
5.48754

> <b_epik_Metal_Only>
0

> <s_lp_Force_Field>
OPLS_2005

> <r_lp_Energy>
34.6572

> <b_lp_Chiralities_Consistent>
1

> <s_lp_Variant>
AV-unprocessed.smi:1554-16

> <Gold.Version>
5.8.1

> <Gold.Id.Protein>
6NUR|6NUR_protein|mol2

> <Gold.PLP.Fitness>
51.5975

> <Gold.PLP.PLP>
-45.8196

> <Gold.PLP.part.hbond>
-1.7747

> <Gold.PLP.part.metal>
0.0000

> <Gold.PLP.part.buried>
-5.1733

> <Gold.PLP.part.nonpolar>
-38.4845

> <Gold.PLP.part.repulsive>
0.2961

> <Gold.PLP.ligand.clash>
0.0000

> <Gold.PLP.ligand.torsion>
1.5971

> <Gold.PLP.Chemscore.Hbond>
2.9760

> <Gold.PLP.Chemscore.CHOScore>
0.0000

> <Gold.PLP.Chemscore.Metal>
0.0000

> <Gold.Chemscore.Hbonds>
donor molecule, donor type, donor heavy atom, donor atom, acceptor molecule, acceptor atom, score
      L1  H     5    48       P1  8028  2.00
      P1  H  7997  8010       L1    10  0.98

> <Gold.PLP.Chemscore.Internal.Correction>
0.0440

> <Gold.Rescore>
     Score         DG    S(hbond)    S(metal)    S(lipo)     H(rot)  DE(clash)    DE(int)     intcor
     18.38     -19.92       1.61        0.00     122.19       2.04       0.02       1.51       ----

> <Gold.Chemscore.Fitness>
18.3796

> <Gold.Chemscore.DG>
-19.9160

> <Gold.Chemscore.ZeroCoef>
-5.4800

> <Gold.Chemscore.Hbond>
1.6075

> <Gold.Chemscore.Metal>
0.0000

> <Gold.Chemscore.Lipo>
122.1927

> <Gold.Chemscore.Internal_Hbond>
0.0000

> <Gold.Chemscore.DEClash>
0.0222

> <Gold.Chemscore.DEInternal>
1.5141

> <Gold.Chemscore.Rot>
2.0427

> <Gold.Chemscore.Internal.Correction>
   9.000000E+99

> <Gold.Chemscore.Hbonds>
donor molecule, donor type, donor heavy atom, donor atom, acceptor molecule, acceptor atom, score
      L1  H     5    48       P1  8028  1.00
      P1  H  7997  8010       L1    10  0.45

> <Gold.Chemscore.Hbond.Weighted>
-5.3689

> <Gold.Chemscore.Metal.Weighted>
-0.0000

> <Gold.Chemscore.Lipo.Weighted>
-14.2965

> <Gold.Chemscore.Internal_Hbond.Weighted>
0.0000

> <Gold.Chemscore.DEClash.Weighted>
0.0222

> <Gold.Chemscore.DEInternal.Weighted>
1.5141

> <Gold.Chemscore.Rot.Weighted>
5.2294

> <Gold.Chemscore.Internal.Correction.Weighted>
   9.000000E+99

> <Gold.Protein.RotatedTorsions>
[ 6907 6896 6895 6894 ] final  152.19 input  -60.11 | X-H torsion
[ 7974 7965 7964 7962 ] final -126.07 input  175.53 | X-H torsion
[ 8008 7997 7996 7995 ] final  112.95 input   59.86 | X-H torsion
[ 10167 10162 10161 10158 ] final  111.89 input  -65.29 | X-H torsion
[ 10718 10713 10712 10709 ] final   -4.34 input   66.30 | X-H torsion
[ 10763 10752 10751 10750 ] final  -90.51 input  -60.55 | X-H torsion
[ 11005 11000 10999 10996 ] final -121.44 input  -57.11 | X-H torsion

> <Gold.Protein.ActiveResidues>
 VAL166  LYS551  ARG553  GLY616  TRP617  ASP618  TYR619  PRO620  LYS621  CYS622 
 ASP623  PHE694  ASN695  SER759  ASP760  ASP761  ALA762  ILE779  LEU786  VAL792 
 PHE793  MET794  SER795  GLU796  ALA797  LYS798  CYS799  TRP800  GLU811  SER814 

> <Gold.Protein.RotatedAtoms>
  152.0902  133.4197  159.4540 H   0  0  0  0  0  0  0  0  0  0  0  0  # atno 6907 bound_to 6896
  150.6862  134.2880  159.4664 H   0  0  0  0  0  0  0  0  0  0  0  0  # atno 6908 bound_to 6896
  152.0731  134.9520  160.0625 H   0  0  0  0  0  0  0  0  0  0  0  0  # atno 6909 bound_to 6896
  144.9911  140.7732  143.4554 H   0  0  0  0  0  0  0  0  0  0  0  0  # atno 7974 bound_to 7965
  156.2226  140.2989  155.9989 H   0  0  0  0  0  0  0  0  0  0  0  0  # atno 8008 bound_to 7997
  155.2442  140.0423  157.2996 H   0  0  0  0  0  0  0  0  0  0  0  0  # atno 8009 bound_to 7997
  154.5864  140.2389  155.7989 H   0  0  0  0  0  0  0  0  0  0  0  0  # atno 8010 bound_to 7997
  139.6577  144.7129  151.1926 H   0  0  0  0  0  0  0  0  0  0  0  0  # atno 10167 bound_to 10162
  156.7628  130.5275  149.5782 H   0  0  0  0  0  0  0  0  0  0  0  0  # atno 10718 bound_to 10713
  154.6665  135.5302  153.8084 H   0  0  0  0  0  0  0  0  0  0  0  0  # atno 10763 bound_to 10752
  153.0474  135.6518  154.0791 H   0  0  0  0  0  0  0  0  0  0  0  0  # atno 10764 bound_to 10752
  154.0694  135.2955  155.3290 H   0  0  0  0  0  0  0  0  0  0  0  0  # atno 10765 bound_to 10752
  141.0070  134.0321  157.3464 H   0  0  0  0  0  0  0  0  0  0  0  0  # atno 11005 bound_to 11000
  145.2285  139.2126  143.5055 LP  0  0  0  0  0  0  0  0  0  0  0  0  # atno 17320 bound_to 7965
  146.3431  140.2157  142.8590 LP  0  0  0  0  0  0  0  0  0  0  0  0  # atno 17321 bound_to 7965
  140.7566  143.6046  150.8666 LP  0  0  0  0  0  0  0  0  0  0  0  0  # atno 17342 bound_to 10162
  139.9700  143.6067  152.2976 LP  0  0  0  0  0  0  0  0  0  0  0  0  # atno 17343 bound_to 10162
  156.1328  130.6190  151.0358 LP  0  0  0  0  0  0  0  0  0  0  0  0  # atno 17370 bound_to 10713
  157.6727  131.0857  150.7572 LP  0  0  0  0  0  0  0  0  0  0  0  0  # atno 17371 bound_to 10713
  139.9068  135.0181  156.7523 LP  0  0  0  0  0  0  0  0  0  0  0  0  # atno 17394 bound_to 11000
  140.6797  133.9486  155.7903 LP  0  0  0  0  0  0  0  0  0  0  0  0  # atno 17395 bound_to 11000

$$$$
