AV-unprocessed.smi:210|AV-procd|sdf|1613|dock2
  -GOLD-   2262019533D 1   1.00000     0.00000
 Structure written by MMmdl.
 57 61  0  0  0  0  0  0  0  0  1 V2000
  154.5276  141.0659  161.1455 C   0  0  0  0  0  0  0  0  0  0  0  0
  153.7745  142.0226  160.4210 O   0  0  0  0  0  0  0  0  0  0  0  0
  152.5127  141.5248  160.0044 C   0  0  2  0  0  0  0  0  0  0  0  0
  152.5836  140.3900  158.9719 C   0  0  0  0  0  0  0  0  0  0  0  0
  151.3752  141.0548  158.2889 C   0  0  2  0  0  0  0  0  0  0  0  0
  151.3469  141.0075  156.8185 N   0  0  0  0  0  0  0  0  0  0  0  0
  150.8419  142.1143  156.0088 C   0  0  0  0  0  0  0  0  0  0  0  0
  151.3538  139.7620  156.2701 C   0  0  0  0  0  0  0  0  0  0  0  0
  151.9189  139.6153  155.0426 N   0  0  0  0  0  0  0  0  0  0  0  0
  151.9587  138.4195  154.4494 C   0  0  0  0  0  0  0  0  0  0  0  0
  151.5062  137.2496  154.9011 N   0  0  0  0  0  0  0  0  0  0  0  0
  150.9500  137.3795  156.1390 C   0  0  0  0  0  0  0  0  0  0  0  0
  150.8263  138.5865  156.8875 C   0  0  0  0  0  0  0  0  0  0  0  0
  150.2036  138.3147  158.1020 N   0  0  0  0  0  0  0  0  0  0  0  0
  149.9588  137.0345  158.0644 C   0  0  0  0  0  0  0  0  0  0  0  0
  150.3999  136.3880  156.9334 N   0  0  0  0  0  0  0  0  0  0  0  0
  150.2300  134.9994  156.6187 C   0  0  0  0  0  0  0  0  0  0  0  0
  150.6668  134.4321  155.2634 C   0  0  0  0  0  0  0  0  0  0  0  0
  149.5023  133.4168  155.3278 C   0  0  0  0  0  0  0  0  0  0  0  0
  148.7613  133.1302  154.0068 C   0  0  0  0  0  0  0  0  0  0  0  0
  147.9658  134.2191  153.5834 O   0  0  0  0  0  0  0  0  0  0  0  0
  149.8876  132.0554  155.9377 C   0  0  0  0  0  0  0  0  0  0  0  0
  148.7484  131.2618  156.2020 O   0  0  0  0  0  0  0  0  0  0  0  0
  148.8473  134.4205  156.3052 C   0  0  0  0  0  0  0  0  0  0  0  0
  151.8362  142.3866  158.9173 C   0  0  0  0  0  0  0  0  0  0  0  0
  152.6284  143.4661  158.1531 C   0  0  0  0  0  0  0  0  0  0  0  0
  151.9470  144.5101  159.0432 C   0  0  0  0  0  0  0  0  0  0  0  0
  150.8399  143.4846  159.3103 C   0  0  0  0  0  0  0  0  0  0  0  0
  155.4757  141.5053  161.4553 H   0  0  0  0  0  0  0  0  0  0  0  0
  154.7478  140.1891  160.5355 H   0  0  0  0  0  0  0  0  0  0  0  0
  153.9969  140.7444  162.0423 H   0  0  0  0  0  0  0  0  0  0  0  0
  151.8348  141.3045  160.8320 H   0  0  0  0  0  0  0  0  0  0  0  0
  153.5205  140.4224  158.4152 H   0  0  0  0  0  0  0  0  0  0  0  0
  152.3897  139.3964  159.3765 H   0  0  0  0  0  0  0  0  0  0  0  0
  150.4532  140.7014  158.7543 H   0  0  0  0  0  0  0  0  0  0  0  0
  151.0296  141.9491  154.9475 H   0  0  0  0  0  0  0  0  0  0  0  0
  151.3532  143.0414  156.2656 H   0  0  0  0  0  0  0  0  0  0  0  0
  149.7717  142.2575  156.1553 H   0  0  0  0  0  0  0  0  0  0  0  0
  152.4212  138.3966  153.4738 H   0  0  0  0  0  0  0  0  0  0  0  0
  149.4534  136.5236  158.8710 H   0  0  0  0  0  0  0  0  0  0  0  0
  150.6996  134.4493  157.4359 H   0  0  0  0  0  0  0  0  0  0  0  0
  150.5695  135.1627  154.4589 H   0  0  0  0  0  0  0  0  0  0  0  0
  151.6629  133.9884  155.2616 H   0  0  0  0  0  0  0  0  0  0  0  0
  149.4670  132.9012  153.2075 H   0  0  0  0  0  0  0  0  0  0  0  0
  148.1052  132.2647  154.1045 H   0  0  0  0  0  0  0  0  0  0  0  0
  148.2486  134.4797  152.7203 H   0  0  0  0  0  0  0  0  0  0  0  0
  150.5527  131.5025  155.2734 H   0  0  0  0  0  0  0  0  0  0  0  0
  150.4296  132.1801  156.8752 H   0  0  0  0  0  0  0  0  0  0  0  0
  148.0354  131.5702  155.6636 H   0  0  0  0  0  0  0  0  0  0  0  0
  148.3456  133.9708  157.1625 H   0  0  0  0  0  0  0  0  0  0  0  0
  148.1970  135.1471  155.8153 H   0  0  0  0  0  0  0  0  0  0  0  0
  153.7125  143.4149  158.2540 H   0  0  0  0  0  0  0  0  0  0  0  0
  152.3314  143.5764  157.1106 H   0  0  0  0  0  0  0  0  0  0  0  0
  152.5280  144.7454  159.9364 H   0  0  0  0  0  0  0  0  0  0  0  0
  151.6190  145.4104  158.5233 H   0  0  0  0  0  0  0  0  0  0  0  0
  150.0082  143.5710  158.6092 H   0  0  0  0  0  0  0  0  0  0  0  0
  150.4945  143.4444  160.3438 H   0  0  0  0  0  0  0  0  0  0  0  0
  1  2  1  0  0  0  0
  1 29  1  0  0  0  0
  1 30  1  0  0  0  0
  1 31  1  0  0  0  0
  2  3  1  0  0  0  0
  3 25  1  0  0  0  0
  3  4  1  0  0  0  0
  3 32  1  0  0  0  0
  4  5  1  0  0  0  0
  4 33  1  0  0  0  0
  4 34  1  0  0  0  0
  5  6  1  0  0  0  0
  5 25  1  0  0  0  0
  5 35  1  0  0  0  0
  6  7  1  0  0  0  0
  6  8  1  0  0  0  0
  7 36  1  0  0  0  0
  7 37  1  0  0  0  0
  7 38  1  0  0  0  0
  8 13  1  0  0  0  0
  8  9  2  0  0  0  0
  9 10  1  0  0  0  0
 10 11  2  0  0  0  0
 10 39  1  0  0  0  0
 11 12  1  0  0  0  0
 12 16  1  0  0  0  0
 12 13  2  0  0  0  0
 13 14  1  0  0  0  0
 14 15  2  0  0  0  0
 15 16  1  0  0  0  0
 15 40  1  0  0  0  0
 16 17  1  0  0  0  0
 17 24  1  0  0  0  0
 17 18  1  0  0  0  0
 17 41  1  0  0  0  0
 18 19  1  0  0  0  0
 18 42  1  0  0  0  0
 18 43  1  0  0  0  0
 19 20  1  0  0  0  0
 19 22  1  0  0  0  0
 19 24  1  0  0  0  0
 20 21  1  0  0  0  0
 20 44  1  0  0  0  0
 20 45  1  0  0  0  0
 21 46  1  0  0  0  0
 22 23  1  0  0  0  0
 22 47  1  0  0  0  0
 22 48  1  0  0  0  0
 23 49  1  0  0  0  0
 24 50  1  0  0  0  0
 24 51  1  0  0  0  0
 25 28  1  0  0  0  0
 25 26  1  0  0  0  0
 26 27  1  0  0  0  0
 26 52  1  0  0  0  0
 26 53  1  0  0  0  0
 27 28  1  0  0  0  0
 27 54  1  0  0  0  0
 27 55  1  0  0  0  0
 28 56  1  0  0  0  0
 28 57  1  0  0  0  0
M  END
> <s_m_source_file>
AV-unprocessed.smi

> <i_m_source_file_index>
210

> <i_lp_mmshare_version>
43012

> <i_f3d_flags>
0

> <s_epik_input>
W0NIMl0xW0NIMl1bQ0gyXUMxMltDQEhdKE9bQ0gzXSlbQ0gyXVtDQEhdMk4oW0NIM10pYyhuW2NIXW4zKWMoYzM0KW5bY0hdbjRbQ0hdKFtDSDJdNSlbQ0gyXUM1KFtDSDJdW09IXSlbQ0gyXVtPSF0=

> <s_epik_cmdline>
J2VwaWtfcHl0aG9uJywgJy1waCcsICc3LjAnLCAnLXRuJywgJzgnLCAnLW1hJywgJzIwMCcsICctbWV0YWxfYmluZGluZycsICctaW1hZScsICc8aW5maWxlLm1hZT4nLCAnLW9tYWUnLCAnPG91dGZpbGUubWFlPic=

> <r_lp_tautomer_probability>
1

> <r_epik_Ionization_Penalty>
0.00313676

> <r_epik_Ionization_Penalty_Charging>
0

> <r_epik_Ionization_Penalty_Neutral>
0.00313676

> <r_epik_State_Penalty>
0.00199132

> <r_epik_Charging_Adjusted_Penalty>
0.00199132

> <i_epik_Tot_Q>
0

> <i_epik_Tot_abs_Q>
0

> <r_epik_Metal_State_Penalty>
-0

> <b_epik_Metal_Only>
0

> <s_lp_Force_Field>
OPLS_2005

> <r_lp_Energy>
62.7777

> <b_lp_Chiralities_Consistent>
1

> <s_lp_Variant>
AV-unprocessed.smi:210-3

> <Gold.Version>
5.8.1

> <Gold.Id.Protein>
6NUR|6NUR_protein|mol2

> <Gold.PLP.Fitness>
49.5087

> <Gold.PLP.PLP>
-44.8663

> <Gold.PLP.part.hbond>
-2.6185

> <Gold.PLP.part.metal>
0.0000

> <Gold.PLP.part.buried>
-8.0856

> <Gold.PLP.part.nonpolar>
-33.7287

> <Gold.PLP.part.repulsive>
0.1463

> <Gold.PLP.ligand.clash>
0.0000

> <Gold.PLP.ligand.torsion>
1.6403

> <Gold.PLP.Chemscore.Hbond>
2.1484

> <Gold.PLP.Chemscore.CHOScore>
0.0000

> <Gold.PLP.Chemscore.Metal>
0.0000

> <Gold.Chemscore.Hbonds>
donor molecule, donor type, donor heavy atom, donor atom, acceptor molecule, acceptor atom, score
      L1  H    21    46       P1  7948  0.74
      P1  H  7989  7998       L1     9  0.96
      P1  H 10752 10763       L1    11  0.44

> <Gold.PLP.Chemscore.Internal.Correction>
1.4778

> <Gold.Rescore>
     Score         DG    S(hbond)    S(metal)    S(lipo)     H(rot)  DE(clash)    DE(int)     intcor
      9.53     -13.84       0.91        0.00     117.41       3.29       0.14       4.17       ----

> <Gold.Chemscore.Fitness>
9.5312

> <Gold.Chemscore.DG>
-13.8420

> <Gold.Chemscore.ZeroCoef>
-5.4800

> <Gold.Chemscore.Hbond>
0.9103

> <Gold.Chemscore.Metal>
0.0000

> <Gold.Chemscore.Lipo>
117.4052

> <Gold.Chemscore.Internal_Hbond>
0.0000

> <Gold.Chemscore.DEClash>
0.1377

> <Gold.Chemscore.DEInternal>
4.1731

> <Gold.Chemscore.Rot>
3.2870

> <Gold.Chemscore.Internal.Correction>
   9.000000E+99

> <Gold.Chemscore.Hbonds>
donor molecule, donor type, donor heavy atom, donor atom, acceptor molecule, acceptor atom, score
      L1  H    21    46       P1  7948  0.24
      P1  H  7989  7998       L1     9  0.35
      P1  H 10752 10763       L1    11  0.25

> <Gold.Chemscore.Hbond.Weighted>
-3.0404

> <Gold.Chemscore.Metal.Weighted>
-0.0000

> <Gold.Chemscore.Lipo.Weighted>
-13.7364

> <Gold.Chemscore.Internal_Hbond.Weighted>
0.0000

> <Gold.Chemscore.DEClash.Weighted>
0.1377

> <Gold.Chemscore.DEInternal.Weighted>
4.1731

> <Gold.Chemscore.Rot.Weighted>
8.4147

> <Gold.Chemscore.Internal.Correction.Weighted>
   9.000000E+99

> <Gold.Protein.RotatedTorsions>
[ 6907 6896 6895 6894 ] final  -54.07 input  -60.11 | X-H torsion
[ 7974 7965 7964 7962 ] final   47.69 input  175.53 | X-H torsion
[ 8008 7997 7996 7995 ] final  -24.58 input   59.86 | X-H torsion
[ 10167 10162 10161 10158 ] final  135.18 input  -65.29 | X-H torsion
[ 10718 10713 10712 10709 ] final   52.99 input   66.30 | X-H torsion
[ 10763 10752 10751 10750 ] final   36.61 input  -60.55 | X-H torsion
[ 11005 11000 10999 10996 ] final  -17.09 input  -57.11 | X-H torsion

> <Gold.Protein.ActiveResidues>
 VAL166  LYS551  ARG553  GLY616  TRP617  ASP618  TYR619  PRO620  LYS621  CYS622 
 ASP623  PHE694  ASN695  SER759  ASP760  ASP761  ALA762  ILE779  LEU786  VAL792 
 PHE793  MET794  SER795  GLU796  ALA797  LYS798  CYS799  TRP800  GLU811  SER814 

> <Gold.Protein.RotatedAtoms>
  150.8371  134.7648  159.6901 H   0  0  0  0  0  0  0  0  0  0  0  0  # atno 6907 bound_to 6896
  152.4465  134.5480  159.9868 H   0  0  0  0  0  0  0  0  0  0  0  0  # atno 6908 bound_to 6896
  151.5628  133.3363  159.3010 H   0  0  0  0  0  0  0  0  0  0  0  0  # atno 6909 bound_to 6896
  146.0275  139.4723  142.9859 H   0  0  0  0  0  0  0  0  0  0  0  0  # atno 7974 bound_to 7965
  154.4521  140.1949  156.0487 H   0  0  0  0  0  0  0  0  0  0  0  0  # atno 8008 bound_to 7997
  156.0670  140.3289  155.7502 H   0  0  0  0  0  0  0  0  0  0  0  0  # atno 8009 bound_to 7997
  155.5322  140.0579  157.2877 H   0  0  0  0  0  0  0  0  0  0  0  0  # atno 8010 bound_to 7997
  139.5227  144.6530  151.5246 H   0  0  0  0  0  0  0  0  0  0  0  0  # atno 10167 bound_to 10162
  157.5126  130.8511  149.8454 H   0  0  0  0  0  0  0  0  0  0  0  0  # atno 10718 bound_to 10713
  153.0070  135.6301  154.2012 H   0  0  0  0  0  0  0  0  0  0  0  0  # atno 10763 bound_to 10752
  154.1756  135.2816  155.3069 H   0  0  0  0  0  0  0  0  0  0  0  0  # atno 10764 bound_to 10752
  154.5875  135.5628  153.7305 H   0  0  0  0  0  0  0  0  0  0  0  0  # atno 10765 bound_to 10752
  140.8133  133.8124  155.9585 H   0  0  0  0  0  0  0  0  0  0  0  0  # atno 11005 bound_to 11000
  145.7095  141.0111  143.1461 LP  0  0  0  0  0  0  0  0  0  0  0  0  # atno 17320 bound_to 7965
  144.7015  139.8740  143.7442 LP  0  0  0  0  0  0  0  0  0  0  0  0  # atno 17321 bound_to 7965
  140.6343  143.9014  150.6633 LP  0  0  0  0  0  0  0  0  0  0  0  0  # atno 17342 bound_to 10162
  140.2329  143.3722  152.1551 LP  0  0  0  0  0  0  0  0  0  0  0  0  # atno 17343 bound_to 10162
  156.0299  130.3768  150.1718 LP  0  0  0  0  0  0  0  0  0  0  0  0  # atno 17370 bound_to 10713
  156.9907  130.9892  151.3415 LP  0  0  0  0  0  0  0  0  0  0  0  0  # atno 17371 bound_to 10713
  140.9175  134.2183  157.4947 LP  0  0  0  0  0  0  0  0  0  0  0  0  # atno 17394 bound_to 11000
  139.8712  134.9777  156.4971 LP  0  0  0  0  0  0  0  0  0  0  0  0  # atno 17395 bound_to 11000

$$$$
