AV-unprocessed.smi:36|AV-procd|sdf|280|dock10
  -GOLD-   2262016 53D 1   1.00000     0.00000
 Structure written by MMmdl.
 64 67  0  0  0  0  0  0  0  0  1 V2000
  147.5570  135.1246  163.0320 C   0  0  0  0  0  0  0  0  0  0  0  0
  146.3887  135.1764  162.0330 C   0  0  0  0  0  0  0  0  0  0  0  0
  145.3349  134.1251  162.4202 C   0  0  0  0  0  0  0  0  0  0  0  0
  145.7540  136.5768  162.0508 C   0  0  0  0  0  0  0  0  0  0  0  0
  147.0533  134.8116  160.2747 Si  0  0  0  0  0  0  0  0  0  0  0  0
  148.4441  136.0260  159.8276 C   0  0  0  0  0  0  0  0  0  0  0  0
  147.6931  133.0248  160.1485 C   0  0  0  0  0  0  0  0  0  0  0  0
  145.8046  135.0259  159.1505 O   0  0  0  0  0  0  0  0  0  0  0  0
  144.5325  134.4242  159.2780 C   0  0  0  0  0  0  0  0  0  0  0  0
  143.5857  134.9254  158.1710 C   0  0  1  0  0  0  0  0  0  0  0  0
  143.7467  136.3415  158.0806 O   0  0  0  0  0  0  0  0  0  0  0  0
  144.4161  136.6862  156.9030 C   0  0  1  0  0  0  0  0  0  0  0  0
  145.5493  137.5901  157.2529 N   0  0  0  0  0  0  0  0  0  0  0  0
  145.7611  138.3004  158.4148 C   0  0  0  0  0  0  0  0  0  0  0  0
  146.8513  139.0197  158.4379 N   0  0  0  0  0  0  0  0  0  0  0  0
  147.4358  138.7834  157.2002 C   0  0  0  0  0  0  0  0  0  0  0  0
  148.6200  139.2429  156.5685 C   0  0  0  0  0  0  0  0  0  0  0  0
  149.4365  140.1111  157.2096 N   0  0  0  0  0  0  0  0  0  0  0  0
  150.4060  141.0249  156.6317 C   0  0  0  0  0  0  0  0  0  0  0  0
  150.6656  141.0304  155.4280 O   0  0  0  0  0  0  0  0  0  0  0  0
  151.1379  141.9071  157.6008 C   0  0  0  0  0  0  0  0  0  0  0  0
  151.7002  141.3556  158.7742 C   0  0  0  0  0  0  0  0  0  0  0  0
  152.4087  142.1721  159.6772 C   0  0  0  0  0  0  0  0  0  0  0  0
  152.5677  143.5451  159.4106 C   0  0  0  0  0  0  0  0  0  0  0  0
  152.0204  144.1007  158.2389 C   0  0  0  0  0  0  0  0  0  0  0  0
  151.3104  143.2856  157.3359 C   0  0  0  0  0  0  0  0  0  0  0  0
  148.8791  138.7840  155.3154 N   0  0  0  0  0  0  0  0  0  0  0  0
  148.0363  137.9322  154.7230 C   0  0  0  0  0  0  0  0  0  0  0  0
  146.8955  137.4235  155.1942 N   0  0  0  0  0  0  0  0  0  0  0  0
  146.6293  137.8834  156.4505 C   0  0  0  0  0  0  0  0  0  0  0  0
  144.9383  135.3940  156.2808 C   0  0  0  0  0  0  0  0  0  0  0  0
  143.8840  134.4175  156.7516 C   0  0  1  0  0  0  0  0  0  0  0  0
  144.3352  133.0806  156.6876 O   0  0  0  0  0  0  0  0  0  0  0  0
  147.2203  135.3385  164.0468 H   0  0  0  0  0  0  0  0  0  0  0  0
  148.3272  135.8546  162.7824 H   0  0  0  0  0  0  0  0  0  0  0  0
  148.0267  134.1407  163.0433 H   0  0  0  0  0  0  0  0  0  0  0  0
  145.7466  133.1164  162.3878 H   0  0  0  0  0  0  0  0  0  0  0  0
  144.4766  134.1537  161.7502 H   0  0  0  0  0  0  0  0  0  0  0  0
  144.9605  134.2950  163.4303 H   0  0  0  0  0  0  0  0  0  0  0  0
  145.3462  136.8150  163.0339 H   0  0  0  0  0  0  0  0  0  0  0  0
  144.9404  136.6532  161.3297 H   0  0  0  0  0  0  0  0  0  0  0  0
  146.4844  137.3478  161.8048 H   0  0  0  0  0  0  0  0  0  0  0  0
  149.2790  135.9555  160.5244 H   0  0  0  0  0  0  0  0  0  0  0  0
  148.0961  137.0586  159.8402 H   0  0  0  0  0  0  0  0  0  0  0  0
  148.8374  135.8296  158.8304 H   0  0  0  0  0  0  0  0  0  0  0  0
  148.5154  132.8445  160.8404 H   0  0  0  0  0  0  0  0  0  0  0  0
  148.0596  132.8027  159.1465 H   0  0  0  0  0  0  0  0  0  0  0  0
  146.9126  132.2992  160.3767 H   0  0  0  0  0  0  0  0  0  0  0  0
  144.6682  133.3469  159.1773 H   0  0  0  0  0  0  0  0  0  0  0  0
  144.1198  134.5983  160.2709 H   0  0  0  0  0  0  0  0  0  0  0  0
  142.5555  134.7054  158.4532 H   0  0  0  0  0  0  0  0  0  0  0  0
  143.7584  137.2582  156.2474 H   0  0  0  0  0  0  0  0  0  0  0  0
  145.0776  138.2732  159.2500 H   0  0  0  0  0  0  0  0  0  0  0  0
  149.3361  140.1500  158.2135 H   0  0  0  0  0  0  0  0  0  0  0  0
  151.5894  140.3029  158.9918 H   0  0  0  0  0  0  0  0  0  0  0  0
  152.8320  141.7436  160.5735 H   0  0  0  0  0  0  0  0  0  0  0  0
  153.1128  144.1706  160.1018 H   0  0  0  0  0  0  0  0  0  0  0  0
  152.1478  145.1528  158.0299 H   0  0  0  0  0  0  0  0  0  0  0  0
  150.9065  143.7311  156.4384 H   0  0  0  0  0  0  0  0  0  0  0  0
  148.3151  137.6154  153.7289 H   0  0  0  0  0  0  0  0  0  0  0  0
  145.0156  135.4789  155.1964 H   0  0  0  0  0  0  0  0  0  0  0  0
  145.9183  135.1480  156.6936 H   0  0  0  0  0  0  0  0  0  0  0  0
  142.9920  134.5216  156.1323 H   0  0  0  0  0  0  0  0  0  0  0  0
  143.7423  132.5893  156.1393 H   0  0  0  0  0  0  0  0  0  0  0  0
  1  2  1  0  0  0  0
  1 34  1  0  0  0  0
  1 35  1  0  0  0  0
  1 36  1  0  0  0  0
  2  3  1  0  0  0  0
  2  4  1  0  0  0  0
  2  5  1  0  0  0  0
  3 37  1  0  0  0  0
  3 38  1  0  0  0  0
  3 39  1  0  0  0  0
  4 40  1  0  0  0  0
  4 41  1  0  0  0  0
  4 42  1  0  0  0  0
  5  6  1  0  0  0  0
  5  7  1  0  0  0  0
  5  8  1  0  0  0  0
  6 43  1  0  0  0  0
  6 44  1  0  0  0  0
  6 45  1  0  0  0  0
  7 46  1  0  0  0  0
  7 47  1  0  0  0  0
  7 48  1  0  0  0  0
  8  9  1  0  0  0  0
  9 10  1  0  0  0  0
  9 49  1  0  0  0  0
  9 50  1  0  0  0  0
 10 32  1  0  0  0  0
 10 11  1  0  0  0  0
 10 51  1  0  0  0  0
 11 12  1  0  0  0  0
 12 13  1  0  0  0  0
 12 31  1  0  0  0  0
 12 52  1  0  0  0  0
 13 30  1  0  0  0  0
 13 14  1  0  0  0  0
 14 15  2  0  0  0  0
 14 53  1  0  0  0  0
 15 16  1  0  0  0  0
 16 30  2  0  0  0  0
 16 17  1  0  0  0  0
 17 18  1  0  0  0  0
 17 27  2  0  0  0  0
 18 19  1  0  0  0  0
 18 54  1  0  0  0  0
 19 20  2  0  0  0  0
 19 21  1  0  0  0  0
 21 26  1  0  0  0  0
 21 22  2  0  0  0  0
 22 23  1  0  0  0  0
 22 55  1  0  0  0  0
 23 24  2  0  0  0  0
 23 56  1  0  0  0  0
 24 25  1  0  0  0  0
 24 57  1  0  0  0  0
 25 26  2  0  0  0  0
 25 58  1  0  0  0  0
 26 59  1  0  0  0  0
 27 28  1  0  0  0  0
 28 29  2  0  0  0  0
 28 60  1  0  0  0  0
 29 30  1  0  0  0  0
 31 32  1  0  0  0  0
 31 61  1  0  0  0  0
 31 62  1  0  0  0  0
 32 33  1  0  0  0  0
 32 63  1  0  0  0  0
 33 64  1  0  0  0  0
M  END
> <s_m_source_file>
AV-unprocessed.smi

> <i_m_source_file_index>
36

> <i_lp_mmshare_version>
43012

> <i_f3d_flags>
0

> <s_epik_input>
W0NIM11DKFtDSDNdKShbQ0gzXSlbU2ldKFtDSDNdKShbQ0gzXSlPW0NIMl1bQ0BASF0xT1tDQEhdKFtDSDJdW0NASF0xW09IXSluKFtjSF1uMiljKGMyMyluW2NIXW5jM1tOSF1DKD1PKWM0W2NIXVtjSF1bY0hdW2NIXVtjSF00

> <s_epik_cmdline>
J2VwaWtfcHl0aG9uJywgJy1waCcsICc3LjAnLCAnLXRuJywgJzgnLCAnLW1hJywgJzIwMCcsICctbWV0YWxfYmluZGluZycsICctaW1hZScsICc8aW5maWxlLm1hZT4nLCAnLW9tYWUnLCAnPG91dGZpbGUubWFlPic=

> <r_lp_tautomer_probability>
1

> <r_epik_Ionization_Penalty>
0.00150433

> <r_epik_Ionization_Penalty_Charging>
0

> <r_epik_Ionization_Penalty_Neutral>
0.00150433

> <r_epik_State_Penalty>
0.00724046

> <r_epik_Charging_Adjusted_Penalty>
0.00724046

> <i_epik_Tot_Q>
0

> <i_epik_Tot_abs_Q>
0

> <r_epik_Metal_State_Penalty>
0.323355

> <b_epik_Metal_Only>
0

> <s_epik_Chemistry_Notes>
This compound contains an acetal/aminal-like group ( X-CH(R)-Y where X, Y are N, S, or O) that may be acid/base labile, releasing an aldehyde.

> <s_lp_Force_Field>
OPLS_2005

> <r_lp_Energy>
33.9603

> <b_lp_Chiralities_Consistent>
1

> <s_lp_Variant>
AV-unprocessed.smi:36-2

> <Gold.Version>
5.8.1

> <Gold.Id.Protein>
6NUR|6NUR_protein|mol2

> <Gold.PLP.Fitness>
48.0308

> <Gold.PLP.PLP>
-43.0263

> <Gold.PLP.part.hbond>
-3.0000

> <Gold.PLP.part.metal>
0.0000

> <Gold.PLP.part.buried>
-5.1176

> <Gold.PLP.part.nonpolar>
-35.0395

> <Gold.PLP.part.repulsive>
0.2262

> <Gold.PLP.ligand.clash>
0.0000

> <Gold.PLP.ligand.torsion>
1.5624

> <Gold.PLP.Chemscore.Hbond>
1.6820

> <Gold.PLP.Chemscore.CHOScore>
1.0000

> <Gold.PLP.Chemscore.Metal>
0.0000

> <Gold.Chemscore.Hbonds>
donor molecule, donor type, donor heavy atom, donor atom, acceptor molecule, acceptor atom, score
      L1  H    33    64       P1 10957  1.00
      P1  H  7989  7998       L1    20  0.49
      L1  C    28    60       P1  7948  1.00

> <Gold.PLP.Chemscore.Internal.Correction>
0.0834

> <Gold.Rescore>
     Score         DG    S(hbond)    S(metal)    S(lipo)     H(rot)  DE(clash)    DE(int)     intcor
     10.63     -15.69       1.36        0.00     107.59       2.70       1.44       3.62       ----

> <Gold.Chemscore.Fitness>
10.6312

> <Gold.Chemscore.DG>
-15.6928

> <Gold.Chemscore.ZeroCoef>
-5.4800

> <Gold.Chemscore.Hbond>
1.3613

> <Gold.Chemscore.Metal>
0.0000

> <Gold.Chemscore.Lipo>
107.5929

> <Gold.Chemscore.Internal_Hbond>
0.0000

> <Gold.Chemscore.DEClash>
1.4372

> <Gold.Chemscore.DEInternal>
3.6244

> <Gold.Chemscore.Rot>
2.7041

> <Gold.Chemscore.Internal.Correction>
   9.000000E+99

> <Gold.Chemscore.Hbonds>
donor molecule, donor type, donor heavy atom, donor atom, acceptor molecule, acceptor atom, score
      L1  H    33    64       P1 10957  1.00
      P1  H  7989  7998       L1    20  0.48

> <Gold.Chemscore.Hbond.Weighted>
-4.5469

> <Gold.Chemscore.Metal.Weighted>
-0.0000

> <Gold.Chemscore.Lipo.Weighted>
-12.5884

> <Gold.Chemscore.Internal_Hbond.Weighted>
0.0000

> <Gold.Chemscore.DEClash.Weighted>
1.4372

> <Gold.Chemscore.DEInternal.Weighted>
3.6244

> <Gold.Chemscore.Rot.Weighted>
6.9225

> <Gold.Chemscore.Internal.Correction.Weighted>
   9.000000E+99

> <Gold.Protein.RotatedTorsions>
[ 6907 6896 6895 6894 ] final   77.10 input  -60.11 | X-H torsion
[ 7974 7965 7964 7962 ] final  -90.81 input  175.53 | X-H torsion
[ 8008 7997 7996 7995 ] final  -12.22 input   59.86 | X-H torsion
[ 10167 10162 10161 10158 ] final  -78.79 input  -65.29 | X-H torsion
[ 10718 10713 10712 10709 ] final  115.12 input   66.30 | X-H torsion
[ 10763 10752 10751 10750 ] final   21.57 input  -60.55 | X-H torsion
[ 11005 11000 10999 10996 ] final   10.90 input  -57.11 | X-H torsion

> <Gold.Protein.ActiveResidues>
 VAL166  LYS551  ARG553  GLY616  TRP617  ASP618  TYR619  PRO620  LYS621  CYS622 
 ASP623  PHE694  ASN695  SER759  ASP760  ASP761  ALA762  ILE779  LEU786  VAL792 
 PHE793  MET794  SER795  GLU796  ALA797  LYS798  CYS799  TRP800  GLU811  SER814 

> <Gold.Protein.RotatedAtoms>
  152.5103  134.3868  159.9369 H   0  0  0  0  0  0  0  0  0  0  0  0  # atno 6907 bound_to 6896
  151.3826  133.3810  159.2719 H   0  0  0  0  0  0  0  0  0  0  0  0  # atno 6908 bound_to 6896
  150.9493  134.8915  159.7720 H   0  0  0  0  0  0  0  0  0  0  0  0  # atno 6909 bound_to 6896
  145.4214  140.9551  143.2179 H   0  0  0  0  0  0  0  0  0  0  0  0  # atno 7974 bound_to 7965
  154.5396  140.2282  155.8664 H   0  0  0  0  0  0  0  0  0  0  0  0  # atno 8008 bound_to 7997
  156.1845  140.3092  155.9174 H   0  0  0  0  0  0  0  0  0  0  0  0  # atno 8009 bound_to 7997
  155.3285  140.0444  157.3032 H   0  0  0  0  0  0  0  0  0  0  0  0  # atno 8010 bound_to 7997
  140.4650  143.2442  151.8291 H   0  0  0  0  0  0  0  0  0  0  0  0  # atno 10167 bound_to 10162
  157.6241  131.1008  150.7284 H   0  0  0  0  0  0  0  0  0  0  0  0  # atno 10718 bound_to 10713
  153.0985  135.6666  153.9718 H   0  0  0  0  0  0  0  0  0  0  0  0  # atno 10763 bound_to 10752
  153.9295  135.3005  155.3447 H   0  0  0  0  0  0  0  0  0  0  0  0  # atno 10764 bound_to 10752
  154.7405  135.5082  153.9188 H   0  0  0  0  0  0  0  0  0  0  0  0  # atno 10765 bound_to 10752
  140.5093  134.0668  155.7814 H   0  0  0  0  0  0  0  0  0  0  0  0  # atno 11005 bound_to 11000
  144.8242  139.5738  143.6973 LP  0  0  0  0  0  0  0  0  0  0  0  0  # atno 17320 bound_to 7965
  146.2654  139.6508  142.9333 LP  0  0  0  0  0  0  0  0  0  0  0  0  # atno 17321 bound_to 7965
  139.4811  144.4961  151.9122 LP  0  0  0  0  0  0  0  0  0  0  0  0  # atno 17342 bound_to 10162
  140.4047  144.2448  150.5891 LP  0  0  0  0  0  0  0  0  0  0  0  0  # atno 17343 bound_to 10162
  156.7636  130.4806  149.5432 LP  0  0  0  0  0  0  0  0  0  0  0  0  # atno 17370 bound_to 10713
  156.1402  130.6239  151.0457 LP  0  0  0  0  0  0  0  0  0  0  0  0  # atno 17371 bound_to 10713
  141.1394  133.9165  157.2360 LP  0  0  0  0  0  0  0  0  0  0  0  0  # atno 17394 bound_to 11000
  139.9668  135.0139  156.9408 LP  0  0  0  0  0  0  0  0  0  0  0  0  # atno 17395 bound_to 11000

$$$$
