AV-unprocessed.smi:334|AV-procd|sdf|2362|dock8
  -GOLD-   2262022273D 1   1.00000     0.00000
 Structure written by MMmdl.
 44 46  0  0  0  0  0  0  0  0  3 V2000
  143.9594  136.6959  153.0486 C   0  0  0  0  0  0  0  0  0  0  0  0
  145.3784  136.1225  153.1987 C   0  0  2  0  0  0  0  0  0  0  0  0
  146.3333  137.1789  152.8655 N   0  0  0  0  0  0  0  0  0  0  0  0
  146.4023  138.3915  153.4369 C   0  0  0  0  0  0  0  0  0  0  0  0
  145.6566  138.7561  154.3469 O   0  0  0  0  0  0  0  0  0  0  0  0
  147.5062  139.3163  152.9045 C   0  0  0  0  0  0  0  0  0  0  0  0
  148.5144  139.6680  153.9186 N   0  0  0  0  0  0  0  0  0  0  0  0
  149.7656  139.0266  153.8260 C   0  0  0  0  0  0  0  0  0  0  0  0
  150.7598  139.2666  154.7032 C   0  0  0  0  0  0  0  0  0  0  0  0
  152.0361  138.5943  154.5965 N   0  3  0  0  0  0  0  0  0  0  0  0
  152.0889  137.5230  154.0011 O   0  0  0  0  0  0  0  0  0  0  0  0
  153.0266  139.1122  155.1036 O   0  5  0  0  0  0  0  0  0  0  0  0
  150.5064  140.2216  155.7647 C   0  0  0  0  0  0  0  0  0  0  0  0
  149.3106  140.8353  155.8609 C   0  0  0  0  0  0  0  0  0  0  0  0
  148.2281  140.5684  154.9082 C   0  0  0  0  0  0  0  0  0  0  0  0
  147.1308  141.1201  154.9954 O   0  0  0  0  0  0  0  0  0  0  0  0
  145.6089  134.8807  152.3001 C   0  0  2  0  0  0  0  0  0  0  0  0
  145.2719  135.1285  150.8088 C   0  0  0  0  0  0  0  0  0  0  0  0
  144.2851  133.9965  150.4727 C   0  0  1  0  0  0  0  0  0  0  0  0
  145.0294  132.6492  150.4627 C   0  0  0  0  0  0  0  0  0  0  0  0
  145.3012  132.4041  151.9583 C   0  0  0  0  0  0  0  0  0  0  0  0
  144.7063  133.6605  152.6230 C   0  0  2  0  0  0  0  0  0  0  0  0
  143.4744  133.9060  151.7587 C   0  0  0  0  0  0  0  0  0  0  0  0
  143.1982  135.9698  153.3334 H   0  0  0  0  0  0  0  0  0  0  0  0
  143.7597  136.9985  152.0200 H   0  0  0  0  0  0  0  0  0  0  0  0
  143.8232  137.5715  153.6844 H   0  0  0  0  0  0  0  0  0  0  0  0
  145.5020  135.8266  154.2415 H   0  0  0  0  0  0  0  0  0  0  0  0
  146.9960  136.9694  152.1329 H   0  0  0  0  0  0  0  0  0  0  0  0
  147.9782  138.8261  152.0517 H   0  0  0  0  0  0  0  0  0  0  0  0
  147.0509  140.2203  152.4953 H   0  0  0  0  0  0  0  0  0  0  0  0
  149.8514  138.3284  153.0056 H   0  0  0  0  0  0  0  0  0  0  0  0
  151.2725  140.4511  156.4902 H   0  0  0  0  0  0  0  0  0  0  0  0
  149.1428  141.5425  156.6599 H   0  0  0  0  0  0  0  0  0  0  0  0
  146.6556  134.5874  152.3961 H   0  0  0  0  0  0  0  0  0  0  0  0
  144.7837  136.0928  150.6627 H   0  0  0  0  0  0  0  0  0  0  0  0
  146.1587  135.1095  150.1744 H   0  0  0  0  0  0  0  0  0  0  0  0
  143.7004  134.1804  149.5710 H   0  0  0  0  0  0  0  0  0  0  0  0
  144.3995  131.8588  150.0526 H   0  0  0  0  0  0  0  0  0  0  0  0
  145.9462  132.6879  149.8731 H   0  0  0  0  0  0  0  0  0  0  0  0
  144.7835  131.5060  152.2978 H   0  0  0  0  0  0  0  0  0  0  0  0
  146.3624  132.2773  152.1754 H   0  0  0  0  0  0  0  0  0  0  0  0
  144.4963  133.5119  153.6817 H   0  0  0  0  0  0  0  0  0  0  0  0
  142.9442  134.8273  152.0054 H   0  0  0  0  0  0  0  0  0  0  0  0
  142.7672  133.0745  151.7669 H   0  0  0  0  0  0  0  0  0  0  0  0
  1  2  1  0  0  0  0
  1 24  1  0  0  0  0
  1 25  1  0  0  0  0
  1 26  1  0  0  0  0
  2  3  1  0  0  0  0
  2 17  1  0  0  0  0
  2 27  1  0  0  0  0
  3  4  1  0  0  0  0
  3 28  1  0  0  0  0
  4  5  2  0  0  0  0
  4  6  1  0  0  0  0
  6  7  1  0  0  0  0
  6 29  1  0  0  0  0
  6 30  1  0  0  0  0
  7 15  1  0  0  0  0
  7  8  1  0  0  0  0
  8  9  2  0  0  0  0
  8 31  1  0  0  0  0
  9 10  1  0  0  0  0
  9 13  1  0  0  0  0
 10 11  2  0  0  0  0
 10 12  1  0  0  0  0
 13 14  2  0  0  0  0
 13 32  1  0  0  0  0
 14 15  1  0  0  0  0
 14 33  1  0  0  0  0
 15 16  2  0  0  0  0
 17 22  1  0  0  0  0
 17 18  1  0  0  0  0
 17 34  1  0  0  0  0
 18 19  1  0  0  0  0
 18 35  1  0  0  0  0
 18 36  1  0  0  0  0
 19 23  1  0  0  0  0
 19 20  1  0  0  0  0
 19 37  1  0  0  0  0
 20 21  1  0  0  0  0
 20 38  1  0  0  0  0
 20 39  1  0  0  0  0
 21 22  1  0  0  0  0
 21 40  1  0  0  0  0
 21 41  1  0  0  0  0
 22 23  1  0  0  0  0
 22 42  1  0  0  0  0
 23 43  1  0  0  0  0
 23 44  1  0  0  0  0
M  CHG  1  10   1
M  CHG  1  12  -1
M  END
> <s_m_source_file>
AV-unprocessed.smi

> <i_m_source_file_index>
334

> <i_lp_mmshare_version>
43012

> <i_f3d_flags>
0

> <s_epik_input>
W0NIMl0xW0NIMl1bQ0BIXShbQ0gyXTIpW0NAQEhdKFtDSDJdW0NAQEhdMTIpW0NASF0oW0NIM10pW05IXUMoPU8pW0NIMl1uM1tjSF1jKFtOK10oPU8pW08tXSlbY0hdW2NIXWMzPU8=

> <s_epik_cmdline>
J2VwaWtfcHl0aG9uJywgJy1waCcsICc3LjAnLCAnLXRuJywgJzgnLCAnLW1hJywgJzIwMCcsICctbWV0YWxfYmluZGluZycsICctaW1hZScsICc8aW5maWxlLm1hZT4nLCAnLW9tYWUnLCAnPG91dGZpbGUubWFlPic=

> <r_lp_tautomer_probability>
1

> <r_epik_Ionization_Penalty>
2.17081e-08

> <r_epik_Ionization_Penalty_Charging>
8.1195e-11

> <r_epik_Ionization_Penalty_Neutral>
2.16269e-08

> <r_epik_State_Penalty>
-0

> <r_epik_Charging_Adjusted_Penalty>
8.1195e-11

> <i_epik_Tot_Q>
0

> <i_epik_Tot_abs_Q>
2

> <r_epik_Metal_State_Penalty>
-0

> <b_epik_Metal_Only>
0

> <s_lp_Force_Field>
OPLS_2005

> <r_lp_Energy>
62.1866

> <b_lp_Chiralities_Consistent>
1

> <s_lp_Variant>
AV-unprocessed.smi:334-1

> <Gold.Version>
5.8.1

> <Gold.Id.Protein>
6NUR|6NUR_protein|mol2

> <Gold.PLP.Fitness>
47.5329

> <Gold.PLP.PLP>
-36.3423

> <Gold.PLP.part.hbond>
-3.0000

> <Gold.PLP.part.metal>
0.0000

> <Gold.PLP.part.buried>
0.0293

> <Gold.PLP.part.nonpolar>
-33.9496

> <Gold.PLP.part.repulsive>
0.4031

> <Gold.PLP.ligand.clash>
0.0000

> <Gold.PLP.ligand.torsion>
0.4683

> <Gold.PLP.Chemscore.Hbond>
2.7440

> <Gold.PLP.Chemscore.CHOScore>
1.2898

> <Gold.PLP.Chemscore.Metal>
0.0000

> <Gold.Chemscore.Hbonds>
donor molecule, donor type, donor heavy atom, donor atom, acceptor molecule, acceptor atom, score
      L1  H     3    28       P1  7948  0.72
      P1  H  7997  8008       L1    12  1.00
      P1  H 10752 10765       L1    11  0.90
      L1  C     8    31       P1  7948  1.00
      L1  C     8    31       P1  7957  0.35

> <Gold.PLP.Chemscore.Internal.Correction>
0.0259

> <Gold.Rescore>
     Score         DG    S(hbond)    S(metal)    S(lipo)     H(rot)  DE(clash)    DE(int)     intcor
     15.35     -19.34       2.63        0.00      81.76       1.75       0.91       3.09       ----

> <Gold.Chemscore.Fitness>
15.3450

> <Gold.Chemscore.DG>
-19.3416

> <Gold.Chemscore.ZeroCoef>
-5.4800

> <Gold.Chemscore.Hbond>
2.6255

> <Gold.Chemscore.Metal>
0.0000

> <Gold.Chemscore.Lipo>
81.7582

> <Gold.Chemscore.Internal_Hbond>
0.0000

> <Gold.Chemscore.DEClash>
0.9068

> <Gold.Chemscore.DEInternal>
3.0898

> <Gold.Chemscore.Rot>
1.7474

> <Gold.Chemscore.Internal.Correction>
   9.000000E+99

> <Gold.Chemscore.Hbonds>
donor molecule, donor type, donor heavy atom, donor atom, acceptor molecule, acceptor atom, score
      L1  H     3    28       P1  7948  0.68
      P1  H  7997  8008       L1    12  0.98
      P1  H 10752 10765       L1    11  0.84

> <Gold.Chemscore.Hbond.Weighted>
-8.7692

> <Gold.Chemscore.Metal.Weighted>
-0.0000

> <Gold.Chemscore.Lipo.Weighted>
-9.5657

> <Gold.Chemscore.Internal_Hbond.Weighted>
0.0000

> <Gold.Chemscore.DEClash.Weighted>
0.9068

> <Gold.Chemscore.DEInternal.Weighted>
3.0898

> <Gold.Chemscore.Rot.Weighted>
4.4733

> <Gold.Chemscore.Internal.Correction.Weighted>
   9.000000E+99

> <Gold.Protein.RotatedTorsions>
[ 6907 6896 6895 6894 ] final  -94.65 input  -60.11 | X-H torsion
[ 7974 7965 7964 7962 ] final   41.26 input  175.53 | X-H torsion
[ 8008 7997 7996 7995 ] final  -26.17 input   59.86 | X-H torsion
[ 10167 10162 10161 10158 ] final  -77.00 input  -65.29 | X-H torsion
[ 10718 10713 10712 10709 ] final   48.98 input   66.30 | X-H torsion
[ 10763 10752 10751 10750 ] final  149.12 input  -60.55 | X-H torsion
[ 11005 11000 10999 10996 ] final   -9.81 input  -57.11 | X-H torsion

> <Gold.Protein.ActiveResidues>
 VAL166  LYS551  ARG553  GLY616  TRP617  ASP618  TYR619  PRO620  LYS621  CYS622 
 ASP623  PHE694  ASN695  SER759  ASP760  ASP761  ALA762  ILE779  LEU786  VAL792 
 PHE793  MET794  SER795  GLU796  ALA797  LYS798  CYS799  TRP800  GLU811  SER814 

> <Gold.Protein.RotatedAtoms>
  150.6946  134.1779  159.4237 H   0  0  0  0  0  0  0  0  0  0  0  0  # atno 6907 bound_to 6896
  151.9755  135.0053  160.0564 H   0  0  0  0  0  0  0  0  0  0  0  0  # atno 6908 bound_to 6896
  152.1803  133.4667  159.4991 H   0  0  0  0  0  0  0  0  0  0  0  0  # atno 6909 bound_to 6896
  146.0838  139.5436  142.9520 H   0  0  0  0  0  0  0  0  0  0  0  0  # atno 7974 bound_to 7965
  154.4438  140.1906  156.0733 H   0  0  0  0  0  0  0  0  0  0  0  0  # atno 8008 bound_to 7997
  156.0494  140.3310  155.7307 H   0  0  0  0  0  0  0  0  0  0  0  0  # atno 8009 bound_to 7997
  155.5580  140.0601  157.2826 H   0  0  0  0  0  0  0  0  0  0  0  0  # atno 8010 bound_to 7997
  140.4808  143.2403  151.8061 H   0  0  0  0  0  0  0  0  0  0  0  0  # atno 10167 bound_to 10162
  157.4741  130.8274  149.8020 H   0  0  0  0  0  0  0  0  0  0  0  0  # atno 10718 bound_to 10713
  154.0659  135.2870  155.3317 H   0  0  0  0  0  0  0  0  0  0  0  0  # atno 10763 bound_to 10752
  154.6778  135.5275  153.8226 H   0  0  0  0  0  0  0  0  0  0  0  0  # atno 10764 bound_to 10752
  153.0504  135.6574  154.0844 H   0  0  0  0  0  0  0  0  0  0  0  0  # atno 10765 bound_to 10752
  140.7381  133.8693  155.8945 H   0  0  0  0  0  0  0  0  0  0  0  0  # atno 11005 bound_to 11000
  145.6168  141.0330  143.1936 LP  0  0  0  0  0  0  0  0  0  0  0  0  # atno 17320 bound_to 7965
  144.7311  139.7722  143.7346 LP  0  0  0  0  0  0  0  0  0  0  0  0  # atno 17321 bound_to 7965
  139.4833  144.4775  151.9348 LP  0  0  0  0  0  0  0  0  0  0  0  0  # atno 17342 bound_to 10162
  140.3861  144.2675  150.5904 LP  0  0  0  0  0  0  0  0  0  0  0  0  # atno 17343 bound_to 10162
  156.0088  130.3843  150.2336 LP  0  0  0  0  0  0  0  0  0  0  0  0  # atno 17370 bound_to 10713
  157.0520  131.0065  151.3250 LP  0  0  0  0  0  0  0  0  0  0  0  0  # atno 17371 bound_to 10713
  140.9861  134.1340  157.4450 LP  0  0  0  0  0  0  0  0  0  0  0  0  # atno 17394 bound_to 11000
  139.8812  135.0026  156.6136 LP  0  0  0  0  0  0  0  0  0  0  0  0  # atno 17395 bound_to 11000

$$$$
