AV-unprocessed.smi:2027|AV-procd|sdf|8218|dock10
  -GOLD-   2272010483D 1   1.00000     0.00000
 Structure written by MMmdl.
 51 53  0  0  0  0  0  0  0  0  3 V2000
  147.1255  128.8062  152.7782 C   0  0  0  0  0  0  0  0  0  0  0  0
  146.4650  130.1459  152.5003 C   0  0  0  0  0  0  0  0  0  0  0  0
  145.7363  130.3025  151.2998 C   0  0  0  0  0  0  0  0  0  0  0  0
  145.1459  131.5400  151.0728 C   0  0  0  0  0  0  0  0  0  0  0  0
  144.3767  132.0026  150.0031 N   0  3  0  0  0  0  0  0  0  0  0  0
  144.0192  133.2973  150.2265 C   0  0  0  0  0  0  0  0  0  0  0  0
  144.5468  133.6688  151.4252 N   0  0  0  0  0  0  0  0  0  0  0  0
  144.4711  134.9610  152.1231 C   0  0  0  0  0  0  0  0  0  0  0  0
  145.8376  135.6633  152.2420 C   0  0  1  0  0  0  0  0  0  0  0  0
  146.1611  136.2847  151.0136 O   0  0  0  0  0  0  0  0  0  0  0  0
  145.8277  136.7382  153.3475 C   0  0  0  0  0  0  0  0  0  0  0  0
  147.0394  137.5971  153.3132 N   0  3  1  0  0  0  0  0  0  0  0  0
  146.7984  138.8635  152.5812 C   0  0  0  0  0  0  0  0  0  0  0  0
  147.6344  137.8155  154.6575 C   0  0  0  0  0  0  0  0  0  0  0  0
  148.7462  138.8284  154.6117 C   0  0  0  0  0  0  0  0  0  0  0  0
  149.7382  138.9876  153.6021 C   0  0  0  0  0  0  0  0  0  0  0  0
  150.5780  139.9766  153.8579 N   0  0  0  0  0  0  0  0  0  0  0  0
  150.1583  140.4783  155.0373 N   0  0  0  0  0  0  0  0  0  0  0  0
  150.8660  141.5920  155.6320 C   0  0  0  0  0  0  0  0  0  0  0  0
  149.0569  139.8038  155.5175 C   0  0  0  0  0  0  0  0  0  0  0  0
  145.2589  132.6031  151.9902 C   0  0  0  0  0  0  0  0  0  0  0  0
  145.9703  132.4634  153.1801 C   0  0  0  0  0  0  0  0  0  0  0  0
  146.5792  131.2125  153.4291 C   0  0  0  0  0  0  0  0  0  0  0  0
  147.3625  131.0321  154.7183 C   0  0  0  0  0  0  0  0  0  0  0  0
  146.9826  128.1110  151.9500 H   0  0  0  0  0  0  0  0  0  0  0  0
  146.7025  128.3504  153.6737 H   0  0  0  0  0  0  0  0  0  0  0  0
  148.1987  128.9296  152.9257 H   0  0  0  0  0  0  0  0  0  0  0  0
  145.6440  129.4944  150.5887 H   0  0  0  0  0  0  0  0  0  0  0  0
  143.4279  133.9177  149.5684 H   0  0  0  0  0  0  0  0  0  0  0  0
  143.7388  135.5982  151.6272 H   0  0  0  0  0  0  0  0  0  0  0  0
  144.0729  134.7612  153.1187 H   0  0  0  0  0  0  0  0  0  0  0  0
  146.5969  134.9090  152.4469 H   0  0  0  0  0  0  0  0  0  0  0  0
  147.0979  136.2421  150.8928 H   0  0  0  0  0  0  0  0  0  0  0  0
  144.9310  137.3486  153.2246 H   0  0  0  0  0  0  0  0  0  0  0  0
  145.7436  136.2783  154.3336 H   0  0  0  0  0  0  0  0  0  0  0  0
  146.0565  139.4762  153.0950 H   0  0  0  0  0  0  0  0  0  0  0  0
  146.4358  138.6630  151.5725 H   0  0  0  0  0  0  0  0  0  0  0  0
  147.7139  139.4462  152.4811 H   0  0  0  0  0  0  0  0  0  0  0  0
  146.8495  138.1184  155.3522 H   0  0  0  0  0  0  0  0  0  0  0  0
  148.0208  136.8752  155.0487 H   0  0  0  0  0  0  0  0  0  0  0  0
  149.8690  138.4177  152.6939 H   0  0  0  0  0  0  0  0  0  0  0  0
  150.3187  141.9627  156.4992 H   0  0  0  0  0  0  0  0  0  0  0  0
  150.9661  142.3996  154.9060 H   0  0  0  0  0  0  0  0  0  0  0  0
  151.8580  141.2697  155.9495 H   0  0  0  0  0  0  0  0  0  0  0  0
  148.5887  140.0719  156.4533 H   0  0  0  0  0  0  0  0  0  0  0  0
  146.0575  133.2717  153.8909 H   0  0  0  0  0  0  0  0  0  0  0  0
  147.3361  131.9335  155.3314 H   0  0  0  0  0  0  0  0  0  0  0  0
  148.4073  130.8068  154.5026 H   0  0  0  0  0  0  0  0  0  0  0  0
  146.9463  130.2157  155.3091 H   0  0  0  0  0  0  0  0  0  0  0  0
  147.7211  137.0859  152.7700 H   0  0  0  0  0  0  0  0  0  0  0  0
  144.1182  131.4765  149.1779 H   0  0  0  0  0  0  0  0  0  0  0  0
  1  2  1  0  0  0  0
  1 25  1  0  0  0  0
  1 26  1  0  0  0  0
  1 27  1  0  0  0  0
  2 23  1  0  0  0  0
  2  3  2  0  0  0  0
  3  4  1  0  0  0  0
  3 28  1  0  0  0  0
  4 21  2  0  0  0  0
  4  5  1  0  0  0  0
  5  6  2  0  0  0  0
  5 51  1  0  0  0  0
  6  7  1  0  0  0  0
  6 29  1  0  0  0  0
  7  8  1  0  0  0  0
  7 21  1  0  0  0  0
  8  9  1  0  0  0  0
  8 30  1  0  0  0  0
  8 31  1  0  0  0  0
  9 10  1  0  0  0  0
  9 11  1  0  0  0  0
  9 32  1  0  0  0  0
 10 33  1  0  0  0  0
 11 12  1  0  0  0  0
 11 34  1  0  0  0  0
 11 35  1  0  0  0  0
 12 13  1  0  0  0  0
 12 14  1  0  0  0  0
 12 50  1  0  0  0  0
 13 36  1  0  0  0  0
 13 37  1  0  0  0  0
 13 38  1  0  0  0  0
 14 15  1  0  0  0  0
 14 39  1  0  0  0  0
 14 40  1  0  0  0  0
 15 20  2  0  0  0  0
 15 16  1  0  0  0  0
 16 17  2  0  0  0  0
 16 41  1  0  0  0  0
 17 18  1  0  0  0  0
 18 19  1  0  0  0  0
 18 20  1  0  0  0  0
 19 42  1  0  0  0  0
 19 43  1  0  0  0  0
 19 44  1  0  0  0  0
 20 45  1  0  0  0  0
 21 22  1  0  0  0  0
 22 23  2  0  0  0  0
 22 46  1  0  0  0  0
 23 24  1  0  0  0  0
 24 47  1  0  0  0  0
 24 48  1  0  0  0  0
 24 49  1  0  0  0  0
M  CHG  1   5   1
M  CHG  1  12   1
M  END
> <s_m_source_file>
AV-unprocessed.smi

> <i_m_source_file_index>
2027

> <i_lp_mmshare_version>
43012

> <i_f3d_flags>
0

> <s_epik_input>
W0NIM11jKFtjSF0xKWMoW0NIM10pW2NIXWMoYzEyKW4oW2NIXW4yKVtDSDJdW0NASF0oW09IXSlbQ0gyXU4oW0NIM10pW0NIMl1jM1tjSF1ubihbQ0gzXSlbY0hdMw==

> <s_epik_cmdline>
J2VwaWtfcHl0aG9uJywgJy1waCcsICc3LjAnLCAnLXRuJywgJzgnLCAnLW1hJywgJzIwMCcsICctbWV0YWxfYmluZGluZycsICctaW1hZScsICc8aW5maWxlLm1hZT4nLCAnLW9tYWUnLCAnPG91dGZpbGUubWFlPic=

> <r_lp_tautomer_probability>
1

> <r_epik_Ionization_Penalty>
1.77469

> <r_epik_Ionization_Penalty_Charging>
1.77463

> <r_epik_Ionization_Penalty_Neutral>
6.41153e-05

> <r_epik_State_Penalty>
1.85225

> <r_epik_Charging_Adjusted_Penalty>
3.62688

> <i_epik_Tot_Q>
2

> <i_epik_Tot_abs_Q>
2

> <r_epik_Metal_State_Penalty>
1.92669

> <b_epik_Metal_Only>
0

> <s_lp_Force_Field>
OPLS_2005

> <r_lp_Energy>
18.885

> <b_lp_Chiralities_Consistent>
1

> <s_lp_Variant>
AV-unprocessed.smi:2027-10

> <Gold.Version>
5.8.1

> <Gold.Id.Protein>
6NUR|6NUR_protein|mol2

> <Gold.PLP.Fitness>
54.0172

> <Gold.PLP.PLP>
-36.7361

> <Gold.PLP.part.hbond>
-3.0000

> <Gold.PLP.part.metal>
0.0000

> <Gold.PLP.part.buried>
-5.8568

> <Gold.PLP.part.nonpolar>
-28.4368

> <Gold.PLP.part.repulsive>
0.2628

> <Gold.PLP.ligand.clash>
0.0000

> <Gold.PLP.ligand.torsion>
1.2086

> <Gold.PLP.Chemscore.Hbond>
4.0000

> <Gold.PLP.Chemscore.CHOScore>
2.5441

> <Gold.PLP.Chemscore.Metal>
0.0000

> <Gold.Chemscore.Hbonds>
donor molecule, donor type, donor heavy atom, donor atom, acceptor molecule, acceptor atom, score
      L1  H    10    33       P1  7948  0.92
      L1  H    12    50       P1  7948  2.00
      P1  H  7989  7998       L1    17  0.71
      L1  C     6    29       P1 10186  1.00
      L1  C    16    41       P1  7948  1.00
      L1  C    16    41       P1  7957  0.43

> <Gold.PLP.Chemscore.Internal.Correction>
0.0659

> <Gold.Rescore>
     Score         DG    S(hbond)    S(metal)    S(lipo)     H(rot)  DE(clash)    DE(int)     intcor
     18.07     -19.34       2.95        0.00      90.85       2.58       0.04       1.23       ----

> <Gold.Chemscore.Fitness>
18.0673

> <Gold.Chemscore.DG>
-19.3375

> <Gold.Chemscore.ZeroCoef>
-5.4800

> <Gold.Chemscore.Hbond>
2.9467

> <Gold.Chemscore.Metal>
0.0000

> <Gold.Chemscore.Lipo>
90.8488

> <Gold.Chemscore.Internal_Hbond>
0.0000

> <Gold.Chemscore.DEClash>
0.0366

> <Gold.Chemscore.DEInternal>
1.2336

> <Gold.Chemscore.Rot>
2.5836

> <Gold.Chemscore.Internal.Correction>
   9.000000E+99

> <Gold.Chemscore.Hbonds>
donor molecule, donor type, donor heavy atom, donor atom, acceptor molecule, acceptor atom, score
      L1  H    10    33       P1  7948  0.80
      L1  H    12    50       P1  7948  1.00
      P1  H  7989  7998       L1    17  0.31

> <Gold.Chemscore.Hbond.Weighted>
-9.8421

> <Gold.Chemscore.Metal.Weighted>
-0.0000

> <Gold.Chemscore.Lipo.Weighted>
-10.6293

> <Gold.Chemscore.Internal_Hbond.Weighted>
0.0000

> <Gold.Chemscore.DEClash.Weighted>
0.0366

> <Gold.Chemscore.DEInternal.Weighted>
1.2336

> <Gold.Chemscore.Rot.Weighted>
6.6139

> <Gold.Chemscore.Internal.Correction.Weighted>
   9.000000E+99

> <Gold.Protein.RotatedTorsions>
[ 6907 6896 6895 6894 ] final  135.58 input  -60.11 | X-H torsion
[ 7974 7965 7964 7962 ] final   83.67 input  175.53 | X-H torsion
[ 8008 7997 7996 7995 ] final  115.55 input   59.86 | X-H torsion
[ 10167 10162 10161 10158 ] final  -22.05 input  -65.29 | X-H torsion
[ 10718 10713 10712 10709 ] final -108.01 input   66.30 | X-H torsion
[ 10763 10752 10751 10750 ] final  106.61 input  -60.55 | X-H torsion
[ 11005 11000 10999 10996 ] final   12.12 input  -57.11 | X-H torsion

> <Gold.Protein.ActiveResidues>
 VAL166  LYS551  ARG553  GLY616  TRP617  ASP618  TYR619  PRO620  LYS621  CYS622 
 ASP623  PHE694  ASN695  SER759  ASP760  ASP761  ALA762  ILE779  LEU786  VAL792 
 PHE793  MET794  SER795  GLU796  ALA797  LYS798  CYS799  TRP800  GLU811  SER814 

> <Gold.Protein.RotatedAtoms>
  152.2989  133.5635  159.5605 H   0  0  0  0  0  0  0  0  0  0  0  0  # atno 6907 bound_to 6896
  150.7268  134.0320  159.3745 H   0  0  0  0  0  0  0  0  0  0  0  0  # atno 6908 bound_to 6896
  151.8221  135.0648  160.0477 H   0  0  0  0  0  0  0  0  0  0  0  0  # atno 6909 bound_to 6896
  145.6089  139.2365  143.2203 H   0  0  0  0  0  0  0  0  0  0  0  0  # atno 7974 bound_to 7965
  156.2388  140.2936  156.0386 H   0  0  0  0  0  0  0  0  0  0  0  0  # atno 8008 bound_to 7997
  155.2013  140.0409  157.2935 H   0  0  0  0  0  0  0  0  0  0  0  0  # atno 8009 bound_to 7997
  154.6128  140.2456  155.7654 H   0  0  0  0  0  0  0  0  0  0  0  0  # atno 8010 bound_to 7997
  140.7284  143.4571  151.0433 H   0  0  0  0  0  0  0  0  0  0  0  0  # atno 10167 bound_to 10162
  156.0464  130.5691  150.7902 H   0  0  0  0  0  0  0  0  0  0  0  0  # atno 10718 bound_to 10713
  153.3954  135.3871  155.1951 H   0  0  0  0  0  0  0  0  0  0  0  0  # atno 10763 bound_to 10752
  154.8724  135.3758  154.4686 H   0  0  0  0  0  0  0  0  0  0  0  0  # atno 10764 bound_to 10752
  153.5177  135.7087  153.5809 H   0  0  0  0  0  0  0  0  0  0  0  0  # atno 10765 bound_to 10752
  140.4955  134.0797  155.7781 H   0  0  0  0  0  0  0  0  0  0  0  0  # atno 11005 bound_to 11000
  146.1520  140.6912  142.9318 LP  0  0  0  0  0  0  0  0  0  0  0  0  # atno 17320 bound_to 7965
  144.7278  140.4579  143.6960 LP  0  0  0  0  0  0  0  0  0  0  0  0  # atno 17321 bound_to 7965
  139.8252  143.7766  152.3178 LP  0  0  0  0  0  0  0  0  0  0  0  0  # atno 17342 bound_to 10162
  139.7862  144.7427  151.0019 LP  0  0  0  0  0  0  0  0  0  0  0  0  # atno 17343 bound_to 10162
  157.5345  131.0938  150.9911 LP  0  0  0  0  0  0  0  0  0  0  0  0  # atno 17370 bound_to 10713
  157.0209  130.5673  149.5331 LP  0  0  0  0  0  0  0  0  0  0  0  0  # atno 17371 bound_to 10713
  141.1462  133.9051  157.2209 LP  0  0  0  0  0  0  0  0  0  0  0  0  # atno 17394 bound_to 11000
  139.9744  135.0118  156.9593 LP  0  0  0  0  0  0  0  0  0  0  0  0  # atno 17395 bound_to 11000

$$$$
