AV-unprocessed.smi:514|AV-procd|sdf|2776|dock10
  -GOLD-   2262023243D 1   1.00000     0.00000
 Structure written by MMmdl.
 46 48  0  0  0  0  0  0  0  0  2 V2000
  148.3329  126.8085  152.5914 C   0  0  0  0  0  0  0  0  0  0  0  0
  146.9244  127.0198  152.0327 C   0  0  0  0  0  0  0  0  0  0  0  0
  146.3798  128.1890  152.6178 O   0  0  0  0  0  0  0  0  0  0  0  0
  146.7177  129.3761  151.9229 C   0  0  0  0  0  0  0  0  0  0  0  0
  146.1107  130.6096  152.6239 C   0  0  0  0  0  0  0  0  0  0  0  0
  147.0965  131.6527  152.9059 N   0  0  0  0  0  0  0  0  0  0  0  0
  147.2921  132.8619  152.2957 C   0  0  0  0  0  0  0  0  0  0  0  0
  146.5494  133.3317  151.1986 N   0  0  0  0  0  0  0  0  0  0  0  0
  145.9559  132.4350  150.2023 C   0  0  0  0  0  0  0  0  0  0  0  0
  144.4460  132.6874  150.0367 C   0  0  0  0  0  0  0  0  0  0  0  0
  144.1904  134.0948  149.6707 N   0  3  0  0  0  0  0  0  0  0  0  0
  144.8500  135.0448  150.5886 C   0  0  0  0  0  0  0  0  0  0  0  0
  146.3453  134.7045  150.7298 C   0  0  0  0  0  0  0  0  0  0  0  0
  148.3093  133.5656  152.8035 N   0  0  0  0  0  0  0  0  0  0  0  0
  148.8103  132.7501  153.8015 C   0  0  0  0  0  0  0  0  0  0  0  0
  148.1166  131.5875  153.8637 C   0  0  0  0  0  0  0  0  0  0  0  0
  148.4806  130.5140  154.8045 C   0  0  0  0  0  0  0  0  0  0  0  0
  147.9186  129.4221  154.8450 O   0  0  0  0  0  0  0  0  0  0  0  0
  149.5095  130.8458  155.6212 N   0  0  0  0  0  0  0  0  0  0  0  0
  150.2273  132.0094  155.6247 C   0  0  0  0  0  0  0  0  0  0  0  0
  151.1287  132.1719  156.4468 O   0  0  0  0  0  0  0  0  0  0  0  0
  149.9014  132.9595  154.6908 N   0  0  0  0  0  0  0  0  0  0  0  0
  150.6366  134.2239  154.6194 C   0  0  0  0  0  0  0  0  0  0  0  0
  149.7817  130.1514  156.3015 H   0  0  0  0  0  0  0  0  0  0  0  0
  148.7911  125.9147  152.1678 H   0  0  0  0  0  0  0  0  0  0  0  0
  148.3094  126.6924  153.6752 H   0  0  0  0  0  0  0  0  0  0  0  0
  148.9767  127.6572  152.3600 H   0  0  0  0  0  0  0  0  0  0  0  0
  146.9640  127.1248  150.9478 H   0  0  0  0  0  0  0  0  0  0  0  0
  146.2993  126.1557  152.2613 H   0  0  0  0  0  0  0  0  0  0  0  0
  147.8024  129.4817  151.8762 H   0  0  0  0  0  0  0  0  0  0  0  0
  146.3583  129.2891  150.8986 H   0  0  0  0  0  0  0  0  0  0  0  0
  145.3220  131.0336  152.0041 H   0  0  0  0  0  0  0  0  0  0  0  0
  145.6040  130.3251  153.5428 H   0  0  0  0  0  0  0  0  0  0  0  0
  146.4689  132.5675  149.2486 H   0  0  0  0  0  0  0  0  0  0  0  0
  146.1077  131.3934  150.4862 H   0  0  0  0  0  0  0  0  0  0  0  0
  144.0310  132.0356  149.2677 H   0  0  0  0  0  0  0  0  0  0  0  0
  143.9234  132.4597  150.9667 H   0  0  0  0  0  0  0  0  0  0  0  0
  144.5564  134.2489  148.7421 H   0  0  0  0  0  0  0  0  0  0  0  0
  144.7231  136.0580  150.2070 H   0  0  0  0  0  0  0  0  0  0  0  0
  144.3552  135.0036  151.5596 H   0  0  0  0  0  0  0  0  0  0  0  0
  146.8318  135.4263  151.3736 H   0  0  0  0  0  0  0  0  0  0  0  0
  146.8361  134.8149  149.7618 H   0  0  0  0  0  0  0  0  0  0  0  0
  150.1997  134.9483  155.3070 H   0  0  0  0  0  0  0  0  0  0  0  0
  150.6048  134.6501  153.6166 H   0  0  0  0  0  0  0  0  0  0  0  0
  151.6906  134.1044  154.8741 H   0  0  0  0  0  0  0  0  0  0  0  0
  143.1952  134.2669  149.6639 H   0  0  0  0  0  0  0  0  0  0  0  0
  1  2  1  0  0  0  0
  1 25  1  0  0  0  0
  1 26  1  0  0  0  0
  1 27  1  0  0  0  0
  2  3  1  0  0  0  0
  2 28  1  0  0  0  0
  2 29  1  0  0  0  0
  3  4  1  0  0  0  0
  4  5  1  0  0  0  0
  4 30  1  0  0  0  0
  4 31  1  0  0  0  0
  5  6  1  0  0  0  0
  5 32  1  0  0  0  0
  5 33  1  0  0  0  0
  6 16  1  0  0  0  0
  6  7  1  0  0  0  0
  7  8  1  0  0  0  0
  7 14  2  0  0  0  0
  8 13  1  0  0  0  0
  8  9  1  0  0  0  0
  9 10  1  0  0  0  0
  9 34  1  0  0  0  0
  9 35  1  0  0  0  0
 10 11  1  0  0  0  0
 10 36  1  0  0  0  0
 10 37  1  0  0  0  0
 11 12  1  0  0  0  0
 11 38  1  0  0  0  0
 11 46  1  0  0  0  0
 12 13  1  0  0  0  0
 12 39  1  0  0  0  0
 12 40  1  0  0  0  0
 13 41  1  0  0  0  0
 13 42  1  0  0  0  0
 14 15  1  0  0  0  0
 15 22  1  0  0  0  0
 15 16  2  0  0  0  0
 16 17  1  0  0  0  0
 17 18  2  0  0  0  0
 17 19  1  0  0  0  0
 19 24  1  0  0  0  0
 19 20  1  0  0  0  0
 20 21  2  0  0  0  0
 20 22  1  0  0  0  0
 22 23  1  0  0  0  0
 23 43  1  0  0  0  0
 23 44  1  0  0  0  0
 23 45  1  0  0  0  0
M  CHG  1  11   1
M  END
> <s_m_source_file>
AV-unprocessed.smi

> <i_m_source_file_index>
514

> <i_lp_mmshare_version>
43012

> <i_f3d_flags>
0

> <s_epik_input>
W0NIM11uMWMoPU8pW25IXWMoPU8pYyhjMTIpbihbQ0gyXVtDSDJdT1tDSDJdW0NIM10pYyhuMilOM1tDSDJdW0NIMl1bTkhdW0NIMl1bQ0gyXTM=

> <s_epik_cmdline>
J2VwaWtfcHl0aG9uJywgJy1waCcsICc3LjAnLCAnLXRuJywgJzgnLCAnLW1hJywgJzIwMCcsICctbWV0YWxfYmluZGluZycsICctaW1hZScsICc8aW5maWxlLm1hZT4nLCAnLW9tYWUnLCAnPG91dGZpbGUubWFlPic=

> <r_epik_Ionization_Penalty>
0.00860326

> <r_epik_Ionization_Penalty_Charging>
0.00860166

> <r_epik_Ionization_Penalty_Neutral>
1.60107e-06

> <r_epik_State_Penalty>
0.00646614

> <r_epik_Charging_Adjusted_Penalty>
0.0150678

> <i_epik_Tot_Q>
1

> <i_epik_Tot_abs_Q>
1

> <r_epik_Metal_State_Penalty>
0.0342529

> <b_epik_Metal_Only>
0

> <s_lp_Force_Field>
OPLS_2005

> <r_lp_Energy>
46.1071

> <b_lp_Chiralities_Consistent>
1

> <s_lp_Variant>
AV-unprocessed.smi:514-1

> <Gold.Version>
5.8.1

> <Gold.Id.Protein>
6NUR|6NUR_protein|mol2

> <Gold.PLP.Fitness>
47.7867

> <Gold.PLP.PLP>
-40.8665

> <Gold.PLP.part.hbond>
-2.0000

> <Gold.PLP.part.metal>
0.0000

> <Gold.PLP.part.buried>
-0.8698

> <Gold.PLP.part.nonpolar>
-38.1027

> <Gold.PLP.part.repulsive>
1.4443

> <Gold.PLP.ligand.clash>
0.0000

> <Gold.PLP.ligand.torsion>
0.9683

> <Gold.PLP.Chemscore.Hbond>
2.9440

> <Gold.PLP.Chemscore.CHOScore>
0.0000

> <Gold.PLP.Chemscore.Metal>
0.0000

> <Gold.Chemscore.Hbonds>
donor molecule, donor type, donor heavy atom, donor atom, acceptor molecule, acceptor atom, score
      L1  H    11    38       P1  7921  0.94
      L1  H    11    46       P1 10186  1.20

> <Gold.PLP.Chemscore.Internal.Correction>
0.0248

> <Gold.Rescore>
     Score         DG    S(hbond)    S(metal)    S(lipo)     H(rot)  DE(clash)    DE(int)     intcor
     11.84     -16.21       1.72        0.00      80.90       1.75       2.44       1.93       ----

> <Gold.Chemscore.Fitness>
11.8399

> <Gold.Chemscore.DG>
-16.2071

> <Gold.Chemscore.ZeroCoef>
-5.4800

> <Gold.Chemscore.Hbond>
1.7162

> <Gold.Chemscore.Metal>
0.0000

> <Gold.Chemscore.Lipo>
80.8984

> <Gold.Chemscore.Internal_Hbond>
0.0000

> <Gold.Chemscore.DEClash>
2.4352

> <Gold.Chemscore.DEInternal>
1.9320

> <Gold.Chemscore.Rot>
1.7461

> <Gold.Chemscore.Internal.Correction>
   9.000000E+99

> <Gold.Chemscore.Hbonds>
donor molecule, donor type, donor heavy atom, donor atom, acceptor molecule, acceptor atom, score
      L1  H    11    38       P1  7921  0.87
      L1  H    11    46       P1 10186  0.60

> <Gold.Chemscore.Hbond.Weighted>
-5.7320

> <Gold.Chemscore.Metal.Weighted>
-0.0000

> <Gold.Chemscore.Lipo.Weighted>
-9.4651

> <Gold.Chemscore.Internal_Hbond.Weighted>
0.0000

> <Gold.Chemscore.DEClash.Weighted>
2.4352

> <Gold.Chemscore.DEInternal.Weighted>
1.9320

> <Gold.Chemscore.Rot.Weighted>
4.4701

> <Gold.Chemscore.Internal.Correction.Weighted>
   9.000000E+99

> <Gold.Protein.RotatedTorsions>
[ 6907 6896 6895 6894 ] final  120.99 input  -60.11 | X-H torsion
[ 7974 7965 7964 7962 ] final  -28.68 input  175.53 | X-H torsion
[ 8008 7997 7996 7995 ] final -179.68 input   59.86 | X-H torsion
[ 10167 10162 10161 10158 ] final   87.74 input  -65.29 | X-H torsion
[ 10718 10713 10712 10709 ] final  -42.92 input   66.30 | X-H torsion
[ 10763 10752 10751 10750 ] final  -65.04 input  -60.55 | X-H torsion
[ 11005 11000 10999 10996 ] final  148.32 input  -57.11 | X-H torsion

> <Gold.Protein.ActiveResidues>
 VAL166  LYS551  ARG553  GLY616  TRP617  ASP618  TYR619  PRO620  LYS621  CYS622 
 ASP623  PHE694  ASN695  SER759  ASP760  ASP761  ALA762  ILE779  LEU786  VAL792 
 PHE793  MET794  SER795  GLU796  ALA797  LYS798  CYS799  TRP800  GLU811  SER814 

> <Gold.Protein.RotatedAtoms>
  152.4356  133.7355  159.6611 H   0  0  0  0  0  0  0  0  0  0  0  0  # atno 6907 bound_to 6896
  150.8240  133.8194  159.3133 H   0  0  0  0  0  0  0  0  0  0  0  0  # atno 6908 bound_to 6896
  151.5868  135.1058  160.0081 H   0  0  0  0  0  0  0  0  0  0  0  0  # atno 6909 bound_to 6896
  146.1270  140.5315  142.8710 H   0  0  0  0  0  0  0  0  0  0  0  0  # atno 7974 bound_to 7965
  156.0333  140.1287  157.0235 H   0  0  0  0  0  0  0  0  0  0  0  0  # atno 8008 bound_to 7997
  154.4359  140.1045  156.6201 H   0  0  0  0  0  0  0  0  0  0  0  0  # atno 8009 bound_to 7997
  155.5775  140.3467  155.4533 H   0  0  0  0  0  0  0  0  0  0  0  0  # atno 8010 bound_to 7997
  139.8743  144.6475  150.8914 H   0  0  0  0  0  0  0  0  0  0  0  0  # atno 10167 bound_to 10162
  156.2545  130.4191  149.8612 H   0  0  0  0  0  0  0  0  0  0  0  0  # atno 10718 bound_to 10713
  154.3390  135.6160  153.5587 H   0  0  0  0  0  0  0  0  0  0  0  0  # atno 10763 bound_to 10752
  152.9805  135.5765  154.4874 H   0  0  0  0  0  0  0  0  0  0  0  0  # atno 10764 bound_to 10752
  154.4575  135.2855  155.1714 H   0  0  0  0  0  0  0  0  0  0  0  0  # atno 10765 bound_to 10752
  140.0949  134.9018  157.1708 H   0  0  0  0  0  0  0  0  0  0  0  0  # atno 11005 bound_to 11000
  144.7653  140.5515  143.6707 LP  0  0  0  0  0  0  0  0  0  0  0  0  # atno 17320 bound_to 7965
  145.5343  139.1475  143.3482 LP  0  0  0  0  0  0  0  0  0  0  0  0  # atno 17321 bound_to 7965
  140.7755  143.3638  151.1778 LP  0  0  0  0  0  0  0  0  0  0  0  0  # atno 17342 bound_to 10162
  139.7255  143.9156  152.3001 LP  0  0  0  0  0  0  0  0  0  0  0  0  # atno 17343 bound_to 10162
  156.6149  130.8602  151.3462 LP  0  0  0  0  0  0  0  0  0  0  0  0  # atno 17370 bound_to 10713
  157.7227  130.9580  150.1505 LP  0  0  0  0  0  0  0  0  0  0  0  0  # atno 17371 bound_to 10713
  140.3300  134.2821  155.7230 LP  0  0  0  0  0  0  0  0  0  0  0  0  # atno 17394 bound_to 11000
  141.2089  133.7764  157.0030 LP  0  0  0  0  0  0  0  0  0  0  0  0  # atno 17395 bound_to 11000

$$$$
