AV-unprocessed.smi:3298|AV-procd|sdf|12640|dock3
  -GOLD-   2272018573D 1   1.00000     0.00000
 Structure written by MMmdl.
 35 36  0  0  0  0  0  0  0  0  1 V2000
  153.5834  141.9218  160.7961 C   0  0  0  0  0  0  0  0  0  0  0  0
  152.6375  142.9298  160.1775 C   0  0  0  0  0  0  0  0  0  0  0  0
  151.9206  142.6196  159.0030 C   0  0  0  0  0  0  0  0  0  0  0  0
  151.0546  143.5900  158.4577 C   0  0  0  0  0  0  0  0  0  0  0  0
  150.3358  143.2451  157.2810 N   0  0  0  0  0  0  0  0  0  0  0  0
  150.2337  142.0492  156.6751 C   0  0  0  0  0  0  0  0  0  0  0  0
  150.7585  141.0045  157.0602 O   0  0  0  0  0  0  0  0  0  0  0  0
  149.4557  142.1241  155.5859 N   0  0  0  0  0  0  0  0  0  0  0  0
  149.1236  140.9981  154.7204 C   0  0  2  0  0  0  0  0  0  0  0  0
  148.1206  141.4120  153.6789 C   0  0  0  0  0  0  0  0  0  0  0  0
  147.0267  140.6541  153.6886 C   0  0  0  0  0  0  0  0  0  0  0  0
  147.0685  139.5792  154.7447 C   0  0  2  0  0  0  0  0  0  0  0  0
  145.8487  139.6126  155.6818 C   0  0  0  0  0  0  0  0  0  0  0  0
  144.6925  139.1589  155.0095 O   0  0  0  0  0  0  0  0  0  0  0  0
  148.4075  139.8484  155.4779 C   0  0  0  0  0  0  0  0  0  0  0  0
  150.9287  144.8267  159.1351 C   0  0  0  0  0  0  0  0  0  0  0  0
  151.6883  145.0352  160.3035 C   0  0  0  0  0  0  0  0  0  0  0  0
  152.5285  144.1131  160.8191 N   0  0  0  0  0  0  0  0  0  0  0  0
  150.0176  140.6337  154.2115 H   0  0  0  0  0  0  0  0  0  0  0  0
  147.1182  138.6137  154.2393 H   0  0  0  0  0  0  0  0  0  0  0  0
  153.8783  141.1646  160.0692 H   0  0  0  0  0  0  0  0  0  0  0  0
  153.1025  141.4213  161.6367 H   0  0  0  0  0  0  0  0  0  0  0  0
  154.4880  142.4114  161.1585 H   0  0  0  0  0  0  0  0  0  0  0  0
  152.0377  141.6567  158.5274 H   0  0  0  0  0  0  0  0  0  0  0  0
  149.7840  143.9899  156.8812 H   0  0  0  0  0  0  0  0  0  0  0  0
  149.0588  143.0195  155.3414 H   0  0  0  0  0  0  0  0  0  0  0  0
  148.3018  142.2306  152.9977 H   0  0  0  0  0  0  0  0  0  0  0  0
  146.1881  140.7674  153.0173 H   0  0  0  0  0  0  0  0  0  0  0  0
  146.0189  138.9708  156.5467 H   0  0  0  0  0  0  0  0  0  0  0  0
  145.6732  140.6216  156.0569 H   0  0  0  0  0  0  0  0  0  0  0  0
  144.6667  139.5570  154.1527 H   0  0  0  0  0  0  0  0  0  0  0  0
  149.0284  138.9518  155.4959 H   0  0  0  0  0  0  0  0  0  0  0  0
  148.2258  140.1201  156.5191 H   0  0  0  0  0  0  0  0  0  0  0  0
  150.2651  145.6067  158.7961 H   0  0  0  0  0  0  0  0  0  0  0  0
  151.6137  145.9678  160.8427 H   0  0  0  0  0  0  0  0  0  0  0  0
  1  2  1  0  0  0  0
  1 21  1  0  0  0  0
  1 22  1  0  0  0  0
  1 23  1  0  0  0  0
  2 18  1  0  0  0  0
  2  3  2  0  0  0  0
  3  4  1  0  0  0  0
  3 24  1  0  0  0  0
  4  5  1  0  0  0  0
  4 16  2  0  0  0  0
  5  6  1  0  0  0  0
  5 25  1  0  0  0  0
  6  7  2  0  0  0  0
  6  8  1  0  0  0  0
  8  9  1  0  0  0  0
  8 26  1  0  0  0  0
  9 19  1  0  0  0  0
  9 15  1  0  0  0  0
  9 10  1  0  0  0  0
 10 11  2  0  0  0  0
 10 27  1  0  0  0  0
 11 12  1  0  0  0  0
 11 28  1  0  0  0  0
 12 20  1  0  0  0  0
 12 13  1  0  0  0  0
 12 15  1  0  0  0  0
 13 14  1  0  0  0  0
 13 29  1  0  0  0  0
 13 30  1  0  0  0  0
 14 31  1  0  0  0  0
 15 32  1  0  0  0  0
 15 33  1  0  0  0  0
 16 17  1  0  0  0  0
 16 34  1  0  0  0  0
 17 18  2  0  0  0  0
 17 35  1  0  0  0  0
M  END
> <s_m_source_file>
AV-unprocessed.smi

> <i_m_source_file_index>
3298

> <i_lp_mmshare_version>
43012

> <i_f3d_flags>
0

> <s_epik_input>
W0NIM11jMVtjSF1jKFtjSF1bY0hdbjEpW05IXUMoPU8pW05IXVtDQEBIXTJbQ0hdPVtDSF1bQ0BASF0oW0NIMl0yKVtDSDJdW09IXQ==

> <s_epik_cmdline>
J2VwaWtfcHl0aG9uJywgJy1waCcsICc3LjAnLCAnLXRuJywgJzgnLCAnLW1hJywgJzIwMCcsICctbWV0YWxfYmluZGluZycsICctaW1hZScsICc8aW5maWxlLm1hZT4nLCAnLW9tYWUnLCAnPG91dGZpbGUubWFlPic=

> <r_epik_Ionization_Penalty>
0.379275

> <r_epik_Ionization_Penalty_Charging>
0

> <r_epik_Ionization_Penalty_Neutral>
0.379275

> <r_epik_State_Penalty>
0.377195

> <r_epik_Charging_Adjusted_Penalty>
0.377195

> <i_epik_Tot_Q>
0

> <i_epik_Tot_abs_Q>
0

> <r_epik_Metal_State_Penalty>
0.22815

> <b_epik_Metal_Only>
0

> <s_lp_Force_Field>
OPLS_2005

> <r_lp_Energy>
20.8901

> <b_lp_Chiralities_Consistent>
1

> <s_lp_Variant>
AV-unprocessed.smi:3298-1

> <Gold.Version>
5.8.1

> <Gold.Id.Protein>
6NUR|6NUR_protein|mol2

> <Gold.PLP.Fitness>
43.5632

> <Gold.PLP.PLP>
-34.7409

> <Gold.PLP.part.hbond>
-3.0000

> <Gold.PLP.part.metal>
0.0000

> <Gold.PLP.part.buried>
-2.7181

> <Gold.PLP.part.nonpolar>
-28.7912

> <Gold.PLP.part.repulsive>
0.2766

> <Gold.PLP.ligand.clash>
0.0000

> <Gold.PLP.ligand.torsion>
0.0972

> <Gold.PLP.Chemscore.Hbond>
3.0000

> <Gold.PLP.Chemscore.CHOScore>
0.0000

> <Gold.PLP.Chemscore.Metal>
0.0000

> <Gold.Chemscore.Hbonds>
donor molecule, donor type, donor heavy atom, donor atom, acceptor molecule, acceptor atom, score
      L1  H     5    25       P1  8028  1.00
      L1  H     8    26       P1  8028  1.00
      L1  H    14    31       P1 10175  0.71

> <Gold.PLP.Chemscore.Internal.Correction>
0.0166

> <Gold.Rescore>
     Score         DG    S(hbond)    S(metal)    S(lipo)     H(rot)  DE(clash)    DE(int)     intcor
     20.07     -21.75       2.90        0.00      95.29       1.78       0.11       1.57       ----

> <Gold.Chemscore.Fitness>
20.0694

> <Gold.Chemscore.DG>
-21.7479

> <Gold.Chemscore.ZeroCoef>
-5.4800

> <Gold.Chemscore.Hbond>
2.8967

> <Gold.Chemscore.Metal>
0.0000

> <Gold.Chemscore.Lipo>
95.2881

> <Gold.Chemscore.Internal_Hbond>
0.0000

> <Gold.Chemscore.DEClash>
0.1114

> <Gold.Chemscore.DEInternal>
1.5672

> <Gold.Chemscore.Rot>
1.7796

> <Gold.Chemscore.Internal.Correction>
   9.000000E+99

> <Gold.Chemscore.Hbonds>
donor molecule, donor type, donor heavy atom, donor atom, acceptor molecule, acceptor atom, score
      L1  H     5    25       P1  8028  0.91
      L1  H     8    26       P1  8028  0.95
      L1  H    14    31       P1 10175  0.69

> <Gold.Chemscore.Hbond.Weighted>
-9.6751

> <Gold.Chemscore.Metal.Weighted>
-0.0000

> <Gold.Chemscore.Lipo.Weighted>
-11.1487

> <Gold.Chemscore.Internal_Hbond.Weighted>
0.0000

> <Gold.Chemscore.DEClash.Weighted>
0.1114

> <Gold.Chemscore.DEInternal.Weighted>
1.5672

> <Gold.Chemscore.Rot.Weighted>
4.5558

> <Gold.Chemscore.Internal.Correction.Weighted>
   9.000000E+99

> <Gold.Protein.RotatedTorsions>
[ 6907 6896 6895 6894 ] final -144.54 input  -60.11 | X-H torsion
[ 7974 7965 7964 7962 ] final  113.03 input  175.53 | X-H torsion
[ 8008 7997 7996 7995 ] final    7.06 input   59.86 | X-H torsion
[ 10167 10162 10161 10158 ] final -111.05 input  -65.29 | X-H torsion
[ 10718 10713 10712 10709 ] final  132.99 input   66.30 | X-H torsion
[ 10763 10752 10751 10750 ] final   52.09 input  -60.55 | X-H torsion
[ 11005 11000 10999 10996 ] final  131.42 input  -57.11 | X-H torsion

> <Gold.Protein.ActiveResidues>
 VAL166  LYS551  ARG553  GLY616  TRP617  ASP618  TYR619  PRO620  LYS621  CYS622 
 ASP623  PHE694  ASN695  SER759  ASP760  ASP761  ALA762  ILE779  LEU786  VAL792 
 PHE793  MET794  SER795  GLU796  ALA797  LYS798  CYS799  TRP800  GLU811  SER814 

> <Gold.Protein.RotatedAtoms>
  151.1155  133.5142  159.2603 H   0  0  0  0  0  0  0  0  0  0  0  0  # atno 6907 bound_to 6896
  151.1919  135.0406  159.8846 H   0  0  0  0  0  0  0  0  0  0  0  0  # atno 6908 bound_to 6896
  152.5453  134.0994  159.8365 H   0  0  0  0  0  0  0  0  0  0  0  0  # atno 6909 bound_to 6896
  145.2221  139.2857  143.4213 H   0  0  0  0  0  0  0  0  0  0  0  0  # atno 7974 bound_to 7965
  154.7490  140.2763  155.6308 H   0  0  0  0  0  0  0  0  0  0  0  0  # atno 8008 bound_to 7997
  156.2891  140.2682  156.2165 H   0  0  0  0  0  0  0  0  0  0  0  0  # atno 8009 bound_to 7997
  155.0161  140.0372  157.2408 H   0  0  0  0  0  0  0  0  0  0  0  0  # atno 8010 bound_to 7997
  140.1378  143.4305  152.1583 H   0  0  0  0  0  0  0  0  0  0  0  0  # atno 10167 bound_to 10162
  157.4817  131.1086  150.9672 H   0  0  0  0  0  0  0  0  0  0  0  0  # atno 10718 bound_to 10713
  152.9787  135.5824  154.4522 H   0  0  0  0  0  0  0  0  0  0  0  0  # atno 10763 bound_to 10752
  154.4109  135.2770  155.2039 H   0  0  0  0  0  0  0  0  0  0  0  0  # atno 10764 bound_to 10752
  154.3829  135.6142  153.5855 H   0  0  0  0  0  0  0  0  0  0  0  0  # atno 10765 bound_to 10752
  139.9729  134.9572  156.9436 H   0  0  0  0  0  0  0  0  0  0  0  0  # atno 11005 bound_to 11000
  146.3373  140.2530  142.8599 LP  0  0  0  0  0  0  0  0  0  0  0  0  # atno 17320 bound_to 7965
  144.9755  140.8410  143.5429 LP  0  0  0  0  0  0  0  0  0  0  0  0  # atno 17321 bound_to 7965
  139.5487  144.7320  151.4502 LP  0  0  0  0  0  0  0  0  0  0  0  0  # atno 17342 bound_to 10162
  140.6779  143.8149  150.7082 LP  0  0  0  0  0  0  0  0  0  0  0  0  # atno 17343 bound_to 10162
  157.0403  130.5746  149.5355 LP  0  0  0  0  0  0  0  0  0  0  0  0  # atno 17370 bound_to 10713
  156.0125  130.5218  150.8034 LP  0  0  0  0  0  0  0  0  0  0  0  0  # atno 17371 bound_to 10713
  140.5255  134.0865  155.7302 LP  0  0  0  0  0  0  0  0  0  0  0  0  # atno 17394 bound_to 11000
  141.1408  133.9141  157.2330 LP  0  0  0  0  0  0  0  0  0  0  0  0  # atno 17395 bound_to 11000

$$$$
