AV-unprocessed.smi:3213|AV-procd|sdf|12282|dock9
  -GOLD-   2272018123D 1   1.00000     0.00000
 Structure written by MMmdl.
 35 35  0  0  0  0  0  0  0  0  1 V2000
  152.9047  144.6162  158.1970 C   0  0  0  0  0  0  0  0  0  0  0  0
  151.7716  144.1658  159.1360 C   0  0  0  0  0  0  0  0  0  0  0  0
  151.9738  144.8266  160.5165 C   0  0  0  0  0  0  0  0  0  0  0  0
  150.4179  144.5848  158.5252 C   0  0  0  0  0  0  0  0  0  0  0  0
  151.8586  142.7040  159.2389 N   0  0  0  0  0  0  0  0  0  0  0  0
  152.8976  141.9535  159.6476 C   0  0  0  0  0  0  0  0  0  0  0  0
  153.9819  142.4162  160.0032 O   0  0  0  0  0  0  0  0  0  0  0  0
  152.6721  140.4385  159.6463 C   0  0  0  0  0  0  0  0  0  0  0  0
  152.6038  139.9039  158.2973 N   0  0  0  0  0  0  0  0  0  0  0  0
  151.7189  140.2297  157.2908 C   0  0  0  0  0  0  0  0  0  0  0  0
  152.0417  139.4746  156.1989 C   0  0  0  0  0  0  0  0  0  0  0  0
  151.3875  139.4503  154.8458 C   0  0  0  0  0  0  0  0  0  0  0  0
  150.2755  140.5017  154.7379 C   0  0  0  0  0  0  0  0  0  0  0  0
  150.0291  140.8008  153.3808 O   0  0  0  0  0  0  0  0  0  0  0  0
  153.1563  138.7084  156.6447 C   0  0  0  0  0  0  0  0  0  0  0  0
  153.4897  138.9657  157.8988 N   0  0  0  0  0  0  0  0  0  0  0  0
  152.9081  145.6993  158.0691 H   0  0  0  0  0  0  0  0  0  0  0  0
  152.8022  144.1709  157.2065 H   0  0  0  0  0  0  0  0  0  0  0  0
  153.8826  144.3301  158.5866 H   0  0  0  0  0  0  0  0  0  0  0  0
  152.9059  144.5016  160.9802 H   0  0  0  0  0  0  0  0  0  0  0  0
  151.1631  144.5945  161.2069 H   0  0  0  0  0  0  0  0  0  0  0  0
  152.0137  145.9127  160.4285 H   0  0  0  0  0  0  0  0  0  0  0  0
  150.3764  145.6630  158.3665 H   0  0  0  0  0  0  0  0  0  0  0  0
  149.5785  144.3240  159.1696 H   0  0  0  0  0  0  0  0  0  0  0  0
  150.2533  144.1053  157.5596 H   0  0  0  0  0  0  0  0  0  0  0  0
  151.0229  142.2035  158.9731 H   0  0  0  0  0  0  0  0  0  0  0  0
  153.4672  139.9265  160.1916 H   0  0  0  0  0  0  0  0  0  0  0  0
  151.7363  140.2159  160.1598 H   0  0  0  0  0  0  0  0  0  0  0  0
  150.9420  140.9665  157.4339 H   0  0  0  0  0  0  0  0  0  0  0  0
  152.1276  139.6268  154.0642 H   0  0  0  0  0  0  0  0  0  0  0  0
  150.9703  138.4633  154.6417 H   0  0  0  0  0  0  0  0  0  0  0  0
  149.3548  140.1368  155.1946 H   0  0  0  0  0  0  0  0  0  0  0  0
  150.5587  141.4175  155.2576 H   0  0  0  0  0  0  0  0  0  0  0  0
  150.0034  139.9911  152.8942 H   0  0  0  0  0  0  0  0  0  0  0  0
  153.7303  137.9769  156.0949 H   0  0  0  0  0  0  0  0  0  0  0  0
  1  2  1  0  0  0  0
  1 17  1  0  0  0  0
  1 18  1  0  0  0  0
  1 19  1  0  0  0  0
  2  3  1  0  0  0  0
  2  4  1  0  0  0  0
  2  5  1  0  0  0  0
  3 20  1  0  0  0  0
  3 21  1  0  0  0  0
  3 22  1  0  0  0  0
  4 23  1  0  0  0  0
  4 24  1  0  0  0  0
  4 25  1  0  0  0  0
  5  6  1  0  0  0  0
  5 26  1  0  0  0  0
  6  7  2  0  0  0  0
  6  8  1  0  0  0  0
  8  9  1  0  0  0  0
  8 27  1  0  0  0  0
  8 28  1  0  0  0  0
  9 16  1  0  0  0  0
  9 10  1  0  0  0  0
 10 11  2  0  0  0  0
 10 29  1  0  0  0  0
 11 12  1  0  0  0  0
 11 15  1  0  0  0  0
 12 13  1  0  0  0  0
 12 30  1  0  0  0  0
 12 31  1  0  0  0  0
 13 14  1  0  0  0  0
 13 32  1  0  0  0  0
 13 33  1  0  0  0  0
 14 34  1  0  0  0  0
 15 16  2  0  0  0  0
 15 35  1  0  0  0  0
M  END
> <s_m_source_file>
AV-unprocessed.smi

> <i_m_source_file_index>
3213

> <i_lp_mmshare_version>
43012

> <i_f3d_flags>
0

> <s_epik_input>
W0NIM11DKFtDSDNdKShbQ0gzXSlbTkhdQyg9TylbQ0gyXW4xW2NIXWMoW2NIXW4xKVtDSDJdW0NIMl1bT0hd

> <s_epik_cmdline>
J2VwaWtfcHl0aG9uJywgJy1waCcsICc3LjAnLCAnLXRuJywgJzgnLCAnLW1hJywgJzIwMCcsICctbWV0YWxfYmluZGluZycsICctaW1hZScsICc8aW5maWxlLm1hZT4nLCAnLW9tYWUnLCAnPG91dGZpbGUubWFlPic=

> <r_lp_tautomer_probability>
1

> <r_epik_Ionization_Penalty>
3.05354e-05

> <r_epik_Ionization_Penalty_Charging>
0

> <r_epik_Ionization_Penalty_Neutral>
3.05354e-05

> <r_epik_State_Penalty>
-0

> <r_epik_Charging_Adjusted_Penalty>
0

> <i_epik_Tot_Q>
0

> <i_epik_Tot_abs_Q>
0

> <r_epik_Metal_State_Penalty>
-0

> <b_epik_Metal_Only>
0

> <s_lp_Force_Field>
OPLS_2005

> <r_lp_Energy>
4.97676

> <b_lp_Chiralities_Consistent>
1

> <s_lp_Variant>
AV-unprocessed.smi:3213-1

> <Gold.Version>
5.8.1

> <Gold.Id.Protein>
6NUR|6NUR_protein|mol2

> <Gold.PLP.Fitness>
44.0194

> <Gold.PLP.PLP>
-36.6427

> <Gold.PLP.part.hbond>
-4.0000

> <Gold.PLP.part.metal>
0.0000

> <Gold.PLP.part.buried>
0.2156

> <Gold.PLP.part.nonpolar>
-31.7539

> <Gold.PLP.part.repulsive>
0.0599

> <Gold.PLP.ligand.clash>
0.0000

> <Gold.PLP.ligand.torsion>
0.2433

> <Gold.PLP.Chemscore.Hbond>
2.6160

> <Gold.PLP.Chemscore.CHOScore>
0.0000

> <Gold.PLP.Chemscore.Metal>
0.0000

> <Gold.Chemscore.Hbonds>
donor molecule, donor type, donor heavy atom, donor atom, acceptor molecule, acceptor atom, score
      L1  H    14    34       P1  7957  0.38
      P1  H  8011  8017       L1    14  1.00

> <Gold.PLP.Chemscore.Internal.Correction>
0.0153

> <Gold.Rescore>
     Score         DG    S(hbond)    S(metal)    S(lipo)     H(rot)  DE(clash)    DE(int)     intcor
     11.98     -13.84       1.26        0.00      89.60       2.48       0.69       1.17       ----

> <Gold.Chemscore.Fitness>
11.9754

> <Gold.Chemscore.DG>
-13.8401

> <Gold.Chemscore.ZeroCoef>
-5.4800

> <Gold.Chemscore.Hbond>
1.2621

> <Gold.Chemscore.Metal>
0.0000

> <Gold.Chemscore.Lipo>
89.5957

> <Gold.Chemscore.Internal_Hbond>
0.0000

> <Gold.Chemscore.DEClash>
0.6941

> <Gold.Chemscore.DEInternal>
1.1707

> <Gold.Chemscore.Rot>
2.4758

> <Gold.Chemscore.Internal.Correction>
   9.000000E+99

> <Gold.Chemscore.Hbonds>
donor molecule, donor type, donor heavy atom, donor atom, acceptor molecule, acceptor atom, score
      L1  H    14    34       P1  7957  0.38
      P1  H  8011  8017       L1    14  0.87

> <Gold.Chemscore.Hbond.Weighted>
-4.2154

> <Gold.Chemscore.Metal.Weighted>
-0.0000

> <Gold.Chemscore.Lipo.Weighted>
-10.4827

> <Gold.Chemscore.Internal_Hbond.Weighted>
0.0000

> <Gold.Chemscore.DEClash.Weighted>
0.6941

> <Gold.Chemscore.DEInternal.Weighted>
1.1707

> <Gold.Chemscore.Rot.Weighted>
6.3380

> <Gold.Chemscore.Internal.Correction.Weighted>
   9.000000E+99

> <Gold.Protein.RotatedTorsions>
[ 6907 6896 6895 6894 ] final  -96.61 input  -60.11 | X-H torsion
[ 7974 7965 7964 7962 ] final  -31.20 input  175.53 | X-H torsion
[ 8008 7997 7996 7995 ] final  154.04 input   59.86 | X-H torsion
[ 10167 10162 10161 10158 ] final   76.49 input  -65.29 | X-H torsion
[ 10718 10713 10712 10709 ] final -156.56 input   66.30 | X-H torsion
[ 10763 10752 10751 10750 ] final  -50.26 input  -60.55 | X-H torsion
[ 11005 11000 10999 10996 ] final  -20.23 input  -57.11 | X-H torsion

> <Gold.Protein.ActiveResidues>
 VAL166  LYS551  ARG553  GLY616  TRP617  ASP618  TYR619  PRO620  LYS621  CYS622 
 ASP623  PHE694  ASN695  SER759  ASP760  ASP761  ALA762  ILE779  LEU786  VAL792 
 PHE793  MET794  SER795  GLU796  ALA797  LYS798  CYS799  TRP800  GLU811  SER814 

> <Gold.Protein.RotatedAtoms>
  150.6993  134.1476  159.4127 H   0  0  0  0  0  0  0  0  0  0  0  0  # atno 6907 bound_to 6896
  151.9459  135.0189  160.0548 H   0  0  0  0  0  0  0  0  0  0  0  0  # atno 6908 bound_to 6896
  152.2053  133.4836  159.5117 H   0  0  0  0  0  0  0  0  0  0  0  0  # atno 6909 bound_to 6896
  146.1086  140.5637  142.8788 H   0  0  0  0  0  0  0  0  0  0  0  0  # atno 7974 bound_to 7965
  156.2551  140.1977  156.6584 H   0  0  0  0  0  0  0  0  0  0  0  0  # atno 8008 bound_to 7997
  154.6483  140.0575  156.9951 H   0  0  0  0  0  0  0  0  0  0  0  0  # atno 8009 bound_to 7997
  155.1457  140.3246  155.4445 H   0  0  0  0  0  0  0  0  0  0  0  0  # atno 8010 bound_to 7997
  139.9917  144.5752  150.7812 H   0  0  0  0  0  0  0  0  0  0  0  0  # atno 10167 bound_to 10162
  156.5282  130.8509  151.2707 H   0  0  0  0  0  0  0  0  0  0  0  0  # atno 10718 bound_to 10713
  154.1074  135.6554  153.4879 H   0  0  0  0  0  0  0  0  0  0  0  0  # atno 10763 bound_to 10752
  153.0268  135.5239  154.7226 H   0  0  0  0  0  0  0  0  0  0  0  0  # atno 10764 bound_to 10752
  154.6396  135.2986  155.0089 H   0  0  0  0  0  0  0  0  0  0  0  0  # atno 10765 bound_to 10752
  140.8444  133.7902  155.9896 H   0  0  0  0  0  0  0  0  0  0  0  0  # atno 11005 bound_to 11000
  144.7492  140.5146  143.6814 LP  0  0  0  0  0  0  0  0  0  0  0  0  # atno 17320 bound_to 7965
  145.5711  139.1483  143.3288 LP  0  0  0  0  0  0  0  0  0  0  0  0  # atno 17321 bound_to 7965
  140.7452  143.2872  151.3430 LP  0  0  0  0  0  0  0  0  0  0  0  0  # atno 17342 bound_to 10162
  139.6335  144.0675  152.2496 LP  0  0  0  0  0  0  0  0  0  0  0  0  # atno 17343 bound_to 10162
  157.7426  130.9894  150.2528 LP  0  0  0  0  0  0  0  0  0  0  0  0  # atno 17370 bound_to 10713
  156.3085  130.3768  149.7684 LP  0  0  0  0  0  0  0  0  0  0  0  0  # atno 17371 bound_to 10713
  140.8859  134.2554  157.5120 LP  0  0  0  0  0  0  0  0  0  0  0  0  # atno 17394 bound_to 11000
  139.8703  134.9638  156.4474 LP  0  0  0  0  0  0  0  0  0  0  0  0  # atno 17395 bound_to 11000

$$$$
