AV-unprocessed.smi:2845|AV-procd|sdf|10950|dock9
  -GOLD-   2272015403D 1   1.00000     0.00000
 Structure written by MMmdl.
 43 45  0  0  0  0  0  0  0  0  2 V2000
  152.3488  143.6295  161.2270 C   0  0  0  0  0  0  0  0  0  0  0  0
  152.1843  142.7691  159.9857 C   0  0  0  0  0  0  0  0  0  0  0  0
  151.3411  143.2327  158.9507 C   0  0  0  0  0  0  0  0  0  0  0  0
  151.2147  142.4258  157.8261 C   0  0  0  0  0  0  0  0  0  0  0  0
  150.4766  142.6012  156.6537 N   0  3  0  0  0  0  0  0  0  0  0  0
  150.6721  141.5348  155.8297 C   0  0  0  0  0  0  0  0  0  0  0  0
  151.5230  140.6797  156.4591 N   0  0  0  0  0  0  0  0  0  0  0  0
  152.0565  139.3861  156.0082 C   0  0  0  0  0  0  0  0  0  0  0  0
  151.2017  138.1902  156.4712 C   0  0  1  0  0  0  0  0  0  0  0  0
  151.7320  136.9862  155.9496 O   0  0  0  0  0  0  0  0  0  0  0  0
  151.1232  138.1031  158.0075 C   0  0  0  0  0  0  0  0  0  0  0  0
  149.9937  137.3122  158.4623 N   0  0  0  0  0  0  0  0  0  0  0  0
  149.1046  136.5934  157.7705 C   0  0  0  0  0  0  0  0  0  0  0  0
  148.2002  135.9829  158.5250 N   0  0  0  0  0  0  0  0  0  0  0  0
  148.6278  136.4028  159.7506 C   0  0  0  0  0  0  0  0  0  0  0  0
  147.7757  135.8960  161.2773 S   0  0  2  0  0  0  0  0  0  0  0  0
  146.3444  135.0795  160.4262 C   0  0  0  0  0  0  0  0  0  0  0  0
  147.2451  137.1838  161.9111 O   0  0  0  0  0  0  0  0  0  0  0  0
  149.6933  137.2011  159.7779 N   0  0  0  0  0  0  0  0  0  0  0  0
  151.8889  141.1947  157.7088 C   0  0  0  0  0  0  0  0  0  0  0  0
  152.7227  140.7233  158.7202 C   0  0  0  0  0  0  0  0  0  0  0  0
  152.8661  141.5299  159.8716 C   0  0  0  0  0  0  0  0  0  0  0  0
  153.7737  141.0426  160.9882 C   0  0  0  0  0  0  0  0  0  0  0  0
  151.7802  144.5566  161.1485 H   0  0  0  0  0  0  0  0  0  0  0  0
  153.3964  143.8932  161.3748 H   0  0  0  0  0  0  0  0  0  0  0  0
  151.9970  143.0970  162.1109 H   0  0  0  0  0  0  0  0  0  0  0  0
  150.8195  144.1754  159.0297 H   0  0  0  0  0  0  0  0  0  0  0  0
  150.2322  141.3935  154.8530 H   0  0  0  0  0  0  0  0  0  0  0  0
  152.1667  139.3996  154.9236 H   0  0  0  0  0  0  0  0  0  0  0  0
  153.0649  139.2987  156.4147 H   0  0  0  0  0  0  0  0  0  0  0  0
  150.1927  138.3048  156.0729 H   0  0  0  0  0  0  0  0  0  0  0  0
  151.0263  136.3649  155.8496 H   0  0  0  0  0  0  0  0  0  0  0  0
  152.0415  137.6780  158.4162 H   0  0  0  0  0  0  0  0  0  0  0  0
  151.0260  139.1021  158.4342 H   0  0  0  0  0  0  0  0  0  0  0  0
  149.1223  136.5129  156.6935 H   0  0  0  0  0  0  0  0  0  0  0  0
  146.6362  134.6983  159.4473 H   0  0  0  0  0  0  0  0  0  0  0  0
  145.5291  135.7906  160.2928 H   0  0  0  0  0  0  0  0  0  0  0  0
  145.9812  134.2443  161.0246 H   0  0  0  0  0  0  0  0  0  0  0  0
  153.2492  139.7845  158.6311 H   0  0  0  0  0  0  0  0  0  0  0  0
  154.1760  140.0524  160.7716 H   0  0  0  0  0  0  0  0  0  0  0  0
  153.2274  140.9795  161.9294 H   0  0  0  0  0  0  0  0  0  0  0  0
  154.6150  141.7234  161.1198 H   0  0  0  0  0  0  0  0  0  0  0  0
  149.8841  143.3904  156.4289 H   0  0  0  0  0  0  0  0  0  0  0  0
  1  2  1  0  0  0  0
  1 24  1  0  0  0  0
  1 25  1  0  0  0  0
  1 26  1  0  0  0  0
  2 22  1  0  0  0  0
  2  3  2  0  0  0  0
  3  4  1  0  0  0  0
  3 27  1  0  0  0  0
  4 20  2  0  0  0  0
  4  5  1  0  0  0  0
  5  6  2  0  0  0  0
  5 43  1  0  0  0  0
  6  7  1  0  0  0  0
  6 28  1  0  0  0  0
  7  8  1  0  0  0  0
  7 20  1  0  0  0  0
  8  9  1  0  0  0  0
  8 29  1  0  0  0  0
  8 30  1  0  0  0  0
  9 10  1  0  0  0  0
  9 11  1  0  0  0  0
  9 31  1  0  0  0  0
 10 32  1  0  0  0  0
 11 12  1  0  0  0  0
 11 33  1  0  0  0  0
 11 34  1  0  0  0  0
 12 19  1  0  0  0  0
 12 13  1  0  0  0  0
 13 14  2  0  0  0  0
 13 35  1  0  0  0  0
 14 15  1  0  0  0  0
 15 16  1  0  0  0  0
 15 19  2  0  0  0  0
 16 17  1  0  0  0  0
 16 18  2  0  0  0  0
 17 36  1  0  0  0  0
 17 37  1  0  0  0  0
 17 38  1  0  0  0  0
 20 21  1  0  0  0  0
 21 22  2  0  0  0  0
 21 39  1  0  0  0  0
 22 23  1  0  0  0  0
 23 40  1  0  0  0  0
 23 41  1  0  0  0  0
 23 42  1  0  0  0  0
M  CHG  1   5   1
M  END
> <s_m_source_file>
AV-unprocessed.smi

> <i_m_source_file_index>
2845

> <i_lp_mmshare_version>
43012

> <i_f3d_flags>
0

> <s_epik_input>
W0NIM11jKFtjSF0xKWMoW0NIM10pW2NIXWMoYzEyKW4oW2NIXW4yKVtDSDJdW0NASF0oW09IXSlbQ0gyXW4zW2NIXW5jKG4zKVtTQF0oPU8pW0NIM10=

> <s_epik_cmdline>
J2VwaWtfcHl0aG9uJywgJy1waCcsICc3LjAnLCAnLXRuJywgJzgnLCAnLW1hJywgJzIwMCcsICctbWV0YWxfYmluZGluZycsICctaW1hZScsICc8aW5maWxlLm1hZT4nLCAnLW9tYWUnLCAnPG91dGZpbGUubWFlPic=

> <r_lp_tautomer_probability>
1

> <r_epik_Ionization_Penalty>
1.12076

> <r_epik_Ionization_Penalty_Charging>
1.12075

> <r_epik_Ionization_Penalty_Neutral>
1.54566e-06

> <r_epik_State_Penalty>
1.17957

> <r_epik_Charging_Adjusted_Penalty>
2.30033

> <i_epik_Tot_Q>
1

> <i_epik_Tot_abs_Q>
1

> <r_epik_Metal_State_Penalty>
1.26402

> <b_epik_Metal_Only>
0

> <s_lp_Force_Field>
OPLS_2005

> <r_lp_Energy>
14.8832

> <b_lp_Chiralities_Consistent>
1

> <s_lp_Variant>
AV-unprocessed.smi:2845-8

> <Gold.Version>
5.8.1

> <Gold.Id.Protein>
6NUR|6NUR_protein|mol2

> <Gold.PLP.Fitness>
54.2154

> <Gold.PLP.PLP>
-44.7723

> <Gold.PLP.part.hbond>
-4.5017

> <Gold.PLP.part.metal>
0.0000

> <Gold.PLP.part.buried>
-6.6927

> <Gold.PLP.part.nonpolar>
-32.7866

> <Gold.PLP.part.repulsive>
0.0556

> <Gold.PLP.ligand.clash>
0.0000

> <Gold.PLP.ligand.torsion>
1.1709

> <Gold.PLP.Chemscore.Hbond>
3.5883

> <Gold.PLP.Chemscore.CHOScore>
0.0000

> <Gold.PLP.Chemscore.Metal>
0.0000

> <Gold.Chemscore.Hbonds>
donor molecule, donor type, donor heavy atom, donor atom, acceptor molecule, acceptor atom, score
      L1  H     5    43       P1  8028  2.00
      P1  H  6931  6943       L1    18  0.69
      P1  H  6934  6947       L1    18  0.72
      P1  H 10752 10765       L1    10  0.23

> <Gold.PLP.Chemscore.Internal.Correction>
1.0200

> <Gold.Rescore>
     Score         DG    S(hbond)    S(metal)    S(lipo)     H(rot)  DE(clash)    DE(int)     intcor
     16.63     -17.81       2.52        0.00      93.99       2.77       0.08       1.10       ----

> <Gold.Chemscore.Fitness>
16.6349

> <Gold.Chemscore.DG>
-17.8074

> <Gold.Chemscore.ZeroCoef>
-5.4800

> <Gold.Chemscore.Hbond>
2.5199

> <Gold.Chemscore.Metal>
0.0000

> <Gold.Chemscore.Lipo>
93.9921

> <Gold.Chemscore.Internal_Hbond>
0.0000

> <Gold.Chemscore.DEClash>
0.0770

> <Gold.Chemscore.DEInternal>
1.0955

> <Gold.Chemscore.Rot>
2.7681

> <Gold.Chemscore.Internal.Correction>
   9.000000E+99

> <Gold.Chemscore.Hbonds>
donor molecule, donor type, donor heavy atom, donor atom, acceptor molecule, acceptor atom, score
      L1  H     5    43       P1  8028  1.00
      P1  H  6931  6943       L1    18  0.13
      P1  H  6934  6947       L1    18  0.68
      P1  H 10752 10765       L1    10  0.01

> <Gold.Chemscore.Hbond.Weighted>
-8.4166

> <Gold.Chemscore.Metal.Weighted>
-0.0000

> <Gold.Chemscore.Lipo.Weighted>
-10.9971

> <Gold.Chemscore.Internal_Hbond.Weighted>
0.0000

> <Gold.Chemscore.DEClash.Weighted>
0.0770

> <Gold.Chemscore.DEInternal.Weighted>
1.0955

> <Gold.Chemscore.Rot.Weighted>
7.0863

> <Gold.Chemscore.Internal.Correction.Weighted>
   9.000000E+99

> <Gold.Protein.RotatedTorsions>
[ 6907 6896 6895 6894 ] final   26.48 input  -60.11 | X-H torsion
[ 7974 7965 7964 7962 ] final  -46.47 input  175.53 | X-H torsion
[ 8008 7997 7996 7995 ] final  138.77 input   59.86 | X-H torsion
[ 10167 10162 10161 10158 ] final -156.88 input  -65.29 | X-H torsion
[ 10718 10713 10712 10709 ] final  -65.37 input   66.30 | X-H torsion
[ 10763 10752 10751 10750 ] final -156.70 input  -60.55 | X-H torsion
[ 11005 11000 10999 10996 ] final   35.42 input  -57.11 | X-H torsion

> <Gold.Protein.ActiveResidues>
 VAL166  LYS551  ARG553  GLY616  TRP617  ASP618  TYR619  PRO620  LYS621  CYS622 
 ASP623  PHE694  ASN695  SER759  ASP760  ASP761  ALA762  ILE779  LEU786  VAL792 
 PHE793  MET794  SER795  GLU796  ALA797  LYS798  CYS799  TRP800  GLU811  SER814 

> <Gold.Protein.RotatedAtoms>
  151.9881  134.9993  160.0560 H   0  0  0  0  0  0  0  0  0  0  0  0  # atno 6907 bound_to 6896
  152.1634  133.4591  159.4880 H   0  0  0  0  0  0  0  0  0  0  0  0  # atno 6908 bound_to 6896
  150.6891  134.1961  159.4347 H   0  0  0  0  0  0  0  0  0  0  0  0  # atno 6909 bound_to 6896
  145.9715  140.7378  142.9408 H   0  0  0  0  0  0  0  0  0  0  0  0  # atno 7974 bound_to 7965
  156.2995  140.2385  156.4129 H   0  0  0  0  0  0  0  0  0  0  0  0  # atno 8008 bound_to 7997
  154.8425  140.0427  157.1571 H   0  0  0  0  0  0  0  0  0  0  0  0  # atno 8009 bound_to 7997
  154.9087  140.2987  155.5282 H   0  0  0  0  0  0  0  0  0  0  0  0  # atno 8010 bound_to 7997
  139.6815  143.9573  152.2339 H   0  0  0  0  0  0  0  0  0  0  0  0  # atno 10167 bound_to 10162
  156.0673  130.4246  150.1555 H   0  0  0  0  0  0  0  0  0  0  0  0  # atno 10718 bound_to 10713
  154.7693  135.3140  154.8223 H   0  0  0  0  0  0  0  0  0  0  0  0  # atno 10763 bound_to 10752
  153.8963  135.6820  153.4762 H   0  0  0  0  0  0  0  0  0  0  0  0  # atno 10764 bound_to 10752
  153.1303  135.4783  154.9273 H   0  0  0  0  0  0  0  0  0  0  0  0  # atno 10765 bound_to 10752
  140.2429  134.3394  155.7919 H   0  0  0  0  0  0  0  0  0  0  0  0  # atno 11005 bound_to 11000
  144.6838  140.2757  143.7299 LP  0  0  0  0  0  0  0  0  0  0  0  0  # atno 17320 bound_to 7965
  145.7899  139.1923  143.2109 LP  0  0  0  0  0  0  0  0  0  0  0  0  # atno 17321 bound_to 7965
  139.9365  144.6709  150.8310 LP  0  0  0  0  0  0  0  0  0  0  0  0  # atno 17342 bound_to 10162
  140.7653  143.3273  151.2487 LP  0  0  0  0  0  0  0  0  0  0  0  0  # atno 17343 bound_to 10162
  156.9612  130.9805  151.3478 LP  0  0  0  0  0  0  0  0  0  0  0  0  # atno 17370 bound_to 10713
  157.5723  130.8319  149.8408 LP  0  0  0  0  0  0  0  0  0  0  0  0  # atno 17371 bound_to 10713
  141.2209  133.7309  156.8914 LP  0  0  0  0  0  0  0  0  0  0  0  0  # atno 17394 bound_to 11000
  140.1635  134.9149  157.2745 LP  0  0  0  0  0  0  0  0  0  0  0  0  # atno 17395 bound_to 11000

$$$$
