AV-unprocessed.smi:812|AV-procd|sdf|3815|dock5
  -GOLD-   22720 1253D 1   1.00000     0.00000
 Structure written by MMmdl.
 38 40  0  0  0  0  0  0  0  0  1 V2000
  151.8914  137.2253  159.1599 C   0  0  0  0  0  0  0  0  0  0  0  0
  150.8405  138.1815  158.7641 N   0  0  0  0  0  0  0  0  0  0  0  0
  151.2263  139.3960  158.2600 C   0  0  0  0  0  0  0  0  0  0  0  0
  152.3934  139.7594  158.1067 O   0  0  0  0  0  0  0  0  0  0  0  0
  150.1068  140.2711  157.9030 C   0  0  0  0  0  0  0  0  0  0  0  0
  148.8098  139.9110  158.0547 C   0  0  0  0  0  0  0  0  0  0  0  0
  147.9512  140.9237  157.6420 N   0  0  0  0  0  0  0  0  0  0  0  0
  148.8061  141.8708  157.2526 C   0  0  0  0  0  0  0  0  0  0  0  0
  150.1130  141.5613  157.3775 N   0  0  0  0  0  0  0  0  0  0  0  0
  151.2411  142.4113  157.0294 C   0  0  0  0  0  0  0  0  0  0  0  0
  151.2993  143.7003  157.8731 C   0  0  2  0  0  0  0  0  0  0  0  0
  152.1368  144.6514  157.2437 O   0  0  0  0  0  0  0  0  0  0  0  0
  151.7331  143.4037  159.3001 C   0  0  0  0  0  0  0  0  0  0  0  0
  152.2148  142.1202  159.6360 C   0  0  0  0  0  0  0  0  0  0  0  0
  152.6285  141.8394  160.9529 C   0  0  0  0  0  0  0  0  0  0  0  0
  152.5656  142.8413  161.9405 C   0  0  0  0  0  0  0  0  0  0  0  0
  152.9639  142.5713  163.2061 F   0  0  0  0  0  0  0  0  0  0  0  0
  152.0900  144.1248  161.6106 C   0  0  0  0  0  0  0  0  0  0  0  0
  151.6759  144.4060  160.2940 C   0  0  0  0  0  0  0  0  0  0  0  0
  148.5187  138.6294  158.5844 N   0  0  0  0  0  0  0  0  0  0  0  0
  147.1045  138.2740  158.7344 C   0  0  0  0  0  0  0  0  0  0  0  0
  149.5298  137.7695  158.9406 C   0  0  0  0  0  0  0  0  0  0  0  0
  149.2742  136.6560  159.4074 O   0  0  0  0  0  0  0  0  0  0  0  0
  152.9123  137.5658  158.9846 H   0  0  0  0  0  0  0  0  0  0  0  0
  151.7814  136.2884  158.6113 H   0  0  0  0  0  0  0  0  0  0  0  0
  151.8168  137.0002  160.2251 H   0  0  0  0  0  0  0  0  0  0  0  0
  148.4714  142.8230  156.8676 H   0  0  0  0  0  0  0  0  0  0  0  0
  152.1582  141.8336  157.1474 H   0  0  0  0  0  0  0  0  0  0  0  0
  151.1729  142.6584  155.9688 H   0  0  0  0  0  0  0  0  0  0  0  0
  150.3048  144.1461  157.9087 H   0  0  0  0  0  0  0  0  0  0  0  0
  152.9578  144.6827  157.7111 H   0  0  0  0  0  0  0  0  0  0  0  0
  152.2707  141.3464  158.8841 H   0  0  0  0  0  0  0  0  0  0  0  0
  152.9955  140.8553  161.2048 H   0  0  0  0  0  0  0  0  0  0  0  0
  152.0438  144.8945  162.3667 H   0  0  0  0  0  0  0  0  0  0  0  0
  151.3171  145.3952  160.0499 H   0  0  0  0  0  0  0  0  0  0  0  0
  146.9301  137.2811  159.1496 H   0  0  0  0  0  0  0  0  0  0  0  0
  146.6077  138.3111  157.7643 H   0  0  0  0  0  0  0  0  0  0  0  0
  146.6093  138.9906  159.3905 H   0  0  0  0  0  0  0  0  0  0  0  0
  1  2  1  0  0  0  0
  1 24  1  0  0  0  0
  1 25  1  0  0  0  0
  1 26  1  0  0  0  0
  2 22  1  0  0  0  0
  2  3  1  0  0  0  0
  3  4  2  0  0  0  0
  3  5  1  0  0  0  0
  5  9  1  0  0  0  0
  5  6  2  0  0  0  0
  6  7  1  0  0  0  0
  6 20  1  0  0  0  0
  7  8  2  0  0  0  0
  8  9  1  0  0  0  0
  8 27  1  0  0  0  0
  9 10  1  0  0  0  0
 10 11  1  0  0  0  0
 10 28  1  0  0  0  0
 10 29  1  0  0  0  0
 11 12  1  0  0  0  0
 11 13  1  0  0  0  0
 11 30  1  0  0  0  0
 12 31  1  0  0  0  0
 13 19  1  0  0  0  0
 13 14  2  0  0  0  0
 14 15  1  0  0  0  0
 14 32  1  0  0  0  0
 15 16  2  0  0  0  0
 15 33  1  0  0  0  0
 16 17  1  0  0  0  0
 16 18  1  0  0  0  0
 18 19  2  0  0  0  0
 18 34  1  0  0  0  0
 19 35  1  0  0  0  0
 20 21  1  0  0  0  0
 20 22  1  0  0  0  0
 21 36  1  0  0  0  0
 21 37  1  0  0  0  0
 21 38  1  0  0  0  0
 22 23  2  0  0  0  0
M  END
> <s_m_source_file>
AV-unprocessed.smi

> <i_m_source_file_index>
812

> <i_lp_mmshare_version>
43012

> <i_f3d_flags>
0

> <s_epik_input>
Tz1jMW4oW0NIM10pYyg9TyluKFtDSDNdKWMoYzEyKW5bY0hdbjJbQ0gyXVtDQEhdKFtPSF0pYzNbY0hdW2NIXWMoRilbY0hdW2NIXTM=

> <s_epik_cmdline>
J2VwaWtfcHl0aG9uJywgJy1waCcsICc3LjAnLCAnLXRuJywgJzgnLCAnLW1hJywgJzIwMCcsICctbWV0YWxfYmluZGluZycsICctaW1hZScsICc8aW5maWxlLm1hZT4nLCAnLW9tYWUnLCAnPG91dGZpbGUubWFlPic=

> <r_lp_tautomer_probability>
1

> <r_epik_Ionization_Penalty>
1.45649e-06

> <r_epik_Ionization_Penalty_Charging>
3.74189e-09

> <r_epik_Ionization_Penalty_Neutral>
1.45275e-06

> <r_epik_State_Penalty>
-0

> <r_epik_Charging_Adjusted_Penalty>
3.74189e-09

> <i_epik_Tot_Q>
0

> <i_epik_Tot_abs_Q>
0

> <r_epik_Metal_State_Penalty>
-0

> <b_epik_Metal_Only>
0

> <s_lp_Force_Field>
OPLS_2005

> <r_lp_Energy>
34.9814

> <b_lp_Chiralities_Consistent>
1

> <s_lp_Variant>
AV-unprocessed.smi:812-1

> <Gold.Version>
5.8.1

> <Gold.Id.Protein>
6NUR|6NUR_protein|mol2

> <Gold.PLP.Fitness>
53.3698

> <Gold.PLP.PLP>
-44.8133

> <Gold.PLP.part.hbond>
-2.0000

> <Gold.PLP.part.metal>
0.0000

> <Gold.PLP.part.buried>
-3.4960

> <Gold.PLP.part.nonpolar>
-38.2488

> <Gold.PLP.part.repulsive>
0.0176

> <Gold.PLP.ligand.clash>
0.0000

> <Gold.PLP.ligand.torsion>
0.2331

> <Gold.PLP.Chemscore.Hbond>
2.0000

> <Gold.PLP.Chemscore.CHOScore>
0.9992

> <Gold.PLP.Chemscore.Metal>
0.0000

> <Gold.Chemscore.Hbonds>
donor molecule, donor type, donor heavy atom, donor atom, acceptor molecule, acceptor atom, score
      P1  H  6896  6907       L1    23  0.08
      L1  C     8    27       P1  8028  1.00

> <Gold.PLP.Chemscore.Internal.Correction>
0.0249

> <Gold.Rescore>
     Score         DG    S(hbond)    S(metal)    S(lipo)     H(rot)  DE(clash)    DE(int)     intcor
     12.82     -18.01       1.96        0.00      99.99       2.24       2.88       2.31       ----

> <Gold.Chemscore.Fitness>
12.8204

> <Gold.Chemscore.DG>
-18.0058

> <Gold.Chemscore.ZeroCoef>
-5.4800

> <Gold.Chemscore.Hbond>
1.9629

> <Gold.Chemscore.Metal>
0.0000

> <Gold.Chemscore.Lipo>
99.9867

> <Gold.Chemscore.Internal_Hbond>
0.0000

> <Gold.Chemscore.DEClash>
2.8792

> <Gold.Chemscore.DEInternal>
2.3062

> <Gold.Chemscore.Rot>
2.2377

> <Gold.Chemscore.Internal.Correction>
   9.000000E+99

> <Gold.Chemscore.Hbonds>
donor molecule, donor type, donor heavy atom, donor atom, acceptor molecule, acceptor atom, score
      P1  H  6896  6907       L1    23  0.11
      P1  H  7997  8008       L1     4  0.05

> <Gold.Chemscore.Hbond.Weighted>
-6.5560

> <Gold.Chemscore.Metal.Weighted>
-0.0000

> <Gold.Chemscore.Lipo.Weighted>
-11.6984

> <Gold.Chemscore.Internal_Hbond.Weighted>
0.0000

> <Gold.Chemscore.DEClash.Weighted>
2.8792

> <Gold.Chemscore.DEInternal.Weighted>
2.3062

> <Gold.Chemscore.Rot.Weighted>
5.7286

> <Gold.Chemscore.Internal.Correction.Weighted>
   9.000000E+99

> <Gold.Protein.RotatedTorsions>
[ 6907 6896 6895 6894 ] final  -52.86 input  -60.11 | X-H torsion
[ 7974 7965 7964 7962 ] final -153.83 input  175.53 | X-H torsion
[ 8008 7997 7996 7995 ] final  -68.87 input   59.86 | X-H torsion
[ 10167 10162 10161 10158 ] final  145.63 input  -65.29 | X-H torsion
[ 10718 10713 10712 10709 ] final -130.89 input   66.30 | X-H torsion
[ 10763 10752 10751 10750 ] final  -21.24 input  -60.55 | X-H torsion
[ 11005 11000 10999 10996 ] final -141.76 input  -57.11 | X-H torsion

> <Gold.Protein.ActiveResidues>
 VAL166  LYS551  ARG553  GLY616  TRP617  ASP618  TYR619  PRO620  LYS621  CYS622 
 ASP623  PHE694  ASN695  SER759  ASP760  ASP761  ALA762  ILE779  LEU786  VAL792 
 PHE793  MET794  SER795  GLU796  ALA797  LYS798  CYS799  TRP800  GLU811  SER814 

> <Gold.Protein.RotatedAtoms>
  150.8479  134.7794  159.6984 H   0  0  0  0  0  0  0  0  0  0  0  0  # atno 6907 bound_to 6896
  152.4551  134.5305  159.9819 H   0  0  0  0  0  0  0  0  0  0  0  0  # atno 6908 bound_to 6896
  151.5432  133.3391  159.2975 H   0  0  0  0  0  0  0  0  0  0  0  0  # atno 6909 bound_to 6896
  144.7720  140.4471  143.5900 H   0  0  0  0  0  0  0  0  0  0  0  0  # atno 7974 bound_to 7965
  154.4898  140.0864  156.7569 H   0  0  0  0  0  0  0  0  0  0  0  0  # atno 8008 bound_to 7997
  155.4259  140.3447  155.4257 H   0  0  0  0  0  0  0  0  0  0  0  0  # atno 8009 bound_to 7997
  156.1314  140.1502  156.9048 H   0  0  0  0  0  0  0  0  0  0  0  0  # atno 8010 bound_to 7997
  139.4922  144.5888  151.6723 H   0  0  0  0  0  0  0  0  0  0  0  0  # atno 10167 bound_to 10162
  156.2189  130.6966  151.0734 H   0  0  0  0  0  0  0  0  0  0  0  0  # atno 10718 bound_to 10713
  153.6331  135.6988  153.5268 H   0  0  0  0  0  0  0  0  0  0  0  0  # atno 10763 bound_to 10752
  153.2843  135.4176  155.1107 H   0  0  0  0  0  0  0  0  0  0  0  0  # atno 10764 bound_to 10752
  154.8517  135.3609  154.5874 H   0  0  0  0  0  0  0  0  0  0  0  0  # atno 10765 bound_to 10752
  140.8292  134.2538  157.4865 H   0  0  0  0  0  0  0  0  0  0  0  0  # atno 11005 bound_to 11000
  145.6296  139.1534  143.2977 LP  0  0  0  0  0  0  0  0  0  0  0  0  # atno 17320 bound_to 7965
  146.1873  140.6400  142.9161 LP  0  0  0  0  0  0  0  0  0  0  0  0  # atno 17321 bound_to 7965
  140.5510  144.0425  150.6127 LP  0  0  0  0  0  0  0  0  0  0  0  0  # atno 17342 bound_to 10162
  140.3479  143.2980  152.0518 LP  0  0  0  0  0  0  0  0  0  0  0  0  # atno 17343 bound_to 10162
  157.7077  131.0748  150.6609 LP  0  0  0  0  0  0  0  0  0  0  0  0  # atno 17370 bound_to 10713
  156.6671  130.4529  149.5669 LP  0  0  0  0  0  0  0  0  0  0  0  0  # atno 17371 bound_to 10713
  139.8705  134.9577  156.4277 LP  0  0  0  0  0  0  0  0  0  0  0  0  # atno 17394 bound_to 11000
  140.9016  133.7775  155.9687 LP  0  0  0  0  0  0  0  0  0  0  0  0  # atno 17395 bound_to 11000

$$$$
