AV-unprocessed.smi:1240|AV-procd|sdf|5201|dock1
  -GOLD-   22720 4283D 1   1.00000     0.00000
 Structure written by MMmdl.
 48 50  0  0  0  0  0  0  0  0  2 V2000
  150.3463  140.7401  156.5787 O   0  0  0  0  0  0  0  0  0  0  0  0
  150.1367  141.8337  156.0549 C   0  0  0  0  0  0  0  0  0  0  0  0
  149.3283  141.9990  155.0003 N   0  0  0  0  0  0  0  0  0  0  0  0
  148.6189  140.9137  154.3303 C   0  0  0  0  0  0  0  0  0  0  0  0
  147.3678  141.4272  153.5738 C   0  0  2  0  0  0  0  0  0  0  0  0
  146.5502  142.4387  154.4434 C   0  0  1  0  0  0  0  0  0  0  0  0
  145.7820  143.4808  153.6375 C   0  0  0  0  0  0  0  0  0  0  0  0
  144.6946  143.9179  154.6043 C   0  0  0  0  0  0  0  0  0  0  0  0
  144.2847  142.6960  155.1889 O   0  0  0  0  0  0  0  0  0  0  0  0
  145.4059  141.8227  155.2773 C   0  0  0  0  0  0  0  0  0  0  0  0
  146.6079  140.2317  153.0721 N   0  3  0  0  0  0  0  0  0  0  0  0
  147.0891  139.5587  151.8374 C   0  0  0  0  0  0  0  0  0  0  0  0
  146.1118  138.4481  151.4148 C   0  0  0  0  0  0  0  0  0  0  0  0
  145.9605  137.5129  152.4739 O   0  0  0  0  0  0  0  0  0  0  0  0
  145.4223  138.1198  153.6406 C   0  0  0  0  0  0  0  0  0  0  0  0
  146.3776  139.2186  154.1348 C   0  0  0  0  0  0  0  0  0  0  0  0
  150.6542  143.0061  156.4607 N   0  0  0  0  0  0  0  0  0  0  0  0
  151.5640  143.2482  157.5248 C   0  0  0  0  0  0  0  0  0  0  0  0
  152.1329  142.1318  158.1717 C   0  0  0  0  0  0  0  0  0  0  0  0
  153.0245  142.3491  159.2412 C   0  0  0  0  0  0  0  0  0  0  0  0
  153.3573  143.5771  159.6913 N   0  0  0  0  0  0  0  0  0  0  0  0
  152.7988  144.6439  159.0814 C   0  0  0  0  0  0  0  0  0  0  0  0
  151.8983  144.5380  158.0026 C   0  0  0  0  0  0  0  0  0  0  0  0
  149.2157  142.9288  154.6238 H   0  0  0  0  0  0  0  0  0  0  0  0
  149.3031  140.3975  153.6565 H   0  0  0  0  0  0  0  0  0  0  0  0
  148.3359  140.1684  155.0740 H   0  0  0  0  0  0  0  0  0  0  0  0
  147.7233  141.9850  152.7057 H   0  0  0  0  0  0  0  0  0  0  0  0
  147.2188  142.9894  155.1066 H   0  0  0  0  0  0  0  0  0  0  0  0
  146.4041  144.3148  153.3106 H   0  0  0  0  0  0  0  0  0  0  0  0
  145.3248  143.0279  152.7564 H   0  0  0  0  0  0  0  0  0  0  0  0
  145.0982  144.5764  155.3749 H   0  0  0  0  0  0  0  0  0  0  0  0
  143.8662  144.4263  154.1105 H   0  0  0  0  0  0  0  0  0  0  0  0
  145.1092  140.8418  154.9046 H   0  0  0  0  0  0  0  0  0  0  0  0
  145.6898  141.7121  156.3237 H   0  0  0  0  0  0  0  0  0  0  0  0
  147.1691  140.2650  151.0128 H   0  0  0  0  0  0  0  0  0  0  0  0
  148.0744  139.1248  152.0094 H   0  0  0  0  0  0  0  0  0  0  0  0
  145.1417  138.8653  151.1400 H   0  0  0  0  0  0  0  0  0  0  0  0
  146.4934  137.9271  150.5365 H   0  0  0  0  0  0  0  0  0  0  0  0
  144.4317  138.5275  153.4325 H   0  0  0  0  0  0  0  0  0  0  0  0
  145.2982  137.3568  154.4092 H   0  0  0  0  0  0  0  0  0  0  0  0
  147.3308  138.7768  154.4297 H   0  0  0  0  0  0  0  0  0  0  0  0
  145.9566  139.6822  155.0262 H   0  0  0  0  0  0  0  0  0  0  0  0
  150.3177  143.8309  155.9863 H   0  0  0  0  0  0  0  0  0  0  0  0
  151.8997  141.1257  157.8549 H   0  0  0  0  0  0  0  0  0  0  0  0
  153.4811  141.5128  159.7497 H   0  0  0  0  0  0  0  0  0  0  0  0
  153.0727  145.6139  159.4692 H   0  0  0  0  0  0  0  0  0  0  0  0
  151.4778  145.4366  157.5783 H   0  0  0  0  0  0  0  0  0  0  0  0
  145.6961  140.5917  152.8284 H   0  0  0  0  0  0  0  0  0  0  0  0
  1  2  2  0  0  0  0
  2  3  1  0  0  0  0
  2 17  1  0  0  0  0
  3  4  1  0  0  0  0
  3 24  1  0  0  0  0
  4  5  1  0  0  0  0
  4 25  1  0  0  0  0
  4 26  1  0  0  0  0
  5  6  1  0  0  0  0
  5 11  1  0  0  0  0
  5 27  1  0  0  0  0
  6 10  1  0  0  0  0
  6  7  1  0  0  0  0
  6 28  1  0  0  0  0
  7  8  1  0  0  0  0
  7 29  1  0  0  0  0
  7 30  1  0  0  0  0
  8  9  1  0  0  0  0
  8 31  1  0  0  0  0
  8 32  1  0  0  0  0
  9 10  1  0  0  0  0
 10 33  1  0  0  0  0
 10 34  1  0  0  0  0
 11 16  1  0  0  0  0
 11 12  1  0  0  0  0
 11 48  1  0  0  0  0
 12 13  1  0  0  0  0
 12 35  1  0  0  0  0
 12 36  1  0  0  0  0
 13 14  1  0  0  0  0
 13 37  1  0  0  0  0
 13 38  1  0  0  0  0
 14 15  1  0  0  0  0
 15 16  1  0  0  0  0
 15 39  1  0  0  0  0
 15 40  1  0  0  0  0
 16 41  1  0  0  0  0
 16 42  1  0  0  0  0
 17 18  1  0  0  0  0
 17 43  1  0  0  0  0
 18 23  1  0  0  0  0
 18 19  2  0  0  0  0
 19 20  1  0  0  0  0
 19 44  1  0  0  0  0
 20 21  2  0  0  0  0
 20 45  1  0  0  0  0
 21 22  1  0  0  0  0
 22 23  2  0  0  0  0
 22 46  1  0  0  0  0
 23 47  1  0  0  0  0
M  CHG  1  11   1
M  END
> <s_m_source_file>
AV-unprocessed.smi

> <i_m_source_file_index>
1240

> <i_lp_mmshare_version>
43012

> <i_f3d_flags>
0

> <s_epik_input>
W2NIXTFbY0hdbltjSF1bY0hdYzFbTkhdQyg9TylbTkhdW0NIMl1bQ0BIXShbQ0BASF0yW0NIMl1bQ0gyXU9bQ0gyXTIpTjNbQ0gyXVtDSDJdT1tDSDJdW0NIMl0z

> <s_epik_cmdline>
J2VwaWtfcHl0aG9uJywgJy1waCcsICc3LjAnLCAnLXRuJywgJzgnLCAnLW1hJywgJzIwMCcsICctbWV0YWxfYmluZGluZycsICctaW1hZScsICc8aW5maWxlLm1hZT4nLCAnLW9tYWUnLCAnPG91dGZpbGUubWFlPic=

> <r_epik_Ionization_Penalty>
1.08433

> <r_epik_Ionization_Penalty_Charging>
0.98326

> <r_epik_Ionization_Penalty_Neutral>
0.10107

> <r_epik_State_Penalty>
1.11265

> <r_epik_Charging_Adjusted_Penalty>
2.09591

> <i_epik_Tot_Q>
1

> <i_epik_Tot_abs_Q>
1

> <r_epik_Metal_State_Penalty>
1.10731

> <b_epik_Metal_Only>
0

> <s_lp_Force_Field>
OPLS_2005

> <r_lp_Energy>
52.9252

> <b_lp_Chiralities_Consistent>
1

> <s_lp_Variant>
AV-unprocessed.smi:1240-7

> <Gold.Version>
5.8.1

> <Gold.Id.Protein>
6NUR|6NUR_protein|mol2

> <Gold.PLP.Fitness>
52.8006

> <Gold.PLP.PLP>
-43.9423

> <Gold.PLP.part.hbond>
-3.0000

> <Gold.PLP.part.metal>
0.0000

> <Gold.PLP.part.buried>
-1.8602

> <Gold.PLP.part.nonpolar>
-42.2710

> <Gold.PLP.part.repulsive>
0.6888

> <Gold.PLP.ligand.clash>
0.0000

> <Gold.PLP.ligand.torsion>
1.2972

> <Gold.PLP.Chemscore.Hbond>
3.7520

> <Gold.PLP.Chemscore.CHOScore>
0.0000

> <Gold.PLP.Chemscore.Metal>
0.0000

> <Gold.Chemscore.Hbonds>
donor molecule, donor type, donor heavy atom, donor atom, acceptor molecule, acceptor atom, score
      L1  H     3    24       P1  8028  0.52
      L1  H    11    48       P1 10175  1.95
      L1  H    17    43       P1  8028  0.86

> <Gold.PLP.Chemscore.Internal.Correction>
0.1966

> <Gold.Rescore>
     Score         DG    S(hbond)    S(metal)    S(lipo)     H(rot)  DE(clash)    DE(int)     intcor
     17.88     -22.89       2.53        0.00     113.88       1.70       2.47       2.54       ----

> <Gold.Chemscore.Fitness>
17.8769

> <Gold.Chemscore.DG>
-22.8861

> <Gold.Chemscore.ZeroCoef>
-5.4800

> <Gold.Chemscore.Hbond>
2.5269

> <Gold.Chemscore.Metal>
0.0000

> <Gold.Chemscore.Lipo>
113.8777

> <Gold.Chemscore.Internal_Hbond>
0.0000

> <Gold.Chemscore.DEClash>
2.4669

> <Gold.Chemscore.DEInternal>
2.5423

> <Gold.Chemscore.Rot>
1.7021

> <Gold.Chemscore.Internal.Correction>
   9.000000E+99

> <Gold.Chemscore.Hbonds>
donor molecule, donor type, donor heavy atom, donor atom, acceptor molecule, acceptor atom, score
      L1  H     3    24       P1  8028  0.51
      L1  H    11    48       P1 10175  0.59
      L1  H    17    43       P1  8028  0.86

> <Gold.Chemscore.Hbond.Weighted>
-8.4399

> <Gold.Chemscore.Metal.Weighted>
-0.0000

> <Gold.Chemscore.Lipo.Weighted>
-13.3237

> <Gold.Chemscore.Internal_Hbond.Weighted>
0.0000

> <Gold.Chemscore.DEClash.Weighted>
2.4669

> <Gold.Chemscore.DEInternal.Weighted>
2.5423

> <Gold.Chemscore.Rot.Weighted>
4.3575

> <Gold.Chemscore.Internal.Correction.Weighted>
   9.000000E+99

> <Gold.Protein.RotatedTorsions>
[ 6907 6896 6895 6894 ] final  166.45 input  -60.11 | X-H torsion
[ 7974 7965 7964 7962 ] final -111.81 input  175.53 | X-H torsion
[ 8008 7997 7996 7995 ] final  -61.83 input   59.86 | X-H torsion
[ 10167 10162 10161 10158 ] final -156.68 input  -65.29 | X-H torsion
[ 10718 10713 10712 10709 ] final    1.61 input   66.30 | X-H torsion
[ 10763 10752 10751 10750 ] final  -21.01 input  -60.55 | X-H torsion
[ 11005 11000 10999 10996 ] final -170.92 input  -57.11 | X-H torsion

> <Gold.Protein.ActiveResidues>
 VAL166  LYS551  ARG553  GLY616  TRP617  ASP618  TYR619  PRO620  LYS621  CYS622 
 ASP623  PHE694  ASN695  SER759  ASP760  ASP761  ALA762  ILE779  LEU786  VAL792 
 PHE793  MET794  SER795  GLU796  ALA797  LYS798  CYS799  TRP800  GLU811  SER814 

> <Gold.Protein.RotatedAtoms>
  151.8786  133.3490  159.3758 H   0  0  0  0  0  0  0  0  0  0  0  0  # atno 6907 bound_to 6896
  150.7133  134.5041  159.5585 H   0  0  0  0  0  0  0  0  0  0  0  0  # atno 6908 bound_to 6896
  152.2588  134.8056  160.0485 H   0  0  0  0  0  0  0  0  0  0  0  0  # atno 6909 bound_to 6896
  145.1516  140.8832  143.3643 H   0  0  0  0  0  0  0  0  0  0  0  0  # atno 7974 bound_to 7965
  154.4468  140.1009  156.6493 H   0  0  0  0  0  0  0  0  0  0  0  0  # atno 8008 bound_to 7997
  155.5415  140.3483  155.4429 H   0  0  0  0  0  0  0  0  0  0  0  0  # atno 8009 bound_to 7997
  156.0593  140.1322  156.9949 H   0  0  0  0  0  0  0  0  0  0  0  0  # atno 8010 bound_to 7997
  139.6830  143.9548  152.2347 H   0  0  0  0  0  0  0  0  0  0  0  0  # atno 10167 bound_to 10162
  156.8508  130.5553  149.5670 H   0  0  0  0  0  0  0  0  0  0  0  0  # atno 10718 bound_to 10713
  153.6295  135.6989  153.5281 H   0  0  0  0  0  0  0  0  0  0  0  0  # atno 10763 bound_to 10752
  153.2871  135.4168  155.1132 H   0  0  0  0  0  0  0  0  0  0  0  0  # atno 10764 bound_to 10752
  154.8525  135.3616  154.5837 H   0  0  0  0  0  0  0  0  0  0  0  0  # atno 10765 bound_to 10752
  140.5141  134.5773  157.5028 H   0  0  0  0  0  0  0  0  0  0  0  0  # atno 11005 bound_to 11000
  145.0425  139.3248  143.5969 LP  0  0  0  0  0  0  0  0  0  0  0  0  # atno 17320 bound_to 7965
  146.3494  139.9803  142.8696 LP  0  0  0  0  0  0  0  0  0  0  0  0  # atno 17321 bound_to 7965
  139.9343  144.6721  150.8330 LP  0  0  0  0  0  0  0  0  0  0  0  0  # atno 17342 bound_to 10162
  140.7658  143.3287  151.2458 LP  0  0  0  0  0  0  0  0  0  0  0  0  # atno 17343 bound_to 10162
  156.0829  130.5835  150.9596 LP  0  0  0  0  0  0  0  0  0  0  0  0  # atno 17370 bound_to 10713
  157.6304  131.0921  150.8452 LP  0  0  0  0  0  0  0  0  0  0  0  0  # atno 17371 bound_to 10713
  139.9642  134.7401  156.0172 LP  0  0  0  0  0  0  0  0  0  0  0  0  # atno 17394 bound_to 11000
  141.1370  133.6573  156.3621 LP  0  0  0  0  0  0  0  0  0  0  0  0  # atno 17395 bound_to 11000

$$$$
