AV-unprocessed.smi:2026|AV-procd|sdf|8203|dock5
  -GOLD-   2272010463D 1   1.00000     0.00000
 Structure written by MMmdl.
 47 49  0  0  0  0  0  0  0  0  2 V2000
  152.0863  144.9767  160.3036 C   0  0  0  0  0  0  0  0  0  0  0  0
  151.9326  143.7746  159.3876 C   0  0  0  0  0  0  0  0  0  0  0  0
  151.1389  143.9083  158.2252 C   0  0  0  0  0  0  0  0  0  0  0  0
  151.0182  142.7907  157.4073 C   0  0  0  0  0  0  0  0  0  0  0  0
  150.3231  142.5985  156.2107 N   0  3  0  0  0  0  0  0  0  0  0  0
  150.5079  141.3200  155.7771 C   0  0  0  0  0  0  0  0  0  0  0  0
  151.3095  140.6944  156.6806 N   0  0  0  0  0  0  0  0  0  0  0  0
  151.8232  139.3202  156.7080 C   0  0  0  0  0  0  0  0  0  0  0  0
  152.1308  138.7809  155.2955 C   0  0  2  0  0  0  0  0  0  0  0  0
  153.0598  139.6358  154.6611 O   0  0  0  0  0  0  0  0  0  0  0  0
  150.8858  138.6503  154.3943 C   0  0  0  0  0  0  0  0  0  0  0  0
  150.0298  137.5201  154.7767 N   0  0  0  0  0  0  0  0  0  0  0  0
  148.6847  137.5466  154.7745 C   0  0  0  0  0  0  0  0  0  0  0  0
  147.9712  138.4981  154.4611 O   0  0  0  0  0  0  0  0  0  0  0  0
  148.2392  136.3524  155.1858 N   0  0  0  0  0  0  0  0  0  0  0  0
  149.3101  135.4276  155.5025 C   0  0  0  0  0  0  0  0  0  0  0  0
  149.2721  135.0340  156.9900 C   0  0  0  0  0  0  0  0  0  0  0  0
  149.2702  134.2016  154.5727 C   0  0  0  0  0  0  0  0  0  0  0  0
  150.4923  136.3315  155.1885 C   0  0  0  0  0  0  0  0  0  0  0  0
  151.6694  135.9949  155.3170 O   0  0  0  0  0  0  0  0  0  0  0  0
  151.6533  141.5724  157.7130 C   0  0  0  0  0  0  0  0  0  0  0  0
  152.4396  141.4231  158.8522 C   0  0  0  0  0  0  0  0  0  0  0  0
  152.5757  142.5476  159.6963 C   0  0  0  0  0  0  0  0  0  0  0  0
  153.4295  142.4144  160.9458 C   0  0  0  0  0  0  0  0  0  0  0  0
  151.5245  145.8352  159.9343 H   0  0  0  0  0  0  0  0  0  0  0  0
  153.1336  145.2709  160.3762 H   0  0  0  0  0  0  0  0  0  0  0  0
  151.7209  144.7451  161.3043 H   0  0  0  0  0  0  0  0  0  0  0  0
  150.6485  144.8400  157.9828 H   0  0  0  0  0  0  0  0  0  0  0  0
  150.0957  140.8835  154.8788 H   0  0  0  0  0  0  0  0  0  0  0  0
  152.7100  139.3130  157.3420 H   0  0  0  0  0  0  0  0  0  0  0  0
  151.0828  138.6932  157.2069 H   0  0  0  0  0  0  0  0  0  0  0  0
  152.6095  137.8049  155.3771 H   0  0  0  0  0  0  0  0  0  0  0  0
  153.3267  139.2385  153.8462 H   0  0  0  0  0  0  0  0  0  0  0  0
  150.3205  139.5840  154.4070 H   0  0  0  0  0  0  0  0  0  0  0  0
  151.1959  138.5110  153.3571 H   0  0  0  0  0  0  0  0  0  0  0  0
  147.2631  136.1093  155.2738 H   0  0  0  0  0  0  0  0  0  0  0  0
  150.1000  134.3715  157.2457 H   0  0  0  0  0  0  0  0  0  0  0  0
  148.3468  134.5108  157.2326 H   0  0  0  0  0  0  0  0  0  0  0  0
  149.3336  135.9066  157.6412 H   0  0  0  0  0  0  0  0  0  0  0  0
  150.0769  133.5047  154.8026 H   0  0  0  0  0  0  0  0  0  0  0  0
  149.3692  134.4860  153.5238 H   0  0  0  0  0  0  0  0  0  0  0  0
  148.3295  133.6607  154.6774 H   0  0  0  0  0  0  0  0  0  0  0  0
  152.9315  140.4902  159.0825 H   0  0  0  0  0  0  0  0  0  0  0  0
  153.8827  141.4253  161.0160 H   0  0  0  0  0  0  0  0  0  0  0  0
  152.8252  142.5688  161.8399 H   0  0  0  0  0  0  0  0  0  0  0  0
  154.2358  143.1481  160.9402 H   0  0  0  0  0  0  0  0  0  0  0  0
  149.7648  143.2871  155.7229 H   0  0  0  0  0  0  0  0  0  0  0  0
  1  2  1  0  0  0  0
  1 25  1  0  0  0  0
  1 26  1  0  0  0  0
  1 27  1  0  0  0  0
  2 23  1  0  0  0  0
  2  3  2  0  0  0  0
  3  4  1  0  0  0  0
  3 28  1  0  0  0  0
  4 21  2  0  0  0  0
  4  5  1  0  0  0  0
  5  6  2  0  0  0  0
  5 47  1  0  0  0  0
  6  7  1  0  0  0  0
  6 29  1  0  0  0  0
  7  8  1  0  0  0  0
  7 21  1  0  0  0  0
  8  9  1  0  0  0  0
  8 30  1  0  0  0  0
  8 31  1  0  0  0  0
  9 10  1  0  0  0  0
  9 11  1  0  0  0  0
  9 32  1  0  0  0  0
 10 33  1  0  0  0  0
 11 12  1  0  0  0  0
 11 34  1  0  0  0  0
 11 35  1  0  0  0  0
 12 19  1  0  0  0  0
 12 13  1  0  0  0  0
 13 14  2  0  0  0  0
 13 15  1  0  0  0  0
 15 16  1  0  0  0  0
 15 36  1  0  0  0  0
 16 17  1  0  0  0  0
 16 18  1  0  0  0  0
 16 19  1  0  0  0  0
 17 37  1  0  0  0  0
 17 38  1  0  0  0  0
 17 39  1  0  0  0  0
 18 40  1  0  0  0  0
 18 41  1  0  0  0  0
 18 42  1  0  0  0  0
 19 20  2  0  0  0  0
 21 22  1  0  0  0  0
 22 23  2  0  0  0  0
 22 43  1  0  0  0  0
 23 24  1  0  0  0  0
 24 44  1  0  0  0  0
 24 45  1  0  0  0  0
 24 46  1  0  0  0  0
M  CHG  1   5   1
M  END
> <s_m_source_file>
AV-unprocessed.smi

> <i_m_source_file_index>
2026

> <i_lp_mmshare_version>
43012

> <i_f3d_flags>
0

> <s_epik_input>
W0NIM11jKFtjSF0xKWMoW0NIM10pW2NIXWMoYzEyKW4oW2NIXW4yKVtDSDJdW0NASF0oW09IXSlbQ0gyXU4oQzM9TylDKD1PKVtOSF1DMyhbQ0gzXSlbQ0gzXQ==

> <s_epik_cmdline>
J2VwaWtfcHl0aG9uJywgJy1waCcsICc3LjAnLCAnLXRuJywgJzgnLCAnLW1hJywgJzIwMCcsICctbWV0YWxfYmluZGluZycsICctaW1hZScsICc8aW5maWxlLm1hZT4nLCAnLW9tYWUnLCAnPG91dGZpbGUubWFlPic=

> <r_lp_tautomer_probability>
1

> <r_epik_Ionization_Penalty>
1.08255

> <r_epik_Ionization_Penalty_Charging>
1.08249

> <r_epik_Ionization_Penalty_Neutral>
6.65731e-05

> <r_epik_State_Penalty>
1.13805

> <r_epik_Charging_Adjusted_Penalty>
2.22054

> <i_epik_Tot_Q>
1

> <i_epik_Tot_abs_Q>
1

> <r_epik_Metal_State_Penalty>
1.29676

> <b_epik_Metal_Only>
0

> <s_lp_Force_Field>
OPLS_2005

> <r_lp_Energy>
25.6396

> <b_lp_Chiralities_Consistent>
1

> <s_lp_Variant>
AV-unprocessed.smi:2026-3

> <Gold.Version>
5.8.1

> <Gold.Id.Protein>
6NUR|6NUR_protein|mol2

> <Gold.PLP.Fitness>
59.3270

> <Gold.PLP.PLP>
-48.6671

> <Gold.PLP.part.hbond>
-4.0656

> <Gold.PLP.part.metal>
0.0000

> <Gold.PLP.part.buried>
-5.4153

> <Gold.PLP.part.nonpolar>
-39.8552

> <Gold.PLP.part.repulsive>
0.3408

> <Gold.PLP.ligand.clash>
0.0000

> <Gold.PLP.ligand.torsion>
0.7592

> <Gold.PLP.Chemscore.Hbond>
4.0505

> <Gold.PLP.Chemscore.CHOScore>
0.0000

> <Gold.PLP.Chemscore.Metal>
0.0000

> <Gold.Chemscore.Hbonds>
donor molecule, donor type, donor heavy atom, donor atom, acceptor molecule, acceptor atom, score
      L1  H     5    47       P1  8028  2.00
      P1  H  7989  7998       L1    10  0.08
      P1  H  7997  8008       L1    10  1.00
      P1  H 10752 10765       L1    20  0.99

> <Gold.PLP.Chemscore.Internal.Correction>
0.0269

> <Gold.Rescore>
     Score         DG    S(hbond)    S(metal)    S(lipo)     H(rot)  DE(clash)    DE(int)     intcor
     18.93     -22.06       2.86        0.00     114.49       2.49       0.15       2.99       ----

> <Gold.Chemscore.Fitness>
18.9271

> <Gold.Chemscore.DG>
-22.0597

> <Gold.Chemscore.ZeroCoef>
-5.4800

> <Gold.Chemscore.Hbond>
2.8641

> <Gold.Chemscore.Metal>
0.0000

> <Gold.Chemscore.Lipo>
114.4918

> <Gold.Chemscore.Internal_Hbond>
0.0000

> <Gold.Chemscore.DEClash>
0.1461

> <Gold.Chemscore.DEInternal>
2.9865

> <Gold.Chemscore.Rot>
2.4929

> <Gold.Chemscore.Internal.Correction>
   9.000000E+99

> <Gold.Chemscore.Hbonds>
donor molecule, donor type, donor heavy atom, donor atom, acceptor molecule, acceptor atom, score
      L1  H     5    47       P1  8028  0.97
      P1  H  7997  8008       L1    10  0.77
      P1  H 10752 10765       L1    20  0.92

> <Gold.Chemscore.Hbond.Weighted>
-9.5660

> <Gold.Chemscore.Metal.Weighted>
-0.0000

> <Gold.Chemscore.Lipo.Weighted>
-13.3955

> <Gold.Chemscore.Internal_Hbond.Weighted>
0.0000

> <Gold.Chemscore.DEClash.Weighted>
0.1461

> <Gold.Chemscore.DEInternal.Weighted>
2.9865

> <Gold.Chemscore.Rot.Weighted>
6.3819

> <Gold.Chemscore.Internal.Correction.Weighted>
   9.000000E+99

> <Gold.Protein.RotatedTorsions>
[ 6907 6896 6895 6894 ] final  -28.76 input  -60.11 | X-H torsion
[ 7974 7965 7964 7962 ] final  -86.99 input  175.53 | X-H torsion
[ 8008 7997 7996 7995 ] final  -14.80 input   59.86 | X-H torsion
[ 10167 10162 10161 10158 ] final  -45.42 input  -65.29 | X-H torsion
[ 10718 10713 10712 10709 ] final  173.35 input   66.30 | X-H torsion
[ 10763 10752 10751 10750 ] final -157.48 input  -60.55 | X-H torsion
[ 11005 11000 10999 10996 ] final   78.82 input  -57.11 | X-H torsion

> <Gold.Protein.ActiveResidues>
 VAL166  LYS551  ARG553  GLY616  TRP617  ASP618  TYR619  PRO620  LYS621  CYS622 
 ASP623  PHE694  ASN695  SER759  ASP760  ASP761  ALA762  ILE779  LEU786  VAL792 
 PHE793  MET794  SER795  GLU796  ALA797  LYS798  CYS799  TRP800  GLU811  SER814 

> <Gold.Protein.RotatedAtoms>
  151.1285  135.0117  159.8570 H   0  0  0  0  0  0  0  0  0  0  0  0  # atno 6907 bound_to 6896
  152.5450  134.1639  159.8579 H   0  0  0  0  0  0  0  0  0  0  0  0  # atno 6908 bound_to 6896
  151.1703  133.4743  159.2627 H   0  0  0  0  0  0  0  0  0  0  0  0  # atno 6909 bound_to 6896
  145.4725  140.9559  143.1909 H   0  0  0  0  0  0  0  0  0  0  0  0  # atno 7974 bound_to 7965
  154.5181  140.2213  155.9027 H   0  0  0  0  0  0  0  0  0  0  0  0  # atno 8008 bound_to 7997
  156.1631  140.3138  155.8806 H   0  0  0  0  0  0  0  0  0  0  0  0  # atno 8009 bound_to 7997
  155.3712  140.0467  157.3036 H   0  0  0  0  0  0  0  0  0  0  0  0  # atno 8010 bound_to 7997
  140.6859  143.2880  151.3636 H   0  0  0  0  0  0  0  0  0  0  0  0  # atno 10167 bound_to 10162
  156.9656  131.0074  151.2917 H   0  0  0  0  0  0  0  0  0  0  0  0  # atno 10718 bound_to 10713
  154.7633  135.3124  154.8336 H   0  0  0  0  0  0  0  0  0  0  0  0  # atno 10763 bound_to 10752
  153.9091  135.6807  153.4756 H   0  0  0  0  0  0  0  0  0  0  0  0  # atno 10764 bound_to 10752
  153.1236  135.4811  154.9167 H   0  0  0  0  0  0  0  0  0  0  0  0  # atno 10765 bound_to 10752
  139.9197  134.7794  156.1699 H   0  0  0  0  0  0  0  0  0  0  0  0  # atno 11005 bound_to 11000
  144.7937  139.6278  143.7102 LP  0  0  0  0  0  0  0  0  0  0  0  0  # atno 17320 bound_to 7965
  146.2388  139.5959  142.9505 LP  0  0  0  0  0  0  0  0  0  0  0  0  # atno 17321 bound_to 7965
  139.6217  144.0895  152.2397 LP  0  0  0  0  0  0  0  0  0  0  0  0  # atno 17342 bound_to 10162
  140.0341  144.6058  150.7464 LP  0  0  0  0  0  0  0  0  0  0  0  0  # atno 17343 bound_to 10162
  157.5628  130.8257  149.8288 LP  0  0  0  0  0  0  0  0  0  0  0  0  # atno 17370 bound_to 10713
  156.0304  130.3766  150.1704 LP  0  0  0  0  0  0  0  0  0  0  0  0  # atno 17371 bound_to 10713
  141.0707  133.6798  156.2134 LP  0  0  0  0  0  0  0  0  0  0  0  0  # atno 17394 bound_to 11000
  140.6512  134.5065  157.5577 LP  0  0  0  0  0  0  0  0  0  0  0  0  # atno 17395 bound_to 11000

$$$$
