AV-unprocessed.smi:2736|AV-procd|sdf|10545|dock7
  -GOLD-   2272014593D 1   1.00000     0.00000
 Structure written by MMmdl.
 38 40  0  0  0  0  0  0  0  0  1 V2000
  148.5241  131.4913  153.5256 C   0  0  0  0  0  0  0  0  0  0  0  0
  149.4242  132.1918  154.4607 N   0  0  0  0  0  0  0  0  0  0  0  0
  149.2524  133.5396  154.6380 C   0  0  0  0  0  0  0  0  0  0  0  0
  148.3969  134.2223  154.0743 O   0  0  0  0  0  0  0  0  0  0  0  0
  150.1958  134.1378  155.5853 C   0  0  0  0  0  0  0  0  0  0  0  0
  151.1485  133.4221  156.2296 C   0  0  0  0  0  0  0  0  0  0  0  0
  151.9056  134.2289  157.0714 N   0  0  0  0  0  0  0  0  0  0  0  0
  151.3512  135.4269  156.8796 C   0  0  0  0  0  0  0  0  0  0  0  0
  150.3251  135.4603  156.0041 N   0  0  0  0  0  0  0  0  0  0  0  0
  149.5576  136.6346  155.6158 C   0  0  0  0  0  0  0  0  0  0  0  0
  150.2450  137.4628  154.5105 C   0  0  2  0  0  0  0  0  0  0  0  0
  151.5777  137.0159  154.3403 O   0  0  0  0  0  0  0  0  0  0  0  0
  150.1733  138.9567  154.8185 C   0  0  0  0  0  0  0  0  0  0  0  0
  151.2261  139.5633  155.5423 C   0  0  0  0  0  0  0  0  0  0  0  0
  151.1900  140.9360  155.8509 C   0  0  0  0  0  0  0  0  0  0  0  0
  150.0964  141.7190  155.4413 C   0  0  0  0  0  0  0  0  0  0  0  0
  149.0389  141.1255  154.7281 C   0  0  0  0  0  0  0  0  0  0  0  0
  149.0683  139.7509  154.4172 C   0  0  0  0  0  0  0  0  0  0  0  0
  147.7296  139.0822  153.5514 Cl  0  0  0  0  0  0  0  0  0  0  0  0
  151.2422  132.0314  155.9745 N   0  0  0  0  0  0  0  0  0  0  0  0
  152.2878  131.2901  156.6856 C   0  0  0  0  0  0  0  0  0  0  0  0
  150.3848  131.4190  155.0923 C   0  0  0  0  0  0  0  0  0  0  0  0
  150.4700  130.2084  154.8688 O   0  0  0  0  0  0  0  0  0  0  0  0
  147.7684  132.1216  153.0556 H   0  0  0  0  0  0  0  0  0  0  0  0
  147.9840  130.6953  154.0408 H   0  0  0  0  0  0  0  0  0  0  0  0
  149.0971  131.0378  152.7153 H   0  0  0  0  0  0  0  0  0  0  0  0
  151.7065  136.3106  157.3891 H   0  0  0  0  0  0  0  0  0  0  0  0
  148.5663  136.3142  155.2951 H   0  0  0  0  0  0  0  0  0  0  0  0
  149.4029  137.2498  156.5034 H   0  0  0  0  0  0  0  0  0  0  0  0
  149.7539  137.2599  153.5600 H   0  0  0  0  0  0  0  0  0  0  0  0
  151.9540  137.4716  153.6027 H   0  0  0  0  0  0  0  0  0  0  0  0
  152.0704  138.9743  155.8695 H   0  0  0  0  0  0  0  0  0  0  0  0
  152.0011  141.3871  156.4038 H   0  0  0  0  0  0  0  0  0  0  0  0
  150.0663  142.7726  155.6769 H   0  0  0  0  0  0  0  0  0  0  0  0
  148.1980  141.7292  154.4200 H   0  0  0  0  0  0  0  0  0  0  0  0
  152.3117  130.2219  156.4685 H   0  0  0  0  0  0  0  0  0  0  0  0
  152.1514  131.3977  157.7621 H   0  0  0  0  0  0  0  0  0  0  0  0
  153.2681  131.6943  156.4313 H   0  0  0  0  0  0  0  0  0  0  0  0
  1  2  1  0  0  0  0
  1 24  1  0  0  0  0
  1 25  1  0  0  0  0
  1 26  1  0  0  0  0
  2 22  1  0  0  0  0
  2  3  1  0  0  0  0
  3  4  2  0  0  0  0
  3  5  1  0  0  0  0
  5  9  1  0  0  0  0
  5  6  2  0  0  0  0
  6  7  1  0  0  0  0
  6 20  1  0  0  0  0
  7  8  2  0  0  0  0
  8  9  1  0  0  0  0
  8 27  1  0  0  0  0
  9 10  1  0  0  0  0
 10 11  1  0  0  0  0
 10 28  1  0  0  0  0
 10 29  1  0  0  0  0
 11 12  1  0  0  0  0
 11 13  1  0  0  0  0
 11 30  1  0  0  0  0
 12 31  1  0  0  0  0
 13 18  1  0  0  0  0
 13 14  2  0  0  0  0
 14 15  1  0  0  0  0
 14 32  1  0  0  0  0
 15 16  2  0  0  0  0
 15 33  1  0  0  0  0
 16 17  1  0  0  0  0
 16 34  1  0  0  0  0
 17 18  2  0  0  0  0
 17 35  1  0  0  0  0
 18 19  1  0  0  0  0
 20 21  1  0  0  0  0
 20 22  1  0  0  0  0
 21 36  1  0  0  0  0
 21 37  1  0  0  0  0
 21 38  1  0  0  0  0
 22 23  2  0  0  0  0
M  END
> <s_m_source_file>
AV-unprocessed.smi

> <i_m_source_file_index>
2736

> <i_lp_mmshare_version>
43012

> <i_f3d_flags>
0

> <s_epik_input>
Tz1jMW4oW0NIM10pYyg9TyluKFtDSDNdKWMoYzEyKW5bY0hdbjJbQ0gyXVtDQEhdKFtPSF0pYzNbY0hdW2NIXVtjSF1bY0hdYzNDbA==

> <s_epik_cmdline>
J2VwaWtfcHl0aG9uJywgJy1waCcsICc3LjAnLCAnLXRuJywgJzgnLCAnLW1hJywgJzIwMCcsICctbWV0YWxfYmluZGluZycsICctaW1hZScsICc8aW5maWxlLm1hZT4nLCAnLW9tYWUnLCAnPG91dGZpbGUubWFlPic=

> <r_lp_tautomer_probability>
1

> <r_epik_Ionization_Penalty>
1.63404e-06

> <r_epik_Ionization_Penalty_Charging>
3.74189e-09

> <r_epik_Ionization_Penalty_Neutral>
1.63029e-06

> <r_epik_State_Penalty>
-0

> <r_epik_Charging_Adjusted_Penalty>
3.74189e-09

> <i_epik_Tot_Q>
0

> <i_epik_Tot_abs_Q>
0

> <r_epik_Metal_State_Penalty>
-0

> <b_epik_Metal_Only>
0

> <s_lp_Force_Field>
OPLS_2005

> <r_lp_Energy>
36.4155

> <b_lp_Chiralities_Consistent>
1

> <s_lp_Variant>
AV-unprocessed.smi:2736-1

> <Gold.Version>
5.8.1

> <Gold.Id.Protein>
6NUR|6NUR_protein|mol2

> <Gold.PLP.Fitness>
40.0571

> <Gold.PLP.PLP>
-40.3190

> <Gold.PLP.part.hbond>
-2.8172

> <Gold.PLP.part.metal>
0.0000

> <Gold.PLP.part.buried>
-4.2597

> <Gold.PLP.part.nonpolar>
-33.9278

> <Gold.PLP.part.repulsive>
0.8732

> <Gold.PLP.ligand.clash>
0.0000

> <Gold.PLP.ligand.torsion>
1.7203

> <Gold.PLP.Chemscore.Hbond>
1.0541

> <Gold.PLP.Chemscore.CHOScore>
0.0000

> <Gold.PLP.Chemscore.Metal>
0.0000

> <Gold.Chemscore.Hbonds>
donor molecule, donor type, donor heavy atom, donor atom, acceptor molecule, acceptor atom, score
      P1  H  6896  6908       L1     7  0.03
      P1  H 10752 10763       L1    12  0.95

> <Gold.PLP.Chemscore.Internal.Correction>
0.0166

> <Gold.Rescore>
     Score         DG    S(hbond)    S(metal)    S(lipo)     H(rot)  DE(clash)    DE(int)     intcor
      6.74      -9.54       0.41        0.00      70.01       2.15       0.06       2.74       ----

> <Gold.Chemscore.Fitness>
6.7388

> <Gold.Chemscore.DG>
-9.5358

> <Gold.Chemscore.ZeroCoef>
-5.4800

> <Gold.Chemscore.Hbond>
0.4077

> <Gold.Chemscore.Metal>
0.0000

> <Gold.Chemscore.Lipo>
70.0124

> <Gold.Chemscore.Internal_Hbond>
0.0000

> <Gold.Chemscore.DEClash>
0.0589

> <Gold.Chemscore.DEInternal>
2.7382

> <Gold.Chemscore.Rot>
2.1474

> <Gold.Chemscore.Internal.Correction>
   9.000000E+99

> <Gold.Chemscore.Hbonds>
donor molecule, donor type, donor heavy atom, donor atom, acceptor molecule, acceptor atom, score
      P1  H  6896  6908       L1     7  0.02
      P1  H 10752 10763       L1    12  0.20

> <Gold.Chemscore.Hbond.Weighted>
-1.3617

> <Gold.Chemscore.Metal.Weighted>
-0.0000

> <Gold.Chemscore.Lipo.Weighted>
-8.1914

> <Gold.Chemscore.Internal_Hbond.Weighted>
0.0000

> <Gold.Chemscore.DEClash.Weighted>
0.0589

> <Gold.Chemscore.DEInternal.Weighted>
2.7382

> <Gold.Chemscore.Rot.Weighted>
5.4974

> <Gold.Chemscore.Internal.Correction.Weighted>
   9.000000E+99

> <Gold.Protein.RotatedTorsions>
[ 6907 6896 6895 6894 ] final   62.41 input  -60.11 | X-H torsion
[ 7974 7965 7964 7962 ] final   -1.80 input  175.53 | X-H torsion
[ 8008 7997 7996 7995 ] final   47.33 input   59.86 | X-H torsion
[ 10167 10162 10161 10158 ] final  159.54 input  -65.29 | X-H torsion
[ 10718 10713 10712 10709 ] final -157.16 input   66.30 | X-H torsion
[ 10763 10752 10751 10750 ] final   59.29 input  -60.55 | X-H torsion
[ 11005 11000 10999 10996 ] final  -31.47 input  -57.11 | X-H torsion

> <Gold.Protein.ActiveResidues>
 VAL166  LYS551  ARG553  GLY616  TRP617  ASP618  TYR619  PRO620  LYS621  CYS622 
 ASP623  PHE694  ASN695  SER759  ASP760  ASP761  ALA762  ILE779  LEU786  VAL792 
 PHE793  MET794  SER795  GLU796  ALA797  LYS798  CYS799  TRP800  GLU811  SER814 

> <Gold.Protein.RotatedAtoms>
  152.4170  134.6024  160.0003 H   0  0  0  0  0  0  0  0  0  0  0  0  # atno 6907 bound_to 6896
  151.6184  133.3335  159.3090 H   0  0  0  0  0  0  0  0  0  0  0  0  # atno 6908 bound_to 6896
  150.8058  134.7222  159.6709 H   0  0  0  0  0  0  0  0  0  0  0  0  # atno 6909 bound_to 6896
  146.2412  140.1475  142.8334 H   0  0  0  0  0  0  0  0  0  0  0  0  # atno 7974 bound_to 7965
  155.3672  140.3422  155.4242 H   0  0  0  0  0  0  0  0  0  0  0  0  # atno 8008 bound_to 7997
  156.1682  140.1623  156.8529 H   0  0  0  0  0  0  0  0  0  0  0  0  # atno 8009 bound_to 7997
  154.5206  140.0768  156.8147 H   0  0  0  0  0  0  0  0  0  0  0  0  # atno 8010 bound_to 7997
  139.4833  144.4720  151.8563 H   0  0  0  0  0  0  0  0  0  0  0  0  # atno 10167 bound_to 10162
  156.5365  130.8544  151.2734 H   0  0  0  0  0  0  0  0  0  0  0  0  # atno 10718 bound_to 10713
  152.9891  135.5577  154.5689 H   0  0  0  0  0  0  0  0  0  0  0  0  # atno 10763 bound_to 10752
  154.5093  135.2801  155.1358 H   0  0  0  0  0  0  0  0  0  0  0  0  # atno 10764 bound_to 10752
  154.2756  135.6354  153.5380 H   0  0  0  0  0  0  0  0  0  0  0  0  # atno 10765 bound_to 10752
  140.9470  133.7244  156.1162 H   0  0  0  0  0  0  0  0  0  0  0  0  # atno 11005 bound_to 11000
  145.0195  140.8782  143.5175 LP  0  0  0  0  0  0  0  0  0  0  0  0  # atno 17320 bound_to 7965
  145.1521  139.2508  143.5435 LP  0  0  0  0  0  0  0  0  0  0  0  0  # atno 17321 bound_to 7965
  140.4189  144.2270  150.5887 LP  0  0  0  0  0  0  0  0  0  0  0  0  # atno 17342 bound_to 10162
  140.4893  143.2352  151.8842 LP  0  0  0  0  0  0  0  0  0  0  0  0  # atno 17343 bound_to 10162
  157.7413  130.9867  150.2435 LP  0  0  0  0  0  0  0  0  0  0  0  0  # atno 17370 bound_to 10713
  156.3011  130.3758  149.7749 LP  0  0  0  0  0  0  0  0  0  0  0  0  # atno 17371 bound_to 10713
  140.7655  134.3891  157.5518 LP  0  0  0  0  0  0  0  0  0  0  0  0  # atno 17394 bound_to 11000
  139.8836  134.8989  156.2754 LP  0  0  0  0  0  0  0  0  0  0  0  0  # atno 17395 bound_to 11000

$$$$
