AV-unprocessed.smi:2669|AV-procd|sdf|10343|dock4
  -GOLD-   2272014363D 1   1.00000     0.00000
 Structure written by MMmdl.
 39 41  0  0  0  0  0  0  0  0  1 V2000
  147.0902  138.1270  154.0171 C   0  0  0  0  0  0  0  0  0  0  0  0
  147.9352  136.9499  154.1420 N   0  0  0  0  0  0  0  0  0  0  0  0
  148.1889  136.3860  155.4000 C   0  0  0  0  0  0  0  0  0  0  0  0
  147.2083  135.7140  156.0471 N   0  0  0  0  0  0  0  0  0  0  0  0
  147.4918  135.1949  157.2485 C   0  0  0  0  0  0  0  0  0  0  0  0
  148.6421  135.2378  157.9382 N   0  0  0  0  0  0  0  0  0  0  0  0
  149.6208  135.8981  157.3046 C   0  0  0  0  0  0  0  0  0  0  0  0
  150.9054  136.0958  157.7809 N   0  0  0  0  0  0  0  0  0  0  0  0
  151.4568  136.7908  156.7893 C   0  0  0  0  0  0  0  0  0  0  0  0
  150.6859  137.0703  155.7202 N   0  0  0  0  0  0  0  0  0  0  0  0
  151.0958  137.8096  154.5379 C   0  0  0  0  0  0  0  0  0  0  0  0
  151.7598  139.1579  154.8818 C   0  0  2  0  0  0  0  0  0  0  0  0
  153.0619  138.9429  155.3893 O   0  0  0  0  0  0  0  0  0  0  0  0
  150.9603  139.9561  155.9220 C   0  0  0  0  0  0  0  0  0  0  0  0
  151.5507  139.7689  157.2015 O   0  0  0  0  0  0  0  0  0  0  0  0
  151.6758  140.8633  158.0297 C   0  0  0  0  0  0  0  0  0  0  0  0
  152.2653  140.6456  159.2922 C   0  0  0  0  0  0  0  0  0  0  0  0
  152.4340  141.7069  160.2023 C   0  0  0  0  0  0  0  0  0  0  0  0
  152.0116  143.0040  159.8561 C   0  0  0  0  0  0  0  0  0  0  0  0
  152.2179  144.3070  160.9679 Cl  0  0  0  0  0  0  0  0  0  0  0  0
  151.4204  143.2354  158.6001 C   0  0  0  0  0  0  0  0  0  0  0  0
  151.2518  142.1733  157.6903 C   0  0  0  0  0  0  0  0  0  0  0  0
  149.4505  136.4968  156.0195 C   0  0  0  0  0  0  0  0  0  0  0  0
  147.0688  138.4612  152.9800 H   0  0  0  0  0  0  0  0  0  0  0  0
  147.4700  138.9447  154.6306 H   0  0  0  0  0  0  0  0  0  0  0  0
  146.0685  137.9027  154.3248 H   0  0  0  0  0  0  0  0  0  0  0  0
  148.4671  136.6410  153.3409 H   0  0  0  0  0  0  0  0  0  0  0  0
  146.6812  134.6686  157.7300 H   0  0  0  0  0  0  0  0  0  0  0  0
  152.4854  137.1166  156.8424 H   0  0  0  0  0  0  0  0  0  0  0  0
  151.7925  137.1854  153.9767 H   0  0  0  0  0  0  0  0  0  0  0  0
  150.2329  137.9543  153.8889 H   0  0  0  0  0  0  0  0  0  0  0  0
  151.8587  139.7557  153.9746 H   0  0  0  0  0  0  0  0  0  0  0  0
  153.4265  138.1789  154.9690 H   0  0  0  0  0  0  0  0  0  0  0  0
  150.9462  141.0136  155.6515 H   0  0  0  0  0  0  0  0  0  0  0  0
  149.9294  139.5985  155.9457 H   0  0  0  0  0  0  0  0  0  0  0  0
  152.5933  139.6534  159.5659 H   0  0  0  0  0  0  0  0  0  0  0  0
  152.8879  141.5234  161.1650 H   0  0  0  0  0  0  0  0  0  0  0  0
  151.0947  144.2296  158.3312 H   0  0  0  0  0  0  0  0  0  0  0  0
  150.7935  142.3908  156.7378 H   0  0  0  0  0  0  0  0  0  0  0  0
  1  2  1  0  0  0  0
  1 24  1  0  0  0  0
  1 25  1  0  0  0  0
  1 26  1  0  0  0  0
  2  3  1  0  0  0  0
  2 27  1  0  0  0  0
  3 23  1  0  0  0  0
  3  4  2  0  0  0  0
  4  5  1  0  0  0  0
  5  6  2  0  0  0  0
  5 28  1  0  0  0  0
  6  7  1  0  0  0  0
  7 23  2  0  0  0  0
  7  8  1  0  0  0  0
  8  9  2  0  0  0  0
  9 10  1  0  0  0  0
  9 29  1  0  0  0  0
 10 11  1  0  0  0  0
 10 23  1  0  0  0  0
 11 12  1  0  0  0  0
 11 30  1  0  0  0  0
 11 31  1  0  0  0  0
 12 13  1  0  0  0  0
 12 14  1  0  0  0  0
 12 32  1  0  0  0  0
 13 33  1  0  0  0  0
 14 15  1  0  0  0  0
 14 34  1  0  0  0  0
 14 35  1  0  0  0  0
 15 16  1  0  0  0  0
 16 22  1  0  0  0  0
 16 17  2  0  0  0  0
 17 18  1  0  0  0  0
 17 36  1  0  0  0  0
 18 19  2  0  0  0  0
 18 37  1  0  0  0  0
 19 20  1  0  0  0  0
 19 21  1  0  0  0  0
 21 22  2  0  0  0  0
 21 38  1  0  0  0  0
 22 39  1  0  0  0  0
M  END
> <s_m_source_file>
AV-unprocessed.smi

> <i_m_source_file_index>
2669

> <i_lp_mmshare_version>
43012

> <i_f3d_flags>
0

> <s_epik_input>
bjFbY0hdbmMoW05IXVtDSDNdKWMoYzEyKW4oW2NIXW4yKVtDSDJdW0NASF0oW09IXSlbQ0gyXU9jM1tjSF1bY0hdYyhDbClbY0hdW2NIXTM=

> <s_epik_cmdline>
J2VwaWtfcHl0aG9uJywgJy1waCcsICc3LjAnLCAnLXRuJywgJzgnLCAnLW1hJywgJzIwMCcsICctbWV0YWxfYmluZGluZycsICctaW1hZScsICc8aW5maWxlLm1hZT4nLCAnLW9tYWUnLCAnPG91dGZpbGUubWFlPic=

> <r_lp_tautomer_probability>
1

> <r_epik_Ionization_Penalty>
0.00733592

> <r_epik_Ionization_Penalty_Charging>
0

> <r_epik_Ionization_Penalty_Neutral>
0.00733592

> <r_epik_State_Penalty>
-0

> <r_epik_Charging_Adjusted_Penalty>
0

> <i_epik_Tot_Q>
0

> <i_epik_Tot_abs_Q>
0

> <r_epik_Metal_State_Penalty>
-0

> <b_epik_Metal_Only>
0

> <s_lp_Force_Field>
OPLS_2005

> <r_lp_Energy>
12.7517

> <b_lp_Chiralities_Consistent>
1

> <s_lp_Variant>
AV-unprocessed.smi:2669-1

> <Gold.Version>
5.8.1

> <Gold.Id.Protein>
6NUR|6NUR_protein|mol2

> <Gold.PLP.Fitness>
42.1278

> <Gold.PLP.PLP>
-36.4498

> <Gold.PLP.part.hbond>
-3.7642

> <Gold.PLP.part.metal>
0.0000

> <Gold.PLP.part.buried>
-3.8458

> <Gold.PLP.part.nonpolar>
-29.3183

> <Gold.PLP.part.repulsive>
0.0271

> <Gold.PLP.ligand.clash>
0.0002

> <Gold.PLP.ligand.torsion>
1.6728

> <Gold.PLP.Chemscore.Hbond>
3.0000

> <Gold.PLP.Chemscore.CHOScore>
0.0000

> <Gold.PLP.Chemscore.Metal>
0.0000

> <Gold.Chemscore.Hbonds>
donor molecule, donor type, donor heavy atom, donor atom, acceptor molecule, acceptor atom, score
      L1  H     2    27       P1  7948  1.00
      P1  H  7997  8009       L1    13  1.00

> <Gold.PLP.Chemscore.Internal.Correction>
0.0237

> <Gold.Rescore>
     Score         DG    S(hbond)    S(metal)    S(lipo)     H(rot)  DE(clash)    DE(int)     intcor
     13.41     -17.12       2.39        0.00      96.20       2.97       1.06       2.64       ----

> <Gold.Chemscore.Fitness>
13.4106

> <Gold.Chemscore.DG>
-17.1159

> <Gold.Chemscore.ZeroCoef>
-5.4800

> <Gold.Chemscore.Hbond>
2.3938

> <Gold.Chemscore.Metal>
0.0000

> <Gold.Chemscore.Lipo>
96.2026

> <Gold.Chemscore.Internal_Hbond>
0.0000

> <Gold.Chemscore.DEClash>
1.0613

> <Gold.Chemscore.DEInternal>
2.6439

> <Gold.Chemscore.Rot>
2.9746

> <Gold.Chemscore.Internal.Correction>
   9.000000E+99

> <Gold.Chemscore.Hbonds>
donor molecule, donor type, donor heavy atom, donor atom, acceptor molecule, acceptor atom, score
      L1  H     2    27       P1  7948  0.99
      P1  H  7997  8009       L1    13  0.77

> <Gold.Chemscore.Hbond.Weighted>
-7.9952

> <Gold.Chemscore.Metal.Weighted>
-0.0000

> <Gold.Chemscore.Lipo.Weighted>
-11.2557

> <Gold.Chemscore.Internal_Hbond.Weighted>
0.0000

> <Gold.Chemscore.DEClash.Weighted>
1.0613

> <Gold.Chemscore.DEInternal.Weighted>
2.6439

> <Gold.Chemscore.Rot.Weighted>
7.6150

> <Gold.Chemscore.Internal.Correction.Weighted>
   9.000000E+99

> <Gold.Protein.RotatedTorsions>
[ 6907 6896 6895 6894 ] final  148.83 input  -60.11 | X-H torsion
[ 7974 7965 7964 7962 ] final -112.98 input  175.53 | X-H torsion
[ 8008 7997 7996 7995 ] final -138.39 input   59.86 | X-H torsion
[ 10167 10162 10161 10158 ] final  160.03 input  -65.29 | X-H torsion
[ 10718 10713 10712 10709 ] final -130.13 input   66.30 | X-H torsion
[ 10763 10752 10751 10750 ] final   70.52 input  -60.55 | X-H torsion
[ 11005 11000 10999 10996 ] final  -70.03 input  -57.11 | X-H torsion

> <Gold.Protein.ActiveResidues>
 VAL166  LYS551  ARG553  GLY616  TRP617  ASP618  TYR619  PRO620  LYS621  CYS622 
 ASP623  PHE694  ASN695  SER759  ASP760  ASP761  ALA762  ILE779  LEU786  VAL792 
 PHE793  MET794  SER795  GLU796  ALA797  LYS798  CYS799  TRP800  GLU811  SER814 

> <Gold.Protein.RotatedAtoms>
  152.1362  133.4436  159.4744 H   0  0  0  0  0  0  0  0  0  0  0  0  # atno 6907 bound_to 6896
  150.6882  134.2361  159.4463 H   0  0  0  0  0  0  0  0  0  0  0  0  # atno 6908 bound_to 6896
  152.0248  134.9801  160.0622 H   0  0  0  0  0  0  0  0  0  0  0  0  # atno 6909 bound_to 6896
  145.1375  140.8759  143.3721 H   0  0  0  0  0  0  0  0  0  0  0  0  # atno 7974 bound_to 7965
  155.4275  140.0523  157.3021 H   0  0  0  0  0  0  0  0  0  0  0  0  # atno 8008 bound_to 7997
  154.4875  140.2106  155.9581 H   0  0  0  0  0  0  0  0  0  0  0  0  # atno 8009 bound_to 7997
  156.1295  140.3174  155.8333 H   0  0  0  0  0  0  0  0  0  0  0  0  # atno 8010 bound_to 7997
  139.4837  144.4673  151.8624 H   0  0  0  0  0  0  0  0  0  0  0  0  # atno 10167 bound_to 10162
  156.2114  130.6921  151.0654 H   0  0  0  0  0  0  0  0  0  0  0  0  # atno 10718 bound_to 10713
  153.0346  135.5171  154.7453 H   0  0  0  0  0  0  0  0  0  0  0  0  # atno 10763 bound_to 10752
  154.6440  135.2916  155.0071 H   0  0  0  0  0  0  0  0  0  0  0  0  # atno 10764 bound_to 10752
  154.0978  135.6640  153.4915 H   0  0  0  0  0  0  0  0  0  0  0  0  # atno 10765 bound_to 10752
  141.1566  133.6779  156.6690 H   0  0  0  0  0  0  0  0  0  0  0  0  # atno 11005 bound_to 11000
  145.0568  139.3137  143.5900 LP  0  0  0  0  0  0  0  0  0  0  0  0  # atno 17320 bound_to 7965
  146.3508  139.9996  142.8677 LP  0  0  0  0  0  0  0  0  0  0  0  0  # atno 17321 bound_to 7965
  140.4139  144.2332  150.5888 LP  0  0  0  0  0  0  0  0  0  0  0  0  # atno 17342 bound_to 10162
  140.4939  143.2338  151.8778 LP  0  0  0  0  0  0  0  0  0  0  0  0  # atno 17343 bound_to 10162
  157.7040  131.0764  150.6726 LP  0  0  0  0  0  0  0  0  0  0  0  0  # atno 17370 bound_to 10713
  156.6786  130.4560  149.5635 LP  0  0  0  0  0  0  0  0  0  0  0  0  # atno 17371 bound_to 10713
  140.3189  134.8024  157.4237 LP  0  0  0  0  0  0  0  0  0  0  0  0  # atno 17394 bound_to 11000
  140.1114  134.5341  155.8263 LP  0  0  0  0  0  0  0  0  0  0  0  0  # atno 17395 bound_to 11000

$$$$
