AV-unprocessed.smi:2243|AV-procd|sdf|9065|dock3
  -GOLD-   2272012273D 1   1.00000     0.00000
 Structure written by MMmdl.
 35 36  0  0  0  0  0  0  0  0  2 V2000
  147.0837  140.4630  152.0288 C   0  0  0  0  0  0  0  0  0  0  0  0
  147.0086  139.4385  153.1741 C   0  0  1  0  0  0  0  0  0  0  0  0
  146.9852  138.1002  152.5817 N   0  0  0  0  0  0  0  0  0  0  0  0
  145.9196  137.2866  152.5149 C   0  0  0  0  0  0  0  0  0  0  0  0
  144.8081  137.5707  152.9624 O   0  0  0  0  0  0  0  0  0  0  0  0
  146.2202  136.1302  151.9044 N   0  0  0  0  0  0  0  0  0  0  0  0
  145.3234  135.0611  151.6757 C   0  0  0  0  0  0  0  0  0  0  0  0
  145.1521  134.4718  150.4933 N   0  3  0  0  0  0  0  0  0  0  0  0
  144.2133  133.4790  150.6276 C   0  0  0  0  0  0  0  0  0  0  0  0
  143.8308  133.5026  151.9474 C   0  0  0  0  0  0  0  0  0  0  0  0
  144.5201  134.4922  152.6194 O   0  0  0  0  0  0  0  0  0  0  0  0
  148.1754  139.5657  154.1900 C   0  0  0  0  0  0  0  0  0  0  0  0
  148.6622  141.0215  154.3564 C   0  0  0  0  0  0  0  0  0  0  0  0
  149.8685  141.1050  155.3054 C   0  0  0  0  0  0  0  0  0  0  0  0
  150.9215  140.2777  154.8277 O   0  0  0  0  0  0  0  0  0  0  0  0
  150.5600  138.9033  154.7830 C   0  0  0  0  0  0  0  0  0  0  0  0
  149.3909  138.6969  153.8061 C   0  0  0  0  0  0  0  0  0  0  0  0
  146.9706  141.4842  152.3915 H   0  0  0  0  0  0  0  0  0  0  0  0
  146.2865  140.2975  151.3031 H   0  0  0  0  0  0  0  0  0  0  0  0
  148.0339  140.3986  151.4977 H   0  0  0  0  0  0  0  0  0  0  0  0
  146.0759  139.6207  153.7111 H   0  0  0  0  0  0  0  0  0  0  0  0
  147.8551  137.7744  152.1858 H   0  0  0  0  0  0  0  0  0  0  0  0
  145.6149  134.6882  149.6193 H   0  0  0  0  0  0  0  0  0  0  0  0
  143.9165  132.8671  149.7879 H   0  0  0  0  0  0  0  0  0  0  0  0
  143.1296  132.9248  152.5320 H   0  0  0  0  0  0  0  0  0  0  0  0
  147.8156  139.2247  155.1621 H   0  0  0  0  0  0  0  0  0  0  0  0
  148.9388  141.4301  153.3835 H   0  0  0  0  0  0  0  0  0  0  0  0
  147.8656  141.6559  154.7447 H   0  0  0  0  0  0  0  0  0  0  0  0
  150.2285  142.1325  155.3629 H   0  0  0  0  0  0  0  0  0  0  0  0
  149.5885  140.8093  156.3179 H   0  0  0  0  0  0  0  0  0  0  0  0
  151.4245  138.3245  154.4573 H   0  0  0  0  0  0  0  0  0  0  0  0
  150.2996  138.5507  155.7822 H   0  0  0  0  0  0  0  0  0  0  0  0
  149.1257  137.6401  153.7992 H   0  0  0  0  0  0  0  0  0  0  0  0
  149.7181  138.9446  152.7955 H   0  0  0  0  0  0  0  0  0  0  0  0
  147.1663  136.0045  151.5764 H   0  0  0  0  0  0  0  0  0  0  0  0
  1  2  1  0  0  0  0
  1 18  1  0  0  0  0
  1 19  1  0  0  0  0
  1 20  1  0  0  0  0
  2  3  1  0  0  0  0
  2 12  1  0  0  0  0
  2 21  1  0  0  0  0
  3 22  1  0  0  0  0
  3  4  1  0  0  0  0
  4  6  1  0  0  0  0
  4  5  2  0  0  0  0
  6  7  1  0  0  0  0
  6 35  1  0  0  0  0
  7 11  1  0  0  0  0
  7  8  2  0  0  0  0
  8 23  1  0  0  0  0
  8  9  1  0  0  0  0
  9 24  1  0  0  0  0
  9 10  2  0  0  0  0
 10 25  1  0  0  0  0
 10 11  1  0  0  0  0
 12 17  1  0  0  0  0
 12 13  1  0  0  0  0
 12 26  1  0  0  0  0
 13 14  1  0  0  0  0
 13 27  1  0  0  0  0
 13 28  1  0  0  0  0
 14 15  1  0  0  0  0
 14 29  1  0  0  0  0
 14 30  1  0  0  0  0
 15 16  1  0  0  0  0
 16 17  1  0  0  0  0
 16 31  1  0  0  0  0
 16 32  1  0  0  0  0
 17 33  1  0  0  0  0
 17 34  1  0  0  0  0
M  CHG  1   8   1
M  END
> <s_m_source_file>
AV-unprocessed.smi

> <i_m_source_file_index>
2243

> <i_lp_mmshare_version>
43012

> <i_f3d_flags>
0

> <s_epik_input>
W0NIMl0xW0NIMl1PW0NIMl1bQ0gyXVtDSF0xW0NASF0oW0NIM10pW05IXUMoPU8pW05IXWMybltjSF1bY0hdbzI=

> <s_epik_cmdline>
J2VwaWtfcHl0aG9uJywgJy1waCcsICc3LjAnLCAnLXRuJywgJzgnLCAnLW1hJywgJzIwMCcsICctbWV0YWxfYmluZGluZycsICctaW1hZScsICc8aW5maWxlLm1hZT4nLCAnLW9tYWUnLCAnPG91dGZpbGUubWFlPic=

> <r_epik_Ionization_Penalty>
6.61405

> <r_epik_Ionization_Penalty_Charging>
6.55981

> <r_epik_Ionization_Penalty_Neutral>
0.0542461

> <r_epik_State_Penalty>
1.79186

> <r_epik_Charging_Adjusted_Penalty>
8.35167

> <i_epik_Tot_Q>
1

> <i_epik_Tot_abs_Q>
1

> <r_epik_Metal_State_Penalty>
1.80655

> <b_epik_Metal_Only>
0

> <s_lp_Force_Field>
OPLS_2005

> <r_lp_Energy>
19.6033

> <b_lp_Chiralities_Consistent>
1

> <s_lp_Variant>
AV-unprocessed.smi:2243-4

> <Gold.Version>
5.8.1

> <Gold.Id.Protein>
6NUR|6NUR_protein|mol2

> <Gold.PLP.Fitness>
37.0910

> <Gold.PLP.PLP>
-25.3318

> <Gold.PLP.part.hbond>
-3.9766

> <Gold.PLP.part.metal>
0.0000

> <Gold.PLP.part.buried>
0.5722

> <Gold.PLP.part.nonpolar>
-23.0306

> <Gold.PLP.part.repulsive>
0.5261

> <Gold.PLP.ligand.clash>
0.0000

> <Gold.PLP.ligand.torsion>
1.2303

> <Gold.PLP.Chemscore.Hbond>
3.8868

> <Gold.PLP.Chemscore.CHOScore>
0.8478

> <Gold.PLP.Chemscore.Metal>
0.0000

> <Gold.Chemscore.Hbonds>
donor molecule, donor type, donor heavy atom, donor atom, acceptor molecule, acceptor atom, score
      L1  H     3    22       P1  7948  0.93
      L1  H     6    35       P1  7948  1.00
      L1  H     8    23       P1  7921  0.94
      P1  H  7989  7998       L1    15  1.00
      L1  C    10    25       P1 10957  0.86

> <Gold.PLP.Chemscore.Internal.Correction>
0.0163

> <Gold.Rescore>
     Score         DG    S(hbond)    S(metal)    S(lipo)     H(rot)  DE(clash)    DE(int)     intcor
     18.89     -21.61       3.71        0.00      61.03       1.33       1.45       1.28       ----

> <Gold.Chemscore.Fitness>
18.8864

> <Gold.Chemscore.DG>
-21.6100

> <Gold.Chemscore.ZeroCoef>
-5.4800

> <Gold.Chemscore.Hbond>
3.7124

> <Gold.Chemscore.Metal>
0.0000

> <Gold.Chemscore.Lipo>
61.0331

> <Gold.Chemscore.Internal_Hbond>
0.0000

> <Gold.Chemscore.DEClash>
1.4453

> <Gold.Chemscore.DEInternal>
1.2783

> <Gold.Chemscore.Rot>
1.3321

> <Gold.Chemscore.Internal.Correction>
   9.000000E+99

> <Gold.Chemscore.Hbonds>
donor molecule, donor type, donor heavy atom, donor atom, acceptor molecule, acceptor atom, score
      L1  H     3    22       P1  7948  0.89
      L1  H     6    35       P1  7948  0.94
      L1  H     8    23       P1  7921  0.85
      P1  H  7989  7998       L1    15  0.78

> <Gold.Chemscore.Hbond.Weighted>
-12.3994

> <Gold.Chemscore.Metal.Weighted>
-0.0000

> <Gold.Chemscore.Lipo.Weighted>
-7.1409

> <Gold.Chemscore.Internal_Hbond.Weighted>
0.0000

> <Gold.Chemscore.DEClash.Weighted>
1.4453

> <Gold.Chemscore.DEInternal.Weighted>
1.2783

> <Gold.Chemscore.Rot.Weighted>
3.4103

> <Gold.Chemscore.Internal.Correction.Weighted>
   9.000000E+99

> <Gold.Protein.RotatedTorsions>
[ 6907 6896 6895 6894 ] final   62.60 input  -60.11 | X-H torsion
[ 7974 7965 7964 7962 ] final  158.32 input  175.53 | X-H torsion
[ 8008 7997 7996 7995 ] final -166.55 input   59.86 | X-H torsion
[ 10167 10162 10161 10158 ] final   22.96 input  -65.29 | X-H torsion
[ 10718 10713 10712 10709 ] final  -31.72 input   66.30 | X-H torsion
[ 10763 10752 10751 10750 ] final  122.66 input  -60.55 | X-H torsion
[ 11005 11000 10999 10996 ] final -128.24 input  -57.11 | X-H torsion

> <Gold.Protein.ActiveResidues>
 VAL166  LYS551  ARG553  GLY616  TRP617  ASP618  TYR619  PRO620  LYS621  CYS622 
 ASP623  PHE694  ASN695  SER759  ASP760  ASP761  ALA762  ILE779  LEU786  VAL792 
 PHE793  MET794  SER795  GLU796  ALA797  LYS798  CYS799  TRP800  GLU811  SER814 

> <Gold.Protein.RotatedAtoms>
  152.4185  134.5997  159.9996 H   0  0  0  0  0  0  0  0  0  0  0  0  # atno 6907 bound_to 6896
  151.6154  133.3338  159.3084 H   0  0  0  0  0  0  0  0  0  0  0  0  # atno 6908 bound_to 6896
  150.8074  134.7246  159.6722 H   0  0  0  0  0  0  0  0  0  0  0  0  # atno 6909 bound_to 6896
  144.7853  139.7462  143.6243 H   0  0  0  0  0  0  0  0  0  0  0  0  # atno 7974 bound_to 7965
  155.8654  140.0985  157.1586 H   0  0  0  0  0  0  0  0  0  0  0  0  # atno 8008 bound_to 7997
  154.3993  140.1357  156.4074 H   0  0  0  0  0  0  0  0  0  0  0  0  # atno 8009 bound_to 7997
  155.7810  140.3458  155.5300 H   0  0  0  0  0  0  0  0  0  0  0  0  # atno 8010 bound_to 7997
  140.5307  143.9847  150.6464 H   0  0  0  0  0  0  0  0  0  0  0  0  # atno 10167 bound_to 10162
  156.3837  130.4360  149.7448 H   0  0  0  0  0  0  0  0  0  0  0  0  # atno 10718 bound_to 10713
  153.6332  135.3392  155.3048 H   0  0  0  0  0  0  0  0  0  0  0  0  # atno 10763 bound_to 10752
  154.8575  135.4300  154.2083 H   0  0  0  0  0  0  0  0  0  0  0  0  # atno 10764 bound_to 10752
  153.2984  135.7022  153.7300 H   0  0  0  0  0  0  0  0  0  0  0  0  # atno 10765 bound_to 10752
  140.9532  134.1036  157.4041 H   0  0  0  0  0  0  0  0  0  0  0  0  # atno 11005 bound_to 11000
  146.2081  139.5419  142.9699 LP  0  0  0  0  0  0  0  0  0  0  0  0  # atno 17320 bound_to 7965
  145.5940  141.0365  143.2055 LP  0  0  0  0  0  0  0  0  0  0  0  0  # atno 17321 bound_to 7965
  140.3221  143.3130  152.0773 LP  0  0  0  0  0  0  0  0  0  0  0  0  # atno 17342 bound_to 10162
  139.4953  144.6567  151.6557 LP  0  0  0  0  0  0  0  0  0  0  0  0  # atno 17343 bound_to 10162
  156.4529  130.7915  151.2936 LP  0  0  0  0  0  0  0  0  0  0  0  0  # atno 17370 bound_to 10713
  157.7494  131.0090  150.3250 LP  0  0  0  0  0  0  0  0  0  0  0  0  # atno 17371 bound_to 10713
  139.8854  135.0072  156.6432 LP  0  0  0  0  0  0  0  0  0  0  0  0  # atno 17394 bound_to 11000
  140.7572  133.8847  155.8391 LP  0  0  0  0  0  0  0  0  0  0  0  0  # atno 17395 bound_to 11000

$$$$
