AV-unprocessed.smi:1868|AV-procd|sdf|7586|dock8
  -GOLD-   22720 9293D 1   1.00000     0.00000
 Structure written by MMmdl.
 47 49  0  0  0  0  0  0  0  0  2 V2000
  142.9981  137.4995  153.8646 C   0  0  0  0  0  0  0  0  0  0  0  0
  143.3924  136.2167  153.2038 C   0  0  0  0  0  0  0  0  0  0  0  0
  142.4971  135.2935  152.8540 N   0  0  0  0  0  0  0  0  0  0  0  0
  143.2811  134.3123  152.2790 C   0  0  0  0  0  0  0  0  0  0  0  0
  142.9262  133.0680  151.7109 C   0  0  0  0  0  0  0  0  0  0  0  0
  143.9173  132.2175  151.1786 C   0  0  0  0  0  0  0  0  0  0  0  0
  145.2746  132.5981  151.2061 C   0  0  0  0  0  0  0  0  0  0  0  0
  145.6501  133.8333  151.7678 C   0  0  0  0  0  0  0  0  0  0  0  0
  144.6570  134.6782  152.2992 C   0  0  0  0  0  0  0  0  0  0  0  0
  144.6857  135.9233  152.9215 N   0  0  0  0  0  0  0  0  0  0  0  0
  145.8679  136.7274  153.1984 C   0  0  0  0  0  0  0  0  0  0  0  0
  145.9646  137.9833  152.3067 C   0  0  2  0  0  0  0  0  0  0  0  0
  146.1751  137.5414  150.9807 O   0  0  0  0  0  0  0  0  0  0  0  0
  147.1118  138.9387  152.7096 C   0  0  0  0  0  0  0  0  0  0  0  0
  146.6629  140.0628  153.5704 N   0  3  2  0  0  0  0  0  0  0  0  0
  147.6168  141.2017  153.5384 C   0  0  0  0  0  0  0  0  0  0  0  0
  147.0751  142.4081  154.3254 C   0  0  0  0  0  0  0  0  0  0  0  0
  146.7209  142.0441  155.7782 C   0  0  2  0  0  0  0  0  0  0  0  0
  147.9642  141.8488  156.6637 C   0  0  0  0  0  0  0  0  0  0  0  0
  145.7867  140.8206  155.7842 C   0  0  0  0  0  0  0  0  0  0  0  0
  146.3553  139.6477  154.9653 C   0  0  0  0  0  0  0  0  0  0  0  0
  141.9203  137.5290  154.0278 H   0  0  0  0  0  0  0  0  0  0  0  0
  143.2712  138.3469  153.2358 H   0  0  0  0  0  0  0  0  0  0  0  0
  143.4916  137.6003  154.8304 H   0  0  0  0  0  0  0  0  0  0  0  0
  141.8891  132.7671  151.6844 H   0  0  0  0  0  0  0  0  0  0  0  0
  143.6346  131.2687  150.7467 H   0  0  0  0  0  0  0  0  0  0  0  0
  146.0270  131.9409  150.7953 H   0  0  0  0  0  0  0  0  0  0  0  0
  146.6893  134.1251  151.7909 H   0  0  0  0  0  0  0  0  0  0  0  0
  145.8494  137.0135  154.2509 H   0  0  0  0  0  0  0  0  0  0  0  0
  146.7534  136.1029  153.0738 H   0  0  0  0  0  0  0  0  0  0  0  0
  145.0074  138.5004  152.3372 H   0  0  0  0  0  0  0  0  0  0  0  0
  145.4058  137.7311  150.4663 H   0  0  0  0  0  0  0  0  0  0  0  0
  147.9020  138.4049  153.2380 H   0  0  0  0  0  0  0  0  0  0  0  0
  147.5676  139.3279  151.7976 H   0  0  0  0  0  0  0  0  0  0  0  0
  148.5812  140.8844  153.9377 H   0  0  0  0  0  0  0  0  0  0  0  0
  147.7909  141.5050  152.5052 H   0  0  0  0  0  0  0  0  0  0  0  0
  147.7989  143.2237  154.3056 H   0  0  0  0  0  0  0  0  0  0  0  0
  146.1829  142.7854  153.8238 H   0  0  0  0  0  0  0  0  0  0  0  0
  146.1686  142.8832  156.2034 H   0  0  0  0  0  0  0  0  0  0  0  0
  148.5858  141.0195  156.3271 H   0  0  0  0  0  0  0  0  0  0  0  0
  147.6785  141.6476  157.6964 H   0  0  0  0  0  0  0  0  0  0  0  0
  148.5851  142.7450  156.6665 H   0  0  0  0  0  0  0  0  0  0  0  0
  145.5893  140.5011  156.8081 H   0  0  0  0  0  0  0  0  0  0  0  0
  144.8207  141.1070  155.3663 H   0  0  0  0  0  0  0  0  0  0  0  0
  145.6270  138.8382  154.9689 H   0  0  0  0  0  0  0  0  0  0  0  0
  147.2559  139.2542  155.4387 H   0  0  0  0  0  0  0  0  0  0  0  0
  145.8039  140.4073  153.1668 H   0  0  0  0  0  0  0  0  0  0  0  0
  1  2  1  0  0  0  0
  1 22  1  0  0  0  0
  1 23  1  0  0  0  0
  1 24  1  0  0  0  0
  2 10  1  0  0  0  0
  2  3  2  0  0  0  0
  3  4  1  0  0  0  0
  4  9  2  0  0  0  0
  4  5  1  0  0  0  0
  5  6  2  0  0  0  0
  5 25  1  0  0  0  0
  6  7  1  0  0  0  0
  6 26  1  0  0  0  0
  7  8  2  0  0  0  0
  7 27  1  0  0  0  0
  8  9  1  0  0  0  0
  8 28  1  0  0  0  0
  9 10  1  0  0  0  0
 10 11  1  0  0  0  0
 11 12  1  0  0  0  0
 11 29  1  0  0  0  0
 11 30  1  0  0  0  0
 12 13  1  0  0  0  0
 12 14  1  0  0  0  0
 12 31  1  0  0  0  0
 13 32  1  0  0  0  0
 14 15  1  0  0  0  0
 14 33  1  0  0  0  0
 14 34  1  0  0  0  0
 15 21  1  0  0  0  0
 15 16  1  0  0  0  0
 15 47  1  0  0  0  0
 16 17  1  0  0  0  0
 16 35  1  0  0  0  0
 16 36  1  0  0  0  0
 17 18  1  0  0  0  0
 17 37  1  0  0  0  0
 17 38  1  0  0  0  0
 18 19  1  0  0  0  0
 18 20  1  0  0  0  0
 18 39  1  0  0  0  0
 19 40  1  0  0  0  0
 19 41  1  0  0  0  0
 19 42  1  0  0  0  0
 20 21  1  0  0  0  0
 20 43  1  0  0  0  0
 20 44  1  0  0  0  0
 21 45  1  0  0  0  0
 21 46  1  0  0  0  0
M  CHG  1  15   1
M  END
> <s_m_source_file>
AV-unprocessed.smi

> <i_m_source_file_index>
1868

> <i_lp_mmshare_version>
43012

> <i_f3d_flags>
0

> <s_epik_input>
W2NIXTFbY0hdW2NIXVtjSF1jKGMxMiluKGMobjIpW0NIM10pW0NIMl1bQ0BIXShbT0hdKVtDSDJdTjNbQ0gyXVtDSDJdW0NIXShbQ0gzXSlbQ0gyXVtDSDJdMw==

> <s_epik_cmdline>
J2VwaWtfcHl0aG9uJywgJy1waCcsICc3LjAnLCAnLXRuJywgJzgnLCAnLW1hJywgJzIwMCcsICctbWV0YWxfYmluZGluZycsICctaW1hZScsICc8aW5maWxlLm1hZT4nLCAnLW9tYWUnLCAnPG91dGZpbGUubWFlPic=

> <r_epik_Ionization_Penalty>
0.101157

> <r_epik_Ionization_Penalty_Charging>
0.00181365

> <r_epik_Ionization_Penalty_Neutral>
0.0993436

> <r_epik_State_Penalty>
0.0871902

> <r_epik_Charging_Adjusted_Penalty>
0.0890039

> <i_epik_Tot_Q>
1

> <i_epik_Tot_abs_Q>
1

> <r_epik_Metal_State_Penalty>
9.24346e-05

> <b_epik_Metal_Only>
0

> <s_lp_Force_Field>
OPLS_2005

> <r_lp_Energy>
25.8314

> <b_lp_Chiralities_Consistent>
1

> <s_lp_Variant>
AV-unprocessed.smi:1868-3

> <Gold.Version>
5.8.1

> <Gold.Id.Protein>
6NUR|6NUR_protein|mol2

> <Gold.PLP.Fitness>
50.3891

> <Gold.PLP.PLP>
-39.9557

> <Gold.PLP.part.hbond>
-3.7427

> <Gold.PLP.part.metal>
0.0000

> <Gold.PLP.part.buried>
-3.7232

> <Gold.PLP.part.nonpolar>
-33.0251

> <Gold.PLP.part.repulsive>
0.2213

> <Gold.PLP.ligand.clash>
0.0000

> <Gold.PLP.ligand.torsion>
0.7920

> <Gold.PLP.Chemscore.Hbond>
4.0000

> <Gold.PLP.Chemscore.CHOScore>
0.0000

> <Gold.PLP.Chemscore.Metal>
0.0000

> <Gold.Chemscore.Hbonds>
donor molecule, donor type, donor heavy atom, donor atom, acceptor molecule, acceptor atom, score
      L1  H    13    32       P1 10171  1.00
      L1  H    15    47       P1 10175  1.01
      P1  H  7954  7966       L1    13  0.36

> <Gold.PLP.Chemscore.Internal.Correction>
0.0173

> <Gold.Rescore>
     Score         DG    S(hbond)    S(metal)    S(lipo)     H(rot)  DE(clash)    DE(int)     intcor
     17.37     -19.41       2.85        0.00      79.81       1.92       1.50       0.54       ----

> <Gold.Chemscore.Fitness>
17.3712

> <Gold.Chemscore.DG>
-19.4089

> <Gold.Chemscore.ZeroCoef>
-5.4800

> <Gold.Chemscore.Hbond>
2.8461

> <Gold.Chemscore.Metal>
0.0000

> <Gold.Chemscore.Lipo>
79.8091

> <Gold.Chemscore.Internal_Hbond>
0.0000

> <Gold.Chemscore.DEClash>
1.4986

> <Gold.Chemscore.DEInternal>
0.5391

> <Gold.Chemscore.Rot>
1.9198

> <Gold.Chemscore.Internal.Correction>
   9.000000E+99

> <Gold.Chemscore.Hbonds>
donor molecule, donor type, donor heavy atom, donor atom, acceptor molecule, acceptor atom, score
      L1  H    13    32       P1 10171  1.00
      L1  H    15    47       P1 10175  0.46
      P1  H  7954  7966       L1    13  0.32

> <Gold.Chemscore.Hbond.Weighted>
-9.5059

> <Gold.Chemscore.Metal.Weighted>
-0.0000

> <Gold.Chemscore.Lipo.Weighted>
-9.3377

> <Gold.Chemscore.Internal_Hbond.Weighted>
0.0000

> <Gold.Chemscore.DEClash.Weighted>
1.4986

> <Gold.Chemscore.DEInternal.Weighted>
0.5391

> <Gold.Chemscore.Rot.Weighted>
4.9147

> <Gold.Chemscore.Internal.Correction.Weighted>
   9.000000E+99

> <Gold.Protein.RotatedTorsions>
[ 6907 6896 6895 6894 ] final  154.07 input  -60.11 | X-H torsion
[ 7974 7965 7964 7962 ] final  130.10 input  175.53 | X-H torsion
[ 8008 7997 7996 7995 ] final  136.33 input   59.86 | X-H torsion
[ 10167 10162 10161 10158 ] final  168.79 input  -65.29 | X-H torsion
[ 10718 10713 10712 10709 ] final  -53.65 input   66.30 | X-H torsion
[ 10763 10752 10751 10750 ] final   42.70 input  -60.55 | X-H torsion
[ 11005 11000 10999 10996 ] final  100.10 input  -57.11 | X-H torsion

> <Gold.Protein.ActiveResidues>
 VAL166  LYS551  ARG553  GLY616  TRP617  ASP618  TYR619  PRO620  LYS621  CYS622 
 ASP623  PHE694  ASN695  SER759  ASP760  ASP761  ALA762  ILE779  LEU786  VAL792 
 PHE793  MET794  SER795  GLU796  ALA797  LYS798  CYS799  TRP800  GLU811  SER814 

> <Gold.Protein.RotatedAtoms>
  152.0637  133.4074  159.4428 H   0  0  0  0  0  0  0  0  0  0  0  0  # atno 6907 bound_to 6896
  150.6865  134.3171  159.4780 H   0  0  0  0  0  0  0  0  0  0  0  0  # atno 6908 bound_to 6896
  152.0995  134.9351  160.0620 H   0  0  0  0  0  0  0  0  0  0  0  0  # atno 6909 bound_to 6896
  145.0216  139.4127  143.5195 H   0  0  0  0  0  0  0  0  0  0  0  0  # atno 7974 bound_to 7965
  156.3004  140.2448  156.3728 H   0  0  0  0  0  0  0  0  0  0  0  0  # atno 8008 bound_to 7997
  154.8773  140.0414  157.1780 H   0  0  0  0  0  0  0  0  0  0  0  0  # atno 8009 bound_to 7997
  154.8733  140.2938  155.5472 H   0  0  0  0  0  0  0  0  0  0  0  0  # atno 8010 bound_to 7997
  139.4976  144.3777  151.9656 H   0  0  0  0  0  0  0  0  0  0  0  0  # atno 10167 bound_to 10162
  156.1517  130.4151  149.9935 H   0  0  0  0  0  0  0  0  0  0  0  0  # atno 10718 bound_to 10713
  152.9877  135.6124  154.2991 H   0  0  0  0  0  0  0  0  0  0  0  0  # atno 10763 bound_to 10752
  154.2713  135.2779  155.2739 H   0  0  0  0  0  0  0  0  0  0  0  0  # atno 10764 bound_to 10752
  154.5120  135.5838  153.6669 H   0  0  0  0  0  0  0  0  0  0  0  0  # atno 10765 bound_to 10752
  139.8771  134.9125  156.4705 H   0  0  0  0  0  0  0  0  0  0  0  0  # atno 11005 bound_to 11000
  146.3486  139.9716  142.8705 LP  0  0  0  0  0  0  0  0  0  0  0  0  # atno 17320 bound_to 7965
  145.1889  140.9802  143.4223 LP  0  0  0  0  0  0  0  0  0  0  0  0  # atno 17321 bound_to 7965
  140.3213  144.3424  150.6009 LP  0  0  0  0  0  0  0  0  0  0  0  0  # atno 17342 bound_to 10162
  140.5720  143.2180  151.7582 LP  0  0  0  0  0  0  0  0  0  0  0  0  # atno 17343 bound_to 10162
  156.7791  130.9214  151.3645 LP  0  0  0  0  0  0  0  0  0  0  0  0  # atno 17370 bound_to 10713
  157.6662  130.9009  149.9937 LP  0  0  0  0  0  0  0  0  0  0  0  0  # atno 17371 bound_to 10713
  140.8799  133.7925  155.9455 LP  0  0  0  0  0  0  0  0  0  0  0  0  # atno 17394 bound_to 11000
  140.8865  134.2548  157.5117 LP  0  0  0  0  0  0  0  0  0  0  0  0  # atno 17395 bound_to 11000

$$$$
