AV-unprocessed.smi:1634|AV-procd|sdf|6537|dock3
  -GOLD-   22720 7223D 1   1.00000     0.00000
 Structure written by MMmdl.
 38 38  0  0  0  0  0  0  0  0  1 V2000
  152.5700  143.7097  161.9656 C   0  0  0  0  0  0  0  0  0  0  0  0
  152.9491  142.3760  161.3027 C   0  0  0  0  0  0  0  0  0  0  0  0
  154.0167  141.6418  162.1273 C   0  0  0  0  0  0  0  0  0  0  0  0
  153.4163  142.5801  159.8525 C   0  0  0  0  0  0  0  0  0  0  0  0
  152.2827  142.8121  159.0227 O   0  0  0  0  0  0  0  0  0  0  0  0
  151.8597  141.7015  158.2363 C   0  0  1  0  0  0  0  0  0  0  0  0
  151.7578  140.4842  159.1676 C   0  0  0  0  0  0  0  0  0  0  0  0
  150.5108  142.0068  157.5650 C   0  0  0  0  0  0  0  0  0  0  0  0
  149.8020  142.9059  158.0164 O   0  0  0  0  0  0  0  0  0  0  0  0
  150.2254  141.2570  156.4819 N   0  0  0  0  0  0  0  0  0  0  0  0
  149.1038  141.2841  155.6353 C   0  0  0  0  0  0  0  0  0  0  0  0
  147.9534  141.9657  155.8789 C   0  0  0  0  0  0  0  0  0  0  0  0
  146.8329  141.9445  154.9535 C   0  0  0  0  0  0  0  0  0  0  0  0
  145.5306  142.6656  155.2651 C   0  0  0  0  0  0  0  0  0  0  0  0
  144.5181  141.8065  155.3897 F   0  0  0  0  0  0  0  0  0  0  0  0
  145.6294  143.3628  156.3972 F   0  0  0  0  0  0  0  0  0  0  0  0
  145.2366  143.5138  154.2807 F   0  0  0  0  0  0  0  0  0  0  0  0
  146.9804  141.1901  153.8490 C   0  0  0  0  0  0  0  0  0  0  0  0
  148.1597  140.4887  153.5894 N   0  0  0  0  0  0  0  0  0  0  0  0
  149.2353  140.4810  154.4080 C   0  0  0  0  0  0  0  0  0  0  0  0
  150.2377  139.8326  154.1095 O   0  0  0  0  0  0  0  0  0  0  0  0
  148.1968  139.9539  152.7336 H   0  0  0  0  0  0  0  0  0  0  0  0
  153.4225  144.3886  162.0065 H   0  0  0  0  0  0  0  0  0  0  0  0
  152.2179  143.5553  162.9858 H   0  0  0  0  0  0  0  0  0  0  0  0
  151.7720  144.2116  161.4177 H   0  0  0  0  0  0  0  0  0  0  0  0
  152.0594  141.7452  161.2823 H   0  0  0  0  0  0  0  0  0  0  0  0
  154.9396  142.2199  162.1855 H   0  0  0  0  0  0  0  0  0  0  0  0
  154.2574  140.6738  161.6868 H   0  0  0  0  0  0  0  0  0  0  0  0
  153.6717  141.4620  163.1458 H   0  0  0  0  0  0  0  0  0  0  0  0
  154.1219  143.4104  159.8072 H   0  0  0  0  0  0  0  0  0  0  0  0
  153.9404  141.6901  159.5010 H   0  0  0  0  0  0  0  0  0  0  0  0
  152.6144  141.4878  157.4769 H   0  0  0  0  0  0  0  0  0  0  0  0
  151.4113  139.6016  158.6288 H   0  0  0  0  0  0  0  0  0  0  0  0
  151.0687  140.6660  159.9933 H   0  0  0  0  0  0  0  0  0  0  0  0
  152.7304  140.2455  159.5984 H   0  0  0  0  0  0  0  0  0  0  0  0
  150.9350  140.5923  156.2087 H   0  0  0  0  0  0  0  0  0  0  0  0
  147.8265  142.5461  156.7770 H   0  0  0  0  0  0  0  0  0  0  0  0
  146.2201  141.0629  153.0924 H   0  0  0  0  0  0  0  0  0  0  0  0
  1  2  1  0  0  0  0
  1 23  1  0  0  0  0
  1 24  1  0  0  0  0
  1 25  1  0  0  0  0
  2  3  1  0  0  0  0
  2  4  1  0  0  0  0
  2 26  1  0  0  0  0
  3 27  1  0  0  0  0
  3 28  1  0  0  0  0
  3 29  1  0  0  0  0
  4  5  1  0  0  0  0
  4 30  1  0  0  0  0
  4 31  1  0  0  0  0
  5  6  1  0  0  0  0
  6  7  1  0  0  0  0
  6  8  1  0  0  0  0
  6 32  1  0  0  0  0
  7 33  1  0  0  0  0
  7 34  1  0  0  0  0
  7 35  1  0  0  0  0
  8  9  2  0  0  0  0
  8 10  1  0  0  0  0
 10 11  1  0  0  0  0
 10 36  1  0  0  0  0
 11 20  1  0  0  0  0
 11 12  2  0  0  0  0
 12 13  1  0  0  0  0
 12 37  1  0  0  0  0
 13 14  1  0  0  0  0
 13 18  2  0  0  0  0
 14 15  1  0  0  0  0
 14 16  1  0  0  0  0
 14 17  1  0  0  0  0
 18 19  1  0  0  0  0
 18 38  1  0  0  0  0
 19 22  1  0  0  0  0
 19 20  1  0  0  0  0
 20 21  2  0  0  0  0
M  END
> <s_m_source_file>
AV-unprocessed.smi

> <i_m_source_file_index>
1634

> <i_lp_mmshare_version>
43012

> <i_f3d_flags>
0

> <s_epik_input>
W0NIM11bQ0hdKFtDSDNdKVtDSDJdT1tDQEhdKFtDSDNdKUMoPU8pW05IXWMxW2NIXWMoQyhGKShGKUYpW2NIXVtuSF1jMT1P

> <s_epik_cmdline>
J2VwaWtfcHl0aG9uJywgJy1waCcsICc3LjAnLCAnLXRuJywgJzgnLCAnLW1hJywgJzIwMCcsICctbWV0YWxfYmluZGluZycsICctaW1hZScsICc8aW5maWxlLm1hZT4nLCAnLW9tYWUnLCAnPG91dGZpbGUubWFlPic=

> <r_lp_tautomer_probability>
0.999

> <r_epik_Ionization_Penalty>
0.00884964

> <r_epik_Ionization_Penalty_Charging>
0.00884955

> <r_epik_Ionization_Penalty_Neutral>
9.33956e-08

> <r_epik_State_Penalty>
0.00669049

> <r_epik_Charging_Adjusted_Penalty>
0.01554

> <i_epik_Tot_Q>
0

> <i_epik_Tot_abs_Q>
0

> <r_epik_Metal_State_Penalty>
0.320763

> <b_epik_Metal_Only>
0

> <s_lp_Force_Field>
OPLS_2005

> <r_lp_Energy>
19.8034

> <b_lp_Chiralities_Consistent>
1

> <s_lp_Variant>
AV-unprocessed.smi:1634-2

> <Gold.Version>
5.8.1

> <Gold.Id.Protein>
6NUR|6NUR_protein|mol2

> <Gold.PLP.Fitness>
45.1554

> <Gold.PLP.PLP>
-40.7815

> <Gold.PLP.part.hbond>
-2.0000

> <Gold.PLP.part.metal>
0.0000

> <Gold.PLP.part.buried>
-4.2940

> <Gold.PLP.part.nonpolar>
-35.1346

> <Gold.PLP.part.repulsive>
1.6849

> <Gold.PLP.ligand.clash>
0.0000

> <Gold.PLP.ligand.torsion>
1.1505

> <Gold.PLP.Chemscore.Hbond>
1.6344

> <Gold.PLP.Chemscore.CHOScore>
0.5407

> <Gold.PLP.Chemscore.Metal>
0.0000

> <Gold.Chemscore.Hbonds>
donor molecule, donor type, donor heavy atom, donor atom, acceptor molecule, acceptor atom, score
      L1  H    19    22       P1  7957  0.48
      P1  H  7989  7998       L1    21  1.00
      L1  C    18    38       P1 10175  0.67

> <Gold.PLP.Chemscore.Internal.Correction>
0.1496

> <Gold.Rescore>
     Score         DG    S(hbond)    S(metal)    S(lipo)     H(rot)  DE(clash)    DE(int)     intcor
     13.72     -16.38       1.75        0.00      82.25       1.79       0.62       2.04       ----

> <Gold.Chemscore.Fitness>
13.7240

> <Gold.Chemscore.DG>
-16.3760

> <Gold.Chemscore.ZeroCoef>
-5.4800

> <Gold.Chemscore.Hbond>
1.7510

> <Gold.Chemscore.Metal>
0.0000

> <Gold.Chemscore.Lipo>
82.2482

> <Gold.Chemscore.Internal_Hbond>
0.0000

> <Gold.Chemscore.DEClash>
0.6152

> <Gold.Chemscore.DEInternal>
2.0367

> <Gold.Chemscore.Rot>
1.7873

> <Gold.Chemscore.Internal.Correction>
   9.000000E+99

> <Gold.Chemscore.Hbonds>
donor molecule, donor type, donor heavy atom, donor atom, acceptor molecule, acceptor atom, score
      L1  H    19    22       P1  7957  0.48
      P1  H  7989  7998       L1    21  0.83

> <Gold.Chemscore.Hbond.Weighted>
-5.8484

> <Gold.Chemscore.Metal.Weighted>
-0.0000

> <Gold.Chemscore.Lipo.Weighted>
-9.6230

> <Gold.Chemscore.Internal_Hbond.Weighted>
0.0000

> <Gold.Chemscore.DEClash.Weighted>
0.6152

> <Gold.Chemscore.DEInternal.Weighted>
2.0367

> <Gold.Chemscore.Rot.Weighted>
4.5755

> <Gold.Chemscore.Internal.Correction.Weighted>
   9.000000E+99

> <Gold.Protein.RotatedTorsions>
[ 6907 6896 6895 6894 ] final  164.27 input  -60.11 | X-H torsion
[ 7974 7965 7964 7962 ] final  -41.95 input  175.53 | X-H torsion
[ 8008 7997 7996 7995 ] final    3.59 input   59.86 | X-H torsion
[ 10167 10162 10161 10158 ] final  -38.17 input  -65.29 | X-H torsion
[ 10718 10713 10712 10709 ] final  -15.27 input   66.30 | X-H torsion
[ 10763 10752 10751 10750 ] final  -75.54 input  -60.55 | X-H torsion
[ 11005 11000 10999 10996 ] final -148.75 input  -57.11 | X-H torsion

> <Gold.Protein.ActiveResidues>
 VAL166  LYS551  ARG553  GLY616  TRP617  ASP618  TYR619  PRO620  LYS621  CYS622 
 ASP623  PHE694  ASN695  SER759  ASP760  ASP761  ALA762  ILE779  LEU786  VAL792 
 PHE793  MET794  SER795  GLU796  ALA797  LYS798  CYS799  TRP800  GLU811  SER814 

> <Gold.Protein.RotatedAtoms>
  151.9124  133.3564  159.3867 H   0  0  0  0  0  0  0  0  0  0  0  0  # atno 6907 bound_to 6896
  150.7055  134.4718  159.5438 H   0  0  0  0  0  0  0  0  0  0  0  0  # atno 6908 bound_to 6896
  152.2327  134.8306  160.0522 H   0  0  0  0  0  0  0  0  0  0  0  0  # atno 6909 bound_to 6896
  146.0162  140.6905  142.9200 H   0  0  0  0  0  0  0  0  0  0  0  0  # atno 7974 bound_to 7965
  154.7055  140.2682  155.6678 H   0  0  0  0  0  0  0  0  0  0  0  0  # atno 8008 bound_to 7997
  156.2779  140.2763  156.1604 H   0  0  0  0  0  0  0  0  0  0  0  0  # atno 8009 bound_to 7997
  155.0706  140.0372  157.2597 H   0  0  0  0  0  0  0  0  0  0  0  0  # atno 8010 bound_to 7997
  140.7099  143.3294  151.2603 H   0  0  0  0  0  0  0  0  0  0  0  0  # atno 10167 bound_to 10162
  156.6041  130.4832  149.6228 H   0  0  0  0  0  0  0  0  0  0  0  0  # atno 10718 bound_to 10713
  154.4879  135.5828  153.6437 H   0  0  0  0  0  0  0  0  0  0  0  0  # atno 10763 bound_to 10752
  152.9857  135.6105  154.3163 H   0  0  0  0  0  0  0  0  0  0  0  0  # atno 10764 bound_to 10752
  154.3060  135.2846  155.2568 H   0  0  0  0  0  0  0  0  0  0  0  0  # atno 10765 bound_to 10752
  140.7579  134.3331  157.5109 H   0  0  0  0  0  0  0  0  0  0  0  0  # atno 11005 bound_to 11000
  144.6972  140.3486  143.7186 LP  0  0  0  0  0  0  0  0  0  0  0  0  # atno 17320 bound_to 7965
  145.7265  139.1724  143.2455 LP  0  0  0  0  0  0  0  0  0  0  0  0  # atno 17321 bound_to 7965
  139.6772  143.9917  152.2788 LP  0  0  0  0  0  0  0  0  0  0  0  0  # atno 17342 bound_to 10162
  139.9535  144.6605  150.8149 LP  0  0  0  0  0  0  0  0  0  0  0  0  # atno 17343 bound_to 10162
  156.2445  130.6870  151.1587 LP  0  0  0  0  0  0  0  0  0  0  0  0  # atno 17370 bound_to 10713
  157.7272  131.0641  150.5877 LP  0  0  0  0  0  0  0  0  0  0  0  0  # atno 17371 bound_to 10713
  139.8776  134.9184  156.3201 LP  0  0  0  0  0  0  0  0  0  0  0  0  # atno 17394 bound_to 11000
  140.9690  133.7339  156.0508 LP  0  0  0  0  0  0  0  0  0  0  0  0  # atno 17395 bound_to 11000

$$$$
