AV-unprocessed.smi:1914|AV-procd|sdf|7758|dock10
  -GOLD-   22720 9503D 1   1.00000     0.00000
 Structure written by MMmdl.
 44 45  0  0  0  0  0  0  0  0  2 V2000
  144.2579  141.2042  156.7354 C   0  0  0  0  0  0  0  0  0  0  0  0
  145.3618  142.2755  156.7792 C   0  0  2  0  0  0  0  0  0  0  0  0
  144.8660  143.6624  156.3298 C   0  0  0  0  0  0  0  0  0  0  0  0
  144.6683  143.7171  154.8083 C   0  0  0  0  0  0  0  0  0  0  0  0
  145.9396  143.2677  154.0709 C   0  0  0  0  0  0  0  0  0  0  0  0
  146.3594  141.9104  154.5052 N   0  3  1  0  0  0  0  0  0  0  0  0
  147.4929  141.3895  153.7004 C   0  0  0  0  0  0  0  0  0  0  0  0
  148.1603  140.1667  154.3502 C   0  0  0  0  0  0  0  0  0  0  0  0
  149.5238  140.4848  154.7501 N   0  0  0  0  0  0  0  0  0  0  0  0
  149.8868  140.8275  155.9940 C   0  0  0  0  0  0  0  0  0  0  0  0
  149.0899  140.8964  156.9305 O   0  0  0  0  0  0  0  0  0  0  0  0
  151.3806  141.1122  156.2074 C   0  0  0  0  0  0  0  0  0  0  0  0
  151.6918  141.6030  157.5603 N   0  0  0  0  0  0  0  0  0  0  0  0
  151.1204  142.8320  157.9461 C   0  0  0  0  0  0  0  0  0  0  0  0
  151.3393  143.3673  159.1575 C   0  0  0  0  0  0  0  0  0  0  0  0
  152.1881  142.6489  160.0780 C   0  0  0  0  0  0  0  0  0  0  0  0
  152.7420  141.4739  159.7184 C   0  0  0  0  0  0  0  0  0  0  0  0
  152.5054  140.8852  158.3952 C   0  0  0  0  0  0  0  0  0  0  0  0
  153.0070  139.8125  158.0569 O   0  0  0  0  0  0  0  0  0  0  0  0
  146.6086  141.8587  155.9719 C   0  0  0  0  0  0  0  0  0  0  0  0
  143.9082  141.0196  155.7196 H   0  0  0  0  0  0  0  0  0  0  0  0
  143.3966  141.5042  157.3329 H   0  0  0  0  0  0  0  0  0  0  0  0
  144.6183  140.2561  157.1355 H   0  0  0  0  0  0  0  0  0  0  0  0
  145.6627  142.3627  157.8241 H   0  0  0  0  0  0  0  0  0  0  0  0
  143.9399  143.9238  156.8428 H   0  0  0  0  0  0  0  0  0  0  0  0
  145.5987  144.4167  156.6204 H   0  0  0  0  0  0  0  0  0  0  0  0
  143.8300  143.0833  154.5171 H   0  0  0  0  0  0  0  0  0  0  0  0
  144.4029  144.7306  154.5057 H   0  0  0  0  0  0  0  0  0  0  0  0
  145.7453  143.2705  152.9978 H   0  0  0  0  0  0  0  0  0  0  0  0
  146.7508  143.9759  154.2483 H   0  0  0  0  0  0  0  0  0  0  0  0
  147.1265  141.0872  152.7181 H   0  0  0  0  0  0  0  0  0  0  0  0
  148.2195  142.1849  153.5268 H   0  0  0  0  0  0  0  0  0  0  0  0
  147.6088  139.8389  155.2316 H   0  0  0  0  0  0  0  0  0  0  0  0
  148.1742  139.3313  153.6482 H   0  0  0  0  0  0  0  0  0  0  0  0
  150.2377  140.4488  154.0366 H   0  0  0  0  0  0  0  0  0  0  0  0
  151.9321  140.1954  155.9948 H   0  0  0  0  0  0  0  0  0  0  0  0
  151.7269  141.8318  155.4629 H   0  0  0  0  0  0  0  0  0  0  0  0
  150.5040  143.3093  157.1982 H   0  0  0  0  0  0  0  0  0  0  0  0
  150.8954  144.3123  159.4343 H   0  0  0  0  0  0  0  0  0  0  0  0
  152.3816  143.0568  161.0592 H   0  0  0  0  0  0  0  0  0  0  0  0
  153.3756  140.9510  160.4199 H   0  0  0  0  0  0  0  0  0  0  0  0
  147.4408  142.5217  156.2140 H   0  0  0  0  0  0  0  0  0  0  0  0
  146.9143  140.8583  156.2759 H   0  0  0  0  0  0  0  0  0  0  0  0
  145.5745  141.3025  154.3186 H   0  0  0  0  0  0  0  0  0  0  0  0
  1  2  1  0  0  0  0
  1 21  1  0  0  0  0
  1 22  1  0  0  0  0
  1 23  1  0  0  0  0
  2 20  1  0  0  0  0
  2  3  1  0  0  0  0
  2 24  1  0  0  0  0
  3  4  1  0  0  0  0
  3 25  1  0  0  0  0
  3 26  1  0  0  0  0
  4  5  1  0  0  0  0
  4 27  1  0  0  0  0
  4 28  1  0  0  0  0
  5  6  1  0  0  0  0
  5 29  1  0  0  0  0
  5 30  1  0  0  0  0
  6  7  1  0  0  0  0
  6 20  1  0  0  0  0
  6 44  1  0  0  0  0
  7  8  1  0  0  0  0
  7 31  1  0  0  0  0
  7 32  1  0  0  0  0
  8  9  1  0  0  0  0
  8 33  1  0  0  0  0
  8 34  1  0  0  0  0
  9 10  1  0  0  0  0
  9 35  1  0  0  0  0
 10 11  2  0  0  0  0
 10 12  1  0  0  0  0
 12 13  1  0  0  0  0
 12 36  1  0  0  0  0
 12 37  1  0  0  0  0
 13 18  1  0  0  0  0
 13 14  1  0  0  0  0
 14 15  2  0  0  0  0
 14 38  1  0  0  0  0
 15 16  1  0  0  0  0
 15 39  1  0  0  0  0
 16 17  2  0  0  0  0
 16 40  1  0  0  0  0
 17 18  1  0  0  0  0
 17 41  1  0  0  0  0
 18 19  2  0  0  0  0
 20 42  1  0  0  0  0
 20 43  1  0  0  0  0
M  CHG  1   6   1
M  END
> <s_m_source_file>
AV-unprocessed.smi

> <i_m_source_file_index>
1914

> <i_lp_mmshare_version>
43012

> <i_f3d_flags>
0

> <s_epik_input>
W0NIM11bQ0BASF0xW0NIMl1bQ0gyXVtDSDJdTihbQ0gyXTEpW0NIMl1bQ0gyXVtOSF1DKD1PKVtDSDJdbjJbY0hdW2NIXVtjSF1bY0hdYzI9Tw==

> <s_epik_cmdline>
J2VwaWtfcHl0aG9uJywgJy1waCcsICc3LjAnLCAnLXRuJywgJzgnLCAnLW1hJywgJzIwMCcsICctbWV0YWxfYmluZGluZycsICctaW1hZScsICc8aW5maWxlLm1hZT4nLCAnLW9tYWUnLCAnPG91dGZpbGUubWFlPic=

> <r_lp_tautomer_probability>
1

> <r_epik_Ionization_Penalty>
0.00192477

> <r_epik_Ionization_Penalty_Charging>
0.00192469

> <r_epik_Ionization_Penalty_Neutral>
8.16761e-08

> <r_epik_State_Penalty>
0.00131115

> <r_epik_Charging_Adjusted_Penalty>
0.00323584

> <i_epik_Tot_Q>
1

> <i_epik_Tot_abs_Q>
1

> <r_epik_Metal_State_Penalty>
-0

> <b_epik_Metal_Only>
0

> <s_lp_Force_Field>
OPLS_2005

> <r_lp_Energy>
28.3213

> <b_lp_Chiralities_Consistent>
1

> <s_lp_Variant>
AV-unprocessed.smi:1914-3

> <Gold.Version>
5.8.1

> <Gold.Id.Protein>
6NUR|6NUR_protein|mol2

> <Gold.PLP.Fitness>
40.3057

> <Gold.PLP.PLP>
-35.7216

> <Gold.PLP.part.hbond>
-1.0000

> <Gold.PLP.part.metal>
0.0000

> <Gold.PLP.part.buried>
-7.4471

> <Gold.PLP.part.nonpolar>
-27.2226

> <Gold.PLP.part.repulsive>
0.2833

> <Gold.PLP.ligand.clash>
0.0000

> <Gold.PLP.ligand.torsion>
0.7229

> <Gold.PLP.Chemscore.Hbond>
1.0000

> <Gold.PLP.Chemscore.CHOScore>
1.0000

> <Gold.PLP.Chemscore.Metal>
0.0000

> <Gold.Chemscore.Hbonds>
donor molecule, donor type, donor heavy atom, donor atom, acceptor molecule, acceptor atom, score
      P1  H  7997  8009       L1    19  1.00
      L1  C    14    38       P1  8028  0.75

> <Gold.PLP.Chemscore.Internal.Correction>
0.0299

> <Gold.Rescore>
     Score         DG    S(hbond)    S(metal)    S(lipo)     H(rot)  DE(clash)    DE(int)     intcor
     11.65     -13.40       0.97        0.00      80.63       1.86       0.08       1.67       ----

> <Gold.Chemscore.Fitness>
11.6501

> <Gold.Chemscore.DG>
-13.4047

> <Gold.Chemscore.ZeroCoef>
-5.4800

> <Gold.Chemscore.Hbond>
0.9729

> <Gold.Chemscore.Metal>
0.0000

> <Gold.Chemscore.Lipo>
80.6272

> <Gold.Chemscore.Internal_Hbond>
0.0000

> <Gold.Chemscore.DEClash>
0.0817

> <Gold.Chemscore.DEInternal>
1.6728

> <Gold.Chemscore.Rot>
1.8586

> <Gold.Chemscore.Internal.Correction>
   9.000000E+99

> <Gold.Chemscore.Hbonds>
donor molecule, donor type, donor heavy atom, donor atom, acceptor molecule, acceptor atom, score
      P1  H  7997  8009       L1    19  0.82

> <Gold.Chemscore.Hbond.Weighted>
-3.2494

> <Gold.Chemscore.Metal.Weighted>
-0.0000

> <Gold.Chemscore.Lipo.Weighted>
-9.4334

> <Gold.Chemscore.Internal_Hbond.Weighted>
0.0000

> <Gold.Chemscore.DEClash.Weighted>
0.0817

> <Gold.Chemscore.DEInternal.Weighted>
1.6728

> <Gold.Chemscore.Rot.Weighted>
4.7581

> <Gold.Chemscore.Internal.Correction.Weighted>
   9.000000E+99

> <Gold.Protein.RotatedTorsions>
[ 6907 6896 6895 6894 ] final   73.13 input  -60.11 | X-H torsion
[ 7974 7965 7964 7962 ] final -164.09 input  175.53 | X-H torsion
[ 8008 7997 7996 7995 ] final  163.64 input   59.86 | X-H torsion
[ 10167 10162 10161 10158 ] final -169.22 input  -65.29 | X-H torsion
[ 10718 10713 10712 10709 ] final  103.76 input   66.30 | X-H torsion
[ 10763 10752 10751 10750 ] final  109.47 input  -60.55 | X-H torsion
[ 11005 11000 10999 10996 ] final  -11.79 input  -57.11 | X-H torsion

> <Gold.Protein.ActiveResidues>
 VAL166  LYS551  ARG553  GLY616  TRP617  ASP618  TYR619  PRO620  LYS621  CYS622 
 ASP623  PHE694  ASN695  SER759  ASP760  ASP761  ALA762  ILE779  LEU786  VAL792 
 PHE793  MET794  SER795  GLU796  ALA797  LYS798  CYS799  TRP800  GLU811  SER814 

> <Gold.Protein.RotatedAtoms>
  152.4906  134.4467  159.9561 H   0  0  0  0  0  0  0  0  0  0  0  0  # atno 6907 bound_to 6896
  151.4455  133.3625  159.2795 H   0  0  0  0  0  0  0  0  0  0  0  0  # atno 6908 bound_to 6896
  150.9057  134.8496  159.7451 H   0  0  0  0  0  0  0  0  0  0  0  0  # atno 6909 bound_to 6896
  144.7307  140.3012  143.6204 H   0  0  0  0  0  0  0  0  0  0  0  0  # atno 7974 bound_to 7965
  156.1941  140.1718  156.8033 H   0  0  0  0  0  0  0  0  0  0  0  0  # atno 8008 bound_to 7997
  154.5508  140.0718  156.8696 H   0  0  0  0  0  0  0  0  0  0  0  0  # atno 8009 bound_to 7997
  155.3032  140.3363  155.4249 H   0  0  0  0  0  0  0  0  0  0  0  0  # atno 8010 bound_to 7997
  139.5936  144.1160  152.1663 H   0  0  0  0  0  0  0  0  0  0  0  0  # atno 10167 bound_to 10162
  157.6762  131.0787  150.5604 H   0  0  0  0  0  0  0  0  0  0  0  0  # atno 10718 bound_to 10713
  153.4352  135.3779  155.2194 H   0  0  0  0  0  0  0  0  0  0  0  0  # atno 10763 bound_to 10752
  154.8752  135.3849  154.4220 H   0  0  0  0  0  0  0  0  0  0  0  0  # atno 10764 bound_to 10752
  153.4758  135.7087  153.6030 H   0  0  0  0  0  0  0  0  0  0  0  0  # atno 10765 bound_to 10752
  140.7589  133.8531  155.9108 H   0  0  0  0  0  0  0  0  0  0  0  0  # atno 11005 bound_to 11000
  145.7758  139.1873  143.2186 LP  0  0  0  0  0  0  0  0  0  0  0  0  # atno 17320 bound_to 7965
  146.0874  140.7695  142.9612 LP  0  0  0  0  0  0  0  0  0  0  0  0  # atno 17321 bound_to 7965
  140.0740  144.5755  150.7170 LP  0  0  0  0  0  0  0  0  0  0  0  0  # atno 17342 bound_to 10162
  140.7193  143.2574  151.4330 LP  0  0  0  0  0  0  0  0  0  0  0  0  # atno 17343 bound_to 10162
  156.5907  130.4328  149.5938 LP  0  0  0  0  0  0  0  0  0  0  0  0  # atno 17370 bound_to 10713
  156.2586  130.6949  151.1710 LP  0  0  0  0  0  0  0  0  0  0  0  0  # atno 17371 bound_to 10713
  140.9681  134.1567  157.4599 LP  0  0  0  0  0  0  0  0  0  0  0  0  # atno 17394 bound_to 11000
  139.8774  134.9969  156.5818 LP  0  0  0  0  0  0  0  0  0  0  0  0  # atno 17395 bound_to 11000

$$$$
