AV-unprocessed.smi:3082|AV-procd|sdf|11742|dock5
  -GOLD-   2272017133D 1   1.00000     0.00000
 Structure written by MMmdl.
 28 29  0  0  0  0  0  0  0  0  2 V2000
  152.1523  142.7307  158.5703 C   0  0  0  0  0  0  0  0  0  0  0  0
  151.5119  141.7636  157.6168 C   0  0  0  0  0  0  0  0  0  0  0  0
  151.5129  140.3415  157.6807 C   0  0  0  0  0  0  0  0  0  0  0  0
  150.8561  139.7825  156.6779 N   0  0  0  0  0  0  0  0  0  0  0  0
  150.4109  140.8232  155.9393 N   0  0  0  0  0  0  0  0  0  0  0  0
  149.6328  140.5880  154.7322 C   0  0  2  0  0  0  0  0  0  0  0  0
  148.2419  141.2487  154.8153 C   0  0  0  0  0  0  0  0  0  0  0  0
  147.4391  140.9635  153.5368 C   0  0  0  0  0  0  0  0  0  0  0  0
  147.3564  139.4518  153.2662 C   0  0  0  0  0  0  0  0  0  0  0  0
  148.7090  138.8566  153.1996 N   0  3  0  0  0  0  0  0  0  0  0  0
  149.4992  139.0798  154.4303 C   0  0  0  0  0  0  0  0  0  0  0  0
  150.7924  142.0305  156.4866 C   0  0  0  0  0  0  0  0  0  0  0  0
  152.6441  142.2193  159.3982 H   0  0  0  0  0  0  0  0  0  0  0  0
  151.4202  143.4121  159.0039 H   0  0  0  0  0  0  0  0  0  0  0  0
  152.9086  143.3409  158.0760 H   0  0  0  0  0  0  0  0  0  0  0  0
  151.9703  139.7025  158.4216 H   0  0  0  0  0  0  0  0  0  0  0  0
  150.1768  141.0503  153.9064 H   0  0  0  0  0  0  0  0  0  0  0  0
  147.6920  140.8684  155.6774 H   0  0  0  0  0  0  0  0  0  0  0  0
  148.3425  142.3250  154.9604 H   0  0  0  0  0  0  0  0  0  0  0  0
  146.4363  141.3823  153.6252 H   0  0  0  0  0  0  0  0  0  0  0  0
  147.9098  141.4633  152.6891 H   0  0  0  0  0  0  0  0  0  0  0  0
  146.7841  138.9560  154.0515 H   0  0  0  0  0  0  0  0  0  0  0  0
  146.8381  139.2633  152.3257 H   0  0  0  0  0  0  0  0  0  0  0  0
  148.6226  137.8626  153.0422 H   0  0  0  0  0  0  0  0  0  0  0  0
  150.4838  138.6289  154.3033 H   0  0  0  0  0  0  0  0  0  0  0  0
  149.0141  138.5579  155.2566 H   0  0  0  0  0  0  0  0  0  0  0  0
  150.5247  142.9727  156.0311 H   0  0  0  0  0  0  0  0  0  0  0  0
  149.2035  139.2683  152.4213 H   0  0  0  0  0  0  0  0  0  0  0  0
  1  2  1  0  0  0  0
  1 13  1  0  0  0  0
  1 14  1  0  0  0  0
  1 15  1  0  0  0  0
  2 12  2  0  0  0  0
  2  3  1  0  0  0  0
  3  4  2  0  0  0  0
  3 16  1  0  0  0  0
  4  5  1  0  0  0  0
  5  6  1  0  0  0  0
  5 12  1  0  0  0  0
  6 11  1  0  0  0  0
  6  7  1  0  0  0  0
  6 17  1  0  0  0  0
  7  8  1  0  0  0  0
  7 18  1  0  0  0  0
  7 19  1  0  0  0  0
  8  9  1  0  0  0  0
  8 20  1  0  0  0  0
  8 21  1  0  0  0  0
  9 10  1  0  0  0  0
  9 22  1  0  0  0  0
  9 23  1  0  0  0  0
 10 11  1  0  0  0  0
 10 24  1  0  0  0  0
 10 28  1  0  0  0  0
 11 25  1  0  0  0  0
 11 26  1  0  0  0  0
 12 27  1  0  0  0  0
M  CHG  1  10   1
M  END
> <s_m_source_file>
AV-unprocessed.smi

> <i_m_source_file_index>
3082

> <i_lp_mmshare_version>
43012

> <i_f3d_flags>
0

> <s_epik_input>
W0NIM11jMVtjSF1ubihbY0hdMSlbQ0BASF0yW0NIMl1bQ0gyXVtDSDJdW05IXVtDSDJdMg==

> <s_epik_cmdline>
J2VwaWtfcHl0aG9uJywgJy1waCcsICc3LjAnLCAnLXRuJywgJzgnLCAnLW1hJywgJzIwMCcsICctbWV0YWxfYmluZGluZycsICctaW1hZScsICc8aW5maWxlLm1hZT4nLCAnLW9tYWUnLCAnPG91dGZpbGUubWFlPic=

> <r_lp_tautomer_probability>
1

> <r_epik_Ionization_Penalty>
0.000667973

> <r_epik_Ionization_Penalty_Charging>
0.000651447

> <r_epik_Ionization_Penalty_Neutral>
1.65255e-05

> <r_epik_State_Penalty>
-0

> <r_epik_Charging_Adjusted_Penalty>
0.000651447

> <i_epik_Tot_Q>
1

> <i_epik_Tot_abs_Q>
1

> <r_epik_Metal_State_Penalty>
-0

> <b_epik_Metal_Only>
0

> <s_lp_Force_Field>
OPLS_2005

> <r_lp_Energy>
15.6496

> <b_lp_Chiralities_Consistent>
1

> <s_lp_Variant>
AV-unprocessed.smi:3082-1

> <Gold.Version>
5.8.1

> <Gold.Id.Protein>
6NUR|6NUR_protein|mol2

> <Gold.PLP.Fitness>
37.8319

> <Gold.PLP.PLP>
-26.0074

> <Gold.PLP.part.hbond>
-1.9484

> <Gold.PLP.part.metal>
0.0000

> <Gold.PLP.part.buried>
-2.7470

> <Gold.PLP.part.nonpolar>
-22.1885

> <Gold.PLP.part.repulsive>
0.0838

> <Gold.PLP.ligand.clash>
0.0000

> <Gold.PLP.ligand.torsion>
0.0116

> <Gold.PLP.Chemscore.Hbond>
2.9433

> <Gold.PLP.Chemscore.CHOScore>
1.0000

> <Gold.PLP.Chemscore.Metal>
0.0000

> <Gold.Chemscore.Hbonds>
donor molecule, donor type, donor heavy atom, donor atom, acceptor molecule, acceptor atom, score
      L1  H    10    24       P1  7948  1.92
      L1  H    10    28       P1  7957  0.99
      L1  C    12    27       P1  8028  1.00

> <Gold.PLP.Chemscore.Internal.Correction>
0.0179

> <Gold.Rescore>
     Score         DG    S(hbond)    S(metal)    S(lipo)     H(rot)  DE(clash)    DE(int)     intcor
     16.92     -16.95       1.93        0.00      64.82       1.00       0.01       0.01       ----

> <Gold.Chemscore.Fitness>
16.9228

> <Gold.Chemscore.DG>
-16.9466

> <Gold.Chemscore.ZeroCoef>
-5.4800

> <Gold.Chemscore.Hbond>
1.9289

> <Gold.Chemscore.Metal>
0.0000

> <Gold.Chemscore.Lipo>
64.8220

> <Gold.Chemscore.Internal_Hbond>
0.0000

> <Gold.Chemscore.DEClash>
0.0149

> <Gold.Chemscore.DEInternal>
0.0089

> <Gold.Chemscore.Rot>
1.0000

> <Gold.Chemscore.Internal.Correction>
   9.000000E+99

> <Gold.Chemscore.Hbonds>
donor molecule, donor type, donor heavy atom, donor atom, acceptor molecule, acceptor atom, score
      L1  H    10    24       P1  7948  0.87
      L1  H    10    28       P1  7957  0.92

> <Gold.Chemscore.Hbond.Weighted>
-6.4424

> <Gold.Chemscore.Metal.Weighted>
-0.0000

> <Gold.Chemscore.Lipo.Weighted>
-7.5842

> <Gold.Chemscore.Internal_Hbond.Weighted>
0.0000

> <Gold.Chemscore.DEClash.Weighted>
0.0149

> <Gold.Chemscore.DEInternal.Weighted>
0.0089

> <Gold.Chemscore.Rot.Weighted>
2.5600

> <Gold.Chemscore.Internal.Correction.Weighted>
   9.000000E+99

> <Gold.Protein.RotatedTorsions>
[ 6907 6896 6895 6894 ] final   64.86 input  -60.11 | X-H torsion
[ 7974 7965 7964 7962 ] final    9.40 input  175.53 | X-H torsion
[ 8008 7997 7996 7995 ] final -110.47 input   59.86 | X-H torsion
[ 10167 10162 10161 10158 ] final   38.48 input  -65.29 | X-H torsion
[ 10718 10713 10712 10709 ] final -109.83 input   66.30 | X-H torsion
[ 10763 10752 10751 10750 ] final  -30.79 input  -60.55 | X-H torsion
[ 11005 11000 10999 10996 ] final  -13.94 input  -57.11 | X-H torsion

> <Gold.Protein.ActiveResidues>
 VAL166  LYS551  ARG553  GLY616  TRP617  ASP618  TYR619  PRO620  LYS621  CYS622 
 ASP623  PHE694  ASN695  SER759  ASP760  ASP761  ALA762  ILE779  LEU786  VAL792 
 PHE793  MET794  SER795  GLU796  ALA797  LYS798  CYS799  TRP800  GLU811  SER814 

> <Gold.Protein.RotatedAtoms>
  152.4363  134.5679  159.9912 H   0  0  0  0  0  0  0  0  0  0  0  0  # atno 6907 bound_to 6896
  151.5788  133.3374  159.3012 H   0  0  0  0  0  0  0  0  0  0  0  0  # atno 6908 bound_to 6896
  150.8262  134.7529  159.6879 H   0  0  0  0  0  0  0  0  0  0  0  0  # atno 6909 bound_to 6896
  146.2404  139.9789  142.8438 H   0  0  0  0  0  0  0  0  0  0  0  0  # atno 7974 bound_to 7965
  154.9751  140.0397  157.2252 H   0  0  0  0  0  0  0  0  0  0  0  0  # atno 8008 bound_to 7997
  154.7765  140.2811  155.6074 H   0  0  0  0  0  0  0  0  0  0  0  0  # atno 8009 bound_to 7997
  156.2929  140.2600  156.2581 H   0  0  0  0  0  0  0  0  0  0  0  0  # atno 8010 bound_to 7997
  140.3932  144.1824  150.6131 H   0  0  0  0  0  0  0  0  0  0  0  0  # atno 10167 bound_to 10162
  156.0558  130.5784  150.8154 H   0  0  0  0  0  0  0  0  0  0  0  0  # atno 10718 bound_to 10713
  153.7867  135.6901  153.4878 H   0  0  0  0  0  0  0  0  0  0  0  0  # atno 10763 bound_to 10752
  153.1776  135.4519  154.9984 H   0  0  0  0  0  0  0  0  0  0  0  0  # atno 10764 bound_to 10752
  154.8060  135.3357  154.7366 H   0  0  0  0  0  0  0  0  0  0  0  0  # atno 10765 bound_to 10752
  140.7812  133.8361  155.9294 H   0  0  0  0  0  0  0  0  0  0  0  0  # atno 11005 bound_to 11000
  145.1610  140.9673  143.4377 LP  0  0  0  0  0  0  0  0  0  0  0  0  # atno 17320 bound_to 7965
  145.0116  139.3505  143.6117 LP  0  0  0  0  0  0  0  0  0  0  0  0  # atno 17321 bound_to 7965
  140.4817  143.2377  151.8945 LP  0  0  0  0  0  0  0  0  0  0  0  0  # atno 17342 bound_to 10162
  139.4788  144.5262  151.8732 LP  0  0  0  0  0  0  0  0  0  0  0  0  # atno 17343 bound_to 10162
  157.5526  131.0944  150.9673 LP  0  0  0  0  0  0  0  0  0  0  0  0  # atno 17370 bound_to 10713
  156.9929  130.5570  149.5305 LP  0  0  0  0  0  0  0  0  0  0  0  0  # atno 17371 bound_to 10713
  140.9480  134.1815  157.4749 LP  0  0  0  0  0  0  0  0  0  0  0  0  # atno 17394 bound_to 11000
  139.8742  134.9898  156.5474 LP  0  0  0  0  0  0  0  0  0  0  0  0  # atno 17395 bound_to 11000

$$$$
