AV-unprocessed.smi:2818|AV-procd|sdf|10849|dock1
  -GOLD-   2272015293D 1   1.00000     0.00000
 Structure written by MMmdl.
 25 26  0  0  0  0  0  0  0  0  2 V2000
  152.0538  137.4935  154.1398 O   0  0  0  0  0  0  0  0  0  0  0  0
  152.2911  138.5848  154.7044 C   0  0  0  0  0  0  0  0  0  0  0  0
  153.4530  138.9550  154.9848 O   0  5  0  0  0  0  0  0  0  0  0  0
  151.1381  139.4827  155.0589 C   0  0  0  0  0  0  0  0  0  0  0  0
  149.8425  139.2397  154.5501 C   0  0  0  0  0  0  0  0  0  0  0  0
  148.7987  140.1110  154.9142 C   0  0  0  0  0  0  0  0  0  0  0  0
  148.9683  141.1732  155.7285 N   0  0  0  0  0  0  0  0  0  0  0  0
  150.2093  141.4102  156.2208 C   0  0  0  0  0  0  0  0  0  0  0  0
  150.4048  142.4922  157.0565 O   0  0  0  0  0  0  0  0  0  0  0  0
  151.6659  142.6639  157.7059 C   0  0  1  0  0  0  0  0  0  0  0  0
  151.9002  144.1248  158.0683 C   0  0  0  0  0  0  0  0  0  0  0  0
  151.2416  144.2326  159.4351 C   0  0  0  0  0  0  0  0  0  0  0  0
  151.6035  143.0118  160.0576 O   0  0  0  0  0  0  0  0  0  0  0  0
  151.5889  141.9774  159.0782 C   0  0  0  0  0  0  0  0  0  0  0  0
  151.3168  140.5954  155.9121 C   0  0  0  0  0  0  0  0  0  0  0  0
  149.6441  138.4050  153.8936 H   0  0  0  0  0  0  0  0  0  0  0  0
  147.7986  139.9497  154.5403 H   0  0  0  0  0  0  0  0  0  0  0  0
  152.4829  142.2432  157.1174 H   0  0  0  0  0  0  0  0  0  0  0  0
  152.9701  144.3157  158.1613 H   0  0  0  0  0  0  0  0  0  0  0  0
  151.4941  144.8324  157.3449 H   0  0  0  0  0  0  0  0  0  0  0  0
  151.5882  145.0946  160.0055 H   0  0  0  0  0  0  0  0  0  0  0  0
  150.1558  144.2901  159.3422 H   0  0  0  0  0  0  0  0  0  0  0  0
  150.6811  141.3812  159.1785 H   0  0  0  0  0  0  0  0  0  0  0  0
  152.4396  141.3157  159.2440 H   0  0  0  0  0  0  0  0  0  0  0  0
  152.2857  140.8275  156.3299 H   0  0  0  0  0  0  0  0  0  0  0  0
  1  2  2  0  0  0  0
  2  3  1  0  0  0  0
  2  4  1  0  0  0  0
  4 15  1  0  0  0  0
  4  5  2  0  0  0  0
  5  6  1  0  0  0  0
  5 16  1  0  0  0  0
  6  7  2  0  0  0  0
  6 17  1  0  0  0  0
  7  8  1  0  0  0  0
  8  9  1  0  0  0  0
  8 15  2  0  0  0  0
  9 10  1  0  0  0  0
 10 14  1  0  0  0  0
 10 11  1  0  0  0  0
 10 18  1  0  0  0  0
 11 12  1  0  0  0  0
 11 19  1  0  0  0  0
 11 20  1  0  0  0  0
 12 13  1  0  0  0  0
 12 21  1  0  0  0  0
 12 22  1  0  0  0  0
 13 14  1  0  0  0  0
 14 23  1  0  0  0  0
 14 24  1  0  0  0  0
 15 25  1  0  0  0  0
M  CHG  1   3  -1
M  END
> <s_m_source_file>
AV-unprocessed.smi

> <i_m_source_file_index>
2818

> <i_lp_mmshare_version>
43012

> <i_f3d_flags>
0

> <s_epik_input>
Tz1DKFtPSF0pYzFbY0hdW2NIXW5jKFtjSF0xKU9bQ0BASF0yW0NIMl1bQ0gyXU9bQ0gyXTI=

> <s_epik_cmdline>
J2VwaWtfcHl0aG9uJywgJy1waCcsICc3LjAnLCAnLXRuJywgJzgnLCAnLW1hJywgJzIwMCcsICctbWV0YWxfYmluZGluZycsICctaW1hZScsICc8aW5maWxlLm1hZT4nLCAnLW9tYWUnLCAnPG91dGZpbGUubWFlPic=

> <r_lp_tautomer_probability>
1

> <r_epik_Ionization_Penalty>
0.000147497

> <r_epik_Ionization_Penalty_Charging>
0.00010957

> <r_epik_Ionization_Penalty_Neutral>
3.79274e-05

> <r_epik_State_Penalty>
-0

> <r_epik_Charging_Adjusted_Penalty>
0.00010957

> <i_epik_Tot_Q>
-1

> <i_epik_Tot_abs_Q>
1

> <r_epik_Metal_State_Penalty>
-0

> <b_epik_Metal_Only>
0

> <s_lp_Force_Field>
OPLS_2005

> <r_lp_Energy>
14.7061

> <b_lp_Chiralities_Consistent>
1

> <s_lp_Variant>
AV-unprocessed.smi:2818-2

> <Gold.Version>
5.8.1

> <Gold.Id.Protein>
6NUR|6NUR_protein|mol2

> <Gold.PLP.Fitness>
41.9060

> <Gold.PLP.PLP>
-31.4169

> <Gold.PLP.part.hbond>
-2.0000

> <Gold.PLP.part.metal>
0.0000

> <Gold.PLP.part.buried>
-5.5090

> <Gold.PLP.part.nonpolar>
-24.9797

> <Gold.PLP.part.repulsive>
0.9992

> <Gold.PLP.ligand.clash>
0.0000

> <Gold.PLP.ligand.torsion>
0.4585

> <Gold.PLP.Chemscore.Hbond>
3.7920

> <Gold.PLP.Chemscore.CHOScore>
0.0000

> <Gold.PLP.Chemscore.Metal>
0.0000

> <Gold.Chemscore.Hbonds>
donor molecule, donor type, donor heavy atom, donor atom, acceptor molecule, acceptor atom, score
      P1  H  7997  8009       L1     3  2.00
      P1  H 10752 10763       L1     1  1.79

> <Gold.PLP.Chemscore.Internal.Correction>
0.0301

> <Gold.Rescore>
     Score         DG    S(hbond)    S(metal)    S(lipo)     H(rot)  DE(clash)    DE(int)     intcor
     15.92     -16.41       1.85        0.00      68.66       1.28       0.16       0.34       ----

> <Gold.Chemscore.Fitness>
15.9158

> <Gold.Chemscore.DG>
-16.4134

> <Gold.Chemscore.ZeroCoef>
-5.4800

> <Gold.Chemscore.Hbond>
1.8486

> <Gold.Chemscore.Metal>
0.0000

> <Gold.Chemscore.Lipo>
68.6585

> <Gold.Chemscore.Internal_Hbond>
0.0000

> <Gold.Chemscore.DEClash>
0.1562

> <Gold.Chemscore.DEInternal>
0.3414

> <Gold.Chemscore.Rot>
1.2788

> <Gold.Chemscore.Internal.Correction>
   9.000000E+99

> <Gold.Chemscore.Hbonds>
donor molecule, donor type, donor heavy atom, donor atom, acceptor molecule, acceptor atom, score
      P1  H  7997  8009       L1     3  0.97
      P1  H 10752 10763       L1     1  0.83

> <Gold.Chemscore.Hbond.Weighted>
-6.1742

> <Gold.Chemscore.Metal.Weighted>
-0.0000

> <Gold.Chemscore.Lipo.Weighted>
-8.0330

> <Gold.Chemscore.Internal_Hbond.Weighted>
0.0000

> <Gold.Chemscore.DEClash.Weighted>
0.1562

> <Gold.Chemscore.DEInternal.Weighted>
0.3414

> <Gold.Chemscore.Rot.Weighted>
3.2738

> <Gold.Chemscore.Internal.Correction.Weighted>
   9.000000E+99

> <Gold.Protein.RotatedTorsions>
[ 6907 6896 6895 6894 ] final   81.98 input  -60.11 | X-H torsion
[ 7974 7965 7964 7962 ] final  -31.99 input  175.53 | X-H torsion
[ 8008 7997 7996 7995 ] final -125.60 input   59.86 | X-H torsion
[ 10167 10162 10161 10158 ] final   -6.42 input  -65.29 | X-H torsion
[ 10718 10713 10712 10709 ] final -126.05 input   66.30 | X-H torsion
[ 10763 10752 10751 10750 ] final   31.97 input  -60.55 | X-H torsion
[ 11005 11000 10999 10996 ] final  116.04 input  -57.11 | X-H torsion

> <Gold.Protein.ActiveResidues>
 VAL166  LYS551  ARG553  GLY616  TRP617  ASP618  TYR619  PRO620  LYS621  CYS622 
 ASP623  PHE694  ASN695  SER759  ASP760  ASP761  ALA762  ILE779  LEU786  VAL792 
 PHE793  MET794  SER795  GLU796  ALA797  LYS798  CYS799  TRP800  GLU811  SER814 

> <Gold.Protein.RotatedAtoms>
  152.5285  134.3121  159.9116 H   0  0  0  0  0  0  0  0  0  0  0  0  # atno 6907 bound_to 6896
  151.3070  133.4090  159.2651 H   0  0  0  0  0  0  0  0  0  0  0  0  # atno 6908 bound_to 6896
  151.0070  134.9384  159.8043 H   0  0  0  0  0  0  0  0  0  0  0  0  # atno 6909 bound_to 6896
  146.1025  140.5736  142.8814 H   0  0  0  0  0  0  0  0  0  0  0  0  # atno 7974 bound_to 7965
  155.2159  140.0420  157.2941 H   0  0  0  0  0  0  0  0  0  0  0  0  # atno 8008 bound_to 7997
  154.5981  140.2444  155.7801 H   0  0  0  0  0  0  0  0  0  0  0  0  # atno 8009 bound_to 7997
  156.2303  140.2940  156.0181 H   0  0  0  0  0  0  0  0  0  0  0  0  # atno 8010 bound_to 7997
  140.6996  143.6196  150.8625 H   0  0  0  0  0  0  0  0  0  0  0  0  # atno 10167 bound_to 10162
  156.1731  130.6681  151.0206 H   0  0  0  0  0  0  0  0  0  0  0  0  # atno 10718 bound_to 10713
  153.0287  135.6425  154.1281 H   0  0  0  0  0  0  0  0  0  0  0  0  # atno 10763 bound_to 10752
  154.1007  135.2860  155.3254 H   0  0  0  0  0  0  0  0  0  0  0  0  # atno 10764 bound_to 10752
  154.6401  135.5463  153.7842 H   0  0  0  0  0  0  0  0  0  0  0  0  # atno 10765 bound_to 10752
  139.9028  134.9592  156.7137 H   0  0  0  0  0  0  0  0  0  0  0  0  # atno 11005 bound_to 11000
  144.7444  140.5029  143.6846 LP  0  0  0  0  0  0  0  0  0  0  0  0  # atno 17320 bound_to 7965
  145.5826  139.1490  143.3227 LP  0  0  0  0  0  0  0  0  0  0  0  0  # atno 17321 bound_to 7965
  139.9917  143.5839  152.2907 LP  0  0  0  0  0  0  0  0  0  0  0  0  # atno 17342 bound_to 10162
  139.6497  144.7660  151.2172 LP  0  0  0  0  0  0  0  0  0  0  0  0  # atno 17343 bound_to 10162
  157.6816  131.0836  150.7354 LP  0  0  0  0  0  0  0  0  0  0  0  0  # atno 17370 bound_to 10713
  156.7412  130.4739  149.5477 LP  0  0  0  0  0  0  0  0  0  0  0  0  # atno 17371 bound_to 10713
  140.7055  133.9269  155.8051 LP  0  0  0  0  0  0  0  0  0  0  0  0  # atno 17394 bound_to 11000
  141.0339  134.0716  157.3981 LP  0  0  0  0  0  0  0  0  0  0  0  0  # atno 17395 bound_to 11000

$$$$
