AV-unprocessed.smi:580|AV-procd|sdf|2989|dock2
  -GOLD-   2262023493D 1   1.00000     0.00000
 Structure written by MMmdl.
 36 37  0  0  0  0  0  0  0  0  1 V2000
  151.9003  131.7039  157.2089 C   0  0  0  0  0  0  0  0  0  0  0  0
  151.1215  132.7188  156.4444 C   0  0  0  0  0  0  0  0  0  0  0  0
  150.2723  132.6303  155.3773 C   0  0  0  0  0  0  0  0  0  0  0  0
  149.8845  133.9799  155.1644 C   0  0  0  0  0  0  0  0  0  0  0  0
  148.9856  134.3237  154.1224 N   0  0  0  0  0  0  0  0  0  0  0  0
  147.9027  133.6384  153.7171 C   0  0  0  0  0  0  0  0  0  0  0  0
  147.5154  132.5740  154.2005 O   0  0  0  0  0  0  0  0  0  0  0  0
  147.2856  134.2583  152.7003 N   0  0  0  0  0  0  0  0  0  0  0  0
  146.0915  133.7689  152.0175 C   0  0  2  0  0  0  0  0  0  0  0  0
  146.3634  132.3986  151.3658 C   0  0  0  0  0  0  0  0  0  0  0  0
  145.1415  131.8972  150.5793 C   0  0  0  0  0  0  0  0  0  0  0  0
  144.6862  132.9203  149.5211 C   0  0  1  0  0  0  0  0  0  0  0  0
  143.4599  132.4174  148.7462 C   0  0  0  0  0  0  0  0  0  0  0  0
  144.4163  134.2875  150.1784 C   0  0  0  0  0  0  0  0  0  0  0  0
  145.6407  134.7920  150.9593 C   0  0  0  0  0  0  0  0  0  0  0  0
  150.4475  134.8167  156.0225 N   0  0  0  0  0  0  0  0  0  0  0  0
  151.2435  134.0129  156.8470 O   0  0  0  0  0  0  0  0  0  0  0  0
  151.5756  130.6939  156.9584 H   0  0  0  0  0  0  0  0  0  0  0  0
  151.7704  131.8435  158.2823 H   0  0  0  0  0  0  0  0  0  0  0  0
  152.9638  131.7836  156.9831 H   0  0  0  0  0  0  0  0  0  0  0  0
  149.9772  131.7417  154.8393 H   0  0  0  0  0  0  0  0  0  0  0  0
  149.1930  135.1793  153.6288 H   0  0  0  0  0  0  0  0  0  0  0  0
  147.6734  135.1288  152.3674 H   0  0  0  0  0  0  0  0  0  0  0  0
  145.2846  133.6596  152.7452 H   0  0  0  0  0  0  0  0  0  0  0  0
  147.2200  132.4717  150.6943 H   0  0  0  0  0  0  0  0  0  0  0  0
  146.6309  131.6654  152.1276 H   0  0  0  0  0  0  0  0  0  0  0  0
  145.3825  130.9476  150.1004 H   0  0  0  0  0  0  0  0  0  0  0  0
  144.3241  131.6938  151.2725 H   0  0  0  0  0  0  0  0  0  0  0  0
  145.4986  133.0467  148.8040 H   0  0  0  0  0  0  0  0  0  0  0  0
  142.6068  132.2664  149.4084 H   0  0  0  0  0  0  0  0  0  0  0  0
  143.6700  131.4683  148.2523 H   0  0  0  0  0  0  0  0  0  0  0  0
  143.1623  133.1305  147.9767 H   0  0  0  0  0  0  0  0  0  0  0  0
  144.1420  135.0197  149.4179 H   0  0  0  0  0  0  0  0  0  0  0  0
  143.5631  134.2104  150.8537 H   0  0  0  0  0  0  0  0  0  0  0  0
  145.4037  135.7435  151.4370 H   0  0  0  0  0  0  0  0  0  0  0  0
  146.4568  134.9905  150.2626 H   0  0  0  0  0  0  0  0  0  0  0  0
  1  2  1  0  0  0  0
  1 18  1  0  0  0  0
  1 19  1  0  0  0  0
  1 20  1  0  0  0  0
  2 17  1  0  0  0  0
  2  3  2  0  0  0  0
  3  4  1  0  0  0  0
  3 21  1  0  0  0  0
  4  5  1  0  0  0  0
  4 16  2  0  0  0  0
  5  6  1  0  0  0  0
  5 22  1  0  0  0  0
  6  7  2  0  0  0  0
  6  8  1  0  0  0  0
  8  9  1  0  0  0  0
  8 23  1  0  0  0  0
  9 15  1  0  0  0  0
  9 10  1  0  0  0  0
  9 24  1  0  0  0  0
 10 11  1  0  0  0  0
 10 25  1  0  0  0  0
 10 26  1  0  0  0  0
 11 12  1  0  0  0  0
 11 27  1  0  0  0  0
 11 28  1  0  0  0  0
 12 13  1  0  0  0  0
 12 14  1  0  0  0  0
 12 29  1  0  0  0  0
 13 30  1  0  0  0  0
 13 31  1  0  0  0  0
 13 32  1  0  0  0  0
 14 15  1  0  0  0  0
 14 33  1  0  0  0  0
 14 34  1  0  0  0  0
 15 35  1  0  0  0  0
 15 36  1  0  0  0  0
 16 17  1  0  0  0  0
M  END
> <s_m_source_file>
AV-unprocessed.smi

> <i_m_source_file_index>
580

> <i_lp_mmshare_version>
43012

> <i_f3d_flags>
0

> <s_epik_input>
W0NIM11jMVtjSF1jKG5vMSlbTkhdQyg9TylbTkhdW0NAQEhdMltDSDJdW0NIMl1bQ0BASF0oW0NIM10pW0NIMl1bQ0gyXTI=

> <s_epik_cmdline>
J2VwaWtfcHl0aG9uJywgJy1waCcsICc3LjAnLCAnLXRuJywgJzgnLCAnLW1hJywgJzIwMCcsICctbWV0YWxfYmluZGluZycsICctaW1hZScsICc8aW5maWxlLm1hZT4nLCAnLW9tYWUnLCAnPG91dGZpbGUubWFlPic=

> <r_lp_tautomer_probability>
1

> <r_epik_Ionization_Penalty>
2.357e-05

> <r_epik_Ionization_Penalty_Charging>
0

> <r_epik_Ionization_Penalty_Neutral>
2.357e-05

> <r_epik_State_Penalty>
-0

> <r_epik_Charging_Adjusted_Penalty>
0

> <i_epik_Tot_Q>
0

> <i_epik_Tot_abs_Q>
0

> <r_epik_Metal_State_Penalty>
-0

> <b_epik_Metal_Only>
0

> <s_lp_Force_Field>
OPLS_2005

> <r_lp_Energy>
6.68451

> <b_lp_Chiralities_Consistent>
1

> <s_lp_Variant>
AV-unprocessed.smi:580-1

> <Gold.Version>
5.8.1

> <Gold.Id.Protein>
6NUR|6NUR_protein|mol2

> <Gold.PLP.Fitness>
35.5474

> <Gold.PLP.PLP>
-30.4057

> <Gold.PLP.part.hbond>
-2.7295

> <Gold.PLP.part.metal>
0.0000

> <Gold.PLP.part.buried>
-0.8491

> <Gold.PLP.part.nonpolar>
-26.7196

> <Gold.PLP.part.repulsive>
0.0851

> <Gold.PLP.ligand.clash>
0.0000

> <Gold.PLP.ligand.torsion>
0.2986

> <Gold.PLP.Chemscore.Hbond>
1.9120

> <Gold.PLP.Chemscore.CHOScore>
0.0000

> <Gold.PLP.Chemscore.Metal>
0.0000

> <Gold.Chemscore.Hbonds>
donor molecule, donor type, donor heavy atom, donor atom, acceptor molecule, acceptor atom, score
      L1  H     5    22       P1  7948  0.90
      L1  H     8    23       P1  7948  1.00
      P1  H  6896  6909       L1    17  0.02

> <Gold.PLP.Chemscore.Internal.Correction>
0.0029

> <Gold.Rescore>
     Score         DG    S(hbond)    S(metal)    S(lipo)     H(rot)  DE(clash)    DE(int)     intcor
     14.89     -15.40       1.41        0.00      66.34       1.00       0.08       0.44       ----

> <Gold.Chemscore.Fitness>
14.8857

> <Gold.Chemscore.DG>
-15.4012

> <Gold.Chemscore.ZeroCoef>
-5.4800

> <Gold.Chemscore.Hbond>
1.4128

> <Gold.Chemscore.Metal>
0.0000

> <Gold.Chemscore.Lipo>
66.3447

> <Gold.Chemscore.Internal_Hbond>
0.0000

> <Gold.Chemscore.DEClash>
0.0775

> <Gold.Chemscore.DEInternal>
0.4379

> <Gold.Chemscore.Rot>
1.0000

> <Gold.Chemscore.Internal.Correction>
   9.000000E+99

> <Gold.Chemscore.Hbonds>
donor molecule, donor type, donor heavy atom, donor atom, acceptor molecule, acceptor atom, score
      L1  H     5    22       P1  7948  0.24
      L1  H     8    23       P1  7948  0.97
      P1  H  6896  6909       L1    17  0.01

> <Gold.Chemscore.Hbond.Weighted>
-4.7188

> <Gold.Chemscore.Metal.Weighted>
-0.0000

> <Gold.Chemscore.Lipo.Weighted>
-7.7623

> <Gold.Chemscore.Internal_Hbond.Weighted>
0.0000

> <Gold.Chemscore.DEClash.Weighted>
0.0775

> <Gold.Chemscore.DEInternal.Weighted>
0.4379

> <Gold.Chemscore.Rot.Weighted>
2.5600

> <Gold.Chemscore.Internal.Correction.Weighted>
   9.000000E+99

> <Gold.Protein.RotatedTorsions>
[ 6907 6896 6895 6894 ] final  -14.81 input  -60.11 | X-H torsion
[ 7974 7965 7964 7962 ] final -147.16 input  175.53 | X-H torsion
[ 8008 7997 7996 7995 ] final  146.89 input   59.86 | X-H torsion
[ 10167 10162 10161 10158 ] final  -86.18 input  -65.29 | X-H torsion
[ 10718 10713 10712 10709 ] final  114.28 input   66.30 | X-H torsion
[ 10763 10752 10751 10750 ] final  140.59 input  -60.55 | X-H torsion
[ 11005 11000 10999 10996 ] final   78.41 input  -57.11 | X-H torsion

> <Gold.Protein.ActiveResidues>
 VAL166  LYS551  ARG553  GLY616  TRP617  ASP618  TYR619  PRO620  LYS621  CYS622 
 ASP623  PHE694  ASN695  SER759  ASP760  ASP761  ALA762  ILE779  LEU786  VAL792 
 PHE793  MET794  SER795  GLU796  ALA797  LYS798  CYS799  TRP800  GLU811  SER814 

> <Gold.Protein.RotatedAtoms>
  151.3336  135.0847  159.9346 H   0  0  0  0  0  0  0  0  0  0  0  0  # atno 6907 bound_to 6896
  152.5228  133.9518  159.7685 H   0  0  0  0  0  0  0  0  0  0  0  0  # atno 6908 bound_to 6896
  150.9861  133.6143  159.2745 H   0  0  0  0  0  0  0  0  0  0  0  0  # atno 6909 bound_to 6896
  144.8111  140.5362  143.5641 H   0  0  0  0  0  0  0  0  0  0  0  0  # atno 7974 bound_to 7965
  156.2841  140.2170  156.5450 H   0  0  0  0  0  0  0  0  0  0  0  0  # atno 8008 bound_to 7997
  154.7338  140.0493  157.0773 H   0  0  0  0  0  0  0  0  0  0  0  0  # atno 8009 bound_to 7997
  155.0319  140.3136  155.4758 H   0  0  0  0  0  0  0  0  0  0  0  0  # atno 8010 bound_to 7997
  140.3966  143.2681  151.9197 H   0  0  0  0  0  0  0  0  0  0  0  0  # atno 10167 bound_to 10162
  157.6290  131.0996  150.7162 H   0  0  0  0  0  0  0  0  0  0  0  0  # atno 10718 bound_to 10713
  153.9252  135.2996  155.3447 H   0  0  0  0  0  0  0  0  0  0  0  0  # atno 10763 bound_to 10752
  154.7555  135.4960  153.9369 H   0  0  0  0  0  0  0  0  0  0  0  0  # atno 10764 bound_to 10752
  153.1120  135.6761  153.9587 H   0  0  0  0  0  0  0  0  0  0  0  0  # atno 10765 bound_to 10752
  139.9214  134.7761  156.1646 H   0  0  0  0  0  0  0  0  0  0  0  0  # atno 11005 bound_to 11000
  145.5321  139.1475  143.3494 LP  0  0  0  0  0  0  0  0  0  0  0  0  # atno 17320 bound_to 7965
  146.2410  140.5462  142.8934 LP  0  0  0  0  0  0  0  0  0  0  0  0  # atno 17321 bound_to 7965
  139.4786  144.5675  151.8141 LP  0  0  0  0  0  0  0  0  0  0  0  0  # atno 17342 bound_to 10162
  140.4784  144.1485  150.5928 LP  0  0  0  0  0  0  0  0  0  0  0  0  # atno 17343 bound_to 10162
  156.7505  130.4767  149.5458 LP  0  0  0  0  0  0  0  0  0  0  0  0  # atno 17370 bound_to 10713
  156.1481  130.6291  151.0559 LP  0  0  0  0  0  0  0  0  0  0  0  0  # atno 17371 bound_to 10713
  141.0737  133.6785  156.2192 LP  0  0  0  0  0  0  0  0  0  0  0  0  # atno 17394 bound_to 11000
  140.6464  134.5112  157.5574 LP  0  0  0  0  0  0  0  0  0  0  0  0  # atno 17395 bound_to 11000

$$$$
