AV-unprocessed.smi:3187|AV-procd|sdf|12176|dock5
  -GOLD-   2272018 13D 1   1.00000     0.00000
 Structure written by MMmdl.
 41 42  0  0  0  0  0  0  0  0  2 V2000
  151.4524  145.5932  159.7322 C   0  0  0  0  0  0  0  0  0  0  0  0
  151.9119  144.2483  160.2717 C   0  0  0  0  0  0  0  0  0  0  0  0
  152.2592  144.1326  161.5677 C   0  0  0  0  0  0  0  0  0  0  0  0
  152.8030  142.8698  162.1945 C   0  0  0  0  0  0  0  0  0  0  0  0
  153.3814  141.9349  161.1300 C   0  0  0  0  0  0  0  0  0  0  0  0
  152.3928  141.7235  159.9714 C   0  0  2  0  0  0  0  0  0  0  0  0
  152.9831  140.7070  158.9746 C   0  0  0  0  0  0  0  0  0  0  0  0
  151.9847  143.0642  159.2853 C   0  0  1  0  0  0  0  0  0  0  0  0
  150.6722  142.8701  158.4802 C   0  0  0  0  0  0  0  0  0  0  0  0
  150.8470  143.0971  157.0314 N   0  3  0  0  0  0  0  0  0  0  0  0
  150.8879  141.8611  156.2244 C   0  0  0  0  0  0  0  0  0  0  0  0
  149.6332  141.0018  156.4449 C   0  0  0  0  0  0  0  0  0  0  0  0
  148.5583  141.3620  155.5397 N   0  0  0  0  0  0  0  0  0  0  0  0
  148.5498  141.2332  154.1569 C   0  0  0  0  0  0  0  0  0  0  0  0
  147.3308  141.7060  153.7257 C   0  0  0  0  0  0  0  0  0  0  0  0
  146.5781  142.1267  154.8198 N   0  0  0  0  0  0  0  0  0  0  0  0
  147.3669  141.8871  155.8588 C   0  0  0  0  0  0  0  0  0  0  0  0
  152.0062  145.8527  158.8297 H   0  0  0  0  0  0  0  0  0  0  0  0
  151.6176  146.3886  160.4599 H   0  0  0  0  0  0  0  0  0  0  0  0
  150.3869  145.5786  159.5048 H   0  0  0  0  0  0  0  0  0  0  0  0
  152.1711  144.9831  162.2284 H   0  0  0  0  0  0  0  0  0  0  0  0
  153.5789  143.1330  162.9142 H   0  0  0  0  0  0  0  0  0  0  0  0
  152.0021  142.3805  162.7499 H   0  0  0  0  0  0  0  0  0  0  0  0
  154.3116  142.3549  160.7441 H   0  0  0  0  0  0  0  0  0  0  0  0
  153.6421  140.9810  161.5903 H   0  0  0  0  0  0  0  0  0  0  0  0
  151.4946  141.2786  160.4032 H   0  0  0  0  0  0  0  0  0  0  0  0
  153.8835  141.0973  158.4991 H   0  0  0  0  0  0  0  0  0  0  0  0
  152.2819  140.4406  158.1856 H   0  0  0  0  0  0  0  0  0  0  0  0
  153.2558  139.7798  159.4796 H   0  0  0  0  0  0  0  0  0  0  0  0
  152.7806  143.3214  158.5843 H   0  0  0  0  0  0  0  0  0  0  0  0
  150.2870  141.8585  158.5969 H   0  0  0  0  0  0  0  0  0  0  0  0
  149.9003  143.5377  158.8660 H   0  0  0  0  0  0  0  0  0  0  0  0
  150.0807  143.6683  156.7045 H   0  0  0  0  0  0  0  0  0  0  0  0
  150.9902  142.1164  155.1687 H   0  0  0  0  0  0  0  0  0  0  0  0
  151.7733  141.2879  156.5014 H   0  0  0  0  0  0  0  0  0  0  0  0
  149.8704  139.9490  156.2873 H   0  0  0  0  0  0  0  0  0  0  0  0
  149.2797  141.0936  157.4731 H   0  0  0  0  0  0  0  0  0  0  0  0
  149.3877  140.8285  153.6082 H   0  0  0  0  0  0  0  0  0  0  0  0
  146.9410  141.7748  152.7206 H   0  0  0  0  0  0  0  0  0  0  0  0
  147.0733  142.1058  156.8752 H   0  0  0  0  0  0  0  0  0  0  0  0
  151.7100  143.6026  156.8888 H   0  0  0  0  0  0  0  0  0  0  0  0
  1  2  1  0  0  0  0
  1 18  1  0  0  0  0
  1 19  1  0  0  0  0
  1 20  1  0  0  0  0
  2  8  1  0  0  0  0
  2  3  2  0  0  0  0
  3  4  1  0  0  0  0
  3 21  1  0  0  0  0
  4  5  1  0  0  0  0
  4 22  1  0  0  0  0
  4 23  1  0  0  0  0
  5  6  1  0  0  0  0
  5 24  1  0  0  0  0
  5 25  1  0  0  0  0
  6  7  1  0  0  0  0
  6  8  1  0  0  0  0
  6 26  1  0  0  0  0
  7 27  1  0  0  0  0
  7 28  1  0  0  0  0
  7 29  1  0  0  0  0
  8  9  1  0  0  0  0
  8 30  1  0  0  0  0
  9 10  1  0  0  0  0
  9 31  1  0  0  0  0
  9 32  1  0  0  0  0
 10 11  1  0  0  0  0
 10 33  1  0  0  0  0
 10 41  1  0  0  0  0
 11 12  1  0  0  0  0
 11 34  1  0  0  0  0
 11 35  1  0  0  0  0
 12 13  1  0  0  0  0
 12 36  1  0  0  0  0
 12 37  1  0  0  0  0
 13 17  1  0  0  0  0
 13 14  1  0  0  0  0
 14 15  2  0  0  0  0
 14 38  1  0  0  0  0
 15 16  1  0  0  0  0
 15 39  1  0  0  0  0
 16 17  2  0  0  0  0
 17 40  1  0  0  0  0
M  CHG  1  10   1
M  END
> <s_m_source_file>
AV-unprocessed.smi

> <i_m_source_file_index>
3187

> <i_lp_mmshare_version>
43012

> <i_f3d_flags>
0

> <s_epik_input>
W0NIM11DMT1bQ0hdW0NIMl1bQ0gyXVtDQEBIXShbQ0gzXSlbQ0BIXTFbQ0gyXVtOSF1bQ0gyXVtDSDJdbjJbY0hdW2NIXW5bY0hdMg==

> <s_epik_cmdline>
J2VwaWtfcHl0aG9uJywgJy1waCcsICc3LjAnLCAnLXRuJywgJzgnLCAnLW1hJywgJzIwMCcsICctbWV0YWxfYmluZGluZycsICctaW1hZScsICc8aW5maWxlLm1hZT4nLCAnLW9tYWUnLCAnPG91dGZpbGUubWFlPic=

> <r_lp_tautomer_probability>
1

> <r_epik_Ionization_Penalty>
0.0501625

> <r_epik_Ionization_Penalty_Charging>
0.0501625

> <r_epik_Ionization_Penalty_Neutral>
0

> <r_epik_State_Penalty>
0.0972392

> <r_epik_Charging_Adjusted_Penalty>
0.147402

> <i_epik_Tot_Q>
1

> <i_epik_Tot_abs_Q>
1

> <r_epik_Metal_State_Penalty>
0.000104376

> <b_epik_Metal_Only>
0

> <s_lp_Force_Field>
OPLS_2005

> <r_lp_Energy>
17.5131

> <b_lp_Chiralities_Consistent>
1

> <s_lp_Variant>
AV-unprocessed.smi:3187-2

> <Gold.Version>
5.8.1

> <Gold.Id.Protein>
6NUR|6NUR_protein|mol2

> <Gold.PLP.Fitness>
52.1805

> <Gold.PLP.PLP>
-45.6714

> <Gold.PLP.part.hbond>
-1.0000

> <Gold.PLP.part.metal>
0.0000

> <Gold.PLP.part.buried>
-5.5166

> <Gold.PLP.part.nonpolar>
-37.5485

> <Gold.PLP.part.repulsive>
0.1658

> <Gold.PLP.ligand.clash>
0.0000

> <Gold.PLP.ligand.torsion>
1.2546

> <Gold.PLP.Chemscore.Hbond>
2.0000

> <Gold.PLP.Chemscore.CHOScore>
0.9708

> <Gold.PLP.Chemscore.Metal>
0.0000

> <Gold.Chemscore.Hbonds>
donor molecule, donor type, donor heavy atom, donor atom, acceptor molecule, acceptor atom, score
      L1  H    10    33       P1  8028  2.00
      L1  C    14    38       P1  7957  0.88

> <Gold.PLP.Chemscore.Internal.Correction>
0.1057

> <Gold.Rescore>
     Score         DG    S(hbond)    S(metal)    S(lipo)     H(rot)  DE(clash)    DE(int)     intcor
     17.48     -18.70       1.00        0.00     125.77       1.89       0.01       1.22       ----

> <Gold.Chemscore.Fitness>
17.4796

> <Gold.Chemscore.DG>
-18.7027

> <Gold.Chemscore.ZeroCoef>
-5.4800

> <Gold.Chemscore.Hbond>
0.9981

> <Gold.Chemscore.Metal>
0.0000

> <Gold.Chemscore.Lipo>
125.7721

> <Gold.Chemscore.Internal_Hbond>
0.0000

> <Gold.Chemscore.DEClash>
0.0053

> <Gold.Chemscore.DEInternal>
1.2178

> <Gold.Chemscore.Rot>
1.8853

> <Gold.Chemscore.Internal.Correction>
   9.000000E+99

> <Gold.Chemscore.Hbonds>
donor molecule, donor type, donor heavy atom, donor atom, acceptor molecule, acceptor atom, score
      L1  H    10    33       P1  8028  1.00

> <Gold.Chemscore.Hbond.Weighted>
-3.3336

> <Gold.Chemscore.Metal.Weighted>
-0.0000

> <Gold.Chemscore.Lipo.Weighted>
-14.7153

> <Gold.Chemscore.Internal_Hbond.Weighted>
0.0000

> <Gold.Chemscore.DEClash.Weighted>
0.0053

> <Gold.Chemscore.DEInternal.Weighted>
1.2178

> <Gold.Chemscore.Rot.Weighted>
4.8263

> <Gold.Chemscore.Internal.Correction.Weighted>
   9.000000E+99

> <Gold.Protein.RotatedTorsions>
[ 6907 6896 6895 6894 ] final   53.41 input  -60.11 | X-H torsion
[ 7974 7965 7964 7962 ] final  -90.55 input  175.53 | X-H torsion
[ 8008 7997 7996 7995 ] final -147.79 input   59.86 | X-H torsion
[ 10167 10162 10161 10158 ] final -135.04 input  -65.29 | X-H torsion
[ 10718 10713 10712 10709 ] final   40.18 input   66.30 | X-H torsion
[ 10763 10752 10751 10750 ] final   55.47 input  -60.55 | X-H torsion
[ 11005 11000 10999 10996 ] final -139.66 input  -57.11 | X-H torsion

> <Gold.Protein.ActiveResidues>
 VAL166  LYS551  ARG553  GLY616  TRP617  ASP618  TYR619  PRO620  LYS621  CYS622 
 ASP623  PHE694  ASN695  SER759  ASP760  ASP761  ALA762  ILE779  LEU786  VAL792 
 PHE793  MET794  SER795  GLU796  ALA797  LYS798  CYS799  TRP800  GLU811  SER814 

> <Gold.Protein.RotatedAtoms>
  152.3334  134.7230  160.0283 H   0  0  0  0  0  0  0  0  0  0  0  0  # atno 6907 bound_to 6896
  151.7639  133.3330  159.3433 H   0  0  0  0  0  0  0  0  0  0  0  0  # atno 6908 bound_to 6896
  150.7436  134.6012  159.6082 H   0  0  0  0  0  0  0  0  0  0  0  0  # atno 6909 bound_to 6896
  145.4249  140.9553  143.2160 H   0  0  0  0  0  0  0  0  0  0  0  0  # atno 7974 bound_to 7965
  155.5812  140.0643  157.2782 H   0  0  0  0  0  0  0  0  0  0  0  0  # atno 8008 bound_to 7997
  154.4332  140.1852  156.1025 H   0  0  0  0  0  0  0  0  0  0  0  0  # atno 8009 bound_to 7997
  156.0303  140.3307  155.7136 H   0  0  0  0  0  0  0  0  0  0  0  0  # atno 8010 bound_to 7997
  139.8819  143.6829  152.2626 H   0  0  0  0  0  0  0  0  0  0  0  0  # atno 10167 bound_to 10162
  157.3791  130.7744  149.7179 H   0  0  0  0  0  0  0  0  0  0  0  0  # atno 10718 bound_to 10713
  152.9817  135.5709  154.5073 H   0  0  0  0  0  0  0  0  0  0  0  0  # atno 10763 bound_to 10752
  154.4582  135.2780  155.1734 H   0  0  0  0  0  0  0  0  0  0  0  0  # atno 10764 bound_to 10752
  154.3333  135.6245  153.5615 H   0  0  0  0  0  0  0  0  0  0  0  0  # atno 10765 bound_to 10752
  140.8498  134.2300  157.4766 H   0  0  0  0  0  0  0  0  0  0  0  0  # atno 11005 bound_to 11000
  144.8221  139.5774  143.6982 LP  0  0  0  0  0  0  0  0  0  0  0  0  # atno 17320 bound_to 7965
  146.2637  139.6470  142.9344 LP  0  0  0  0  0  0  0  0  0  0  0  0  # atno 17321 bound_to 7965
  139.7188  144.7606  151.0989 LP  0  0  0  0  0  0  0  0  0  0  0  0  # atno 17342 bound_to 10162
  140.7743  143.5234  150.9509 LP  0  0  0  0  0  0  0  0  0  0  0  0  # atno 17343 bound_to 10162
  155.9772  130.4066  150.3729 LP  0  0  0  0  0  0  0  0  0  0  0  0  # atno 17370 bound_to 10713
  157.1831  131.0397  151.2738 LP  0  0  0  0  0  0  0  0  0  0  0  0  # atno 17371 bound_to 10713
  139.8704  134.9677  156.4607 LP  0  0  0  0  0  0  0  0  0  0  0  0  # atno 17394 bound_to 11000
  140.8803  133.7923  155.9459 LP  0  0  0  0  0  0  0  0  0  0  0  0  # atno 17395 bound_to 11000

$$$$
