AV-unprocessed.smi:35|AV-procd|sdf|271|dock6
  -GOLD-   2262016 43D 1   1.00000     0.00000
 Structure written by MMmdl.
 28 29  0  0  0  0  0  0  0  0  2 V2000
  152.8382  141.0220  158.9226 O   0  0  0  0  0  0  0  0  0  0  0  0
  152.1402  140.9896  157.9108 C   0  0  0  0  0  0  0  0  0  0  0  0
  152.3763  140.1327  156.8755 N   0  5  0  0  0  0  0  0  0  0  0  0
  151.5952  140.0973  155.7561 C   0  0  0  0  0  0  0  0  0  0  0  0
  151.7909  139.3187  154.8227 O   0  0  0  0  0  0  0  0  0  0  0  0
  150.4906  140.9879  155.6569 N   0  0  0  0  0  0  0  0  0  0  0  0
  149.6287  140.9452  154.4070 C   0  0  2  0  0  0  0  0  0  0  0  0
  148.6609  141.9530  154.4653 O   0  0  0  0  0  0  0  0  0  0  0  0
  147.3833  141.3893  154.7442 C   0  0  1  0  0  0  0  0  0  0  0  0
  146.2501  142.3342  154.3087 C   0  0  0  0  0  0  0  0  0  0  0  0
  145.0017  141.8154  154.7158 O   0  0  0  0  0  0  0  0  0  0  0  0
  147.4395  140.0440  154.0109 C   0  0  1  0  0  0  0  0  0  0  0  0
  147.1669  140.2012  152.6300 O   0  0  0  0  0  0  0  0  0  0  0  0
  148.8811  139.5999  154.2232 C   0  0  2  0  0  0  0  0  0  0  0  0
  148.9483  138.7429  155.3499 O   0  0  0  0  0  0  0  0  0  0  0  0
  150.2298  141.8725  156.6908 C   0  0  0  0  0  0  0  0  0  0  0  0
  151.0044  141.9000  157.7942 C   0  0  0  0  0  0  0  0  0  0  0  0
  150.5129  143.2139  159.1938 Br  0  0  0  0  0  0  0  0  0  0  0  0
  150.3025  141.1824  153.5821 H   0  0  0  0  0  0  0  0  0  0  0  0
  147.3077  141.1843  155.8135 H   0  0  0  0  0  0  0  0  0  0  0  0
  146.3920  143.3379  154.7110 H   0  0  0  0  0  0  0  0  0  0  0  0
  146.2291  142.4185  153.2218 H   0  0  0  0  0  0  0  0  0  0  0  0
  144.4847  141.6388  153.9449 H   0  0  0  0  0  0  0  0  0  0  0  0
  146.7165  139.3338  154.4150 H   0  0  0  0  0  0  0  0  0  0  0  0
  147.9528  140.5085  152.2047 H   0  0  0  0  0  0  0  0  0  0  0  0
  149.2872  139.0686  153.3614 H   0  0  0  0  0  0  0  0  0  0  0  0
  148.1309  138.8114  155.8207 H   0  0  0  0  0  0  0  0  0  0  0  0
  149.3994  142.5584  156.6298 H   0  0  0  0  0  0  0  0  0  0  0  0
  1  2  2  0  0  0  0
  2 17  1  0  0  0  0
  2  3  1  0  0  0  0
  3  4  1  0  0  0  0
  4  5  2  0  0  0  0
  4  6  1  0  0  0  0
  6  7  1  0  0  0  0
  6 16  1  0  0  0  0
  7 14  1  0  0  0  0
  7  8  1  0  0  0  0
  7 19  1  0  0  0  0
  8  9  1  0  0  0  0
  9 10  1  0  0  0  0
  9 12  1  0  0  0  0
  9 20  1  0  0  0  0
 10 11  1  0  0  0  0
 10 21  1  0  0  0  0
 10 22  1  0  0  0  0
 11 23  1  0  0  0  0
 12 13  1  0  0  0  0
 12 14  1  0  0  0  0
 12 24  1  0  0  0  0
 13 25  1  0  0  0  0
 14 15  1  0  0  0  0
 14 26  1  0  0  0  0
 15 27  1  0  0  0  0
 16 17  2  0  0  0  0
 16 28  1  0  0  0  0
 17 18  1  0  0  0  0
M  CHG  1   3  -1
M  END
> <s_m_source_file>
AV-unprocessed.smi

> <i_m_source_file_index>
35

> <i_lp_mmshare_version>
43012

> <i_f3d_flags>
0

> <s_epik_input>
Tz1jMVtuSF1jKD1PKW4oW2NIXWMxQnIpW0NAQEhdMk9bQ0BASF0oW0NIMl1bT0hdKVtDQEBIXShbT0hdKVtDQEhdMltPSF0=

> <s_epik_cmdline>
J2VwaWtfcHl0aG9uJywgJy1waCcsICc3LjAnLCAnLXRuJywgJzgnLCAnLW1hJywgJzIwMCcsICctbWV0YWxfYmluZGluZycsICctaW1hZScsICc8aW5maWxlLm1hZT4nLCAnLW9tYWUnLCAnPG91dGZpbGUubWFlPic=

> <r_epik_Ionization_Penalty>
1.06112

> <r_epik_Ionization_Penalty_Charging>
2.1796e-09

> <r_epik_Ionization_Penalty_Neutral>
1.06112

> <r_epik_State_Penalty>
1.11484

> <r_epik_Charging_Adjusted_Penalty>
1.11484

> <i_epik_Tot_Q>
-1

> <i_epik_Tot_abs_Q>
1

> <r_epik_Metal_State_Penalty>
0.0032876

> <b_epik_Metal_Only>
0

> <s_epik_Chemistry_Notes>
This compound contains an acetal/aminal-like group ( X-CH(R)-Y where X, Y are N, S, or O) that may be acid/base labile, releasing an aldehyde.

> <s_lp_Force_Field>
OPLS_2005

> <r_lp_Energy>
42.0802

> <b_lp_Chiralities_Consistent>
1

> <s_lp_Variant>
AV-unprocessed.smi:35-25

> <Gold.Version>
5.8.1

> <Gold.Id.Protein>
6NUR|6NUR_protein|mol2

> <Gold.PLP.Fitness>
44.6425

> <Gold.PLP.PLP>
-28.6731

> <Gold.PLP.part.hbond>
-4.9336

> <Gold.PLP.part.metal>
0.0000

> <Gold.PLP.part.buried>
-1.2243

> <Gold.PLP.part.nonpolar>
-22.9284

> <Gold.PLP.part.repulsive>
0.8496

> <Gold.PLP.ligand.clash>
0.0000

> <Gold.PLP.ligand.torsion>
0.0621

> <Gold.PLP.Chemscore.Hbond>
4.3420

> <Gold.PLP.Chemscore.CHOScore>
1.0000

> <Gold.PLP.Chemscore.Metal>
0.0000

> <Gold.Chemscore.Hbonds>
donor molecule, donor type, donor heavy atom, donor atom, acceptor molecule, acceptor atom, score
      L1  H    11    23       P1 10175  0.75
      L1  H    13    25       P1  7957  0.94
      P1  H  7989  7998       L1     5  0.55
      P1  H  7997  8008       L1     3  2.00
      L1  C    16    28       P1  8028  1.00

> <Gold.PLP.Chemscore.Internal.Correction>
0.0675

> <Gold.Rescore>
     Score         DG    S(hbond)    S(metal)    S(lipo)     H(rot)  DE(clash)    DE(int)     intcor
      6.77     -10.02       2.59        0.00      44.26       3.63       0.68       2.57       ----

> <Gold.Chemscore.Fitness>
6.7748

> <Gold.Chemscore.DG>
-10.0241

> <Gold.Chemscore.ZeroCoef>
-5.4800

> <Gold.Chemscore.Hbond>
2.5895

> <Gold.Chemscore.Metal>
0.0000

> <Gold.Chemscore.Lipo>
44.2570

> <Gold.Chemscore.Internal_Hbond>
0.0000

> <Gold.Chemscore.DEClash>
0.6802

> <Gold.Chemscore.DEInternal>
2.5691

> <Gold.Chemscore.Rot>
3.6261

> <Gold.Chemscore.Internal.Correction>
   9.000000E+99

> <Gold.Chemscore.Hbonds>
donor molecule, donor type, donor heavy atom, donor atom, acceptor molecule, acceptor atom, score
      L1  H    11    23       P1 10175  0.09
      L1  H    13    25       P1  7957  0.88
      P1  H  7989  7998       L1     5  0.03
      P1  H  7997  8008       L1     3  0.56

> <Gold.Chemscore.Hbond.Weighted>
-8.6488

> <Gold.Chemscore.Metal.Weighted>
-0.0000

> <Gold.Chemscore.Lipo.Weighted>
-5.1781

> <Gold.Chemscore.Internal_Hbond.Weighted>
0.0000

> <Gold.Chemscore.DEClash.Weighted>
0.6802

> <Gold.Chemscore.DEInternal.Weighted>
2.5691

> <Gold.Chemscore.Rot.Weighted>
9.2828

> <Gold.Chemscore.Internal.Correction.Weighted>
   9.000000E+99

> <Gold.Protein.RotatedTorsions>
[ 6907 6896 6895 6894 ] final  166.21 input  -60.11 | X-H torsion
[ 7974 7965 7964 7962 ] final -144.05 input  175.53 | X-H torsion
[ 8008 7997 7996 7995 ] final  -44.01 input   59.86 | X-H torsion
[ 10167 10162 10161 10158 ] final -138.96 input  -65.29 | X-H torsion
[ 10718 10713 10712 10709 ] final -168.19 input   66.30 | X-H torsion
[ 10763 10752 10751 10750 ] final -125.51 input  -60.55 | X-H torsion
[ 11005 11000 10999 10996 ] final  178.73 input  -57.11 | X-H torsion

> <Gold.Protein.ActiveResidues>
 VAL166  LYS551  ARG553  GLY616  TRP617  ASP618  TYR619  PRO620  LYS621  CYS622 
 ASP623  PHE694  ASN695  SER759  ASP760  ASP761  ALA762  ILE779  LEU786  VAL792 
 PHE793  MET794  SER795  GLU796  ALA797  LYS798  CYS799  TRP800  GLU811  SER814 

> <Gold.Protein.RotatedAtoms>
  151.8825  133.3498  159.3770 H   0  0  0  0  0  0  0  0  0  0  0  0  # atno 6907 bound_to 6896
  150.7124  134.5004  159.5568 H   0  0  0  0  0  0  0  0  0  0  0  0  # atno 6908 bound_to 6896
  152.2559  134.8085  160.0489 H   0  0  0  0  0  0  0  0  0  0  0  0  # atno 6909 bound_to 6896
  144.8325  140.5759  143.5505 H   0  0  0  0  0  0  0  0  0  0  0  0  # atno 7974 bound_to 7965
  154.3997  140.1433  156.3613 H   0  0  0  0  0  0  0  0  0  0  0  0  # atno 8008 bound_to 7997
  155.8179  140.3470  155.5475 H   0  0  0  0  0  0  0  0  0  0  0  0  # atno 8009 bound_to 7997
  155.8319  140.0913  157.1778 H   0  0  0  0  0  0  0  0  0  0  0  0  # atno 8010 bound_to 7997
  139.8427  143.7301  152.2662 H   0  0  0  0  0  0  0  0  0  0  0  0  # atno 10167 bound_to 10162
  156.6934  130.9168  151.3071 H   0  0  0  0  0  0  0  0  0  0  0  0  # atno 10718 bound_to 10713
  154.8736  135.4027  154.3279 H   0  0  0  0  0  0  0  0  0  0  0  0  # atno 10763 bound_to 10752
  153.4097  135.7020  153.6373 H   0  0  0  0  0  0  0  0  0  0  0  0  # atno 10764 bound_to 10752
  153.5081  135.3713  155.2543 H   0  0  0  0  0  0  0  0  0  0  0  0  # atno 10765 bound_to 10752
  140.3983  134.6800  157.4547 H   0  0  0  0  0  0  0  0  0  0  0  0  # atno 11005 bound_to 11000
  145.4864  139.1491  143.3733 LP  0  0  0  0  0  0  0  0  0  0  0  0  # atno 17320 bound_to 7965
  146.2627  140.5001  142.8847 LP  0  0  0  0  0  0  0  0  0  0  0  0  # atno 17321 bound_to 7965
  139.7543  144.7525  151.0459 LP  0  0  0  0  0  0  0  0  0  0  0  0  # atno 17342 bound_to 10162
  140.7796  143.4823  151.0001 LP  0  0  0  0  0  0  0  0  0  0  0  0  # atno 17343 bound_to 10162
  157.7000  130.9323  150.0758 LP  0  0  0  0  0  0  0  0  0  0  0  0  # atno 17370 bound_to 10713
  156.1781  130.3649  149.9073 LP  0  0  0  0  0  0  0  0  0  0  0  0  # atno 17371 bound_to 10713
  140.0355  134.6344  155.9049 LP  0  0  0  0  0  0  0  0  0  0  0  0  # atno 17394 bound_to 11000
  141.1866  133.6557  156.5246 LP  0  0  0  0  0  0  0  0  0  0  0  0  # atno 17395 bound_to 11000

$$$$
