AV-unprocessed.smi:36|AV-procd|sdf|279|dock8
  -GOLD-   2262016 53D 1   1.00000     0.00000
 Structure written by MMmdl.
 64 67  0  0  0  0  0  0  0  0  1 V2000
  151.9592  127.9586  156.9466 C   0  0  0  0  0  0  0  0  0  0  0  0
  151.5913  129.1730  156.0781 C   0  0  0  0  0  0  0  0  0  0  0  0
  152.7046  129.4368  155.0498 C   0  0  0  0  0  0  0  0  0  0  0  0
  150.2637  128.9115  155.3473 C   0  0  0  0  0  0  0  0  0  0  0  0
  151.3953  130.7155  157.1882 Si  0  0  0  0  0  0  0  0  0  0  0  0
  149.9794  130.5003  158.4362 C   0  0  0  0  0  0  0  0  0  0  0  0
  153.0141  131.1042  158.1056 C   0  0  0  0  0  0  0  0  0  0  0  0
  151.0153  132.0208  156.1822 O   0  0  0  0  0  0  0  0  0  0  0  0
  149.8686  132.0850  155.3575 C   0  0  0  0  0  0  0  0  0  0  0  0
  149.7008  133.5151  154.8238 C   0  0  2  0  0  0  0  0  0  0  0  0
  150.1877  134.4450  155.7918 O   0  0  0  0  0  0  0  0  0  0  0  0
  149.1080  135.1741  156.2763 C   0  0  1  0  0  0  0  0  0  0  0  0
  149.5893  136.5040  156.7409 N   0  0  0  0  0  0  0  0  0  0  0  0
  149.6374  137.0150  158.0199 C   0  0  0  0  0  0  0  0  0  0  0  0
  150.1081  138.2303  158.1153 N   0  0  0  0  0  0  0  0  0  0  0  0
  150.4121  138.5784  156.8048 C   0  0  0  0  0  0  0  0  0  0  0  0
  150.9495  139.7405  156.1928 C   0  0  0  0  0  0  0  0  0  0  0  0
  151.2662  140.8208  156.9447 N   0  0  0  0  0  0  0  0  0  0  0  0
  150.3880  141.8827  157.4043 C   0  0  0  0  0  0  0  0  0  0  0  0
  149.1790  141.8813  157.1704 O   0  0  0  0  0  0  0  0  0  0  0  0
  151.0253  142.9461  158.2510 C   0  0  0  0  0  0  0  0  0  0  0  0
  150.2937  144.1044  158.5979 C   0  0  0  0  0  0  0  0  0  0  0  0
  150.8856  145.1141  159.3813 C   0  0  0  0  0  0  0  0  0  0  0  0
  152.2165  144.9781  159.8184 C   0  0  0  0  0  0  0  0  0  0  0  0
  152.9571  143.8337  159.4670 C   0  0  0  0  0  0  0  0  0  0  0  0
  152.3664  142.8230  158.6832 C   0  0  0  0  0  0  0  0  0  0  0  0
  151.1175  139.7153  154.8438 N   0  0  0  0  0  0  0  0  0  0  0  0
  150.7794  138.6290  154.1425 C   0  0  0  0  0  0  0  0  0  0  0  0
  150.2629  137.4792  154.5820 N   0  0  0  0  0  0  0  0  0  0  0  0
  150.0940  137.4990  155.9355 C   0  0  0  0  0  0  0  0  0  0  0  0
  148.1582  135.3183  155.0988 C   0  0  0  0  0  0  0  0  0  0  0  0
  148.2443  133.9202  154.5211 C   0  0  1  0  0  0  0  0  0  0  0  0
  147.9582  133.9223  153.1378 O   0  0  0  0  0  0  0  0  0  0  0  0
  152.0799  127.0603  156.3400 H   0  0  0  0  0  0  0  0  0  0  0  0
  151.1874  127.7524  157.6888 H   0  0  0  0  0  0  0  0  0  0  0  0
  152.8953  128.1213  157.4814 H   0  0  0  0  0  0  0  0  0  0  0  0
  153.6626  129.6176  155.5376 H   0  0  0  0  0  0  0  0  0  0  0  0
  152.4790  130.3094  154.4362 H   0  0  0  0  0  0  0  0  0  0  0  0
  152.8344  128.5870  154.3787 H   0  0  0  0  0  0  0  0  0  0  0  0
  150.3398  128.0510  154.6819 H   0  0  0  0  0  0  0  0  0  0  0  0
  149.9686  129.7703  154.7429 H   0  0  0  0  0  0  0  0  0  0  0  0
  149.4553  128.7112  156.0513 H   0  0  0  0  0  0  0  0  0  0  0  0
  150.1642  129.6661  159.1123 H   0  0  0  0  0  0  0  0  0  0  0  0
  149.0296  130.3108  157.9364 H   0  0  0  0  0  0  0  0  0  0  0  0
  149.8489  131.3920  159.0490 H   0  0  0  0  0  0  0  0  0  0  0  0
  153.3021  130.2897  158.7699 H   0  0  0  0  0  0  0  0  0  0  0  0
  152.9253  132.0027  158.7156 H   0  0  0  0  0  0  0  0  0  0  0  0
  153.8406  131.2636  157.4136 H   0  0  0  0  0  0  0  0  0  0  0  0
  149.9874  131.3821  154.5326 H   0  0  0  0  0  0  0  0  0  0  0  0
  148.9801  131.7823  155.9125 H   0  0  0  0  0  0  0  0  0  0  0  0
  150.3194  133.6399  153.9337 H   0  0  0  0  0  0  0  0  0  0  0  0
  148.6647  134.6904  157.1484 H   0  0  0  0  0  0  0  0  0  0  0  0
  149.3073  136.4582  158.8848 H   0  0  0  0  0  0  0  0  0  0  0  0
  152.2355  140.9028  157.2147 H   0  0  0  0  0  0  0  0  0  0  0  0
  149.2709  144.2241  158.2697 H   0  0  0  0  0  0  0  0  0  0  0  0
  150.3174  145.9935  159.6461 H   0  0  0  0  0  0  0  0  0  0  0  0
  152.6700  145.7527  160.4193 H   0  0  0  0  0  0  0  0  0  0  0  0
  153.9804  143.7317  159.7971 H   0  0  0  0  0  0  0  0  0  0  0  0
  152.9561  141.9574  158.4179 H   0  0  0  0  0  0  0  0  0  0  0  0
  150.9447  138.6912  153.0772 H   0  0  0  0  0  0  0  0  0  0  0  0
  147.1577  135.6076  155.4222 H   0  0  0  0  0  0  0  0  0  0  0  0
  148.5524  136.0648  154.4067 H   0  0  0  0  0  0  0  0  0  0  0  0
  147.5379  133.2707  155.0381 H   0  0  0  0  0  0  0  0  0  0  0  0
  148.3931  134.6617  152.7416 H   0  0  0  0  0  0  0  0  0  0  0  0
  1  2  1  0  0  0  0
  1 34  1  0  0  0  0
  1 35  1  0  0  0  0
  1 36  1  0  0  0  0
  2  3  1  0  0  0  0
  2  4  1  0  0  0  0
  2  5  1  0  0  0  0
  3 37  1  0  0  0  0
  3 38  1  0  0  0  0
  3 39  1  0  0  0  0
  4 40  1  0  0  0  0
  4 41  1  0  0  0  0
  4 42  1  0  0  0  0
  5  6  1  0  0  0  0
  5  7  1  0  0  0  0
  5  8  1  0  0  0  0
  6 43  1  0  0  0  0
  6 44  1  0  0  0  0
  6 45  1  0  0  0  0
  7 46  1  0  0  0  0
  7 47  1  0  0  0  0
  7 48  1  0  0  0  0
  8  9  1  0  0  0  0
  9 10  1  0  0  0  0
  9 49  1  0  0  0  0
  9 50  1  0  0  0  0
 10 32  1  0  0  0  0
 10 11  1  0  0  0  0
 10 51  1  0  0  0  0
 11 12  1  0  0  0  0
 12 13  1  0  0  0  0
 12 31  1  0  0  0  0
 12 52  1  0  0  0  0
 13 30  1  0  0  0  0
 13 14  1  0  0  0  0
 14 15  2  0  0  0  0
 14 53  1  0  0  0  0
 15 16  1  0  0  0  0
 16 30  2  0  0  0  0
 16 17  1  0  0  0  0
 17 18  1  0  0  0  0
 17 27  2  0  0  0  0
 18 19  1  0  0  0  0
 18 54  1  0  0  0  0
 19 20  2  0  0  0  0
 19 21  1  0  0  0  0
 21 26  1  0  0  0  0
 21 22  2  0  0  0  0
 22 23  1  0  0  0  0
 22 55  1  0  0  0  0
 23 24  2  0  0  0  0
 23 56  1  0  0  0  0
 24 25  1  0  0  0  0
 24 57  1  0  0  0  0
 25 26  2  0  0  0  0
 25 58  1  0  0  0  0
 26 59  1  0  0  0  0
 27 28  1  0  0  0  0
 28 29  2  0  0  0  0
 28 60  1  0  0  0  0
 29 30  1  0  0  0  0
 31 32  1  0  0  0  0
 31 61  1  0  0  0  0
 31 62  1  0  0  0  0
 32 33  1  0  0  0  0
 32 63  1  0  0  0  0
 33 64  1  0  0  0  0
M  END
> <s_m_source_file>
AV-unprocessed.smi

> <i_m_source_file_index>
36

> <i_lp_mmshare_version>
43012

> <i_f3d_flags>
0

> <s_epik_input>
W0NIM11DKFtDSDNdKShbQ0gzXSlbU2ldKFtDSDNdKShbQ0gzXSlPW0NIMl1bQ0BASF0xT1tDQEhdKFtDSDJdW0NASF0xW09IXSluKFtjSF1uMiljKGMyMyluW2NIXW5jM1tOSF1DKD1PKWM0W2NIXVtjSF1bY0hdW2NIXVtjSF00

> <s_epik_cmdline>
J2VwaWtfcHl0aG9uJywgJy1waCcsICc3LjAnLCAnLXRuJywgJzgnLCAnLW1hJywgJzIwMCcsICctbWV0YWxfYmluZGluZycsICctaW1hZScsICc8aW5maWxlLm1hZT4nLCAnLW9tYWUnLCAnPG91dGZpbGUubWFlPic=

> <r_lp_tautomer_probability>
1

> <r_epik_Ionization_Penalty>
0.00150433

> <r_epik_Ionization_Penalty_Charging>
0

> <r_epik_Ionization_Penalty_Neutral>
0.00150433

> <r_epik_State_Penalty>
0.00724046

> <r_epik_Charging_Adjusted_Penalty>
0.00724046

> <i_epik_Tot_Q>
0

> <i_epik_Tot_abs_Q>
0

> <r_epik_Metal_State_Penalty>
0.323355

> <b_epik_Metal_Only>
0

> <s_epik_Chemistry_Notes>
This compound contains an acetal/aminal-like group ( X-CH(R)-Y where X, Y are N, S, or O) that may be acid/base labile, releasing an aldehyde.

> <s_lp_Force_Field>
OPLS_2005

> <r_lp_Energy>
30.8875

> <b_lp_Chiralities_Consistent>
1

> <s_lp_Variant>
AV-unprocessed.smi:36-1

> <Gold.Version>
5.8.1

> <Gold.Id.Protein>
6NUR|6NUR_protein|mol2

> <Gold.PLP.Fitness>
52.0586

> <Gold.PLP.PLP>
-45.5845

> <Gold.PLP.part.hbond>
-2.0000

> <Gold.PLP.part.metal>
0.0000

> <Gold.PLP.part.buried>
-9.1430

> <Gold.PLP.part.nonpolar>
-34.3290

> <Gold.PLP.part.repulsive>
0.5279

> <Gold.PLP.ligand.clash>
0.0000

> <Gold.PLP.ligand.torsion>
1.3286

> <Gold.PLP.Chemscore.Hbond>
2.0000

> <Gold.PLP.Chemscore.CHOScore>
0.9997

> <Gold.PLP.Chemscore.Metal>
0.0000

> <Gold.Chemscore.Hbonds>
donor molecule, donor type, donor heavy atom, donor atom, acceptor molecule, acceptor atom, score
      L1  H    33    64       P1  7948  1.00
      P1  H  7989  7998       L1    27  1.00
      L1  C    28    60       P1  7957  0.56

> <Gold.PLP.Chemscore.Internal.Correction>
0.1321

> <Gold.Rescore>
     Score         DG    S(hbond)    S(metal)    S(lipo)     H(rot)  DE(clash)    DE(int)     intcor
     13.91     -15.24       1.07        0.00     111.94       2.70       0.21       1.12       ----

> <Gold.Chemscore.Fitness>
13.9131

> <Gold.Chemscore.DG>
-15.2411

> <Gold.Chemscore.ZeroCoef>
-5.4800

> <Gold.Chemscore.Hbond>
1.0739

> <Gold.Chemscore.Metal>
0.0000

> <Gold.Chemscore.Lipo>
111.9375

> <Gold.Chemscore.Internal_Hbond>
0.0000

> <Gold.Chemscore.DEClash>
0.2065

> <Gold.Chemscore.DEInternal>
1.1215

> <Gold.Chemscore.Rot>
2.7041

> <Gold.Chemscore.Internal.Correction>
   9.000000E+99

> <Gold.Chemscore.Hbonds>
donor molecule, donor type, donor heavy atom, donor atom, acceptor molecule, acceptor atom, score
      L1  H    33    64       P1  7948  0.35
      P1  H  7989  7998       L1    27  0.30

> <Gold.Chemscore.Hbond.Weighted>
-3.5869

> <Gold.Chemscore.Metal.Weighted>
-0.0000

> <Gold.Chemscore.Lipo.Weighted>
-13.0967

> <Gold.Chemscore.Internal_Hbond.Weighted>
0.0000

> <Gold.Chemscore.DEClash.Weighted>
0.2065

> <Gold.Chemscore.DEInternal.Weighted>
1.1215

> <Gold.Chemscore.Rot.Weighted>
6.9225

> <Gold.Chemscore.Internal.Correction.Weighted>
   9.000000E+99

> <Gold.Protein.RotatedTorsions>
[ 6907 6896 6895 6894 ] final -160.68 input  -60.11 | X-H torsion
[ 7974 7965 7964 7962 ] final   53.68 input  175.53 | X-H torsion
[ 8008 7997 7996 7995 ] final  -54.76 input   59.86 | X-H torsion
[ 10167 10162 10161 10158 ] final -168.03 input  -65.29 | X-H torsion
[ 10718 10713 10712 10709 ] final  149.46 input   66.30 | X-H torsion
[ 10763 10752 10751 10750 ] final   59.85 input  -60.55 | X-H torsion
[ 11005 11000 10999 10996 ] final   -5.01 input  -57.11 | X-H torsion

> <Gold.Protein.ActiveResidues>
 VAL166  LYS551  ARG553  GLY616  TRP617  ASP618  TYR619  PRO620  LYS621  CYS622 
 ASP623  PHE694  ASN695  SER759  ASP760  ASP761  ALA762  ILE779  LEU786  VAL792 
 PHE793  MET794  SER795  GLU796  ALA797  LYS798  CYS799  TRP800  GLU811  SER814 

> <Gold.Protein.RotatedAtoms>
  151.3529  133.3918  159.2681 H   0  0  0  0  0  0  0  0  0  0  0  0  # atno 6907 bound_to 6896
  150.9787  134.9147  159.7842 H   0  0  0  0  0  0  0  0  0  0  0  0  # atno 6908 bound_to 6896
  152.5209  134.3492  159.9297 H   0  0  0  0  0  0  0  0  0  0  0  0  # atno 6909 bound_to 6896
  145.9687  139.4128  143.0203 H   0  0  0  0  0  0  0  0  0  0  0  0  # atno 7974 bound_to 7965
  154.4173  140.1168  156.5368 H   0  0  0  0  0  0  0  0  0  0  0  0  # atno 8008 bound_to 7997
  155.6549  140.3496  155.4742 H   0  0  0  0  0  0  0  0  0  0  0  0  # atno 8009 bound_to 7997
  155.9762  140.1151  157.0758 H   0  0  0  0  0  0  0  0  0  0  0  0  # atno 8010 bound_to 7997
  139.6011  144.1009  152.1743 H   0  0  0  0  0  0  0  0  0  0  0  0  # atno 10167 bound_to 10162
  157.2958  131.0862  151.1427 H   0  0  0  0  0  0  0  0  0  0  0  0  # atno 10718 bound_to 10713
  152.9905  135.5557  154.5779 H   0  0  0  0  0  0  0  0  0  0  0  0  # atno 10763 bound_to 10752
  154.5166  135.2805  155.1300 H   0  0  0  0  0  0  0  0  0  0  0  0  # atno 10764 bound_to 10752
  154.2670  135.6370  153.5348 H   0  0  0  0  0  0  0  0  0  0  0  0  # atno 10765 bound_to 10752
  140.6865  133.9108  155.8589 H   0  0  0  0  0  0  0  0  0  0  0  0  # atno 11005 bound_to 11000
  145.7937  140.9802  143.1035 LP  0  0  0  0  0  0  0  0  0  0  0  0  # atno 17320 bound_to 7965
  144.6831  139.9715  143.7482 LP  0  0  0  0  0  0  0  0  0  0  0  0  # atno 17321 bound_to 7965
  140.0605  144.5860  150.7266 LP  0  0  0  0  0  0  0  0  0  0  0  0  # atno 17342 bound_to 10162
  140.7250  143.2627  151.4151 LP  0  0  0  0  0  0  0  0  0  0  0  0  # atno 17343 bound_to 10162
  157.2806  130.6748  149.6064 LP  0  0  0  0  0  0  0  0  0  0  0  0  # atno 17370 bound_to 10713
  155.9669  130.4451  150.5488 LP  0  0  0  0  0  0  0  0  0  0  0  0  # atno 17371 bound_to 10713
  141.0276  134.0801  157.4051 LP  0  0  0  0  0  0  0  0  0  0  0  0  # atno 17394 bound_to 11000
  139.8936  135.0131  156.6908 LP  0  0  0  0  0  0  0  0  0  0  0  0  # atno 17395 bound_to 11000

$$$$
