AV-unprocessed.smi:1100|AV-procd|sdf|4764|dock7
  -GOLD-   22720 3303D 1   1.00000     0.00000
 Structure written by MMmdl.
 43 44  0  0  0  0  0  0  0  0  3 V2000
  148.0360  141.0665  153.8214 C   0  0  0  0  0  0  0  0  0  0  0  0
  148.7263  139.7186  153.4914 C   0  0  1  0  0  0  0  0  0  0  0  0
  149.7820  139.2693  154.5362 C   0  0  0  0  0  0  0  0  0  0  0  0
  150.7860  140.3141  154.7344 N   0  5  0  0  0  0  0  0  0  0  0  0
  151.4293  140.5557  155.9088 C   0  0  0  0  0  0  0  0  0  0  0  0
  152.3546  139.9015  156.4029 O   0  0  0  0  0  0  0  0  0  0  0  0
  150.9248  141.6331  156.5425 N   0  0  0  0  0  0  0  0  0  0  0  0
  151.3342  142.2576  157.7315 C   0  0  0  0  0  0  0  0  0  0  0  0
  151.9411  141.4283  158.7507 C   0  0  0  0  0  0  0  0  0  0  0  0
  152.3305  141.9451  159.9323 C   0  0  0  0  0  0  0  0  0  0  0  0
  152.1583  143.3667  160.2402 C   0  0  0  0  0  0  0  0  0  0  0  0
  152.5057  143.8526  161.3173 O   0  0  0  0  0  0  0  0  0  0  0  0
  151.5855  144.1176  159.2552 N   0  0  0  0  0  0  0  0  0  0  0  0
  151.3630  145.5501  159.4684 C   0  0  0  0  0  0  0  0  0  0  0  0
  151.1718  143.5662  158.0271 C   0  0  0  0  0  0  0  0  0  0  0  0
  147.7503  138.6157  153.2251 N   0  3  0  0  0  0  0  0  0  0  0  0
  147.0129  138.0769  154.4022 C   0  0  0  0  0  0  0  0  0  0  0  0
  146.1846  136.8506  153.9878 C   0  0  0  0  0  0  0  0  0  0  0  0
  145.2831  137.2174  152.9505 O   0  0  0  0  0  0  0  0  0  0  0  0
  145.9648  137.6697  151.7868 C   0  0  0  0  0  0  0  0  0  0  0  0
  146.8036  138.9147  152.1218 C   0  0  0  0  0  0  0  0  0  0  0  0
  148.7506  141.8908  153.8558 H   0  0  0  0  0  0  0  0  0  0  0  0
  147.5154  141.0506  154.7804 H   0  0  0  0  0  0  0  0  0  0  0  0
  147.3044  141.3255  153.0560 H   0  0  0  0  0  0  0  0  0  0  0  0
  149.2804  139.8710  152.5634 H   0  0  0  0  0  0  0  0  0  0  0  0
  149.2774  139.0086  155.4671 H   0  0  0  0  0  0  0  0  0  0  0  0
  150.2411  138.3445  154.1825 H   0  0  0  0  0  0  0  0  0  0  0  0
  150.1251  142.0589  156.0978 H   0  0  0  0  0  0  0  0  0  0  0  0
  152.0874  140.3743  158.5642 H   0  0  0  0  0  0  0  0  0  0  0  0
  152.7800  141.2978  160.6706 H   0  0  0  0  0  0  0  0  0  0  0  0
  151.0215  146.0619  158.5681 H   0  0  0  0  0  0  0  0  0  0  0  0
  152.2827  146.0437  159.7861 H   0  0  0  0  0  0  0  0  0  0  0  0
  150.6090  145.7048  160.2412 H   0  0  0  0  0  0  0  0  0  0  0  0
  150.7022  144.2814  157.3708 H   0  0  0  0  0  0  0  0  0  0  0  0
  147.7053  137.7957  155.1962 H   0  0  0  0  0  0  0  0  0  0  0  0
  146.3457  138.8368  154.8110 H   0  0  0  0  0  0  0  0  0  0  0  0
  146.8308  136.0354  153.6577 H   0  0  0  0  0  0  0  0  0  0  0  0
  145.6119  136.4794  154.8379 H   0  0  0  0  0  0  0  0  0  0  0  0
  146.5948  136.8724  151.3891 H   0  0  0  0  0  0  0  0  0  0  0  0
  145.2302  137.9079  151.0173 H   0  0  0  0  0  0  0  0  0  0  0  0
  146.1529  139.7419  152.4087 H   0  0  0  0  0  0  0  0  0  0  0  0
  147.3499  139.2283  151.2315 H   0  0  0  0  0  0  0  0  0  0  0  0
  148.3207  137.8554  152.8827 H   0  0  0  0  0  0  0  0  0  0  0  0
  1  2  1  0  0  0  0
  1 22  1  0  0  0  0
  1 23  1  0  0  0  0
  1 24  1  0  0  0  0
  2  3  1  0  0  0  0
  2 16  1  0  0  0  0
  2 25  1  0  0  0  0
  3  4  1  0  0  0  0
  3 26  1  0  0  0  0
  3 27  1  0  0  0  0
  4  5  1  0  0  0  0
  5  6  2  0  0  0  0
  5  7  1  0  0  0  0
  7  8  1  0  0  0  0
  7 28  1  0  0  0  0
  8 15  2  0  0  0  0
  8  9  1  0  0  0  0
  9 10  2  0  0  0  0
  9 29  1  0  0  0  0
 10 11  1  0  0  0  0
 10 30  1  0  0  0  0
 11 12  2  0  0  0  0
 11 13  1  0  0  0  0
 13 14  1  0  0  0  0
 13 15  1  0  0  0  0
 14 31  1  0  0  0  0
 14 32  1  0  0  0  0
 14 33  1  0  0  0  0
 15 34  1  0  0  0  0
 16 21  1  0  0  0  0
 16 17  1  0  0  0  0
 16 43  1  0  0  0  0
 17 18  1  0  0  0  0
 17 35  1  0  0  0  0
 17 36  1  0  0  0  0
 18 19  1  0  0  0  0
 18 37  1  0  0  0  0
 18 38  1  0  0  0  0
 19 20  1  0  0  0  0
 20 21  1  0  0  0  0
 20 39  1  0  0  0  0
 20 40  1  0  0  0  0
 21 41  1  0  0  0  0
 21 42  1  0  0  0  0
M  CHG  1   4  -1
M  CHG  1  16   1
M  END
> <s_m_source_file>
AV-unprocessed.smi

> <i_m_source_file_index>
1100

> <i_lp_mmshare_version>
43012

> <i_f3d_flags>
0

> <s_epik_input>
W0NIMl0xW0NIMl1PW0NIMl1bQ0gyXU4xW0NASF0oW0NIM10pW0NIMl1bTkhdQyg9TylbTkhdYzJbY0hdW2NIXWMoPU8pbihbQ0gzXSlbY0hdMg==

> <s_epik_cmdline>
J2VwaWtfcHl0aG9uJywgJy1waCcsICc3LjAnLCAnLXRuJywgJzgnLCAnLW1hJywgJzIwMCcsICctbWV0YWxfYmluZGluZycsICctaW1hZScsICc8aW5maWxlLm1hZT4nLCAnLW9tYWUnLCAnPG91dGZpbGUubWFlPic=

> <r_lp_tautomer_probability>
1

> <r_epik_Ionization_Penalty>
6.79272

> <r_epik_Ionization_Penalty_Charging>
6.79272

> <r_epik_Ionization_Penalty_Neutral>
3.37009e-06

> <r_epik_State_Penalty>
7.34577

> <r_epik_Charging_Adjusted_Penalty>
14.1385

> <i_epik_Tot_Q>
0

> <i_epik_Tot_abs_Q>
2

> <r_epik_Metal_State_Penalty>
3.26257

> <b_epik_Metal_Only>
1

> <s_lp_Force_Field>
OPLS_2005

> <r_lp_Energy>
32.2868

> <b_lp_Chiralities_Consistent>
1

> <s_lp_Variant>
AV-unprocessed.smi:1100-6

> <Gold.Version>
5.8.1

> <Gold.Id.Protein>
6NUR|6NUR_protein|mol2

> <Gold.PLP.Fitness>
53.2578

> <Gold.PLP.PLP>
-40.3868

> <Gold.PLP.part.hbond>
-3.8558

> <Gold.PLP.part.metal>
0.0000

> <Gold.PLP.part.buried>
2.5405

> <Gold.PLP.part.nonpolar>
-39.3446

> <Gold.PLP.part.repulsive>
0.5240

> <Gold.PLP.ligand.clash>
0.0000

> <Gold.PLP.ligand.torsion>
1.1432

> <Gold.PLP.Chemscore.Hbond>
4.0000

> <Gold.PLP.Chemscore.CHOScore>
1.0000

> <Gold.PLP.Chemscore.Metal>
0.0000

> <Gold.Chemscore.Hbonds>
donor molecule, donor type, donor heavy atom, donor atom, acceptor molecule, acceptor atom, score
      L1  H    16    43       P1  7948  2.00
      P1  H  7989  7998       L1     4  1.00
      P1  H  7997  8010       L1     6  1.00
      L1  C    15    34       P1  8028  1.00

> <Gold.PLP.Chemscore.Internal.Correction>
0.1573

> <Gold.Rescore>
     Score         DG    S(hbond)    S(metal)    S(lipo)     H(rot)  DE(clash)    DE(int)     intcor
     17.38     -21.51       2.79        0.00      90.45       1.51       1.63       2.50       ----

> <Gold.Chemscore.Fitness>
17.3793

> <Gold.Chemscore.DG>
-21.5132

> <Gold.Chemscore.ZeroCoef>
-5.4800

> <Gold.Chemscore.Hbond>
2.7912

> <Gold.Chemscore.Metal>
0.0000

> <Gold.Chemscore.Lipo>
90.4547

> <Gold.Chemscore.Internal_Hbond>
0.0000

> <Gold.Chemscore.DEClash>
1.6344

> <Gold.Chemscore.DEInternal>
2.4996

> <Gold.Chemscore.Rot>
1.5128

> <Gold.Chemscore.Internal.Correction>
   9.000000E+99

> <Gold.Chemscore.Hbonds>
donor molecule, donor type, donor heavy atom, donor atom, acceptor molecule, acceptor atom, score
      L1  H    16    43       P1  7948  0.96
      P1  H  7989  7998       L1     4  0.76
      P1  H  7997  8010       L1     6  0.96

> <Gold.Chemscore.Hbond.Weighted>
-9.3227

> <Gold.Chemscore.Metal.Weighted>
-0.0000

> <Gold.Chemscore.Lipo.Weighted>
-10.5832

> <Gold.Chemscore.Internal_Hbond.Weighted>
0.0000

> <Gold.Chemscore.DEClash.Weighted>
1.6344

> <Gold.Chemscore.DEInternal.Weighted>
2.4996

> <Gold.Chemscore.Rot.Weighted>
3.8726

> <Gold.Chemscore.Internal.Correction.Weighted>
   9.000000E+99

> <Gold.Protein.RotatedTorsions>
[ 6907 6896 6895 6894 ] final   22.51 input  -60.11 | X-H torsion
[ 7974 7965 7964 7962 ] final -123.92 input  175.53 | X-H torsion
[ 8008 7997 7996 7995 ] final   66.40 input   59.86 | X-H torsion
[ 10167 10162 10161 10158 ] final   73.14 input  -65.29 | X-H torsion
[ 10718 10713 10712 10709 ] final   70.18 input   66.30 | X-H torsion
[ 10763 10752 10751 10750 ] final   91.81 input  -60.55 | X-H torsion
[ 11005 11000 10999 10996 ] final   61.93 input  -57.11 | X-H torsion

> <Gold.Protein.ActiveResidues>
 VAL166  LYS551  ARG553  GLY616  TRP617  ASP618  TYR619  PRO620  LYS621  CYS622 
 ASP623  PHE694  ASN695  SER759  ASP760  ASP761  ALA762  ILE779  LEU786  VAL792 
 PHE793  MET794  SER795  GLU796  ALA797  LYS798  CYS799  TRP800  GLU811  SER814 

> <Gold.Protein.RotatedAtoms>
  151.9282  135.0268  160.0526 H   0  0  0  0  0  0  0  0  0  0  0  0  # atno 6907 bound_to 6896
  152.2141  133.4929  159.5134 H   0  0  0  0  0  0  0  0  0  0  0  0  # atno 6908 bound_to 6896
  150.6983  134.1345  159.4125 H   0  0  0  0  0  0  0  0  0  0  0  0  # atno 6909 bound_to 6896
  145.0135  140.7927  143.4424 H   0  0  0  0  0  0  0  0  0  0  0  0  # atno 7974 bound_to 7965
  155.6767  140.3497  155.4839 H   0  0  0  0  0  0  0  0  0  0  0  0  # atno 8008 bound_to 7997
  155.9642  140.1143  157.0892 H   0  0  0  0  0  0  0  0  0  0  0  0  # atno 8009 bound_to 7997
  154.4150  140.1169  156.5206 H   0  0  0  0  0  0  0  0  0  0  0  0  # atno 8010 bound_to 7997
  140.0276  144.5491  150.7532 H   0  0  0  0  0  0  0  0  0  0  0  0  # atno 10167 bound_to 10162
  157.6386  130.9464  150.0615 H   0  0  0  0  0  0  0  0  0  0  0  0  # atno 10718 bound_to 10713
  153.2123  135.4384  155.0394 H   0  0  0  0  0  0  0  0  0  0  0  0  # atno 10763 bound_to 10752
  154.8206  135.3336  154.7051 H   0  0  0  0  0  0  0  0  0  0  0  0  # atno 10764 bound_to 10752
  153.7488  135.6999  153.5006 H   0  0  0  0  0  0  0  0  0  0  0  0  # atno 10765 bound_to 10752
  140.0127  134.6272  155.9756 H   0  0  0  0  0  0  0  0  0  0  0  0  # atno 11005 bound_to 11000
  145.1991  139.2261  143.5202 LP  0  0  0  0  0  0  0  0  0  0  0  0  # atno 17320 bound_to 7965
  146.3474  140.1804  142.8589 LP  0  0  0  0  0  0  0  0  0  0  0  0  # atno 17321 bound_to 7965
  140.7316  143.2696  151.3932 LP  0  0  0  0  0  0  0  0  0  0  0  0  # atno 17342 bound_to 10162
  139.6097  144.1123  152.2286 LP  0  0  0  0  0  0  0  0  0  0  0  0  # atno 17343 bound_to 10162
  156.1646  130.3645  149.9250 LP  0  0  0  0  0  0  0  0  0  0  0  0  # atno 17370 bound_to 10713
  156.7240  130.9018  151.3620 LP  0  0  0  0  0  0  0  0  0  0  0  0  # atno 17371 bound_to 10713
  141.1722  133.6538  156.4693 LP  0  0  0  0  0  0  0  0  0  0  0  0  # atno 17394 bound_to 11000
  140.4526  134.6915  157.5047 LP  0  0  0  0  0  0  0  0  0  0  0  0  # atno 17395 bound_to 11000

$$$$
