AV-unprocessed.smi:3085|AV-procd|sdf|11762|dock6
  -GOLD-   2272017143D 1   1.00000     0.00000
 Structure written by MMmdl.
 26 27  0  0  0  0  0  0  0  0  2 V2000
  152.9702  142.9844  160.1150 C   0  0  0  0  0  0  0  0  0  0  0  0
  153.7338  141.7282  159.6833 C   0  0  0  0  0  0  0  0  0  0  0  0
  152.9932  140.9491  158.6187 C   0  0  0  0  0  0  0  0  0  0  0  0
  151.8341  141.2946  158.0680 N   0  0  0  0  0  0  0  0  0  0  0  0
  151.5610  140.3431  157.1628 C   0  0  0  0  0  0  0  0  0  0  0  0
  150.3421  140.3276  156.2614 C   0  0  2  0  0  0  0  0  0  0  0  0
  150.7517  140.2729  154.7754 C   0  0  0  0  0  0  0  0  0  0  0  0
  149.5696  140.2668  153.9135 N   0  0  0  0  0  0  0  0  0  0  0  0
  148.6983  141.4038  154.2012 C   0  0  0  0  0  0  0  0  0  0  0  0
  148.3350  141.4326  155.6956 C   0  0  0  0  0  0  0  0  0  0  0  0
  149.5264  141.4786  156.4721 O   0  0  0  0  0  0  0  0  0  0  0  0
  152.5448  139.4310  157.1235 N   0  0  0  0  0  0  0  0  0  0  0  0
  153.4206  139.8192  158.0281 N   0  5  0  0  0  0  0  0  0  0  0  0
  153.5172  143.5269  160.8859 H   0  0  0  0  0  0  0  0  0  0  0  0
  151.9906  142.7268  160.5183 H   0  0  0  0  0  0  0  0  0  0  0  0
  152.8191  143.6603  159.2730 H   0  0  0  0  0  0  0  0  0  0  0  0
  154.7173  142.0017  159.2997 H   0  0  0  0  0  0  0  0  0  0  0  0
  153.9004  141.0786  160.5433 H   0  0  0  0  0  0  0  0  0  0  0  0
  149.7646  139.4366  156.5164 H   0  0  0  0  0  0  0  0  0  0  0  0
  151.3801  141.1319  154.5365 H   0  0  0  0  0  0  0  0  0  0  0  0
  151.3529  139.3835  154.5854 H   0  0  0  0  0  0  0  0  0  0  0  0
  149.8601  140.2983  152.9416 H   0  0  0  0  0  0  0  0  0  0  0  0
  149.1989  142.3334  153.9282 H   0  0  0  0  0  0  0  0  0  0  0  0
  147.7935  141.3447  153.5961 H   0  0  0  0  0  0  0  0  0  0  0  0
  147.7354  142.3152  155.9182 H   0  0  0  0  0  0  0  0  0  0  0  0
  147.7364  140.5630  155.9716 H   0  0  0  0  0  0  0  0  0  0  0  0
  1  2  1  0  0  0  0
  1 14  1  0  0  0  0
  1 15  1  0  0  0  0
  1 16  1  0  0  0  0
  2  3  1  0  0  0  0
  2 17  1  0  0  0  0
  2 18  1  0  0  0  0
  3 13  1  0  0  0  0
  3  4  2  0  0  0  0
  4  5  1  0  0  0  0
  5  6  1  0  0  0  0
  5 12  2  0  0  0  0
  6 11  1  0  0  0  0
  6  7  1  0  0  0  0
  6 19  1  0  0  0  0
  7  8  1  0  0  0  0
  7 20  1  0  0  0  0
  7 21  1  0  0  0  0
  8  9  1  0  0  0  0
  8 22  1  0  0  0  0
  9 10  1  0  0  0  0
  9 23  1  0  0  0  0
  9 24  1  0  0  0  0
 10 11  1  0  0  0  0
 10 25  1  0  0  0  0
 10 26  1  0  0  0  0
 12 13  1  0  0  0  0
M  CHG  1  13  -1
M  END
> <s_m_source_file>
AV-unprocessed.smi

> <i_m_source_file_index>
3085

> <i_lp_mmshare_version>
43012

> <i_f3d_flags>
0

> <s_epik_input>
W0NIM11bQ0gyXWMxbmMobltuSF0xKVtDQEBIXTJbQ0gyXVtOSF1bQ0gyXVtDSDJdTzI=

> <s_epik_cmdline>
J2VwaWtfcHl0aG9uJywgJy1waCcsICc3LjAnLCAnLXRuJywgJzgnLCAnLW1hJywgJzIwMCcsICctbWV0YWxfYmluZGluZycsICctaW1hZScsICc8aW5maWxlLm1hZT4nLCAnLW9tYWUnLCAnPG91dGZpbGUubWFlPic=

> <r_lp_tautomer_probability>
0.948284

> <r_epik_Ionization_Penalty>
17.858

> <r_epik_Ionization_Penalty_Charging>
16.2847

> <r_epik_Ionization_Penalty_Neutral>
1.5733

> <r_epik_State_Penalty>
7.01418

> <r_epik_Charging_Adjusted_Penalty>
23.2989

> <i_epik_Tot_Q>
-1

> <i_epik_Tot_abs_Q>
1

> <r_epik_Metal_State_Penalty>
3.17281

> <b_epik_Metal_Only>
1

> <s_lp_Force_Field>
OPLS_2005

> <r_lp_Energy>
10.8419

> <b_lp_Chiralities_Consistent>
1

> <s_lp_Variant>
AV-unprocessed.smi:3085-13

> <Gold.Version>
5.8.1

> <Gold.Id.Protein>
6NUR|6NUR_protein|mol2

> <Gold.PLP.Fitness>
31.1314

> <Gold.PLP.PLP>
-22.1848

> <Gold.PLP.part.hbond>
-3.2863

> <Gold.PLP.part.metal>
0.0000

> <Gold.PLP.part.buried>
-0.1064

> <Gold.PLP.part.nonpolar>
-18.8396

> <Gold.PLP.part.repulsive>
0.0881

> <Gold.PLP.ligand.clash>
0.0000

> <Gold.PLP.ligand.torsion>
0.0345

> <Gold.PLP.Chemscore.Hbond>
3.0000

> <Gold.PLP.Chemscore.CHOScore>
0.0000

> <Gold.PLP.Chemscore.Metal>
0.0000

> <Gold.Chemscore.Hbonds>
donor molecule, donor type, donor heavy atom, donor atom, acceptor molecule, acceptor atom, score
      L1  H     8    22       P1  7957  1.00
      P1  H  7997  8010       L1    13  2.00

> <Gold.PLP.Chemscore.Internal.Correction>
0.0154

> <Gold.Rescore>
     Score         DG    S(hbond)    S(metal)    S(lipo)     H(rot)  DE(clash)    DE(int)     intcor
     12.38     -12.63       1.57        0.00      43.92       1.26       0.14       0.12       ----

> <Gold.Chemscore.Fitness>
12.3755

> <Gold.Chemscore.DG>
-12.6312

> <Gold.Chemscore.ZeroCoef>
-5.4800

> <Gold.Chemscore.Hbond>
1.5706

> <Gold.Chemscore.Metal>
0.0000

> <Gold.Chemscore.Lipo>
43.9203

> <Gold.Chemscore.Internal_Hbond>
0.0000

> <Gold.Chemscore.DEClash>
0.1363

> <Gold.Chemscore.DEInternal>
0.1193

> <Gold.Chemscore.Rot>
1.2630

> <Gold.Chemscore.Internal.Correction>
   9.000000E+99

> <Gold.Chemscore.Hbonds>
donor molecule, donor type, donor heavy atom, donor atom, acceptor molecule, acceptor atom, score
      L1  H     8    22       P1  7957  0.98
      P1  H  7997  8010       L1    13  0.32

> <Gold.Chemscore.Hbond.Weighted>
-5.2458

> <Gold.Chemscore.Metal.Weighted>
-0.0000

> <Gold.Chemscore.Lipo.Weighted>
-5.1387

> <Gold.Chemscore.Internal_Hbond.Weighted>
0.0000

> <Gold.Chemscore.DEClash.Weighted>
0.1363

> <Gold.Chemscore.DEInternal.Weighted>
0.1193

> <Gold.Chemscore.Rot.Weighted>
3.2333

> <Gold.Chemscore.Internal.Correction.Weighted>
   9.000000E+99

> <Gold.Protein.RotatedTorsions>
[ 6907 6896 6895 6894 ] final  -37.49 input  -60.11 | X-H torsion
[ 7974 7965 7964 7962 ] final  121.76 input  175.53 | X-H torsion
[ 8008 7997 7996 7995 ] final   20.47 input   59.86 | X-H torsion
[ 10167 10162 10161 10158 ] final  -46.55 input  -65.29 | X-H torsion
[ 10718 10713 10712 10709 ] final  -16.75 input   66.30 | X-H torsion
[ 10763 10752 10751 10750 ] final   62.52 input  -60.55 | X-H torsion
[ 11005 11000 10999 10996 ] final  115.79 input  -57.11 | X-H torsion

> <Gold.Protein.ActiveResidues>
 VAL166  LYS551  ARG553  GLY616  TRP617  ASP618  TYR619  PRO620  LYS621  CYS622 
 ASP623  PHE694  ASN695  SER759  ASP760  ASP761  ALA762  ILE779  LEU786  VAL792 
 PHE793  MET794  SER795  GLU796  ALA797  LYS798  CYS799  TRP800  GLU811  SER814 

> <Gold.Protein.RotatedAtoms>
  151.0141  134.9419  159.8022 H   0  0  0  0  0  0  0  0  0  0  0  0  # atno 6907 bound_to 6896
  152.5309  134.2990  159.9081 H   0  0  0  0  0  0  0  0  0  0  0  0  # atno 6908 bound_to 6896
  151.2996  133.4086  159.2673 H   0  0  0  0  0  0  0  0  0  0  0  0  # atno 6909 bound_to 6896
  145.1155  139.3424  143.4741 H   0  0  0  0  0  0  0  0  0  0  0  0  # atno 7974 bound_to 7965
  154.9360  140.3047  155.5144 H   0  0  0  0  0  0  0  0  0  0  0  0  # atno 8008 bound_to 7997
  156.3000  140.2345  156.4362 H   0  0  0  0  0  0  0  0  0  0  0  0  # atno 8009 bound_to 7997
  154.8191  140.0424  157.1386 H   0  0  0  0  0  0  0  0  0  0  0  0  # atno 8010 bound_to 7997
  140.6812  143.2825  151.3799 H   0  0  0  0  0  0  0  0  0  0  0  0  # atno 10167 bound_to 10162
  156.5831  130.4779  149.6311 H   0  0  0  0  0  0  0  0  0  0  0  0  # atno 10718 bound_to 10713
  152.9986  135.5462  154.6206 H   0  0  0  0  0  0  0  0  0  0  0  0  # atno 10763 bound_to 10752
  154.5506  135.2826  155.1014 H   0  0  0  0  0  0  0  0  0  0  0  0  # atno 10764 bound_to 10752
  154.2255  135.6443  153.5211 H   0  0  0  0  0  0  0  0  0  0  0  0  # atno 10765 bound_to 10752
  139.9021  134.9589  156.7099 H   0  0  0  0  0  0  0  0  0  0  0  0  # atno 11005 bound_to 11000
  146.3524  140.1093  142.8604 LP  0  0  0  0  0  0  0  0  0  0  0  0  # atno 17320 bound_to 7965
  145.0798  140.9213  143.4832 LP  0  0  0  0  0  0  0  0  0  0  0  0  # atno 17321 bound_to 7965
  139.6137  144.1047  152.2324 LP  0  0  0  0  0  0  0  0  0  0  0  0  # atno 17342 bound_to 10162
  140.0469  144.5964  150.7367 LP  0  0  0  0  0  0  0  0  0  0  0  0  # atno 17343 bound_to 10162
  156.2614  130.6964  151.1734 LP  0  0  0  0  0  0  0  0  0  0  0  0  # atno 17370 bound_to 10713
  157.7322  131.0602  150.5642 LP  0  0  0  0  0  0  0  0  0  0  0  0  # atno 17371 bound_to 10713
  140.7084  133.9245  155.8068 LP  0  0  0  0  0  0  0  0  0  0  0  0  # atno 17394 bound_to 11000
  141.0319  134.0744  157.4004 LP  0  0  0  0  0  0  0  0  0  0  0  0  # atno 17395 bound_to 11000

$$$$
