AV-unprocessed.smi:338|AV-procd|sdf|2375|dock8
  -GOLD-   2262022293D 1   1.00000     0.00000
 Structure written by MMmdl.
 41 43  0  0  0  0  0  0  0  0  1 V2000
  145.2161  145.5790  152.1565 C   0  0  0  0  0  0  0  0  0  0  0  0
  144.4653  145.2385  153.4430 C   0  0  0  0  0  0  0  0  0  0  0  0
  143.4872  145.9183  153.7522 O   0  0  0  0  0  0  0  0  0  0  0  0
  144.9634  144.0928  154.2578 C   0  0  0  0  0  0  0  0  0  0  0  0
  144.2837  143.6587  155.4197 C   0  0  0  0  0  0  0  0  0  0  0  0
  144.7767  142.5736  156.1670 C   0  0  0  0  0  0  0  0  0  0  0  0
  145.9510  141.9133  155.7633 C   0  0  0  0  0  0  0  0  0  0  0  0
  146.6477  142.3266  154.6111 C   0  0  0  0  0  0  0  0  0  0  0  0
  147.7893  141.6244  154.2887 O   0  0  0  0  0  0  0  0  0  0  0  0
  148.0981  140.4557  155.0372 C   0  0  0  0  0  0  0  0  0  0  0  0
  149.6238  140.2968  155.1071 C   0  0  1  0  0  0  0  0  0  0  0  0
  150.0970  139.9332  153.8251 O   0  0  0  0  0  0  0  0  0  0  0  0
  150.3289  141.5842  155.5773 C   0  0  0  0  0  0  0  0  0  0  0  0
  150.9059  141.4504  156.9030 N   0  0  0  0  0  0  0  0  0  0  0  0
  151.0636  140.3151  157.6108 C   0  0  0  0  0  0  0  0  0  0  0  0
  151.6205  140.4197  158.8140 N   0  0  0  0  0  0  0  0  0  0  0  0
  151.8562  141.7814  158.8954 C   0  0  0  0  0  0  0  0  0  0  0  0
  152.4357  142.5522  159.9286 C   0  0  0  0  0  0  0  0  0  0  0  0
  152.5755  143.9485  159.7859 C   0  0  0  0  0  0  0  0  0  0  0  0
  152.1392  144.5946  158.6109 C   0  0  0  0  0  0  0  0  0  0  0  0
  151.5593  143.8478  157.5675 C   0  0  0  0  0  0  0  0  0  0  0  0
  151.4212  142.4550  157.7141 C   0  0  0  0  0  0  0  0  0  0  0  0
  146.1438  143.4203  153.8621 C   0  0  0  0  0  0  0  0  0  0  0  0
  146.2541  145.8317  152.3743 H   0  0  0  0  0  0  0  0  0  0  0  0
  144.7547  146.4332  151.6602 H   0  0  0  0  0  0  0  0  0  0  0  0
  145.1965  144.7339  151.4681 H   0  0  0  0  0  0  0  0  0  0  0  0
  143.3797  144.1427  155.7576 H   0  0  0  0  0  0  0  0  0  0  0  0
  144.2520  142.2465  157.0526 H   0  0  0  0  0  0  0  0  0  0  0  0
  146.3213  141.0815  156.3445 H   0  0  0  0  0  0  0  0  0  0  0  0
  147.6937  140.5557  156.0460 H   0  0  0  0  0  0  0  0  0  0  0  0
  147.6508  139.5721  154.5783 H   0  0  0  0  0  0  0  0  0  0  0  0
  149.8629  139.4783  155.7874 H   0  0  0  0  0  0  0  0  0  0  0  0
  149.5050  140.2841  153.1772 H   0  0  0  0  0  0  0  0  0  0  0  0
  151.1191  141.8629  154.8784 H   0  0  0  0  0  0  0  0  0  0  0  0
  149.6246  142.4165  155.5980 H   0  0  0  0  0  0  0  0  0  0  0  0
  150.7488  139.3578  157.2215 H   0  0  0  0  0  0  0  0  0  0  0  0
  152.7741  142.0678  160.8325 H   0  0  0  0  0  0  0  0  0  0  0  0
  153.0206  144.5267  160.5823 H   0  0  0  0  0  0  0  0  0  0  0  0
  152.2510  145.6643  158.5108 H   0  0  0  0  0  0  0  0  0  0  0  0
  151.2244  144.3389  156.6658 H   0  0  0  0  0  0  0  0  0  0  0  0
  146.6576  143.7557  152.9738 H   0  0  0  0  0  0  0  0  0  0  0  0
  1  2  1  0  0  0  0
  1 24  1  0  0  0  0
  1 25  1  0  0  0  0
  1 26  1  0  0  0  0
  2  3  2  0  0  0  0
  2  4  1  0  0  0  0
  4 23  1  0  0  0  0
  4  5  2  0  0  0  0
  5  6  1  0  0  0  0
  5 27  1  0  0  0  0
  6  7  2  0  0  0  0
  6 28  1  0  0  0  0
  7  8  1  0  0  0  0
  7 29  1  0  0  0  0
  8  9  1  0  0  0  0
  8 23  2  0  0  0  0
  9 10  1  0  0  0  0
 10 11  1  0  0  0  0
 10 30  1  0  0  0  0
 10 31  1  0  0  0  0
 11 12  1  0  0  0  0
 11 13  1  0  0  0  0
 11 32  1  0  0  0  0
 12 33  1  0  0  0  0
 13 14  1  0  0  0  0
 13 34  1  0  0  0  0
 13 35  1  0  0  0  0
 14 22  1  0  0  0  0
 14 15  1  0  0  0  0
 15 16  2  0  0  0  0
 15 36  1  0  0  0  0
 16 17  1  0  0  0  0
 17 22  2  0  0  0  0
 17 18  1  0  0  0  0
 18 19  2  0  0  0  0
 18 37  1  0  0  0  0
 19 20  1  0  0  0  0
 19 38  1  0  0  0  0
 20 21  2  0  0  0  0
 20 39  1  0  0  0  0
 21 22  1  0  0  0  0
 21 40  1  0  0  0  0
 23 41  1  0  0  0  0
M  END
> <s_m_source_file>
AV-unprocessed.smi

> <i_m_source_file_index>
338

> <i_lp_mmshare_version>
43012

> <i_f3d_flags>
0

> <s_epik_input>
W0NIM11DKD1PKWMxW2NIXVtjSF1bY0hdYyhbY0hdMSlPW0NIMl1bQ0BIXShbT0hdKVtDSDJdbihbY0hdbjIpYyhjMjMpW2NIXVtjSF1bY0hdW2NIXTM=

> <s_epik_cmdline>
J2VwaWtfcHl0aG9uJywgJy1waCcsICc3LjAnLCAnLXRuJywgJzgnLCAnLW1hJywgJzIwMCcsICctbWV0YWxfYmluZGluZycsICctaW1hZScsICc8aW5maWxlLm1hZT4nLCAnLW9tYWUnLCAnPG91dGZpbGUubWFlPic=

> <r_lp_tautomer_probability>
0.99995

> <r_epik_Ionization_Penalty>
0.0640132

> <r_epik_Ionization_Penalty_Charging>
0

> <r_epik_Ionization_Penalty_Neutral>
0.0640132

> <r_epik_State_Penalty>
0.0557325

> <r_epik_Charging_Adjusted_Penalty>
0.0557325

> <i_epik_Tot_Q>
0

> <i_epik_Tot_abs_Q>
0

> <r_epik_Metal_State_Penalty>
5.8435e-05

> <b_epik_Metal_Only>
0

> <s_lp_Force_Field>
OPLS_2005

> <r_lp_Energy>
20.9332

> <b_lp_Chiralities_Consistent>
1

> <s_lp_Variant>
AV-unprocessed.smi:338-2

> <Gold.Version>
5.8.1

> <Gold.Id.Protein>
6NUR|6NUR_protein|mol2

> <Gold.PLP.Fitness>
55.7222

> <Gold.PLP.PLP>
-55.3325

> <Gold.PLP.part.hbond>
-3.4166

> <Gold.PLP.part.metal>
0.0000

> <Gold.PLP.part.buried>
-5.5503

> <Gold.PLP.part.nonpolar>
-44.9954

> <Gold.PLP.part.repulsive>
0.2415

> <Gold.PLP.ligand.clash>
1.9873

> <Gold.PLP.ligand.torsion>
1.1307

> <Gold.PLP.Chemscore.Hbond>
1.4880

> <Gold.PLP.Chemscore.CHOScore>
0.0000

> <Gold.PLP.Chemscore.Metal>
0.0000

> <Gold.Chemscore.Hbonds>
donor molecule, donor type, donor heavy atom, donor atom, acceptor molecule, acceptor atom, score
      L1  H    12    33       P1  7957  0.54
      P1  H  7989  7998       L1    12  0.88

> <Gold.PLP.Chemscore.Internal.Correction>
0.1745

> <Gold.Rescore>
     Score         DG    S(hbond)    S(metal)    S(lipo)     H(rot)  DE(clash)    DE(int)     intcor
     14.78     -16.44       0.67        0.00     126.98       2.40       0.54       1.12       ----

> <Gold.Chemscore.Fitness>
14.7766

> <Gold.Chemscore.DG>
-16.4360

> <Gold.Chemscore.ZeroCoef>
-5.4800

> <Gold.Chemscore.Hbond>
0.6722

> <Gold.Chemscore.Metal>
0.0000

> <Gold.Chemscore.Lipo>
126.9767

> <Gold.Chemscore.Internal_Hbond>
0.0000

> <Gold.Chemscore.DEClash>
0.5381

> <Gold.Chemscore.DEInternal>
1.1212

> <Gold.Chemscore.Rot>
2.4005

> <Gold.Chemscore.Internal.Correction>
   9.000000E+99

> <Gold.Chemscore.Hbonds>
donor molecule, donor type, donor heavy atom, donor atom, acceptor molecule, acceptor atom, score
      L1  H    12    33       P1  7957  0.50
      P1  H  7989  7998       L1    12  0.18

> <Gold.Chemscore.Hbond.Weighted>
-2.2450

> <Gold.Chemscore.Metal.Weighted>
-0.0000

> <Gold.Chemscore.Lipo.Weighted>
-14.8563

> <Gold.Chemscore.Internal_Hbond.Weighted>
0.0000

> <Gold.Chemscore.DEClash.Weighted>
0.5381

> <Gold.Chemscore.DEInternal.Weighted>
1.1212

> <Gold.Chemscore.Rot.Weighted>
6.1453

> <Gold.Chemscore.Internal.Correction.Weighted>
   9.000000E+99

> <Gold.Protein.RotatedTorsions>
[ 6907 6896 6895 6894 ] final   95.78 input  -60.11 | X-H torsion
[ 7974 7965 7964 7962 ] final   42.49 input  175.53 | X-H torsion
[ 8008 7997 7996 7995 ] final -102.65 input   59.86 | X-H torsion
[ 10167 10162 10161 10158 ] final  110.82 input  -65.29 | X-H torsion
[ 10718 10713 10712 10709 ] final   22.69 input   66.30 | X-H torsion
[ 10763 10752 10751 10750 ] final   84.20 input  -60.55 | X-H torsion
[ 11005 11000 10999 10996 ] final  171.40 input  -57.11 | X-H torsion

> <Gold.Protein.ActiveResidues>
 VAL166  LYS551  ARG553  GLY616  TRP617  ASP618  TYR619  PRO620  LYS621  CYS622 
 ASP623  PHE694  ASN695  SER759  ASP760  ASP761  ALA762  ILE779  LEU786  VAL792 
 PHE793  MET794  SER795  GLU796  ALA797  LYS798  CYS799  TRP800  GLU811  SER814 

> <Gold.Protein.RotatedAtoms>
  152.5441  134.0987  159.8308 H   0  0  0  0  0  0  0  0  0  0  0  0  # atno 6907 bound_to 6896
  151.1068  133.5195  159.2615 H   0  0  0  0  0  0  0  0  0  0  0  0  # atno 6908 bound_to 6896
  151.1929  135.0419  159.8894 H   0  0  0  0  0  0  0  0  0  0  0  0  # atno 6909 bound_to 6896
  146.0736  139.5295  142.9582 H   0  0  0  0  0  0  0  0  0  0  0  0  # atno 7974 bound_to 7965
  154.8597  140.0427  157.1657 H   0  0  0  0  0  0  0  0  0  0  0  0  # atno 8008 bound_to 7997
  154.8854  140.2978  155.5380 H   0  0  0  0  0  0  0  0  0  0  0  0  # atno 8009 bound_to 7997
  156.2998  140.2403  156.3862 H   0  0  0  0  0  0  0  0  0  0  0  0  # atno 8010 bound_to 7997
  139.6658  144.7127  151.1779 H   0  0  0  0  0  0  0  0  0  0  0  0  # atno 10167 bound_to 10162
  157.1558  130.6695  149.6027 H   0  0  0  0  0  0  0  0  0  0  0  0  # atno 10718 bound_to 10713
  153.1360  135.4663  154.9422 H   0  0  0  0  0  0  0  0  0  0  0  0  # atno 10763 bound_to 10752
  154.7706  135.3157  154.8200 H   0  0  0  0  0  0  0  0  0  0  0  0  # atno 10764 bound_to 10752
  153.8732  135.6901  153.4826 H   0  0  0  0  0  0  0  0  0  0  0  0  # atno 10765 bound_to 10752
  140.3186  134.7456  157.4046 H   0  0  0  0  0  0  0  0  0  0  0  0  # atno 11005 bound_to 11000
  145.6346  141.0297  143.1844 LP  0  0  0  0  0  0  0  0  0  0  0  0  # atno 17320 bound_to 7965
  144.7247  139.7914  143.7369 LP  0  0  0  0  0  0  0  0  0  0  0  0  # atno 17321 bound_to 7965
  140.7599  143.5921  150.8785 LP  0  0  0  0  0  0  0  0  0  0  0  0  # atno 17342 bound_to 10162
  139.9582  143.6193  152.3010 LP  0  0  0  0  0  0  0  0  0  0  0  0  # atno 17343 bound_to 10162
  155.9762  130.4729  150.6514 LP  0  0  0  0  0  0  0  0  0  0  0  0  # atno 17370 bound_to 10713
  157.4179  131.0832  151.1159 LP  0  0  0  0  0  0  0  0  0  0  0  0  # atno 17371 bound_to 10713
  140.0962  134.5535  155.8396 LP  0  0  0  0  0  0  0  0  0  0  0  0  # atno 17394 bound_to 11000
  141.2092  133.6681  156.6421 LP  0  0  0  0  0  0  0  0  0  0  0  0  # atno 17395 bound_to 11000

$$$$
