AV-unprocessed.smi:2599|AV-procd|sdf|10179|dock1
  -GOLD-   2272014193D 1   1.00000     0.00000
 Structure written by MMmdl.
 40 41  0  0  0  0  0  0  0  0  1 V2000
  154.0183  138.2862  158.4319 C   0  0  0  0  0  0  0  0  0  0  0  0
  153.4085  138.8594  157.2807 O   0  0  0  0  0  0  0  0  0  0  0  0
  152.5220  138.0873  156.5588 C   0  0  0  0  0  0  0  0  0  0  0  0
  151.8197  138.6731  155.4909 C   0  0  0  0  0  0  0  0  0  0  0  0
  150.9264  137.8586  154.7745 C   0  0  0  0  0  0  0  0  0  0  0  0
  150.7869  136.5109  155.1668 C   0  0  0  0  0  0  0  0  0  0  0  0
  149.8734  135.7445  154.3958 N   0  0  0  0  0  0  0  0  0  0  0  0
  149.3137  134.5628  154.7087 C   0  0  0  0  0  0  0  0  0  0  0  0
  149.4748  133.9573  155.7685 O   0  0  0  0  0  0  0  0  0  0  0  0
  148.5412  134.1130  153.7087 N   0  0  0  0  0  0  0  0  0  0  0  0
  147.7764  132.8660  153.7170 C   0  0  2  0  0  0  0  0  0  0  0  0
  148.7458  131.6865  153.9261 C   0  0  0  0  0  0  0  0  0  0  0  0
  146.9421  132.7479  152.4142 C   0  0  0  0  0  0  0  0  0  0  0  0
  146.0565  133.9886  152.1673 C   0  0  0  0  0  0  0  0  0  0  0  0
  145.1912  133.8169  150.9086 C   0  0  0  0  0  0  0  0  0  0  0  0
  144.3914  132.6471  151.0250 O   0  0  0  0  0  0  0  0  0  0  0  0
  145.1685  131.4604  151.1245 C   0  0  0  0  0  0  0  0  0  0  0  0
  146.0342  131.5011  152.3946 C   0  0  0  0  0  0  0  0  0  0  0  0
  151.4992  136.0153  156.2114 N   0  0  0  0  0  0  0  0  0  0  0  0
  152.3514  136.7843  156.8969 N   0  0  0  0  0  0  0  0  0  0  0  0
  154.6889  139.0158  158.8857 H   0  0  0  0  0  0  0  0  0  0  0  0
  154.6114  137.4077  158.1737 H   0  0  0  0  0  0  0  0  0  0  0  0
  153.2757  138.0093  159.1814 H   0  0  0  0  0  0  0  0  0  0  0  0
  151.9626  139.7113  155.2295 H   0  0  0  0  0  0  0  0  0  0  0  0
  150.3644  138.2618  153.9445 H   0  0  0  0  0  0  0  0  0  0  0  0
  149.6319  136.1323  153.4961 H   0  0  0  0  0  0  0  0  0  0  0  0
  148.4703  134.6780  152.8753 H   0  0  0  0  0  0  0  0  0  0  0  0
  147.0817  132.8898  154.5589 H   0  0  0  0  0  0  0  0  0  0  0  0
  148.2138  130.7469  154.0699 H   0  0  0  0  0  0  0  0  0  0  0  0
  149.3625  131.8338  154.8132 H   0  0  0  0  0  0  0  0  0  0  0  0
  149.4157  131.5670  153.0740 H   0  0  0  0  0  0  0  0  0  0  0  0
  147.6369  132.6652  151.5767 H   0  0  0  0  0  0  0  0  0  0  0  0
  145.4092  134.1566  153.0291 H   0  0  0  0  0  0  0  0  0  0  0  0
  146.6650  134.8862  152.0570 H   0  0  0  0  0  0  0  0  0  0  0  0
  144.5357  134.6790  150.7854 H   0  0  0  0  0  0  0  0  0  0  0  0
  145.8123  133.7601  150.0135 H   0  0  0  0  0  0  0  0  0  0  0  0
  144.4963  130.6030  151.1578 H   0  0  0  0  0  0  0  0  0  0  0  0
  145.7886  131.3430  150.2343 H   0  0  0  0  0  0  0  0  0  0  0  0
  146.6282  130.5888  152.4402 H   0  0  0  0  0  0  0  0  0  0  0  0
  145.3881  131.4986  153.2736 H   0  0  0  0  0  0  0  0  0  0  0  0
  1  2  1  0  0  0  0
  1 21  1  0  0  0  0
  1 22  1  0  0  0  0
  1 23  1  0  0  0  0
  2  3  1  0  0  0  0
  3 20  1  0  0  0  0
  3  4  2  0  0  0  0
  4  5  1  0  0  0  0
  4 24  1  0  0  0  0
  5  6  2  0  0  0  0
  5 25  1  0  0  0  0
  6  7  1  0  0  0  0
  6 19  1  0  0  0  0
  7  8  1  0  0  0  0
  7 26  1  0  0  0  0
  8  9  2  0  0  0  0
  8 10  1  0  0  0  0
 10 11  1  0  0  0  0
 10 27  1  0  0  0  0
 11 12  1  0  0  0  0
 11 13  1  0  0  0  0
 11 28  1  0  0  0  0
 12 29  1  0  0  0  0
 12 30  1  0  0  0  0
 12 31  1  0  0  0  0
 13 18  1  0  0  0  0
 13 14  1  0  0  0  0
 13 32  1  0  0  0  0
 14 15  1  0  0  0  0
 14 33  1  0  0  0  0
 14 34  1  0  0  0  0
 15 16  1  0  0  0  0
 15 35  1  0  0  0  0
 15 36  1  0  0  0  0
 16 17  1  0  0  0  0
 17 18  1  0  0  0  0
 17 37  1  0  0  0  0
 17 38  1  0  0  0  0
 18 39  1  0  0  0  0
 18 40  1  0  0  0  0
 19 20  2  0  0  0  0
M  END
> <s_m_source_file>
AV-unprocessed.smi

> <i_m_source_file_index>
2599

> <i_lp_mmshare_version>
43012

> <i_f3d_flags>
0

> <s_epik_input>
W0NIM11PYzFbY0hdW2NIXWMobm4xKVtOSF1DKD1PKVtOSF1bQ0BIXShbQ0gzXSlbQ0hdMltDSDJdW0NIMl1PW0NIMl1bQ0gyXTI=

> <s_epik_cmdline>
J2VwaWtfcHl0aG9uJywgJy1waCcsICc3LjAnLCAnLXRuJywgJzgnLCAnLW1hJywgJzIwMCcsICctbWV0YWxfYmluZGluZycsICctaW1hZScsICc8aW5maWxlLm1hZT4nLCAnLW9tYWUnLCAnPG91dGZpbGUubWFlPic=

> <r_lp_tautomer_probability>
1

> <r_epik_Ionization_Penalty>
0.00150063

> <r_epik_Ionization_Penalty_Charging>
0

> <r_epik_Ionization_Penalty_Neutral>
0.00150063

> <r_epik_State_Penalty>
-0

> <r_epik_Charging_Adjusted_Penalty>
0

> <i_epik_Tot_Q>
0

> <i_epik_Tot_abs_Q>
0

> <r_epik_Metal_State_Penalty>
-0

> <b_epik_Metal_Only>
0

> <s_lp_Force_Field>
OPLS_2005

> <r_lp_Energy>
16.4266

> <b_lp_Chiralities_Consistent>
1

> <s_lp_Variant>
AV-unprocessed.smi:2599-1

> <Gold.Version>
5.8.1

> <Gold.Id.Protein>
6NUR|6NUR_protein|mol2

> <Gold.PLP.Fitness>
40.1274

> <Gold.PLP.PLP>
-30.5052

> <Gold.PLP.part.hbond>
-5.0919

> <Gold.PLP.part.metal>
0.0000

> <Gold.PLP.part.buried>
-3.2212

> <Gold.PLP.part.nonpolar>
-23.2176

> <Gold.PLP.part.repulsive>
0.2356

> <Gold.PLP.ligand.clash>
0.0000

> <Gold.PLP.ligand.torsion>
0.1228

> <Gold.PLP.Chemscore.Hbond>
3.2700

> <Gold.PLP.Chemscore.CHOScore>
0.0000

> <Gold.PLP.Chemscore.Metal>
0.0000

> <Gold.Chemscore.Hbonds>
donor molecule, donor type, donor heavy atom, donor atom, acceptor molecule, acceptor atom, score
      L1  H     7    26       P1  7948  1.00
      L1  H    10    27       P1  7948  1.00
      P1  H  7997  8010       L1     2  1.00
      P1  H 10752 10763       L1    19  0.22

> <Gold.PLP.Chemscore.Internal.Correction>
0.0578

> <Gold.Rescore>
     Score         DG    S(hbond)    S(metal)    S(lipo)     H(rot)  DE(clash)    DE(int)     intcor
     14.98     -16.46       2.49        0.00      56.81       1.55       0.04       1.44       ----

> <Gold.Chemscore.Fitness>
14.9834

> <Gold.Chemscore.DG>
-16.4621

> <Gold.Chemscore.ZeroCoef>
-5.4800

> <Gold.Chemscore.Hbond>
2.4856

> <Gold.Chemscore.Metal>
0.0000

> <Gold.Chemscore.Lipo>
56.8051

> <Gold.Chemscore.Internal_Hbond>
0.0000

> <Gold.Chemscore.DEClash>
0.0414

> <Gold.Chemscore.DEInternal>
1.4373

> <Gold.Chemscore.Rot>
1.5492

> <Gold.Chemscore.Internal.Correction>
   9.000000E+99

> <Gold.Chemscore.Hbonds>
donor molecule, donor type, donor heavy atom, donor atom, acceptor molecule, acceptor atom, score
      L1  H     7    26       P1  7948  0.30
      L1  H    10    27       P1  7948  0.33
      P1  H  7997  8010       L1     2  0.55

> <Gold.Chemscore.Hbond.Weighted>
-8.3018

> <Gold.Chemscore.Metal.Weighted>
-0.0000

> <Gold.Chemscore.Lipo.Weighted>
-6.6462

> <Gold.Chemscore.Internal_Hbond.Weighted>
0.0000

> <Gold.Chemscore.DEClash.Weighted>
0.0414

> <Gold.Chemscore.DEInternal.Weighted>
1.4373

> <Gold.Chemscore.Rot.Weighted>
3.9659

> <Gold.Chemscore.Internal.Correction.Weighted>
   9.000000E+99

> <Gold.Protein.RotatedTorsions>
[ 6907 6896 6895 6894 ] final   76.99 input  -60.11 | X-H torsion
[ 7974 7965 7964 7962 ] final   53.98 input  175.53 | X-H torsion
[ 8008 7997 7996 7995 ] final   51.91 input   59.86 | X-H torsion
[ 10167 10162 10161 10158 ] final   49.02 input  -65.29 | X-H torsion
[ 10718 10713 10712 10709 ] final   43.12 input   66.30 | X-H torsion
[ 10763 10752 10751 10750 ] final   87.61 input  -60.55 | X-H torsion
[ 11005 11000 10999 10996 ] final  157.89 input  -57.11 | X-H torsion

> <Gold.Protein.ActiveResidues>
 VAL166  LYS551  ARG553  GLY616  TRP617  ASP618  TYR619  PRO620  LYS621  CYS622 
 ASP623  PHE694  ASN695  SER759  ASP760  ASP761  ALA762  ILE779  LEU786  VAL792 
 PHE793  MET794  SER795  GLU796  ALA797  LYS798  CYS799  TRP800  GLU811  SER814 

> <Gold.Protein.RotatedAtoms>
  152.5098  134.3885  159.9375 H   0  0  0  0  0  0  0  0  0  0  0  0  # atno 6907 bound_to 6896
  151.3844  133.3804  159.2721 H   0  0  0  0  0  0  0  0  0  0  0  0  # atno 6908 bound_to 6896
  150.9480  134.8903  159.7713 H   0  0  0  0  0  0  0  0  0  0  0  0  # atno 6909 bound_to 6896
  145.9656  139.4100  143.0221 H   0  0  0  0  0  0  0  0  0  0  0  0  # atno 7974 bound_to 7965
  155.4430  140.3455  155.4292 H   0  0  0  0  0  0  0  0  0  0  0  0  # atno 8008 bound_to 7997
  156.1267  140.1502  156.9156 H   0  0  0  0  0  0  0  0  0  0  0  0  # atno 8009 bound_to 7997
  154.4863  140.0854  156.7474 H   0  0  0  0  0  0  0  0  0  0  0  0  # atno 8010 bound_to 7997
  140.2872  144.3088  150.6249 H   0  0  0  0  0  0  0  0  0  0  0  0  # atno 10167 bound_to 10162
  157.4124  130.7922  149.7442 H   0  0  0  0  0  0  0  0  0  0  0  0  # atno 10718 bound_to 10713
  153.1686  135.4537  154.9871 H   0  0  0  0  0  0  0  0  0  0  0  0  # atno 10763 bound_to 10752
  154.7950  135.3234  154.7691 H   0  0  0  0  0  0  0  0  0  0  0  0  # atno 10764 bound_to 10752
  153.8171  135.6950  153.4887 H   0  0  0  0  0  0  0  0  0  0  0  0  # atno 10765 bound_to 10752
  140.1813  134.8474  157.2806 H   0  0  0  0  0  0  0  0  0  0  0  0  # atno 11005 bound_to 11000
  145.7979  140.9784  143.1014 LP  0  0  0  0  0  0  0  0  0  0  0  0  # atno 17320 bound_to 7965
  144.6825  139.9764  143.7483 LP  0  0  0  0  0  0  0  0  0  0  0  0  # atno 17321 bound_to 7965
  140.5762  143.2176  151.7510 LP  0  0  0  0  0  0  0  0  0  0  0  0  # atno 17342 bound_to 10162
  139.4947  144.4146  152.0044 LP  0  0  0  0  0  0  0  0  0  0  0  0  # atno 17343 bound_to 10162
  155.9855  130.3983  150.3260 LP  0  0  0  0  0  0  0  0  0  0  0  0  # atno 17370 bound_to 10713
  157.1400  131.0294  151.2932 LP  0  0  0  0  0  0  0  0  0  0  0  0  # atno 17371 bound_to 10713
  140.2264  134.3961  155.7541 LP  0  0  0  0  0  0  0  0  0  0  0  0  # atno 17394 bound_to 11000
  141.2223  133.7192  156.8572 LP  0  0  0  0  0  0  0  0  0  0  0  0  # atno 17395 bound_to 11000

$$$$
