AV-unprocessed.smi:3251|AV-procd|sdf|12435|dock8
  -GOLD-   2272018323D 1   1.00000     0.00000
 Structure written by MMmdl.
 41 42  0  0  0  0  0  0  0  0  2 V2000
  154.7509  140.4354  161.9085 C   0  0  0  0  0  0  0  0  0  0  0  0
  153.9691  141.5454  161.2670 C   0  0  0  0  0  0  0  0  0  0  0  0
  153.1661  142.5327  161.9058 C   0  0  0  0  0  0  0  0  0  0  0  0
  152.6018  143.3690  161.0497 N   0  0  0  0  0  0  0  0  0  0  0  0
  153.0246  142.9479  159.8388 N   0  0  0  0  0  0  0  0  0  0  0  0
  152.5758  143.6311  158.6390 C   0  0  0  0  0  0  0  0  0  0  0  0
  151.0556  143.5112  158.4537 C   0  0  0  0  0  0  0  0  0  0  0  0
  150.7184  142.9694  157.1187 N   0  3  0  0  0  0  0  0  0  0  0  0
  150.0597  141.6440  157.1217 C   0  0  2  0  0  0  0  0  0  0  0  0
  150.9746  140.6247  157.8192 C   0  0  0  0  0  0  0  0  0  0  0  0
  149.7444  141.1735  155.6870 C   0  0  0  0  0  0  0  0  0  0  0  0
  150.6269  140.6064  155.0402 O   0  0  0  0  0  0  0  0  0  0  0  0
  148.5111  141.3825  155.1778 N   0  0  0  0  0  0  0  0  0  0  0  0
  147.3906  142.0345  155.8560 C   0  0  0  0  0  0  0  0  0  0  0  0
  146.1698  141.7877  154.9697 C   0  0  0  0  0  0  0  0  0  0  0  0
  146.7530  141.5972  153.5772 C   0  0  0  0  0  0  0  0  0  0  0  0
  148.1230  140.9681  153.8303 C   0  0  0  0  0  0  0  0  0  0  0  0
  153.8515  141.8496  159.9403 C   0  0  0  0  0  0  0  0  0  0  0  0
  154.9304  140.6253  162.9670 H   0  0  0  0  0  0  0  0  0  0  0  0
  155.7249  140.3030  161.4371 H   0  0  0  0  0  0  0  0  0  0  0  0
  154.2263  139.4825  161.8370 H   0  0  0  0  0  0  0  0  0  0  0  0
  152.9765  142.6640  162.9612 H   0  0  0  0  0  0  0  0  0  0  0  0
  152.8834  144.6773  158.6831 H   0  0  0  0  0  0  0  0  0  0  0  0
  153.0897  143.1895  157.7844 H   0  0  0  0  0  0  0  0  0  0  0  0
  150.6358  142.8526  159.2145 H   0  0  0  0  0  0  0  0  0  0  0  0
  150.5963  144.4905  158.5948 H   0  0  0  0  0  0  0  0  0  0  0  0
  150.1005  143.6211  156.6543 H   0  0  0  0  0  0  0  0  0  0  0  0
  149.1429  141.7410  157.7036 H   0  0  0  0  0  0  0  0  0  0  0  0
  150.5191  139.6350  157.8596 H   0  0  0  0  0  0  0  0  0  0  0  0
  151.1842  140.9269  158.8458 H   0  0  0  0  0  0  0  0  0  0  0  0
  151.9308  140.5261  157.3030 H   0  0  0  0  0  0  0  0  0  0  0  0
  147.2240  141.6473  156.8615 H   0  0  0  0  0  0  0  0  0  0  0  0
  147.5937  143.1038  155.9306 H   0  0  0  0  0  0  0  0  0  0  0  0
  145.6700  140.8700  155.2832 H   0  0  0  0  0  0  0  0  0  0  0  0
  145.4409  142.5975  155.0169 H   0  0  0  0  0  0  0  0  0  0  0  0
  146.1198  140.9866  152.9325 H   0  0  0  0  0  0  0  0  0  0  0  0
  146.8791  142.5690  153.0979 H   0  0  0  0  0  0  0  0  0  0  0  0
  148.8476  141.2843  153.0781 H   0  0  0  0  0  0  0  0  0  0  0  0
  148.0553  139.8794  153.7991 H   0  0  0  0  0  0  0  0  0  0  0  0
  154.2799  141.3760  159.0689 H   0  0  0  0  0  0  0  0  0  0  0  0
  151.5736  142.9047  156.5860 H   0  0  0  0  0  0  0  0  0  0  0  0
  1  2  1  0  0  0  0
  1 19  1  0  0  0  0
  1 20  1  0  0  0  0
  1 21  1  0  0  0  0
  2 18  2  0  0  0  0
  2  3  1  0  0  0  0
  3  4  2  0  0  0  0
  3 22  1  0  0  0  0
  4  5  1  0  0  0  0
  5  6  1  0  0  0  0
  5 18  1  0  0  0  0
  6  7  1  0  0  0  0
  6 23  1  0  0  0  0
  6 24  1  0  0  0  0
  7  8  1  0  0  0  0
  7 25  1  0  0  0  0
  7 26  1  0  0  0  0
  8  9  1  0  0  0  0
  8 27  1  0  0  0  0
  8 41  1  0  0  0  0
  9 10  1  0  0  0  0
  9 11  1  0  0  0  0
  9 28  1  0  0  0  0
 10 29  1  0  0  0  0
 10 30  1  0  0  0  0
 10 31  1  0  0  0  0
 11 12  2  0  0  0  0
 11 13  1  0  0  0  0
 13 17  1  0  0  0  0
 13 14  1  0  0  0  0
 14 15  1  0  0  0  0
 14 32  1  0  0  0  0
 14 33  1  0  0  0  0
 15 16  1  0  0  0  0
 15 34  1  0  0  0  0
 15 35  1  0  0  0  0
 16 17  1  0  0  0  0
 16 36  1  0  0  0  0
 16 37  1  0  0  0  0
 17 38  1  0  0  0  0
 17 39  1  0  0  0  0
 18 40  1  0  0  0  0
M  CHG  1   8   1
M  END
> <s_m_source_file>
AV-unprocessed.smi

> <i_m_source_file_index>
3251

> <i_lp_mmshare_version>
43012

> <i_f3d_flags>
0

> <s_epik_input>
W0NIM11jMVtjSF1ubihbY0hdMSlbQ0gyXVtDSDJdW05IXVtDQEhdKFtDSDNdKUMoPU8pTjJbQ0gyXVtDSDJdW0NIMl1bQ0gyXTI=

> <s_epik_cmdline>
J2VwaWtfcHl0aG9uJywgJy1waCcsICc3LjAnLCAnLXRuJywgJzgnLCAnLW1hJywgJzIwMCcsICctbWV0YWxfYmluZGluZycsICctaW1hZScsICc8aW5maWxlLm1hZT4nLCAnLW9tYWUnLCAnPG91dGZpbGUubWFlPic=

> <r_lp_tautomer_probability>
1

> <r_epik_Ionization_Penalty>
0.203173

> <r_epik_Ionization_Penalty_Charging>
0.203168

> <r_epik_Ionization_Penalty_Neutral>
5.06494e-06

> <r_epik_State_Penalty>
0.193072

> <r_epik_Charging_Adjusted_Penalty>
0.39624

> <i_epik_Tot_Q>
1

> <i_epik_Tot_abs_Q>
1

> <r_epik_Metal_State_Penalty>
0.193587

> <b_epik_Metal_Only>
0

> <s_lp_Force_Field>
OPLS_2005

> <r_lp_Energy>
29.5605

> <b_lp_Chiralities_Consistent>
1

> <s_lp_Variant>
AV-unprocessed.smi:3251-1

> <Gold.Version>
5.8.1

> <Gold.Id.Protein>
6NUR|6NUR_protein|mol2

> <Gold.PLP.Fitness>
49.7183

> <Gold.PLP.PLP>
-43.5866

> <Gold.PLP.part.hbond>
-2.0000

> <Gold.PLP.part.metal>
0.0000

> <Gold.PLP.part.buried>
-4.0115

> <Gold.PLP.part.nonpolar>
-37.6977

> <Gold.PLP.part.repulsive>
0.1697

> <Gold.PLP.ligand.clash>
0.0000

> <Gold.PLP.ligand.torsion>
1.4129

> <Gold.PLP.Chemscore.Hbond>
2.9760

> <Gold.PLP.Chemscore.CHOScore>
0.0000

> <Gold.PLP.Chemscore.Metal>
0.0000

> <Gold.Chemscore.Hbonds>
donor molecule, donor type, donor heavy atom, donor atom, acceptor molecule, acceptor atom, score
      L1  H     8    27       P1  8028  2.00
      P1  H  7989  7998       L1    12  0.96

> <Gold.PLP.Chemscore.Internal.Correction>
0.0296

> <Gold.Rescore>
     Score         DG    S(hbond)    S(metal)    S(lipo)     H(rot)  DE(clash)    DE(int)     intcor
     17.49     -18.86       1.92        0.00      97.92       1.76       0.01       1.36       ----

> <Gold.Chemscore.Fitness>
17.4919

> <Gold.Chemscore.DG>
-18.8588

> <Gold.Chemscore.ZeroCoef>
-5.4800

> <Gold.Chemscore.Hbond>
1.9245

> <Gold.Chemscore.Metal>
0.0000

> <Gold.Chemscore.Lipo>
97.9180

> <Gold.Chemscore.Internal_Hbond>
0.0000

> <Gold.Chemscore.DEClash>
0.0089

> <Gold.Chemscore.DEInternal>
1.3581

> <Gold.Chemscore.Rot>
1.7599

> <Gold.Chemscore.Internal.Correction>
   9.000000E+99

> <Gold.Chemscore.Hbonds>
donor molecule, donor type, donor heavy atom, donor atom, acceptor molecule, acceptor atom, score
      L1  H     8    27       P1  8028  1.00
      P1  H  7989  7998       L1    12  0.92

> <Gold.Chemscore.Hbond.Weighted>
-6.4277

> <Gold.Chemscore.Metal.Weighted>
-0.0000

> <Gold.Chemscore.Lipo.Weighted>
-11.4564

> <Gold.Chemscore.Internal_Hbond.Weighted>
0.0000

> <Gold.Chemscore.DEClash.Weighted>
0.0089

> <Gold.Chemscore.DEInternal.Weighted>
1.3581

> <Gold.Chemscore.Rot.Weighted>
4.5053

> <Gold.Chemscore.Internal.Correction.Weighted>
   9.000000E+99

> <Gold.Protein.RotatedTorsions>
[ 6907 6896 6895 6894 ] final   24.47 input  -60.11 | X-H torsion
[ 7974 7965 7964 7962 ] final  103.67 input  175.53 | X-H torsion
[ 8008 7997 7996 7995 ] final -113.97 input   59.86 | X-H torsion
[ 10167 10162 10161 10158 ] final  -71.43 input  -65.29 | X-H torsion
[ 10718 10713 10712 10709 ] final  122.53 input   66.30 | X-H torsion
[ 10763 10752 10751 10750 ] final  115.21 input  -60.55 | X-H torsion
[ 11005 11000 10999 10996 ] final   -6.76 input  -57.11 | X-H torsion

> <Gold.Protein.ActiveResidues>
 VAL166  LYS551  ARG553  GLY616  TRP617  ASP618  TYR619  PRO620  LYS621  CYS622 
 ASP623  PHE694  ASN695  SER759  ASP760  ASP761  ALA762  ILE779  LEU786  VAL792 
 PHE793  MET794  SER795  GLU796  ALA797  LYS798  CYS799  TRP800  GLU811  SER814 

> <Gold.Protein.RotatedAtoms>
  151.9580  135.0137  160.0545 H   0  0  0  0  0  0  0  0  0  0  0  0  # atno 6907 bound_to 6896
  152.1894  133.4757  159.5008 H   0  0  0  0  0  0  0  0  0  0  0  0  # atno 6908 bound_to 6896
  150.6932  134.1649  159.4233 H   0  0  0  0  0  0  0  0  0  0  0  0  # atno 6909 bound_to 6896
  145.3429  139.2458  143.3599 H   0  0  0  0  0  0  0  0  0  0  0  0  # atno 7974 bound_to 7965
  155.0290  140.0393  157.2467 H   0  0  0  0  0  0  0  0  0  0  0  0  # atno 8008 bound_to 7997
  154.7313  140.2731  155.6430 H   0  0  0  0  0  0  0  0  0  0  0  0  # atno 8009 bound_to 7997
  156.2842  140.2683  156.2013 H   0  0  0  0  0  0  0  0  0  0  0  0  # atno 8010 bound_to 7997
  140.5274  143.2325  151.7324 H   0  0  0  0  0  0  0  0  0  0  0  0  # atno 10167 bound_to 10162
  157.5735  131.1081  150.8323 H   0  0  0  0  0  0  0  0  0  0  0  0  # atno 10718 bound_to 10713
  153.5187  135.3602  155.2621 H   0  0  0  0  0  0  0  0  0  0  0  0  # atno 10763 bound_to 10752
  154.8736  135.4040  154.3284 H   0  0  0  0  0  0  0  0  0  0  0  0  # atno 10764 bound_to 10752
  153.3951  135.7073  153.6533 H   0  0  0  0  0  0  0  0  0  0  0  0  # atno 10765 bound_to 10752
  140.7054  133.8953  155.8713 H   0  0  0  0  0  0  0  0  0  0  0  0  # atno 11005 bound_to 11000
  146.3000  140.4030  142.8707 LP  0  0  0  0  0  0  0  0  0  0  0  0  # atno 17320 bound_to 7965
  144.8776  140.7357  143.6007 LP  0  0  0  0  0  0  0  0  0  0  0  0  # atno 17321 bound_to 7965
  139.4942  144.4166  152.0023 LP  0  0  0  0  0  0  0  0  0  0  0  0  # atno 17342 bound_to 10162
  140.3266  144.3366  150.5997 LP  0  0  0  0  0  0  0  0  0  0  0  0  # atno 17343 bound_to 10162
  156.8788  130.5172  149.5292 LP  0  0  0  0  0  0  0  0  0  0  0  0  # atno 17370 bound_to 10713
  156.0780  130.5797  150.9509 LP  0  0  0  0  0  0  0  0  0  0  0  0  # atno 17371 bound_to 10713
  141.0128  134.0996  157.4203 LP  0  0  0  0  0  0  0  0  0  0  0  0  # atno 17394 bound_to 11000
  139.8885  135.0098  156.6626 LP  0  0  0  0  0  0  0  0  0  0  0  0  # atno 17395 bound_to 11000

$$$$
