AV-unprocessed.smi:2083|AV-procd|sdf|8511|dock8
  -GOLD-   2272011223D 1   1.00000     0.00000
 Structure written by MMmdl.
 44 45  0  0  0  0  0  0  0  0  3 V2000
  151.5421  140.3762  155.5038 C   0  0  0  0  0  0  0  0  0  0  0  0
  151.2946  138.9196  155.3089 C   0  0  0  0  0  0  0  0  0  0  0  0
  150.2828  138.2200  154.7141 C   0  0  0  0  0  0  0  0  0  0  0  0
  150.6832  136.8679  154.8854 C   0  0  0  0  0  0  0  0  0  0  0  0
  149.8785  135.8078  154.3907 N   0  0  0  0  0  0  0  0  0  0  0  0
  149.5885  134.6276  154.9683 C   0  0  0  0  0  0  0  0  0  0  0  0
  150.0408  134.3501  156.0856 O   0  0  0  0  0  0  0  0  0  0  0  0
  148.7853  133.8576  154.1845 N   0  5  0  0  0  0  0  0  0  0  0  0
  149.2504  132.7381  153.3676 C   0  0  0  0  0  0  0  0  0  0  0  0
  148.3378  131.4885  153.5866 C   0  0  1  0  0  0  0  0  0  0  0  0
  147.8432  131.3365  155.0450 C   0  0  0  0  0  0  0  0  0  0  0  0
  147.1789  131.3562  152.6381 N   0  3  1  0  0  0  0  0  0  0  0  0
  146.3626  130.1082  152.7203 C   0  0  0  0  0  0  0  0  0  0  0  0
  145.4744  129.9598  151.4757 C   0  0  0  0  0  0  0  0  0  0  0  0
  144.5856  131.1975  151.2832 C   0  0  0  0  0  0  0  0  0  0  0  0
  145.4199  132.4926  151.2593 C   0  0  2  0  0  0  0  0  0  0  0  0
  146.2088  132.6685  149.9497 C   0  0  0  0  0  0  0  0  0  0  0  0
  146.3289  132.5748  152.5029 C   0  0  0  0  0  0  0  0  0  0  0  0
  151.8359  136.7537  155.5286 N   0  0  0  0  0  0  0  0  0  0  0  0
  152.2329  138.0676  155.8039 O   0  0  0  0  0  0  0  0  0  0  0  0
  150.8674  140.9717  154.8886 H   0  0  0  0  0  0  0  0  0  0  0  0
  152.5651  140.6353  155.2305 H   0  0  0  0  0  0  0  0  0  0  0  0
  151.3872  140.6576  156.5453 H   0  0  0  0  0  0  0  0  0  0  0  0
  149.3995  138.6134  154.2332 H   0  0  0  0  0  0  0  0  0  0  0  0
  149.4728  135.9588  153.4791 H   0  0  0  0  0  0  0  0  0  0  0  0
  149.2669  132.9812  152.3045 H   0  0  0  0  0  0  0  0  0  0  0  0
  150.2767  132.4742  153.6244 H   0  0  0  0  0  0  0  0  0  0  0  0
  148.9576  130.6093  153.4016 H   0  0  0  0  0  0  0  0  0  0  0  0
  148.6690  131.2114  155.7478 H   0  0  0  0  0  0  0  0  0  0  0  0
  147.2155  130.4505  155.1459 H   0  0  0  0  0  0  0  0  0  0  0  0
  147.2557  132.1905  155.3846 H   0  0  0  0  0  0  0  0  0  0  0  0
  147.0058  129.2327  152.8007 H   0  0  0  0  0  0  0  0  0  0  0  0
  145.7346  130.1232  153.6124 H   0  0  0  0  0  0  0  0  0  0  0  0
  146.0971  129.8050  150.5939 H   0  0  0  0  0  0  0  0  0  0  0  0
  144.8523  129.0692  151.5695 H   0  0  0  0  0  0  0  0  0  0  0  0
  143.9970  131.1037  150.3698 H   0  0  0  0  0  0  0  0  0  0  0  0
  143.8685  131.2492  152.1037 H   0  0  0  0  0  0  0  0  0  0  0  0
  144.7215  133.3290  151.3100 H   0  0  0  0  0  0  0  0  0  0  0  0
  146.9673  131.8958  149.8232 H   0  0  0  0  0  0  0  0  0  0  0  0
  146.7159  133.6335  149.9268 H   0  0  0  0  0  0  0  0  0  0  0  0
  145.5462  132.6278  149.0846 H   0  0  0  0  0  0  0  0  0  0  0  0
  145.7110  132.6911  153.3942 H   0  0  0  0  0  0  0  0  0  0  0  0
  146.9533  133.4668  152.4381 H   0  0  0  0  0  0  0  0  0  0  0  0
  147.6365  131.2893  151.7408 H   0  0  0  0  0  0  0  0  0  0  0  0
  1  2  1  0  0  0  0
  1 21  1  0  0  0  0
  1 22  1  0  0  0  0
  1 23  1  0  0  0  0
  2 20  1  0  0  0  0
  2  3  2  0  0  0  0
  3  4  1  0  0  0  0
  3 24  1  0  0  0  0
  4  5  1  0  0  0  0
  4 19  2  0  0  0  0
  5  6  1  0  0  0  0
  5 25  1  0  0  0  0
  6  7  2  0  0  0  0
  6  8  1  0  0  0  0
  8  9  1  0  0  0  0
  9 10  1  0  0  0  0
  9 26  1  0  0  0  0
  9 27  1  0  0  0  0
 10 11  1  0  0  0  0
 10 12  1  0  0  0  0
 10 28  1  0  0  0  0
 11 29  1  0  0  0  0
 11 30  1  0  0  0  0
 11 31  1  0  0  0  0
 12 18  1  0  0  0  0
 12 13  1  0  0  0  0
 12 44  1  0  0  0  0
 13 14  1  0  0  0  0
 13 32  1  0  0  0  0
 13 33  1  0  0  0  0
 14 15  1  0  0  0  0
 14 34  1  0  0  0  0
 14 35  1  0  0  0  0
 15 16  1  0  0  0  0
 15 36  1  0  0  0  0
 15 37  1  0  0  0  0
 16 17  1  0  0  0  0
 16 18  1  0  0  0  0
 16 38  1  0  0  0  0
 17 39  1  0  0  0  0
 17 40  1  0  0  0  0
 17 41  1  0  0  0  0
 18 42  1  0  0  0  0
 18 43  1  0  0  0  0
 19 20  1  0  0  0  0
M  CHG  1   8  -1
M  CHG  1  12   1
M  END
> <s_m_source_file>
AV-unprocessed.smi

> <i_m_source_file_index>
2083

> <i_lp_mmshare_version>
43012

> <i_f3d_flags>
0

> <s_epik_input>
W0NIM11jMVtjSF1jKG5vMSlbTkhdQyg9TylbTkhdW0NIMl1bQ0BIXShbQ0gzXSlOMltDSDJdW0NIMl1bQ0gyXVtDQEBIXShbQ0gzXSlbQ0gyXTI=

> <s_epik_cmdline>
J2VwaWtfcHl0aG9uJywgJy1waCcsICc3LjAnLCAnLXRuJywgJzgnLCAnLW1hJywgJzIwMCcsICctbWV0YWxfYmluZGluZycsICctaW1hZScsICc8aW5maWxlLm1hZT4nLCAnLW9tYWUnLCAnPG91dGZpbGUubWFlPic=

> <r_epik_Ionization_Penalty>
6.76934

> <r_epik_Ionization_Penalty_Charging>
6.76934

> <r_epik_Ionization_Penalty_Neutral>
5.77849e-06

> <r_epik_State_Penalty>
6.79457

> <r_epik_Charging_Adjusted_Penalty>
13.5639

> <i_epik_Tot_Q>
0

> <i_epik_Tot_abs_Q>
2

> <r_epik_Metal_State_Penalty>
2.72837

> <b_epik_Metal_Only>
1

> <s_lp_Force_Field>
OPLS_2005

> <r_lp_Energy>
23.3528

> <b_lp_Chiralities_Consistent>
1

> <s_lp_Variant>
AV-unprocessed.smi:2083-22

> <Gold.Version>
5.8.1

> <Gold.Id.Protein>
6NUR|6NUR_protein|mol2

> <Gold.PLP.Fitness>
38.8084

> <Gold.PLP.PLP>
-32.7190

> <Gold.PLP.part.hbond>
-3.4269

> <Gold.PLP.part.metal>
0.0000

> <Gold.PLP.part.buried>
-3.7100

> <Gold.PLP.part.nonpolar>
-25.9179

> <Gold.PLP.part.repulsive>
0.2480

> <Gold.PLP.ligand.clash>
0.0000

> <Gold.PLP.ligand.torsion>
1.5594

> <Gold.PLP.Chemscore.Hbond>
3.0000

> <Gold.PLP.Chemscore.CHOScore>
0.0000

> <Gold.PLP.Chemscore.Metal>
0.0000

> <Gold.Chemscore.Hbonds>
donor molecule, donor type, donor heavy atom, donor atom, acceptor molecule, acceptor atom, score
      L1  H     5    25       P1  7948  1.00
      L1  H    12    44       P1 10747  1.00
      P1  H 10752 10763       L1    19  1.00

> <Gold.PLP.Chemscore.Internal.Correction>
0.2082

> <Gold.Rescore>
     Score         DG    S(hbond)    S(metal)    S(lipo)     H(rot)  DE(clash)    DE(int)     intcor
     18.95     -20.69       2.80        0.00      83.44       1.52       0.02       1.72       ----

> <Gold.Chemscore.Fitness>
18.9516

> <Gold.Chemscore.DG>
-20.6906

> <Gold.Chemscore.ZeroCoef>
-5.4800

> <Gold.Chemscore.Hbond>
2.7955

> <Gold.Chemscore.Metal>
0.0000

> <Gold.Chemscore.Lipo>
83.4398

> <Gold.Chemscore.Internal_Hbond>
0.0000

> <Gold.Chemscore.DEClash>
0.0187

> <Gold.Chemscore.DEInternal>
1.7204

> <Gold.Chemscore.Rot>
1.5190

> <Gold.Chemscore.Internal.Correction>
   9.000000E+99

> <Gold.Chemscore.Hbonds>
donor molecule, donor type, donor heavy atom, donor atom, acceptor molecule, acceptor atom, score
      L1  H     5    25       P1  7948  0.40
      L1  H    12    44       P1 10747  0.93
      P1  H 10752 10763       L1    19  0.72

> <Gold.Chemscore.Hbond.Weighted>
-9.3368

> <Gold.Chemscore.Metal.Weighted>
-0.0000

> <Gold.Chemscore.Lipo.Weighted>
-9.7625

> <Gold.Chemscore.Internal_Hbond.Weighted>
0.0000

> <Gold.Chemscore.DEClash.Weighted>
0.0187

> <Gold.Chemscore.DEInternal.Weighted>
1.7204

> <Gold.Chemscore.Rot.Weighted>
3.8886

> <Gold.Chemscore.Internal.Correction.Weighted>
   9.000000E+99

> <Gold.Protein.RotatedTorsions>
[ 6907 6896 6895 6894 ] final  156.38 input  -60.11 | X-H torsion
[ 7974 7965 7964 7962 ] final  116.40 input  175.53 | X-H torsion
[ 8008 7997 7996 7995 ] final  162.54 input   59.86 | X-H torsion
[ 10167 10162 10161 10158 ] final  173.14 input  -65.29 | X-H torsion
[ 10718 10713 10712 10709 ] final  -83.77 input   66.30 | X-H torsion
[ 10763 10752 10751 10750 ] final   61.77 input  -60.55 | X-H torsion
[ 11005 11000 10999 10996 ] final  -97.09 input  -57.11 | X-H torsion

> <Gold.Protein.ActiveResidues>
 VAL166  LYS551  ARG553  GLY616  TRP617  ASP618  TYR619  PRO620  LYS621  CYS622 
 ASP623  PHE694  ASN695  SER759  ASP760  ASP761  ALA762  ILE779  LEU786  VAL792 
 PHE793  MET794  SER795  GLU796  ALA797  LYS798  CYS799  TRP800  GLU811  SER814 

> <Gold.Protein.RotatedAtoms>
  152.0305  133.3935  159.4294 H   0  0  0  0  0  0  0  0  0  0  0  0  # atno 6907 bound_to 6896
  150.6882  134.3526  159.4925 H   0  0  0  0  0  0  0  0  0  0  0  0  # atno 6908 bound_to 6896
  152.1312  134.9133  160.0609 H   0  0  0  0  0  0  0  0  0  0  0  0  # atno 6909 bound_to 6896
  145.1801  139.3054  143.4422 H   0  0  0  0  0  0  0  0  0  0  0  0  # atno 7974 bound_to 7965
  156.2024  140.1747  156.7872 H   0  0  0  0  0  0  0  0  0  0  0  0  # atno 8008 bound_to 7997
  154.5609  140.0700  156.8848 H   0  0  0  0  0  0  0  0  0  0  0  0  # atno 8009 bound_to 7997
  155.2850  140.3351  155.4258 H   0  0  0  0  0  0  0  0  0  0  0  0  # atno 8010 bound_to 7997
  139.5099  144.3295  152.0125 H   0  0  0  0  0  0  0  0  0  0  0  0  # atno 10167 bound_to 10162
  156.0014  130.4676  150.4309 H   0  0  0  0  0  0  0  0  0  0  0  0  # atno 10718 bound_to 10713
  152.9961  135.5489  154.6086 H   0  0  0  0  0  0  0  0  0  0  0  0  # atno 10763 bound_to 10752
  154.5412  135.2820  155.1096 H   0  0  0  0  0  0  0  0  0  0  0  0  # atno 10764 bound_to 10752
  154.2372  135.6423  153.5248 H   0  0  0  0  0  0  0  0  0  0  0  0  # atno 10765 bound_to 10752
  141.1390  133.8145  157.0659 H   0  0  0  0  0  0  0  0  0  0  0  0  # atno 11005 bound_to 11000
  146.3454  140.1977  142.8589 LP  0  0  0  0  0  0  0  0  0  0  0  0  # atno 17320 bound_to 7965
  145.0145  140.8742  143.5204 LP  0  0  0  0  0  0  0  0  0  0  0  0  # atno 17321 bound_to 7965
  140.2735  144.3938  150.6143 LP  0  0  0  0  0  0  0  0  0  0  0  0  # atno 17342 bound_to 10162
  140.6071  143.2168  151.6959 LP  0  0  0  0  0  0  0  0  0  0  0  0  # atno 17343 bound_to 10162
  157.2358  131.0514  151.2466 LP  0  0  0  0  0  0  0  0  0  0  0  0  # atno 17370 bound_to 10713
  157.3668  130.7160  149.6538 LP  0  0  0  0  0  0  0  0  0  0  0  0  # atno 17371 bound_to 10713
  140.0542  134.9789  157.1190 LP  0  0  0  0  0  0  0  0  0  0  0  0  # atno 17394 bound_to 11000
  140.3945  134.2149  155.7165 LP  0  0  0  0  0  0  0  0  0  0  0  0  # atno 17395 bound_to 11000

$$$$
