AV-unprocessed.smi:1672|AV-procd|sdf|6706|dock8
  -GOLD-   22720 7443D 1   1.00000     0.00000
 Structure written by MMmdl.
 49 51  0  0  0  0  0  0  0  0  3 V2000
  146.2877  132.9855  153.9268 C   0  0  0  0  0  0  0  0  0  0  0  0
  147.2883  133.7670  154.7901 C   0  0  2  0  0  0  0  0  0  0  0  0
  146.9654  135.2704  154.8160 C   0  0  0  0  0  0  0  0  0  0  0  0
  147.9932  136.0492  155.6542 C   0  0  0  0  0  0  0  0  0  0  0  0
  149.3735  135.8256  155.1528 N   0  3  1  0  0  0  0  0  0  0  0  0
  150.3726  136.6788  155.8468 C   0  0  0  0  0  0  0  0  0  0  0  0
  149.8783  138.1247  156.0505 C   0  0  1  0  0  0  0  0  0  0  0  0
  149.3638  138.2441  157.3616 O   0  0  0  0  0  0  0  0  0  0  0  0
  151.0147  139.1484  155.8553 C   0  0  0  0  0  0  0  0  0  0  0  0
  150.6299  140.5179  156.2364 N   0  0  0  0  0  0  0  0  0  0  0  0
  149.6871  141.3587  155.7159 C   0  0  0  0  0  0  0  0  0  0  0  0
  148.7687  141.0933  154.5682 C   0  0  0  0  0  0  0  0  0  0  0  0
  149.4669  140.8568  153.3661 O   0  0  0  0  0  0  0  0  0  0  0  0
  149.7377  142.5153  156.4354 N   0  3  0  0  0  0  0  0  0  0  0  0
  150.7113  142.4135  157.4291 C   0  0  0  0  0  0  0  0  0  0  0  0
  151.1216  143.3222  158.3996 C   0  0  0  0  0  0  0  0  0  0  0  0
  152.1480  142.8986  159.2693 C   0  0  0  0  0  0  0  0  0  0  0  0
  152.7251  141.6171  159.1548 C   0  0  0  0  0  0  0  0  0  0  0  0
  152.3014  140.7048  158.1657 C   0  0  0  0  0  0  0  0  0  0  0  0
  151.2864  141.1318  157.3097 C   0  0  0  0  0  0  0  0  0  0  0  0
  149.7258  134.3808  155.1572 C   0  0  0  0  0  0  0  0  0  0  0  0
  148.7351  133.5676  154.3072 C   0  0  0  0  0  0  0  0  0  0  0  0
  146.3103  133.3204  152.8891 H   0  0  0  0  0  0  0  0  0  0  0  0
  145.2692  133.1129  154.2947 H   0  0  0  0  0  0  0  0  0  0  0  0
  146.5099  131.9179  153.9362 H   0  0  0  0  0  0  0  0  0  0  0  0
  147.2148  133.3860  155.8099 H   0  0  0  0  0  0  0  0  0  0  0  0
  146.9525  135.6648  153.7987 H   0  0  0  0  0  0  0  0  0  0  0  0
  145.9655  135.4309  155.2213 H   0  0  0  0  0  0  0  0  0  0  0  0
  147.7525  137.1123  155.6120 H   0  0  0  0  0  0  0  0  0  0  0  0
  147.9314  135.7509  156.7022 H   0  0  0  0  0  0  0  0  0  0  0  0
  150.6032  136.2550  156.8257 H   0  0  0  0  0  0  0  0  0  0  0  0
  151.3075  136.6679  155.2846 H   0  0  0  0  0  0  0  0  0  0  0  0
  149.0758  138.3547  155.3510 H   0  0  0  0  0  0  0  0  0  0  0  0
  148.4437  138.4560  157.3076 H   0  0  0  0  0  0  0  0  0  0  0  0
  151.8853  138.8652  156.4470 H   0  0  0  0  0  0  0  0  0  0  0  0
  151.3473  139.1648  154.8168 H   0  0  0  0  0  0  0  0  0  0  0  0
  148.1327  140.2372  154.7914 H   0  0  0  0  0  0  0  0  0  0  0  0
  148.1090  141.9502  154.4292 H   0  0  0  0  0  0  0  0  0  0  0  0
  148.9704  140.2437  152.8450 H   0  0  0  0  0  0  0  0  0  0  0  0
  150.6803  144.3040  158.4903 H   0  0  0  0  0  0  0  0  0  0  0  0
  152.4983  143.5696  160.0403 H   0  0  0  0  0  0  0  0  0  0  0  0
  153.5089  141.3279  159.8402 H   0  0  0  0  0  0  0  0  0  0  0  0
  152.7498  139.7256  158.0883 H   0  0  0  0  0  0  0  0  0  0  0  0
  150.7306  134.2315  154.7641 H   0  0  0  0  0  0  0  0  0  0  0  0
  149.7318  134.0092  156.1831 H   0  0  0  0  0  0  0  0  0  0  0  0
  148.9996  132.5104  154.3477 H   0  0  0  0  0  0  0  0  0  0  0  0
  148.8224  133.8676  153.2617 H   0  0  0  0  0  0  0  0  0  0  0  0
  149.3712  136.1277  154.1884 H   0  0  0  0  0  0  0  0  0  0  0  0
  149.1454  143.3164  156.2561 H   0  0  0  0  0  0  0  0  0  0  0  0
  1  2  1  0  0  0  0
  1 23  1  0  0  0  0
  1 24  1  0  0  0  0
  1 25  1  0  0  0  0
  2 22  1  0  0  0  0
  2  3  1  0  0  0  0
  2 26  1  0  0  0  0
  3  4  1  0  0  0  0
  3 27  1  0  0  0  0
  3 28  1  0  0  0  0
  4  5  1  0  0  0  0
  4 29  1  0  0  0  0
  4 30  1  0  0  0  0
  5  6  1  0  0  0  0
  5 21  1  0  0  0  0
  5 48  1  0  0  0  0
  6  7  1  0  0  0  0
  6 31  1  0  0  0  0
  6 32  1  0  0  0  0
  7  8  1  0  0  0  0
  7  9  1  0  0  0  0
  7 33  1  0  0  0  0
  8 34  1  0  0  0  0
  9 10  1  0  0  0  0
  9 35  1  0  0  0  0
  9 36  1  0  0  0  0
 10 20  1  0  0  0  0
 10 11  1  0  0  0  0
 11 12  1  0  0  0  0
 11 14  2  0  0  0  0
 12 13  1  0  0  0  0
 12 37  1  0  0  0  0
 12 38  1  0  0  0  0
 13 39  1  0  0  0  0
 14 15  1  0  0  0  0
 14 49  1  0  0  0  0
 15 20  2  0  0  0  0
 15 16  1  0  0  0  0
 16 17  2  0  0  0  0
 16 40  1  0  0  0  0
 17 18  1  0  0  0  0
 17 41  1  0  0  0  0
 18 19  2  0  0  0  0
 18 42  1  0  0  0  0
 19 20  1  0  0  0  0
 19 43  1  0  0  0  0
 21 22  1  0  0  0  0
 21 44  1  0  0  0  0
 21 45  1  0  0  0  0
 22 46  1  0  0  0  0
 22 47  1  0  0  0  0
M  CHG  1   5   1
M  CHG  1  14   1
M  END
> <s_m_source_file>
AV-unprocessed.smi

> <i_m_source_file_index>
1672

> <i_lp_mmshare_version>
43012

> <i_f3d_flags>
0

> <s_epik_input>
W0NIM11bQ0hdMVtDSDJdW0NIMl1OKFtDSDJdW0NIMl0xKVtDSDJdW0NASF0oW09IXSlbQ0gyXW4oYyhuMilbQ0gyXVtPSF0pYyhjMjMpW2NIXVtjSF1bY0hdW2NIXTM=

> <s_epik_cmdline>
J2VwaWtfcHl0aG9uJywgJy1waCcsICc3LjAnLCAnLXRuJywgJzgnLCAnLW1hJywgJzIwMCcsICctbWV0YWxfYmluZGluZycsICctaW1hZScsICc8aW5maWxlLm1hZT4nLCAnLW9tYWUnLCAnPG91dGZpbGUubWFlPic=

> <r_epik_Ionization_Penalty>
1.51642

> <r_epik_Ionization_Penalty_Charging>
1.51557

> <r_epik_Ionization_Penalty_Neutral>
0.000856474

> <r_epik_State_Penalty>
1.6048

> <r_epik_Charging_Adjusted_Penalty>
3.12037

> <i_epik_Tot_Q>
2

> <i_epik_Tot_abs_Q>
2

> <r_epik_Metal_State_Penalty>
5.65673

> <b_epik_Metal_Only>
0

> <s_lp_Force_Field>
OPLS_2005

> <r_lp_Energy>
28.534

> <b_lp_Chiralities_Consistent>
1

> <s_lp_Variant>
AV-unprocessed.smi:1672-6

> <Gold.Version>
5.8.1

> <Gold.Id.Protein>
6NUR|6NUR_protein|mol2

> <Gold.PLP.Fitness>
52.9316

> <Gold.PLP.PLP>
-37.6234

> <Gold.PLP.part.hbond>
-4.3151

> <Gold.PLP.part.metal>
0.0000

> <Gold.PLP.part.buried>
-3.8510

> <Gold.PLP.part.nonpolar>
-29.8027

> <Gold.PLP.part.repulsive>
0.0955

> <Gold.PLP.ligand.clash>
0.0000

> <Gold.PLP.ligand.torsion>
0.6817

> <Gold.PLP.Chemscore.Hbond>
5.5460

> <Gold.PLP.Chemscore.CHOScore>
0.0000

> <Gold.PLP.Chemscore.Metal>
0.0000

> <Gold.Chemscore.Hbonds>
donor molecule, donor type, donor heavy atom, donor atom, acceptor molecule, acceptor atom, score
      L1  H     5    48       P1  7948  0.46
      L1  H    13    39       P1  7957  0.27
      L1  H    14    49       P1  8028  2.00
      P1  H  7989  7998       L1    13  0.20
      P1  H  8011  8017       L1    13  1.00

> <Gold.PLP.Chemscore.Internal.Correction>
0.0336

> <Gold.Rescore>
     Score         DG    S(hbond)    S(metal)    S(lipo)     H(rot)  DE(clash)    DE(int)     intcor
     15.97     -17.01       2.56        0.00      90.17       2.96       0.26       0.78       ----

> <Gold.Chemscore.Fitness>
15.9715

> <Gold.Chemscore.DG>
-17.0150

> <Gold.Chemscore.ZeroCoef>
-5.4800

> <Gold.Chemscore.Hbond>
2.5601

> <Gold.Chemscore.Metal>
0.0000

> <Gold.Chemscore.Lipo>
90.1731

> <Gold.Chemscore.Internal_Hbond>
0.0000

> <Gold.Chemscore.DEClash>
0.2642

> <Gold.Chemscore.DEInternal>
0.7792

> <Gold.Chemscore.Rot>
2.9555

> <Gold.Chemscore.Internal.Correction>
   9.000000E+99

> <Gold.Chemscore.Hbonds>
donor molecule, donor type, donor heavy atom, donor atom, acceptor molecule, acceptor atom, score
      L1  H     5    48       P1  7948  0.19
      L1  H    13    39       P1  7957  0.28
      L1  H    14    49       P1  8028  0.92
      P1  H  7989  7998       L1    13  0.18
      P1  H  8011  8017       L1    13  0.63

> <Gold.Chemscore.Hbond.Weighted>
-8.5507

> <Gold.Chemscore.Metal.Weighted>
-0.0000

> <Gold.Chemscore.Lipo.Weighted>
-10.5503

> <Gold.Chemscore.Internal_Hbond.Weighted>
0.0000

> <Gold.Chemscore.DEClash.Weighted>
0.2642

> <Gold.Chemscore.DEInternal.Weighted>
0.7792

> <Gold.Chemscore.Rot.Weighted>
7.5660

> <Gold.Chemscore.Internal.Correction.Weighted>
   9.000000E+99

> <Gold.Protein.RotatedTorsions>
[ 6907 6896 6895 6894 ] final   34.85 input  -60.11 | X-H torsion
[ 7974 7965 7964 7962 ] final   92.27 input  175.53 | X-H torsion
[ 8008 7997 7996 7995 ] final  167.15 input   59.86 | X-H torsion
[ 10167 10162 10161 10158 ] final -100.78 input  -65.29 | X-H torsion
[ 10718 10713 10712 10709 ] final  142.44 input   66.30 | X-H torsion
[ 10763 10752 10751 10750 ] final  159.37 input  -60.55 | X-H torsion
[ 11005 11000 10999 10996 ] final   37.49 input  -57.11 | X-H torsion

> <Gold.Protein.ActiveResidues>
 VAL166  LYS551  ARG553  GLY616  TRP617  ASP618  TYR619  PRO620  LYS621  CYS622 
 ASP623  PHE694  ASN695  SER759  ASP760  ASP761  ALA762  ILE779  LEU786  VAL792 
 PHE793  MET794  SER795  GLU796  ALA797  LYS798  CYS799  TRP800  GLU811  SER814 

> <Gold.Protein.RotatedAtoms>
  152.1080  134.9294  160.0567 H   0  0  0  0  0  0  0  0  0  0  0  0  # atno 6907 bound_to 6896
  152.0483  133.4003  159.4374 H   0  0  0  0  0  0  0  0  0  0  0  0  # atno 6908 bound_to 6896
  150.6842  134.3257  159.4849 H   0  0  0  0  0  0  0  0  0  0  0  0  # atno 6909 bound_to 6896
  145.4945  139.2276  143.2811 H   0  0  0  0  0  0  0  0  0  0  0  0  # atno 7974 bound_to 7965
  156.1658  140.1624  156.8534 H   0  0  0  0  0  0  0  0  0  0  0  0  # atno 8008 bound_to 7997
  154.5206  140.0779  156.8199 H   0  0  0  0  0  0  0  0  0  0  0  0  # atno 8009 bound_to 7997
  155.3615  140.3395  155.4243 H   0  0  0  0  0  0  0  0  0  0  0  0  # atno 8010 bound_to 7997
  140.2483  143.3490  152.0739 H   0  0  0  0  0  0  0  0  0  0  0  0  # atno 10167 bound_to 10162
  157.3805  131.0991  151.0743 H   0  0  0  0  0  0  0  0  0  0  0  0  # atno 10718 bound_to 10713
  154.2307  135.2778  155.2891 H   0  0  0  0  0  0  0  0  0  0  0  0  # atno 10763 bound_to 10752
  154.5626  135.5642  153.7024 H   0  0  0  0  0  0  0  0  0  0  0  0  # atno 10764 bound_to 10752
  153.0021  135.6301  154.2449 H   0  0  0  0  0  0  0  0  0  0  0  0  # atno 10765 bound_to 10752
  140.2221  134.3629  155.8000 H   0  0  0  0  0  0  0  0  0  0  0  0  # atno 11005 bound_to 11000
  146.2264  140.5741  142.8994 LP  0  0  0  0  0  0  0  0  0  0  0  0  # atno 17320 bound_to 7965
  144.7815  140.5850  143.6602 LP  0  0  0  0  0  0  0  0  0  0  0  0  # atno 17321 bound_to 7965
  139.5055  144.6795  151.6044 LP  0  0  0  0  0  0  0  0  0  0  0  0  # atno 17342 bound_to 10162
  140.6061  143.9522  150.6419 LP  0  0  0  0  0  0  0  0  0  0  0  0  # atno 17343 bound_to 10162
  157.1813  130.6311  149.5673 LP  0  0  0  0  0  0  0  0  0  0  0  0  # atno 17370 bound_to 10713
  155.9775  130.4752  150.6596 LP  0  0  0  0  0  0  0  0  0  0  0  0  # atno 17371 bound_to 10713
  141.2222  133.7199  156.8592 LP  0  0  0  0  0  0  0  0  0  0  0  0  # atno 17394 bound_to 11000
  140.1839  134.9014  157.2981 LP  0  0  0  0  0  0  0  0  0  0  0  0  # atno 17395 bound_to 11000

$$$$
