AV-unprocessed.smi:1116|AV-procd|sdf|4808|dock4
  -GOLD-   22720 3353D 1   1.00000     0.00000
 Structure written by MMmdl.
 36 37  0  0  0  0  0  0  0  0  1 V2000
  152.5206  143.7797  161.5274 C   0  0  0  0  0  0  0  0  0  0  0  0
  152.0432  143.5952  160.1276 C   0  0  0  0  0  0  0  0  0  0  0  0
  151.5220  142.4546  159.6680 N   0  0  0  0  0  0  0  0  0  0  0  0
  151.1466  142.5368  158.3234 C   0  0  0  0  0  0  0  0  0  0  0  0
  150.5426  141.3474  157.6402 C   0  0  0  0  0  0  0  0  0  0  0  0
  151.2531  141.0101  156.3184 C   0  0  0  0  0  0  0  0  0  0  0  0
  150.5719  139.9384  155.6007 N   0  0  0  0  0  0  0  0  0  0  0  0
  150.6948  138.6295  155.8690 C   0  0  0  0  0  0  0  0  0  0  0  0
  151.4202  138.1908  156.7620 O   0  0  0  0  0  0  0  0  0  0  0  0
  149.8593  137.6826  155.0009 C   0  0  0  0  0  0  0  0  0  0  0  0
  148.3789  138.0989  154.8926 C   0  0  0  0  0  0  0  0  0  0  0  0
  148.1163  139.1090  153.7585 C   0  0  1  0  0  0  0  0  0  0  0  0
  148.0602  138.4856  152.4470 N   0  0  0  0  0  0  0  0  0  0  0  0
  146.8812  138.6758  151.8392 C   0  0  0  0  0  0  0  0  0  0  0  0
  146.5688  138.2621  150.7254 O   0  0  0  0  0  0  0  0  0  0  0  0
  146.1057  139.3943  152.6581 N   0  0  0  0  0  0  0  0  0  0  0  0
  146.7154  139.6933  153.8039 C   0  0  0  0  0  0  0  0  0  0  0  0
  146.2477  140.3272  154.7477 O   0  0  0  0  0  0  0  0  0  0  0  0
  151.3949  143.7671  157.7671 C   0  0  0  0  0  0  0  0  0  0  0  0
  152.1098  144.8668  158.9137 S   0  0  0  0  0  0  0  0  0  0  0  0
  152.4017  142.8590  162.0994 H   0  0  0  0  0  0  0  0  0  0  0  0
  151.9492  144.5702  162.0142 H   0  0  0  0  0  0  0  0  0  0  0  0
  153.5747  144.0574  161.5277 H   0  0  0  0  0  0  0  0  0  0  0  0
  150.5763  140.4849  158.3072 H   0  0  0  0  0  0  0  0  0  0  0  0
  149.4854  141.5313  157.4453 H   0  0  0  0  0  0  0  0  0  0  0  0
  151.2698  141.8887  155.6731 H   0  0  0  0  0  0  0  0  0  0  0  0
  152.2946  140.7382  156.4994 H   0  0  0  0  0  0  0  0  0  0  0  0
  149.9557  140.2128  154.8493 H   0  0  0  0  0  0  0  0  0  0  0  0
  150.3072  137.6483  154.0073 H   0  0  0  0  0  0  0  0  0  0  0  0
  149.9298  136.6743  155.4113 H   0  0  0  0  0  0  0  0  0  0  0  0
  147.7602  137.2107  154.7507 H   0  0  0  0  0  0  0  0  0  0  0  0
  148.0579  138.5458  155.8351 H   0  0  0  0  0  0  0  0  0  0  0  0
  148.8557  139.9109  153.7606 H   0  0  0  0  0  0  0  0  0  0  0  0
  148.8348  137.9776  152.0452 H   0  0  0  0  0  0  0  0  0  0  0  0
  145.1607  139.6714  152.4367 H   0  0  0  0  0  0  0  0  0  0  0  0
  151.2013  144.0921  156.7557 H   0  0  0  0  0  0  0  0  0  0  0  0
  1  2  1  0  0  0  0
  1 21  1  0  0  0  0
  1 22  1  0  0  0  0
  1 23  1  0  0  0  0
  2 20  1  0  0  0  0
  2  3  2  0  0  0  0
  3  4  1  0  0  0  0
  4  5  1  0  0  0  0
  4 19  2  0  0  0  0
  5  6  1  0  0  0  0
  5 24  1  0  0  0  0
  5 25  1  0  0  0  0
  6  7  1  0  0  0  0
  6 26  1  0  0  0  0
  6 27  1  0  0  0  0
  7  8  1  0  0  0  0
  7 28  1  0  0  0  0
  8  9  2  0  0  0  0
  8 10  1  0  0  0  0
 10 11  1  0  0  0  0
 10 29  1  0  0  0  0
 10 30  1  0  0  0  0
 11 12  1  0  0  0  0
 11 31  1  0  0  0  0
 11 32  1  0  0  0  0
 12 17  1  0  0  0  0
 12 13  1  0  0  0  0
 12 33  1  0  0  0  0
 13 14  1  0  0  0  0
 13 34  1  0  0  0  0
 14 15  2  0  0  0  0
 14 16  1  0  0  0  0
 16 17  1  0  0  0  0
 16 35  1  0  0  0  0
 17 18  2  0  0  0  0
 19 20  1  0  0  0  0
 19 36  1  0  0  0  0
M  END
> <s_m_source_file>
AV-unprocessed.smi

> <i_m_source_file_index>
1116

> <i_lp_mmshare_version>
43012

> <i_f3d_flags>
0

> <s_epik_input>
W0NIM11jMW5jKFtjSF1zMSlbQ0gyXVtDSDJdW05IXUMoPU8pW0NIMl1bQ0gyXVtDQEBIXTJbTkhdQyg9TylbTkhdQzI9Tw==

> <s_epik_cmdline>
J2VwaWtfcHl0aG9uJywgJy1waCcsICc3LjAnLCAnLXRuJywgJzgnLCAnLW1hJywgJzIwMCcsICctbWV0YWxfYmluZGluZycsICctaW1hZScsICc8aW5maWxlLm1hZT4nLCAnLW9tYWUnLCAnPG91dGZpbGUubWFlPic=

> <r_lp_tautomer_probability>
1

> <r_epik_Ionization_Penalty>
0.00889251

> <r_epik_Ionization_Penalty_Charging>
0

> <r_epik_Ionization_Penalty_Neutral>
0.00889251

> <r_epik_State_Penalty>
0.00583796

> <r_epik_Charging_Adjusted_Penalty>
0.00583796

> <i_epik_Tot_Q>
0

> <i_epik_Tot_abs_Q>
0

> <r_epik_Metal_State_Penalty>
0.408839

> <b_epik_Metal_Only>
0

> <s_lp_Force_Field>
OPLS_2005

> <r_lp_Energy>
13.0769

> <b_lp_Chiralities_Consistent>
1

> <s_lp_Variant>
AV-unprocessed.smi:1116-2

> <Gold.Version>
5.8.1

> <Gold.Id.Protein>
6NUR|6NUR_protein|mol2

> <Gold.PLP.Fitness>
44.9240

> <Gold.PLP.PLP>
-35.2832

> <Gold.PLP.part.hbond>
-4.3082

> <Gold.PLP.part.metal>
0.0000

> <Gold.PLP.part.buried>
-6.2064

> <Gold.PLP.part.nonpolar>
-28.4064

> <Gold.PLP.part.repulsive>
2.7683

> <Gold.PLP.ligand.clash>
0.0000

> <Gold.PLP.ligand.torsion>
0.5837

> <Gold.PLP.Chemscore.Hbond>
2.5680

> <Gold.PLP.Chemscore.CHOScore>
0.9999

> <Gold.PLP.Chemscore.Metal>
0.0000

> <Gold.Chemscore.Hbonds>
donor molecule, donor type, donor heavy atom, donor atom, acceptor molecule, acceptor atom, score
      L1  H    13    34       P1  7948  0.56
      L1  H    16    35       P1 10175  1.00
      P1  H  7954  7966       L1    15  0.99
      L1  C    19    36       P1  8028  0.78

> <Gold.PLP.Chemscore.Internal.Correction>
0.1046

> <Gold.Rescore>
     Score         DG    S(hbond)    S(metal)    S(lipo)     H(rot)  DE(clash)    DE(int)     intcor
     14.49     -15.53       2.48        0.00      77.04       2.83       0.36       0.69       ----

> <Gold.Chemscore.Fitness>
14.4881

> <Gold.Chemscore.DG>
-15.5343

> <Gold.Chemscore.ZeroCoef>
-5.4800

> <Gold.Chemscore.Hbond>
2.4827

> <Gold.Chemscore.Metal>
0.0000

> <Gold.Chemscore.Lipo>
77.0351

> <Gold.Chemscore.Internal_Hbond>
0.0000

> <Gold.Chemscore.DEClash>
0.3597

> <Gold.Chemscore.DEInternal>
0.6865

> <Gold.Chemscore.Rot>
2.8324

> <Gold.Chemscore.Internal.Correction>
   9.000000E+99

> <Gold.Chemscore.Hbonds>
donor molecule, donor type, donor heavy atom, donor atom, acceptor molecule, acceptor atom, score
      L1  H    13    34       P1  7948  0.55
      L1  H    16    35       P1 10175  0.99
      P1  H  7954  7966       L1    15  0.52

> <Gold.Chemscore.Hbond.Weighted>
-8.2922

> <Gold.Chemscore.Metal.Weighted>
-0.0000

> <Gold.Chemscore.Lipo.Weighted>
-9.0131

> <Gold.Chemscore.Internal_Hbond.Weighted>
0.0000

> <Gold.Chemscore.DEClash.Weighted>
0.3597

> <Gold.Chemscore.DEInternal.Weighted>
0.6865

> <Gold.Chemscore.Rot.Weighted>
7.2510

> <Gold.Chemscore.Internal.Correction.Weighted>
   9.000000E+99

> <Gold.Protein.RotatedTorsions>
[ 6907 6896 6895 6894 ] final  -46.80 input  -60.11 | X-H torsion
[ 7974 7965 7964 7962 ] final    4.30 input  175.53 | X-H torsion
[ 8008 7997 7996 7995 ] final  -15.31 input   59.86 | X-H torsion
[ 10167 10162 10161 10158 ] final  127.61 input  -65.29 | X-H torsion
[ 10718 10713 10712 10709 ] final -159.18 input   66.30 | X-H torsion
[ 10763 10752 10751 10750 ] final -158.45 input  -60.55 | X-H torsion
[ 11005 11000 10999 10996 ] final   15.95 input  -57.11 | X-H torsion

> <Gold.Protein.ActiveResidues>
 VAL166  LYS551  ARG553  GLY616  TRP617  ASP618  TYR619  PRO620  LYS621  CYS622 
 ASP623  PHE694  ASN695  SER759  ASP760  ASP761  ALA762  ILE779  LEU786  VAL792 
 PHE793  MET794  SER795  GLU796  ALA797  LYS798  CYS799  TRP800  GLU811  SER814 

> <Gold.Protein.RotatedAtoms>
  150.9074  134.8490  159.7401 H   0  0  0  0  0  0  0  0  0  0  0  0  # atno 6907 bound_to 6896
  152.4926  134.4410  159.9553 H   0  0  0  0  0  0  0  0  0  0  0  0  # atno 6908 bound_to 6896
  151.4456  133.3592  159.2823 H   0  0  0  0  0  0  0  0  0  0  0  0  # atno 6909 bound_to 6896
  146.2444  140.0555  142.8372 H   0  0  0  0  0  0  0  0  0  0  0  0  # atno 7974 bound_to 7965
  154.5140  140.2199  155.9101 H   0  0  0  0  0  0  0  0  0  0  0  0  # atno 8008 bound_to 7997
  156.1586  140.3147  155.8734 H   0  0  0  0  0  0  0  0  0  0  0  0  # atno 8009 bound_to 7997
  155.3797  140.0471  157.3034 H   0  0  0  0  0  0  0  0  0  0  0  0  # atno 8010 bound_to 7997
  139.5569  144.6855  151.4155 H   0  0  0  0  0  0  0  0  0  0  0  0  # atno 10167 bound_to 10162
  156.5645  130.8661  151.2819 H   0  0  0  0  0  0  0  0  0  0  0  0  # atno 10718 bound_to 10713
  154.7555  135.3103  154.8477 H   0  0  0  0  0  0  0  0  0  0  0  0  # atno 10763 bound_to 10752
  153.9252  135.6791  153.4751 H   0  0  0  0  0  0  0  0  0  0  0  0  # atno 10764 bound_to 10752
  153.1153  135.4847  154.9034 H   0  0  0  0  0  0  0  0  0  0  0  0  # atno 10765 bound_to 10752
  140.4526  134.1209  155.7704 H   0  0  0  0  0  0  0  0  0  0  0  0  # atno 11005 bound_to 11000
  145.0946  140.9307  143.4749 LP  0  0  0  0  0  0  0  0  0  0  0  0  # atno 17320 bound_to 7965
  145.0735  139.3013  143.5820 LP  0  0  0  0  0  0  0  0  0  0  0  0  # atno 17321 bound_to 7965
  140.6843  143.8009  150.7165 LP  0  0  0  0  0  0  0  0  0  0  0  0  # atno 17342 bound_to 10162
  140.1472  143.4389  152.2155 LP  0  0  0  0  0  0  0  0  0  0  0  0  # atno 17343 bound_to 10162
  157.7361  130.9774  150.2120 LP  0  0  0  0  0  0  0  0  0  0  0  0  # atno 17370 bound_to 10713
  156.2769  130.3728  149.7974 LP  0  0  0  0  0  0  0  0  0  0  0  0  # atno 17371 bound_to 10713
  141.1657  133.8707  157.1720 LP  0  0  0  0  0  0  0  0  0  0  0  0  # atno 17394 bound_to 11000
  139.9997  135.0033  157.0162 LP  0  0  0  0  0  0  0  0  0  0  0  0  # atno 17395 bound_to 11000

$$$$
