AV-unprocessed.smi:2591|AV-procd|sdf|10156|dock2
  -GOLD-   2272014163D 1   1.00000     0.00000
 Structure written by MMmdl.
 35 36  0  0  0  0  0  0  0  0  2 V2000
  146.8340  138.9986  152.5258 C   0  0  0  0  0  0  0  0  0  0  0  0
  147.8959  138.4646  153.4051 N   0  3  2  0  0  0  0  0  0  0  0  0
  147.3872  137.4726  154.3787 C   0  0  0  0  0  0  0  0  0  0  0  0
  148.5431  136.9225  155.2294 C   0  0  0  0  0  0  0  0  0  0  0  0
  149.2103  137.9968  155.8807 O   0  0  0  0  0  0  0  0  0  0  0  0
  149.7838  138.9235  154.9611 C   0  0  2  0  0  0  0  0  0  0  0  0
  150.5633  139.9747  155.7638 C   0  0  0  0  0  0  0  0  0  0  0  0
  150.7933  141.0823  155.2764 O   0  0  0  0  0  0  0  0  0  0  0  0
  150.9704  139.5819  156.9861 N   0  0  0  0  0  0  0  0  0  0  0  0
  151.6997  140.3239  157.9528 C   0  0  0  0  0  0  0  0  0  0  0  0
  151.4456  141.7135  157.9559 C   0  0  0  0  0  0  0  0  0  0  0  0
  152.1188  142.5457  158.8766 C   0  0  0  0  0  0  0  0  0  0  0  0
  151.8543  144.0431  158.9151 C   0  0  0  0  0  0  0  0  0  0  0  0
  150.5593  144.3006  158.7290 F   0  0  0  0  0  0  0  0  0  0  0  0
  152.2197  144.5605  160.0885 F   0  0  0  0  0  0  0  0  0  0  0  0
  152.5539  144.6357  157.9483 F   0  0  0  0  0  0  0  0  0  0  0  0
  153.0271  141.9498  159.7747 C   0  0  0  0  0  0  0  0  0  0  0  0
  153.2230  140.5589  159.7030 C   0  0  0  0  0  0  0  0  0  0  0  0
  152.5809  139.7671  158.8195 N   0  0  0  0  0  0  0  0  0  0  0  0
  148.6595  139.5324  154.0903 C   0  0  0  0  0  0  0  0  0  0  0  0
  146.0884  139.5490  153.1010 H   0  0  0  0  0  0  0  0  0  0  0  0
  146.3296  138.1896  151.9965 H   0  0  0  0  0  0  0  0  0  0  0  0
  147.2562  139.6725  151.7796 H   0  0  0  0  0  0  0  0  0  0  0  0
  146.6393  137.9395  155.0218 H   0  0  0  0  0  0  0  0  0  0  0  0
  146.8929  136.6561  153.8508 H   0  0  0  0  0  0  0  0  0  0  0  0
  148.1600  136.2363  155.9846 H   0  0  0  0  0  0  0  0  0  0  0  0
  149.2473  136.3594  154.6150 H   0  0  0  0  0  0  0  0  0  0  0  0
  150.4991  138.4004  154.3233 H   0  0  0  0  0  0  0  0  0  0  0  0
  150.7274  138.6400  157.2559 H   0  0  0  0  0  0  0  0  0  0  0  0
  150.7359  142.1388  157.2610 H   0  0  0  0  0  0  0  0  0  0  0  0
  153.5613  142.5399  160.5047 H   0  0  0  0  0  0  0  0  0  0  0  0
  153.9118  140.0676  160.3742 H   0  0  0  0  0  0  0  0  0  0  0  0
  149.0845  140.2045  153.3432 H   0  0  0  0  0  0  0  0  0  0  0  0
  147.9772  140.1232  154.7050 H   0  0  0  0  0  0  0  0  0  0  0  0
  148.5487  137.9770  152.8078 H   0  0  0  0  0  0  0  0  0  0  0  0
  1  2  1  0  0  0  0
  1 21  1  0  0  0  0
  1 22  1  0  0  0  0
  1 23  1  0  0  0  0
  2 20  1  0  0  0  0
  2  3  1  0  0  0  0
  2 35  1  0  0  0  0
  3  4  1  0  0  0  0
  3 24  1  0  0  0  0
  3 25  1  0  0  0  0
  4  5  1  0  0  0  0
  4 26  1  0  0  0  0
  4 27  1  0  0  0  0
  5  6  1  0  0  0  0
  6  7  1  0  0  0  0
  6 20  1  0  0  0  0
  6 28  1  0  0  0  0
  7  8  2  0  0  0  0
  7  9  1  0  0  0  0
  9 10  1  0  0  0  0
  9 29  1  0  0  0  0
 10 19  1  0  0  0  0
 10 11  2  0  0  0  0
 11 12  1  0  0  0  0
 11 30  1  0  0  0  0
 12 13  1  0  0  0  0
 12 17  2  0  0  0  0
 13 14  1  0  0  0  0
 13 15  1  0  0  0  0
 13 16  1  0  0  0  0
 17 18  1  0  0  0  0
 17 31  1  0  0  0  0
 18 19  2  0  0  0  0
 18 32  1  0  0  0  0
 20 33  1  0  0  0  0
 20 34  1  0  0  0  0
M  CHG  1   2   1
M  END
> <s_m_source_file>
AV-unprocessed.smi

> <i_m_source_file_index>
2591

> <i_lp_mmshare_version>
43012

> <i_f3d_flags>
0

> <s_epik_input>
W0NIM11OMVtDSDJdW0NIMl1PW0NASF0oW0NIMl0xKUMoPU8pW05IXWMyW2NIXWMoQyhGKShGKUYpW2NIXVtjSF1uMg==

> <s_epik_cmdline>
J2VwaWtfcHl0aG9uJywgJy1waCcsICc3LjAnLCAnLXRuJywgJzgnLCAnLW1hJywgJzIwMCcsICctbWV0YWxfYmluZGluZycsICctaW1hZScsICc8aW5maWxlLm1hZT4nLCAnLW9tYWUnLCAnPG91dGZpbGUubWFlPic=

> <r_epik_Ionization_Penalty>
0.314028

> <r_epik_Ionization_Penalty_Charging>
0.314023

> <r_epik_Ionization_Penalty_Neutral>
5.2303e-06

> <r_epik_State_Penalty>
0.308208

> <r_epik_Charging_Adjusted_Penalty>
0.62223

> <i_epik_Tot_Q>
1

> <i_epik_Tot_abs_Q>
1

> <r_epik_Metal_State_Penalty>
0.308209

> <b_epik_Metal_Only>
0

> <s_lp_Force_Field>
OPLS_2005

> <r_lp_Energy>
17.9232

> <b_lp_Chiralities_Consistent>
1

> <s_lp_Variant>
AV-unprocessed.smi:2591-4

> <Gold.Version>
5.8.1

> <Gold.Id.Protein>
6NUR|6NUR_protein|mol2

> <Gold.PLP.Fitness>
44.8339

> <Gold.PLP.PLP>
-39.2821

> <Gold.PLP.part.hbond>
-2.2644

> <Gold.PLP.part.metal>
0.0000

> <Gold.PLP.part.buried>
-2.9930

> <Gold.PLP.part.nonpolar>
-34.1104

> <Gold.PLP.part.repulsive>
0.1595

> <Gold.PLP.ligand.clash>
0.0000

> <Gold.PLP.ligand.torsion>
1.7379

> <Gold.PLP.Chemscore.Hbond>
2.6720

> <Gold.PLP.Chemscore.CHOScore>
0.0000

> <Gold.PLP.Chemscore.Metal>
0.0000

> <Gold.Chemscore.Hbonds>
donor molecule, donor type, donor heavy atom, donor atom, acceptor molecule, acceptor atom, score
      L1  H     2    35       P1  7948  1.86
      P1  H  7989  7998       L1     8  0.67

> <Gold.PLP.Chemscore.Internal.Correction>
1.0116

> <Gold.Rescore>
     Score         DG    S(hbond)    S(metal)    S(lipo)     H(rot)  DE(clash)    DE(int)     intcor
     14.34     -17.08       1.84        0.00      68.46       1.00       0.11       2.63       ----

> <Gold.Chemscore.Fitness>
14.3375

> <Gold.Chemscore.DG>
-17.0821

> <Gold.Chemscore.ZeroCoef>
-5.4800

> <Gold.Chemscore.Hbond>
1.8418

> <Gold.Chemscore.Metal>
0.0000

> <Gold.Chemscore.Lipo>
68.4640

> <Gold.Chemscore.Internal_Hbond>
0.0000

> <Gold.Chemscore.DEClash>
0.1099

> <Gold.Chemscore.DEInternal>
2.6346

> <Gold.Chemscore.Rot>
1.0000

> <Gold.Chemscore.Internal.Correction>
   9.000000E+99

> <Gold.Chemscore.Hbonds>
donor molecule, donor type, donor heavy atom, donor atom, acceptor molecule, acceptor atom, score
      L1  H     2    35       P1  7948  0.87
      P1  H  7989  7998       L1     8  0.51

> <Gold.Chemscore.Hbond.Weighted>
-6.1518

> <Gold.Chemscore.Metal.Weighted>
-0.0000

> <Gold.Chemscore.Lipo.Weighted>
-8.0103

> <Gold.Chemscore.Internal_Hbond.Weighted>
0.0000

> <Gold.Chemscore.DEClash.Weighted>
0.1099

> <Gold.Chemscore.DEInternal.Weighted>
2.6346

> <Gold.Chemscore.Rot.Weighted>
2.5600

> <Gold.Chemscore.Internal.Correction.Weighted>
   9.000000E+99

> <Gold.Protein.RotatedTorsions>
[ 6907 6896 6895 6894 ] final -141.58 input  -60.11 | X-H torsion
[ 7974 7965 7964 7962 ] final  161.72 input  175.53 | X-H torsion
[ 8008 7997 7996 7995 ] final -112.48 input   59.86 | X-H torsion
[ 10167 10162 10161 10158 ] final  143.64 input  -65.29 | X-H torsion
[ 10718 10713 10712 10709 ] final  -46.30 input   66.30 | X-H torsion
[ 10763 10752 10751 10750 ] final -118.83 input  -60.55 | X-H torsion
[ 11005 11000 10999 10996 ] final  159.23 input  -57.11 | X-H torsion

> <Gold.Protein.ActiveResidues>
 VAL166  LYS551  ARG553  GLY616  TRP617  ASP618  TYR619  PRO620  LYS621  CYS622 
 ASP623  PHE694  ASN695  SER759  ASP760  ASP761  ALA762  ILE779  LEU786  VAL792 
 PHE793  MET794  SER795  GLU796  ALA797  LYS798  CYS799  TRP800  GLU811  SER814 

> <Gold.Protein.RotatedAtoms>
  151.0756  133.5431  159.2623 H   0  0  0  0  0  0  0  0  0  0  0  0  # atno 6907 bound_to 6896
  151.2353  135.0569  159.9014 H   0  0  0  0  0  0  0  0  0  0  0  0  # atno 6908 bound_to 6896
  152.5417  134.0539  159.8176 H   0  0  0  0  0  0  0  0  0  0  0  0  # atno 6909 bound_to 6896
  144.7671  139.7938  143.6311 H   0  0  0  0  0  0  0  0  0  0  0  0  # atno 7974 bound_to 7965
  155.0058  140.0394  157.2379 H   0  0  0  0  0  0  0  0  0  0  0  0  # atno 8008 bound_to 7997
  154.7504  140.2765  155.6275 H   0  0  0  0  0  0  0  0  0  0  0  0  # atno 8009 bound_to 7997
  156.2884  140.2648  156.2255 H   0  0  0  0  0  0  0  0  0  0  0  0  # atno 8010 bound_to 7997
  139.4965  144.6027  151.6446 H   0  0  0  0  0  0  0  0  0  0  0  0  # atno 10167 bound_to 10162
  156.2196  130.4165  149.9009 H   0  0  0  0  0  0  0  0  0  0  0  0  # atno 10718 bound_to 10713
  154.8599  135.4260  154.2202 H   0  0  0  0  0  0  0  0  0  0  0  0  # atno 10763 bound_to 10752
  153.3209  135.6982  153.7037 H   0  0  0  0  0  0  0  0  0  0  0  0  # atno 10764 bound_to 10752
  153.6093  135.3522  155.2946 H   0  0  0  0  0  0  0  0  0  0  0  0  # atno 10765 bound_to 10752
  140.1942  134.8385  157.2946 H   0  0  0  0  0  0  0  0  0  0  0  0  # atno 11005 bound_to 11000
  146.1788  139.4971  142.9880 LP  0  0  0  0  0  0  0  0  0  0  0  0  # atno 17320 bound_to 7965
  145.6435  141.0279  143.1799 LP  0  0  0  0  0  0  0  0  0  0  0  0  # atno 17321 bound_to 7965
  140.5681  144.0156  150.6202 LP  0  0  0  0  0  0  0  0  0  0  0  0  # atno 17342 bound_to 10162
  140.3264  143.3105  152.0732 LP  0  0  0  0  0  0  0  0  0  0  0  0  # atno 17343 bound_to 10162
  156.6660  130.8801  151.3555 LP  0  0  0  0  0  0  0  0  0  0  0  0  # atno 17370 bound_to 10713
  157.7081  130.9408  150.0997 LP  0  0  0  0  0  0  0  0  0  0  0  0  # atno 17371 bound_to 10713
  140.2126  134.4120  155.7605 LP  0  0  0  0  0  0  0  0  0  0  0  0  # atno 17394 bound_to 11000
  141.2227  133.7126  156.8362 LP  0  0  0  0  0  0  0  0  0  0  0  0  # atno 17395 bound_to 11000

$$$$
