AV-unprocessed.smi:2781|AV-procd|sdf|10718|dock1
  -GOLD-   2272015153D 1   1.00000     0.00000
 Structure written by MMmdl.
 35 38  0  0  0  0  0  0  0  0  1 V2000
  146.4424  136.0713  152.6663 O   0  0  0  0  0  0  0  0  0  0  0  0
  145.8597  136.8583  151.9195 C   0  0  0  0  0  0  0  0  0  0  0  0
  145.9441  138.1990  151.9856 N   0  0  0  0  0  0  0  0  0  0  0  0
  146.6969  138.9888  152.8950 C   0  0  0  0  0  0  0  0  0  0  0  0
  146.7767  140.3624  152.5702 C   0  0  0  0  0  0  0  0  0  0  0  0
  147.5001  141.2324  153.4092 C   0  0  0  0  0  0  0  0  0  0  0  0
  148.1261  140.7037  154.5518 C   0  0  0  0  0  0  0  0  0  0  0  0
  148.8331  141.5009  155.3874 F   0  0  0  0  0  0  0  0  0  0  0  0
  147.9992  139.3253  154.8037 C   0  0  0  0  0  0  0  0  0  0  0  0
  147.3054  138.4907  154.0006 N   0  0  0  0  0  0  0  0  0  0  0  0
  145.0487  136.4743  150.9238 N   0  0  0  0  0  0  0  0  0  0  0  0
  144.7376  135.1243  150.5804 C   0  0  2  0  0  0  0  0  0  0  0  0
  144.7269  134.1127  151.7080 C   0  0  1  0  0  0  0  0  0  0  0  0
  144.2104  132.6770  151.6507 C   0  0  1  0  0  0  0  0  0  0  0  0
  143.4691  132.4002  150.3262 C   0  0  0  0  0  0  0  0  0  0  0  0
  144.6193  132.3988  149.2949 C   0  0  0  0  0  0  0  0  0  0  0  0
  145.8558  132.6754  150.1747 C   0  0  2  0  0  0  0  0  0  0  0  0
  145.4962  131.8864  151.4299 C   0  0  0  0  0  0  0  0  0  0  0  0
  145.8583  134.1113  150.6938 C   0  0  1  0  0  0  0  0  0  0  0  0
  145.4064  138.7152  151.3054 H   0  0  0  0  0  0  0  0  0  0  0  0
  146.2891  140.7505  151.6877 H   0  0  0  0  0  0  0  0  0  0  0  0
  147.5730  142.2851  153.1790 H   0  0  0  0  0  0  0  0  0  0  0  0
  148.4652  138.8803  155.6703 H   0  0  0  0  0  0  0  0  0  0  0  0
  144.6144  137.1930  150.3635 H   0  0  0  0  0  0  0  0  0  0  0  0
  144.0174  134.9900  149.7771 H   0  0  0  0  0  0  0  0  0  0  0  0
  144.9883  134.4632  152.7052 H   0  0  0  0  0  0  0  0  0  0  0  0
  143.6490  132.4036  152.5443 H   0  0  0  0  0  0  0  0  0  0  0  0
  142.9821  131.4245  150.3535 H   0  0  0  0  0  0  0  0  0  0  0  0
  142.7011  133.1438  150.1116 H   0  0  0  0  0  0  0  0  0  0  0  0
  144.6985  131.4223  148.8154 H   0  0  0  0  0  0  0  0  0  0  0  0
  144.4903  133.1413  148.5068 H   0  0  0  0  0  0  0  0  0  0  0  0
  146.8048  132.4008  149.7134 H   0  0  0  0  0  0  0  0  0  0  0  0
  146.2207  132.0070  152.2374 H   0  0  0  0  0  0  0  0  0  0  0  0
  145.3336  130.8221  151.2491 H   0  0  0  0  0  0  0  0  0  0  0  0
  146.8211  134.4602  151.0636 H   0  0  0  0  0  0  0  0  0  0  0  0
  1  2  2  0  0  0  0
  2  3  1  0  0  0  0
  2 11  1  0  0  0  0
  3  4  1  0  0  0  0
  3 20  1  0  0  0  0
  4 10  1  0  0  0  0
  4  5  2  0  0  0  0
  5  6  1  0  0  0  0
  5 21  1  0  0  0  0
  6  7  2  0  0  0  0
  6 22  1  0  0  0  0
  7  8  1  0  0  0  0
  7  9  1  0  0  0  0
  9 10  2  0  0  0  0
  9 23  1  0  0  0  0
 11 12  1  0  0  0  0
 11 24  1  0  0  0  0
 12 19  1  0  0  0  0
 12 13  1  0  0  0  0
 12 25  1  0  0  0  0
 13 19  1  0  0  0  0
 13 14  1  0  0  0  0
 13 26  1  0  0  0  0
 14 18  1  0  0  0  0
 14 15  1  0  0  0  0
 14 27  1  0  0  0  0
 15 16  1  0  0  0  0
 15 28  1  0  0  0  0
 15 29  1  0  0  0  0
 16 17  1  0  0  0  0
 16 30  1  0  0  0  0
 16 31  1  0  0  0  0
 17 18  1  0  0  0  0
 17 19  1  0  0  0  0
 17 32  1  0  0  0  0
 18 33  1  0  0  0  0
 18 34  1  0  0  0  0
 19 35  1  0  0  0  0
M  END
> <s_m_source_file>
AV-unprocessed.smi

> <i_m_source_file_index>
2781

> <i_lp_mmshare_version>
43012

> <i_f3d_flags>
0

> <s_epik_input>
bjFbY0hdYyhGKVtjSF1bY0hdYzFbTkhdQyg9TylbTkhdW0NASF0yW0NAQEhdM1tDQEhdKFtDSDJdNClbQ0gyXVtDSDJdW0NASF00W0NASF0yMw==

> <s_epik_cmdline>
J2VwaWtfcHl0aG9uJywgJy1waCcsICc3LjAnLCAnLXRuJywgJzgnLCAnLW1hJywgJzIwMCcsICctbWV0YWxfYmluZGluZycsICctaW1hZScsICc8aW5maWxlLm1hZT4nLCAnLW9tYWUnLCAnPG91dGZpbGUubWFlPic=

> <r_lp_tautomer_probability>
1

> <r_epik_Ionization_Penalty>
4.05776e-05

> <r_epik_Ionization_Penalty_Charging>
0

> <r_epik_Ionization_Penalty_Neutral>
4.05776e-05

> <r_epik_State_Penalty>
-0

> <r_epik_Charging_Adjusted_Penalty>
0

> <i_epik_Tot_Q>
0

> <i_epik_Tot_abs_Q>
0

> <r_epik_Metal_State_Penalty>
-0

> <b_epik_Metal_Only>
0

> <s_lp_Force_Field>
OPLS_2005

> <r_lp_Energy>
79.6255

> <b_lp_Chiralities_Consistent>
1

> <s_lp_Variant>
AV-unprocessed.smi:2781-2

> <Gold.Version>
5.8.1

> <Gold.Id.Protein>
6NUR|6NUR_protein|mol2

> <Gold.PLP.Fitness>
38.1399

> <Gold.PLP.PLP>
-33.7689

> <Gold.PLP.part.hbond>
-2.3346

> <Gold.PLP.part.metal>
0.0000

> <Gold.PLP.part.buried>
-2.6306

> <Gold.PLP.part.nonpolar>
-31.7836

> <Gold.PLP.part.repulsive>
3.4733

> <Gold.PLP.ligand.clash>
0.0000

> <Gold.PLP.ligand.torsion>
0.3733

> <Gold.PLP.Chemscore.Hbond>
1.6937

> <Gold.PLP.Chemscore.CHOScore>
0.0000

> <Gold.PLP.Chemscore.Metal>
0.0000

> <Gold.Chemscore.Hbonds>
donor molecule, donor type, donor heavy atom, donor atom, acceptor molecule, acceptor atom, score
      L1  H     3    20       P1 10171  0.69
      L1  H    11    24       P1 10171  1.00

> <Gold.PLP.Chemscore.Internal.Correction>
0.0365

> <Gold.Rescore>
     Score         DG    S(hbond)    S(metal)    S(lipo)     H(rot)  DE(clash)    DE(int)     intcor
     13.45     -20.60       1.95        0.00      95.32       1.00       2.76       4.39       ----

> <Gold.Chemscore.Fitness>
13.4514

> <Gold.Chemscore.DG>
-20.6001

> <Gold.Chemscore.ZeroCoef>
-5.4800

> <Gold.Chemscore.Hbond>
1.9545

> <Gold.Chemscore.Metal>
0.0000

> <Gold.Chemscore.Lipo>
95.3160

> <Gold.Chemscore.Internal_Hbond>
0.0000

> <Gold.Chemscore.DEClash>
2.7636

> <Gold.Chemscore.DEInternal>
4.3851

> <Gold.Chemscore.Rot>
1.0000

> <Gold.Chemscore.Internal.Correction>
   9.000000E+99

> <Gold.Chemscore.Hbonds>
donor molecule, donor type, donor heavy atom, donor atom, acceptor molecule, acceptor atom, score
      L1  H     3    20       P1 10171  0.65
      L1  H    11    24       P1 10171  1.00

> <Gold.Chemscore.Hbond.Weighted>
-6.5281

> <Gold.Chemscore.Metal.Weighted>
-0.0000

> <Gold.Chemscore.Lipo.Weighted>
-11.1520

> <Gold.Chemscore.Internal_Hbond.Weighted>
0.0000

> <Gold.Chemscore.DEClash.Weighted>
2.7636

> <Gold.Chemscore.DEInternal.Weighted>
4.3851

> <Gold.Chemscore.Rot.Weighted>
2.5600

> <Gold.Chemscore.Internal.Correction.Weighted>
   9.000000E+99

> <Gold.Protein.RotatedTorsions>
[ 6907 6896 6895 6894 ] final   17.40 input  -60.11 | X-H torsion
[ 7974 7965 7964 7962 ] final   39.93 input  175.53 | X-H torsion
[ 8008 7997 7996 7995 ] final   39.56 input   59.86 | X-H torsion
[ 10167 10162 10161 10158 ] final  -68.25 input  -65.29 | X-H torsion
[ 10718 10713 10712 10709 ] final  -23.48 input   66.30 | X-H torsion
[ 10763 10752 10751 10750 ] final   37.72 input  -60.55 | X-H torsion
[ 11005 11000 10999 10996 ] final -115.36 input  -57.11 | X-H torsion

> <Gold.Protein.ActiveResidues>
 VAL166  LYS551  ARG553  GLY616  TRP617  ASP618  TYR619  PRO620  LYS621  CYS622 
 ASP623  PHE694  ASN695  SER759  ASP760  ASP761  ALA762  ILE779  LEU786  VAL792 
 PHE793  MET794  SER795  GLU796  ALA797  LYS798  CYS799  TRP800  GLU811  SER814 

> <Gold.Protein.RotatedAtoms>
  151.8490  135.0564  160.0456 H   0  0  0  0  0  0  0  0  0  0  0  0  # atno 6907 bound_to 6896
  152.2751  133.5414  159.5471 H   0  0  0  0  0  0  0  0  0  0  0  0  # atno 6908 bound_to 6896
  150.7167  134.0559  159.3856 H   0  0  0  0  0  0  0  0  0  0  0  0  # atno 6909 bound_to 6896
  146.0945  139.5593  142.9454 H   0  0  0  0  0  0  0  0  0  0  0  0  # atno 7974 bound_to 7965
  155.2387  140.3344  155.4295 H   0  0  0  0  0  0  0  0  0  0  0  0  # atno 8008 bound_to 7997
  156.2265  140.1831  156.7395 H   0  0  0  0  0  0  0  0  0  0  0  0  # atno 8009 bound_to 7997
  154.5907  140.0638  156.9220 H   0  0  0  0  0  0  0  0  0  0  0  0  # atno 8010 bound_to 7997
  140.5521  143.2312  151.6891 H   0  0  0  0  0  0  0  0  0  0  0  0  # atno 10167 bound_to 10162
  156.4904  130.4565  149.6758 H   0  0  0  0  0  0  0  0  0  0  0  0  # atno 10718 bound_to 10713
  153.0027  135.6269  154.2190 H   0  0  0  0  0  0  0  0  0  0  0  0  # atno 10763 bound_to 10752
  154.1933  135.2807  155.3016 H   0  0  0  0  0  0  0  0  0  0  0  0  # atno 10764 bound_to 10752
  154.5742  135.5667  153.7183 H   0  0  0  0  0  0  0  0  0  0  0  0  # atno 10765 bound_to 10752
  141.0493  133.9713  157.2864 H   0  0  0  0  0  0  0  0  0  0  0  0  # atno 11005 bound_to 11000
  145.5975  141.0360  143.2036 LP  0  0  0  0  0  0  0  0  0  0  0  0  # atno 17320 bound_to 7965
  144.7385  139.7517  143.7320 LP  0  0  0  0  0  0  0  0  0  0  0  0  # atno 17321 bound_to 7965
  139.5032  144.3801  152.0385 LP  0  0  0  0  0  0  0  0  0  0  0  0  # atno 17342 bound_to 10162
  140.2919  144.3744  150.6086 LP  0  0  0  0  0  0  0  0  0  0  0  0  # atno 17343 bound_to 10162
  156.3432  130.7393  151.2341 LP  0  0  0  0  0  0  0  0  0  0  0  0  # atno 17370 bound_to 10713
  157.7474  131.0398  150.4567 LP  0  0  0  0  0  0  0  0  0  0  0  0  # atno 17371 bound_to 10713
  139.9337  135.0198  156.8485 LP  0  0  0  0  0  0  0  0  0  0  0  0  # atno 17394 bound_to 11000
  140.6086  134.0103  155.7567 LP  0  0  0  0  0  0  0  0  0  0  0  0  # atno 17395 bound_to 11000

$$$$
