AV-unprocessed.smi:174|AV-procd|sdf|1425|dock5
  -GOLD-   2262019193D 1   1.00000     0.00000
 Structure written by MMmdl.
 51 54  0  0  0  0  0  0  0  0  1 V2000
  147.2309  130.3783  155.0231 N   0  0  0  0  0  0  0  0  0  0  0  0
  147.9044  130.7152  153.9179 C   0  0  0  0  0  0  0  0  0  0  0  0
  147.3486  130.7837  152.8243 O   0  0  0  0  0  0  0  0  0  0  0  0
  149.4080  131.0260  154.0227 C   0  0  0  0  0  0  0  0  0  0  0  0
  149.7385  132.3336  154.6166 N   0  0  0  0  0  0  0  0  0  0  0  0
  150.7180  132.3306  155.7087 C   0  0  0  0  0  0  0  0  0  0  0  0
  150.4487  133.4410  156.7289 C   0  0  0  0  0  0  0  0  0  0  0  0
  150.3462  134.7301  156.0561 N   0  0  0  0  0  0  0  0  0  0  0  0
  150.5367  135.8830  156.7572 C   0  0  0  0  0  0  0  0  0  0  0  0
  150.2674  135.8605  158.0901 N   0  0  0  0  0  0  0  0  0  0  0  0
  150.4231  136.9547  158.8396 C   0  0  0  0  0  0  0  0  0  0  0  0
  150.8345  138.1669  158.4682 N   0  0  0  0  0  0  0  0  0  0  0  0
  151.1166  138.2026  157.1353 C   0  0  0  0  0  0  0  0  0  0  0  0
  150.9996  137.1215  156.2127 C   0  0  0  0  0  0  0  0  0  0  0  0
  151.3956  137.5525  154.9493 N   0  0  0  0  0  0  0  0  0  0  0  0
  151.7093  138.8081  155.1127 C   0  0  0  0  0  0  0  0  0  0  0  0
  151.5699  139.2798  156.3962 N   0  0  0  0  0  0  0  0  0  0  0  0
  151.8444  140.6266  156.8642 C   0  0  0  0  0  0  0  0  0  0  0  0
  150.5643  141.4749  156.9885 C   0  0  2  0  0  0  0  0  0  0  0  0
  150.1650  141.9625  155.7212 O   0  0  0  0  0  0  0  0  0  0  0  0
  150.7099  142.6313  157.9984 C   0  0  2  0  0  0  0  0  0  0  0  0
  151.6168  143.7921  157.5812 C   0  0  0  0  0  0  0  0  0  0  0  0
  151.9727  144.3841  158.9267 C   0  0  0  0  0  0  0  0  0  0  0  0
  152.1186  143.1324  159.7890 C   0  0  0  0  0  0  0  0  0  0  0  0
  151.1948  142.1834  159.2620 O   0  0  0  0  0  0  0  0  0  0  0  0
  149.5711  134.8246  154.8082 C   0  0  0  0  0  0  0  0  0  0  0  0
  149.2084  133.4859  154.1381 C   0  0  0  0  0  0  0  0  0  0  0  0
  148.4330  133.5115  153.1823 O   0  0  0  0  0  0  0  0  0  0  0  0
  146.2456  130.1654  154.9633 H   0  0  0  0  0  0  0  0  0  0  0  0
  147.7092  130.3305  155.9109 H   0  0  0  0  0  0  0  0  0  0  0  0
  149.8861  130.2233  154.5871 H   0  0  0  0  0  0  0  0  0  0  0  0
  149.8343  130.9540  153.0217 H   0  0  0  0  0  0  0  0  0  0  0  0
  150.7294  131.3695  156.2235 H   0  0  0  0  0  0  0  0  0  0  0  0
  151.7111  132.4602  155.2763 H   0  0  0  0  0  0  0  0  0  0  0  0
  149.5240  133.2404  157.2722 H   0  0  0  0  0  0  0  0  0  0  0  0
  151.2657  133.4464  157.4513 H   0  0  0  0  0  0  0  0  0  0  0  0
  150.1831  136.8420  159.8865 H   0  0  0  0  0  0  0  0  0  0  0  0
  152.0505  139.4288  154.2969 H   0  0  0  0  0  0  0  0  0  0  0  0
  152.3464  140.5564  157.8300 H   0  0  0  0  0  0  0  0  0  0  0  0
  152.5510  141.0957  156.1783 H   0  0  0  0  0  0  0  0  0  0  0  0
  149.7567  140.8308  157.3389 H   0  0  0  0  0  0  0  0  0  0  0  0
  149.8679  142.8537  155.8234 H   0  0  0  0  0  0  0  0  0  0  0  0
  149.7171  143.0413  158.1913 H   0  0  0  0  0  0  0  0  0  0  0  0
  152.5230  143.4397  157.0878 H   0  0  0  0  0  0  0  0  0  0  0  0
  151.1207  144.5014  156.9183 H   0  0  0  0  0  0  0  0  0  0  0  0
  152.8763  144.9939  158.9040 H   0  0  0  0  0  0  0  0  0  0  0  0
  151.1517  145.0011  159.2947 H   0  0  0  0  0  0  0  0  0  0  0  0
  153.1252  142.7230  159.6942 H   0  0  0  0  0  0  0  0  0  0  0  0
  151.9309  143.3291  160.8450 H   0  0  0  0  0  0  0  0  0  0  0  0
  148.6463  135.3707  155.0020 H   0  0  0  0  0  0  0  0  0  0  0  0
  150.1361  135.4026  154.0755 H   0  0  0  0  0  0  0  0  0  0  0  0
  1  2  1  0  0  0  0
  1 29  1  0  0  0  0
  1 30  1  0  0  0  0
  2  3  2  0  0  0  0
  2  4  1  0  0  0  0
  4  5  1  0  0  0  0
  4 31  1  0  0  0  0
  4 32  1  0  0  0  0
  5 27  1  0  0  0  0
  5  6  1  0  0  0  0
  6  7  1  0  0  0  0
  6 33  1  0  0  0  0
  6 34  1  0  0  0  0
  7  8  1  0  0  0  0
  7 35  1  0  0  0  0
  7 36  1  0  0  0  0
  8  9  1  0  0  0  0
  8 26  1  0  0  0  0
  9 14  1  0  0  0  0
  9 10  2  0  0  0  0
 10 11  1  0  0  0  0
 11 12  2  0  0  0  0
 11 37  1  0  0  0  0
 12 13  1  0  0  0  0
 13 17  1  0  0  0  0
 13 14  2  0  0  0  0
 14 15  1  0  0  0  0
 15 16  2  0  0  0  0
 16 17  1  0  0  0  0
 16 38  1  0  0  0  0
 17 18  1  0  0  0  0
 18 19  1  0  0  0  0
 18 39  1  0  0  0  0
 18 40  1  0  0  0  0
 19 20  1  0  0  0  0
 19 21  1  0  0  0  0
 19 41  1  0  0  0  0
 20 42  1  0  0  0  0
 21 25  1  0  0  0  0
 21 22  1  0  0  0  0
 21 43  1  0  0  0  0
 22 23  1  0  0  0  0
 22 44  1  0  0  0  0
 22 45  1  0  0  0  0
 23 24  1  0  0  0  0
 23 46  1  0  0  0  0
 23 47  1  0  0  0  0
 24 25  1  0  0  0  0
 24 48  1  0  0  0  0
 24 49  1  0  0  0  0
 26 27  1  0  0  0  0
 26 50  1  0  0  0  0
 26 51  1  0  0  0  0
 27 28  2  0  0  0  0
M  END
> <s_m_source_file>
AV-unprocessed.smi

> <i_m_source_file_index>
174

> <i_lp_mmshare_version>
43012

> <i_f3d_flags>
0

> <s_epik_input>
W05IMl1DKD1PKVtDSDJdTjFbQ0gyXVtDSDJdTihbQ0gyXUMxPU8pYyhuW2NIXW4yKWMoYzIzKW5bY0hdbjNbQ0gyXVtDQEhdKFtPSF0pW0NAQEhdNFtDSDJdW0NIMl1bQ0gyXU80

> <s_epik_cmdline>
J2VwaWtfcHl0aG9uJywgJy1waCcsICc3LjAnLCAnLXRuJywgJzgnLCAnLW1hJywgJzIwMCcsICctbWV0YWxfYmluZGluZycsICctaW1hZScsICc8aW5maWxlLm1hZT4nLCAnLW9tYWUnLCAnPG91dGZpbGUubWFlPic=

> <r_lp_tautomer_probability>
1

> <r_epik_Ionization_Penalty>
0.000250477

> <r_epik_Ionization_Penalty_Charging>
0

> <r_epik_Ionization_Penalty_Neutral>
0.000250477

> <r_epik_State_Penalty>
-0

> <r_epik_Charging_Adjusted_Penalty>
0

> <i_epik_Tot_Q>
0

> <i_epik_Tot_abs_Q>
0

> <r_epik_Metal_State_Penalty>
-0

> <b_epik_Metal_Only>
0

> <s_lp_Force_Field>
OPLS_2005

> <r_lp_Energy>
38.8972

> <b_lp_Chiralities_Consistent>
1

> <s_lp_Variant>
AV-unprocessed.smi:174-1

> <Gold.Version>
5.8.1

> <Gold.Id.Protein>
6NUR|6NUR_protein|mol2

> <Gold.PLP.Fitness>
47.8485

> <Gold.PLP.PLP>
-45.8030

> <Gold.PLP.part.hbond>
-2.0000

> <Gold.PLP.part.metal>
0.0000

> <Gold.PLP.part.buried>
-6.2182

> <Gold.PLP.part.nonpolar>
-38.4641

> <Gold.PLP.part.repulsive>
1.6142

> <Gold.PLP.ligand.clash>
0.0000

> <Gold.PLP.ligand.torsion>
1.4121

> <Gold.PLP.Chemscore.Hbond>
1.5304

> <Gold.PLP.Chemscore.CHOScore>
0.0000

> <Gold.PLP.Chemscore.Metal>
0.0000

> <Gold.Chemscore.Hbonds>
donor molecule, donor type, donor heavy atom, donor atom, acceptor molecule, acceptor atom, score
      L1  H    20    42       P1  8028  0.80
      P1  H  6896  6908       L1    10  0.63

> <Gold.PLP.Chemscore.Internal.Correction>
0.2784

> <Gold.Rescore>
     Score         DG    S(hbond)    S(metal)    S(lipo)     H(rot)  DE(clash)    DE(int)     intcor
      9.78     -11.21       1.48        0.00      82.41       3.46       0.05       1.39       ----

> <Gold.Chemscore.Fitness>
9.7801

> <Gold.Chemscore.DG>
-11.2118

> <Gold.Chemscore.ZeroCoef>
-5.4800

> <Gold.Chemscore.Hbond>
1.4807

> <Gold.Chemscore.Metal>
0.0000

> <Gold.Chemscore.Lipo>
82.4069

> <Gold.Chemscore.Internal_Hbond>
0.0000

> <Gold.Chemscore.DEClash>
0.0465

> <Gold.Chemscore.DEInternal>
1.3852

> <Gold.Chemscore.Rot>
3.4591

> <Gold.Chemscore.Internal.Correction>
   9.000000E+99

> <Gold.Chemscore.Hbonds>
donor molecule, donor type, donor heavy atom, donor atom, acceptor molecule, acceptor atom, score
      L1  H    20    42       P1  8028  0.79
      P1  H  6896  6908       L1    10  0.12

> <Gold.Chemscore.Hbond.Weighted>
-4.9456

> <Gold.Chemscore.Metal.Weighted>
-0.0000

> <Gold.Chemscore.Lipo.Weighted>
-9.6416

> <Gold.Chemscore.Internal_Hbond.Weighted>
0.0000

> <Gold.Chemscore.DEClash.Weighted>
0.0465

> <Gold.Chemscore.DEInternal.Weighted>
1.3852

> <Gold.Chemscore.Rot.Weighted>
8.8553

> <Gold.Chemscore.Internal.Correction.Weighted>
   9.000000E+99

> <Gold.Protein.RotatedTorsions>
[ 6907 6896 6895 6894 ] final  162.92 input  -60.11 | X-H torsion
[ 7974 7965 7964 7962 ] final  126.29 input  175.53 | X-H torsion
[ 8008 7997 7996 7995 ] final   99.28 input   59.86 | X-H torsion
[ 10167 10162 10161 10158 ] final  100.26 input  -65.29 | X-H torsion
[ 10718 10713 10712 10709 ] final  101.98 input   66.30 | X-H torsion
[ 10763 10752 10751 10750 ] final  -92.49 input  -60.55 | X-H torsion
[ 11005 11000 10999 10996 ] final    2.68 input  -57.11 | X-H torsion

> <Gold.Protein.ActiveResidues>
 VAL166  LYS551  ARG553  GLY616  TRP617  ASP618  TYR619  PRO620  LYS621  CYS622 
 ASP623  PHE694  ASN695  SER759  ASP760  ASP761  ALA762  ILE779  LEU786  VAL792 
 PHE793  MET794  SER795  GLU796  ALA797  LYS798  CYS799  TRP800  GLU811  SER814 

> <Gold.Protein.RotatedAtoms>
  151.9330  133.3616  159.3937 H   0  0  0  0  0  0  0  0  0  0  0  0  # atno 6907 bound_to 6896
  150.7013  134.4517  159.5349 H   0  0  0  0  0  0  0  0  0  0  0  0  # atno 6908 bound_to 6896
  152.2161  134.8456  160.0542 H   0  0  0  0  0  0  0  0  0  0  0  0  # atno 6909 bound_to 6896
  145.0633  139.3787  143.4994 H   0  0  0  0  0  0  0  0  0  0  0  0  # atno 7974 bound_to 7965
  156.1089  140.3231  155.8044 H   0  0  0  0  0  0  0  0  0  0  0  0  # atno 8008 bound_to 7997
  155.4708  140.0546  157.2997 H   0  0  0  0  0  0  0  0  0  0  0  0  # atno 8009 bound_to 7997
  154.4746  140.2026  155.9924 H   0  0  0  0  0  0  0  0  0  0  0  0  # atno 8010 bound_to 7997
  139.7543  144.6974  151.0386 H   0  0  0  0  0  0  0  0  0  0  0  0  # atno 10167 bound_to 10162
  157.6815  131.0741  150.5334 H   0  0  0  0  0  0  0  0  0  0  0  0  # atno 10718 bound_to 10713
  154.6866  135.5229  153.8335 H   0  0  0  0  0  0  0  0  0  0  0  0  # atno 10763 bound_to 10752
  153.0602  135.6565  154.0490 H   0  0  0  0  0  0  0  0  0  0  0  0  # atno 10764 bound_to 10752
  154.0370  135.2980  155.3340 H   0  0  0  0  0  0  0  0  0  0  0  0  # atno 10765 bound_to 10752
  140.6015  133.9831  155.8134 H   0  0  0  0  0  0  0  0  0  0  0  0  # atno 11005 bound_to 11000
  146.3525  140.0342  142.8648 LP  0  0  0  0  0  0  0  0  0  0  0  0  # atno 17320 bound_to 7965
  145.1381  140.9556  143.4504 LP  0  0  0  0  0  0  0  0  0  0  0  0  # atno 17321 bound_to 7965
  140.7801  143.4772  151.0066 LP  0  0  0  0  0  0  0  0  0  0  0  0  # atno 17342 bound_to 10162
  139.8459  143.7502  152.3179 LP  0  0  0  0  0  0  0  0  0  0  0  0  # atno 17343 bound_to 10162
  156.5643  130.4263  149.6048 LP  0  0  0  0  0  0  0  0  0  0  0  0  # atno 17370 bound_to 10713
  156.2794  130.7062  151.1882 LP  0  0  0  0  0  0  0  0  0  0  0  0  # atno 17371 bound_to 10713
  141.0869  133.9977  157.3300 LP  0  0  0  0  0  0  0  0  0  0  0  0  # atno 17394 bound_to 11000
  139.9230  135.0201  156.8134 LP  0  0  0  0  0  0  0  0  0  0  0  0  # atno 17395 bound_to 11000

$$$$
