AV-unprocessed.smi:3009|AV-procd|sdf|11452|dock1
  -GOLD-   2272016383D 1   1.00000     0.00000
 Structure written by MMmdl.
 44 45  0  0  0  0  0  0  0  0  2 V2000
  150.7714  137.0622  154.7521 C   0  0  0  0  0  0  0  0  0  0  0  0
  151.3863  138.4041  154.3210 C   0  0  0  0  0  0  0  0  0  0  0  0
  152.8740  138.4578  154.6999 C   0  0  0  0  0  0  0  0  0  0  0  0
  150.6284  139.6046  154.9285 C   0  0  0  0  0  0  0  0  0  0  0  0
  149.4507  140.0229  154.1250 N   0  3  2  0  0  0  0  0  0  0  0  0
  148.8783  141.3265  154.5432 C   0  0  0  0  0  0  0  0  0  0  0  0
  147.6817  141.6993  153.6533 C   0  0  0  0  0  0  0  0  0  0  0  0
  146.7108  140.6624  153.7043 O   0  0  0  0  0  0  0  0  0  0  0  0
  147.2147  139.4276  153.2055 C   0  0  2  0  0  0  0  0  0  0  0  0
  146.0700  138.3989  153.2180 C   0  0  0  0  0  0  0  0  0  0  0  0
  146.4509  137.1515  152.5644 N   0  0  0  0  0  0  0  0  0  0  0  0
  145.5942  136.2789  152.0162 C   0  0  0  0  0  0  0  0  0  0  0  0
  144.3731  136.4366  152.0142 O   0  0  0  0  0  0  0  0  0  0  0  0
  146.2399  135.2274  151.4868 N   0  0  0  0  0  0  0  0  0  0  0  0
  145.6716  134.1213  150.8062 C   0  0  0  0  0  0  0  0  0  0  0  0
  144.3594  134.0944  150.2607 C   0  0  0  0  0  0  0  0  0  0  0  0
  144.0986  132.9294  149.6855 N   0  0  0  0  0  0  0  0  0  0  0  0
  145.2309  132.2114  149.8608 N   0  0  0  0  0  0  0  0  0  0  0  0
  146.2152  132.8961  150.5385 C   0  0  0  0  0  0  0  0  0  0  0  0
  148.3948  138.9824  154.0911 C   0  0  0  0  0  0  0  0  0  0  0  0
  145.3158  131.2658  149.5161 H   0  0  0  0  0  0  0  0  0  0  0  0
  150.7886  136.9485  155.8365 H   0  0  0  0  0  0  0  0  0  0  0  0
  151.3204  136.2235  154.3232 H   0  0  0  0  0  0  0  0  0  0  0  0
  149.7358  136.9730  154.4239 H   0  0  0  0  0  0  0  0  0  0  0  0
  151.3395  138.4612  153.2343 H   0  0  0  0  0  0  0  0  0  0  0  0
  153.0115  138.4017  155.7802 H   0  0  0  0  0  0  0  0  0  0  0  0
  153.3350  139.3831  154.3531 H   0  0  0  0  0  0  0  0  0  0  0  0
  153.4247  137.6305  154.2511 H   0  0  0  0  0  0  0  0  0  0  0  0
  150.3015  139.3278  155.9321 H   0  0  0  0  0  0  0  0  0  0  0  0
  151.2966  140.4583  155.0533 H   0  0  0  0  0  0  0  0  0  0  0  0
  148.5609  141.2697  155.5857 H   0  0  0  0  0  0  0  0  0  0  0  0
  149.6285  142.1136  154.4804 H   0  0  0  0  0  0  0  0  0  0  0  0
  147.2269  142.6254  154.0050 H   0  0  0  0  0  0  0  0  0  0  0  0
  147.9975  141.8712  152.6230 H   0  0  0  0  0  0  0  0  0  0  0  0
  147.5665  139.5656  152.1811 H   0  0  0  0  0  0  0  0  0  0  0  0
  145.7556  138.1924  154.2423 H   0  0  0  0  0  0  0  0  0  0  0  0
  145.1977  138.8026  152.7035 H   0  0  0  0  0  0  0  0  0  0  0  0
  147.4375  136.9406  152.5244 H   0  0  0  0  0  0  0  0  0  0  0  0
  147.2457  135.2199  151.5724 H   0  0  0  0  0  0  0  0  0  0  0  0
  143.6032  134.8657  150.2625 H   0  0  0  0  0  0  0  0  0  0  0  0
  147.1772  132.4577  150.7587 H   0  0  0  0  0  0  0  0  0  0  0  0
  148.8113  138.0521  153.7023 H   0  0  0  0  0  0  0  0  0  0  0  0
  148.0508  138.7804  155.1069 H   0  0  0  0  0  0  0  0  0  0  0  0
  149.7729  140.1298  153.1735 H   0  0  0  0  0  0  0  0  0  0  0  0
  1  2  1  0  0  0  0
  1 22  1  0  0  0  0
  1 23  1  0  0  0  0
  1 24  1  0  0  0  0
  2  3  1  0  0  0  0
  2  4  1  0  0  0  0
  2 25  1  0  0  0  0
  3 26  1  0  0  0  0
  3 27  1  0  0  0  0
  3 28  1  0  0  0  0
  4  5  1  0  0  0  0
  4 29  1  0  0  0  0
  4 30  1  0  0  0  0
  5 20  1  0  0  0  0
  5  6  1  0  0  0  0
  5 44  1  0  0  0  0
  6  7  1  0  0  0  0
  6 31  1  0  0  0  0
  6 32  1  0  0  0  0
  7  8  1  0  0  0  0
  7 33  1  0  0  0  0
  7 34  1  0  0  0  0
  8  9  1  0  0  0  0
  9 10  1  0  0  0  0
  9 20  1  0  0  0  0
  9 35  1  0  0  0  0
 10 11  1  0  0  0  0
 10 36  1  0  0  0  0
 10 37  1  0  0  0  0
 11 12  1  0  0  0  0
 11 38  1  0  0  0  0
 12 13  2  0  0  0  0
 12 14  1  0  0  0  0
 14 15  1  0  0  0  0
 14 39  1  0  0  0  0
 15 19  2  0  0  0  0
 15 16  1  0  0  0  0
 16 17  2  0  0  0  0
 16 40  1  0  0  0  0
 17 18  1  0  0  0  0
 18 21  1  0  0  0  0
 18 19  1  0  0  0  0
 19 41  1  0  0  0  0
 20 42  1  0  0  0  0
 20 43  1  0  0  0  0
M  CHG  1   5   1
M  END
> <s_m_source_file>
AV-unprocessed.smi

> <i_m_source_file_index>
3009

> <i_lp_mmshare_version>
43012

> <i_f3d_flags>
0

> <s_epik_input>
W0NIM11bQ0hdKFtDSDNdKVtDSDJdTjFbQ0gyXVtDSDJdT1tDQEhdKFtDSDJdMSlbQ0gyXVtOSF1DKD1PKVtOSF1jMltjSF1uW25IXVtjSF0y

> <s_epik_cmdline>
J2VwaWtfcHl0aG9uJywgJy1waCcsICc3LjAnLCAnLXRuJywgJzgnLCAnLW1hJywgJzIwMCcsICctbWV0YWxfYmluZGluZycsICctaW1hZScsICc8aW5maWxlLm1hZT4nLCAnLW9tYWUnLCAnPG91dGZpbGUubWFlPic=

> <r_lp_tautomer_probability>
0.5

> <r_epik_Ionization_Penalty>
0.0974064

> <r_epik_Ionization_Penalty_Charging>
0.0973651

> <r_epik_Ionization_Penalty_Neutral>
4.13573e-05

> <r_epik_State_Penalty>
0.0874853

> <r_epik_Charging_Adjusted_Penalty>
0.18485

> <i_epik_Tot_Q>
1

> <i_epik_Tot_abs_Q>
1

> <r_epik_Metal_State_Penalty>
0.0874855

> <b_epik_Metal_Only>
0

> <s_lp_Force_Field>
OPLS_2005

> <r_lp_Energy>
20.2975

> <b_lp_Chiralities_Consistent>
1

> <s_lp_Variant>
AV-unprocessed.smi:3009-4

> <Gold.Version>
5.8.1

> <Gold.Id.Protein>
6NUR|6NUR_protein|mol2

> <Gold.PLP.Fitness>
48.7836

> <Gold.PLP.PLP>
-36.4215

> <Gold.PLP.part.hbond>
-3.0000

> <Gold.PLP.part.metal>
0.0000

> <Gold.PLP.part.buried>
-5.7883

> <Gold.PLP.part.nonpolar>
-28.5795

> <Gold.PLP.part.repulsive>
1.0590

> <Gold.PLP.ligand.clash>
0.0000

> <Gold.PLP.ligand.torsion>
0.6253

> <Gold.PLP.Chemscore.Hbond>
3.0000

> <Gold.PLP.Chemscore.CHOScore>
1.4849

> <Gold.PLP.Chemscore.Metal>
0.0000

> <Gold.Chemscore.Hbonds>
donor molecule, donor type, donor heavy atom, donor atom, acceptor molecule, acceptor atom, score
      L1  H     5    44       P1  7957  1.00
      L1  H    11    38       P1  7948  1.00
      L1  H    14    39       P1  7948  1.00
      L1  C    16    40       P1 10186  0.47
      L1  C    19    41       P1 10747  1.00

> <Gold.PLP.Chemscore.Internal.Correction>
0.1581

> <Gold.Rescore>
     Score         DG    S(hbond)    S(metal)    S(lipo)     H(rot)  DE(clash)    DE(int)     intcor
     18.31     -20.18       2.73        0.00      87.04       1.80       0.03       1.83       ----

> <Gold.Chemscore.Fitness>
18.3117

> <Gold.Chemscore.DG>
-20.1808

> <Gold.Chemscore.ZeroCoef>
-5.4800

> <Gold.Chemscore.Hbond>
2.7292

> <Gold.Chemscore.Metal>
0.0000

> <Gold.Chemscore.Lipo>
87.0396

> <Gold.Chemscore.Internal_Hbond>
0.0000

> <Gold.Chemscore.DEClash>
0.0350

> <Gold.Chemscore.DEInternal>
1.8341

> <Gold.Chemscore.Rot>
1.7963

> <Gold.Chemscore.Internal.Correction>
   9.000000E+99

> <Gold.Chemscore.Hbonds>
donor molecule, donor type, donor heavy atom, donor atom, acceptor molecule, acceptor atom, score
      L1  H     5    44       P1  7957  0.93
      L1  H    11    38       P1  7948  0.99
      L1  H    14    39       P1  7948  0.84

> <Gold.Chemscore.Hbond.Weighted>
-9.1156

> <Gold.Chemscore.Metal.Weighted>
-0.0000

> <Gold.Chemscore.Lipo.Weighted>
-10.1836

> <Gold.Chemscore.Internal_Hbond.Weighted>
0.0000

> <Gold.Chemscore.DEClash.Weighted>
0.0350

> <Gold.Chemscore.DEInternal.Weighted>
1.8341

> <Gold.Chemscore.Rot.Weighted>
4.5985

> <Gold.Chemscore.Internal.Correction.Weighted>
   9.000000E+99

> <Gold.Protein.RotatedTorsions>
[ 6907 6896 6895 6894 ] final -153.41 input  -60.11 | X-H torsion
[ 7974 7965 7964 7962 ] final  159.09 input  175.53 | X-H torsion
[ 8008 7997 7996 7995 ] final   27.50 input   59.86 | X-H torsion
[ 10167 10162 10161 10158 ] final   54.29 input  -65.29 | X-H torsion
[ 10718 10713 10712 10709 ] final  171.90 input   66.30 | X-H torsion
[ 10763 10752 10751 10750 ] final  -81.32 input  -60.55 | X-H torsion
[ 11005 11000 10999 10996 ] final -103.29 input  -57.11 | X-H torsion

> <Gold.Protein.ActiveResidues>
 VAL166  LYS551  ARG553  GLY616  TRP617  ASP618  TYR619  PRO620  LYS621  CYS622 
 ASP623  PHE694  ASN695  SER759  ASP760  ASP761  ALA762  ILE779  LEU786  VAL792 
 PHE793  MET794  SER795  GLU796  ALA797  LYS798  CYS799  TRP800  GLU811  SER814 

> <Gold.Protein.RotatedAtoms>
  151.2422  133.4393  159.2607 H   0  0  0  0  0  0  0  0  0  0  0  0  # atno 6907 bound_to 6896
  151.0694  134.9789  159.8311 H   0  0  0  0  0  0  0  0  0  0  0  0  # atno 6908 bound_to 6896
  152.5410  134.2368  159.8899 H   0  0  0  0  0  0  0  0  0  0  0  0  # atno 6909 bound_to 6896
  144.7809  139.7569  143.6260 H   0  0  0  0  0  0  0  0  0  0  0  0  # atno 7974 bound_to 7965
  155.0440  140.3172  155.4715 H   0  0  0  0  0  0  0  0  0  0  0  0  # atno 8008 bound_to 7997
  156.2849  140.2158  156.5507 H   0  0  0  0  0  0  0  0  0  0  0  0  # atno 8009 bound_to 7997
  154.7266  140.0485  157.0676 H   0  0  0  0  0  0  0  0  0  0  0  0  # atno 8010 bound_to 7997
  140.2317  144.3679  150.6412 H   0  0  0  0  0  0  0  0  0  0  0  0  # atno 10167 bound_to 10162
  156.9867  131.0135  151.2867 H   0  0  0  0  0  0  0  0  0  0  0  0  # atno 10718 bound_to 10713
  154.5622  135.5630  153.7017 H   0  0  0  0  0  0  0  0  0  0  0  0  # atno 10763 bound_to 10752
  153.0021  135.6276  154.2230 H   0  0  0  0  0  0  0  0  0  0  0  0  # atno 10764 bound_to 10752
  154.2167  135.2871  155.2919 H   0  0  0  0  0  0  0  0  0  0  0  0  # atno 10765 bound_to 10752
  141.1152  133.8628  157.1468 H   0  0  0  0  0  0  0  0  0  0  0  0  # atno 11005 bound_to 11000
  146.2017  139.5315  142.9739 LP  0  0  0  0  0  0  0  0  0  0  0  0  # atno 17320 bound_to 7965
  145.6052  141.0349  143.1996 LP  0  0  0  0  0  0  0  0  0  0  0  0  # atno 17321 bound_to 7965
  140.6180  143.2174  151.6752 LP  0  0  0  0  0  0  0  0  0  0  0  0  # atno 17342 bound_to 10162
  139.5107  144.3532  152.0632 LP  0  0  0  0  0  0  0  0  0  0  0  0  # atno 17343 bound_to 10162
  157.5488  130.8168  149.8119 LP  0  0  0  0  0  0  0  0  0  0  0  0  # atno 17370 bound_to 10713
  156.0223  130.3791  150.1926 LP  0  0  0  0  0  0  0  0  0  0  0  0  # atno 17371 bound_to 10713
  140.0070  135.0004  157.0313 LP  0  0  0  0  0  0  0  0  0  0  0  0  # atno 17394 bound_to 11000
  140.4666  134.1430  155.7197 LP  0  0  0  0  0  0  0  0  0  0  0  0  # atno 17395 bound_to 11000

$$$$
