AV-unprocessed.smi:2782|AV-procd|sdf|10722|dock1
  -GOLD-   2272015163D 1   1.00000     0.00000
 Structure written by MMmdl.
 38 39  0  0  0  0  0  0  0  0  1 V2000
  151.2761  144.0015  157.9139 C   0  0  0  0  0  0  0  0  0  0  0  0
  151.8640  143.7075  159.2788 C   0  0  0  0  0  0  0  0  0  0  0  0
  151.5984  144.5729  160.3574 C   0  0  0  0  0  0  0  0  0  0  0  0
  152.1372  144.2981  161.6271 C   0  0  0  0  0  0  0  0  0  0  0  0
  152.9448  143.1612  161.8223 C   0  0  0  0  0  0  0  0  0  0  0  0
  153.5859  142.8446  163.3945 Cl  0  0  0  0  0  0  0  0  0  0  0  0
  153.2282  142.2878  160.7488 C   0  0  0  0  0  0  0  0  0  0  0  0
  154.0390  141.2039  161.0123 O   0  0  0  0  0  0  0  0  0  0  0  0
  153.8573  140.0148  160.2541 C   0  0  0  0  0  0  0  0  0  0  0  0
  155.1538  139.1853  160.2986 C   0  0  1  0  0  0  0  0  0  0  0  0
  155.6204  139.0162  158.9757 O   0  0  0  0  0  0  0  0  0  0  0  0
  156.2868  139.8339  161.1274 C   0  0  0  0  0  0  0  0  0  0  0  0
  156.2697  139.4284  162.5382 N   0  0  0  0  0  0  0  0  0  0  0  0
  155.5226  138.2897  162.7924 N   0  0  0  0  0  0  0  0  0  0  0  0
  155.4403  137.7988  163.9850 C   0  0  0  0  0  0  0  0  0  0  0  0
  154.6430  136.5416  164.1636 C   0  0  0  0  0  0  0  0  0  0  0  0
  156.1152  138.4677  165.0805 C   0  0  0  0  0  0  0  0  0  0  0  0
  156.8410  139.5787  164.8302 C   0  0  0  0  0  0  0  0  0  0  0  0
  156.9640  140.1288  163.4820 C   0  0  0  0  0  0  0  0  0  0  0  0
  157.6325  141.1280  163.2189 O   0  0  0  0  0  0  0  0  0  0  0  0
  152.6718  142.5682  159.4747 C   0  0  0  0  0  0  0  0  0  0  0  0
  151.3290  145.0685  157.6956 H   0  0  0  0  0  0  0  0  0  0  0  0
  150.2304  143.6950  157.8810 H   0  0  0  0  0  0  0  0  0  0  0  0
  151.8146  143.4697  157.1288 H   0  0  0  0  0  0  0  0  0  0  0  0
  150.9790  145.4464  160.2151 H   0  0  0  0  0  0  0  0  0  0  0  0
  151.9289  144.9614  162.4539 H   0  0  0  0  0  0  0  0  0  0  0  0
  153.0325  139.4522  160.6953 H   0  0  0  0  0  0  0  0  0  0  0  0
  153.6010  140.2303  159.2156 H   0  0  0  0  0  0  0  0  0  0  0  0
  154.9314  138.1892  160.6829 H   0  0  0  0  0  0  0  0  0  0  0  0
  155.3710  138.1555  158.6760 H   0  0  0  0  0  0  0  0  0  0  0  0
  157.2554  139.5867  160.6885 H   0  0  0  0  0  0  0  0  0  0  0  0
  156.2134  140.9211  161.0578 H   0  0  0  0  0  0  0  0  0  0  0  0
  153.5928  136.7104  163.9242 H   0  0  0  0  0  0  0  0  0  0  0  0
  154.6998  136.1814  165.1910 H   0  0  0  0  0  0  0  0  0  0  0  0
  155.0172  135.7503  163.5127 H   0  0  0  0  0  0  0  0  0  0  0  0
  156.0370  138.0721  166.0824 H   0  0  0  0  0  0  0  0  0  0  0  0
  157.3467  140.0737  165.6462 H   0  0  0  0  0  0  0  0  0  0  0  0
  152.8503  141.9189  158.6312 H   0  0  0  0  0  0  0  0  0  0  0  0
  1  2  1  0  0  0  0
  1 22  1  0  0  0  0
  1 23  1  0  0  0  0
  1 24  1  0  0  0  0
  2 21  1  0  0  0  0
  2  3  2  0  0  0  0
  3  4  1  0  0  0  0
  3 25  1  0  0  0  0
  4  5  2  0  0  0  0
  4 26  1  0  0  0  0
  5  6  1  0  0  0  0
  5  7  1  0  0  0  0
  7  8  1  0  0  0  0
  7 21  2  0  0  0  0
  8  9  1  0  0  0  0
  9 10  1  0  0  0  0
  9 27  1  0  0  0  0
  9 28  1  0  0  0  0
 10 11  1  0  0  0  0
 10 12  1  0  0  0  0
 10 29  1  0  0  0  0
 11 30  1  0  0  0  0
 12 13  1  0  0  0  0
 12 31  1  0  0  0  0
 12 32  1  0  0  0  0
 13 19  1  0  0  0  0
 13 14  1  0  0  0  0
 14 15  2  0  0  0  0
 15 16  1  0  0  0  0
 15 17  1  0  0  0  0
 16 33  1  0  0  0  0
 16 34  1  0  0  0  0
 16 35  1  0  0  0  0
 17 18  2  0  0  0  0
 17 36  1  0  0  0  0
 18 19  1  0  0  0  0
 18 37  1  0  0  0  0
 19 20  2  0  0  0  0
 21 38  1  0  0  0  0
M  END
> <s_m_source_file>
AV-unprocessed.smi

> <i_m_source_file_index>
2782

> <i_lp_mmshare_version>
43012

> <i_f3d_flags>
0

> <s_epik_input>
W0NIM11jMVtjSF1bY0hdYyhDbCljKFtjSF0xKU9bQ0gyXVtDQEhdKFtPSF0pW0NIMl1uMm5jKFtDSDNdKVtjSF1bY0hdYzI9Tw==

> <s_epik_cmdline>
J2VwaWtfcHl0aG9uJywgJy1waCcsICc3LjAnLCAnLXRuJywgJzgnLCAnLW1hJywgJzIwMCcsICctbWV0YWxfYmluZGluZycsICctaW1hZScsICc8aW5maWxlLm1hZT4nLCAnLW9tYWUnLCAnPG91dGZpbGUubWFlPic=

> <r_lp_tautomer_probability>
1

> <r_epik_Ionization_Penalty>
2.96353e-07

> <r_epik_Ionization_Penalty_Charging>
1.79179e-07

> <r_epik_Ionization_Penalty_Neutral>
1.17174e-07

> <r_epik_State_Penalty>
-0

> <r_epik_Charging_Adjusted_Penalty>
1.79179e-07

> <i_epik_Tot_Q>
0

> <i_epik_Tot_abs_Q>
0

> <r_epik_Metal_State_Penalty>
-0

> <b_epik_Metal_Only>
0

> <s_lp_Force_Field>
OPLS_2005

> <r_lp_Energy>
25.2407

> <b_lp_Chiralities_Consistent>
1

> <s_lp_Variant>
AV-unprocessed.smi:2782-2

> <Gold.Version>
5.8.1

> <Gold.Id.Protein>
6NUR|6NUR_protein|mol2

> <Gold.PLP.Fitness>
51.2987

> <Gold.PLP.PLP>
-51.8918

> <Gold.PLP.part.hbond>
-2.0000

> <Gold.PLP.part.metal>
0.0000

> <Gold.PLP.part.buried>
-6.2358

> <Gold.PLP.part.nonpolar>
-43.3702

> <Gold.PLP.part.repulsive>
0.0000

> <Gold.PLP.ligand.clash>
0.0000

> <Gold.PLP.ligand.torsion>
1.8482

> <Gold.PLP.Chemscore.Hbond>
1.0000

> <Gold.PLP.Chemscore.CHOScore>
0.0000

> <Gold.PLP.Chemscore.Metal>
0.0000

> <Gold.Chemscore.Hbonds>
donor molecule, donor type, donor heavy atom, donor atom, acceptor molecule, acceptor atom, score
      P1  H  7997  8009       L1    11  1.00

> <Gold.PLP.Chemscore.Internal.Correction>
0.1032

> <Gold.Rescore>
     Score         DG    S(hbond)    S(metal)    S(lipo)     H(rot)  DE(clash)    DE(int)     intcor
     16.69     -18.57       0.74        0.00     139.38       2.22       0.22       1.66       ----

> <Gold.Chemscore.Fitness>
16.6878

> <Gold.Chemscore.DG>
-18.5733

> <Gold.Chemscore.ZeroCoef>
-5.4800

> <Gold.Chemscore.Hbond>
0.7390

> <Gold.Chemscore.Metal>
0.0000

> <Gold.Chemscore.Lipo>
139.3830

> <Gold.Chemscore.Internal_Hbond>
0.0000

> <Gold.Chemscore.DEClash>
0.2242

> <Gold.Chemscore.DEInternal>
1.6613

> <Gold.Chemscore.Rot>
2.2199

> <Gold.Chemscore.Internal.Correction>
   9.000000E+99

> <Gold.Chemscore.Hbonds>
donor molecule, donor type, donor heavy atom, donor atom, acceptor molecule, acceptor atom, score
      P1  H  7997  8009       L1    11  0.26

> <Gold.Chemscore.Hbond.Weighted>
-2.4684

> <Gold.Chemscore.Metal.Weighted>
-0.0000

> <Gold.Chemscore.Lipo.Weighted>
-16.3078

> <Gold.Chemscore.Internal_Hbond.Weighted>
0.0000

> <Gold.Chemscore.DEClash.Weighted>
0.2242

> <Gold.Chemscore.DEInternal.Weighted>
1.6613

> <Gold.Chemscore.Rot.Weighted>
5.6829

> <Gold.Chemscore.Internal.Correction.Weighted>
   9.000000E+99

> <Gold.Protein.RotatedTorsions>
[ 6907 6896 6895 6894 ] final   30.41 input  -60.11 | X-H torsion
[ 7974 7965 7964 7962 ] final  113.55 input  175.53 | X-H torsion
[ 8008 7997 7996 7995 ] final  104.94 input   59.86 | X-H torsion
[ 10167 10162 10161 10158 ] final   81.77 input  -65.29 | X-H torsion
[ 10718 10713 10712 10709 ] final   78.63 input   66.30 | X-H torsion
[ 10763 10752 10751 10750 ] final   91.95 input  -60.55 | X-H torsion
[ 11005 11000 10999 10996 ] final   49.41 input  -57.11 | X-H torsion

> <Gold.Protein.ActiveResidues>
 VAL166  LYS551  ARG553  GLY616  TRP617  ASP618  TYR619  PRO620  LYS621  CYS622 
 ASP623  PHE694  ASN695  SER759  ASP760  ASP761  ALA762  ILE779  LEU786  VAL792 
 PHE793  MET794  SER795  GLU796  ALA797  LYS798  CYS799  TRP800  GLU811  SER814 

> <Gold.Protein.RotatedAtoms>
  152.0455  134.9685  160.0574 H   0  0  0  0  0  0  0  0  0  0  0  0  # atno 6907 bound_to 6896
  152.1107  133.4294  159.4638 H   0  0  0  0  0  0  0  0  0  0  0  0  # atno 6908 bound_to 6896
  150.6843  134.2570  159.4577 H   0  0  0  0  0  0  0  0  0  0  0  0  # atno 6909 bound_to 6896
  145.2155  139.2886  143.4246 H   0  0  0  0  0  0  0  0  0  0  0  0  # atno 7974 bound_to 7965
  156.1617  140.3139  155.8818 H   0  0  0  0  0  0  0  0  0  0  0  0  # atno 8008 bound_to 7997
  155.3769  140.0485  157.3061 H   0  0  0  0  0  0  0  0  0  0  0  0  # atno 8009 bound_to 7997
  154.5152  140.2179  155.9090 H   0  0  0  0  0  0  0  0  0  0  0  0  # atno 8010 bound_to 7997
  139.9358  144.6122  150.8300 H   0  0  0  0  0  0  0  0  0  0  0  0  # atno 10167 bound_to 10162
  157.6751  130.9877  150.1815 H   0  0  0  0  0  0  0  0  0  0  0  0  # atno 10718 bound_to 10713
  153.2138  135.4379  155.0410 H   0  0  0  0  0  0  0  0  0  0  0  0  # atno 10763 bound_to 10752
  154.8214  135.3339  154.7029 H   0  0  0  0  0  0  0  0  0  0  0  0  # atno 10764 bound_to 10752
  153.7465  135.7001  153.5011 H   0  0  0  0  0  0  0  0  0  0  0  0  # atno 10765 bound_to 10752
  140.1106  134.4960  155.8681 H   0  0  0  0  0  0  0  0  0  0  0  0  # atno 11005 bound_to 11000
  146.3388  140.2444  142.8596 LP  0  0  0  0  0  0  0  0  0  0  0  0  # atno 17320 bound_to 7965
  144.9815  140.8464  143.5394 LP  0  0  0  0  0  0  0  0  0  0  0  0  # atno 17321 bound_to 7965
  140.7625  143.3199  151.2646 LP  0  0  0  0  0  0  0  0  0  0  0  0  # atno 17342 bound_to 10162
  139.6745  143.9962  152.2772 LP  0  0  0  0  0  0  0  0  0  0  0  0  # atno 17343 bound_to 10162
  156.2546  130.3704  149.8195 LP  0  0  0  0  0  0  0  0  0  0  0  0  # atno 17370 bound_to 10713
  156.5958  130.8526  151.3419 LP  0  0  0  0  0  0  0  0  0  0  0  0  # atno 17371 bound_to 10713
  141.2129  133.6726  156.6697 LP  0  0  0  0  0  0  0  0  0  0  0  0  # atno 17394 bound_to 11000
  140.3096  134.8097  157.4165 LP  0  0  0  0  0  0  0  0  0  0  0  0  # atno 17395 bound_to 11000

$$$$
