AV-unprocessed.smi:1826|AV-procd|sdf|7415|dock8
  -GOLD-   22720 9 93D 1   1.00000     0.00000
 Structure written by MMmdl.
 39 41  0  0  0  0  0  0  0  0  1 V2000
  150.8615  137.3449  154.0949 O   0  0  0  0  0  0  0  0  0  0  0  0
  150.1844  138.5832  154.0887 C   0  0  0  0  0  0  0  0  0  0  0  0
  150.6197  139.4836  155.2050 C   0  0  0  0  0  0  0  0  0  0  0  0
  151.4684  139.0663  156.1451 N   0  0  0  0  0  0  0  0  0  0  0  0
  151.5516  140.1569  156.9870 C   0  0  0  0  0  0  0  0  0  0  0  0
  152.2899  140.3420  158.1778 C   0  0  0  0  0  0  0  0  0  0  0  0
  152.2084  141.5581  158.8872 C   0  0  0  0  0  0  0  0  0  0  0  0
  151.3851  142.6022  158.4196 C   0  0  0  0  0  0  0  0  0  0  0  0
  150.6405  142.4373  157.2364 C   0  0  0  0  0  0  0  0  0  0  0  0
  150.7337  141.2259  156.5241 C   0  0  0  0  0  0  0  0  0  0  0  0
  150.1638  140.7559  155.3426 N   0  0  0  0  0  0  0  0  0  0  0  0
  149.2488  141.4925  154.4744 C   0  0  0  0  0  0  0  0  0  0  0  0
  147.8171  140.9060  154.4162 C   0  0  2  0  0  0  0  0  0  0  0  0
  147.6607  140.0844  153.2761 O   0  0  0  0  0  0  0  0  0  0  0  0
  146.7336  141.9719  154.5298 C   0  0  0  0  0  0  0  0  0  0  0  0
  146.5195  142.9121  153.4968 C   0  0  0  0  0  0  0  0  0  0  0  0
  145.5332  143.9077  153.6331 C   0  0  0  0  0  0  0  0  0  0  0  0
  144.7479  143.9785  154.8040 C   0  0  0  0  0  0  0  0  0  0  0  0
  143.6798  145.0506  154.9610 C   0  0  0  0  0  0  0  0  0  0  0  0
  142.4786  144.4743  154.9810 F   0  0  0  0  0  0  0  0  0  0  0  0
  143.8552  145.7183  156.1018 F   0  0  0  0  0  0  0  0  0  0  0  0
  143.7185  145.9260  153.9557 F   0  0  0  0  0  0  0  0  0  0  0  0
  144.9534  143.0314  155.8297 C   0  0  0  0  0  0  0  0  0  0  0  0
  145.9399  142.0359  155.6942 C   0  0  0  0  0  0  0  0  0  0  0  0
  150.9374  137.0404  153.2036 H   0  0  0  0  0  0  0  0  0  0  0  0
  150.3731  139.0770  153.1348 H   0  0  0  0  0  0  0  0  0  0  0  0
  149.1119  138.4064  154.1386 H   0  0  0  0  0  0  0  0  0  0  0  0
  152.9190  139.5458  158.5470 H   0  0  0  0  0  0  0  0  0  0  0  0
  152.7781  141.6891  159.7957 H   0  0  0  0  0  0  0  0  0  0  0  0
  151.3257  143.5306  158.9690 H   0  0  0  0  0  0  0  0  0  0  0  0
  150.0106  143.2370  156.8773 H   0  0  0  0  0  0  0  0  0  0  0  0
  149.2096  142.5305  154.8044 H   0  0  0  0  0  0  0  0  0  0  0  0
  149.6777  141.5214  153.4722 H   0  0  0  0  0  0  0  0  0  0  0  0
  147.6996  140.2424  155.2739 H   0  0  0  0  0  0  0  0  0  0  0  0
  148.4539  140.1298  152.7643 H   0  0  0  0  0  0  0  0  0  0  0  0
  147.1215  142.8874  152.6003 H   0  0  0  0  0  0  0  0  0  0  0  0
  145.3880  144.6190  152.8336 H   0  0  0  0  0  0  0  0  0  0  0  0
  144.3549  143.0677  156.7282 H   0  0  0  0  0  0  0  0  0  0  0  0
  146.0920  141.3255  156.4936 H   0  0  0  0  0  0  0  0  0  0  0  0
  1  2  1  0  0  0  0
  1 25  1  0  0  0  0
  2  3  1  0  0  0  0
  2 26  1  0  0  0  0
  2 27  1  0  0  0  0
  3 11  1  0  0  0  0
  3  4  2  0  0  0  0
  4  5  1  0  0  0  0
  5 10  2  0  0  0  0
  5  6  1  0  0  0  0
  6  7  2  0  0  0  0
  6 28  1  0  0  0  0
  7  8  1  0  0  0  0
  7 29  1  0  0  0  0
  8  9  2  0  0  0  0
  8 30  1  0  0  0  0
  9 10  1  0  0  0  0
  9 31  1  0  0  0  0
 10 11  1  0  0  0  0
 11 12  1  0  0  0  0
 12 13  1  0  0  0  0
 12 32  1  0  0  0  0
 12 33  1  0  0  0  0
 13 14  1  0  0  0  0
 13 15  1  0  0  0  0
 13 34  1  0  0  0  0
 14 35  1  0  0  0  0
 15 24  1  0  0  0  0
 15 16  2  0  0  0  0
 16 17  1  0  0  0  0
 16 36  1  0  0  0  0
 17 18  2  0  0  0  0
 17 37  1  0  0  0  0
 18 19  1  0  0  0  0
 18 23  1  0  0  0  0
 19 20  1  0  0  0  0
 19 21  1  0  0  0  0
 19 22  1  0  0  0  0
 23 24  2  0  0  0  0
 23 38  1  0  0  0  0
 24 39  1  0  0  0  0
M  END
> <s_m_source_file>
AV-unprocessed.smi

> <i_m_source_file_index>
1826

> <i_lp_mmshare_version>
43012

> <i_f3d_flags>
0

> <s_epik_input>
W2NIXTFbY0hdW2NIXVtjSF1jKGMxMiluKGMobjIpW0NIMl1bT0hdKVtDSDJdW0NASF0oW09IXSljM1tjSF1bY0hdYyhDKEYpKEYpRilbY0hdW2NIXTM=

> <s_epik_cmdline>
J2VwaWtfcHl0aG9uJywgJy1waCcsICc3LjAnLCAnLXRuJywgJzgnLCAnLW1hJywgJzIwMCcsICctbWV0YWxfYmluZGluZycsICctaW1hZScsICc8aW5maWxlLm1hZT4nLCAnLW9tYWUnLCAnPG91dGZpbGUubWFlPic=

> <r_epik_Ionization_Penalty>
0.0634718

> <r_epik_Ionization_Penalty_Charging>
0

> <r_epik_Ionization_Penalty_Neutral>
0.0634718

> <r_epik_State_Penalty>
0.0551572

> <r_epik_Charging_Adjusted_Penalty>
0.0551572

> <i_epik_Tot_Q>
0

> <i_epik_Tot_abs_Q>
0

> <r_epik_Metal_State_Penalty>
5.78034e-05

> <b_epik_Metal_Only>
0

> <s_lp_Force_Field>
OPLS_2005

> <r_lp_Energy>
13.2523

> <b_lp_Chiralities_Consistent>
1

> <s_lp_Variant>
AV-unprocessed.smi:1826-1

> <Gold.Version>
5.8.1

> <Gold.Id.Protein>
6NUR|6NUR_protein|mol2

> <Gold.PLP.Fitness>
53.1500

> <Gold.PLP.PLP>
-48.5916

> <Gold.PLP.part.hbond>
-2.6683

> <Gold.PLP.part.metal>
0.0000

> <Gold.PLP.part.buried>
-5.3794

> <Gold.PLP.part.nonpolar>
-40.5753

> <Gold.PLP.part.repulsive>
0.0000

> <Gold.PLP.ligand.clash>
0.6052

> <Gold.PLP.ligand.torsion>
0.8435

> <Gold.PLP.Chemscore.Hbond>
2.0000

> <Gold.PLP.Chemscore.CHOScore>
0.0000

> <Gold.PLP.Chemscore.Metal>
0.0000

> <Gold.Chemscore.Hbonds>
donor molecule, donor type, donor heavy atom, donor atom, acceptor molecule, acceptor atom, score
      L1  H     1    25       P1  7949  0.95
      L1  H    14    35       P1  7957  1.00

> <Gold.PLP.Chemscore.Internal.Correction>
0.8506

> <Gold.Rescore>
     Score         DG    S(hbond)    S(metal)    S(lipo)     H(rot)  DE(clash)    DE(int)     intcor
     14.09     -15.55       1.63        0.00     103.41       2.91       0.52       0.94       ----

> <Gold.Chemscore.Fitness>
14.0882

> <Gold.Chemscore.DG>
-15.5468

> <Gold.Chemscore.ZeroCoef>
-5.4800

> <Gold.Chemscore.Hbond>
1.6250

> <Gold.Chemscore.Metal>
0.0000

> <Gold.Chemscore.Lipo>
103.4125

> <Gold.Chemscore.Internal_Hbond>
0.0000

> <Gold.Chemscore.DEClash>
0.5155

> <Gold.Chemscore.DEInternal>
0.9430

> <Gold.Chemscore.Rot>
2.9141

> <Gold.Chemscore.Internal.Correction>
   9.000000E+99

> <Gold.Chemscore.Hbonds>
donor molecule, donor type, donor heavy atom, donor atom, acceptor molecule, acceptor atom, score
      L1  H     1    25       P1  7949  0.20
      L1  H    14    35       P1  7957  0.97

> <Gold.Chemscore.Hbond.Weighted>
-5.4275

> <Gold.Chemscore.Metal.Weighted>
-0.0000

> <Gold.Chemscore.Lipo.Weighted>
-12.0993

> <Gold.Chemscore.Internal_Hbond.Weighted>
0.0000

> <Gold.Chemscore.DEClash.Weighted>
0.5155

> <Gold.Chemscore.DEInternal.Weighted>
0.9430

> <Gold.Chemscore.Rot.Weighted>
7.4600

> <Gold.Chemscore.Internal.Correction.Weighted>
   9.000000E+99

> <Gold.Protein.RotatedTorsions>
[ 6907 6896 6895 6894 ] final  -88.54 input  -60.11 | X-H torsion
[ 7974 7965 7964 7962 ] final -157.43 input  175.53 | X-H torsion
[ 8008 7997 7996 7995 ] final  175.12 input   59.86 | X-H torsion
[ 10167 10162 10161 10158 ] final  -10.77 input  -65.29 | X-H torsion
[ 10718 10713 10712 10709 ] final -153.85 input   66.30 | X-H torsion
[ 10763 10752 10751 10750 ] final   -9.50 input  -60.55 | X-H torsion
[ 11005 11000 10999 10996 ] final   12.97 input  -57.11 | X-H torsion

> <Gold.Protein.ActiveResidues>
 VAL166  LYS551  ARG553  GLY616  TRP617  ASP618  TYR619  PRO620  LYS621  CYS622 
 ASP623  PHE694  ASN695  SER759  ASP760  ASP761  ALA762  ILE779  LEU786  VAL792 
 PHE793  MET794  SER795  GLU796  ALA797  LYS798  CYS799  TRP800  GLU811  SER814 

> <Gold.Protein.RotatedAtoms>
  150.6869  134.2726  159.4594 H   0  0  0  0  0  0  0  0  0  0  0  0  # atno 6907 bound_to 6896
  152.0647  134.9569  160.0584 H   0  0  0  0  0  0  0  0  0  0  0  0  # atno 6908 bound_to 6896
  152.0983  133.4201  159.4612 H   0  0  0  0  0  0  0  0  0  0  0  0  # atno 6909 bound_to 6896
  144.7549  140.3970  143.6020 H   0  0  0  0  0  0  0  0  0  0  0  0  # atno 7974 bound_to 7965
  156.0904  140.1417  156.9600 H   0  0  0  0  0  0  0  0  0  0  0  0  # atno 8008 bound_to 7997
  154.4638  140.0933  156.7012 H   0  0  0  0  0  0  0  0  0  0  0  0  # atno 8009 bound_to 7997
  155.4930  140.3448  155.4360 H   0  0  0  0  0  0  0  0  0  0  0  0  # atno 8010 bound_to 7997
  140.7122  143.5712  150.9091 H   0  0  0  0  0  0  0  0  0  0  0  0  # atno 10167 bound_to 10162
  156.4914  130.8349  151.2572 H   0  0  0  0  0  0  0  0  0  0  0  0  # atno 10718 bound_to 10713
  153.4556  135.7015  153.6082 H   0  0  0  0  0  0  0  0  0  0  0  0  # atno 10763 bound_to 10752
  153.4398  135.3783  155.2221 H   0  0  0  0  0  0  0  0  0  0  0  0  # atno 10764 bound_to 10752
  154.8728  135.3971  154.3975 H   0  0  0  0  0  0  0  0  0  0  0  0  # atno 10765 bound_to 10752
  140.4860  134.0888  155.7761 H   0  0  0  0  0  0  0  0  0  0  0  0  # atno 11005 bound_to 11000
  145.6815  139.1619  143.2698 LP  0  0  0  0  0  0  0  0  0  0  0  0  # atno 17320 bound_to 7965
  146.1546  140.6876  142.9306 LP  0  0  0  0  0  0  0  0  0  0  0  0  # atno 17321 bound_to 7965
  139.9438  143.6351  152.3047 LP  0  0  0  0  0  0  0  0  0  0  0  0  # atno 17342 bound_to 10162
  139.6845  144.7653  151.1548 LP  0  0  0  0  0  0  0  0  0  0  0  0  # atno 17343 bound_to 10162
  157.7473  131.0012  150.2955 LP  0  0  0  0  0  0  0  0  0  0  0  0  # atno 17370 bound_to 10713
  156.3423  130.3817  149.7399 LP  0  0  0  0  0  0  0  0  0  0  0  0  # atno 17371 bound_to 10713
  141.1508  133.8973  157.2103 LP  0  0  0  0  0  0  0  0  0  0  0  0  # atno 17394 bound_to 11000
  139.9797  135.0102  156.9720 LP  0  0  0  0  0  0  0  0  0  0  0  0  # atno 17395 bound_to 11000

$$$$
