AV-unprocessed.smi:435|AV-procd|sdf|2556|dock8
  -GOLD-   2262022523D 1   1.00000     0.00000
 Structure written by MMmdl.
 44 45  0  0  0  0  0  0  0  0  1 V2000
  156.0759  140.1524  163.7716 C   0  0  0  0  0  0  0  0  0  0  0  0
  155.6301  138.8544  163.1538 C   0  0  0  0  0  0  0  0  0  0  0  0
  155.0032  138.9343  162.0263 N   0  0  0  0  0  0  0  0  0  0  0  0
  154.5498  137.8045  161.3734 N   0  0  0  0  0  0  0  0  0  0  0  0
  153.8812  138.0792  160.0928 C   0  0  0  0  0  0  0  0  0  0  0  0
  153.8789  139.5672  159.7120 C   0  0  0  0  0  0  0  0  0  0  0  0
  154.2239  139.9321  158.5870 O   0  0  0  0  0  0  0  0  0  0  0  0
  153.5011  140.4187  160.6775 N   0  0  0  0  0  0  0  0  0  0  0  0
  153.4170  141.8695  160.5397 C   0  0  2  0  0  0  0  0  0  0  0  0
  152.7517  142.4994  161.7801 C   0  0  0  0  0  0  0  0  0  0  0  0
  152.5835  144.0188  161.6169 C   0  0  0  0  0  0  0  0  0  0  0  0
  151.7917  144.3694  160.3428 C   0  0  1  0  0  0  0  0  0  0  0  0
  151.6294  145.8874  160.1821 C   0  0  0  0  0  0  0  0  0  0  0  0
  152.4615  143.7402  159.1064 C   0  0  0  0  0  0  0  0  0  0  0  0
  152.6286  142.2204  159.2651 C   0  0  0  0  0  0  0  0  0  0  0  0
  154.6903  136.5296  161.8389 C   0  0  0  0  0  0  0  0  0  0  0  0
  154.2529  135.5508  161.2320 O   0  0  0  0  0  0  0  0  0  0  0  0
  155.4061  136.4462  163.1138 C   0  0  0  0  0  0  0  0  0  0  0  0
  155.5831  135.1284  163.6328 C   0  0  0  0  0  0  0  0  0  0  0  0
  155.7209  134.0518  164.0353 N   0  0  0  0  0  0  0  0  0  0  0  0
  155.8693  137.5469  163.7571 C   0  0  0  0  0  0  0  0  0  0  0  0
  156.6164  137.5112  165.0834 C   0  0  0  0  0  0  0  0  0  0  0  0
  155.7253  140.2340  164.8004 H   0  0  0  0  0  0  0  0  0  0  0  0
  155.6918  141.0153  163.2257 H   0  0  0  0  0  0  0  0  0  0  0  0
  157.1635  140.2229  163.7776 H   0  0  0  0  0  0  0  0  0  0  0  0
  154.3525  137.4995  159.2968 H   0  0  0  0  0  0  0  0  0  0  0  0
  152.8446  137.7394  160.1267 H   0  0  0  0  0  0  0  0  0  0  0  0
  153.2421  140.0322  161.5738 H   0  0  0  0  0  0  0  0  0  0  0  0
  154.4257  142.2740  160.4357 H   0  0  0  0  0  0  0  0  0  0  0  0
  151.7750  142.0435  161.9477 H   0  0  0  0  0  0  0  0  0  0  0  0
  153.3445  142.2943  162.6723 H   0  0  0  0  0  0  0  0  0  0  0  0
  152.0787  144.4257  162.4938 H   0  0  0  0  0  0  0  0  0  0  0  0
  153.5669  144.4896  161.5816 H   0  0  0  0  0  0  0  0  0  0  0  0
  150.7929  143.9410  160.4388 H   0  0  0  0  0  0  0  0  0  0  0  0
  152.5960  146.3813  160.0787 H   0  0  0  0  0  0  0  0  0  0  0  0
  151.1242  146.3222  161.0451 H   0  0  0  0  0  0  0  0  0  0  0  0
  151.0369  146.1272  159.2990 H   0  0  0  0  0  0  0  0  0  0  0  0
  151.8703  143.9504  158.2144 H   0  0  0  0  0  0  0  0  0  0  0  0
  153.4387  144.1969  158.9431 H   0  0  0  0  0  0  0  0  0  0  0  0
  153.1356  141.8148  158.3888 H   0  0  0  0  0  0  0  0  0  0  0  0
  151.6442  141.7511  159.2970 H   0  0  0  0  0  0  0  0  0  0  0  0
  156.8906  136.4972  165.3730 H   0  0  0  0  0  0  0  0  0  0  0  0
  155.9970  137.9278  165.8780 H   0  0  0  0  0  0  0  0  0  0  0  0
  157.5389  138.0895  165.0267 H   0  0  0  0  0  0  0  0  0  0  0  0
  1  2  1  0  0  0  0
  1 23  1  0  0  0  0
  1 24  1  0  0  0  0
  1 25  1  0  0  0  0
  2 21  1  0  0  0  0
  2  3  2  0  0  0  0
  3  4  1  0  0  0  0
  4  5  1  0  0  0  0
  4 16  1  0  0  0  0
  5  6  1  0  0  0  0
  5 26  1  0  0  0  0
  5 27  1  0  0  0  0
  6  7  2  0  0  0  0
  6  8  1  0  0  0  0
  8  9  1  0  0  0  0
  8 28  1  0  0  0  0
  9 15  1  0  0  0  0
  9 10  1  0  0  0  0
  9 29  1  0  0  0  0
 10 11  1  0  0  0  0
 10 30  1  0  0  0  0
 10 31  1  0  0  0  0
 11 12  1  0  0  0  0
 11 32  1  0  0  0  0
 11 33  1  0  0  0  0
 12 13  1  0  0  0  0
 12 14  1  0  0  0  0
 12 34  1  0  0  0  0
 13 35  1  0  0  0  0
 13 36  1  0  0  0  0
 13 37  1  0  0  0  0
 14 15  1  0  0  0  0
 14 38  1  0  0  0  0
 14 39  1  0  0  0  0
 15 40  1  0  0  0  0
 15 41  1  0  0  0  0
 16 17  2  0  0  0  0
 16 18  1  0  0  0  0
 18 19  1  0  0  0  0
 18 21  2  0  0  0  0
 19 20  3  0  0  0  0
 21 22  1  0  0  0  0
 22 42  1  0  0  0  0
 22 43  1  0  0  0  0
 22 44  1  0  0  0  0
M  END
> <s_m_source_file>
AV-unprocessed.smi

> <i_m_source_file_index>
435

> <i_lp_mmshare_version>
43012

> <i_f3d_flags>
0

> <s_epik_input>
TiNDYyhjMVtDSDNdKWMoPU8pbihuYzFbQ0gzXSlbQ0gyXUMoPU8pW05IXVtDQEBIXTJbQ0gyXVtDSDJdW0NAQEhdKFtDSDNdKVtDSDJdW0NIMl0y

> <s_epik_cmdline>
J2VwaWtfcHl0aG9uJywgJy1waCcsICc3LjAnLCAnLXRuJywgJzgnLCAnLW1hJywgJzIwMCcsICctbWV0YWxfYmluZGluZycsICctaW1hZScsICc8aW5maWxlLm1hZT4nLCAnLW9tYWUnLCAnPG91dGZpbGUubWFlPic=

> <r_lp_tautomer_probability>
1

> <r_epik_Ionization_Penalty>
1.90703e-08

> <r_epik_Ionization_Penalty_Charging>
2.32563e-11

> <r_epik_Ionization_Penalty_Neutral>
1.90471e-08

> <r_epik_State_Penalty>
-0

> <r_epik_Charging_Adjusted_Penalty>
2.32563e-11

> <i_epik_Tot_Q>
0

> <i_epik_Tot_abs_Q>
0

> <r_epik_Metal_State_Penalty>
-0

> <b_epik_Metal_Only>
0

> <s_lp_Force_Field>
OPLS_2005

> <r_lp_Energy>
23.1706

> <b_lp_Chiralities_Consistent>
1

> <s_lp_Variant>
AV-unprocessed.smi:435-1

> <Gold.Version>
5.8.1

> <Gold.Id.Protein>
6NUR|6NUR_protein|mol2

> <Gold.PLP.Fitness>
45.9913

> <Gold.PLP.PLP>
-40.8896

> <Gold.PLP.part.hbond>
-1.7533

> <Gold.PLP.part.metal>
0.0000

> <Gold.PLP.part.buried>
-1.2921

> <Gold.PLP.part.nonpolar>
-37.9280

> <Gold.PLP.part.repulsive>
0.1249

> <Gold.PLP.ligand.clash>
0.0000

> <Gold.PLP.ligand.torsion>
0.2194

> <Gold.PLP.Chemscore.Hbond>
1.8455

> <Gold.PLP.Chemscore.CHOScore>
0.0000

> <Gold.PLP.Chemscore.Metal>
0.0000

> <Gold.Chemscore.Hbonds>
donor molecule, donor type, donor heavy atom, donor atom, acceptor molecule, acceptor atom, score
      P1  H  6896  6909       L1    17  0.24
      P1  H  7997  8009       L1     7  0.94

> <Gold.PLP.Chemscore.Internal.Correction>
0.0041

> <Gold.Rescore>
     Score         DG    S(hbond)    S(metal)    S(lipo)     H(rot)  DE(clash)    DE(int)     intcor
     19.88     -21.37       1.88        0.00     114.22       1.46       0.10       1.40       ----

> <Gold.Chemscore.Fitness>
19.8764

> <Gold.Chemscore.DG>
-21.3743

> <Gold.Chemscore.ZeroCoef>
-5.4800

> <Gold.Chemscore.Hbond>
1.8777

> <Gold.Chemscore.Metal>
0.0000

> <Gold.Chemscore.Lipo>
114.2241

> <Gold.Chemscore.Internal_Hbond>
0.0000

> <Gold.Chemscore.DEClash>
0.1013

> <Gold.Chemscore.DEInternal>
1.3966

> <Gold.Chemscore.Rot>
1.4615

> <Gold.Chemscore.Internal.Correction>
   9.000000E+99

> <Gold.Chemscore.Hbonds>
donor molecule, donor type, donor heavy atom, donor atom, acceptor molecule, acceptor atom, score
      P1  H  6896  6909       L1    17  0.24
      P1  H  7997  8009       L1     7  0.86

> <Gold.Chemscore.Hbond.Weighted>
-6.2714

> <Gold.Chemscore.Metal.Weighted>
-0.0000

> <Gold.Chemscore.Lipo.Weighted>
-13.3642

> <Gold.Chemscore.Internal_Hbond.Weighted>
0.0000

> <Gold.Chemscore.DEClash.Weighted>
0.1013

> <Gold.Chemscore.DEInternal.Weighted>
1.3966

> <Gold.Chemscore.Rot.Weighted>
3.7414

> <Gold.Chemscore.Internal.Correction.Weighted>
   9.000000E+99

> <Gold.Protein.RotatedTorsions>
[ 6907 6896 6895 6894 ] final  175.88 input  -60.11 | X-H torsion
[ 7974 7965 7964 7962 ] final -169.37 input  175.53 | X-H torsion
[ 8008 7997 7996 7995 ] final  123.87 input   59.86 | X-H torsion
[ 10167 10162 10161 10158 ] final   85.57 input  -65.29 | X-H torsion
[ 10718 10713 10712 10709 ] final   49.40 input   66.30 | X-H torsion
[ 10763 10752 10751 10750 ] final  119.15 input  -60.55 | X-H torsion
[ 11005 11000 10999 10996 ] final  -33.67 input  -57.11 | X-H torsion

> <Gold.Protein.ActiveResidues>
 VAL166  LYS551  ARG553  GLY616  TRP617  ASP618  TYR619  PRO620  LYS621  CYS622 
 ASP623  PHE694  ASN695  SER759  ASP760  ASP761  ALA762  ILE779  LEU786  VAL792 
 PHE793  MET794  SER795  GLU796  ALA797  LYS798  CYS799  TRP800  GLU811  SER814 

> <Gold.Protein.RotatedAtoms>
  151.7292  133.3317  159.3335 H   0  0  0  0  0  0  0  0  0  0  0  0  # atno 6907 bound_to 6896
  150.7620  134.6379  159.6230 H   0  0  0  0  0  0  0  0  0  0  0  0  # atno 6908 bound_to 6896
  152.3603  134.6884  160.0261 H   0  0  0  0  0  0  0  0  0  0  0  0  # atno 6909 bound_to 6896
  144.7186  140.2231  143.6313 H   0  0  0  0  0  0  0  0  0  0  0  0  # atno 7974 bound_to 7965
  156.2781  140.2753  156.1696 H   0  0  0  0  0  0  0  0  0  0  0  0  # atno 8008 bound_to 7997
  155.0668  140.0387  157.2613 H   0  0  0  0  0  0  0  0  0  0  0  0  # atno 8009 bound_to 7997
  154.7072  140.2661  155.6669 H   0  0  0  0  0  0  0  0  0  0  0  0  # atno 8010 bound_to 7997
  139.8964  144.6355  150.8684 H   0  0  0  0  0  0  0  0  0  0  0  0  # atno 10167 bound_to 10162
  157.4782  130.8298  149.8064 H   0  0  0  0  0  0  0  0  0  0  0  0  # atno 10718 bound_to 10713
  153.5786  135.3488  155.2866 H   0  0  0  0  0  0  0  0  0  0  0  0  # atno 10763 bound_to 10752
  154.8671  135.4176  154.2645 H   0  0  0  0  0  0  0  0  0  0  0  0  # atno 10764 bound_to 10752
  153.3426  135.7051  153.6924 H   0  0  0  0  0  0  0  0  0  0  0  0  # atno 10765 bound_to 10752
  140.9654  133.7140  156.1436 H   0  0  0  0  0  0  0  0  0  0  0  0  # atno 11005 bound_to 11000
  145.8482  139.2163  143.1787 LP  0  0  0  0  0  0  0  0  0  0  0  0  # atno 17320 bound_to 7965
  146.0284  140.8281  142.9888 LP  0  0  0  0  0  0  0  0  0  0  0  0  # atno 17321 bound_to 7965
  140.7716  143.3470  151.2090 LP  0  0  0  0  0  0  0  0  0  0  0  0  # atno 17342 bound_to 10162
  139.7064  143.9448  152.2928 LP  0  0  0  0  0  0  0  0  0  0  0  0  # atno 17343 bound_to 10162
  156.0108  130.3834  150.2272 LP  0  0  0  0  0  0  0  0  0  0  0  0  # atno 17370 bound_to 10713
  157.0457  131.0048  151.3269 LP  0  0  0  0  0  0  0  0  0  0  0  0  # atno 17371 bound_to 10713
  140.7407  134.4153  157.5555 LP  0  0  0  0  0  0  0  0  0  0  0  0  # atno 17394 bound_to 11000
  139.8892  134.8835  156.2431 LP  0  0  0  0  0  0  0  0  0  0  0  0  # atno 17395 bound_to 11000

$$$$
