AV-unprocessed.smi:159|AV-procd|sdf|1340|dock2
  -GOLD-   2262019 33D 1   1.00000     0.00000
 Structure written by MMmdl.
 28 29  0  0  0  0  0  0  0  0  1 V2000
  148.7623  138.6772  153.2606 N   0  0  0  0  0  0  0  0  0  0  0  0
  149.4399  139.4680  154.1041 C   0  0  0  0  0  0  0  0  0  0  0  0
  148.8080  140.6340  154.6776 C   0  0  0  0  0  0  0  0  0  0  0  0
  149.5537  141.3806  155.5219 C   0  0  0  0  0  0  0  0  0  0  0  0
  150.8651  141.0497  155.8426 N   0  0  0  0  0  0  0  0  0  0  0  0
  151.7133  141.8914  156.7778 C   0  0  2  0  0  0  0  0  0  0  0  0
  152.1526  141.0734  158.0074 C   0  0  0  0  0  0  0  0  0  0  0  0
  151.7037  141.9451  159.1635 C   0  0  0  0  0  0  0  0  0  0  0  0
  150.4948  142.6622  158.5729 C   0  0  1  0  0  0  0  0  0  0  0  0
  150.1149  143.9475  159.3206 C   0  0  0  0  0  0  0  0  0  0  0  0
  150.2542  145.0606  158.4639 O   0  0  0  0  0  0  0  0  0  0  0  0
  150.9652  142.9680  157.2654 O   0  0  0  0  0  0  0  0  0  0  0  0
  151.4598  139.9094  155.2497 C   0  0  0  0  0  0  0  0  0  0  0  0
  152.6251  139.5919  155.4857 O   0  0  0  0  0  0  0  0  0  0  0  0
  150.6891  139.1647  154.3981 N   0  0  0  0  0  0  0  0  0  0  0  0
  152.5380  142.2666  156.1689 H   0  0  0  0  0  0  0  0  0  0  0  0
  149.6520  141.9697  158.5262 H   0  0  0  0  0  0  0  0  0  0  0  0
  149.2067  137.8637  152.8598 H   0  0  0  0  0  0  0  0  0  0  0  0
  147.8049  138.8975  153.0274 H   0  0  0  0  0  0  0  0  0  0  0  0
  147.7893  140.9235  154.4629 H   0  0  0  0  0  0  0  0  0  0  0  0
  149.0828  142.2551  155.9448 H   0  0  0  0  0  0  0  0  0  0  0  0
  151.6342  140.1135  158.0313 H   0  0  0  0  0  0  0  0  0  0  0  0
  153.2284  140.8962  157.9966 H   0  0  0  0  0  0  0  0  0  0  0  0
  151.4639  141.3722  160.0597 H   0  0  0  0  0  0  0  0  0  0  0  0
  152.4867  142.6623  159.4146 H   0  0  0  0  0  0  0  0  0  0  0  0
  149.0718  143.9042  159.6350 H   0  0  0  0  0  0  0  0  0  0  0  0
  150.7202  144.0789  160.2180 H   0  0  0  0  0  0  0  0  0  0  0  0
  149.3962  145.4172  158.2918 H   0  0  0  0  0  0  0  0  0  0  0  0
  1  2  1  0  0  0  0
  1 18  1  0  0  0  0
  1 19  1  0  0  0  0
  2 15  2  0  0  0  0
  2  3  1  0  0  0  0
  3  4  2  0  0  0  0
  3 20  1  0  0  0  0
  4  5  1  0  0  0  0
  4 21  1  0  0  0  0
  5  6  1  0  0  0  0
  5 13  1  0  0  0  0
  6 16  1  0  0  0  0
  6 12  1  0  0  0  0
  6  7  1  0  0  0  0
  7  8  1  0  0  0  0
  7 22  1  0  0  0  0
  7 23  1  0  0  0  0
  8  9  1  0  0  0  0
  8 24  1  0  0  0  0
  8 25  1  0  0  0  0
  9 17  1  0  0  0  0
  9 10  1  0  0  0  0
  9 12  1  0  0  0  0
 10 11  1  0  0  0  0
 10 26  1  0  0  0  0
 10 27  1  0  0  0  0
 11 28  1  0  0  0  0
 13 14  2  0  0  0  0
 13 15  1  0  0  0  0
M  END
> <s_m_source_file>
AV-unprocessed.smi

> <i_m_source_file_index>
159

> <i_lp_mmshare_version>
43012

> <i_f3d_flags>
0

> <s_epik_input>
W05IMl1jMVtjSF1bY0hdbihjKD1PKW4xKVtDQEhdMltDSDJdW0NIMl1bQ0BIXShPMilbQ0gyXVtPSF0=

> <s_epik_cmdline>
J2VwaWtfcHl0aG9uJywgJy1waCcsICc3LjAnLCAnLXRuJywgJzgnLCAnLW1hJywgJzIwMCcsICctbWV0YWxfYmluZGluZycsICctaW1hZScsICc8aW5maWxlLm1hZT4nLCAnLW9tYWUnLCAnPG91dGZpbGUubWFlPic=

> <r_lp_tautomer_probability>
0.99996

> <r_epik_Ionization_Penalty>
0.00126102

> <r_epik_Ionization_Penalty_Charging>
4.46248e-08

> <r_epik_Ionization_Penalty_Neutral>
0.00126097

> <r_epik_State_Penalty>
1.15523e-05

> <r_epik_Charging_Adjusted_Penalty>
1.1597e-05

> <i_epik_Tot_Q>
0

> <i_epik_Tot_abs_Q>
0

> <r_epik_Metal_State_Penalty>
-0

> <b_epik_Metal_Only>
0

> <s_epik_Chemistry_Notes>
This compound contains an acetal/aminal-like group ( X-CH(R)-Y where X, Y are N, S, or O) that may be acid/base labile, releasing an aldehyde.

> <s_lp_Force_Field>
OPLS_2005

> <r_lp_Energy>
23.8013

> <b_lp_Chiralities_Consistent>
1

> <s_lp_Variant>
AV-unprocessed.smi:159-2

> <Gold.Version>
5.8.1

> <Gold.Id.Protein>
6NUR|6NUR_protein|mol2

> <Gold.PLP.Fitness>
36.6288

> <Gold.PLP.PLP>
-26.1755

> <Gold.PLP.part.hbond>
-5.0482

> <Gold.PLP.part.metal>
0.0000

> <Gold.PLP.part.buried>
-3.5428

> <Gold.PLP.part.nonpolar>
-18.2473

> <Gold.PLP.part.repulsive>
0.3468

> <Gold.PLP.ligand.clash>
0.0000

> <Gold.PLP.ligand.torsion>
0.7489

> <Gold.PLP.Chemscore.Hbond>
2.9760

> <Gold.PLP.Chemscore.CHOScore>
1.0000

> <Gold.PLP.Chemscore.Metal>
0.0000

> <Gold.Chemscore.Hbonds>
donor molecule, donor type, donor heavy atom, donor atom, acceptor molecule, acceptor atom, score
      L1  H     1    18       P1  7948  0.94
      L1  H    11    28       P1  8029  1.00
      P1  H  7997  8008       L1    14  1.00
      L1  C     4    21       P1  8028  1.00

> <Gold.PLP.Chemscore.Internal.Correction>
0.0230

> <Gold.Rescore>
     Score         DG    S(hbond)    S(metal)    S(lipo)     H(rot)  DE(clash)    DE(int)     intcor
     12.15     -13.61       2.62        0.00      40.37       2.09       0.57       0.88       ----

> <Gold.Chemscore.Fitness>
12.1507

> <Gold.Chemscore.DG>
-13.6063

> <Gold.Chemscore.ZeroCoef>
-5.4800

> <Gold.Chemscore.Hbond>
2.6235

> <Gold.Chemscore.Metal>
0.0000

> <Gold.Chemscore.Lipo>
40.3692

> <Gold.Chemscore.Internal_Hbond>
0.0000

> <Gold.Chemscore.DEClash>
0.5715

> <Gold.Chemscore.DEInternal>
0.8842

> <Gold.Chemscore.Rot>
2.0935

> <Gold.Chemscore.Internal.Correction>
   9.000000E+99

> <Gold.Chemscore.Hbonds>
donor molecule, donor type, donor heavy atom, donor atom, acceptor molecule, acceptor atom, score
      L1  H     1    18       P1  7948  0.89
      L1  H    11    28       P1  8029  0.69
      P1  H  7997  8008       L1    14  0.99

> <Gold.Chemscore.Hbond.Weighted>
-8.7625

> <Gold.Chemscore.Metal.Weighted>
-0.0000

> <Gold.Chemscore.Lipo.Weighted>
-4.7232

> <Gold.Chemscore.Internal_Hbond.Weighted>
0.0000

> <Gold.Chemscore.DEClash.Weighted>
0.5715

> <Gold.Chemscore.DEInternal.Weighted>
0.8842

> <Gold.Chemscore.Rot.Weighted>
5.3594

> <Gold.Chemscore.Internal.Correction.Weighted>
   9.000000E+99

> <Gold.Protein.RotatedTorsions>
[ 6907 6896 6895 6894 ] final  165.00 input  -60.11 | X-H torsion
[ 7974 7965 7964 7962 ] final  128.51 input  175.53 | X-H torsion
[ 8008 7997 7996 7995 ] final  -35.26 input   59.86 | X-H torsion
[ 10167 10162 10161 10158 ] final  124.47 input  -65.29 | X-H torsion
[ 10718 10713 10712 10709 ] final  -64.26 input   66.30 | X-H torsion
[ 10763 10752 10751 10750 ] final  163.75 input  -60.55 | X-H torsion
[ 11005 11000 10999 10996 ] final   84.42 input  -57.11 | X-H torsion

> <Gold.Protein.ActiveResidues>
 VAL166  LYS551  ARG553  GLY616  TRP617  ASP618  TYR619  PRO620  LYS621  CYS622 
 ASP623  PHE694  ASN695  SER759  ASP760  ASP761  ALA762  ILE779  LEU786  VAL792 
 PHE793  MET794  SER795  GLU796  ALA797  LYS798  CYS799  TRP800  GLU811  SER814 

> <Gold.Protein.RotatedAtoms>
  151.9011  133.3538  159.3830 H   0  0  0  0  0  0  0  0  0  0  0  0  # atno 6907 bound_to 6896
  150.7080  134.4827  159.5487 H   0  0  0  0  0  0  0  0  0  0  0  0  # atno 6908 bound_to 6896
  152.2416  134.8223  160.0510 H   0  0  0  0  0  0  0  0  0  0  0  0  # atno 6909 bound_to 6896
  145.0388  139.3982  143.5113 H   0  0  0  0  0  0  0  0  0  0  0  0  # atno 7974 bound_to 7965
  154.4100  140.1662  156.2182 H   0  0  0  0  0  0  0  0  0  0  0  0  # atno 8008 bound_to 7997
  155.9386  140.3409  155.6285 H   0  0  0  0  0  0  0  0  0  0  0  0  # atno 8009 bound_to 7997
  155.7017  140.0746  157.2398 H   0  0  0  0  0  0  0  0  0  0  0  0  # atno 8010 bound_to 7997
  139.5740  144.6954  151.3703 H   0  0  0  0  0  0  0  0  0  0  0  0  # atno 10167 bound_to 10162
  156.0740  130.4231  150.1395 H   0  0  0  0  0  0  0  0  0  0  0  0  # atno 10718 bound_to 10713
  154.2984  135.2759  155.2622 H   0  0  0  0  0  0  0  0  0  0  0  0  # atno 10763 bound_to 10752
  154.5070  135.5793  153.6579 H   0  0  0  0  0  0  0  0  0  0  0  0  # atno 10764 bound_to 10752
  152.9904  135.6172  154.3153 H   0  0  0  0  0  0  0  0  0  0  0  0  # atno 10765 bound_to 10752
  139.9001  134.8215  156.2442 H   0  0  0  0  0  0  0  0  0  0  0  0  # atno 11005 bound_to 11000
  146.3507  139.9977  142.8679 LP  0  0  0  0  0  0  0  0  0  0  0  0  # atno 17320 bound_to 7965
  145.1675  140.9704  143.4341 LP  0  0  0  0  0  0  0  0  0  0  0  0  # atno 17321 bound_to 7965
  140.7023  143.7600  150.7424 LP  0  0  0  0  0  0  0  0  0  0  0  0  # atno 17342 bound_to 10162
  140.1114  143.4695  152.2367 LP  0  0  0  0  0  0  0  0  0  0  0  0  # atno 17343 bound_to 10162
  156.9440  130.9753  151.3511 LP  0  0  0  0  0  0  0  0  0  0  0  0  # atno 17370 bound_to 10713
  157.5826  130.8387  149.8543 LP  0  0  0  0  0  0  0  0  0  0  0  0  # atno 17371 bound_to 10713
  141.0265  133.7012  156.1357 LP  0  0  0  0  0  0  0  0  0  0  0  0  # atno 17394 bound_to 11000
  140.7158  134.4412  157.5578 LP  0  0  0  0  0  0  0  0  0  0  0  0  # atno 17395 bound_to 11000

$$$$
