AV-unprocessed.smi:3245|AV-procd|sdf|12406|dock3
  -GOLD-   2272018283D 1   1.00000     0.00000
 Structure written by MMmdl.
 35 36  0  0  0  0  0  0  0  0  3 V2000
  152.5734  140.8079  158.6675 C   0  0  0  0  0  0  0  0  0  0  0  0
  153.0260  140.9200  160.1295 C   0  0  2  0  0  0  0  0  0  0  0  0
  153.6956  142.2873  160.3902 C   0  0  0  0  0  0  0  0  0  0  0  0
  152.8748  143.4094  159.9707 N   0  0  0  0  0  0  0  0  0  0  0  0
  152.5560  143.8085  158.6897 C   0  0  0  0  0  0  0  0  0  0  0  0
  151.7366  144.8957  158.7961 C   0  0  0  0  0  0  0  0  0  0  0  0
  151.6130  145.0914  160.2000 C   0  0  0  0  0  0  0  0  0  0  0  0
  152.2982  144.2019  160.9006 N   0  0  0  0  0  0  0  0  0  0  0  0
  153.9454  139.8035  160.4472 N   0  3  0  0  0  0  0  0  0  0  0  0
  153.3792  138.4555  160.2400 C   0  0  0  0  0  0  0  0  0  0  0  0
  154.4878  137.3955  160.1989 C   0  0  0  0  0  0  0  0  0  0  0  0
  154.7582  136.9791  158.8211 N   0  0  0  0  0  0  0  0  0  0  0  0
  155.4177  137.7234  157.9283 C   0  0  0  0  0  0  0  0  0  0  0  0
  155.8888  138.8502  158.0853 O   0  0  0  0  0  0  0  0  0  0  0  0
  155.5150  136.9213  156.6517 C   0  0  0  0  0  0  0  0  0  0  0  0
  154.8498  135.6889  157.0110 N   0  5  0  0  0  0  0  0  0  0  0  0
  154.4329  135.7837  158.2947 C   0  0  0  0  0  0  0  0  0  0  0  0
  153.8424  134.9209  158.9438 O   0  0  0  0  0  0  0  0  0  0  0  0
  151.8690  141.6003  158.4126 H   0  0  0  0  0  0  0  0  0  0  0  0
  152.0757  139.8554  158.4821 H   0  0  0  0  0  0  0  0  0  0  0  0
  153.4185  140.8815  157.9820 H   0  0  0  0  0  0  0  0  0  0  0  0
  152.1333  140.8363  160.7519 H   0  0  0  0  0  0  0  0  0  0  0  0
  153.9362  142.4006  161.4488 H   0  0  0  0  0  0  0  0  0  0  0  0
  154.6421  142.3476  159.8515 H   0  0  0  0  0  0  0  0  0  0  0  0
  152.9281  143.2879  157.8196 H   0  0  0  0  0  0  0  0  0  0  0  0
  151.2906  145.4639  157.9933 H   0  0  0  0  0  0  0  0  0  0  0  0
  151.0478  145.8462  160.7271 H   0  0  0  0  0  0  0  0  0  0  0  0
  154.7644  139.8826  159.8616 H   0  0  0  0  0  0  0  0  0  0  0  0
  152.6793  138.2164  161.0403 H   0  0  0  0  0  0  0  0  0  0  0  0
  152.8093  138.4493  159.3100 H   0  0  0  0  0  0  0  0  0  0  0  0
  155.3977  137.7818  160.6615 H   0  0  0  0  0  0  0  0  0  0  0  0
  154.1965  136.5292  160.7958 H   0  0  0  0  0  0  0  0  0  0  0  0
  155.0223  137.4559  155.8387 H   0  0  0  0  0  0  0  0  0  0  0  0
  156.5615  136.7822  156.3790 H   0  0  0  0  0  0  0  0  0  0  0  0
  154.2298  139.8934  161.4124 H   0  0  0  0  0  0  0  0  0  0  0  0
  1  2  1  0  0  0  0
  1 19  1  0  0  0  0
  1 20  1  0  0  0  0
  1 21  1  0  0  0  0
  2  3  1  0  0  0  0
  2  9  1  0  0  0  0
  2 22  1  0  0  0  0
  3  4  1  0  0  0  0
  3 23  1  0  0  0  0
  3 24  1  0  0  0  0
  4  8  1  0  0  0  0
  4  5  1  0  0  0  0
  5  6  2  0  0  0  0
  5 25  1  0  0  0  0
  6  7  1  0  0  0  0
  6 26  1  0  0  0  0
  7  8  2  0  0  0  0
  7 27  1  0  0  0  0
  9 10  1  0  0  0  0
  9 28  1  0  0  0  0
  9 35  1  0  0  0  0
 10 11  1  0  0  0  0
 10 29  1  0  0  0  0
 10 30  1  0  0  0  0
 11 12  1  0  0  0  0
 11 31  1  0  0  0  0
 11 32  1  0  0  0  0
 12 17  1  0  0  0  0
 12 13  1  0  0  0  0
 13 14  2  0  0  0  0
 13 15  1  0  0  0  0
 15 16  1  0  0  0  0
 15 33  1  0  0  0  0
 15 34  1  0  0  0  0
 16 17  1  0  0  0  0
 17 18  2  0  0  0  0
M  CHG  1   9   1
M  CHG  1  16  -1
M  END
> <s_m_source_file>
AV-unprocessed.smi

> <i_m_source_file_index>
3245

> <i_lp_mmshare_version>
43012

> <i_f3d_flags>
0

> <s_epik_input>
bjFbY0hdW2NIXVtjSF1uMVtDSDJdW0NAQEhdKFtDSDNdKVtOSF1bQ0gyXVtDSDJdTjJDKD1PKVtDSDJdW05IXUMyPU8=

> <s_epik_cmdline>
J2VwaWtfcHl0aG9uJywgJy1waCcsICc3LjAnLCAnLXRuJywgJzgnLCAnLW1hJywgJzIwMCcsICctbWV0YWxfYmluZGluZycsICctaW1hZScsICc8aW5maWxlLm1hZT4nLCAnLW9tYWUnLCAnPG91dGZpbGUubWFlPic=

> <r_lp_tautomer_probability>
1

> <r_epik_Ionization_Penalty>
5.1873

> <r_epik_Ionization_Penalty_Charging>
5.18729

> <r_epik_Ionization_Penalty_Neutral>
3.83745e-06

> <r_epik_State_Penalty>
5.18822

> <r_epik_Charging_Adjusted_Penalty>
10.3755

> <i_epik_Tot_Q>
0

> <i_epik_Tot_abs_Q>
2

> <r_epik_Metal_State_Penalty>
1.25934

> <b_epik_Metal_Only>
1

> <s_lp_Force_Field>
OPLS_2005

> <r_lp_Energy>
10.3219

> <b_lp_Chiralities_Consistent>
1

> <s_lp_Variant>
AV-unprocessed.smi:3245-5

> <Gold.Version>
5.8.1

> <Gold.Id.Protein>
6NUR|6NUR_protein|mol2

> <Gold.PLP.Fitness>
45.1125

> <Gold.PLP.PLP>
-34.4055

> <Gold.PLP.part.hbond>
-2.9995

> <Gold.PLP.part.metal>
0.0000

> <Gold.PLP.part.buried>
-4.5564

> <Gold.PLP.part.nonpolar>
-26.2642

> <Gold.PLP.part.repulsive>
0.2027

> <Gold.PLP.ligand.clash>
0.0000

> <Gold.PLP.ligand.torsion>
0.6432

> <Gold.PLP.Chemscore.Hbond>
3.9520

> <Gold.PLP.Chemscore.CHOScore>
0.0000

> <Gold.PLP.Chemscore.Metal>
0.0000

> <Gold.Chemscore.Hbonds>
donor molecule, donor type, donor heavy atom, donor atom, acceptor molecule, acceptor atom, score
      P1  H  6896  6907       L1    18  0.93
      P1  H  7997  8008       L1    14  0.73
      P1  H 10752 10764       L1    16  1.40

> <Gold.PLP.Chemscore.Internal.Correction>
0.1373

> <Gold.Rescore>
     Score         DG    S(hbond)    S(metal)    S(lipo)     H(rot)  DE(clash)    DE(int)     intcor
     14.84     -15.83       2.50        0.00      75.27       2.66       0.04       0.96       ----

> <Gold.Chemscore.Fitness>
14.8419

> <Gold.Chemscore.DG>
-15.8344

> <Gold.Chemscore.ZeroCoef>
-5.4800

> <Gold.Chemscore.Hbond>
2.5021

> <Gold.Chemscore.Metal>
0.0000

> <Gold.Chemscore.Lipo>
75.2742

> <Gold.Chemscore.Internal_Hbond>
0.0000

> <Gold.Chemscore.DEClash>
0.0354

> <Gold.Chemscore.DEInternal>
0.9572

> <Gold.Chemscore.Rot>
2.6601

> <Gold.Chemscore.Internal.Correction>
   9.000000E+99

> <Gold.Chemscore.Hbonds>
donor molecule, donor type, donor heavy atom, donor atom, acceptor molecule, acceptor atom, score
      P1  H  6896  6907       L1    18  0.89
      P1  H  7997  8008       L1    14  0.69
      P1  H 10752 10764       L1    16  0.07

> <Gold.Chemscore.Hbond.Weighted>
-8.3571

> <Gold.Chemscore.Metal.Weighted>
-0.0000

> <Gold.Chemscore.Lipo.Weighted>
-8.8071

> <Gold.Chemscore.Internal_Hbond.Weighted>
0.0000

> <Gold.Chemscore.DEClash.Weighted>
0.0354

> <Gold.Chemscore.DEInternal.Weighted>
0.9572

> <Gold.Chemscore.Rot.Weighted>
6.8098

> <Gold.Chemscore.Internal.Correction.Weighted>
   9.000000E+99

> <Gold.Protein.RotatedTorsions>
[ 6907 6896 6895 6894 ] final   75.82 input  -60.11 | X-H torsion
[ 7974 7965 7964 7962 ] final   59.35 input  175.53 | X-H torsion
[ 8008 7997 7996 7995 ] final -169.03 input   59.86 | X-H torsion
[ 10167 10162 10161 10158 ] final   94.61 input  -65.29 | X-H torsion
[ 10718 10713 10712 10709 ] final  133.83 input   66.30 | X-H torsion
[ 10763 10752 10751 10750 ] final   50.42 input  -60.55 | X-H torsion
[ 11005 11000 10999 10996 ] final   59.07 input  -57.11 | X-H torsion

> <Gold.Protein.ActiveResidues>
 VAL166  LYS551  ARG553  GLY616  TRP617  ASP618  TYR619  PRO620  LYS621  CYS622 
 ASP623  PHE694  ASN695  SER759  ASP760  ASP761  ALA762  ILE779  LEU786  VAL792 
 PHE793  MET794  SER795  GLU796  ALA797  LYS798  CYS799  TRP800  GLU811  SER814 

> <Gold.Protein.RotatedAtoms>
  152.5044  134.4062  159.9433 H   0  0  0  0  0  0  0  0  0  0  0  0  # atno 6907 bound_to 6896
  151.4028  133.3746  159.2742 H   0  0  0  0  0  0  0  0  0  0  0  0  # atno 6908 bound_to 6896
  150.9349  134.8783  159.7634 H   0  0  0  0  0  0  0  0  0  0  0  0  # atno 6909 bound_to 6896
  145.9082  139.3633  143.0551 H   0  0  0  0  0  0  0  0  0  0  0  0  # atno 7974 bound_to 7965
  155.8994  140.1038  157.1361 H   0  0  0  0  0  0  0  0  0  0  0  0  # atno 8008 bound_to 7997
  154.4024  140.1295  156.4481 H   0  0  0  0  0  0  0  0  0  0  0  0  # atno 8009 bound_to 7997
  155.7440  140.3466  155.5120 H   0  0  0  0  0  0  0  0  0  0  0  0  # atno 8010 bound_to 7997
  139.8068  144.6791  150.9693 H   0  0  0  0  0  0  0  0  0  0  0  0  # atno 10167 bound_to 10162
  157.4734  131.1081  150.9774 H   0  0  0  0  0  0  0  0  0  0  0  0  # atno 10718 bound_to 10713
  152.9785  135.5879  154.4249 H   0  0  0  0  0  0  0  0  0  0  0  0  # atno 10763 bound_to 10752
  154.3869  135.2767  155.2180 H   0  0  0  0  0  0  0  0  0  0  0  0  # atno 10764 bound_to 10752
  154.4069  135.6090  153.5984 H   0  0  0  0  0  0  0  0  0  0  0  0  # atno 10765 bound_to 10752
  140.0330  134.5983  155.9481 H   0  0  0  0  0  0  0  0  0  0  0  0  # atno 11005 bound_to 11000
  145.8705  140.9422  143.0653 LP  0  0  0  0  0  0  0  0  0  0  0  0  # atno 17320 bound_to 7965
  144.6741  140.0649  143.7475 LP  0  0  0  0  0  0  0  0  0  0  0  0  # atno 17321 bound_to 7965
  140.7819  143.4226  151.0818 LP  0  0  0  0  0  0  0  0  0  0  0  0  # atno 17342 bound_to 10162
  139.7895  143.8239  152.3149 LP  0  0  0  0  0  0  0  0  0  0  0  0  # atno 17343 bound_to 10162
  157.0531  130.5795  149.5373 LP  0  0  0  0  0  0  0  0  0  0  0  0  # atno 17370 bound_to 10713
  156.0084  130.5174  150.7909 LP  0  0  0  0  0  0  0  0  0  0  0  0  # atno 17371 bound_to 10713
  141.1842  133.6552  156.5147 LP  0  0  0  0  0  0  0  0  0  0  0  0  # atno 17394 bound_to 11000
  140.4193  134.7202  157.4881 LP  0  0  0  0  0  0  0  0  0  0  0  0  # atno 17395 bound_to 11000

$$$$
