AV-unprocessed.smi:3145|AV-procd|sdf|11984|dock1
  -GOLD-   2272017383D 1   1.00000     0.00000
 Structure written by MMmdl.
 34 34  0  0  0  0  0  0  0  0  3 V2000
  150.8826  141.1274  158.1683 C   0  0  0  0  0  0  0  0  0  0  0  0
  150.9150  142.0311  156.9287 C   0  0  1  0  0  0  0  0  0  0  0  0
  149.8324  141.6093  155.9129 C   0  0  0  0  0  0  0  0  0  0  0  0
  149.9952  140.2416  155.4539 N   0  0  0  0  0  0  0  0  0  0  0  0
  151.0804  139.4064  155.6151 C   0  0  0  0  0  0  0  0  0  0  0  0
  150.7821  138.2292  154.9912 C   0  0  0  0  0  0  0  0  0  0  0  0
  149.4730  138.4416  154.4747 C   0  0  0  0  0  0  0  0  0  0  0  0
  149.0034  139.6464  154.7564 N   0  0  0  0  0  0  0  0  0  0  0  0
  150.7379  143.4411  157.3422 N   0  3  0  0  0  0  0  0  0  0  0  0
  151.9696  144.1143  157.8052 C   0  0  0  0  0  0  0  0  0  0  0  0
  151.9545  144.2787  159.3290 C   0  0  0  0  0  0  0  0  0  0  0  0
  151.1983  145.1112  159.8434 O   0  0  0  0  0  0  0  0  0  0  0  0
  152.8517  143.4325  159.9014 N   0  5  0  0  0  0  0  0  0  0  0  0
  152.6729  142.8155  161.2148 C   0  0  0  0  0  0  0  0  0  0  0  0
  153.7387  141.7335  161.4594 C   0  0  0  0  0  0  0  0  0  0  0  0
  153.9097  140.7869  160.3433 C   0  0  0  0  0  0  0  0  0  0  0  0
  154.0486  140.0409  159.4676 N   0  0  0  0  0  0  0  0  0  0  0  0
  151.0425  140.0834  157.8973 H   0  0  0  0  0  0  0  0  0  0  0  0
  149.9246  141.1942  158.6855 H   0  0  0  0  0  0  0  0  0  0  0  0
  151.6642  141.4050  158.8765 H   0  0  0  0  0  0  0  0  0  0  0  0
  151.8976  141.9133  156.4685 H   0  0  0  0  0  0  0  0  0  0  0  0
  148.8432  141.6932  156.3648 H   0  0  0  0  0  0  0  0  0  0  0  0
  149.8345  142.2767  155.0494 H   0  0  0  0  0  0  0  0  0  0  0  0
  151.9666  139.7184  156.1481 H   0  0  0  0  0  0  0  0  0  0  0  0
  151.4045  137.3503  154.9131 H   0  0  0  0  0  0  0  0  0  0  0  0
  148.8554  137.7616  153.9066 H   0  0  0  0  0  0  0  0  0  0  0  0
  150.3631  143.9633  156.5629 H   0  0  0  0  0  0  0  0  0  0  0  0
  152.8324  143.5270  157.4856 H   0  0  0  0  0  0  0  0  0  0  0  0
  152.0584  145.1016  157.3520 H   0  0  0  0  0  0  0  0  0  0  0  0
  152.7282  143.5519  162.0176 H   0  0  0  0  0  0  0  0  0  0  0  0
  151.6848  142.3646  161.3066 H   0  0  0  0  0  0  0  0  0  0  0  0
  154.7082  142.1840  161.6730 H   0  0  0  0  0  0  0  0  0  0  0  0
  153.4663  141.1457  162.3361 H   0  0  0  0  0  0  0  0  0  0  0  0
  150.0724  143.4779  158.1007 H   0  0  0  0  0  0  0  0  0  0  0  0
  1  2  1  0  0  0  0
  1 18  1  0  0  0  0
  1 19  1  0  0  0  0
  1 20  1  0  0  0  0
  2  3  1  0  0  0  0
  2  9  1  0  0  0  0
  2 21  1  0  0  0  0
  3  4  1  0  0  0  0
  3 22  1  0  0  0  0
  3 23  1  0  0  0  0
  4  8  1  0  0  0  0
  4  5  1  0  0  0  0
  5  6  2  0  0  0  0
  5 24  1  0  0  0  0
  6  7  1  0  0  0  0
  6 25  1  0  0  0  0
  7  8  2  0  0  0  0
  7 26  1  0  0  0  0
  9 10  1  0  0  0  0
  9 27  1  0  0  0  0
  9 34  1  0  0  0  0
 10 11  1  0  0  0  0
 10 28  1  0  0  0  0
 10 29  1  0  0  0  0
 11 12  2  0  0  0  0
 11 13  1  0  0  0  0
 13 14  1  0  0  0  0
 14 15  1  0  0  0  0
 14 30  1  0  0  0  0
 14 31  1  0  0  0  0
 15 16  1  0  0  0  0
 15 32  1  0  0  0  0
 15 33  1  0  0  0  0
 16 17  3  0  0  0  0
M  CHG  1   9   1
M  CHG  1  13  -1
M  END
> <s_m_source_file>
AV-unprocessed.smi

> <i_m_source_file_index>
3145

> <i_lp_mmshare_version>
43012

> <i_f3d_flags>
0

> <s_epik_input>
bjFbY0hdW2NIXVtjSF1uMVtDSDJdW0NAQEhdKFtDSDNdKVtOSF1bQ0gyXUMoPU8pW05IXVtDSDJdW0NIMl1DI04=

> <s_epik_cmdline>
J2VwaWtfcHl0aG9uJywgJy1waCcsICc3LjAnLCAnLXRuJywgJzgnLCAnLW1hJywgJzIwMCcsICctbWV0YWxfYmluZGluZycsICctaW1hZScsICc8aW5maWxlLm1hZT4nLCAnLW9tYWUnLCAnPG91dGZpbGUubWFlPic=

> <r_lp_tautomer_probability>
1

> <r_epik_Ionization_Penalty>
6.20835

> <r_epik_Ionization_Penalty_Charging>
6.20835

> <r_epik_Ionization_Penalty_Neutral>
3.57231e-06

> <r_epik_State_Penalty>
6.38139

> <r_epik_Charging_Adjusted_Penalty>
12.5897

> <i_epik_Tot_Q>
0

> <i_epik_Tot_abs_Q>
2

> <r_epik_Metal_State_Penalty>
2.31725

> <b_epik_Metal_Only>
1

> <s_lp_Force_Field>
OPLS_2005

> <r_lp_Energy>
1.97057

> <b_lp_Chiralities_Consistent>
1

> <s_lp_Variant>
AV-unprocessed.smi:3145-6

> <Gold.Version>
5.8.1

> <Gold.Id.Protein>
6NUR|6NUR_protein|mol2

> <Gold.PLP.Fitness>
51.7812

> <Gold.PLP.PLP>
-41.8490

> <Gold.PLP.part.hbond>
-2.0000

> <Gold.PLP.part.metal>
0.0000

> <Gold.PLP.part.buried>
-3.8361

> <Gold.PLP.part.nonpolar>
-35.3759

> <Gold.PLP.part.repulsive>
0.2611

> <Gold.PLP.ligand.clash>
0.0000

> <Gold.PLP.ligand.torsion>
1.1622

> <Gold.PLP.Chemscore.Hbond>
2.9440

> <Gold.PLP.Chemscore.CHOScore>
1.0000

> <Gold.PLP.Chemscore.Metal>
0.0000

> <Gold.Chemscore.Hbonds>
donor molecule, donor type, donor heavy atom, donor atom, acceptor molecule, acceptor atom, score
      L1  H     9    27       P1  8028  2.00
      P1  H  7997  8008       L1    17  0.18
      L1  C     7    26       P1  7948  0.98

> <Gold.PLP.Chemscore.Internal.Correction>
0.4246

> <Gold.Rescore>
     Score         DG    S(hbond)    S(metal)    S(lipo)     H(rot)  DE(clash)    DE(int)     intcor
     12.12     -13.87       1.98        0.00      76.27       2.79       0.04       1.71       ----

> <Gold.Chemscore.Fitness>
12.1184

> <Gold.Chemscore.DG>
-13.8713

> <Gold.Chemscore.ZeroCoef>
-5.4800

> <Gold.Chemscore.Hbond>
1.9830

> <Gold.Chemscore.Metal>
0.0000

> <Gold.Chemscore.Lipo>
76.2665

> <Gold.Chemscore.Internal_Hbond>
0.0000

> <Gold.Chemscore.DEClash>
0.0402

> <Gold.Chemscore.DEInternal>
1.7126

> <Gold.Chemscore.Rot>
2.7949

> <Gold.Chemscore.Internal.Correction>
   9.000000E+99

> <Gold.Chemscore.Hbonds>
donor molecule, donor type, donor heavy atom, donor atom, acceptor molecule, acceptor atom, score
      L1  H     9    27       P1  8028  0.95
      P1  H  7997  8008       L1    17  0.18

> <Gold.Chemscore.Hbond.Weighted>
-6.6232

> <Gold.Chemscore.Metal.Weighted>
-0.0000

> <Gold.Chemscore.Lipo.Weighted>
-8.9232

> <Gold.Chemscore.Internal_Hbond.Weighted>
0.0000

> <Gold.Chemscore.DEClash.Weighted>
0.0402

> <Gold.Chemscore.DEInternal.Weighted>
1.7126

> <Gold.Chemscore.Rot.Weighted>
7.1551

> <Gold.Chemscore.Internal.Correction.Weighted>
   9.000000E+99

> <Gold.Protein.RotatedTorsions>
[ 6907 6896 6895 6894 ] final  -92.74 input  -60.11 | X-H torsion
[ 7974 7965 7964 7962 ] final   93.06 input  175.53 | X-H torsion
[ 8008 7997 7996 7995 ] final -113.72 input   59.86 | X-H torsion
[ 10167 10162 10161 10158 ] final -138.67 input  -65.29 | X-H torsion
[ 10718 10713 10712 10709 ] final   25.20 input   66.30 | X-H torsion
[ 10763 10752 10751 10750 ] final   87.03 input  -60.55 | X-H torsion
[ 11005 11000 10999 10996 ] final -148.77 input  -57.11 | X-H torsion

> <Gold.Protein.ActiveResidues>
 VAL166  LYS551  ARG553  GLY616  TRP617  ASP618  TYR619  PRO620  LYS621  CYS622 
 ASP623  PHE694  ASN695  SER759  ASP760  ASP761  ALA762  ILE779  LEU786  VAL792 
 PHE793  MET794  SER795  GLU796  ALA797  LYS798  CYS799  TRP800  GLU811  SER814 

> <Gold.Protein.RotatedAtoms>
  150.6911  134.2076  159.4346 H   0  0  0  0  0  0  0  0  0  0  0  0  # atno 6907 bound_to 6896
  152.0039  134.9911  160.0575 H   0  0  0  0  0  0  0  0  0  0  0  0  # atno 6908 bound_to 6896
  152.1552  133.4512  159.4870 H   0  0  0  0  0  0  0  0  0  0  0  0  # atno 6909 bound_to 6896
  145.4840  139.2278  143.2866 H   0  0  0  0  0  0  0  0  0  0  0  0  # atno 7974 bound_to 7965
  155.0251  140.0393  157.2452 H   0  0  0  0  0  0  0  0  0  0  0  0  # atno 8008 bound_to 7997
  154.7344  140.2737  155.6404 H   0  0  0  0  0  0  0  0  0  0  0  0  # atno 8009 bound_to 7997
  156.2849  140.2678  156.2053 H   0  0  0  0  0  0  0  0  0  0  0  0  # atno 8010 bound_to 7997
  139.8455  143.7266  152.2661 H   0  0  0  0  0  0  0  0  0  0  0  0  # atno 10167 bound_to 10162
  157.1902  130.6842  149.6147 H   0  0  0  0  0  0  0  0  0  0  0  0  # atno 10718 bound_to 10713
  153.1628  135.4558  154.9796 H   0  0  0  0  0  0  0  0  0  0  0  0  # atno 10763 bound_to 10752
  154.7910  135.3220  154.7779 H   0  0  0  0  0  0  0  0  0  0  0  0  # atno 10764 bound_to 10752
  153.8267  135.6942  153.4874 H   0  0  0  0  0  0  0  0  0  0  0  0  # atno 10765 bound_to 10752
  140.7578  134.3333  157.5109 H   0  0  0  0  0  0  0  0  0  0  0  0  # atno 11005 bound_to 11000
  146.2324  140.5629  142.8969 LP  0  0  0  0  0  0  0  0  0  0  0  0  # atno 17320 bound_to 7965
  144.7872  140.5960  143.6566 LP  0  0  0  0  0  0  0  0  0  0  0  0  # atno 17321 bound_to 7965
  139.7516  144.7532  151.0498 LP  0  0  0  0  0  0  0  0  0  0  0  0  # atno 17342 bound_to 10162
  140.7793  143.4853  150.9964 LP  0  0  0  0  0  0  0  0  0  0  0  0  # atno 17343 bound_to 10162
  155.9713  130.4617  150.6120 LP  0  0  0  0  0  0  0  0  0  0  0  0  # atno 17370 bound_to 10713
  157.3868  131.0789  151.1429 LP  0  0  0  0  0  0  0  0  0  0  0  0  # atno 17371 bound_to 10713
  139.8776  134.9183  156.3198 LP  0  0  0  0  0  0  0  0  0  0  0  0  # atno 17394 bound_to 11000
  140.9692  133.7338  156.0510 LP  0  0  0  0  0  0  0  0  0  0  0  0  # atno 17395 bound_to 11000

$$$$
