AV-unprocessed.smi:114|AV-procd|sdf|1120|dock5
  -GOLD-   2262018243D 1   1.00000     0.00000
 Structure written by MMmdl.
 32 34  0  0  0  0  0  0  0  0  1 V2000
  147.1979  135.0453  160.9902 N   0  0  0  0  0  0  0  0  0  0  0  0
  147.1120  135.9543  160.0087 C   0  0  0  0  0  0  0  0  0  0  0  0
  145.8836  136.3704  159.6205 N   0  0  0  0  0  0  0  0  0  0  0  0
  145.7535  137.2762  158.6427 C   0  0  0  0  0  0  0  0  0  0  0  0
  144.4885  137.6341  158.3197 F   0  0  0  0  0  0  0  0  0  0  0  0
  146.7323  137.8669  157.9478 N   0  0  0  0  0  0  0  0  0  0  0  0
  147.9705  137.4490  158.3393 C   0  0  0  0  0  0  0  0  0  0  0  0
  148.2454  136.4990  159.3575 C   0  0  0  0  0  0  0  0  0  0  0  0
  149.6170  136.3206  159.4787 N   0  0  0  0  0  0  0  0  0  0  0  0
  150.1197  137.1225  158.5773 C   0  0  0  0  0  0  0  0  0  0  0  0
  149.1952  137.8356  157.8416 N   0  0  0  0  0  0  0  0  0  0  0  0
  149.4117  138.8337  156.7431 C   0  0  1  0  0  0  0  0  0  0  0  0
  150.7842  139.0475  156.6045 O   0  0  0  0  0  0  0  0  0  0  0  0
  151.2712  138.3284  155.4773 C   0  0  2  0  0  0  0  0  0  0  0  0
  152.6255  138.8824  155.0033 C   0  0  0  0  0  0  0  0  0  0  0  0
  153.4633  139.1194  156.1141 O   0  0  0  0  0  0  0  0  0  0  0  0
  150.1132  138.4587  154.4800 C   0  0  2  0  0  0  0  0  0  0  0  0
  150.1351  139.7185  153.8332 O   0  0  0  0  0  0  0  0  0  0  0  0
  148.8842  138.3378  155.3734 C   0  0  1  0  0  0  0  0  0  0  0  0
  148.4284  136.9954  155.3793 O   0  0  0  0  0  0  0  0  0  0  0  0
  148.9246  139.7427  157.0980 H   0  0  0  0  0  0  0  0  0  0  0  0
  151.3720  137.2740  155.7413 H   0  0  0  0  0  0  0  0  0  0  0  0
  150.1517  137.6864  153.7103 H   0  0  0  0  0  0  0  0  0  0  0  0
  148.0659  138.9784  155.0415 H   0  0  0  0  0  0  0  0  0  0  0  0
  148.1043  134.7200  161.2949 H   0  0  0  0  0  0  0  0  0  0  0  0
  146.3583  134.6867  161.4216 H   0  0  0  0  0  0  0  0  0  0  0  0
  151.1861  137.2125  158.4299 H   0  0  0  0  0  0  0  0  0  0  0  0
  153.1273  138.1537  154.3660 H   0  0  0  0  0  0  0  0  0  0  0  0
  152.5019  139.7965  154.4218 H   0  0  0  0  0  0  0  0  0  0  0  0
  153.7462  138.2870  156.4609 H   0  0  0  0  0  0  0  0  0  0  0  0
  149.6975  139.6366  152.9996 H   0  0  0  0  0  0  0  0  0  0  0  0
  147.5386  136.9855  155.6981 H   0  0  0  0  0  0  0  0  0  0  0  0
  1  2  1  0  0  0  0
  1 25  1  0  0  0  0
  1 26  1  0  0  0  0
  2  8  1  0  0  0  0
  2  3  2  0  0  0  0
  3  4  1  0  0  0  0
  4  5  1  0  0  0  0
  4  6  2  0  0  0  0
  6  7  1  0  0  0  0
  7 11  1  0  0  0  0
  7  8  2  0  0  0  0
  8  9  1  0  0  0  0
  9 10  2  0  0  0  0
 10 11  1  0  0  0  0
 10 27  1  0  0  0  0
 11 12  1  0  0  0  0
 12 21  1  0  0  0  0
 12 19  1  0  0  0  0
 12 13  1  0  0  0  0
 13 14  1  0  0  0  0
 14 22  1  0  0  0  0
 14 15  1  0  0  0  0
 14 17  1  0  0  0  0
 15 16  1  0  0  0  0
 15 28  1  0  0  0  0
 15 29  1  0  0  0  0
 16 30  1  0  0  0  0
 17 23  1  0  0  0  0
 17 18  1  0  0  0  0
 17 19  1  0  0  0  0
 18 31  1  0  0  0  0
 19 24  1  0  0  0  0
 19 20  1  0  0  0  0
 20 32  1  0  0  0  0
M  END
> <s_m_source_file>
AV-unprocessed.smi

> <i_m_source_file_index>
114

> <i_lp_mmshare_version>
43012

> <i_f3d_flags>
0

> <s_epik_input>
RmMobjEpbmMoW05IMl0pYyhjMTIpbltjSF1uMltDQEBIXTNPW0NASF0oW0NIMl1bT0hdKVtDQEBIXShbT0hdKVtDQEBIXTNbT0hd

> <s_epik_cmdline>
J2VwaWtfcHl0aG9uJywgJy1waCcsICc3LjAnLCAnLXRuJywgJzgnLCAnLW1hJywgJzIwMCcsICctbWV0YWxfYmluZGluZycsICctaW1hZScsICc8aW5maWxlLm1hZT4nLCAnLW9tYWUnLCAnPG91dGZpbGUubWFlPic=

> <r_lp_tautomer_probability>
1

> <r_epik_Ionization_Penalty>
1.13199e-05

> <r_epik_Ionization_Penalty_Charging>
0

> <r_epik_Ionization_Penalty_Neutral>
1.13199e-05

> <r_epik_State_Penalty>
-0

> <r_epik_Charging_Adjusted_Penalty>
0

> <i_epik_Tot_Q>
0

> <i_epik_Tot_abs_Q>
0

> <r_epik_Metal_State_Penalty>
-0

> <b_epik_Metal_Only>
0

> <s_epik_Chemistry_Notes>
This compound contains an acetal/aminal-like group ( X-CH(R)-Y where X, Y are N, S, or O) that may be acid/base labile, releasing an aldehyde.

> <s_lp_Force_Field>
OPLS_2005

> <r_lp_Energy>
38.7556

> <b_lp_Chiralities_Consistent>
1

> <s_lp_Variant>
AV-unprocessed.smi:114-14

> <Gold.Version>
5.8.1

> <Gold.Id.Protein>
6NUR|6NUR_protein|mol2

> <Gold.PLP.Fitness>
32.8848

> <Gold.PLP.PLP>
-22.2391

> <Gold.PLP.part.hbond>
-4.2092

> <Gold.PLP.part.metal>
0.0000

> <Gold.PLP.part.buried>
-5.2872

> <Gold.PLP.part.nonpolar>
-13.4489

> <Gold.PLP.part.repulsive>
0.0742

> <Gold.PLP.ligand.clash>
0.0000

> <Gold.PLP.ligand.torsion>
0.2158

> <Gold.PLP.Chemscore.Hbond>
3.6720

> <Gold.PLP.Chemscore.CHOScore>
0.0000

> <Gold.PLP.Chemscore.Metal>
0.0000

> <Gold.Chemscore.Hbonds>
donor molecule, donor type, donor heavy atom, donor atom, acceptor molecule, acceptor atom, score
      L1  H    18    31       P1  7957  0.99
      P1  H  6896  6908       L1     9  1.00
      P1  H  7989  7998       L1    18  0.93
      P1  H  7997  8010       L1    16  0.58

> <Gold.PLP.Chemscore.Internal.Correction>
0.0612

> <Gold.Rescore>
     Score         DG    S(hbond)    S(metal)    S(lipo)     H(rot)  DE(clash)    DE(int)     intcor
      9.17      -9.74       3.31        0.00      30.15       4.03       0.26       0.32       ----

> <Gold.Chemscore.Fitness>
9.1713

> <Gold.Chemscore.DG>
-9.7438

> <Gold.Chemscore.ZeroCoef>
-5.4800

> <Gold.Chemscore.Hbond>
3.3074

> <Gold.Chemscore.Metal>
0.0000

> <Gold.Chemscore.Lipo>
30.1530

> <Gold.Chemscore.Internal_Hbond>
0.0000

> <Gold.Chemscore.DEClash>
0.2567

> <Gold.Chemscore.DEInternal>
0.3158

> <Gold.Chemscore.Rot>
4.0277

> <Gold.Chemscore.Internal.Correction>
   9.000000E+99

> <Gold.Chemscore.Hbonds>
donor molecule, donor type, donor heavy atom, donor atom, acceptor molecule, acceptor atom, score
      L1  H    18    31       P1  7957  0.94
      P1  H  6896  6908       L1     9  0.65
      P1  H  7989  7998       L1    18  0.41
      P1  H  7997  8010       L1    16  0.52

> <Gold.Chemscore.Hbond.Weighted>
-11.0468

> <Gold.Chemscore.Metal.Weighted>
-0.0000

> <Gold.Chemscore.Lipo.Weighted>
-3.5279

> <Gold.Chemscore.Internal_Hbond.Weighted>
0.0000

> <Gold.Chemscore.DEClash.Weighted>
0.2567

> <Gold.Chemscore.DEInternal.Weighted>
0.3158

> <Gold.Chemscore.Rot.Weighted>
10.3110

> <Gold.Chemscore.Internal.Correction.Weighted>
   9.000000E+99

> <Gold.Protein.RotatedTorsions>
[ 6907 6896 6895 6894 ] final -172.47 input  -60.11 | X-H torsion
[ 7974 7965 7964 7962 ] final  164.91 input  175.53 | X-H torsion
[ 8008 7997 7996 7995 ] final   91.79 input   59.86 | X-H torsion
[ 10167 10162 10161 10158 ] final   64.66 input  -65.29 | X-H torsion
[ 10718 10713 10712 10709 ] final  111.27 input   66.30 | X-H torsion
[ 10763 10752 10751 10750 ] final   85.63 input  -60.55 | X-H torsion
[ 11005 11000 10999 10996 ] final   81.22 input  -57.11 | X-H torsion

> <Gold.Protein.ActiveResidues>
 VAL166  LYS551  ARG553  GLY616  TRP617  ASP618  TYR619  PRO620  LYS621  CYS622 
 ASP623  PHE694  ASN695  SER759  ASP760  ASP761  ALA762  ILE779  LEU786  VAL792 
 PHE793  MET794  SER795  GLU796  ALA797  LYS798  CYS799  TRP800  GLU811  SER814 

> <Gold.Protein.RotatedAtoms>
  151.5406  133.3433  159.2934 H   0  0  0  0  0  0  0  0  0  0  0  0  # atno 6907 bound_to 6896
  150.8538  134.7873  159.7041 H   0  0  0  0  0  0  0  0  0  0  0  0  # atno 6908 bound_to 6896
  152.4577  134.5262  159.9849 H   0  0  0  0  0  0  0  0  0  0  0  0  # atno 6909 bound_to 6896
  144.7525  139.8394  143.6361 H   0  0  0  0  0  0  0  0  0  0  0  0  # atno 7974 bound_to 7965
  156.0279  140.3333  155.7108 H   0  0  0  0  0  0  0  0  0  0  0  0  # atno 8008 bound_to 7997
  155.5928  140.0648  157.2772 H   0  0  0  0  0  0  0  0  0  0  0  0  # atno 8009 bound_to 7997
  154.4341  140.1824  156.1080 H   0  0  0  0  0  0  0  0  0  0  0  0  # atno 8010 bound_to 7997
  140.1197  144.4742  150.6928 H   0  0  0  0  0  0  0  0  0  0  0  0  # atno 10167 bound_to 10162
  157.6453  131.0948  150.6724 H   0  0  0  0  0  0  0  0  0  0  0  0  # atno 10718 bound_to 10713
  153.1493  135.4610  154.9612 H   0  0  0  0  0  0  0  0  0  0  0  0  # atno 10763 bound_to 10752
  154.7811  135.3189  154.7989 H   0  0  0  0  0  0  0  0  0  0  0  0  # atno 10764 bound_to 10752
  153.8497  135.6922  153.4848 H   0  0  0  0  0  0  0  0  0  0  0  0  # atno 10765 bound_to 10752
  139.9106  134.7980  156.2013 H   0  0  0  0  0  0  0  0  0  0  0  0  # atno 11005 bound_to 11000
  146.1493  139.4572  143.0059 LP  0  0  0  0  0  0  0  0  0  0  0  0  # atno 17320 bound_to 7965
  145.6895  141.0168  143.1563 LP  0  0  0  0  0  0  0  0  0  0  0  0  # atno 17321 bound_to 7965
  140.6879  143.2360  151.5211 LP  0  0  0  0  0  0  0  0  0  0  0  0  # atno 17342 bound_to 10162
  139.5575  144.2239  152.1637 LP  0  0  0  0  0  0  0  0  0  0  0  0  # atno 17343 bound_to 10162
  156.7043  130.4632  149.5564 LP  0  0  0  0  0  0  0  0  0  0  0  0  # atno 17370 bound_to 10713
  156.1774  130.6476  151.0910 LP  0  0  0  0  0  0  0  0  0  0  0  0  # atno 17371 bound_to 10713
  141.0523  133.6882  156.1795 LP  0  0  0  0  0  0  0  0  0  0  0  0  # atno 17394 bound_to 11000
  140.6791  134.4786  157.5588 LP  0  0  0  0  0  0  0  0  0  0  0  0  # atno 17395 bound_to 11000

$$$$
