AV-unprocessed.smi:1406|AV-procd|sdf|5714|dock1
  -GOLD-   22720 5343D 1   1.00000     0.00000
 Structure written by MMmdl.
 41 43  0  0  0  0  0  0  0  0  2 V2000
  149.7288  138.1326  154.7829 C   0  0  0  0  0  0  0  0  0  0  0  0
  149.4672  139.4232  155.5855 C   0  0  1  0  0  0  0  0  0  0  0  0
  150.7603  140.1377  156.0196 C   0  0  0  0  0  0  0  0  0  0  0  0
  151.5836  140.5191  155.1869 O   0  0  0  0  0  0  0  0  0  0  0  0
  150.9310  140.3108  157.3396 N   0  0  0  0  0  0  0  0  0  0  0  0
  152.0539  141.0105  157.9512 C   0  0  2  0  0  0  0  0  0  0  0  0
  152.6949  140.2584  159.1325 C   0  0  0  0  0  0  0  0  0  0  0  0
  153.0605  141.3503  160.1585 C   0  0  0  0  0  0  0  0  0  0  0  0
  152.7163  142.6297  159.5081 N   0  3  2  0  0  0  0  0  0  0  0  0
  152.4267  143.7814  160.3897 C   0  0  0  0  0  0  0  0  0  0  0  0
  152.1680  145.0315  159.5241 C   0  0  0  0  0  0  0  0  0  0  0  0
  151.0792  144.7788  158.4606 C   0  0  0  0  0  0  0  0  0  0  0  0
  151.3893  143.5144  157.6360 C   0  0  0  0  0  0  0  0  0  0  0  0
  151.6122  142.3269  158.5859 C   0  0  1  0  0  0  0  0  0  0  0  0
  148.5897  140.3364  154.8612 N   0  0  0  0  0  0  0  0  0  0  0  0
  148.6738  141.6582  154.6948 C   0  0  0  0  0  0  0  0  0  0  0  0
  147.7192  142.1662  153.9284 N   0  0  0  0  0  0  0  0  0  0  0  0
  147.0303  141.0237  153.6341 C   0  0  0  0  0  0  0  0  0  0  0  0
  147.5151  139.8984  154.1585 N   0  0  0  0  0  0  0  0  0  0  0  0
  150.3124  137.4174  155.3637 H   0  0  0  0  0  0  0  0  0  0  0  0
  150.2722  138.3311  153.8581 H   0  0  0  0  0  0  0  0  0  0  0  0
  148.7909  137.6447  154.5157 H   0  0  0  0  0  0  0  0  0  0  0  0
  148.9464  139.1371  156.5008 H   0  0  0  0  0  0  0  0  0  0  0  0
  150.2128  139.9646  157.9594 H   0  0  0  0  0  0  0  0  0  0  0  0
  152.8188  141.2197  157.2001 H   0  0  0  0  0  0  0  0  0  0  0  0
  151.9957  139.5507  159.5801 H   0  0  0  0  0  0  0  0  0  0  0  0
  153.5700  139.6936  158.8087 H   0  0  0  0  0  0  0  0  0  0  0  0
  152.4719  141.2204  161.0680 H   0  0  0  0  0  0  0  0  0  0  0  0
  154.1157  141.3281  160.4319 H   0  0  0  0  0  0  0  0  0  0  0  0
  151.5594  143.5631  161.0145 H   0  0  0  0  0  0  0  0  0  0  0  0
  153.2714  143.9538  161.0573 H   0  0  0  0  0  0  0  0  0  0  0  0
  151.8836  145.8725  160.1574 H   0  0  0  0  0  0  0  0  0  0  0  0
  153.0939  145.3221  159.0262 H   0  0  0  0  0  0  0  0  0  0  0  0
  150.1127  144.6629  158.9525 H   0  0  0  0  0  0  0  0  0  0  0  0
  150.9887  145.6437  157.8027 H   0  0  0  0  0  0  0  0  0  0  0  0
  150.5688  143.3022  156.9497 H   0  0  0  0  0  0  0  0  0  0  0  0
  152.2767  143.6789  157.0233 H   0  0  0  0  0  0  0  0  0  0  0  0
  150.7066  142.1563  159.1733 H   0  0  0  0  0  0  0  0  0  0  0  0
  149.4541  142.2606  155.1367 H   0  0  0  0  0  0  0  0  0  0  0  0
  146.1499  141.0199  153.0083 H   0  0  0  0  0  0  0  0  0  0  0  0
  153.5077  142.8813  158.9330 H   0  0  0  0  0  0  0  0  0  0  0  0
  1  2  1  0  0  0  0
  1 20  1  0  0  0  0
  1 21  1  0  0  0  0
  1 22  1  0  0  0  0
  2  3  1  0  0  0  0
  2 15  1  0  0  0  0
  2 23  1  0  0  0  0
  3  4  2  0  0  0  0
  3  5  1  0  0  0  0
  5  6  1  0  0  0  0
  5 24  1  0  0  0  0
  6 14  1  0  0  0  0
  6  7  1  0  0  0  0
  6 25  1  0  0  0  0
  7  8  1  0  0  0  0
  7 26  1  0  0  0  0
  7 27  1  0  0  0  0
  8  9  1  0  0  0  0
  8 28  1  0  0  0  0
  8 29  1  0  0  0  0
  9 14  1  0  0  0  0
  9 10  1  0  0  0  0
  9 41  1  0  0  0  0
 10 11  1  0  0  0  0
 10 30  1  0  0  0  0
 10 31  1  0  0  0  0
 11 12  1  0  0  0  0
 11 32  1  0  0  0  0
 11 33  1  0  0  0  0
 12 13  1  0  0  0  0
 12 34  1  0  0  0  0
 12 35  1  0  0  0  0
 13 14  1  0  0  0  0
 13 36  1  0  0  0  0
 13 37  1  0  0  0  0
 14 38  1  0  0  0  0
 15 19  1  0  0  0  0
 15 16  1  0  0  0  0
 16 17  2  0  0  0  0
 16 39  1  0  0  0  0
 17 18  1  0  0  0  0
 18 19  2  0  0  0  0
 18 40  1  0  0  0  0
M  CHG  1   9   1
M  END
> <s_m_source_file>
AV-unprocessed.smi

> <i_m_source_file_index>
1406

> <i_lp_mmshare_version>
43012

> <i_f3d_flags>
0

> <s_epik_input>
bjFbY0hdbltjSF1uMVtDQEhdKFtDSDNdKUMoPU8pW05IXVtDQEhdKFtDSDJdW0NIMl0yKVtDQEBIXShOMjMpW0NIMl1bQ0gyXVtDSDJdW0NIMl0z

> <s_epik_cmdline>
J2VwaWtfcHl0aG9uJywgJy1waCcsICc3LjAnLCAnLXRuJywgJzgnLCAnLW1hJywgJzIwMCcsICctbWV0YWxfYmluZGluZycsICctaW1hZScsICc8aW5maWxlLm1hZT4nLCAnLW9tYWUnLCAnPG91dGZpbGUubWFlPic=

> <r_lp_tautomer_probability>
1

> <r_epik_Ionization_Penalty>
0.00197066

> <r_epik_Ionization_Penalty_Charging>
0.00196223

> <r_epik_Ionization_Penalty_Neutral>
8.43107e-06

> <r_epik_State_Penalty>
0.00133866

> <r_epik_Charging_Adjusted_Penalty>
0.00330089

> <i_epik_Tot_Q>
1

> <i_epik_Tot_abs_Q>
1

> <r_epik_Metal_State_Penalty>
-0

> <b_epik_Metal_Only>
0

> <s_lp_Force_Field>
OPLS_2005

> <r_lp_Energy>
39.7

> <b_lp_Chiralities_Consistent>
1

> <s_lp_Variant>
AV-unprocessed.smi:1406-6

> <Gold.Version>
5.8.1

> <Gold.Id.Protein>
6NUR|6NUR_protein|mol2

> <Gold.PLP.Fitness>
42.7339

> <Gold.PLP.PLP>
-35.9997

> <Gold.PLP.part.hbond>
-1.3627

> <Gold.PLP.part.metal>
0.0000

> <Gold.PLP.part.buried>
-4.9045

> <Gold.PLP.part.nonpolar>
-30.9452

> <Gold.PLP.part.repulsive>
0.4176

> <Gold.PLP.ligand.clash>
0.0000

> <Gold.PLP.ligand.torsion>
0.5245

> <Gold.PLP.Chemscore.Hbond>
0.8320

> <Gold.PLP.Chemscore.CHOScore>
1.7243

> <Gold.PLP.Chemscore.Metal>
0.0000

> <Gold.Chemscore.Hbonds>
donor molecule, donor type, donor heavy atom, donor atom, acceptor molecule, acceptor atom, score
      P1  H  7989  7998       L1     4  0.82
      L1  C    16    39       P1  8028  0.66
      L1  C    18    40       P1 10175  0.90

> <Gold.PLP.Chemscore.Internal.Correction>
0.1143

> <Gold.Rescore>
     Score         DG    S(hbond)    S(metal)    S(lipo)     H(rot)  DE(clash)    DE(int)     intcor
     14.24     -14.45       0.96        0.00      90.49       1.89       0.01       0.20       ----

> <Gold.Chemscore.Fitness>
14.2429

> <Gold.Chemscore.DG>
-14.4507

> <Gold.Chemscore.ZeroCoef>
-5.4800

> <Gold.Chemscore.Hbond>
0.9621

> <Gold.Chemscore.Metal>
0.0000

> <Gold.Chemscore.Lipo>
90.4871

> <Gold.Chemscore.Internal_Hbond>
0.0000

> <Gold.Chemscore.DEClash>
0.0097

> <Gold.Chemscore.DEInternal>
0.1982

> <Gold.Chemscore.Rot>
1.8865

> <Gold.Chemscore.Internal.Correction>
   9.000000E+99

> <Gold.Chemscore.Hbonds>
donor molecule, donor type, donor heavy atom, donor atom, acceptor molecule, acceptor atom, score
      P1  H  7989  7998       L1     4  0.81

> <Gold.Chemscore.Hbond.Weighted>
-3.2133

> <Gold.Chemscore.Metal.Weighted>
-0.0000

> <Gold.Chemscore.Lipo.Weighted>
-10.5870

> <Gold.Chemscore.Internal_Hbond.Weighted>
0.0000

> <Gold.Chemscore.DEClash.Weighted>
0.0097

> <Gold.Chemscore.DEInternal.Weighted>
0.1982

> <Gold.Chemscore.Rot.Weighted>
4.8295

> <Gold.Chemscore.Internal.Correction.Weighted>
   9.000000E+99

> <Gold.Protein.RotatedTorsions>
[ 6907 6896 6895 6894 ] final  -60.84 input  -60.11 | X-H torsion
[ 7974 7965 7964 7962 ] final -113.00 input  175.53 | X-H torsion
[ 8008 7997 7996 7995 ] final  -36.99 input   59.86 | X-H torsion
[ 10167 10162 10161 10158 ] final  121.32 input  -65.29 | X-H torsion
[ 10718 10713 10712 10709 ] final -116.78 input   66.30 | X-H torsion
[ 10763 10752 10751 10750 ] final  132.22 input  -60.55 | X-H torsion
[ 11005 11000 10999 10996 ] final  151.28 input  -57.11 | X-H torsion

> <Gold.Protein.ActiveResidues>
 VAL166  LYS551  ARG553  GLY616  TRP617  ASP618  TYR619  PRO620  LYS621  CYS622 
 ASP623  PHE694  ASN695  SER759  ASP760  ASP761  ALA762  ILE779  LEU786  VAL792 
 PHE793  MET794  SER795  GLU796  ALA797  LYS798  CYS799  TRP800  GLU811  SER814 

> <Gold.Protein.RotatedAtoms>
  150.7827  134.6784  159.6429 H   0  0  0  0  0  0  0  0  0  0  0  0  # atno 6907 bound_to 6896
  152.3916  134.6429  160.0114 H   0  0  0  0  0  0  0  0  0  0  0  0  # atno 6908 bound_to 6896
  151.6728  133.3277  159.3237 H   0  0  0  0  0  0  0  0  0  0  0  0  # atno 6909 bound_to 6896
  145.1373  140.8758  143.3723 H   0  0  0  0  0  0  0  0  0  0  0  0  # atno 7974 bound_to 7965
  154.4062  140.1616  156.2463 H   0  0  0  0  0  0  0  0  0  0  0  0  # atno 8008 bound_to 7997
  155.9157  140.3424  155.6111 H   0  0  0  0  0  0  0  0  0  0  0  0  # atno 8009 bound_to 7997
  155.7282  140.0777  157.2291 H   0  0  0  0  0  0  0  0  0  0  0  0  # atno 8010 bound_to 7997
  139.5927  144.7031  151.3251 H   0  0  0  0  0  0  0  0  0  0  0  0  # atno 10167 bound_to 10162
  156.0987  130.6154  150.9079 H   0  0  0  0  0  0  0  0  0  0  0  0  # atno 10718 bound_to 10713
  153.7871  135.3160  155.3373 H   0  0  0  0  0  0  0  0  0  0  0  0  # atno 10763 bound_to 10752
  154.8140  135.4649  154.0595 H   0  0  0  0  0  0  0  0  0  0  0  0  # atno 10764 bound_to 10752
  153.1901  135.6907  153.8449 H   0  0  0  0  0  0  0  0  0  0  0  0  # atno 10765 bound_to 10752
  140.1205  134.8866  157.2065 H   0  0  0  0  0  0  0  0  0  0  0  0  # atno 11005 bound_to 11000
  145.0570  139.3135  143.5899 LP  0  0  0  0  0  0  0  0  0  0  0  0  # atno 17320 bound_to 7965
  146.3508  139.9999  142.8677 LP  0  0  0  0  0  0  0  0  0  0  0  0  # atno 17321 bound_to 7965
  140.7186  143.7198  150.7705 LP  0  0  0  0  0  0  0  0  0  0  0  0  # atno 17342 bound_to 10162
  140.0757  143.5018  152.2557 LP  0  0  0  0  0  0  0  0  0  0  0  0  # atno 17343 bound_to 10162
  157.6153  131.0933  150.8721 LP  0  0  0  0  0  0  0  0  0  0  0  0  # atno 17370 bound_to 10713
  156.8853  130.5194  149.5289 LP  0  0  0  0  0  0  0  0  0  0  0  0  # atno 17371 bound_to 10713
  140.2971  134.3174  155.7299 LP  0  0  0  0  0  0  0  0  0  0  0  0  # atno 17394 bound_to 11000
  141.2150  133.7569  156.9587 LP  0  0  0  0  0  0  0  0  0  0  0  0  # atno 17395 bound_to 11000

$$$$
