AV-unprocessed.smi:49|AV-procd|sdf|483|dock2
  -GOLD-   2262016343D 1   1.00000     0.00000
 Structure written by MMmdl.
 27 28  0  0  0  0  0  0  0  0  3 V2000
  153.3103  142.2906  161.4397 C   0  0  0  0  0  0  0  0  0  0  0  0
  153.8181  141.1867  160.5067 C   0  0  0  0  0  0  0  0  0  0  0  0
  152.8965  140.9686  159.3267 C   0  0  0  0  0  0  0  0  0  0  0  0
  151.7646  141.6246  159.0906 N   0  0  0  0  0  0  0  0  0  0  0  0
  151.3016  141.1488  157.9271 C   0  0  0  0  0  0  0  0  0  0  0  0
  149.9999  141.5883  157.2850 C   0  0  2  0  0  0  0  0  0  0  0  0
  149.0333  140.4151  157.0668 C   0  0  0  0  0  0  0  0  0  0  0  0
  149.2464  140.0368  155.6040 C   0  0  1  0  0  0  0  0  0  0  0  0
  148.1221  139.3839  155.0532 O   0  0  0  0  0  0  0  0  0  0  0  0
  149.5122  141.3892  154.9445 C   0  0  0  0  0  0  0  0  0  0  0  0
  150.2517  142.1734  155.9504 N   0  3  0  0  0  0  0  0  0  0  0  0
  152.1215  140.2024  157.4418 N   0  0  0  0  0  0  0  0  0  0  0  0
  153.1072  140.1144  158.3097 N   0  5  0  0  0  0  0  0  0  0  0  0
  149.5387  142.3412  157.9252 H   0  0  0  0  0  0  0  0  0  0  0  0
  150.1252  139.3971  155.5104 H   0  0  0  0  0  0  0  0  0  0  0  0
  153.9878  142.4301  162.2821 H   0  0  0  0  0  0  0  0  0  0  0  0
  152.3263  142.0442  161.8393 H   0  0  0  0  0  0  0  0  0  0  0  0
  153.2302  143.2424  160.9138 H   0  0  0  0  0  0  0  0  0  0  0  0
  154.8116  141.4400  160.1355 H   0  0  0  0  0  0  0  0  0  0  0  0
  153.9166  140.2499  161.0559 H   0  0  0  0  0  0  0  0  0  0  0  0
  149.1866  139.5864  157.7597 H   0  0  0  0  0  0  0  0  0  0  0  0
  148.0105  140.7707  157.2028 H   0  0  0  0  0  0  0  0  0  0  0  0
  147.3497  139.8881  155.2608 H   0  0  0  0  0  0  0  0  0  0  0  0
  150.0661  141.3042  154.0094 H   0  0  0  0  0  0  0  0  0  0  0  0
  148.5734  141.9051  154.7372 H   0  0  0  0  0  0  0  0  0  0  0  0
  149.9766  143.1444  155.9228 H   0  0  0  0  0  0  0  0  0  0  0  0
  151.2421  142.0948  155.7660 H   0  0  0  0  0  0  0  0  0  0  0  0
  1  2  1  0  0  0  0
  1 16  1  0  0  0  0
  1 17  1  0  0  0  0
  1 18  1  0  0  0  0
  2  3  1  0  0  0  0
  2 19  1  0  0  0  0
  2 20  1  0  0  0  0
  3 13  1  0  0  0  0
  3  4  2  0  0  0  0
  4  5  1  0  0  0  0
  5  6  1  0  0  0  0
  5 12  2  0  0  0  0
  6 14  1  0  0  0  0
  6 11  1  0  0  0  0
  6  7  1  0  0  0  0
  7  8  1  0  0  0  0
  7 21  1  0  0  0  0
  7 22  1  0  0  0  0
  8 15  1  0  0  0  0
  8  9  1  0  0  0  0
  8 10  1  0  0  0  0
  9 23  1  0  0  0  0
 10 11  1  0  0  0  0
 10 24  1  0  0  0  0
 10 25  1  0  0  0  0
 11 26  1  0  0  0  0
 11 27  1  0  0  0  0
 12 13  1  0  0  0  0
M  CHG  1  11   1
M  CHG  1  13  -1
M  END
> <s_m_source_file>
AV-unprocessed.smi

> <i_m_source_file_index>
49

> <i_lp_mmshare_version>
43012

> <i_f3d_flags>
0

> <s_epik_input>
W0NIM11bQ0gyXWMxbmMobltuSF0xKVtDQEBIXTJbQ0gyXVtDQEBIXShbT0hdKVtDSDJdW05IXTI=

> <s_epik_cmdline>
J2VwaWtfcHl0aG9uJywgJy1waCcsICc3LjAnLCAnLXRuJywgJzgnLCAnLW1hJywgJzIwMCcsICctbWV0YWxfYmluZGluZycsICctaW1hZScsICc8aW5maWxlLm1hZT4nLCAnLW9tYWUnLCAnPG91dGZpbGUubWFlPic=

> <r_lp_tautomer_probability>
0.948284

> <r_epik_Ionization_Penalty>
3.22013

> <r_epik_Ionization_Penalty_Charging>
3.22013

> <r_epik_Ionization_Penalty_Neutral>
3.9133e-08

> <r_epik_State_Penalty>
2.79459

> <r_epik_Charging_Adjusted_Penalty>
6.01472

> <i_epik_Tot_Q>
0

> <i_epik_Tot_abs_Q>
2

> <r_epik_Metal_State_Penalty>
0.589377

> <b_epik_Metal_Only>
1

> <s_lp_Force_Field>
OPLS_2005

> <r_lp_Energy>
10.361

> <b_lp_Chiralities_Consistent>
1

> <s_lp_Variant>
AV-unprocessed.smi:49-21

> <Gold.Version>
5.8.1

> <Gold.Id.Protein>
6NUR|6NUR_protein|mol2

> <Gold.PLP.Fitness>
33.0865

> <Gold.PLP.PLP>
-21.1088

> <Gold.PLP.part.hbond>
-2.0412

> <Gold.PLP.part.metal>
0.0000

> <Gold.PLP.part.buried>
-3.2433

> <Gold.PLP.part.nonpolar>
-15.6997

> <Gold.PLP.part.repulsive>
0.1291

> <Gold.PLP.ligand.clash>
0.0000

> <Gold.PLP.ligand.torsion>
0.0177

> <Gold.PLP.Chemscore.Hbond>
4.0000

> <Gold.PLP.Chemscore.CHOScore>
0.0000

> <Gold.PLP.Chemscore.Metal>
0.0000

> <Gold.Chemscore.Hbonds>
donor molecule, donor type, donor heavy atom, donor atom, acceptor molecule, acceptor atom, score
      L1  H    11    26       P1  8028  2.00
      P1  H  7997  8010       L1    13  1.98

> <Gold.PLP.Chemscore.Internal.Correction>
0.0130

> <Gold.Rescore>
     Score         DG    S(hbond)    S(metal)    S(lipo)     H(rot)  DE(clash)    DE(int)     intcor
     11.41     -11.48       1.82        0.00      40.00       1.86       0.05       0.03       ----

> <Gold.Chemscore.Fitness>
11.4121

> <Gold.Chemscore.DG>
-11.4842

> <Gold.Chemscore.ZeroCoef>
-5.4800

> <Gold.Chemscore.Hbond>
1.8196

> <Gold.Chemscore.Metal>
0.0000

> <Gold.Chemscore.Lipo>
39.9990

> <Gold.Chemscore.Internal_Hbond>
0.0000

> <Gold.Chemscore.DEClash>
0.0456

> <Gold.Chemscore.DEInternal>
0.0264

> <Gold.Chemscore.Rot>
1.8567

> <Gold.Chemscore.Internal.Correction>
   9.000000E+99

> <Gold.Chemscore.Hbonds>
donor molecule, donor type, donor heavy atom, donor atom, acceptor molecule, acceptor atom, score
      L1  H    11    26       P1  8028  0.99
      P1  H  7997  8010       L1    13  0.24

> <Gold.Chemscore.Hbond.Weighted>
-6.0774

> <Gold.Chemscore.Metal.Weighted>
-0.0000

> <Gold.Chemscore.Lipo.Weighted>
-4.6799

> <Gold.Chemscore.Internal_Hbond.Weighted>
0.0000

> <Gold.Chemscore.DEClash.Weighted>
0.0456

> <Gold.Chemscore.DEInternal.Weighted>
0.0264

> <Gold.Chemscore.Rot.Weighted>
4.7531

> <Gold.Chemscore.Internal.Correction.Weighted>
   9.000000E+99

> <Gold.Protein.RotatedTorsions>
[ 6907 6896 6895 6894 ] final -156.60 input  -60.11 | X-H torsion
[ 7974 7965 7964 7962 ] final  -26.91 input  175.53 | X-H torsion
[ 8008 7997 7996 7995 ] final   30.97 input   59.86 | X-H torsion
[ 10167 10162 10161 10158 ] final   95.74 input  -65.29 | X-H torsion
[ 10718 10713 10712 10709 ] final -147.42 input   66.30 | X-H torsion
[ 10763 10752 10751 10750 ] final  -62.52 input  -60.55 | X-H torsion
[ 11005 11000 10999 10996 ] final -113.43 input  -57.11 | X-H torsion

> <Gold.Protein.ActiveResidues>
 VAL166  LYS551  ARG553  GLY616  TRP617  ASP618  TYR619  PRO620  LYS621  CYS622 
 ASP623  PHE694  ASN695  SER759  ASP760  ASP761  ALA762  ILE779  LEU786  VAL792 
 PHE793  MET794  SER795  GLU796  ALA797  LYS798  CYS799  TRP800  GLU811  SER814 

> <Gold.Protein.RotatedAtoms>
  151.2902  133.4169  159.2632 H   0  0  0  0  0  0  0  0  0  0  0  0  # atno 6907 bound_to 6896
  151.0284  134.9522  159.8108 H   0  0  0  0  0  0  0  0  0  0  0  0  # atno 6908 bound_to 6896
  152.5340  134.2863  159.9079 H   0  0  0  0  0  0  0  0  0  0  0  0  # atno 6909 bound_to 6896
  146.1393  140.5082  142.8659 H   0  0  0  0  0  0  0  0  0  0  0  0  # atno 7974 bound_to 7965
  155.0989  140.3227  155.4553 H   0  0  0  0  0  0  0  0  0  0  0  0  # atno 8008 bound_to 7997
  156.2722  140.2064  156.6062 H   0  0  0  0  0  0  0  0  0  0  0  0  # atno 8009 bound_to 7997
  154.6845  140.0523  157.0287 H   0  0  0  0  0  0  0  0  0  0  0  0  # atno 8010 bound_to 7997
  139.7960  144.6833  150.9828 H   0  0  0  0  0  0  0  0  0  0  0  0  # atno 10167 bound_to 10162
  156.4073  130.7964  151.2179 H   0  0  0  0  0  0  0  0  0  0  0  0  # atno 10718 bound_to 10713
  154.3012  135.6234  153.5425 H   0  0  0  0  0  0  0  0  0  0  0  0  # atno 10763 bound_to 10752
  152.9840  135.5679  154.5282 H   0  0  0  0  0  0  0  0  0  0  0  0  # atno 10764 bound_to 10752
  154.4913  135.2867  155.1470 H   0  0  0  0  0  0  0  0  0  0  0  0  # atno 10765 bound_to 10752
  141.0615  133.9528  157.2658 H   0  0  0  0  0  0  0  0  0  0  0  0  # atno 11005 bound_to 11000
  144.7775  140.5770  143.6628 LP  0  0  0  0  0  0  0  0  0  0  0  0  # atno 17320 bound_to 7965
  145.5083  139.1480  143.3619 LP  0  0  0  0  0  0  0  0  0  0  0  0  # atno 17321 bound_to 7965
  140.7820  143.4330  151.0665 LP  0  0  0  0  0  0  0  0  0  0  0  0  # atno 17342 bound_to 10162
  139.8005  143.8091  152.3162 LP  0  0  0  0  0  0  0  0  0  0  0  0  # atno 17343 bound_to 10162
  157.7506  131.0268  150.3979 LP  0  0  0  0  0  0  0  0  0  0  0  0  # atno 17370 bound_to 10713
  156.4270  130.3964  149.6786 LP  0  0  0  0  0  0  0  0  0  0  0  0  # atno 17371 bound_to 10713
  139.9437  135.0187  156.8786 LP  0  0  0  0  0  0  0  0  0  0  0  0  # atno 17394 bound_to 11000
  140.5859  134.0307  155.7481 LP  0  0  0  0  0  0  0  0  0  0  0  0  # atno 17395 bound_to 11000

$$$$
