AV-unprocessed.smi:109|AV-procd|sdf|1048|dock7
  -GOLD-   2262018 93D 1   1.00000     0.00000
 Structure written by MMmdl.
 58 61  0  0  0  0  0  0  0  0  1 V2000
  150.6994  139.7813  154.5920 O   0  0  0  0  0  0  0  0  0  0  0  0
  151.3991  138.9460  155.4889 C   0  0  0  0  0  0  0  0  0  0  0  0
  151.8069  139.7433  156.7404 C   0  0  0  0  0  0  0  0  0  0  0  0
  150.6164  140.3635  157.5128 C   0  0  1  0  0  0  0  0  0  0  0  0
  150.1166  139.3974  158.4941 N   0  0  0  0  0  0  0  0  0  0  0  0
  149.4461  138.2826  158.1267 C   0  0  0  0  0  0  0  0  0  0  0  0
  149.0945  138.0585  156.8337 N   0  0  0  0  0  0  0  0  0  0  0  0
  148.4387  136.9425  156.5009 C   0  0  0  0  0  0  0  0  0  0  0  0
  148.0464  135.9387  157.2888 N   0  0  0  0  0  0  0  0  0  0  0  0
  148.3972  136.1612  158.5885 C   0  0  0  0  0  0  0  0  0  0  0  0
  149.0912  137.2988  159.0847 C   0  0  0  0  0  0  0  0  0  0  0  0
  149.2800  137.1733  160.4547 N   0  0  0  0  0  0  0  0  0  0  0  0
  148.7347  136.0221  160.7442 C   0  0  0  0  0  0  0  0  0  0  0  0
  148.1809  135.3458  159.6777 N   0  0  0  0  0  0  0  0  0  0  0  0
  147.4967  134.0120  159.6506 C   0  0  2  0  0  0  0  0  0  0  0  0
  146.5426  134.0134  160.6695 O   0  0  0  0  0  0  0  0  0  0  0  0
  146.8610  133.0463  161.6672 C   0  0  2  0  0  0  0  0  0  0  0  0
  146.5262  133.6059  163.0597 C   0  0  0  0  0  0  0  0  0  0  0  0
  145.1666  133.3891  163.3698 O   0  0  0  0  0  0  0  0  0  0  0  0
  148.3387  132.7021  161.4455 C   0  0  1  0  0  0  0  0  0  0  0  0
  148.6075  131.3662  161.8215 O   0  0  0  0  0  0  0  0  0  0  0  0
  148.4833  132.8647  159.9418 C   0  0  2  0  0  0  0  0  0  0  0  0
  149.8272  133.1453  159.5917 O   0  0  0  0  0  0  0  0  0  0  0  0
  150.9637  141.6980  158.2328 C   0  0  0  0  0  0  0  0  0  0  0  0
  151.1847  142.8386  157.2062 C   0  0  0  0  0  0  0  0  0  0  0  0
  151.5349  144.1764  157.8763 C   0  0  0  0  0  0  0  0  0  0  0  0
  152.7730  144.0399  158.7700 C   0  0  0  0  0  0  0  0  0  0  0  0
  152.5647  142.9353  159.8126 C   0  0  0  0  0  0  0  0  0  0  0  0
  152.2095  141.5947  159.1485 C   0  0  0  0  0  0  0  0  0  0  0  0
  147.0300  133.9568  158.6664 H   0  0  0  0  0  0  0  0  0  0  0  0
  146.2382  132.1755  161.4525 H   0  0  0  0  0  0  0  0  0  0  0  0
  148.9855  133.3987  161.9814 H   0  0  0  0  0  0  0  0  0  0  0  0
  148.1286  131.9773  159.4151 H   0  0  0  0  0  0  0  0  0  0  0  0
  150.1714  140.3852  155.0918 H   0  0  0  0  0  0  0  0  0  0  0  0
  150.7603  138.1053  155.7602 H   0  0  0  0  0  0  0  0  0  0  0  0
  152.2712  138.5423  154.9745 H   0  0  0  0  0  0  0  0  0  0  0  0
  152.3895  139.1078  157.4091 H   0  0  0  0  0  0  0  0  0  0  0  0
  152.4772  140.5325  156.4037 H   0  0  0  0  0  0  0  0  0  0  0  0
  149.8466  140.6023  156.7797 H   0  0  0  0  0  0  0  0  0  0  0  0
  150.4284  139.5494  159.4427 H   0  0  0  0  0  0  0  0  0  0  0  0
  148.1956  136.8391  155.4535 H   0  0  0  0  0  0  0  0  0  0  0  0
  148.7281  135.6346  161.7514 H   0  0  0  0  0  0  0  0  0  0  0  0
  147.1521  133.1566  163.8303 H   0  0  0  0  0  0  0  0  0  0  0  0
  146.7089  134.6804  163.0830 H   0  0  0  0  0  0  0  0  0  0  0  0
  144.9171  132.5357  163.0493 H   0  0  0  0  0  0  0  0  0  0  0  0
  147.8556  130.8382  161.6005 H   0  0  0  0  0  0  0  0  0  0  0  0
  150.0156  132.7249  158.7663 H   0  0  0  0  0  0  0  0  0  0  0  0
  150.1154  141.9719  158.8625 H   0  0  0  0  0  0  0  0  0  0  0  0
  151.9837  142.5600  156.5177 H   0  0  0  0  0  0  0  0  0  0  0  0
  150.2946  142.9850  156.5941 H   0  0  0  0  0  0  0  0  0  0  0  0
  151.7092  144.9376  157.1154 H   0  0  0  0  0  0  0  0  0  0  0  0
  150.6880  144.5209  158.4712 H   0  0  0  0  0  0  0  0  0  0  0  0
  153.6459  143.8086  158.1581 H   0  0  0  0  0  0  0  0  0  0  0  0
  152.9834  144.9878  159.2662 H   0  0  0  0  0  0  0  0  0  0  0  0
  153.4650  142.8221  160.4173 H   0  0  0  0  0  0  0  0  0  0  0  0
  151.7676  143.2256  160.4982 H   0  0  0  0  0  0  0  0  0  0  0  0
  152.0456  140.8712  159.9454 H   0  0  0  0  0  0  0  0  0  0  0  0
  153.0627  141.2362  158.5711 H   0  0  0  0  0  0  0  0  0  0  0  0
  1  2  1  0  0  0  0
  1 34  1  0  0  0  0
  2  3  1  0  0  0  0
  2 35  1  0  0  0  0
  2 36  1  0  0  0  0
  3  4  1  0  0  0  0
  3 37  1  0  0  0  0
  3 38  1  0  0  0  0
  4  5  1  0  0  0  0
  4 24  1  0  0  0  0
  4 39  1  0  0  0  0
  5  6  1  0  0  0  0
  5 40  1  0  0  0  0
  6 11  1  0  0  0  0
  6  7  2  0  0  0  0
  7  8  1  0  0  0  0
  8  9  2  0  0  0  0
  8 41  1  0  0  0  0
  9 10  1  0  0  0  0
 10 14  1  0  0  0  0
 10 11  2  0  0  0  0
 11 12  1  0  0  0  0
 12 13  2  0  0  0  0
 13 14  1  0  0  0  0
 13 42  1  0  0  0  0
 14 15  1  0  0  0  0
 15 30  1  0  0  0  0
 15 22  1  0  0  0  0
 15 16  1  0  0  0  0
 16 17  1  0  0  0  0
 17 31  1  0  0  0  0
 17 18  1  0  0  0  0
 17 20  1  0  0  0  0
 18 19  1  0  0  0  0
 18 43  1  0  0  0  0
 18 44  1  0  0  0  0
 19 45  1  0  0  0  0
 20 32  1  0  0  0  0
 20 21  1  0  0  0  0
 20 22  1  0  0  0  0
 21 46  1  0  0  0  0
 22 33  1  0  0  0  0
 22 23  1  0  0  0  0
 23 47  1  0  0  0  0
 24 29  1  0  0  0  0
 24 25  1  0  0  0  0
 24 48  1  0  0  0  0
 25 26  1  0  0  0  0
 25 49  1  0  0  0  0
 25 50  1  0  0  0  0
 26 27  1  0  0  0  0
 26 51  1  0  0  0  0
 26 52  1  0  0  0  0
 27 28  1  0  0  0  0
 27 53  1  0  0  0  0
 27 54  1  0  0  0  0
 28 29  1  0  0  0  0
 28 55  1  0  0  0  0
 28 56  1  0  0  0  0
 29 57  1  0  0  0  0
 29 58  1  0  0  0  0
M  END
> <s_m_source_file>
AV-unprocessed.smi

> <i_m_source_file_index>
109

> <i_lp_mmshare_version>
43012

> <i_f3d_flags>
0

> <s_epik_input>
W0NIMl0xW0NIMl1bQ0gyXVtDSDJdW0NIMl1bQ0hdMVtDQEhdKFtDSDJdW0NIMl1bT0hdKVtOSF1jKG5bY0hdbjIpYyhjMjMpbltjSF1uM1tDQEBIXTRPW0NASF0oW0NIMl1bT0hdKVtDQEBIXShbT0hdKVtDQEhdNFtPSF0=

> <s_epik_cmdline>
J2VwaWtfcHl0aG9uJywgJy1waCcsICc3LjAnLCAnLXRuJywgJzgnLCAnLW1hJywgJzIwMCcsICctbWV0YWxfYmluZGluZycsICctaW1hZScsICc8aW5maWxlLm1hZT4nLCAnLW9tYWUnLCAnPG91dGZpbGUubWFlPic=

> <r_lp_tautomer_probability>
1

> <r_epik_Ionization_Penalty>
0.000793976

> <r_epik_Ionization_Penalty_Charging>
0

> <r_epik_Ionization_Penalty_Neutral>
0.000793976

> <r_epik_State_Penalty>
-0

> <r_epik_Charging_Adjusted_Penalty>
0

> <i_epik_Tot_Q>
0

> <i_epik_Tot_abs_Q>
0

> <r_epik_Metal_State_Penalty>
-0

> <b_epik_Metal_Only>
0

> <s_epik_Chemistry_Notes>
This compound contains an acetal/aminal-like group ( X-CH(R)-Y where X, Y are N, S, or O) that may be acid/base labile, releasing an aldehyde.

> <s_lp_Force_Field>
OPLS_2005

> <r_lp_Energy>
53.2153

> <b_lp_Chiralities_Consistent>
1

> <s_lp_Variant>
AV-unprocessed.smi:109-18

> <Gold.Version>
5.8.1

> <Gold.Id.Protein>
6NUR|6NUR_protein|mol2

> <Gold.PLP.Fitness>
48.6660

> <Gold.PLP.PLP>
-43.1754

> <Gold.PLP.part.hbond>
-3.3271

> <Gold.PLP.part.metal>
0.0000

> <Gold.PLP.part.buried>
-6.9773

> <Gold.PLP.part.nonpolar>
-33.8650

> <Gold.PLP.part.repulsive>
0.1934

> <Gold.PLP.ligand.clash>
0.0000

> <Gold.PLP.ligand.torsion>
1.0866

> <Gold.PLP.Chemscore.Hbond>
2.4992

> <Gold.PLP.Chemscore.CHOScore>
0.0000

> <Gold.PLP.Chemscore.Metal>
0.0000

> <Gold.Chemscore.Hbonds>
donor molecule, donor type, donor heavy atom, donor atom, acceptor molecule, acceptor atom, score
      P1  H  6896  6909       L1    23  0.01
      P1  H  6931  6943       L1    12  0.53
      P1  H  7989  7998       L1     1  1.00

> <Gold.PLP.Chemscore.Internal.Correction>
0.1663

> <Gold.Rescore>
     Score         DG    S(hbond)    S(metal)    S(lipo)     H(rot)  DE(clash)    DE(int)     intcor
     10.05     -11.36       2.47        0.00      99.27       5.47       0.01       1.30       ----

> <Gold.Chemscore.Fitness>
10.0528

> <Gold.Chemscore.DG>
-11.3627

> <Gold.Chemscore.ZeroCoef>
-5.4800

> <Gold.Chemscore.Hbond>
2.4735

> <Gold.Chemscore.Metal>
0.0000

> <Gold.Chemscore.Lipo>
99.2724

> <Gold.Chemscore.Internal_Hbond>
0.0000

> <Gold.Chemscore.DEClash>
0.0064

> <Gold.Chemscore.DEInternal>
1.3035

> <Gold.Chemscore.Rot>
5.4662

> <Gold.Chemscore.Internal.Correction>
   9.000000E+99

> <Gold.Chemscore.Hbonds>
donor molecule, donor type, donor heavy atom, donor atom, acceptor molecule, acceptor atom, score
      P1  H  6931  6943       L1    12  0.34
      P1  H  7989  7998       L1     1  0.38

> <Gold.Chemscore.Hbond.Weighted>
-8.2613

> <Gold.Chemscore.Metal.Weighted>
-0.0000

> <Gold.Chemscore.Lipo.Weighted>
-11.6149

> <Gold.Chemscore.Internal_Hbond.Weighted>
0.0000

> <Gold.Chemscore.DEClash.Weighted>
0.0064

> <Gold.Chemscore.DEInternal.Weighted>
1.3035

> <Gold.Chemscore.Rot.Weighted>
13.9935

> <Gold.Chemscore.Internal.Correction.Weighted>
   9.000000E+99

> <Gold.Protein.RotatedTorsions>
[ 6907 6896 6895 6894 ] final   -0.47 input  -60.11 | X-H torsion
[ 7974 7965 7964 7962 ] final  112.14 input  175.53 | X-H torsion
[ 8008 7997 7996 7995 ] final  134.43 input   59.86 | X-H torsion
[ 10167 10162 10161 10158 ] final   37.65 input  -65.29 | X-H torsion
[ 10718 10713 10712 10709 ] final  -50.37 input   66.30 | X-H torsion
[ 10763 10752 10751 10750 ] final   38.19 input  -60.55 | X-H torsion
[ 11005 11000 10999 10996 ] final    0.55 input  -57.11 | X-H torsion

> <Gold.Protein.ActiveResidues>
 VAL166  LYS551  ARG553  GLY616  TRP617  ASP618  TYR619  PRO620  LYS621  CYS622 
 ASP623  PHE694  ASN695  SER759  ASP760  ASP761  ALA762  ILE779  LEU786  VAL792 
 PHE793  MET794  SER795  GLU796  ALA797  LYS798  CYS799  TRP800  GLU811  SER814 

> <Gold.Protein.RotatedAtoms>
  151.5617  135.1065  159.9973 H   0  0  0  0  0  0  0  0  0  0  0  0  # atno 6907 bound_to 6896
  152.4443  133.7503  159.6701 H   0  0  0  0  0  0  0  0  0  0  0  0  # atno 6908 bound_to 6896
  150.8355  133.7952  159.3105 H   0  0  0  0  0  0  0  0  0  0  0  0  # atno 6909 bound_to 6896
  145.2333  139.2810  143.4156 H   0  0  0  0  0  0  0  0  0  0  0  0  # atno 7974 bound_to 7965
  156.2999  140.2496  156.3415 H   0  0  0  0  0  0  0  0  0  0  0  0  # atno 8008 bound_to 7997
  154.9050  140.0405  157.1934 H   0  0  0  0  0  0  0  0  0  0  0  0  # atno 8009 bound_to 7997
  154.8462  140.2898  155.5631 H   0  0  0  0  0  0  0  0  0  0  0  0  # atno 8010 bound_to 7997
  140.4012  144.1720  150.6134 H   0  0  0  0  0  0  0  0  0  0  0  0  # atno 10167 bound_to 10162
  156.1807  130.4150  149.9511 H   0  0  0  0  0  0  0  0  0  0  0  0  # atno 10718 bound_to 10713
  153.0010  135.6256  154.2265 H   0  0  0  0  0  0  0  0  0  0  0  0  # atno 10763 bound_to 10752
  154.2007  135.2804  155.2993 H   0  0  0  0  0  0  0  0  0  0  0  0  # atno 10764 bound_to 10752
  154.5685  135.5683  153.7132 H   0  0  0  0  0  0  0  0  0  0  0  0  # atno 10765 bound_to 10752
  140.6254  133.9624  155.8246 H   0  0  0  0  0  0  0  0  0  0  0  0  # atno 11005 bound_to 11000
  146.3347  140.2675  142.8604 LP  0  0  0  0  0  0  0  0  0  0  0  0  # atno 17320 bound_to 7965
  144.9656  140.8318  143.5486 LP  0  0  0  0  0  0  0  0  0  0  0  0  # atno 17321 bound_to 7965
  140.4737  143.2403  151.9053 LP  0  0  0  0  0  0  0  0  0  0  0  0  # atno 17342 bound_to 10162
  139.4785  144.5342  151.8622 LP  0  0  0  0  0  0  0  0  0  0  0  0  # atno 17343 bound_to 10162
  156.7283  130.9033  151.3624 LP  0  0  0  0  0  0  0  0  0  0  0  0  # atno 17370 bound_to 10713
  157.6866  130.9191  150.0402 LP  0  0  0  0  0  0  0  0  0  0  0  0  # atno 17371 bound_to 10713
  141.0713  134.0201  157.3522 LP  0  0  0  0  0  0  0  0  0  0  0  0  # atno 17394 bound_to 11000
  139.9137  135.0194  156.7795 LP  0  0  0  0  0  0  0  0  0  0  0  0  # atno 17395 bound_to 11000

$$$$
