AV-unprocessed.smi:910|AV-procd|sdf|4118|dock3
  -GOLD-   22720 2 13D 1   1.00000     0.00000
 Structure written by MMmdl.
 46 47  0  0  0  0  0  0  0  0  1 V2000
  151.7877  143.5153  159.8866 C   0  0  0  0  0  0  0  0  0  0  0  0
  152.5089  142.2268  160.1290 C   0  0  0  0  0  0  0  0  0  0  0  0
  152.6104  141.2469  159.1521 N   0  0  0  0  0  0  0  0  0  0  0  0
  153.3093  140.2682  159.7299 C   0  0  0  0  0  0  0  0  0  0  0  0
  153.7030  139.0460  159.1298 N   0  0  0  0  0  0  0  0  0  0  0  0
  153.3653  138.5944  157.9111 C   0  0  0  0  0  0  0  0  0  0  0  0
  152.5302  139.1153  157.1709 O   0  0  0  0  0  0  0  0  0  0  0  0
  154.0647  137.4970  157.5855 N   0  0  0  0  0  0  0  0  0  0  0  0
  154.0259  136.8361  156.2847 C   0  0  0  0  0  0  0  0  0  0  0  0
  155.0048  137.4925  155.2987 C   0  0  0  0  0  0  0  0  0  0  0  0
  155.0093  136.7423  154.0940 O   0  0  0  0  0  0  0  0  0  0  0  0
  156.1069  136.9855  153.2236 C   0  0  2  0  0  0  0  0  0  0  0  0
  156.2940  138.5025  152.9989 C   0  0  0  0  0  0  0  0  0  0  0  0
  155.0847  139.1286  152.2834 C   0  0  0  0  0  0  0  0  0  0  0  0
  154.7836  138.4085  150.9606 C   0  0  0  0  0  0  0  0  0  0  0  0
  154.5997  136.8976  151.1740 C   0  0  0  0  0  0  0  0  0  0  0  0
  155.8188  136.2722  151.8834 C   0  0  2  0  0  0  0  0  0  0  0  0
  155.6596  134.7540  152.0597 C   0  0  0  0  0  0  0  0  0  0  0  0
  153.6759  140.5365  161.0111 O   0  0  0  0  0  0  0  0  0  0  0  0
  153.1573  141.7809  161.2533 C   0  0  0  0  0  0  0  0  0  0  0  0
  153.3842  142.3767  162.6011 C   0  0  0  0  0  0  0  0  0  0  0  0
  152.1631  144.3081  160.5342 H   0  0  0  0  0  0  0  0  0  0  0  0
  150.7200  143.4081  160.0785 H   0  0  0  0  0  0  0  0  0  0  0  0
  151.9077  143.8489  158.8554 H   0  0  0  0  0  0  0  0  0  0  0  0
  154.3610  138.4915  159.6568 H   0  0  0  0  0  0  0  0  0  0  0  0
  154.7187  137.1306  158.2613 H   0  0  0  0  0  0  0  0  0  0  0  0
  154.3054  135.7931  156.4343 H   0  0  0  0  0  0  0  0  0  0  0  0
  153.0130  136.8303  155.8785 H   0  0  0  0  0  0  0  0  0  0  0  0
  154.7166  138.5296  155.1275 H   0  0  0  0  0  0  0  0  0  0  0  0
  156.0110  137.5005  155.7194 H   0  0  0  0  0  0  0  0  0  0  0  0
  157.0158  136.5637  153.6563 H   0  0  0  0  0  0  0  0  0  0  0  0
  156.4750  139.0196  153.9404 H   0  0  0  0  0  0  0  0  0  0  0  0
  157.1878  138.6650  152.3954 H   0  0  0  0  0  0  0  0  0  0  0  0
  154.2092  139.0822  152.9310 H   0  0  0  0  0  0  0  0  0  0  0  0
  155.2706  140.1861  152.0951 H   0  0  0  0  0  0  0  0  0  0  0  0
  153.8880  138.8310  150.5039 H   0  0  0  0  0  0  0  0  0  0  0  0
  155.6001  138.5805  150.2582 H   0  0  0  0  0  0  0  0  0  0  0  0
  153.6968  136.7205  151.7603 H   0  0  0  0  0  0  0  0  0  0  0  0
  154.4388  136.4121  150.2108 H   0  0  0  0  0  0  0  0  0  0  0  0
  156.6857  136.4258  151.2390 H   0  0  0  0  0  0  0  0  0  0  0  0
  154.7966  134.5121  152.6810 H   0  0  0  0  0  0  0  0  0  0  0  0
  156.5414  134.3189  152.5304 H   0  0  0  0  0  0  0  0  0  0  0  0
  155.5227  134.2605  151.0971 H   0  0  0  0  0  0  0  0  0  0  0  0
  152.5376  142.9950  162.9001 H   0  0  0  0  0  0  0  0  0  0  0  0
  154.2768  143.0024  162.5999 H   0  0  0  0  0  0  0  0  0  0  0  0
  153.5159  141.5996  163.3544 H   0  0  0  0  0  0  0  0  0  0  0  0
  1  2  1  0  0  0  0
  1 22  1  0  0  0  0
  1 23  1  0  0  0  0
  1 24  1  0  0  0  0
  2 20  2  0  0  0  0
  2  3  1  0  0  0  0
  3  4  2  0  0  0  0
  4  5  1  0  0  0  0
  4 19  1  0  0  0  0
  5  6  1  0  0  0  0
  5 25  1  0  0  0  0
  6  7  2  0  0  0  0
  6  8  1  0  0  0  0
  8  9  1  0  0  0  0
  8 26  1  0  0  0  0
  9 10  1  0  0  0  0
  9 27  1  0  0  0  0
  9 28  1  0  0  0  0
 10 11  1  0  0  0  0
 10 29  1  0  0  0  0
 10 30  1  0  0  0  0
 11 12  1  0  0  0  0
 12 17  1  0  0  0  0
 12 13  1  0  0  0  0
 12 31  1  0  0  0  0
 13 14  1  0  0  0  0
 13 32  1  0  0  0  0
 13 33  1  0  0  0  0
 14 15  1  0  0  0  0
 14 34  1  0  0  0  0
 14 35  1  0  0  0  0
 15 16  1  0  0  0  0
 15 36  1  0  0  0  0
 15 37  1  0  0  0  0
 16 17  1  0  0  0  0
 16 38  1  0  0  0  0
 16 39  1  0  0  0  0
 17 18  1  0  0  0  0
 17 40  1  0  0  0  0
 18 41  1  0  0  0  0
 18 42  1  0  0  0  0
 18 43  1  0  0  0  0
 19 20  1  0  0  0  0
 20 21  1  0  0  0  0
 21 44  1  0  0  0  0
 21 45  1  0  0  0  0
 21 46  1  0  0  0  0
M  END
> <s_m_source_file>
AV-unprocessed.smi

> <i_m_source_file_index>
910

> <i_lp_mmshare_version>
43012

> <i_f3d_flags>
0

> <s_epik_input>
W0NIM11jMW5jKG9jMVtDSDNdKVtOSF1DKD1PKVtOSF1bQ0gyXVtDSDJdT1tDQEBIXTJbQ0gyXVtDSDJdW0NIMl1bQ0gyXVtDQEhdMltDSDNd

> <s_epik_cmdline>
J2VwaWtfcHl0aG9uJywgJy1waCcsICc3LjAnLCAnLXRuJywgJzgnLCAnLW1hJywgJzIwMCcsICctbWV0YWxfYmluZGluZycsICctaW1hZScsICc8aW5maWxlLm1hZT4nLCAnLW9tYWUnLCAnPG91dGZpbGUubWFlPic=

> <r_lp_tautomer_probability>
0.785861

> <r_epik_Ionization_Penalty>
4.15957e-05

> <r_epik_Ionization_Penalty_Charging>
0

> <r_epik_Ionization_Penalty_Neutral>
4.15957e-05

> <r_epik_State_Penalty>
0.0240523

> <r_epik_Charging_Adjusted_Penalty>
0.0240523

> <i_epik_Tot_Q>
0

> <i_epik_Tot_abs_Q>
0

> <r_epik_Metal_State_Penalty>
0.057053

> <b_epik_Metal_Only>
0

> <s_lp_Force_Field>
OPLS_2005

> <r_lp_Energy>
8.47643

> <b_lp_Chiralities_Consistent>
1

> <s_lp_Variant>
AV-unprocessed.smi:910-3

> <Gold.Version>
5.8.1

> <Gold.Id.Protein>
6NUR|6NUR_protein|mol2

> <Gold.PLP.Fitness>
44.9507

> <Gold.PLP.PLP>
-39.5120

> <Gold.PLP.part.hbond>
-2.0000

> <Gold.PLP.part.metal>
0.0000

> <Gold.PLP.part.buried>
-4.5303

> <Gold.PLP.part.nonpolar>
-33.0092

> <Gold.PLP.part.repulsive>
0.1522

> <Gold.PLP.ligand.clash>
0.0000

> <Gold.PLP.ligand.torsion>
0.2994

> <Gold.PLP.Chemscore.Hbond>
2.0000

> <Gold.PLP.Chemscore.CHOScore>
0.0000

> <Gold.PLP.Chemscore.Metal>
0.0000

> <Gold.Chemscore.Hbonds>
donor molecule, donor type, donor heavy atom, donor atom, acceptor molecule, acceptor atom, score
      P1  H 10752 10765       L1    11  0.01

> <Gold.PLP.Chemscore.Internal.Correction>
0.0375

> <Gold.Rescore>
     Score         DG    S(hbond)    S(metal)    S(lipo)     H(rot)  DE(clash)    DE(int)     intcor
     17.16     -18.79       1.13        0.00     117.66       1.66       0.13       1.50       ----

> <Gold.Chemscore.Fitness>
17.1594

> <Gold.Chemscore.DG>
-18.7858

> <Gold.Chemscore.ZeroCoef>
-5.4800

> <Gold.Chemscore.Hbond>
1.1326

> <Gold.Chemscore.Metal>
0.0000

> <Gold.Chemscore.Lipo>
117.6634

> <Gold.Chemscore.Internal_Hbond>
0.0000

> <Gold.Chemscore.DEClash>
0.1290

> <Gold.Chemscore.DEInternal>
1.4975

> <Gold.Chemscore.Rot>
1.6576

> <Gold.Chemscore.Internal.Correction>
   9.000000E+99

> <Gold.Chemscore.Hbonds>
donor molecule, donor type, donor heavy atom, donor atom, acceptor molecule, acceptor atom, score
      P1  H 10752 10765       L1    11  0.01

> <Gold.Chemscore.Hbond.Weighted>
-3.7828

> <Gold.Chemscore.Metal.Weighted>
-0.0000

> <Gold.Chemscore.Lipo.Weighted>
-13.7666

> <Gold.Chemscore.Internal_Hbond.Weighted>
0.0000

> <Gold.Chemscore.DEClash.Weighted>
0.1290

> <Gold.Chemscore.DEInternal.Weighted>
1.4975

> <Gold.Chemscore.Rot.Weighted>
4.2436

> <Gold.Chemscore.Internal.Correction.Weighted>
   9.000000E+99

> <Gold.Protein.RotatedTorsions>
[ 6907 6896 6895 6894 ] final -113.70 input  -60.11 | X-H torsion
[ 7974 7965 7964 7962 ] final  -13.23 input  175.53 | X-H torsion
[ 8008 7997 7996 7995 ] final   46.44 input   59.86 | X-H torsion
[ 10167 10162 10161 10158 ] final  -92.72 input  -65.29 | X-H torsion
[ 10718 10713 10712 10709 ] final  125.91 input   66.30 | X-H torsion
[ 10763 10752 10751 10750 ] final  -23.58 input  -60.55 | X-H torsion
[ 11005 11000 10999 10996 ] final   94.25 input  -57.11 | X-H torsion

> <Gold.Protein.ActiveResidues>
 VAL166  LYS551  ARG553  GLY616  TRP617  ASP618  TYR619  PRO620  LYS621  CYS622 
 ASP623  PHE694  ASN695  SER759  ASP760  ASP761  ALA762  ILE779  LEU786  VAL792 
 PHE793  MET794  SER795  GLU796  ALA797  LYS798  CYS799  TRP800  GLU811  SER814 

> <Gold.Protein.RotatedAtoms>
  150.7848  133.8907  159.3312 H   0  0  0  0  0  0  0  0  0  0  0  0  # atno 6907 bound_to 6896
  151.6761  135.0967  160.0216 H   0  0  0  0  0  0  0  0  0  0  0  0  # atno 6908 bound_to 6896
  152.3909  133.6639  159.6272 H   0  0  0  0  0  0  0  0  0  0  0  0  # atno 6909 bound_to 6896
  146.2122  140.3172  142.8387 H   0  0  0  0  0  0  0  0  0  0  0  0  # atno 7974 bound_to 7965
  155.3524  140.3414  155.4239 H   0  0  0  0  0  0  0  0  0  0  0  0  # atno 8008 bound_to 7997
  156.1757  140.1646  156.8403 H   0  0  0  0  0  0  0  0  0  0  0  0  # atno 8009 bound_to 7997
  154.5279  140.0752  156.8274 H   0  0  0  0  0  0  0  0  0  0  0  0  # atno 8010 bound_to 7997
  140.3320  143.2990  151.9931 H   0  0  0  0  0  0  0  0  0  0  0  0  # atno 10167 bound_to 10162
  157.5464  131.1095  150.8775 H   0  0  0  0  0  0  0  0  0  0  0  0  # atno 10718 bound_to 10713
  153.6702  135.6972  153.5149 H   0  0  0  0  0  0  0  0  0  0  0  0  # atno 10763 bound_to 10752
  153.2564  135.4258  155.0849 H   0  0  0  0  0  0  0  0  0  0  0  0  # atno 10764 bound_to 10752
  154.8428  135.3544  154.6246 H   0  0  0  0  0  0  0  0  0  0  0  0  # atno 10765 bound_to 10752
  139.8800  134.8835  156.3837 H   0  0  0  0  0  0  0  0  0  0  0  0  # atno 11005 bound_to 11000
  144.8946  140.7566  143.5905 LP  0  0  0  0  0  0  0  0  0  0  0  0  # atno 17320 bound_to 7965
  145.3096  139.1823  143.4646 LP  0  0  0  0  0  0  0  0  0  0  0  0  # atno 17321 bound_to 7965
  139.4855  144.6227  151.7224 LP  0  0  0  0  0  0  0  0  0  0  0  0  # atno 17342 bound_to 10162
  140.5388  144.0612  150.6080 LP  0  0  0  0  0  0  0  0  0  0  0  0  # atno 17343 bound_to 10162
  156.9313  130.5350  149.5279 LP  0  0  0  0  0  0  0  0  0  0  0  0  # atno 17370 bound_to 10713
  156.0539  130.5604  150.9049 LP  0  0  0  0  0  0  0  0  0  0  0  0  # atno 17371 bound_to 10713
  140.9381  133.7533  156.0111 LP  0  0  0  0  0  0  0  0  0  0  0  0  # atno 17394 bound_to 11000
  140.8252  134.3243  157.5368 LP  0  0  0  0  0  0  0  0  0  0  0  0  # atno 17395 bound_to 11000

$$$$
