AV-unprocessed.smi:2199|AV-procd|sdf|8923|dock3
  -GOLD-   2272012143D 1   1.00000     0.00000
 Structure written by MMmdl.
 26 27  0  0  0  0  0  0  0  0  1 V2000
  151.4620  141.2747  157.8891 O   0  0  0  0  0  0  0  0  0  0  0  0
  150.9026  142.1127  157.1821 C   0  0  0  0  0  0  0  0  0  0  0  0
  150.3433  141.7108  155.8127 C   0  0  0  0  0  0  0  0  0  0  0  0
  150.6511  140.3117  155.4856 N   0  0  0  0  0  0  0  0  0  0  0  0
  151.9528  139.8408  155.5863 C   0  0  0  0  0  0  0  0  0  0  0  0
  152.3081  138.5639  155.3085 C   0  0  0  0  0  0  0  0  0  0  0  0
  151.3059  137.5953  154.8782 C   0  0  0  0  0  0  0  0  0  0  0  0
  151.5289  136.4181  154.6049 O   0  0  0  0  0  0  0  0  0  0  0  0
  150.0084  138.1064  154.7895 N   0  0  0  0  0  0  0  0  0  0  0  0
  149.6353  139.4210  155.0735 C   0  0  0  0  0  0  0  0  0  0  0  0
  148.4599  139.7665  154.9622 O   0  0  0  0  0  0  0  0  0  0  0  0
  150.7460  143.3970  157.5371 N   0  0  0  0  0  0  0  0  0  0  0  0
  151.1967  143.9798  158.7591 C   0  0  0  0  0  0  0  0  0  0  0  0
  152.1347  145.1637  158.6677 C   0  0  0  0  0  0  0  0  0  0  0  0
  152.6601  143.8268  159.1131 C   0  0  0  0  0  0  0  0  0  0  0  0
  149.2796  137.4722  154.4962 H   0  0  0  0  0  0  0  0  0  0  0  0
  149.2647  141.8785  155.7943 H   0  0  0  0  0  0  0  0  0  0  0  0
  150.7465  142.3816  155.0521 H   0  0  0  0  0  0  0  0  0  0  0  0
  152.7290  140.5220  155.9054 H   0  0  0  0  0  0  0  0  0  0  0  0
  153.3395  138.2570  155.4061 H   0  0  0  0  0  0  0  0  0  0  0  0
  150.2738  144.0107  156.8892 H   0  0  0  0  0  0  0  0  0  0  0  0
  150.5010  143.9864  159.5971 H   0  0  0  0  0  0  0  0  0  0  0  0
  152.4230  145.5108  157.6771 H   0  0  0  0  0  0  0  0  0  0  0  0
  152.0334  145.9413  159.4220 H   0  0  0  0  0  0  0  0  0  0  0  0
  152.9114  143.7107  160.1655 H   0  0  0  0  0  0  0  0  0  0  0  0
  153.2976  143.2810  158.4200 H   0  0  0  0  0  0  0  0  0  0  0  0
  1  2  2  0  0  0  0
  2  3  1  0  0  0  0
  2 12  1  0  0  0  0
  3  4  1  0  0  0  0
  3 17  1  0  0  0  0
  3 18  1  0  0  0  0
  4 10  1  0  0  0  0
  4  5  1  0  0  0  0
  5  6  2  0  0  0  0
  5 19  1  0  0  0  0
  6  7  1  0  0  0  0
  6 20  1  0  0  0  0
  7  8  2  0  0  0  0
  7  9  1  0  0  0  0
  9 16  1  0  0  0  0
  9 10  1  0  0  0  0
 10 11  2  0  0  0  0
 12 13  1  0  0  0  0
 12 21  1  0  0  0  0
 13 15  1  0  0  0  0
 13 14  1  0  0  0  0
 13 22  1  0  0  0  0
 14 15  1  0  0  0  0
 14 23  1  0  0  0  0
 14 24  1  0  0  0  0
 15 25  1  0  0  0  0
 15 26  1  0  0  0  0
M  END
> <s_m_source_file>
AV-unprocessed.smi

> <i_m_source_file_index>
2199

> <i_lp_mmshare_version>
43012

> <i_f3d_flags>
0

> <s_epik_input>
W0NIMl0xW0NIMl1bQ0hdMVtOSF1DKD1PKVtDSDJdbjJbY0hdW2NIXWMoPU8pW25IXWMyPU8=

> <s_epik_cmdline>
J2VwaWtfcHl0aG9uJywgJy1waCcsICc3LjAnLCAnLXRuJywgJzgnLCAnLW1hJywgJzIwMCcsICctbWV0YWxfYmluZGluZycsICctaW1hZScsICc8aW5maWxlLm1hZT4nLCAnLW9tYWUnLCAnPG91dGZpbGUubWFlPic=

> <r_lp_tautomer_probability>
0.999537

> <r_epik_Ionization_Penalty>
0.00328918

> <r_epik_Ionization_Penalty_Charging>
0.00328916

> <r_epik_Ionization_Penalty_Neutral>
2.06703e-08

> <r_epik_State_Penalty>
0.00232387

> <r_epik_Charging_Adjusted_Penalty>
0.00561303

> <i_epik_Tot_Q>
0

> <i_epik_Tot_abs_Q>
0

> <r_epik_Metal_State_Penalty>
0.365273

> <b_epik_Metal_Only>
0

> <s_lp_Force_Field>
OPLS_2005

> <r_lp_Energy>
17.907

> <b_lp_Chiralities_Consistent>
1

> <s_lp_Variant>
AV-unprocessed.smi:2199-1

> <Gold.Version>
5.8.1

> <Gold.Id.Protein>
6NUR|6NUR_protein|mol2

> <Gold.PLP.Fitness>
38.7791

> <Gold.PLP.PLP>
-32.9596

> <Gold.PLP.part.hbond>
-2.0000

> <Gold.PLP.part.metal>
0.0000

> <Gold.PLP.part.buried>
-4.3809

> <Gold.PLP.part.nonpolar>
-27.6783

> <Gold.PLP.part.repulsive>
0.2754

> <Gold.PLP.ligand.clash>
0.0000

> <Gold.PLP.ligand.torsion>
0.1076

> <Gold.PLP.Chemscore.Hbond>
2.0000

> <Gold.PLP.Chemscore.CHOScore>
0.0000

> <Gold.PLP.Chemscore.Metal>
0.0000

> <Gold.Chemscore.Hbonds>
donor molecule, donor type, donor heavy atom, donor atom, acceptor molecule, acceptor atom, score
      L1  H    12    21       P1  8028  1.00
      P1  H 10752 10763       L1     8  1.00

> <Gold.PLP.Chemscore.Internal.Correction>
0.0346

> <Gold.Rescore>
     Score         DG    S(hbond)    S(metal)    S(lipo)     H(rot)  DE(clash)    DE(int)     intcor
     13.46     -14.90       1.98        0.00      63.04       1.78       0.02       1.42       ----

> <Gold.Chemscore.Fitness>
13.4616

> <Gold.Chemscore.DG>
-14.9009

> <Gold.Chemscore.ZeroCoef>
-5.4800

> <Gold.Chemscore.Hbond>
1.9785

> <Gold.Chemscore.Metal>
0.0000

> <Gold.Chemscore.Lipo>
63.0420

> <Gold.Chemscore.Internal_Hbond>
0.0000

> <Gold.Chemscore.DEClash>
0.0178

> <Gold.Chemscore.DEInternal>
1.4215

> <Gold.Chemscore.Rot>
1.7825

> <Gold.Chemscore.Internal.Correction>
   9.000000E+99

> <Gold.Chemscore.Hbonds>
donor molecule, donor type, donor heavy atom, donor atom, acceptor molecule, acceptor atom, score
      L1  H    12    21       P1  8028  0.96
      P1  H 10752 10763       L1     8  0.99

> <Gold.Chemscore.Hbond.Weighted>
-6.6081

> <Gold.Chemscore.Metal.Weighted>
-0.0000

> <Gold.Chemscore.Lipo.Weighted>
-7.3759

> <Gold.Chemscore.Internal_Hbond.Weighted>
0.0000

> <Gold.Chemscore.DEClash.Weighted>
0.0178

> <Gold.Chemscore.DEInternal.Weighted>
1.4215

> <Gold.Chemscore.Rot.Weighted>
4.5632

> <Gold.Chemscore.Internal.Correction.Weighted>
   9.000000E+99

> <Gold.Protein.RotatedTorsions>
[ 6907 6896 6895 6894 ] final   19.50 input  -60.11 | X-H torsion
[ 7974 7965 7964 7962 ] final  -79.21 input  175.53 | X-H torsion
[ 8008 7997 7996 7995 ] final  -46.93 input   59.86 | X-H torsion
[ 10167 10162 10161 10158 ] final  -88.24 input  -65.29 | X-H torsion
[ 10718 10713 10712 10709 ] final  131.73 input   66.30 | X-H torsion
[ 10763 10752 10751 10750 ] final   42.79 input  -60.55 | X-H torsion
[ 11005 11000 10999 10996 ] final -155.10 input  -57.11 | X-H torsion

> <Gold.Protein.ActiveResidues>
 VAL166  LYS551  ARG553  GLY616  TRP617  ASP618  TYR619  PRO620  LYS621  CYS622 
 ASP623  PHE694  ASN695  SER759  ASP760  ASP761  ALA762  ILE779  LEU786  VAL792 
 PHE793  MET794  SER795  GLU796  ALA797  LYS798  CYS799  TRP800  GLU811  SER814 

> <Gold.Protein.RotatedAtoms>
  151.8819  135.0450  160.0489 H   0  0  0  0  0  0  0  0  0  0  0  0  # atno 6907 bound_to 6896
  152.2506  133.5207  159.5331 H   0  0  0  0  0  0  0  0  0  0  0  0  # atno 6908 bound_to 6896
  150.7082  134.0882  159.3964 H   0  0  0  0  0  0  0  0  0  0  0  0  # atno 6909 bound_to 6896
  145.5763  140.9457  143.1368 H   0  0  0  0  0  0  0  0  0  0  0  0  # atno 7974 bound_to 7965
  154.4011  140.1359  156.4091 H   0  0  0  0  0  0  0  0  0  0  0  0  # atno 8008 bound_to 7997
  155.7751  140.3483  155.5247 H   0  0  0  0  0  0  0  0  0  0  0  0  # atno 8009 bound_to 7997
  155.8729  140.0975  157.1528 H   0  0  0  0  0  0  0  0  0  0  0  0  # atno 8010 bound_to 7997
  140.3766  143.2769  151.9436 H   0  0  0  0  0  0  0  0  0  0  0  0  # atno 10167 bound_to 10162
  157.4939  131.1091  150.9519 H   0  0  0  0  0  0  0  0  0  0  0  0  # atno 10718 bound_to 10713
  152.9875  135.6121  154.3007 H   0  0  0  0  0  0  0  0  0  0  0  0  # atno 10763 bound_to 10752
  154.2727  135.2779  155.2733 H   0  0  0  0  0  0  0  0  0  0  0  0  # atno 10764 bound_to 10752
  154.5107  135.5841  153.6660 H   0  0  0  0  0  0  0  0  0  0  0  0  # atno 10765 bound_to 10752
  140.6902  134.4050  157.5220 H   0  0  0  0  0  0  0  0  0  0  0  0  # atno 11005 bound_to 11000
  144.7414  139.7437  143.7309 LP  0  0  0  0  0  0  0  0  0  0  0  0  # atno 17320 bound_to 7965
  146.1749  139.4915  142.9904 LP  0  0  0  0  0  0  0  0  0  0  0  0  # atno 17321 bound_to 7965
  139.4799  144.5858  151.7856 LP  0  0  0  0  0  0  0  0  0  0  0  0  # atno 17342 bound_to 10162
  140.4980  144.1211  150.5964 LP  0  0  0  0  0  0  0  0  0  0  0  0  # atno 17343 bound_to 10162
  157.0212  130.5674  149.5331 LP  0  0  0  0  0  0  0  0  0  0  0  0  # atno 17370 bound_to 10713
  156.0189  130.5284  150.8218 LP  0  0  0  0  0  0  0  0  0  0  0  0  # atno 17371 bound_to 10713
  139.8926  134.8752  156.2264 LP  0  0  0  0  0  0  0  0  0  0  0  0  # atno 17394 bound_to 11000
  141.0248  133.7021  156.1328 LP  0  0  0  0  0  0  0  0  0  0  0  0  # atno 17395 bound_to 11000

$$$$
