AV-unprocessed.smi:3028|AV-procd|sdf|11518|dock7
  -GOLD-   2272016453D 1   1.00000     0.00000
 Structure written by MMmdl.
 48 49  0  0  0  0  0  0  0  0  2 V2000
  145.4499  129.9986  151.7978 C   0  0  0  0  0  0  0  0  0  0  0  0
  145.1307  131.4120  151.4049 C   0  0  0  0  0  0  0  0  0  0  0  0
  144.0151  131.8819  150.6559 C   0  0  0  0  0  0  0  0  0  0  0  0
  144.0282  133.1934  150.4851 N   0  0  0  0  0  0  0  0  0  0  0  0
  145.1491  133.6089  151.1159 N   0  0  0  0  0  0  0  0  0  0  0  0
  145.4924  135.0262  151.1512 C   0  0  1  0  0  0  0  0  0  0  0  0
  144.6400  135.7954  150.1241 C   0  0  0  0  0  0  0  0  0  0  0  0
  145.3851  135.5988  152.5905 C   0  0  2  0  0  0  0  0  0  0  0  0
  144.0267  136.2619  152.8722 C   0  0  0  0  0  0  0  0  0  0  0  0
  146.4557  136.5948  152.8270 N   0  3  0  0  0  0  0  0  0  0  0  0
  146.1665  137.9548  152.3253 C   0  0  0  0  0  0  0  0  0  0  0  0
  147.1415  138.9998  152.8824 C   0  0  0  0  0  0  0  0  0  0  0  0
  146.8041  140.1808  152.9491 O   0  0  0  0  0  0  0  0  0  0  0  0
  148.3606  138.6108  153.2922 N   0  0  0  0  0  0  0  0  0  0  0  0
  149.4327  139.4347  153.8498 C   0  0  0  0  0  0  0  0  0  0  0  0
  150.5103  138.5375  154.4772 C   0  0  0  0  0  0  0  0  0  0  0  0
  151.5532  139.3839  155.2255 C   0  0  0  0  0  0  0  0  0  0  0  0
  150.9121  140.1906  156.2075 O   0  0  0  0  0  0  0  0  0  0  0  0
  149.9942  141.1232  155.6468 C   0  0  0  0  0  0  0  0  0  0  0  0
  148.8628  140.3770  154.9208 C   0  0  0  0  0  0  0  0  0  0  0  0
  145.8353  132.5507  151.6746 C   0  0  0  0  0  0  0  0  0  0  0  0
  144.6679  129.3045  151.4893 H   0  0  0  0  0  0  0  0  0  0  0  0
  145.5612  129.8970  152.8775 H   0  0  0  0  0  0  0  0  0  0  0  0
  146.3801  129.6562  151.3444 H   0  0  0  0  0  0  0  0  0  0  0  0
  143.1993  131.3123  150.2356 H   0  0  0  0  0  0  0  0  0  0  0  0
  146.5334  135.1060  150.8337 H   0  0  0  0  0  0  0  0  0  0  0  0
  144.9861  136.8211  149.9994 H   0  0  0  0  0  0  0  0  0  0  0  0
  143.5909  135.8302  150.4197 H   0  0  0  0  0  0  0  0  0  0  0  0
  144.6916  135.3221  149.1428 H   0  0  0  0  0  0  0  0  0  0  0  0
  145.4992  134.7770  153.2999 H   0  0  0  0  0  0  0  0  0  0  0  0
  143.2089  135.5433  152.8256 H   0  0  0  0  0  0  0  0  0  0  0  0
  143.8153  137.0582  152.1577 H   0  0  0  0  0  0  0  0  0  0  0  0
  144.0068  136.6985  153.8714 H   0  0  0  0  0  0  0  0  0  0  0  0
  146.6147  136.6583  153.8225 H   0  0  0  0  0  0  0  0  0  0  0  0
  146.2198  137.9516  151.2358 H   0  0  0  0  0  0  0  0  0  0  0  0
  145.1517  138.2310  152.6122 H   0  0  0  0  0  0  0  0  0  0  0  0
  148.5687  137.6257  153.2094 H   0  0  0  0  0  0  0  0  0  0  0  0
  149.9119  140.0469  153.0865 H   0  0  0  0  0  0  0  0  0  0  0  0
  150.0513  137.8370  155.1766 H   0  0  0  0  0  0  0  0  0  0  0  0
  150.9981  137.9374  153.7081 H   0  0  0  0  0  0  0  0  0  0  0  0
  152.2759  138.7352  155.7204 H   0  0  0  0  0  0  0  0  0  0  0  0
  152.1134  140.0130  154.5321 H   0  0  0  0  0  0  0  0  0  0  0  0
  149.5834  141.7369  156.4486 H   0  0  0  0  0  0  0  0  0  0  0  0
  150.5152  141.7975  154.9654 H   0  0  0  0  0  0  0  0  0  0  0  0
  148.1736  141.0916  154.4691 H   0  0  0  0  0  0  0  0  0  0  0  0
  148.2869  139.8064  155.6512 H   0  0  0  0  0  0  0  0  0  0  0  0
  146.7582  132.6930  152.2176 H   0  0  0  0  0  0  0  0  0  0  0  0
  147.3065  136.2689  152.3911 H   0  0  0  0  0  0  0  0  0  0  0  0
  1  2  1  0  0  0  0
  1 22  1  0  0  0  0
  1 23  1  0  0  0  0
  1 24  1  0  0  0  0
  2 21  2  0  0  0  0
  2  3  1  0  0  0  0
  3  4  2  0  0  0  0
  3 25  1  0  0  0  0
  4  5  1  0  0  0  0
  5  6  1  0  0  0  0
  5 21  1  0  0  0  0
  6  7  1  0  0  0  0
  6  8  1  0  0  0  0
  6 26  1  0  0  0  0
  7 27  1  0  0  0  0
  7 28  1  0  0  0  0
  7 29  1  0  0  0  0
  8  9  1  0  0  0  0
  8 10  1  0  0  0  0
  8 30  1  0  0  0  0
  9 31  1  0  0  0  0
  9 32  1  0  0  0  0
  9 33  1  0  0  0  0
 10 11  1  0  0  0  0
 10 34  1  0  0  0  0
 10 48  1  0  0  0  0
 11 12  1  0  0  0  0
 11 35  1  0  0  0  0
 11 36  1  0  0  0  0
 12 13  2  0  0  0  0
 12 14  1  0  0  0  0
 14 15  1  0  0  0  0
 14 37  1  0  0  0  0
 15 20  1  0  0  0  0
 15 16  1  0  0  0  0
 15 38  1  0  0  0  0
 16 17  1  0  0  0  0
 16 39  1  0  0  0  0
 16 40  1  0  0  0  0
 17 18  1  0  0  0  0
 17 41  1  0  0  0  0
 17 42  1  0  0  0  0
 18 19  1  0  0  0  0
 19 20  1  0  0  0  0
 19 43  1  0  0  0  0
 19 44  1  0  0  0  0
 20 45  1  0  0  0  0
 20 46  1  0  0  0  0
 21 47  1  0  0  0  0
M  CHG  1  10   1
M  END
> <s_m_source_file>
AV-unprocessed.smi

> <i_m_source_file_index>
3028

> <i_lp_mmshare_version>
43012

> <i_f3d_flags>
0

> <s_epik_input>
W0NIM11jMVtjSF1ubihbY0hdMSlbQ0BIXShbQ0gzXSlbQ0BIXShbQ0gzXSlbTkhdW0NIMl1DKD1PKVtOSF1bQ0hdMltDSDJdW0NIMl1PW0NIMl1bQ0gyXTI=

> <s_epik_cmdline>
J2VwaWtfcHl0aG9uJywgJy1waCcsICc3LjAnLCAnLXRuJywgJzgnLCAnLW1hJywgJzIwMCcsICctbWV0YWxfYmluZGluZycsICctaW1hZScsICc8aW5maWxlLm1hZT4nLCAnLW9tYWUnLCAnPG91dGZpbGUubWFlPic=

> <r_lp_tautomer_probability>
1

> <r_epik_Ionization_Penalty>
0.151514

> <r_epik_Ionization_Penalty_Charging>
0.151494

> <r_epik_Ionization_Penalty_Neutral>
1.95502e-05

> <r_epik_State_Penalty>
0.141395

> <r_epik_Charging_Adjusted_Penalty>
0.292889

> <i_epik_Tot_Q>
1

> <i_epik_Tot_abs_Q>
1

> <r_epik_Metal_State_Penalty>
0.141632

> <b_epik_Metal_Only>
0

> <s_lp_Force_Field>
OPLS_2005

> <r_lp_Energy>
16.7547

> <b_lp_Chiralities_Consistent>
1

> <s_lp_Variant>
AV-unprocessed.smi:3028-2

> <Gold.Version>
5.8.1

> <Gold.Id.Protein>
6NUR|6NUR_protein|mol2

> <Gold.PLP.Fitness>
47.0177

> <Gold.PLP.PLP>
-38.9911

> <Gold.PLP.part.hbond>
-3.0000

> <Gold.PLP.part.metal>
0.0000

> <Gold.PLP.part.buried>
1.1821

> <Gold.PLP.part.nonpolar>
-37.8257

> <Gold.PLP.part.repulsive>
0.5074

> <Gold.PLP.ligand.clash>
0.0000

> <Gold.PLP.ligand.torsion>
1.8534

> <Gold.PLP.Chemscore.Hbond>
2.8800

> <Gold.PLP.Chemscore.CHOScore>
0.9866

> <Gold.PLP.Chemscore.Metal>
0.0000

> <Gold.Chemscore.Hbonds>
donor molecule, donor type, donor heavy atom, donor atom, acceptor molecule, acceptor atom, score
      L1  H    10    48       P1  7948  2.00
      L1  H    14    37       P1  7948  0.82
      L1  C     3    25       P1 10952  0.69

> <Gold.PLP.Chemscore.Internal.Correction>
0.1336

> <Gold.Rescore>
     Score         DG    S(hbond)    S(metal)    S(lipo)     H(rot)  DE(clash)    DE(int)     intcor
     13.38     -18.44       1.88        0.00     100.64       1.99       1.85       3.22       ----

> <Gold.Chemscore.Fitness>
13.3789

> <Gold.Chemscore.DG>
-18.4412

> <Gold.Chemscore.ZeroCoef>
-5.4800

> <Gold.Chemscore.Hbond>
1.8803

> <Gold.Chemscore.Metal>
0.0000

> <Gold.Chemscore.Lipo>
100.6364

> <Gold.Chemscore.Internal_Hbond>
0.0000

> <Gold.Chemscore.DEClash>
1.8454

> <Gold.Chemscore.DEInternal>
3.2169

> <Gold.Chemscore.Rot>
1.9897

> <Gold.Chemscore.Internal.Correction>
   9.000000E+99

> <Gold.Chemscore.Hbonds>
donor molecule, donor type, donor heavy atom, donor atom, acceptor molecule, acceptor atom, score
      L1  H    10    48       P1  7948  1.00
      L1  H    14    37       P1  7948  0.80

> <Gold.Chemscore.Hbond.Weighted>
-6.2803

> <Gold.Chemscore.Metal.Weighted>
-0.0000

> <Gold.Chemscore.Lipo.Weighted>
-11.7745

> <Gold.Chemscore.Internal_Hbond.Weighted>
0.0000

> <Gold.Chemscore.DEClash.Weighted>
1.8454

> <Gold.Chemscore.DEInternal.Weighted>
3.2169

> <Gold.Chemscore.Rot.Weighted>
5.0936

> <Gold.Chemscore.Internal.Correction.Weighted>
   9.000000E+99

> <Gold.Protein.RotatedTorsions>
[ 6907 6896 6895 6894 ] final -117.98 input  -60.11 | X-H torsion
[ 7974 7965 7964 7962 ] final  130.71 input  175.53 | X-H torsion
[ 8008 7997 7996 7995 ] final   80.58 input   59.86 | X-H torsion
[ 10167 10162 10161 10158 ] final  168.41 input  -65.29 | X-H torsion
[ 10718 10713 10712 10709 ] final  128.19 input   66.30 | X-H torsion
[ 10763 10752 10751 10750 ] final   34.08 input  -60.55 | X-H torsion
[ 11005 11000 10999 10996 ] final  175.39 input  -57.11 | X-H torsion

> <Gold.Protein.ActiveResidues>
 VAL166  LYS551  ARG553  GLY616  TRP617  ASP618  TYR619  PRO620  LYS621  CYS622 
 ASP623  PHE694  ASN695  SER759  ASP760  ASP761  ALA762  ILE779  LEU786  VAL792 
 PHE793  MET794  SER795  GLU796  ALA797  LYS798  CYS799  TRP800  GLU811  SER814 

> <Gold.Protein.RotatedAtoms>
  150.8182  133.8300  159.3150 H   0  0  0  0  0  0  0  0  0  0  0  0  # atno 6907 bound_to 6896
  151.6066  135.1041  160.0081 H   0  0  0  0  0  0  0  0  0  0  0  0  # atno 6908 bound_to 6896
  152.4272  133.7175  159.6570 H   0  0  0  0  0  0  0  0  0  0  0  0  # atno 6909 bound_to 6896
  145.0150  139.4184  143.5226 H   0  0  0  0  0  0  0  0  0  0  0  0  # atno 7974 bound_to 7965
  155.8854  140.3442  155.5918 H   0  0  0  0  0  0  0  0  0  0  0  0  # atno 8008 bound_to 7997
  155.7671  140.0840  157.2145 H   0  0  0  0  0  0  0  0  0  0  0  0  # atno 8009 bound_to 7997
  154.4028  140.1525  156.2887 H   0  0  0  0  0  0  0  0  0  0  0  0  # atno 8010 bound_to 7997
  139.4967  144.3817  151.9615 H   0  0  0  0  0  0  0  0  0  0  0  0  # atno 10167 bound_to 10162
  157.5266  131.1098  150.9073 H   0  0  0  0  0  0  0  0  0  0  0  0  # atno 10718 bound_to 10713
  153.0181  135.6370  154.1613 H   0  0  0  0  0  0  0  0  0  0  0  0  # atno 10763 bound_to 10752
  154.1350  135.2838  155.3177 H   0  0  0  0  0  0  0  0  0  0  0  0  # atno 10764 bound_to 10752
  154.6167  135.5538  153.7592 H   0  0  0  0  0  0  0  0  0  0  0  0  # atno 10765 bound_to 10752
  140.3617  134.7107  157.4335 H   0  0  0  0  0  0  0  0  0  0  0  0  # atno 11005 bound_to 11000
  146.3476  139.9616  142.8716 LP  0  0  0  0  0  0  0  0  0  0  0  0  # atno 17320 bound_to 7965
  145.1971  140.9838  143.4177 LP  0  0  0  0  0  0  0  0  0  0  0  0  # atno 17321 bound_to 7965
  140.3254  144.3379  150.5999 LP  0  0  0  0  0  0  0  0  0  0  0  0  # atno 17342 bound_to 10162
  140.5689  143.2183  151.7634 LP  0  0  0  0  0  0  0  0  0  0  0  0  # atno 17343 bound_to 10162
  156.9667  130.5475  149.5288 LP  0  0  0  0  0  0  0  0  0  0  0  0  # atno 17370 bound_to 10713
  156.0392  130.5476  150.8728 LP  0  0  0  0  0  0  0  0  0  0  0  0  # atno 17371 bound_to 10713
  140.0621  134.5980  155.8736 LP  0  0  0  0  0  0  0  0  0  0  0  0  # atno 17394 bound_to 11000
  141.1982  133.6600  156.5780 LP  0  0  0  0  0  0  0  0  0  0  0  0  # atno 17395 bound_to 11000

$$$$
