AV-unprocessed.smi:33|AV-procd|sdf|213|dock7
  -GOLD-   2262015523D 1   1.00000     0.00000
 Structure written by MMmdl.
 67 72  0  0  0  0  0  0  0  0  1 V2000
  153.0677  139.8111  158.3690 O   0  0  0  0  0  0  0  0  0  0  0  0
  152.5325  140.9210  158.4103 C   0  0  0  0  0  0  0  0  0  0  0  0
  151.8592  141.4660  157.3776 O   0  0  0  0  0  0  0  0  0  0  0  0
  151.4259  140.6549  156.2973 C   0  0  0  0  0  0  0  0  0  0  0  0
  149.8973  140.7437  156.1833 C   0  0  2  0  0  0  0  0  0  0  0  0
  149.3305  139.4983  156.5979 O   0  0  0  0  0  0  0  0  0  0  0  0
  148.7028  138.8546  155.5312 C   0  0  2  0  0  0  0  0  0  0  0  0
  149.0214  137.3908  155.5540 N   0  0  0  0  0  0  0  0  0  0  0  0
  150.2686  136.8173  155.6662 C   0  0  0  0  0  0  0  0  0  0  0  0
  150.2885  135.5121  155.6781 N   0  0  0  0  0  0  0  0  0  0  0  0
  148.9512  135.1566  155.5638 C   0  0  0  0  0  0  0  0  0  0  0  0
  148.2605  133.9153  155.5178 C   0  0  0  0  0  0  0  0  0  0  0  0
  148.8913  132.7199  155.5996 N   0  0  0  0  0  0  0  0  0  0  0  0
  148.3554  131.6249  154.7776 C   0  0  0  0  0  0  0  0  0  0  0  0
  148.5481  130.4567  155.1200 O   0  0  0  0  0  0  0  0  0  0  0  0
  147.5397  131.9214  153.5510 C   0  0  0  0  0  0  0  0  0  0  0  0
  146.4407  131.1000  153.2169 C   0  0  0  0  0  0  0  0  0  0  0  0
  145.6823  131.3647  152.0600 C   0  0  0  0  0  0  0  0  0  0  0  0
  146.0298  132.4394  151.2197 C   0  0  0  0  0  0  0  0  0  0  0  0
  147.1418  133.2444  151.5313 C   0  0  0  0  0  0  0  0  0  0  0  0
  147.8995  132.9818  152.6889 C   0  0  0  0  0  0  0  0  0  0  0  0
  150.0523  132.6284  156.4972 C   0  0  0  0  0  0  0  0  0  0  0  0
  150.1468  133.4058  157.4489 O   0  0  0  0  0  0  0  0  0  0  0  0
  151.0895  131.5592  156.2981 C   0  0  0  0  0  0  0  0  0  0  0  0
  151.9364  131.1897  157.3659 C   0  0  0  0  0  0  0  0  0  0  0  0
  152.9198  130.1982  157.1822 C   0  0  0  0  0  0  0  0  0  0  0  0
  153.0743  129.5827  155.9256 C   0  0  0  0  0  0  0  0  0  0  0  0
  152.2517  129.9660  154.8495 C   0  0  0  0  0  0  0  0  0  0  0  0
  151.2688  130.9578  155.0318 C   0  0  0  0  0  0  0  0  0  0  0  0
  146.9084  133.9412  155.3920 N   0  0  0  0  0  0  0  0  0  0  0  0
  146.2722  135.1135  155.3196 C   0  0  0  0  0  0  0  0  0  0  0  0
  146.7866  136.3443  155.3550 N   0  0  0  0  0  0  0  0  0  0  0  0
  148.1451  136.3251  155.4783 C   0  0  0  0  0  0  0  0  0  0  0  0
  149.1552  139.5448  154.2389 C   0  0  2  0  0  0  0  0  0  0  0  0
  150.3013  138.9666  153.6401 O   0  0  0  0  0  0  0  0  0  0  0  0
  149.4319  140.9504  154.7367 C   0  0  1  0  0  0  0  0  0  0  0  0
  148.2951  141.6491  154.7322 F   0  0  0  0  0  0  0  0  0  0  0  0
  152.5571  141.8002  159.6145 C   0  0  0  0  0  0  0  0  0  0  0  0
  151.8748  143.0390  159.5823 C   0  0  0  0  0  0  0  0  0  0  0  0
  151.8785  143.8895  160.7049 C   0  0  0  0  0  0  0  0  0  0  0  0
  152.5651  143.5117  161.8737 C   0  0  0  0  0  0  0  0  0  0  0  0
  153.2494  142.2831  161.9178 C   0  0  0  0  0  0  0  0  0  0  0  0
  153.2474  141.4316  160.7958 C   0  0  0  0  0  0  0  0  0  0  0  0
  151.8936  141.0180  155.3818 H   0  0  0  0  0  0  0  0  0  0  0  0
  151.7364  139.6182  156.4283 H   0  0  0  0  0  0  0  0  0  0  0  0
  149.5332  141.5508  156.8204 H   0  0  0  0  0  0  0  0  0  0  0  0
  147.6229  138.9084  155.6763 H   0  0  0  0  0  0  0  0  0  0  0  0
  151.1721  137.4044  155.7457 H   0  0  0  0  0  0  0  0  0  0  0  0
  146.1650  130.2721  153.8542 H   0  0  0  0  0  0  0  0  0  0  0  0
  144.8342  130.7419  151.8167 H   0  0  0  0  0  0  0  0  0  0  0  0
  145.4479  132.6418  150.3325 H   0  0  0  0  0  0  0  0  0  0  0  0
  147.4153  134.0630  150.8819 H   0  0  0  0  0  0  0  0  0  0  0  0
  148.7536  133.6036  152.9157 H   0  0  0  0  0  0  0  0  0  0  0  0
  151.8261  131.6548  158.3349 H   0  0  0  0  0  0  0  0  0  0  0  0
  153.5561  129.9107  158.0061 H   0  0  0  0  0  0  0  0  0  0  0  0
  153.8282  128.8224  155.7853 H   0  0  0  0  0  0  0  0  0  0  0  0
  152.3755  129.5001  153.8832 H   0  0  0  0  0  0  0  0  0  0  0  0
  150.6477  131.2478  154.1966 H   0  0  0  0  0  0  0  0  0  0  0  0
  145.1979  135.0594  155.2213 H   0  0  0  0  0  0  0  0  0  0  0  0
  148.3456  139.5177  153.5087 H   0  0  0  0  0  0  0  0  0  0  0  0
  150.2056  139.0161  152.7010 H   0  0  0  0  0  0  0  0  0  0  0  0
  150.1421  141.5033  154.1203 H   0  0  0  0  0  0  0  0  0  0  0  0
  151.3415  143.3505  158.6957 H   0  0  0  0  0  0  0  0  0  0  0  0
  151.3539  144.8326  160.6685 H   0  0  0  0  0  0  0  0  0  0  0  0
  152.5674  144.1638  162.7347 H   0  0  0  0  0  0  0  0  0  0  0  0
  153.7775  141.9922  162.8140 H   0  0  0  0  0  0  0  0  0  0  0  0
  153.7837  140.4962  160.8629 H   0  0  0  0  0  0  0  0  0  0  0  0
  1  2  2  0  0  0  0
  2  3  1  0  0  0  0
  2 38  1  0  0  0  0
  3  4  1  0  0  0  0
  4  5  1  0  0  0  0
  4 44  1  0  0  0  0
  4 45  1  0  0  0  0
  5 36  1  0  0  0  0
  5  6  1  0  0  0  0
  5 46  1  0  0  0  0
  6  7  1  0  0  0  0
  7  8  1  0  0  0  0
  7 34  1  0  0  0  0
  7 47  1  0  0  0  0
  8 33  1  0  0  0  0
  8  9  1  0  0  0  0
  9 10  2  0  0  0  0
  9 48  1  0  0  0  0
 10 11  1  0  0  0  0
 11 33  2  0  0  0  0
 11 12  1  0  0  0  0
 12 13  1  0  0  0  0
 12 30  2  0  0  0  0
 13 14  1  0  0  0  0
 13 22  1  0  0  0  0
 14 15  2  0  0  0  0
 14 16  1  0  0  0  0
 16 21  1  0  0  0  0
 16 17  2  0  0  0  0
 17 18  1  0  0  0  0
 17 49  1  0  0  0  0
 18 19  2  0  0  0  0
 18 50  1  0  0  0  0
 19 20  1  0  0  0  0
 19 51  1  0  0  0  0
 20 21  2  0  0  0  0
 20 52  1  0  0  0  0
 21 53  1  0  0  0  0
 22 23  2  0  0  0  0
 22 24  1  0  0  0  0
 24 29  1  0  0  0  0
 24 25  2  0  0  0  0
 25 26  1  0  0  0  0
 25 54  1  0  0  0  0
 26 27  2  0  0  0  0
 26 55  1  0  0  0  0
 27 28  1  0  0  0  0
 27 56  1  0  0  0  0
 28 29  2  0  0  0  0
 28 57  1  0  0  0  0
 29 58  1  0  0  0  0
 30 31  1  0  0  0  0
 31 32  2  0  0  0  0
 31 59  1  0  0  0  0
 32 33  1  0  0  0  0
 34 35  1  0  0  0  0
 34 36  1  0  0  0  0
 34 60  1  0  0  0  0
 35 61  1  0  0  0  0
 36 37  1  0  0  0  0
 36 62  1  0  0  0  0
 38 43  1  0  0  0  0
 38 39  2  0  0  0  0
 39 40  1  0  0  0  0
 39 63  1  0  0  0  0
 40 41  2  0  0  0  0
 40 64  1  0  0  0  0
 41 42  1  0  0  0  0
 41 65  1  0  0  0  0
 42 43  2  0  0  0  0
 42 66  1  0  0  0  0
 43 67  1  0  0  0  0
M  END
> <s_m_source_file>
AV-unprocessed.smi

> <i_m_source_file_index>
33

> <i_lp_mmshare_version>
43012

> <i_f3d_flags>
0

> <s_epik_input>
W2NIXTFbY0hdW2NIXVtjSF1bY0hdYzFDKD1PKU9bQ0gyXVtDQEBIXTJPW0NASF0oW0NAQEhdKFtPSF0pW0NAQEhdMkYpbihbY0hdbjMpYyhjMzQpbltjSF1uYzROKEMoPU8pYzVbY0hdW2NIXVtjSF1bY0hdW2NIXTUpQyg9TyljNltjSF1bY0hdW2NIXVtjSF1bY0hdNg==

> <s_epik_cmdline>
J2VwaWtfcHl0aG9uJywgJy1waCcsICc3LjAnLCAnLXRuJywgJzgnLCAnLW1hJywgJzIwMCcsICctbWV0YWxfYmluZGluZycsICctaW1hZScsICc8aW5maWxlLm1hZT4nLCAnLW9tYWUnLCAnPG91dGZpbGUubWFlPic=

> <r_lp_tautomer_probability>
1

> <r_epik_Ionization_Penalty>
0.00067664

> <r_epik_Ionization_Penalty_Charging>
0

> <r_epik_Ionization_Penalty_Neutral>
0.00067664

> <r_epik_State_Penalty>
0.000428095

> <r_epik_Charging_Adjusted_Penalty>
0.000428095

> <i_epik_Tot_Q>
0

> <i_epik_Tot_abs_Q>
0

> <r_epik_Metal_State_Penalty>
-0

> <b_epik_Metal_Only>
0

> <s_epik_Chemistry_Notes>
This compound has an ester and may undergo hydrolysis at high or low pH. This compound contains an acetal/aminal-like group ( X-CH(R)-Y where X, Y are N, S, or O) that may be acid/base labile, releasing an aldehyde.

> <s_lp_Force_Field>
OPLS_2005

> <r_lp_Energy>
74.9187

> <b_lp_Chiralities_Consistent>
1

> <s_lp_Variant>
AV-unprocessed.smi:33-15

> <Gold.Version>
5.8.1

> <Gold.Id.Protein>
6NUR|6NUR_protein|mol2

> <Gold.PLP.Fitness>
68.1659

> <Gold.PLP.PLP>
-62.0582

> <Gold.PLP.part.hbond>
-3.4457

> <Gold.PLP.part.metal>
0.0000

> <Gold.PLP.part.buried>
-4.8067

> <Gold.PLP.part.nonpolar>
-53.5818

> <Gold.PLP.part.repulsive>
0.1719

> <Gold.PLP.ligand.clash>
1.5390

> <Gold.PLP.ligand.torsion>
3.2361

> <Gold.PLP.Chemscore.Hbond>
3.0854

> <Gold.PLP.Chemscore.CHOScore>
0.0000

> <Gold.PLP.Chemscore.Metal>
0.0000

> <Gold.Chemscore.Hbonds>
donor molecule, donor type, donor heavy atom, donor atom, acceptor molecule, acceptor atom, score
      L1  H    35    61       P1  7957  0.98
      P1  H  6896  6907       L1    23  0.99
      P1  H  7989  7998       L1    35  0.08
      P1  H  7997  8008       L1     1  0.93

> <Gold.PLP.Chemscore.Internal.Correction>
4.8628

> <Gold.Rescore>
     Score         DG    S(hbond)    S(metal)    S(lipo)     H(rot)  DE(clash)    DE(int)     intcor
     13.63     -26.33       2.72        0.00     155.90       2.52       0.35      12.35       ----

> <Gold.Chemscore.Fitness>
13.6255

> <Gold.Chemscore.DG>
-26.3270

> <Gold.Chemscore.ZeroCoef>
-5.4800

> <Gold.Chemscore.Hbond>
2.7157

> <Gold.Chemscore.Metal>
0.0000

> <Gold.Chemscore.Lipo>
155.8955

> <Gold.Chemscore.Internal_Hbond>
0.0000

> <Gold.Chemscore.DEClash>
0.3485

> <Gold.Chemscore.DEInternal>
12.3530

> <Gold.Chemscore.Rot>
2.5247

> <Gold.Chemscore.Internal.Correction>
   9.000000E+99

> <Gold.Chemscore.Hbonds>
donor molecule, donor type, donor heavy atom, donor atom, acceptor molecule, acceptor atom, score
      L1  H    35    61       P1  7957  0.51
      P1  H  6896  6907       L1    23  0.91
      P1  H  7997  8008       L1     1  0.30

> <Gold.Chemscore.Hbond.Weighted>
-9.0705

> <Gold.Chemscore.Metal.Weighted>
-0.0000

> <Gold.Chemscore.Lipo.Weighted>
-18.2398

> <Gold.Chemscore.Internal_Hbond.Weighted>
0.0000

> <Gold.Chemscore.DEClash.Weighted>
0.3485

> <Gold.Chemscore.DEInternal.Weighted>
12.3530

> <Gold.Chemscore.Rot.Weighted>
6.4633

> <Gold.Chemscore.Internal.Correction.Weighted>
   9.000000E+99

> <Gold.Protein.RotatedTorsions>
[ 6907 6896 6895 6894 ] final -142.49 input  -60.11 | X-H torsion
[ 7974 7965 7964 7962 ] final  -96.41 input  175.53 | X-H torsion
[ 8008 7997 7996 7995 ] final  -75.18 input   59.86 | X-H torsion
[ 10167 10162 10161 10158 ] final   -7.45 input  -65.29 | X-H torsion
[ 10718 10713 10712 10709 ] final -131.29 input   66.30 | X-H torsion
[ 10763 10752 10751 10750 ] final  -74.72 input  -60.55 | X-H torsion
[ 11005 11000 10999 10996 ] final  -68.90 input  -57.11 | X-H torsion

> <Gold.Protein.ActiveResidues>
 VAL166  LYS551  ARG553  GLY616  TRP617  ASP618  TYR619  PRO620  LYS621  CYS622 
 ASP623  PHE694  ASN695  SER759  ASP760  ASP761  ALA762  ILE779  LEU786  VAL792 
 PHE793  MET794  SER795  GLU796  ALA797  LYS798  CYS799  TRP800  GLU811  SER814 

> <Gold.Protein.RotatedAtoms>
  151.0877  133.5340  159.2616 H   0  0  0  0  0  0  0  0  0  0  0  0  # atno 6907 bound_to 6896
  151.2219  135.0521  159.8963 H   0  0  0  0  0  0  0  0  0  0  0  0  # atno 6908 bound_to 6896
  152.5431  134.0678  159.8234 H   0  0  0  0  0  0  0  0  0  0  0  0  # atno 6909 bound_to 6896
  145.3472  140.9470  143.2574 H   0  0  0  0  0  0  0  0  0  0  0  0  # atno 7974 bound_to 7965
  154.5394  140.0748  156.8484 H   0  0  0  0  0  0  0  0  0  0  0  0  # atno 8008 bound_to 7997
  155.3211  140.3396  155.4223 H   0  0  0  0  0  0  0  0  0  0  0  0  # atno 8009 bound_to 7997
  156.1860  140.1669  156.8170 H   0  0  0  0  0  0  0  0  0  0  0  0  # atno 8010 bound_to 7997
  140.7029  143.6079  150.8733 H   0  0  0  0  0  0  0  0  0  0  0  0  # atno 10167 bound_to 10162
  156.2229  130.6990  151.0776 H   0  0  0  0  0  0  0  0  0  0  0  0  # atno 10718 bound_to 10713
  154.4768  135.5855  153.6361 H   0  0  0  0  0  0  0  0  0  0  0  0  # atno 10763 bound_to 10752
  152.9842  135.6080  154.3296 H   0  0  0  0  0  0  0  0  0  0  0  0  # atno 10764 bound_to 10752
  154.3184  135.2844  155.2511 H   0  0  0  0  0  0  0  0  0  0  0  0  # atno 10765 bound_to 10752
  141.1542  133.6751  156.6517 H   0  0  0  0  0  0  0  0  0  0  0  0  # atno 11005 bound_to 11000
  144.8745  139.4991  143.6752 LP  0  0  0  0  0  0  0  0  0  0  0  0  # atno 17320 bound_to 7965
  146.2983  139.7346  142.9110 LP  0  0  0  0  0  0  0  0  0  0  0  0  # atno 17321 bound_to 7965
  139.9802  143.5959  152.2945 LP  0  0  0  0  0  0  0  0  0  0  0  0  # atno 17342 bound_to 10162
  139.6577  144.7662  151.2022 LP  0  0  0  0  0  0  0  0  0  0  0  0  # atno 17343 bound_to 10162
  157.7096  131.0740  150.6546 LP  0  0  0  0  0  0  0  0  0  0  0  0  # atno 17370 bound_to 10713
  156.6610  130.4512  149.5688 LP  0  0  0  0  0  0  0  0  0  0  0  0  # atno 17371 bound_to 10713
  140.3315  134.7925  157.4330 LP  0  0  0  0  0  0  0  0  0  0  0  0  # atno 17394 bound_to 11000
  140.1013  134.5469  155.8350 LP  0  0  0  0  0  0  0  0  0  0  0  0  # atno 17395 bound_to 11000

$$$$
