AV-unprocessed.smi:1589|AV-procd|sdf|6393|dock5
  -GOLD-   22720 7 23D 1   1.00000     0.00000
 Structure written by MMmdl.
 44 45  0  0  0  0  0  0  0  0  2 V2000
  143.5043  132.3311  150.7966 C   0  0  0  0  0  0  0  0  0  0  0  0
  143.8603  133.5550  151.6670 C   0  0  0  0  0  0  0  0  0  0  0  0
  144.6510  134.5594  150.8032 C   0  0  0  0  0  0  0  0  0  0  0  0
  144.5967  133.1812  152.9182 N   0  3  0  0  0  0  0  0  0  0  0  0
  144.9519  134.3551  153.7741 C   0  0  0  0  0  0  0  0  0  0  0  0
  145.7607  133.9542  155.0212 C   0  0  0  0  0  0  0  0  0  0  0  0
  146.9489  133.2079  154.5949 N   0  0  0  0  0  0  0  0  0  0  0  0
  148.2183  133.6835  154.5272 C   0  0  0  0  0  0  0  0  0  0  0  0
  149.1354  133.0499  154.0047 O   0  0  0  0  0  0  0  0  0  0  0  0
  148.3933  134.8780  155.1236 N   0  0  0  0  0  0  0  0  0  0  0  0
  149.5801  135.6508  155.1809 C   0  0  0  0  0  0  0  0  0  0  0  0
  150.7963  135.3909  155.8737 C   0  0  0  0  0  0  0  0  0  0  0  0
  151.6745  136.3615  155.6722 N   0  0  0  0  0  0  0  0  0  0  0  0
  151.0466  137.2442  154.8556 N   0  0  0  0  0  0  0  0  0  0  0  0
  151.7408  138.4473  154.4254 C   0  0  0  0  0  0  0  0  0  0  0  0
  152.0391  139.3971  155.5917 C   0  0  0  0  0  0  0  0  0  0  0  0
  151.3787  140.5577  155.6049 N   0  0  0  0  0  0  0  0  0  0  0  0
  152.8452  139.0963  156.4707 O   0  0  0  0  0  0  0  0  0  0  0  0
  149.7631  136.8404  154.5425 C   0  0  0  0  0  0  0  0  0  0  0  0
  146.5490  131.9586  153.9485 C   0  0  0  0  0  0  0  0  0  0  0  0
  145.7685  132.2880  152.6634 C   0  0  0  0  0  0  0  0  0  0  0  0
  143.0666  132.6392  149.8466 H   0  0  0  0  0  0  0  0  0  0  0  0
  142.7650  131.6868  151.2723 H   0  0  0  0  0  0  0  0  0  0  0  0
  144.3870  131.7317  150.5709 H   0  0  0  0  0  0  0  0  0  0  0  0
  142.9238  134.0321  151.9604 H   0  0  0  0  0  0  0  0  0  0  0  0
  144.1512  134.7365  149.8503 H   0  0  0  0  0  0  0  0  0  0  0  0
  145.6538  134.1915  150.5831 H   0  0  0  0  0  0  0  0  0  0  0  0
  144.7425  135.5350  151.2799 H   0  0  0  0  0  0  0  0  0  0  0  0
  145.5208  135.0744  153.1826 H   0  0  0  0  0  0  0  0  0  0  0  0
  144.0515  134.8618  154.1182 H   0  0  0  0  0  0  0  0  0  0  0  0
  145.9844  134.8402  155.6154 H   0  0  0  0  0  0  0  0  0  0  0  0
  145.1541  133.3206  155.6700 H   0  0  0  0  0  0  0  0  0  0  0  0
  147.5793  135.2921  155.5535 H   0  0  0  0  0  0  0  0  0  0  0  0
  151.0751  134.5578  156.5014 H   0  0  0  0  0  0  0  0  0  0  0  0
  152.6695  138.1500  153.9363 H   0  0  0  0  0  0  0  0  0  0  0  0
  151.1375  138.9702  153.6817 H   0  0  0  0  0  0  0  0  0  0  0  0
  151.5382  141.2230  156.3474 H   0  0  0  0  0  0  0  0  0  0  0  0
  150.7221  140.7669  154.8666 H   0  0  0  0  0  0  0  0  0  0  0  0
  149.1128  137.4197  153.9036 H   0  0  0  0  0  0  0  0  0  0  0  0
  147.3992  131.3152  153.7164 H   0  0  0  0  0  0  0  0  0  0  0  0
  145.9241  131.3799  154.6305 H   0  0  0  0  0  0  0  0  0  0  0  0
  145.4433  131.3455  152.2255 H   0  0  0  0  0  0  0  0  0  0  0  0
  146.4350  132.7637  151.9420 H   0  0  0  0  0  0  0  0  0  0  0  0
  143.9523  132.6327  153.4693 H   0  0  0  0  0  0  0  0  0  0  0  0
  1  2  1  0  0  0  0
  1 22  1  0  0  0  0
  1 23  1  0  0  0  0
  1 24  1  0  0  0  0
  2  3  1  0  0  0  0
  2  4  1  0  0  0  0
  2 25  1  0  0  0  0
  3 26  1  0  0  0  0
  3 27  1  0  0  0  0
  3 28  1  0  0  0  0
  4 21  1  0  0  0  0
  4  5  1  0  0  0  0
  4 44  1  0  0  0  0
  5  6  1  0  0  0  0
  5 29  1  0  0  0  0
  5 30  1  0  0  0  0
  6  7  1  0  0  0  0
  6 31  1  0  0  0  0
  6 32  1  0  0  0  0
  7  8  1  0  0  0  0
  7 20  1  0  0  0  0
  8  9  2  0  0  0  0
  8 10  1  0  0  0  0
 10 11  1  0  0  0  0
 10 33  1  0  0  0  0
 11 19  2  0  0  0  0
 11 12  1  0  0  0  0
 12 13  2  0  0  0  0
 12 34  1  0  0  0  0
 13 14  1  0  0  0  0
 14 15  1  0  0  0  0
 14 19  1  0  0  0  0
 15 16  1  0  0  0  0
 15 35  1  0  0  0  0
 15 36  1  0  0  0  0
 16 17  1  0  0  0  0
 16 18  2  0  0  0  0
 17 37  1  0  0  0  0
 17 38  1  0  0  0  0
 19 39  1  0  0  0  0
 20 21  1  0  0  0  0
 20 40  1  0  0  0  0
 20 41  1  0  0  0  0
 21 42  1  0  0  0  0
 21 43  1  0  0  0  0
M  CHG  1   4   1
M  END
> <s_m_source_file>
AV-unprocessed.smi

> <i_m_source_file_index>
1589

> <i_lp_mmshare_version>
43012

> <i_f3d_flags>
0

> <s_epik_input>
W0NIM11bQ0hdKFtDSDNdKU4xW0NIMl1bQ0gyXU4oW0NIMl1bQ0gyXTEpQyg9TylbTkhdYzJbY0hdbm4oW2NIXTIpW0NIMl1DKD1PKVtOSDJd

> <s_epik_cmdline>
J2VwaWtfcHl0aG9uJywgJy1waCcsICc3LjAnLCAnLXRuJywgJzgnLCAnLW1hJywgJzIwMCcsICctbWV0YWxfYmluZGluZycsICctaW1hZScsICc8aW5maWxlLm1hZT4nLCAnLW9tYWUnLCAnPG91dGZpbGUubWFlPic=

> <r_lp_tautomer_probability>
1

> <r_epik_Ionization_Penalty>
0.241469

> <r_epik_Ionization_Penalty_Charging>
0.241445

> <r_epik_Ionization_Penalty_Neutral>
2.46507e-05

> <r_epik_State_Penalty>
0.232445

> <r_epik_Charging_Adjusted_Penalty>
0.47389

> <i_epik_Tot_Q>
1

> <i_epik_Tot_abs_Q>
1

> <r_epik_Metal_State_Penalty>
0.232446

> <b_epik_Metal_Only>
0

> <s_lp_Force_Field>
OPLS_2005

> <r_lp_Energy>
56.898

> <b_lp_Chiralities_Consistent>
1

> <s_lp_Variant>
AV-unprocessed.smi:1589-1

> <Gold.Version>
5.8.1

> <Gold.Id.Protein>
6NUR|6NUR_protein|mol2

> <Gold.PLP.Fitness>
41.1643

> <Gold.PLP.PLP>
-29.1348

> <Gold.PLP.part.hbond>
-2.9619

> <Gold.PLP.part.metal>
0.0000

> <Gold.PLP.part.buried>
-4.5867

> <Gold.PLP.part.nonpolar>
-22.6098

> <Gold.PLP.part.repulsive>
1.0582

> <Gold.PLP.ligand.clash>
0.0000

> <Gold.PLP.ligand.torsion>
0.8349

> <Gold.PLP.Chemscore.Hbond>
3.9825

> <Gold.PLP.Chemscore.CHOScore>
0.5429

> <Gold.PLP.Chemscore.Metal>
0.0000

> <Gold.Chemscore.Hbonds>
donor molecule, donor type, donor heavy atom, donor atom, acceptor molecule, acceptor atom, score
      L1  H     4    44       P1 10957  2.00
      P1  H  7997  8008       L1    18  1.00
      P1  H 10752 10763       L1    13  1.00
      L1  C    19    39       P1  7948  0.52

> <Gold.PLP.Chemscore.Internal.Correction>
0.1231

> <Gold.Rescore>
     Score         DG    S(hbond)    S(metal)    S(lipo)     H(rot)  DE(clash)    DE(int)     intcor
     14.30     -15.74       2.70        0.00      50.90       1.84       0.54       0.89       ----

> <Gold.Chemscore.Fitness>
14.3050

> <Gold.Chemscore.DG>
-15.7360

> <Gold.Chemscore.ZeroCoef>
-5.4800

> <Gold.Chemscore.Hbond>
2.6972

> <Gold.Chemscore.Metal>
0.0000

> <Gold.Chemscore.Lipo>
50.9016

> <Gold.Chemscore.Internal_Hbond>
0.0000

> <Gold.Chemscore.DEClash>
0.5407

> <Gold.Chemscore.DEInternal>
0.8903

> <Gold.Chemscore.Rot>
1.8392

> <Gold.Chemscore.Internal.Correction>
   9.000000E+99

> <Gold.Chemscore.Hbonds>
donor molecule, donor type, donor heavy atom, donor atom, acceptor molecule, acceptor atom, score
      L1  H     4    44       P1 10957  0.42
      P1  H  7997  8008       L1    18  0.96
      P1  H 10752 10763       L1    13  0.31

> <Gold.Chemscore.Hbond.Weighted>
-9.0088

> <Gold.Chemscore.Metal.Weighted>
-0.0000

> <Gold.Chemscore.Lipo.Weighted>
-5.9555

> <Gold.Chemscore.Internal_Hbond.Weighted>
0.0000

> <Gold.Chemscore.DEClash.Weighted>
0.5407

> <Gold.Chemscore.DEInternal.Weighted>
0.8903

> <Gold.Chemscore.Rot.Weighted>
4.7083

> <Gold.Chemscore.Internal.Correction.Weighted>
   9.000000E+99

> <Gold.Protein.RotatedTorsions>
[ 6907 6896 6895 6894 ] final  165.05 input  -60.11 | X-H torsion
[ 7974 7965 7964 7962 ] final  -69.85 input  175.53 | X-H torsion
[ 8008 7997 7996 7995 ] final  -57.83 input   59.86 | X-H torsion
[ 10167 10162 10161 10158 ] final  115.16 input  -65.29 | X-H torsion
[ 10718 10713 10712 10709 ] final  172.06 input   66.30 | X-H torsion
[ 10763 10752 10751 10750 ] final   73.53 input  -60.55 | X-H torsion
[ 11005 11000 10999 10996 ] final  112.17 input  -57.11 | X-H torsion

> <Gold.Protein.ActiveResidues>
 VAL166  LYS551  ARG553  GLY616  TRP617  ASP618  TYR619  PRO620  LYS621  CYS622 
 ASP623  PHE694  ASN695  SER759  ASP760  ASP761  ALA762  ILE779  LEU786  VAL792 
 PHE793  MET794  SER795  GLU796  ALA797  LYS798  CYS799  TRP800  GLU811  SER814 

> <Gold.Protein.RotatedAtoms>
  151.9003  133.3536  159.3828 H   0  0  0  0  0  0  0  0  0  0  0  0  # atno 6907 bound_to 6896
  150.7081  134.4834  159.5490 H   0  0  0  0  0  0  0  0  0  0  0  0  # atno 6908 bound_to 6896
  152.2422  134.8218  160.0509 H   0  0  0  0  0  0  0  0  0  0  0  0  # atno 6909 bound_to 6896
  145.6984  140.9126  143.0744 H   0  0  0  0  0  0  0  0  0  0  0  0  # atno 7974 bound_to 7965
  154.4284  140.1098  156.5860 H   0  0  0  0  0  0  0  0  0  0  0  0  # atno 8008 bound_to 7997
  155.6062  140.3494  155.4589 H   0  0  0  0  0  0  0  0  0  0  0  0  # atno 8009 bound_to 7997
  156.0135  140.1224  157.0419 H   0  0  0  0  0  0  0  0  0  0  0  0  # atno 8010 bound_to 7997
  139.6337  144.7117  151.2380 H   0  0  0  0  0  0  0  0  0  0  0  0  # atno 10167 bound_to 10162
  156.9845  131.0129  151.2873 H   0  0  0  0  0  0  0  0  0  0  0  0  # atno 10718 bound_to 10713
  153.0528  135.5059  154.7908 H   0  0  0  0  0  0  0  0  0  0  0  0  # atno 10763 bound_to 10752
  154.6757  135.2960  154.9684 H   0  0  0  0  0  0  0  0  0  0  0  0  # atno 10764 bound_to 10752
  154.0487  135.6707  153.4850 H   0  0  0  0  0  0  0  0  0  0  0  0  # atno 10765 bound_to 10752
  139.8921  134.9524  156.6544 H   0  0  0  0  0  0  0  0  0  0  0  0  # atno 11005 bound_to 11000
  144.6975  139.8915  143.7453 LP  0  0  0  0  0  0  0  0  0  0  0  0  # atno 17320 bound_to 7965
  146.0819  139.3807  143.0459 LP  0  0  0  0  0  0  0  0  0  0  0  0  # atno 17321 bound_to 7965
  140.7453  143.6435  150.8313 LP  0  0  0  0  0  0  0  0  0  0  0  0  # atno 17342 bound_to 10162
  140.0063  143.5690  152.2856 LP  0  0  0  0  0  0  0  0  0  0  0  0  # atno 17343 bound_to 10162
  157.5503  130.8178  149.8136 LP  0  0  0  0  0  0  0  0  0  0  0  0  # atno 17370 bound_to 10713
  156.0231  130.3788  150.1902 LP  0  0  0  0  0  0  0  0  0  0  0  0  # atno 17371 bound_to 10713
  140.7495  133.8909  155.8337 LP  0  0  0  0  0  0  0  0  0  0  0  0  # atno 17394 bound_to 11000
  141.0012  134.1148  157.4315 LP  0  0  0  0  0  0  0  0  0  0  0  0  # atno 17395 bound_to 11000

$$$$
