AV-unprocessed.smi:118|AV-procd|sdf|1131|dock9
  -GOLD-   2262018263D 1   1.00000     0.00000
 Structure written by MMmdl.
 41 44  0  0  0  0  0  0  0  0  1 V2000
  150.3666  136.8470  159.6629 O   0  0  0  0  0  0  0  0  0  0  0  0
  149.5063  137.5287  159.1040 C   0  0  0  0  0  0  0  0  0  0  0  0
  149.8990  138.5610  158.0349 C   0  0  0  0  0  0  0  0  0  0  0  0
  150.8023  139.6207  158.5356 N   0  0  0  0  0  0  0  0  0  0  0  0
  152.0873  139.2522  159.0060 C   0  0  0  0  0  0  0  0  0  0  0  0
  152.4483  138.0746  159.0229 O   0  0  0  0  0  0  0  0  0  0  0  0
  152.9357  140.3534  159.4469 C   0  0  0  0  0  0  0  0  0  0  0  0
  154.1774  140.0998  159.8940 F   0  0  0  0  0  0  0  0  0  0  0  0
  152.4954  141.6276  159.4081 C   0  0  0  0  0  0  0  0  0  0  0  0
  151.2325  141.9721  158.9679 N   0  0  0  0  0  0  0  0  0  0  0  0
  150.8438  143.4314  158.9095 C   0  0  2  0  0  0  0  0  0  0  0  0
  151.7430  144.2739  157.9849 C   0  0  0  0  0  0  0  0  0  0  0  0
  152.2923  145.3376  158.9216 C   0  0  0  0  0  0  0  0  0  0  0  0
  151.2839  145.3366  160.0652 C   0  0  0  0  0  0  0  0  0  0  0  0
  150.9353  143.9672  160.1935 O   0  0  0  0  0  0  0  0  0  0  0  0
  150.3626  140.9656  158.4879 C   0  0  0  0  0  0  0  0  0  0  0  0
  149.2537  141.2490  158.0317 O   0  0  0  0  0  0  0  0  0  0  0  0
  148.1911  137.4659  159.3776 N   0  0  0  0  0  0  0  0  0  0  0  0
  147.5183  136.6219  160.3042 C   0  0  0  0  0  0  0  0  0  0  0  0
  147.9599  135.3140  160.6317 C   0  0  0  0  0  0  0  0  0  0  0  0
  147.2384  134.5139  161.5458 C   0  0  0  0  0  0  0  0  0  0  0  0
  146.0567  134.9942  162.1455 C   0  0  0  0  0  0  0  0  0  0  0  0
  145.6051  136.2833  161.8108 C   0  0  0  0  0  0  0  0  0  0  0  0
  146.3236  137.0879  160.8960 C   0  0  0  0  0  0  0  0  0  0  0  0
  145.7367  138.3328  160.6748 N   0  0  0  0  0  0  0  0  0  0  0  0
  144.5158  138.2292  161.5890 S   0  0  0  0  0  0  0  0  0  0  0  0
  144.4566  136.8851  162.3146 N   0  0  0  0  0  0  0  0  0  0  0  0
  150.3509  138.0347  157.1927 H   0  0  0  0  0  0  0  0  0  0  0  0
  148.9856  138.9881  157.6178 H   0  0  0  0  0  0  0  0  0  0  0  0
  153.1662  142.4066  159.7398 H   0  0  0  0  0  0  0  0  0  0  0  0
  149.8022  143.4530  158.5858 H   0  0  0  0  0  0  0  0  0  0  0  0
  152.5240  143.6828  157.5060 H   0  0  0  0  0  0  0  0  0  0  0  0
  151.1210  144.7187  157.2076 H   0  0  0  0  0  0  0  0  0  0  0  0
  153.2742  145.0420  159.2918 H   0  0  0  0  0  0  0  0  0  0  0  0
  152.3921  146.3132  158.4454 H   0  0  0  0  0  0  0  0  0  0  0  0
  151.6965  145.7353  160.9921 H   0  0  0  0  0  0  0  0  0  0  0  0
  150.3972  145.9161  159.8035 H   0  0  0  0  0  0  0  0  0  0  0  0
  147.6110  138.1536  158.9195 H   0  0  0  0  0  0  0  0  0  0  0  0
  148.8465  134.8955  160.1809 H   0  0  0  0  0  0  0  0  0  0  0  0
  147.5940  133.5222  161.7834 H   0  0  0  0  0  0  0  0  0  0  0  0
  145.5063  134.3804  162.8434 H   0  0  0  0  0  0  0  0  0  0  0  0
  1  2  2  0  0  0  0
  2  3  1  0  0  0  0
  2 18  1  0  0  0  0
  3  4  1  0  0  0  0
  3 28  1  0  0  0  0
  3 29  1  0  0  0  0
  4 16  1  0  0  0  0
  4  5  1  0  0  0  0
  5  6  2  0  0  0  0
  5  7  1  0  0  0  0
  7  8  1  0  0  0  0
  7  9  2  0  0  0  0
  9 10  1  0  0  0  0
  9 30  1  0  0  0  0
 10 11  1  0  0  0  0
 10 16  1  0  0  0  0
 11 15  1  0  0  0  0
 11 12  1  0  0  0  0
 11 31  1  0  0  0  0
 12 13  1  0  0  0  0
 12 32  1  0  0  0  0
 12 33  1  0  0  0  0
 13 14  1  0  0  0  0
 13 34  1  0  0  0  0
 13 35  1  0  0  0  0
 14 15  1  0  0  0  0
 14 36  1  0  0  0  0
 14 37  1  0  0  0  0
 16 17  2  0  0  0  0
 18 19  1  0  0  0  0
 18 38  1  0  0  0  0
 19 24  1  0  0  0  0
 19 20  2  0  0  0  0
 20 21  1  0  0  0  0
 20 39  1  0  0  0  0
 21 22  2  0  0  0  0
 21 40  1  0  0  0  0
 22 23  1  0  0  0  0
 22 41  1  0  0  0  0
 23 27  1  0  0  0  0
 23 24  2  0  0  0  0
 24 25  1  0  0  0  0
 25 26  2  0  0  0  0
 26 27  2  0  0  0  0
M  END
> <s_m_source_file>
AV-unprocessed.smi

> <i_m_source_file_index>
118

> <i_lp_mmshare_version>
43012

> <i_f3d_flags>
0

> <s_epik_input>
TjE9Uz1OYyhjMTIpYyhbY0hdW2NIXVtjSF0yKVtOSF1DKD1PKVtDSDJdbjNjKD1PKWMoRilbY0hdbihjMz1PKVtDQEBIXTRbQ0gyXVtDSDJdW0NIMl1PNA==

> <s_epik_cmdline>
J2VwaWtfcHl0aG9uJywgJy1waCcsICc3LjAnLCAnLXRuJywgJzgnLCAnLW1hJywgJzIwMCcsICctbWV0YWxfYmluZGluZycsICctaW1hZScsICc8aW5maWxlLm1hZT4nLCAnLW9tYWUnLCAnPG91dGZpbGUubWFlPic=

> <r_lp_tautomer_probability>
1

> <r_epik_Ionization_Penalty>
1.81156e-06

> <r_epik_Ionization_Penalty_Charging>
3.88729e-08

> <r_epik_Ionization_Penalty_Neutral>
1.77269e-06

> <r_epik_State_Penalty>
-0

> <r_epik_Charging_Adjusted_Penalty>
3.88729e-08

> <i_epik_Tot_Q>
0

> <i_epik_Tot_abs_Q>
0

> <r_epik_Metal_State_Penalty>
-0

> <b_epik_Metal_Only>
0

> <s_epik_Chemistry_Notes>
This compound contains an acetal/aminal-like group ( X-CH(R)-Y where X, Y are N, S, or O) that may be acid/base labile, releasing an aldehyde.

> <s_lp_Force_Field>
OPLS_2005

> <r_lp_Energy>
47.7675

> <b_lp_Chiralities_Consistent>
1

> <s_lp_Variant>
AV-unprocessed.smi:118-1

> <Gold.Version>
5.8.1

> <Gold.Id.Protein>
6NUR|6NUR_protein|mol2

> <Gold.PLP.Fitness>
51.6466

> <Gold.PLP.PLP>
-46.0584

> <Gold.PLP.part.hbond>
-1.8803

> <Gold.PLP.part.metal>
0.0000

> <Gold.PLP.part.buried>
-8.2388

> <Gold.PLP.part.nonpolar>
-36.7176

> <Gold.PLP.part.repulsive>
0.3497

> <Gold.PLP.ligand.clash>
0.0000

> <Gold.PLP.ligand.torsion>
0.2202

> <Gold.PLP.Chemscore.Hbond>
2.0000

> <Gold.PLP.Chemscore.CHOScore>
0.0000

> <Gold.PLP.Chemscore.Metal>
0.0000

> <Gold.Chemscore.Hbonds>
donor molecule, donor type, donor heavy atom, donor atom, acceptor molecule, acceptor atom, score
      P1  H  6896  6907       L1     1  1.00
      P1  H  6934  6947       L1    25  0.40

> <Gold.PLP.Chemscore.Internal.Correction>
0.0286

> <Gold.Rescore>
     Score         DG    S(hbond)    S(metal)    S(lipo)     H(rot)  DE(clash)    DE(int)     intcor
     14.58     -18.12       1.91        0.00      92.76       1.80       0.07       3.47       ----

> <Gold.Chemscore.Fitness>
14.5780

> <Gold.Chemscore.DG>
-18.1180

> <Gold.Chemscore.ZeroCoef>
-5.4800

> <Gold.Chemscore.Hbond>
1.9125

> <Gold.Chemscore.Metal>
0.0000

> <Gold.Chemscore.Lipo>
92.7567

> <Gold.Chemscore.Internal_Hbond>
0.0000

> <Gold.Chemscore.DEClash>
0.0737

> <Gold.Chemscore.DEInternal>
3.4663

> <Gold.Chemscore.Rot>
1.7977

> <Gold.Chemscore.Internal.Correction>
   9.000000E+99

> <Gold.Chemscore.Hbonds>
donor molecule, donor type, donor heavy atom, donor atom, acceptor molecule, acceptor atom, score
      P1  H  6896  6907       L1     1  0.99
      P1  H  6934  6947       L1    25  0.02

> <Gold.Chemscore.Hbond.Weighted>
-6.3877

> <Gold.Chemscore.Metal.Weighted>
-0.0000

> <Gold.Chemscore.Lipo.Weighted>
-10.8525

> <Gold.Chemscore.Internal_Hbond.Weighted>
0.0000

> <Gold.Chemscore.DEClash.Weighted>
0.0737

> <Gold.Chemscore.DEInternal.Weighted>
3.4663

> <Gold.Chemscore.Rot.Weighted>
4.6022

> <Gold.Chemscore.Internal.Correction.Weighted>
   9.000000E+99

> <Gold.Protein.RotatedTorsions>
[ 6907 6896 6895 6894 ] final  -20.04 input  -60.11 | X-H torsion
[ 7974 7965 7964 7962 ] final   76.30 input  175.53 | X-H torsion
[ 8008 7997 7996 7995 ] final -140.45 input   59.86 | X-H torsion
[ 10167 10162 10161 10158 ] final   43.25 input  -65.29 | X-H torsion
[ 10718 10713 10712 10709 ] final   43.66 input   66.30 | X-H torsion
[ 10763 10752 10751 10750 ] final  -48.74 input  -60.55 | X-H torsion
[ 11005 11000 10999 10996 ] final   55.44 input  -57.11 | X-H torsion

> <Gold.Protein.ActiveResidues>
 VAL166  LYS551  ARG553  GLY616  TRP617  ASP618  TYR619  PRO620  LYS621  CYS622 
 ASP623  PHE694  ASN695  SER759  ASP760  ASP761  ALA762  ILE779  LEU786  VAL792 
 PHE793  MET794  SER795  GLU796  ALA797  LYS798  CYS799  TRP800  GLU811  SER814 

> <Gold.Protein.RotatedAtoms>
  151.2541  135.0632  159.9072 H   0  0  0  0  0  0  0  0  0  0  0  0  # atno 6907 bound_to 6896
  152.5376  134.0301  159.8031 H   0  0  0  0  0  0  0  0  0  0  0  0  # atno 6908 bound_to 6896
  151.0513  133.5572  159.2673 H   0  0  0  0  0  0  0  0  0  0  0  0  # atno 6909 bound_to 6896
  145.7046  139.2594  143.1686 H   0  0  0  0  0  0  0  0  0  0  0  0  # atno 7974 bound_to 7965
  155.4615  140.0546  157.2990 H   0  0  0  0  0  0  0  0  0  0  0  0  # atno 8008 bound_to 7997
  154.4735  140.2051  155.9890 H   0  0  0  0  0  0  0  0  0  0  0  0  # atno 8009 bound_to 7997
  156.1095  140.3206  155.8057 H   0  0  0  0  0  0  0  0  0  0  0  0  # atno 8010 bound_to 7997
  140.3463  144.2407  150.6150 H   0  0  0  0  0  0  0  0  0  0  0  0  # atno 10167 bound_to 10162
  157.4184  130.7954  149.7493 H   0  0  0  0  0  0  0  0  0  0  0  0  # atno 10718 bound_to 10713
  154.0826  135.6589  153.4840 H   0  0  0  0  0  0  0  0  0  0  0  0  # atno 10763 bound_to 10752
  153.0350  135.5183  154.7458 H   0  0  0  0  0  0  0  0  0  0  0  0  # atno 10764 bound_to 10752
  154.6558  135.3008  154.9897 H   0  0  0  0  0  0  0  0  0  0  0  0  # atno 10765 bound_to 10752
  140.0607  134.5606  155.9155 H   0  0  0  0  0  0  0  0  0  0  0  0  # atno 11005 bound_to 11000
  146.0767  140.7809  142.9661 LP  0  0  0  0  0  0  0  0  0  0  0  0  # atno 17320 bound_to 7965
  144.6959  140.3426  143.7196 LP  0  0  0  0  0  0  0  0  0  0  0  0  # atno 17321 bound_to 7965
  140.5262  143.2254  151.8312 LP  0  0  0  0  0  0  0  0  0  0  0  0  # atno 17342 bound_to 10162
  139.4833  144.4777  151.9346 LP  0  0  0  0  0  0  0  0  0  0  0  0  # atno 17343 bound_to 10162
  155.9872  130.3968  150.3174 LP  0  0  0  0  0  0  0  0  0  0  0  0  # atno 17370 bound_to 10713
  157.1319  131.0274  151.2965 LP  0  0  0  0  0  0  0  0  0  0  0  0  # atno 17371 bound_to 10713
  141.1972  133.6595  156.5728 LP  0  0  0  0  0  0  0  0  0  0  0  0  # atno 17394 bound_to 11000
  140.3774  134.7553  157.4639 LP  0  0  0  0  0  0  0  0  0  0  0  0  # atno 17395 bound_to 11000

$$$$
