AV-unprocessed.smi:72|AV-procd|sdf|679|dock4
  -GOLD-   2262016593D 1   1.00000     0.00000
 Structure written by MMmdl.
 29 30  0  0  0  0  0  0  0  0  1 V2000
  151.2263  134.7360  156.8864 N   0  0  0  0  0  0  0  0  0  0  0  0
  151.0810  135.9106  156.3868 C   0  0  0  0  0  0  0  0  0  0  0  0
  149.9232  136.3855  155.7525 N   0  0  0  0  0  0  0  0  0  0  0  0
  149.9151  137.6038  155.3059 C   0  0  0  0  0  0  0  0  0  0  0  0
  151.0594  138.4905  155.4514 N   0  0  0  0  0  0  0  0  0  0  0  0
  151.0315  139.9040  154.9158 C   0  0  2  0  0  0  0  0  0  0  0  0
  151.5757  140.7684  155.8721 O   0  0  0  0  0  0  0  0  0  0  0  0
  150.6940  141.8655  156.0754 C   0  0  2  0  0  0  0  0  0  0  0  0
  150.9139  142.4999  157.4606 C   0  0  0  0  0  0  0  0  0  0  0  0
  149.8754  143.3917  157.8110 O   0  0  0  0  0  0  0  0  0  0  0  0
  149.3018  141.3056  155.7767 C   0  0  1  0  0  0  0  0  0  0  0  0
  148.3590  142.3101  155.4524 O   0  0  0  0  0  0  0  0  0  0  0  0
  149.5833  140.3426  154.6264 C   0  0  1  0  0  0  0  0  0  0  0  0
  149.4906  140.9608  153.3560 O   0  0  0  0  0  0  0  0  0  0  0  0
  152.2475  138.0150  156.0579 C   0  0  0  0  0  0  0  0  0  0  0  0
  153.2598  138.7070  156.1629 O   0  0  0  0  0  0  0  0  0  0  0  0
  152.2011  136.7430  156.5096 N   0  0  0  0  0  0  0  0  0  0  0  0
  151.6779  139.9122  154.0365 H   0  0  0  0  0  0  0  0  0  0  0  0
  150.9494  142.6034  155.3124 H   0  0  0  0  0  0  0  0  0  0  0  0
  148.9287  140.7316  156.6253 H   0  0  0  0  0  0  0  0  0  0  0  0
  148.9029  139.4898  154.6400 H   0  0  0  0  0  0  0  0  0  0  0  0
  150.3805  134.1986  156.7592 H   0  0  0  0  0  0  0  0  0  0  0  0
  149.0560  138.0367  154.7928 H   0  0  0  0  0  0  0  0  0  0  0  0
  151.0066  141.7281  158.2250 H   0  0  0  0  0  0  0  0  0  0  0  0
  151.8478  143.0622  157.4603 H   0  0  0  0  0  0  0  0  0  0  0  0
  149.7988  144.0444  157.1319 H   0  0  0  0  0  0  0  0  0  0  0  0
  148.7471  143.1531  155.6297 H   0  0  0  0  0  0  0  0  0  0  0  0
  149.3940  140.2865  152.7008 H   0  0  0  0  0  0  0  0  0  0  0  0
  153.0286  136.3729  156.9546 H   0  0  0  0  0  0  0  0  0  0  0  0
  1  2  2  0  0  0  0
  1 22  1  0  0  0  0
  2 17  1  0  0  0  0
  2  3  1  0  0  0  0
  3  4  2  0  0  0  0
  4  5  1  0  0  0  0
  4 23  1  0  0  0  0
  5  6  1  0  0  0  0
  5 15  1  0  0  0  0
  6 18  1  0  0  0  0
  6 13  1  0  0  0  0
  6  7  1  0  0  0  0
  7  8  1  0  0  0  0
  8 19  1  0  0  0  0
  8  9  1  0  0  0  0
  8 11  1  0  0  0  0
  9 10  1  0  0  0  0
  9 24  1  0  0  0  0
  9 25  1  0  0  0  0
 10 26  1  0  0  0  0
 11 20  1  0  0  0  0
 11 12  1  0  0  0  0
 11 13  1  0  0  0  0
 12 27  1  0  0  0  0
 13 21  1  0  0  0  0
 13 14  1  0  0  0  0
 14 28  1  0  0  0  0
 15 16  2  0  0  0  0
 15 17  1  0  0  0  0
 17 29  1  0  0  0  0
M  END
> <s_m_source_file>
AV-unprocessed.smi

> <i_m_source_file_index>
72

> <i_lp_mmshare_version>
43012

> <i_f3d_flags>
0

> <s_epik_input>
W05IMl1jMW5bY0hdbihjKD1PKW4xKVtDQEBIXTJPW0NASF0oW0NIMl1bT0hdKVtDQEBIXShbT0hdKVtDQEhdMltPSF0=

> <s_epik_cmdline>
J2VwaWtfcHl0aG9uJywgJy1waCcsICc3LjAnLCAnLXRuJywgJzgnLCAnLW1hJywgJzIwMCcsICctbWV0YWxfYmluZGluZycsICctaW1hZScsICc8aW5maWxlLm1hZT4nLCAnLW9tYWUnLCAnPG91dGZpbGUubWFlPic=

> <r_lp_tautomer_probability>
7.17554e-07

> <r_epik_Ionization_Penalty>
0.0066451

> <r_epik_Ionization_Penalty_Charging>
0.00663793

> <r_epik_Ionization_Penalty_Neutral>
7.17052e-06

> <r_epik_State_Penalty>
0.419231

> <r_epik_Charging_Adjusted_Penalty>
0.425868

> <i_epik_Tot_Q>
0

> <i_epik_Tot_abs_Q>
0

> <r_epik_Metal_State_Penalty>
1.44144

> <b_epik_Metal_Only>
0

> <s_epik_Chemistry_Notes>
This compound contains an acetal/aminal-like group ( X-CH(R)-Y where X, Y are N, S, or O) that may be acid/base labile, releasing an aldehyde.

> <s_lp_Force_Field>
OPLS_2005

> <r_lp_Energy>
43.5106

> <b_lp_Chiralities_Consistent>
1

> <s_lp_Variant>
AV-unprocessed.smi:72-17

> <Gold.Version>
5.8.1

> <Gold.Id.Protein>
6NUR|6NUR_protein|mol2

> <Gold.PLP.Fitness>
38.9945

> <Gold.PLP.PLP>
-25.2965

> <Gold.PLP.part.hbond>
-6.7532

> <Gold.PLP.part.metal>
0.0000

> <Gold.PLP.part.buried>
-1.6106

> <Gold.PLP.part.nonpolar>
-16.6466

> <Gold.PLP.part.repulsive>
0.6834

> <Gold.PLP.ligand.clash>
0.0000

> <Gold.PLP.ligand.torsion>
0.4593

> <Gold.PLP.Chemscore.Hbond>
4.8698

> <Gold.PLP.Chemscore.CHOScore>
0.0000

> <Gold.PLP.Chemscore.Metal>
0.0000

> <Gold.Chemscore.Hbonds>
donor molecule, donor type, donor heavy atom, donor atom, acceptor molecule, acceptor atom, score
      L1  H    10    26       P1  8028  1.00
      L1  H    12    27       P1  8028  1.00
      L1  H    14    28       P1  7957  0.82
      P1  H  7989  7998       L1    14  0.02
      P1  H  7997  8010       L1    16  1.00
      P1  H  8011  8017       L1    14  1.00

> <Gold.PLP.Chemscore.Internal.Correction>
0.0071

> <Gold.Rescore>
     Score         DG    S(hbond)    S(metal)    S(lipo)     H(rot)  DE(clash)    DE(int)     intcor
      8.63     -12.06       4.05        0.00      29.36       4.06       1.42       2.00       ----

> <Gold.Chemscore.Fitness>
8.6339

> <Gold.Chemscore.DG>
-12.0601

> <Gold.Chemscore.ZeroCoef>
-5.4800

> <Gold.Chemscore.Hbond>
4.0535

> <Gold.Chemscore.Metal>
0.0000

> <Gold.Chemscore.Lipo>
29.3602

> <Gold.Chemscore.Internal_Hbond>
0.0000

> <Gold.Chemscore.DEClash>
1.4230

> <Gold.Chemscore.DEInternal>
2.0032

> <Gold.Chemscore.Rot>
4.0600

> <Gold.Chemscore.Internal.Correction>
   9.000000E+99

> <Gold.Chemscore.Hbonds>
donor molecule, donor type, donor heavy atom, donor atom, acceptor molecule, acceptor atom, score
      L1  H    10    26       P1  8028  0.70
      L1  H    12    27       P1  8028  0.96
      L1  H    14    28       P1  7957  0.77
      P1  H  7997  8010       L1    16  0.94
      P1  H  8011  8017       L1    14  0.30

> <Gold.Chemscore.Hbond.Weighted>
-13.5386

> <Gold.Chemscore.Metal.Weighted>
-0.0000

> <Gold.Chemscore.Lipo.Weighted>
-3.4351

> <Gold.Chemscore.Internal_Hbond.Weighted>
0.0000

> <Gold.Chemscore.DEClash.Weighted>
1.4230

> <Gold.Chemscore.DEInternal.Weighted>
2.0032

> <Gold.Chemscore.Rot.Weighted>
10.3936

> <Gold.Chemscore.Internal.Correction.Weighted>
   9.000000E+99

> <Gold.Protein.RotatedTorsions>
[ 6907 6896 6895 6894 ] final   68.72 input  -60.11 | X-H torsion
[ 7974 7965 7964 7962 ] final  138.00 input  175.53 | X-H torsion
[ 8008 7997 7996 7995 ] final   80.69 input   59.86 | X-H torsion
[ 10167 10162 10161 10158 ] final  179.50 input  -65.29 | X-H torsion
[ 10718 10713 10712 10709 ] final  143.22 input   66.30 | X-H torsion
[ 10763 10752 10751 10750 ] final -123.99 input  -60.55 | X-H torsion
[ 11005 11000 10999 10996 ] final  116.68 input  -57.11 | X-H torsion

> <Gold.Protein.ActiveResidues>
 VAL166  LYS551  ARG553  GLY616  TRP617  ASP618  TYR619  PRO620  LYS621  CYS622 
 ASP623  PHE694  ASN695  SER759  ASP760  ASP761  ALA762  ILE779  LEU786  VAL792 
 PHE793  MET794  SER795  GLU796  ALA797  LYS798  CYS799  TRP800  GLU811  SER814 

> <Gold.Protein.RotatedAtoms>
  152.4639  134.5121  159.9756 H   0  0  0  0  0  0  0  0  0  0  0  0  # atno 6907 bound_to 6896
  151.5164  133.3469  159.2901 H   0  0  0  0  0  0  0  0  0  0  0  0  # atno 6908 bound_to 6896
  150.8614  134.7995  159.7147 H   0  0  0  0  0  0  0  0  0  0  0  0  # atno 6909 bound_to 6896
  144.9414  139.4926  143.5570 H   0  0  0  0  0  0  0  0  0  0  0  0  # atno 7974 bound_to 7965
  155.8870  140.3441  155.5928 H   0  0  0  0  0  0  0  0  0  0  0  0  # atno 8008 bound_to 7997
  155.7655  140.0838  157.2153 H   0  0  0  0  0  0  0  0  0  0  0  0  # atno 8009 bound_to 7997
  154.4029  140.1528  156.2869 H   0  0  0  0  0  0  0  0  0  0  0  0  # atno 8010 bound_to 7997
  139.5339  144.2554  152.0751 H   0  0  0  0  0  0  0  0  0  0  0  0  # atno 10167 bound_to 10162
  157.3714  131.0979  151.0824 H   0  0  0  0  0  0  0  0  0  0  0  0  # atno 10718 bound_to 10713
  154.8716  135.4079  154.3034 H   0  0  0  0  0  0  0  0  0  0  0  0  # atno 10763 bound_to 10752
  153.3889  135.7014  153.6515 H   0  0  0  0  0  0  0  0  0  0  0  0  # atno 10764 bound_to 10752
  153.5305  135.3668  155.2645 H   0  0  0  0  0  0  0  0  0  0  0  0  # atno 10765 bound_to 10752
  139.9049  134.9601  156.7236 H   0  0  0  0  0  0  0  0  0  0  0  0  # atno 11005 bound_to 11000
  146.3287  139.8436  142.8886 LP  0  0  0  0  0  0  0  0  0  0  0  0  # atno 17320 bound_to 7965
  145.2985  141.0187  143.3622 LP  0  0  0  0  0  0  0  0  0  0  0  0  # atno 17321 bound_to 7965
  140.2021  144.4647  150.6426 LP  0  0  0  0  0  0  0  0  0  0  0  0  # atno 17342 bound_to 10162
  140.6534  143.2231  151.6025 LP  0  0  0  0  0  0  0  0  0  0  0  0  # atno 17343 bound_to 10162
  157.1927  130.6359  149.5710 LP  0  0  0  0  0  0  0  0  0  0  0  0  # atno 17370 bound_to 10713
  155.9756  130.4717  150.6473 LP  0  0  0  0  0  0  0  0  0  0  0  0  # atno 17371 bound_to 10713
  140.6981  133.9330  155.8007 LP  0  0  0  0  0  0  0  0  0  0  0  0  # atno 17394 bound_to 11000
  141.0392  134.0646  157.3923 LP  0  0  0  0  0  0  0  0  0  0  0  0  # atno 17395 bound_to 11000

$$$$
