AV-unprocessed.smi:1978|AV-procd|sdf|8010|dock5
  -GOLD-   2272010203D 1   1.00000     0.00000
 Structure written by MMmdl.
 44 45  0  0  0  0  0  0  0  0  3 V2000
  140.0215  138.4214  153.4992 C   0  0  0  0  0  0  0  0  0  0  0  0
  140.6460  137.0687  153.5216 C   0  0  0  0  0  0  0  0  0  0  0  0
  141.9111  136.6230  153.2603 C   0  0  0  0  0  0  0  0  0  0  0  0
  141.8065  135.2215  153.4656 C   0  0  0  0  0  0  0  0  0  0  0  0
  142.9343  134.3778  153.2855 N   0  0  0  0  0  0  0  0  0  0  0  0
  144.2305  134.7183  153.1694 C   0  0  0  0  0  0  0  0  0  0  0  0
  144.5718  135.9058  153.2221 O   0  0  0  0  0  0  0  0  0  0  0  0
  145.0354  133.6338  152.9942 N   0  5  0  0  0  0  0  0  0  0  0  0
  144.7897  132.5568  152.0339 C   0  0  0  0  0  0  0  0  0  0  0  0
  146.0918  132.2004  151.2395 C   0  0  2  0  0  0  0  0  0  0  0  0
  145.8188  131.8368  149.7591 C   0  0  0  0  0  0  0  0  0  0  0  0
  146.9810  131.1635  151.8828 N   0  3  2  0  0  0  0  0  0  0  0  0
  146.4080  129.7816  151.9546 C   0  0  0  0  0  0  0  0  0  0  0  0
  147.4910  128.7408  152.2682 C   0  0  0  0  0  0  0  0  0  0  0  0
  148.1938  129.0805  153.5835 C   0  0  0  0  0  0  0  0  0  0  0  0
  148.7637  130.4999  153.5095 C   0  0  0  0  0  0  0  0  0  0  0  0
  147.6817  131.5456  153.1602 C   0  0  1  0  0  0  0  0  0  0  0  0
  148.3433  132.9388  153.1174 C   0  0  0  0  0  0  0  0  0  0  0  0
  140.5880  134.8474  153.8274 N   0  0  0  0  0  0  0  0  0  0  0  0
  139.8385  136.0289  153.8645 O   0  0  0  0  0  0  0  0  0  0  0  0
  140.7117  139.1631  153.0972 H   0  0  0  0  0  0  0  0  0  0  0  0
  139.7379  138.7323  154.5047 H   0  0  0  0  0  0  0  0  0  0  0  0
  139.1256  138.4224  152.8782 H   0  0  0  0  0  0  0  0  0  0  0  0
  142.7709  137.2060  152.9655 H   0  0  0  0  0  0  0  0  0  0  0  0
  142.7365  133.3891  153.2420 H   0  0  0  0  0  0  0  0  0  0  0  0
  144.4184  131.6604  152.5319 H   0  0  0  0  0  0  0  0  0  0  0  0
  144.0078  132.8293  151.3252 H   0  0  0  0  0  0  0  0  0  0  0  0
  146.6881  133.1077  151.1685 H   0  0  0  0  0  0  0  0  0  0  0  0
  145.4066  132.6816  149.2043 H   0  0  0  0  0  0  0  0  0  0  0  0
  145.1202  131.0074  149.6410 H   0  0  0  0  0  0  0  0  0  0  0  0
  146.7441  131.5581  149.2542 H   0  0  0  0  0  0  0  0  0  0  0  0
  145.6321  129.7337  152.7201 H   0  0  0  0  0  0  0  0  0  0  0  0
  145.9362  129.5048  151.0134 H   0  0  0  0  0  0  0  0  0  0  0  0
  147.0463  127.7471  152.3300 H   0  0  0  0  0  0  0  0  0  0  0  0
  148.2179  128.7066  151.4556 H   0  0  0  0  0  0  0  0  0  0  0  0
  147.4892  129.0051  154.4128 H   0  0  0  0  0  0  0  0  0  0  0  0
  148.9907  128.3634  153.7818 H   0  0  0  0  0  0  0  0  0  0  0  0
  149.2300  130.7485  154.4637 H   0  0  0  0  0  0  0  0  0  0  0  0
  149.5585  130.5306  152.7627 H   0  0  0  0  0  0  0  0  0  0  0  0
  146.9494  131.5474  153.9689 H   0  0  0  0  0  0  0  0  0  0  0  0
  148.9514  133.1085  154.0063 H   0  0  0  0  0  0  0  0  0  0  0  0
  147.6088  133.7429  153.0964 H   0  0  0  0  0  0  0  0  0  0  0  0
  148.9939  133.0460  152.2487 H   0  0  0  0  0  0  0  0  0  0  0  0
  147.7366  131.0806  151.2186 H   0  0  0  0  0  0  0  0  0  0  0  0
  1  2  1  0  0  0  0
  1 21  1  0  0  0  0
  1 22  1  0  0  0  0
  1 23  1  0  0  0  0
  2 20  1  0  0  0  0
  2  3  2  0  0  0  0
  3  4  1  0  0  0  0
  3 24  1  0  0  0  0
  4  5  1  0  0  0  0
  4 19  2  0  0  0  0
  5  6  1  0  0  0  0
  5 25  1  0  0  0  0
  6  7  2  0  0  0  0
  6  8  1  0  0  0  0
  8  9  1  0  0  0  0
  9 10  1  0  0  0  0
  9 26  1  0  0  0  0
  9 27  1  0  0  0  0
 10 11  1  0  0  0  0
 10 12  1  0  0  0  0
 10 28  1  0  0  0  0
 11 29  1  0  0  0  0
 11 30  1  0  0  0  0
 11 31  1  0  0  0  0
 12 17  1  0  0  0  0
 12 13  1  0  0  0  0
 12 44  1  0  0  0  0
 13 14  1  0  0  0  0
 13 32  1  0  0  0  0
 13 33  1  0  0  0  0
 14 15  1  0  0  0  0
 14 34  1  0  0  0  0
 14 35  1  0  0  0  0
 15 16  1  0  0  0  0
 15 36  1  0  0  0  0
 15 37  1  0  0  0  0
 16 17  1  0  0  0  0
 16 38  1  0  0  0  0
 16 39  1  0  0  0  0
 17 18  1  0  0  0  0
 17 40  1  0  0  0  0
 18 41  1  0  0  0  0
 18 42  1  0  0  0  0
 18 43  1  0  0  0  0
 19 20  1  0  0  0  0
M  CHG  1   8  -1
M  CHG  1  12   1
M  END
> <s_m_source_file>
AV-unprocessed.smi

> <i_m_source_file_index>
1978

> <i_lp_mmshare_version>
43012

> <i_f3d_flags>
0

> <s_epik_input>
W0NIM11jMVtjSF1jKG5vMSlbTkhdQyg9TylbTkhdW0NIMl1bQ0BIXShbQ0gzXSlOMltDSDJdW0NIMl1bQ0gyXVtDSDJdW0NASF0yW0NIM10=

> <s_epik_cmdline>
J2VwaWtfcHl0aG9uJywgJy1waCcsICc3LjAnLCAnLXRuJywgJzgnLCAnLW1hJywgJzIwMCcsICctbWV0YWxfYmluZGluZycsICctaW1hZScsICc8aW5maWxlLm1hZT4nLCAnLW9tYWUnLCAnPG91dGZpbGUubWFlPic=

> <r_epik_Ionization_Penalty>
6.7666

> <r_epik_Ionization_Penalty_Charging>
6.7666

> <r_epik_Ionization_Penalty_Neutral>
5.77131e-06

> <r_epik_State_Penalty>
6.79217

> <r_epik_Charging_Adjusted_Penalty>
13.5588

> <i_epik_Tot_Q>
0

> <i_epik_Tot_abs_Q>
2

> <r_epik_Metal_State_Penalty>
2.72569

> <b_epik_Metal_Only>
1

> <s_lp_Force_Field>
OPLS_2005

> <r_lp_Energy>
22.3249

> <b_lp_Chiralities_Consistent>
1

> <s_lp_Variant>
AV-unprocessed.smi:1978-19

> <Gold.Version>
5.8.1

> <Gold.Id.Protein>
6NUR|6NUR_protein|mol2

> <Gold.PLP.Fitness>
42.8375

> <Gold.PLP.PLP>
-37.6058

> <Gold.PLP.part.hbond>
-4.0000

> <Gold.PLP.part.metal>
0.0000

> <Gold.PLP.part.buried>
-5.6913

> <Gold.PLP.part.nonpolar>
-27.7283

> <Gold.PLP.part.repulsive>
0.5451

> <Gold.PLP.ligand.clash>
0.0000

> <Gold.PLP.ligand.torsion>
1.0734

> <Gold.PLP.Chemscore.Hbond>
2.3611

> <Gold.PLP.Chemscore.CHOScore>
0.0000

> <Gold.PLP.Chemscore.Metal>
0.0000

> <Gold.Chemscore.Hbonds>
donor molecule, donor type, donor heavy atom, donor atom, acceptor molecule, acceptor atom, score
      L1  H     5    25       P1 10957  0.35
      L1  H    12    44       P1 10747  1.00
      P1  H 11000 11005       L1    19  1.00

> <Gold.PLP.Chemscore.Internal.Correction>
0.2951

> <Gold.Rescore>
     Score         DG    S(hbond)    S(metal)    S(lipo)     H(rot)  DE(clash)    DE(int)     intcor
     17.93     -20.65       2.79        0.00      83.35       1.52       0.01       2.70       ----

> <Gold.Chemscore.Fitness>
17.9328

> <Gold.Chemscore.DG>
-20.6459

> <Gold.Chemscore.ZeroCoef>
-5.4800

> <Gold.Chemscore.Hbond>
2.7853

> <Gold.Chemscore.Metal>
0.0000

> <Gold.Chemscore.Lipo>
83.3483

> <Gold.Chemscore.Internal_Hbond>
0.0000

> <Gold.Chemscore.DEClash>
0.0106

> <Gold.Chemscore.DEInternal>
2.7025

> <Gold.Chemscore.Rot>
1.5190

> <Gold.Chemscore.Internal.Correction>
   9.000000E+99

> <Gold.Chemscore.Hbonds>
donor molecule, donor type, donor heavy atom, donor atom, acceptor molecule, acceptor atom, score
      L1  H     5    25       P1 10957  0.32
      L1  H    12    44       P1 10747  0.97
      P1  H 11000 11005       L1    19  0.31

> <Gold.Chemscore.Hbond.Weighted>
-9.3028

> <Gold.Chemscore.Metal.Weighted>
-0.0000

> <Gold.Chemscore.Lipo.Weighted>
-9.7517

> <Gold.Chemscore.Internal_Hbond.Weighted>
0.0000

> <Gold.Chemscore.DEClash.Weighted>
0.0106

> <Gold.Chemscore.DEInternal.Weighted>
2.7025

> <Gold.Chemscore.Rot.Weighted>
3.8886

> <Gold.Chemscore.Internal.Correction.Weighted>
   9.000000E+99

> <Gold.Protein.RotatedTorsions>
[ 6907 6896 6895 6894 ] final  -43.71 input  -60.11 | X-H torsion
[ 7974 7965 7964 7962 ] final  109.16 input  175.53 | X-H torsion
[ 8008 7997 7996 7995 ] final  163.81 input   59.86 | X-H torsion
[ 10167 10162 10161 10158 ] final  137.41 input  -65.29 | X-H torsion
[ 10718 10713 10712 10709 ] final    8.73 input   66.30 | X-H torsion
[ 10763 10752 10751 10750 ] final  149.05 input  -60.55 | X-H torsion
[ 11005 11000 10999 10996 ] final   20.98 input  -57.11 | X-H torsion

> <Gold.Protein.ActiveResidues>
 VAL166  LYS551  ARG553  GLY616  TRP617  ASP618  TYR619  PRO620  LYS621  CYS622 
 ASP623  PHE694  ASN695  SER759  ASP760  ASP761  ALA762  ILE779  LEU786  VAL792 
 PHE793  MET794  SER795  GLU796  ALA797  LYS798  CYS799  TRP800  GLU811  SER814 

> <Gold.Protein.RotatedAtoms>
  150.9409  134.8818  159.7611 H   0  0  0  0  0  0  0  0  0  0  0  0  # atno 6907 bound_to 6896
  152.5079  134.3943  159.9405 H   0  0  0  0  0  0  0  0  0  0  0  0  # atno 6908 bound_to 6896
  151.3964  133.3731  159.2762 H   0  0  0  0  0  0  0  0  0  0  0  0  # atno 6909 bound_to 6896
  145.2713  139.2665  143.3965 H   0  0  0  0  0  0  0  0  0  0  0  0  # atno 7974 bound_to 7965
  156.1929  140.1713  156.8057 H   0  0  0  0  0  0  0  0  0  0  0  0  # atno 8008 bound_to 7997
  154.5493  140.0721  156.8673 H   0  0  0  0  0  0  0  0  0  0  0  0  # atno 8009 bound_to 7997
  155.3060  140.3364  155.4248 H   0  0  0  0  0  0  0  0  0  0  0  0  # atno 8010 bound_to 7997
  139.5145  144.6411  151.5566 H   0  0  0  0  0  0  0  0  0  0  0  0  # atno 10167 bound_to 10162
  156.9559  130.5914  149.5659 H   0  0  0  0  0  0  0  0  0  0  0  0  # atno 10718 bound_to 10713
  154.0648  135.2871  155.3318 H   0  0  0  0  0  0  0  0  0  0  0  0  # atno 10763 bound_to 10752
  154.6785  135.5272  153.8235 H   0  0  0  0  0  0  0  0  0  0  0  0  # atno 10764 bound_to 10752
  153.0508  135.6575  154.0834 H   0  0  0  0  0  0  0  0  0  0  0  0  # atno 10765 bound_to 10752
  140.3967  134.1762  155.7663 H   0  0  0  0  0  0  0  0  0  0  0  0  # atno 11005 bound_to 11000
  146.3245  140.3157  142.8630 LP  0  0  0  0  0  0  0  0  0  0  0  0  # atno 17320 bound_to 7965
  144.9332  140.7998  143.5676 LP  0  0  0  0  0  0  0  0  0  0  0  0  # atno 17321 bound_to 7965
  140.6178  143.9315  150.6502 LP  0  0  0  0  0  0  0  0  0  0  0  0  # atno 17342 bound_to 10162
  140.2579  143.3545  152.1348 LP  0  0  0  0  0  0  0  0  0  0  0  0  # atno 17343 bound_to 10162
  156.0343  130.5431  150.8613 LP  0  0  0  0  0  0  0  0  0  0  0  0  # atno 17370 bound_to 10713
  157.5690  131.0946  150.9446 LP  0  0  0  0  0  0  0  0  0  0  0  0  # atno 17371 bound_to 10713
  141.1872  133.8287  157.1042 LP  0  0  0  0  0  0  0  0  0  0  0  0  # atno 17394 bound_to 11000
  140.0367  134.9875  157.0884 LP  0  0  0  0  0  0  0  0  0  0  0  0  # atno 17395 bound_to 11000

$$$$
