AV-unprocessed.smi:767|AV-procd|sdf|3670|dock9
  -GOLD-   22720 1 83D 1   1.00000     0.00000
 Structure written by MMmdl.
 48 50  0  0  0  0  0  0  0  0  2 V2000
  144.3811  132.4031  149.6628 C   0  0  0  0  0  0  0  0  0  0  0  0
  144.6822  133.6788  150.4204 C   0  0  0  0  0  0  0  0  0  0  0  0
  145.9872  134.0097  150.8426 C   0  0  0  0  0  0  0  0  0  0  0  0
  146.1992  135.2159  151.5414 C   0  0  0  0  0  0  0  0  0  0  0  0
  145.1044  136.0692  151.8014 C   0  0  0  0  0  0  0  0  0  0  0  0
  145.3099  137.3896  152.5256 C   0  0  0  0  0  0  0  0  0  0  0  0
  146.4858  138.2252  151.9768 C   0  0  0  0  0  0  0  0  0  0  0  0
  147.6521  138.2302  152.8555 N   0  0  0  0  0  0  0  0  0  0  0  0
  147.7303  138.8546  154.0385 C   0  0  0  0  0  0  0  0  0  0  0  0
  146.8210  139.5225  154.5300 O   0  0  0  0  0  0  0  0  0  0  0  0
  148.9108  138.6371  154.6307 N   0  0  0  0  0  0  0  0  0  0  0  0
  149.3046  139.1527  155.9431 C   0  0  1  0  0  0  0  0  0  0  0  0
  150.7329  138.7336  156.3699 C   0  0  1  0  0  0  0  0  0  0  0  0
  151.5250  137.6613  155.6637 C   0  0  0  0  0  0  0  0  0  0  0  0
  152.3790  138.4596  154.6743 C   0  0  0  0  0  0  0  0  0  0  0  0
  151.7213  139.7196  154.5533 O   0  0  0  0  0  0  0  0  0  0  0  0
  151.2137  140.0736  155.8386 C   0  0  1  0  0  0  0  0  0  0  0  0
  149.7751  140.6303  155.8833 C   0  0  0  0  0  0  0  0  0  0  0  0
  149.3415  141.4978  154.6937 C   0  0  0  0  0  0  0  0  0  0  0  0
  149.4586  141.4419  157.1434 C   0  0  0  0  0  0  0  0  0  0  0  0
  143.8200  135.6818  151.3626 C   0  0  0  0  0  0  0  0  0  0  0  0
  143.6580  134.5175  150.6964 N   0  3  0  0  0  0  0  0  0  0  0  0
  145.2682  132.0461  149.1386 H   0  0  0  0  0  0  0  0  0  0  0  0
  143.5951  132.5651  148.9243 H   0  0  0  0  0  0  0  0  0  0  0  0
  144.0525  131.6237  150.3509 H   0  0  0  0  0  0  0  0  0  0  0  0
  146.8183  133.3524  150.6314 H   0  0  0  0  0  0  0  0  0  0  0  0
  147.1953  135.4865  151.8609 H   0  0  0  0  0  0  0  0  0  0  0  0
  144.3886  137.9700  152.4684 H   0  0  0  0  0  0  0  0  0  0  0  0
  145.4710  137.1906  153.5859 H   0  0  0  0  0  0  0  0  0  0  0  0
  146.8109  137.8058  151.0246 H   0  0  0  0  0  0  0  0  0  0  0  0
  146.1647  139.2467  151.7682 H   0  0  0  0  0  0  0  0  0  0  0  0
  148.4593  137.7117  152.5413 H   0  0  0  0  0  0  0  0  0  0  0  0
  149.5899  138.0664  154.1485 H   0  0  0  0  0  0  0  0  0  0  0  0
  148.5607  138.9791  156.7231 H   0  0  0  0  0  0  0  0  0  0  0  0
  150.8135  138.6914  157.4572 H   0  0  0  0  0  0  0  0  0  0  0  0
  152.1516  137.0928  156.3514 H   0  0  0  0  0  0  0  0  0  0  0  0
  150.8819  136.9498  155.1506 H   0  0  0  0  0  0  0  0  0  0  0  0
  153.3801  138.6200  155.0767 H   0  0  0  0  0  0  0  0  0  0  0  0
  152.4745  137.9640  153.7079 H   0  0  0  0  0  0  0  0  0  0  0  0
  151.9450  140.5719  156.4767 H   0  0  0  0  0  0  0  0  0  0  0  0
  149.8088  142.4824  154.7264 H   0  0  0  0  0  0  0  0  0  0  0  0
  148.2614  141.6471  154.6826 H   0  0  0  0  0  0  0  0  0  0  0  0
  149.6164  141.0544  153.7367 H   0  0  0  0  0  0  0  0  0  0  0  0
  150.0080  142.3838  157.1615 H   0  0  0  0  0  0  0  0  0  0  0  0
  149.7249  140.8994  158.0511 H   0  0  0  0  0  0  0  0  0  0  0  0
  148.3963  141.6779  157.2110 H   0  0  0  0  0  0  0  0  0  0  0  0
  142.9256  136.2684  151.5143 H   0  0  0  0  0  0  0  0  0  0  0  0
  142.7210  134.2614  150.3842 H   0  0  0  0  0  0  0  0  0  0  0  0
  1  2  1  0  0  0  0
  1 23  1  0  0  0  0
  1 24  1  0  0  0  0
  1 25  1  0  0  0  0
  2 22  1  0  0  0  0
  2  3  2  0  0  0  0
  3  4  1  0  0  0  0
  3 26  1  0  0  0  0
  4  5  2  0  0  0  0
  4 27  1  0  0  0  0
  5  6  1  0  0  0  0
  5 21  1  0  0  0  0
  6  7  1  0  0  0  0
  6 28  1  0  0  0  0
  6 29  1  0  0  0  0
  7  8  1  0  0  0  0
  7 30  1  0  0  0  0
  7 31  1  0  0  0  0
  8  9  1  0  0  0  0
  8 32  1  0  0  0  0
  9 10  2  0  0  0  0
  9 11  1  0  0  0  0
 11 12  1  0  0  0  0
 11 33  1  0  0  0  0
 12 18  1  0  0  0  0
 12 13  1  0  0  0  0
 12 34  1  0  0  0  0
 13 17  1  0  0  0  0
 13 14  1  0  0  0  0
 13 35  1  0  0  0  0
 14 15  1  0  0  0  0
 14 36  1  0  0  0  0
 14 37  1  0  0  0  0
 15 16  1  0  0  0  0
 15 38  1  0  0  0  0
 15 39  1  0  0  0  0
 16 17  1  0  0  0  0
 17 18  1  0  0  0  0
 17 40  1  0  0  0  0
 18 19  1  0  0  0  0
 18 20  1  0  0  0  0
 19 41  1  0  0  0  0
 19 42  1  0  0  0  0
 19 43  1  0  0  0  0
 20 44  1  0  0  0  0
 20 45  1  0  0  0  0
 20 46  1  0  0  0  0
 21 22  2  0  0  0  0
 21 47  1  0  0  0  0
 22 48  1  0  0  0  0
M  CHG  1  22   1
M  END
> <s_m_source_file>
AV-unprocessed.smi

> <i_m_source_file_index>
767

> <i_lp_mmshare_version>
43012

> <i_f3d_flags>
0

> <s_epik_input>
W0NIM11jMVtjSF1bY0hdYyhbY0hdbjEpW0NIMl1bQ0gyXVtOSF1DKD1PKVtOSF1bQ0BIXTJDKFtDSDNdKShbQ0gzXSlbQ0BIXShbQ0BASF0yMylPW0NIMl1bQ0gyXTM=

> <s_epik_cmdline>
J2VwaWtfcHl0aG9uJywgJy1waCcsICc3LjAnLCAnLXRuJywgJzgnLCAnLW1hJywgJzIwMCcsICctbWV0YWxfYmluZGluZycsICctaW1hZScsICc8aW5maWxlLm1hZT4nLCAnLW9tYWUnLCAnPG91dGZpbGUubWFlPic=

> <r_epik_Ionization_Penalty>
1.41853

> <r_epik_Ionization_Penalty_Charging>
1.41848

> <r_epik_Ionization_Penalty_Neutral>
5.17407e-05

> <r_epik_State_Penalty>
1.50205

> <r_epik_Charging_Adjusted_Penalty>
2.92053

> <i_epik_Tot_Q>
1

> <i_epik_Tot_abs_Q>
1

> <r_epik_Metal_State_Penalty>
1.5544

> <b_epik_Metal_Only>
0

> <s_lp_Force_Field>
OPLS_2005

> <r_lp_Energy>
40.9756

> <b_lp_Chiralities_Consistent>
1

> <s_lp_Variant>
AV-unprocessed.smi:767-14

> <Gold.Version>
5.8.1

> <Gold.Id.Protein>
6NUR|6NUR_protein|mol2

> <Gold.PLP.Fitness>
46.8524

> <Gold.PLP.PLP>
-36.2337

> <Gold.PLP.part.hbond>
-3.5557

> <Gold.PLP.part.metal>
0.0000

> <Gold.PLP.part.buried>
-2.4489

> <Gold.PLP.part.nonpolar>
-31.6307

> <Gold.PLP.part.repulsive>
0.2682

> <Gold.PLP.ligand.clash>
0.0000

> <Gold.PLP.ligand.torsion>
0.6616

> <Gold.PLP.Chemscore.Hbond>
3.9120

> <Gold.PLP.Chemscore.CHOScore>
0.0000

> <Gold.PLP.Chemscore.Metal>
0.0000

> <Gold.Chemscore.Hbonds>
donor molecule, donor type, donor heavy atom, donor atom, acceptor molecule, acceptor atom, score
      L1  H     8    32       P1  7948  0.90
      L1  H    22    48       P1 10186  2.00
      P1  H  7989  7998       L1    16  1.00

> <Gold.PLP.Chemscore.Internal.Correction>
0.2058

> <Gold.Rescore>
     Score         DG    S(hbond)    S(metal)    S(lipo)     H(rot)  DE(clash)    DE(int)     intcor
     22.00     -22.60       2.81        0.00      99.47       1.52       0.03       0.57       ----

> <Gold.Chemscore.Fitness>
22.0043

> <Gold.Chemscore.DG>
-22.6003

> <Gold.Chemscore.ZeroCoef>
-5.4800

> <Gold.Chemscore.Hbond>
2.8091

> <Gold.Chemscore.Metal>
0.0000

> <Gold.Chemscore.Lipo>
99.4665

> <Gold.Chemscore.Internal_Hbond>
0.0000

> <Gold.Chemscore.DEClash>
0.0259

> <Gold.Chemscore.DEInternal>
0.5700

> <Gold.Chemscore.Rot>
1.5233

> <Gold.Chemscore.Internal.Correction>
   9.000000E+99

> <Gold.Chemscore.Hbonds>
donor molecule, donor type, donor heavy atom, donor atom, acceptor molecule, acceptor atom, score
      L1  H     8    32       P1  7948  0.88
      L1  H    22    48       P1 10186  0.78
      P1  H  7989  7998       L1    16  0.84

> <Gold.Chemscore.Hbond.Weighted>
-9.3823

> <Gold.Chemscore.Metal.Weighted>
-0.0000

> <Gold.Chemscore.Lipo.Weighted>
-11.6376

> <Gold.Chemscore.Internal_Hbond.Weighted>
0.0000

> <Gold.Chemscore.DEClash.Weighted>
0.0259

> <Gold.Chemscore.DEInternal.Weighted>
0.5700

> <Gold.Chemscore.Rot.Weighted>
3.8995

> <Gold.Chemscore.Internal.Correction.Weighted>
   9.000000E+99

> <Gold.Protein.RotatedTorsions>
[ 6907 6896 6895 6894 ] final -121.50 input  -60.11 | X-H torsion
[ 7974 7965 7964 7962 ] final  -89.45 input  175.53 | X-H torsion
[ 8008 7997 7996 7995 ] final  -96.05 input   59.86 | X-H torsion
[ 10167 10162 10161 10158 ] final  160.87 input  -65.29 | X-H torsion
[ 10718 10713 10712 10709 ] final    4.69 input   66.30 | X-H torsion
[ 10763 10752 10751 10750 ] final -123.91 input  -60.55 | X-H torsion
[ 11005 11000 10999 10996 ] final  -54.65 input  -57.11 | X-H torsion

> <Gold.Protein.ActiveResidues>
 VAL166  LYS551  ARG553  GLY616  TRP617  ASP618  TYR619  PRO620  LYS621  CYS622 
 ASP623  PHE694  ASN695  SER759  ASP760  ASP761  ALA762  ILE779  LEU786  VAL792 
 PHE793  MET794  SER795  GLU796  ALA797  LYS798  CYS799  TRP800  GLU811  SER814 

> <Gold.Protein.RotatedAtoms>
  150.8489  133.7817  159.3032 H   0  0  0  0  0  0  0  0  0  0  0  0  # atno 6907 bound_to 6896
  151.5496  135.1066  159.9956 H   0  0  0  0  0  0  0  0  0  0  0  0  # atno 6908 bound_to 6896
  152.4536  133.7636  159.6816 H   0  0  0  0  0  0  0  0  0  0  0  0  # atno 6909 bound_to 6896
  145.4396  140.9558  143.2082 H   0  0  0  0  0  0  0  0  0  0  0  0  # atno 7974 bound_to 7965
  154.7693  140.0475  157.1038 H   0  0  0  0  0  0  0  0  0  0  0  0  # atno 8008 bound_to 7997
  154.9840  140.3105  155.4915 H   0  0  0  0  0  0  0  0  0  0  0  0  # atno 8009 bound_to 7997
  156.2918  140.2231  156.4941 H   0  0  0  0  0  0  0  0  0  0  0  0  # atno 8010 bound_to 7997
  139.4844  144.4592  151.8728 H   0  0  0  0  0  0  0  0  0  0  0  0  # atno 10167 bound_to 10162
  156.8964  130.5706  149.5649 H   0  0  0  0  0  0  0  0  0  0  0  0  # atno 10718 bound_to 10713
  154.8715  135.4082  154.3019 H   0  0  0  0  0  0  0  0  0  0  0  0  # atno 10763 bound_to 10752
  153.3878  135.7014  153.6523 H   0  0  0  0  0  0  0  0  0  0  0  0  # atno 10764 bound_to 10752
  153.5318  135.3666  155.2651 H   0  0  0  0  0  0  0  0  0  0  0  0  # atno 10765 bound_to 10752
  141.1036  133.6615  156.4352 H   0  0  0  0  0  0  0  0  0  0  0  0  # atno 11005 bound_to 11000
  144.8130  139.5927  143.7021 LP  0  0  0  0  0  0  0  0  0  0  0  0  # atno 17320 bound_to 7965
  146.2563  139.6310  142.9392 LP  0  0  0  0  0  0  0  0  0  0  0  0  # atno 17321 bound_to 7965
  140.4053  144.2440  150.5891 LP  0  0  0  0  0  0  0  0  0  0  0  0  # atno 17342 bound_to 10162
  140.5018  143.2315  151.8667 LP  0  0  0  0  0  0  0  0  0  0  0  0  # atno 17343 bound_to 10162
  156.0603  130.5657  150.9179 LP  0  0  0  0  0  0  0  0  0  0  0  0  # atno 17370 bound_to 10713
  157.6053  131.0939  150.8890 LP  0  0  0  0  0  0  0  0  0  0  0  0  # atno 17371 bound_to 10713
  140.4960  134.6531  157.5229 LP  0  0  0  0  0  0  0  0  0  0  0  0  # atno 17394 bound_to 11000
  139.9897  134.7005  155.9712 LP  0  0  0  0  0  0  0  0  0  0  0  0  # atno 17395 bound_to 11000

$$$$
