AV-unprocessed.smi:1075|AV-procd|sdf|4695|dock3
  -GOLD-   22720 3213D 1   1.00000     0.00000
 Structure written by MMmdl.
 50 51  0  0  0  0  0  0  0  0  1 V2000
  153.7556  142.8615  163.6870 C   0  0  0  0  0  0  0  0  0  0  0  0
  153.0922  143.0563  162.3536 C   0  0  0  0  0  0  0  0  0  0  0  0
  152.5519  144.2281  162.0668 N   0  0  0  0  0  0  0  0  0  0  0  0
  152.0445  144.0783  160.8281 N   0  0  0  0  0  0  0  0  0  0  0  0
  151.3665  145.1961  160.2008 C   0  0  0  0  0  0  0  0  0  0  0  0
  152.2607  142.8075  160.3308 C   0  0  0  0  0  0  0  0  0  0  0  0
  151.7791  142.4016  158.9733 C   0  0  0  0  0  0  0  0  0  0  0  0
  152.9456  142.1109  161.2953 C   0  0  0  0  0  0  0  0  0  0  0  0
  153.4385  140.6771  161.2932 C   0  0  2  0  0  0  0  0  0  0  0  0
  154.9257  140.5842  161.6841 C   0  0  0  0  0  0  0  0  0  0  0  0
  153.1219  140.0196  159.9392 C   0  0  0  0  0  0  0  0  0  0  0  0
  153.7554  140.3259  158.9289 O   0  0  0  0  0  0  0  0  0  0  0  0
  152.1239  139.1165  159.9480 N   0  0  0  0  0  0  0  0  0  0  0  0
  151.5417  138.3765  158.8221 C   0  0  1  0  0  0  0  0  0  0  0  0
  150.4687  137.3919  159.3438 C   0  0  0  0  0  0  0  0  0  0  0  0
  150.8942  139.4465  157.9070 C   0  0  0  0  0  0  0  0  0  0  0  0
  150.4561  138.9100  156.5328 C   0  0  0  0  0  0  0  0  0  0  0  0
  151.6201  138.2318  155.7926 C   0  0  2  0  0  0  0  0  0  0  0  0
  151.1826  137.7001  154.4204 C   0  0  0  0  0  0  0  0  0  0  0  0
  152.2181  137.1167  156.6654 C   0  0  0  0  0  0  0  0  0  0  0  0
  152.6665  137.6441  158.0394 C   0  0  0  0  0  0  0  0  0  0  0  0
  153.3033  142.0306  164.2287 H   0  0  0  0  0  0  0  0  0  0  0  0
  153.6724  143.7490  164.3156 H   0  0  0  0  0  0  0  0  0  0  0  0
  154.8161  142.6411  163.5648 H   0  0  0  0  0  0  0  0  0  0  0  0
  150.2996  144.9833  160.1311 H   0  0  0  0  0  0  0  0  0  0  0  0
  151.7662  145.3537  159.1989 H   0  0  0  0  0  0  0  0  0  0  0  0
  151.5080  146.1080  160.7824 H   0  0  0  0  0  0  0  0  0  0  0  0
  151.7232  141.3182  158.8759 H   0  0  0  0  0  0  0  0  0  0  0  0
  152.4510  142.7742  158.2001 H   0  0  0  0  0  0  0  0  0  0  0  0
  150.7826  142.7962  158.7747 H   0  0  0  0  0  0  0  0  0  0  0  0
  152.8889  140.0975  162.0355 H   0  0  0  0  0  0  0  0  0  0  0  0
  155.5677  141.1215  160.9857 H   0  0  0  0  0  0  0  0  0  0  0  0
  155.2639  139.5479  161.7142 H   0  0  0  0  0  0  0  0  0  0  0  0
  155.0907  141.0079  162.6750 H   0  0  0  0  0  0  0  0  0  0  0  0
  151.6868  138.9489  160.8428 H   0  0  0  0  0  0  0  0  0  0  0  0
  149.9507  136.8847  158.5309 H   0  0  0  0  0  0  0  0  0  0  0  0
  149.7130  137.9096  159.9354 H   0  0  0  0  0  0  0  0  0  0  0  0
  150.9004  136.6140  159.9732 H   0  0  0  0  0  0  0  0  0  0  0  0
  150.0409  139.9048  158.4087 H   0  0  0  0  0  0  0  0  0  0  0  0
  151.6077  140.2550  157.7374 H   0  0  0  0  0  0  0  0  0  0  0  0
  149.6302  138.2084  156.6516 H   0  0  0  0  0  0  0  0  0  0  0  0
  150.0677  139.7337  155.9328 H   0  0  0  0  0  0  0  0  0  0  0  0
  152.3951  138.9809  155.6234 H   0  0  0  0  0  0  0  0  0  0  0  0
  150.4073  136.9396  154.5181 H   0  0  0  0  0  0  0  0  0  0  0  0
  152.0220  137.2537  153.8867 H   0  0  0  0  0  0  0  0  0  0  0  0
  150.7854  138.5020  153.7975 H   0  0  0  0  0  0  0  0  0  0  0  0
  151.4886  136.3172  156.7976 H   0  0  0  0  0  0  0  0  0  0  0  0
  153.0713  136.6665  156.1569 H   0  0  0  0  0  0  0  0  0  0  0  0
  153.5026  138.3285  157.8854 H   0  0  0  0  0  0  0  0  0  0  0  0
  153.0646  136.8135  158.6225 H   0  0  0  0  0  0  0  0  0  0  0  0
  1  2  1  0  0  0  0
  1 22  1  0  0  0  0
  1 23  1  0  0  0  0
  1 24  1  0  0  0  0
  2  8  1  0  0  0  0
  2  3  2  0  0  0  0
  3  4  1  0  0  0  0
  4  5  1  0  0  0  0
  4  6  1  0  0  0  0
  5 25  1  0  0  0  0
  5 26  1  0  0  0  0
  5 27  1  0  0  0  0
  6  7  1  0  0  0  0
  6  8  2  0  0  0  0
  7 28  1  0  0  0  0
  7 29  1  0  0  0  0
  7 30  1  0  0  0  0
  8  9  1  0  0  0  0
  9 10  1  0  0  0  0
  9 11  1  0  0  0  0
  9 31  1  0  0  0  0
 10 32  1  0  0  0  0
 10 33  1  0  0  0  0
 10 34  1  0  0  0  0
 11 12  2  0  0  0  0
 11 13  1  0  0  0  0
 13 14  1  0  0  0  0
 13 35  1  0  0  0  0
 14 21  1  0  0  0  0
 14 15  1  0  0  0  0
 14 16  1  0  0  0  0
 15 36  1  0  0  0  0
 15 37  1  0  0  0  0
 15 38  1  0  0  0  0
 16 17  1  0  0  0  0
 16 39  1  0  0  0  0
 16 40  1  0  0  0  0
 17 18  1  0  0  0  0
 17 41  1  0  0  0  0
 17 42  1  0  0  0  0
 18 19  1  0  0  0  0
 18 20  1  0  0  0  0
 18 43  1  0  0  0  0
 19 44  1  0  0  0  0
 19 45  1  0  0  0  0
 19 46  1  0  0  0  0
 20 21  1  0  0  0  0
 20 47  1  0  0  0  0
 20 48  1  0  0  0  0
 21 49  1  0  0  0  0
 21 50  1  0  0  0  0
M  END
> <s_m_source_file>
AV-unprocessed.smi

> <i_m_source_file_index>
1075

> <i_lp_mmshare_version>
43012

> <i_f3d_flags>
0

> <s_epik_input>
W0NIM11jMW5uKFtDSDNdKWMoW0NIM10pYzFbQ0BIXShbQ0gzXSlDKD1PKVtOSF1bQ0BAXTIoW0NIM10pW0NIMl1bQ0gyXVtDQEBIXShbQ0gzXSlbQ0gyXVtDSDJdMg==

> <s_epik_cmdline>
J2VwaWtfcHl0aG9uJywgJy1waCcsICc3LjAnLCAnLXRuJywgJzgnLCAnLW1hJywgJzIwMCcsICctbWV0YWxfYmluZGluZycsICctaW1hZScsICc8aW5maWxlLm1hZT4nLCAnLW9tYWUnLCAnPG91dGZpbGUubWFlPic=

> <r_lp_tautomer_probability>
1

> <r_epik_Ionization_Penalty>
0.00502928

> <r_epik_Ionization_Penalty_Charging>
0

> <r_epik_Ionization_Penalty_Neutral>
0.00502928

> <r_epik_State_Penalty>
0.0036576

> <r_epik_Charging_Adjusted_Penalty>
0.0036576

> <i_epik_Tot_Q>
0

> <i_epik_Tot_abs_Q>
0

> <r_epik_Metal_State_Penalty>
-0

> <b_epik_Metal_Only>
0

> <s_lp_Force_Field>
OPLS_2005

> <r_lp_Energy>
7.43589

> <b_lp_Chiralities_Consistent>
1

> <s_lp_Variant>
AV-unprocessed.smi:1075-3

> <Gold.Version>
5.8.1

> <Gold.Id.Protein>
6NUR|6NUR_protein|mol2

> <Gold.PLP.Fitness>
37.8756

> <Gold.PLP.PLP>
-39.2468

> <Gold.PLP.part.hbond>
-1.0000

> <Gold.PLP.part.metal>
0.0000

> <Gold.PLP.part.buried>
0.9494

> <Gold.PLP.part.nonpolar>
-38.6376

> <Gold.PLP.part.repulsive>
0.3018

> <Gold.PLP.ligand.clash>
3.2803

> <Gold.PLP.ligand.torsion>
0.3219

> <Gold.PLP.Chemscore.Hbond>
0.8160

> <Gold.PLP.Chemscore.CHOScore>
0.0000

> <Gold.PLP.Chemscore.Metal>
0.0000

> <Gold.Chemscore.Hbonds>
donor molecule, donor type, donor heavy atom, donor atom, acceptor molecule, acceptor atom, score
      P1  H  7997  8010       L1    12  0.86

> <Gold.PLP.Chemscore.Internal.Correction>
0.1049

> <Gold.Rescore>
     Score         DG    S(hbond)    S(metal)    S(lipo)     H(rot)  DE(clash)    DE(int)     intcor
     15.06     -19.67       0.84        0.00     124.32       1.23       0.73       3.87       ----

> <Gold.Chemscore.Fitness>
15.0629

> <Gold.Chemscore.DG>
-19.6670

> <Gold.Chemscore.ZeroCoef>
-5.4800

> <Gold.Chemscore.Hbond>
0.8370

> <Gold.Chemscore.Metal>
0.0000

> <Gold.Chemscore.Lipo>
124.3206

> <Gold.Chemscore.Internal_Hbond>
0.0000

> <Gold.Chemscore.DEClash>
0.7308

> <Gold.Chemscore.DEInternal>
3.8733

> <Gold.Chemscore.Rot>
1.2321

> <Gold.Chemscore.Internal.Correction>
   9.000000E+99

> <Gold.Chemscore.Hbonds>
donor molecule, donor type, donor heavy atom, donor atom, acceptor molecule, acceptor atom, score
      P1  H  7997  8010       L1    12  0.78

> <Gold.Chemscore.Hbond.Weighted>
-2.7956

> <Gold.Chemscore.Metal.Weighted>
-0.0000

> <Gold.Chemscore.Lipo.Weighted>
-14.5455

> <Gold.Chemscore.Internal_Hbond.Weighted>
0.0000

> <Gold.Chemscore.DEClash.Weighted>
0.7308

> <Gold.Chemscore.DEInternal.Weighted>
3.8733

> <Gold.Chemscore.Rot.Weighted>
3.1541

> <Gold.Chemscore.Internal.Correction.Weighted>
   9.000000E+99

> <Gold.Protein.RotatedTorsions>
[ 6907 6896 6895 6894 ] final   -5.35 input  -60.11 | X-H torsion
[ 7974 7965 7964 7962 ] final  113.65 input  175.53 | X-H torsion
[ 8008 7997 7996 7995 ] final   15.10 input   59.86 | X-H torsion
[ 10167 10162 10161 10158 ] final   94.43 input  -65.29 | X-H torsion
[ 10718 10713 10712 10709 ] final   85.12 input   66.30 | X-H torsion
[ 10763 10752 10751 10750 ] final   79.69 input  -60.55 | X-H torsion
[ 11005 11000 10999 10996 ] final  121.37 input  -57.11 | X-H torsion

> <Gold.Protein.ActiveResidues>
 VAL166  LYS551  ARG553  GLY616  TRP617  ASP618  TYR619  PRO620  LYS621  CYS622 
 ASP623  PHE694  ASN695  SER759  ASP760  ASP761  ALA762  ILE779  LEU786  VAL792 
 PHE793  MET794  SER795  GLU796  ALA797  LYS798  CYS799  TRP800  GLU811  SER814 

> <Gold.Protein.RotatedAtoms>
  151.4831  135.1053  159.9782 H   0  0  0  0  0  0  0  0  0  0  0  0  # atno 6907 bound_to 6896
  152.4771  133.8161  159.7039 H   0  0  0  0  0  0  0  0  0  0  0  0  # atno 6908 bound_to 6896
  150.8817  133.7302  159.2956 H   0  0  0  0  0  0  0  0  0  0  0  0  # atno 6909 bound_to 6896
  145.2142  139.2892  143.4252 H   0  0  0  0  0  0  0  0  0  0  0  0  # atno 7974 bound_to 7965
  154.8579  140.2940  155.5557 H   0  0  0  0  0  0  0  0  0  0  0  0  # atno 8008 bound_to 7997
  156.3019  140.2483  156.3481 H   0  0  0  0  0  0  0  0  0  0  0  0  # atno 8009 bound_to 7997
  154.8950  140.0393  157.1850 H   0  0  0  0  0  0  0  0  0  0  0  0  # atno 8010 bound_to 7997
  139.8084  144.6784  150.9672 H   0  0  0  0  0  0  0  0  0  0  0  0  # atno 10167 bound_to 10162
  157.6909  131.0162  150.2775 H   0  0  0  0  0  0  0  0  0  0  0  0  # atno 10718 bound_to 10713
  153.0973  135.4830  154.8802 H   0  0  0  0  0  0  0  0  0  0  0  0  # atno 10763 bound_to 10752
  154.7339  135.3066  154.8847 H   0  0  0  0  0  0  0  0  0  0  0  0  # atno 10764 bound_to 10752
  153.9475  135.6827  153.4797 H   0  0  0  0  0  0  0  0  0  0  0  0  # atno 10765 bound_to 10752
  139.9223  134.9638  156.7949 H   0  0  0  0  0  0  0  0  0  0  0  0  # atno 11005 bound_to 11000
  146.3391  140.2428  142.8596 LP  0  0  0  0  0  0  0  0  0  0  0  0  # atno 17320 bound_to 7965
  144.9827  140.8474  143.5387 LP  0  0  0  0  0  0  0  0  0  0  0  0  # atno 17321 bound_to 7965
  140.7818  143.4210  151.0842 LP  0  0  0  0  0  0  0  0  0  0  0  0  # atno 17342 bound_to 10162
  139.7878  143.8262  152.3147 LP  0  0  0  0  0  0  0  0  0  0  0  0  # atno 17343 bound_to 10162
  156.3328  130.3803  149.7476 LP  0  0  0  0  0  0  0  0  0  0  0  0  # atno 17370 bound_to 10713
  156.5011  130.8129  151.3132 LP  0  0  0  0  0  0  0  0  0  0  0  0  # atno 17371 bound_to 10713
  140.6437  133.9795  155.7720 LP  0  0  0  0  0  0  0  0  0  0  0  0  # atno 17394 bound_to 11000
  141.0754  134.0143  157.3465 LP  0  0  0  0  0  0  0  0  0  0  0  0  # atno 17395 bound_to 11000

$$$$
