AV-unprocessed.smi:2382|AV-procd|sdf|9458|dock4
  -GOLD-   2272013 83D 1   1.00000     0.00000
 Structure written by MMmdl.
 37 38  0  0  0  0  0  0  0  0  1 V2000
  152.1310  144.9442  159.1671 C   0  0  0  0  0  0  0  0  0  0  0  0
  152.4009  143.4863  159.4071 C   0  0  0  0  0  0  0  0  0  0  0  0
  153.4075  143.1347  160.1901 N   0  0  0  0  0  0  0  0  0  0  0  0
  153.3807  141.7865  160.2011 N   0  0  0  0  0  0  0  0  0  0  0  0
  154.3663  141.0620  160.9795 C   0  0  0  0  0  0  0  0  0  0  0  0
  152.3531  141.2857  159.4249 C   0  0  0  0  0  0  0  0  0  0  0  0
  152.1038  139.8195  159.2757 C   0  0  0  0  0  0  0  0  0  0  0  0
  151.6979  142.3603  158.8870 C   0  0  0  0  0  0  0  0  0  0  0  0
  150.5074  142.3701  157.9667 C   0  0  0  0  0  0  0  0  0  0  0  0
  150.9396  142.2869  156.4944 C   0  0  0  0  0  0  0  0  0  0  0  0
  149.7987  142.0820  155.6112 N   0  0  0  0  0  0  0  0  0  0  0  0
  149.6150  141.0086  154.8265 C   0  0  0  0  0  0  0  0  0  0  0  0
  150.3936  140.0569  154.7744 O   0  0  0  0  0  0  0  0  0  0  0  0
  148.4661  141.0530  154.1337 N   0  0  0  0  0  0  0  0  0  0  0  0
  147.6516  140.0197  153.5038 C   0  0  0  0  0  0  0  0  0  0  0  0
  146.6954  141.1451  153.1121 C   0  0  0  0  0  0  0  0  0  0  0  0
  147.4185  142.0636  154.0964 C   0  0  0  0  0  0  0  0  0  0  0  0
  151.0753  145.1220  158.9617 H   0  0  0  0  0  0  0  0  0  0  0  0
  152.7012  145.3100  158.3134 H   0  0  0  0  0  0  0  0  0  0  0  0
  152.4024  145.5488  160.0329 H   0  0  0  0  0  0  0  0  0  0  0  0
  154.8372  140.2993  160.3591 H   0  0  0  0  0  0  0  0  0  0  0  0
  153.8792  140.5812  161.8279 H   0  0  0  0  0  0  0  0  0  0  0  0
  155.1375  141.7381  161.3506 H   0  0  0  0  0  0  0  0  0  0  0  0
  151.1108  139.6291  158.8686 H   0  0  0  0  0  0  0  0  0  0  0  0
  152.1692  139.3105  160.2374 H   0  0  0  0  0  0  0  0  0  0  0  0
  152.8349  139.3706  158.6035 H   0  0  0  0  0  0  0  0  0  0  0  0
  149.8416  141.5383  158.1999 H   0  0  0  0  0  0  0  0  0  0  0  0
  149.9109  143.2706  158.1179 H   0  0  0  0  0  0  0  0  0  0  0  0
  151.4331  143.2133  156.1989 H   0  0  0  0  0  0  0  0  0  0  0  0
  151.6693  141.4876  156.3533 H   0  0  0  0  0  0  0  0  0  0  0  0
  149.0955  142.8061  155.5961 H   0  0  0  0  0  0  0  0  0  0  0  0
  148.1187  139.5249  152.6515 H   0  0  0  0  0  0  0  0  0  0  0  0
  147.2245  139.3060  154.2096 H   0  0  0  0  0  0  0  0  0  0  0  0
  146.8137  141.4601  152.0740 H   0  0  0  0  0  0  0  0  0  0  0  0
  145.6506  140.9542  153.3594 H   0  0  0  0  0  0  0  0  0  0  0  0
  146.8961  142.1892  155.0459 H   0  0  0  0  0  0  0  0  0  0  0  0
  147.7213  143.0188  153.6659 H   0  0  0  0  0  0  0  0  0  0  0  0
  1  2  1  0  0  0  0
  1 18  1  0  0  0  0
  1 19  1  0  0  0  0
  1 20  1  0  0  0  0
  2  8  1  0  0  0  0
  2  3  2  0  0  0  0
  3  4  1  0  0  0  0
  4  5  1  0  0  0  0
  4  6  1  0  0  0  0
  5 21  1  0  0  0  0
  5 22  1  0  0  0  0
  5 23  1  0  0  0  0
  6  7  1  0  0  0  0
  6  8  2  0  0  0  0
  7 24  1  0  0  0  0
  7 25  1  0  0  0  0
  7 26  1  0  0  0  0
  8  9  1  0  0  0  0
  9 10  1  0  0  0  0
  9 27  1  0  0  0  0
  9 28  1  0  0  0  0
 10 11  1  0  0  0  0
 10 29  1  0  0  0  0
 10 30  1  0  0  0  0
 11 12  1  0  0  0  0
 11 31  1  0  0  0  0
 12 13  2  0  0  0  0
 12 14  1  0  0  0  0
 14 17  1  0  0  0  0
 14 15  1  0  0  0  0
 15 16  1  0  0  0  0
 15 32  1  0  0  0  0
 15 33  1  0  0  0  0
 16 17  1  0  0  0  0
 16 34  1  0  0  0  0
 16 35  1  0  0  0  0
 17 36  1  0  0  0  0
 17 37  1  0  0  0  0
M  END
> <s_m_source_file>
AV-unprocessed.smi

> <i_m_source_file_index>
2382

> <i_lp_mmshare_version>
43012

> <i_f3d_flags>
0

> <s_epik_input>
W0NIM11jMW5uKFtDSDNdKWMoW0NIM10pYzFbQ0gyXVtDSDJdW05IXUMoPU8pTjJbQ0gyXVtDSDJdW0NIMl0y

> <s_epik_cmdline>
J2VwaWtfcHl0aG9uJywgJy1waCcsICc3LjAnLCAnLXRuJywgJzgnLCAnLW1hJywgJzIwMCcsICctbWV0YWxfYmluZGluZycsICctaW1hZScsICc8aW5maWxlLm1hZT4nLCAnLW9tYWUnLCAnPG91dGZpbGUubWFlPic=

> <r_lp_tautomer_probability>
1

> <r_epik_Ionization_Penalty>
0.0127252

> <r_epik_Ionization_Penalty_Charging>
0

> <r_epik_Ionization_Penalty_Neutral>
0.0127252

> <r_epik_State_Penalty>
0.00981091

> <r_epik_Charging_Adjusted_Penalty>
0.00981091

> <i_epik_Tot_Q>
0

> <i_epik_Tot_abs_Q>
0

> <r_epik_Metal_State_Penalty>
0.00960532

> <b_epik_Metal_Only>
0

> <s_lp_Force_Field>
OPLS_2005

> <r_lp_Energy>
14.7801

> <b_lp_Chiralities_Consistent>
1

> <s_lp_Variant>
AV-unprocessed.smi:2382-1

> <Gold.Version>
5.8.1

> <Gold.Id.Protein>
6NUR|6NUR_protein|mol2

> <Gold.PLP.Fitness>
45.6031

> <Gold.PLP.PLP>
-40.9650

> <Gold.PLP.part.hbond>
-2.0000

> <Gold.PLP.part.metal>
0.0000

> <Gold.PLP.part.buried>
-1.6768

> <Gold.PLP.part.nonpolar>
-36.3590

> <Gold.PLP.part.repulsive>
0.2396

> <Gold.PLP.ligand.clash>
0.0000

> <Gold.PLP.ligand.torsion>
0.4844

> <Gold.PLP.Chemscore.Hbond>
1.8320

> <Gold.PLP.Chemscore.CHOScore>
0.0000

> <Gold.PLP.Chemscore.Metal>
0.0000

> <Gold.Chemscore.Hbonds>
donor molecule, donor type, donor heavy atom, donor atom, acceptor molecule, acceptor atom, score
      L1  H    11    31       P1  8028  0.85
      P1  H  7989  7998       L1    13  0.80

> <Gold.PLP.Chemscore.Internal.Correction>
0.1109

> <Gold.Rescore>
     Score         DG    S(hbond)    S(metal)    S(lipo)     H(rot)  DE(clash)    DE(int)     intcor
     17.61     -18.39       1.53        0.00      97.40       1.40       0.37       0.41       ----

> <Gold.Chemscore.Fitness>
17.6091

> <Gold.Chemscore.DG>
-18.3898

> <Gold.Chemscore.ZeroCoef>
-5.4800

> <Gold.Chemscore.Hbond>
1.5278

> <Gold.Chemscore.Metal>
0.0000

> <Gold.Chemscore.Lipo>
97.4015

> <Gold.Chemscore.Internal_Hbond>
0.0000

> <Gold.Chemscore.DEClash>
0.3677

> <Gold.Chemscore.DEInternal>
0.4130

> <Gold.Chemscore.Rot>
1.4020

> <Gold.Chemscore.Internal.Correction>
   9.000000E+99

> <Gold.Chemscore.Hbonds>
donor molecule, donor type, donor heavy atom, donor atom, acceptor molecule, acceptor atom, score
      L1  H    11    31       P1  8028  0.83
      P1  H  7989  7998       L1    13  0.12

> <Gold.Chemscore.Hbond.Weighted>
-5.1028

> <Gold.Chemscore.Metal.Weighted>
-0.0000

> <Gold.Chemscore.Lipo.Weighted>
-11.3960

> <Gold.Chemscore.Internal_Hbond.Weighted>
0.0000

> <Gold.Chemscore.DEClash.Weighted>
0.3677

> <Gold.Chemscore.DEInternal.Weighted>
0.4130

> <Gold.Chemscore.Rot.Weighted>
3.5890

> <Gold.Chemscore.Internal.Correction.Weighted>
   9.000000E+99

> <Gold.Protein.RotatedTorsions>
[ 6907 6896 6895 6894 ] final -111.17 input  -60.11 | X-H torsion
[ 7974 7965 7964 7962 ] final  161.29 input  175.53 | X-H torsion
[ 8008 7997 7996 7995 ] final -157.70 input   59.86 | X-H torsion
[ 10167 10162 10161 10158 ] final   59.82 input  -65.29 | X-H torsion
[ 10718 10713 10712 10709 ] final  128.66 input   66.30 | X-H torsion
[ 10763 10752 10751 10750 ] final  -23.12 input  -60.55 | X-H torsion
[ 11005 11000 10999 10996 ] final -123.24 input  -57.11 | X-H torsion

> <Gold.Protein.ActiveResidues>
 VAL166  LYS551  ARG553  GLY616  TRP617  ASP618  TYR619  PRO620  LYS621  CYS622 
 ASP623  PHE694  ASN695  SER759  ASP760  ASP761  ALA762  ILE779  LEU786  VAL792 
 PHE793  MET794  SER795  GLU796  ALA797  LYS798  CYS799  TRP800  GLU811  SER814 

> <Gold.Protein.RotatedAtoms>
  150.7673  133.9274  159.3416 H   0  0  0  0  0  0  0  0  0  0  0  0  # atno 6907 bound_to 6896
  151.7169  135.0900  160.0287 H   0  0  0  0  0  0  0  0  0  0  0  0  # atno 6908 bound_to 6896
  152.3674  133.6337  159.6097 H   0  0  0  0  0  0  0  0  0  0  0  0  # atno 6909 bound_to 6896
  144.7693  139.7878  143.6303 H   0  0  0  0  0  0  0  0  0  0  0  0  # atno 7974 bound_to 7965
  155.7365  140.0808  157.2265 H   0  0  0  0  0  0  0  0  0  0  0  0  # atno 8008 bound_to 7997
  154.4027  140.1586  156.2622 H   0  0  0  0  0  0  0  0  0  0  0  0  # atno 8009 bound_to 7997
  155.9060  140.3407  155.6065 H   0  0  0  0  0  0  0  0  0  0  0  0  # atno 8010 bound_to 7997
  140.1723  144.4264  150.6655 H   0  0  0  0  0  0  0  0  0  0  0  0  # atno 10167 bound_to 10162
  157.5224  131.1098  150.9133 H   0  0  0  0  0  0  0  0  0  0  0  0  # atno 10718 bound_to 10713
  153.6628  135.6975  153.5172 H   0  0  0  0  0  0  0  0  0  0  0  0  # atno 10763 bound_to 10752
  153.2618  135.4242  155.0901 H   0  0  0  0  0  0  0  0  0  0  0  0  # atno 10764 bound_to 10752
  154.8447  135.3557  154.6173 H   0  0  0  0  0  0  0  0  0  0  0  0  # atno 10765 bound_to 10752
  140.9934  134.0507  157.3627 H   0  0  0  0  0  0  0  0  0  0  0  0  # atno 11005 bound_to 11000
  146.1826  139.5026  142.9856 LP  0  0  0  0  0  0  0  0  0  0  0  0  # atno 17320 bound_to 7965
  145.6373  141.0292  143.1831 LP  0  0  0  0  0  0  0  0  0  0  0  0  # atno 17321 bound_to 7965
  140.6574  143.2241  151.5937 LP  0  0  0  0  0  0  0  0  0  0  0  0  # atno 17342 bound_to 10162
  139.5332  144.2855  152.1195 LP  0  0  0  0  0  0  0  0  0  0  0  0  # atno 17343 bound_to 10162
  156.9739  130.5501  149.5292 LP  0  0  0  0  0  0  0  0  0  0  0  0  # atno 17370 bound_to 10713
  156.0363  130.5450  150.8661 LP  0  0  0  0  0  0  0  0  0  0  0  0  # atno 17371 bound_to 10713
  139.9003  135.0162  156.7235 LP  0  0  0  0  0  0  0  0  0  0  0  0  # atno 17394 bound_to 11000
  140.7004  133.9311  155.8021 LP  0  0  0  0  0  0  0  0  0  0  0  0  # atno 17395 bound_to 11000

$$$$
