AV-unprocessed.smi:862|AV-procd|sdf|3981|dock3
  -GOLD-   22720 1453D 1   1.00000     0.00000
 Structure written by MMmdl.
 45 47  0  0  0  0  0  0  0  0  3 V2000
  150.3306  136.1389  157.3759 N   0  0  0  0  0  0  0  0  0  0  0  0
  150.7575  135.1089  156.6388 C   0  0  0  0  0  0  0  0  0  0  0  0
  151.9537  134.9535  156.4001 O   0  0  0  0  0  0  0  0  0  0  0  0
  149.7902  134.2492  156.2308 N   0  0  0  0  0  0  0  0  0  0  0  0
  148.3480  134.3787  156.4952 C   0  0  0  0  0  0  0  0  0  0  0  0
  147.6517  134.8560  155.2077 C   0  0  0  0  0  0  0  0  0  0  0  0
  147.9241  133.8935  154.0321 C   0  0  0  0  0  0  0  0  0  0  0  0
  147.3482  134.4503  152.7865 N   0  3  0  0  0  0  0  0  0  0  0  0
  145.9159  134.8329  152.8378 C   0  0  1  0  0  0  0  0  0  0  0  0
  145.5227  135.9026  151.8130 C   0  0  0  0  0  0  0  0  0  0  0  0
  144.0051  135.7506  151.6410 C   0  0  0  0  0  0  0  0  0  0  0  0
  143.6311  134.3688  152.2060 C   0  0  0  0  0  0  0  0  0  0  0  0
  144.9507  133.6636  152.5631 C   0  0  1  0  0  0  0  0  0  0  0  0
  145.4002  132.7517  151.4890 N   0  0  0  0  0  0  0  0  0  0  0  0
  145.5595  133.0153  150.1490 C   0  0  0  0  0  0  0  0  0  0  0  0
  146.0114  131.8583  149.5691 C   0  0  0  0  0  0  0  0  0  0  0  0
  146.1155  130.9366  150.5747 N   0  3  0  0  0  0  0  0  0  0  0  0
  145.7474  131.4807  151.7389 C   0  0  0  0  0  0  0  0  0  0  0  0
  149.4392  133.6161  153.8904 C   0  0  0  0  0  0  0  0  0  0  0  0
  150.0558  133.2010  155.2386 C   0  0  0  0  0  0  0  0  0  0  0  0
  150.9972  136.8124  157.7246 H   0  0  0  0  0  0  0  0  0  0  0  0
  149.3494  136.2349  157.5921 H   0  0  0  0  0  0  0  0  0  0  0  0
  147.9505  133.4086  156.7974 H   0  0  0  0  0  0  0  0  0  0  0  0
  148.1093  135.0565  157.3148 H   0  0  0  0  0  0  0  0  0  0  0  0
  146.5780  134.9419  155.3790 H   0  0  0  0  0  0  0  0  0  0  0  0
  148.0064  135.8577  154.9593 H   0  0  0  0  0  0  0  0  0  0  0  0
  147.4199  132.9543  154.2621 H   0  0  0  0  0  0  0  0  0  0  0  0
  147.8757  135.2764  152.5431 H   0  0  0  0  0  0  0  0  0  0  0  0
  145.6846  135.2104  153.8342 H   0  0  0  0  0  0  0  0  0  0  0  0
  145.7959  136.9082  152.1346 H   0  0  0  0  0  0  0  0  0  0  0  0
  146.0223  135.7192  150.8610 H   0  0  0  0  0  0  0  0  0  0  0  0
  143.4762  136.5321  152.1882 H   0  0  0  0  0  0  0  0  0  0  0  0
  143.7219  135.8449  150.5920 H   0  0  0  0  0  0  0  0  0  0  0  0
  143.0394  134.5049  153.1123 H   0  0  0  0  0  0  0  0  0  0  0  0
  143.0152  133.7918  151.5148 H   0  0  0  0  0  0  0  0  0  0  0  0
  144.8185  133.0611  153.4639 H   0  0  0  0  0  0  0  0  0  0  0  0
  145.3396  133.9773  149.7096 H   0  0  0  0  0  0  0  0  0  0  0  0
  146.2588  131.6276  148.5428 H   0  0  0  0  0  0  0  0  0  0  0  0
  145.7303  130.9847  152.6934 H   0  0  0  0  0  0  0  0  0  0  0  0
  149.6215  132.8288  153.1593 H   0  0  0  0  0  0  0  0  0  0  0  0
  149.9479  134.5076  153.5205 H   0  0  0  0  0  0  0  0  0  0  0  0
  151.1214  133.0006  155.1167 H   0  0  0  0  0  0  0  0  0  0  0  0
  149.6178  132.2618  155.5792 H   0  0  0  0  0  0  0  0  0  0  0  0
  147.4745  133.7639  152.0567 H   0  0  0  0  0  0  0  0  0  0  0  0
  146.4195  129.9780  150.4549 H   0  0  0  0  0  0  0  0  0  0  0  0
  1  2  1  0  0  0  0
  1 21  1  0  0  0  0
  1 22  1  0  0  0  0
  2  3  2  0  0  0  0
  2  4  1  0  0  0  0
  4 20  1  0  0  0  0
  4  5  1  0  0  0  0
  5  6  1  0  0  0  0
  5 23  1  0  0  0  0
  5 24  1  0  0  0  0
  6  7  1  0  0  0  0
  6 25  1  0  0  0  0
  6 26  1  0  0  0  0
  7  8  1  0  0  0  0
  7 19  1  0  0  0  0
  7 27  1  0  0  0  0
  8  9  1  0  0  0  0
  8 28  1  0  0  0  0
  8 44  1  0  0  0  0
  9 13  1  0  0  0  0
  9 10  1  0  0  0  0
  9 29  1  0  0  0  0
 10 11  1  0  0  0  0
 10 30  1  0  0  0  0
 10 31  1  0  0  0  0
 11 12  1  0  0  0  0
 11 32  1  0  0  0  0
 11 33  1  0  0  0  0
 12 13  1  0  0  0  0
 12 34  1  0  0  0  0
 12 35  1  0  0  0  0
 13 14  1  0  0  0  0
 13 36  1  0  0  0  0
 14 18  1  0  0  0  0
 14 15  1  0  0  0  0
 15 16  2  0  0  0  0
 15 37  1  0  0  0  0
 16 17  1  0  0  0  0
 16 38  1  0  0  0  0
 17 18  2  0  0  0  0
 17 45  1  0  0  0  0
 18 39  1  0  0  0  0
 19 20  1  0  0  0  0
 19 40  1  0  0  0  0
 19 41  1  0  0  0  0
 20 42  1  0  0  0  0
 20 43  1  0  0  0  0
M  CHG  1   8   1
M  CHG  1  17   1
M  END
> <s_m_source_file>
AV-unprocessed.smi

> <i_m_source_file_index>
862

> <i_lp_mmshare_version>
43012

> <i_f3d_flags>
0

> <s_epik_input>
W05IMl1DKD1PKU4xW0NIMl1bQ0gyXVtDSF0oW0NIMl1bQ0gyXTEpW05IXVtDQEBIXTJbQ0gyXVtDSDJdW0NIMl1bQ0BIXTJuM1tjSF1bY0hdbltjSF0z

> <s_epik_cmdline>
J2VwaWtfcHl0aG9uJywgJy1waCcsICc3LjAnLCAnLXRuJywgJzgnLCAnLW1hJywgJzIwMCcsICctbWV0YWxfYmluZGluZycsICctaW1hZScsICc8aW5maWxlLm1hZT4nLCAnLW9tYWUnLCAnPG91dGZpbGUubWFlPic=

> <r_lp_tautomer_probability>
1

> <r_epik_Ionization_Penalty>
1.30217

> <r_epik_Ionization_Penalty_Charging>
0.00439521

> <r_epik_Ionization_Penalty_Neutral>
1.29777

> <r_epik_State_Penalty>
0.977606

> <r_epik_Charging_Adjusted_Penalty>
0.982001

> <i_epik_Tot_Q>
2

> <i_epik_Tot_abs_Q>
2

> <r_epik_Metal_State_Penalty>
1.03289

> <b_epik_Metal_Only>
0

> <s_lp_Force_Field>
OPLS_2005

> <r_lp_Energy>
67.0187

> <b_lp_Chiralities_Consistent>
1

> <s_lp_Variant>
AV-unprocessed.smi:862-6

> <Gold.Version>
5.8.1

> <Gold.Id.Protein>
6NUR|6NUR_protein|mol2

> <Gold.PLP.Fitness>
41.6522

> <Gold.PLP.PLP>
-30.4521

> <Gold.PLP.part.hbond>
-3.0000

> <Gold.PLP.part.metal>
0.0000

> <Gold.PLP.part.buried>
-2.9986

> <Gold.PLP.part.nonpolar>
-24.6206

> <Gold.PLP.part.repulsive>
0.1698

> <Gold.PLP.ligand.clash>
0.0000

> <Gold.PLP.ligand.torsion>
0.4355

> <Gold.PLP.Chemscore.Hbond>
3.0000

> <Gold.PLP.Chemscore.CHOScore>
0.9934

> <Gold.PLP.Chemscore.Metal>
0.0000

> <Gold.Chemscore.Hbonds>
donor molecule, donor type, donor heavy atom, donor atom, acceptor molecule, acceptor atom, score
      L1  H     8    28       P1  7948  2.00
      P1  H 10752 10764       L1     3  0.98
      L1  C    15    37       P1  7921  0.93

> <Gold.PLP.Chemscore.Internal.Correction>
0.0909

> <Gold.Rescore>
     Score         DG    S(hbond)    S(metal)    S(lipo)     H(rot)  DE(clash)    DE(int)     intcor
     14.94     -15.40       1.96        0.00      65.69       1.68       0.08       0.38       ----

> <Gold.Chemscore.Fitness>
14.9356

> <Gold.Chemscore.DG>
-15.4007

> <Gold.Chemscore.ZeroCoef>
-5.4800

> <Gold.Chemscore.Hbond>
1.9580

> <Gold.Chemscore.Metal>
0.0000

> <Gold.Chemscore.Lipo>
65.6881

> <Gold.Chemscore.Internal_Hbond>
0.0000

> <Gold.Chemscore.DEClash>
0.0835

> <Gold.Chemscore.DEInternal>
0.3817

> <Gold.Chemscore.Rot>
1.6814

> <Gold.Chemscore.Internal.Correction>
   9.000000E+99

> <Gold.Chemscore.Hbonds>
donor molecule, donor type, donor heavy atom, donor atom, acceptor molecule, acceptor atom, score
      L1  H     8    28       P1  7948  0.96
      P1  H 10752 10764       L1     3  0.93

> <Gold.Chemscore.Hbond.Weighted>
-6.5396

> <Gold.Chemscore.Metal.Weighted>
-0.0000

> <Gold.Chemscore.Lipo.Weighted>
-7.6855

> <Gold.Chemscore.Internal_Hbond.Weighted>
0.0000

> <Gold.Chemscore.DEClash.Weighted>
0.0835

> <Gold.Chemscore.DEInternal.Weighted>
0.3817

> <Gold.Chemscore.Rot.Weighted>
4.3043

> <Gold.Chemscore.Internal.Correction.Weighted>
   9.000000E+99

> <Gold.Protein.RotatedTorsions>
[ 6907 6896 6895 6894 ] final   62.12 input  -60.11 | X-H torsion
[ 7974 7965 7964 7962 ] final  117.12 input  175.53 | X-H torsion
[ 8008 7997 7996 7995 ] final  135.94 input   59.86 | X-H torsion
[ 10167 10162 10161 10158 ] final  106.12 input  -65.29 | X-H torsion
[ 10718 10713 10712 10709 ] final   65.94 input   66.30 | X-H torsion
[ 10763 10752 10751 10750 ] final  -15.52 input  -60.55 | X-H torsion
[ 11005 11000 10999 10996 ] final -121.17 input  -57.11 | X-H torsion

> <Gold.Protein.ActiveResidues>
 VAL166  LYS551  ARG553  GLY616  TRP617  ASP618  TYR619  PRO620  LYS621  CYS622 
 ASP623  PHE694  ASN695  SER759  ASP760  ASP761  ALA762  ILE779  LEU786  VAL792 
 PHE793  MET794  SER795  GLU796  ALA797  LYS798  CYS799  TRP800  GLU811  SER814 

> <Gold.Protein.RotatedAtoms>
  152.4145  134.6065  160.0013 H   0  0  0  0  0  0  0  0  0  0  0  0  # atno 6907 bound_to 6896
  151.6232  133.3332  159.3100 H   0  0  0  0  0  0  0  0  0  0  0  0  # atno 6908 bound_to 6896
  150.8035  134.7184  159.6688 H   0  0  0  0  0  0  0  0  0  0  0  0  # atno 6909 bound_to 6896
  145.1713  139.3100  143.4466 H   0  0  0  0  0  0  0  0  0  0  0  0  # atno 7974 bound_to 7965
  156.3004  140.2458  156.3663 H   0  0  0  0  0  0  0  0  0  0  0  0  # atno 8008 bound_to 7997
  154.8830  140.0412  157.1813 H   0  0  0  0  0  0  0  0  0  0  0  0  # atno 8009 bound_to 7997
  154.8676  140.2930  155.5504 H   0  0  0  0  0  0  0  0  0  0  0  0  # atno 8010 bound_to 7997
  139.7035  144.7090  151.1145 H   0  0  0  0  0  0  0  0  0  0  0  0  # atno 10167 bound_to 10162
  157.6137  130.9241  150.0043 H   0  0  0  0  0  0  0  0  0  0  0  0  # atno 10718 bound_to 10713
  153.5446  135.7012  153.5620 H   0  0  0  0  0  0  0  0  0  0  0  0  # atno 10763 bound_to 10752
  153.3571  135.3980  155.1690 H   0  0  0  0  0  0  0  0  0  0  0  0  # atno 10764 bound_to 10752
  154.8669  135.3779  154.4953 H   0  0  0  0  0  0  0  0  0  0  0  0  # atno 10765 bound_to 10752
  141.0090  134.0292  157.3439 H   0  0  0  0  0  0  0  0  0  0  0  0  # atno 11005 bound_to 11000
  146.3468  140.1859  142.8589 LP  0  0  0  0  0  0  0  0  0  0  0  0  # atno 17320 bound_to 7965
  145.0230  140.8809  143.5155 LP  0  0  0  0  0  0  0  0  0  0  0  0  # atno 17321 bound_to 7965
  140.7716  143.5391  150.9334 LP  0  0  0  0  0  0  0  0  0  0  0  0  # atno 17342 bound_to 10162
  139.9073  143.6763  152.3121 LP  0  0  0  0  0  0  0  0  0  0  0  0  # atno 17343 bound_to 10162
  156.1251  130.3645  149.9823 LP  0  0  0  0  0  0  0  0  0  0  0  0  # atno 17370 bound_to 10713
  156.7896  130.9251  151.3646 LP  0  0  0  0  0  0  0  0  0  0  0  0  # atno 17371 bound_to 10713
  139.9079  135.0184  156.7567 LP  0  0  0  0  0  0  0  0  0  0  0  0  # atno 17394 bound_to 11000
  140.6765  133.9513  155.7886 LP  0  0  0  0  0  0  0  0  0  0  0  0  # atno 17395 bound_to 11000

$$$$
