AV-unprocessed.smi:3068|AV-procd|sdf|11707|dock4
  -GOLD-   2272017113D 1   1.00000     0.00000
 Structure written by MMmdl.
 39 41  0  0  0  0  0  0  0  0  1 V2000
  151.9079  137.0805  155.2935 N   0  0  0  0  0  0  0  0  0  0  0  0
  151.2371  138.0227  155.3331 C   0  0  0  0  0  0  0  0  0  0  0  0
  150.3925  139.2095  155.3826 C   0  0  0  0  0  0  0  0  0  0  0  0
  150.2567  139.9061  154.2303 N   0  0  0  0  0  0  0  0  0  0  0  0
  149.4777  141.0082  154.2620 C   0  0  0  0  0  0  0  0  0  0  0  0
  148.8307  141.4199  155.4430 C   0  0  0  0  0  0  0  0  0  0  0  0
  148.9593  140.7305  156.5962 N   0  0  0  0  0  0  0  0  0  0  0  0
  149.7412  139.6218  156.5795 C   0  0  0  0  0  0  0  0  0  0  0  0
  149.8831  138.8901  157.7734 N   0  0  0  0  0  0  0  0  0  0  0  0
  151.1366  138.8717  158.5184 C   0  0  0  0  0  0  0  0  0  0  0  0
  152.1879  139.8361  157.9281 C   0  0  1  0  0  0  0  0  0  0  0  0
  151.7604  141.3132  158.0201 C   0  0  0  0  0  0  0  0  0  0  0  0
  151.8137  141.8336  159.3810 N   0  0  0  0  0  0  0  0  0  0  0  0
  151.4197  143.2415  159.4209 C   0  0  0  0  0  0  0  0  0  0  0  0
  151.4337  143.8152  160.8461 C   0  0  0  0  0  0  0  0  0  0  0  0
  152.8218  143.6363  161.4767 C   0  0  0  0  0  0  0  0  0  0  0  0
  153.2533  142.1645  161.3878 C   0  0  0  0  0  0  0  0  0  0  0  0
  153.1558  141.6440  159.9382 C   0  0  1  0  0  0  0  0  0  0  0  0
  153.5765  140.1626  159.8708 C   0  0  0  0  0  0  0  0  0  0  0  0
  153.4707  139.6728  158.5363 O   0  0  0  0  0  0  0  0  0  0  0  0
  149.3697  141.5632  153.3420 H   0  0  0  0  0  0  0  0  0  0  0  0
  148.2090  142.3028  155.4628 H   0  0  0  0  0  0  0  0  0  0  0  0
  149.1798  138.2062  158.0142 H   0  0  0  0  0  0  0  0  0  0  0  0
  150.9435  139.1216  159.5620 H   0  0  0  0  0  0  0  0  0  0  0  0
  151.5134  137.8496  158.5304 H   0  0  0  0  0  0  0  0  0  0  0  0
  152.3103  139.5997  156.8709 H   0  0  0  0  0  0  0  0  0  0  0  0
  152.4161  141.9067  157.3811 H   0  0  0  0  0  0  0  0  0  0  0  0
  150.7539  141.4285  157.6164 H   0  0  0  0  0  0  0  0  0  0  0  0
  152.0850  143.8301  158.7874 H   0  0  0  0  0  0  0  0  0  0  0  0
  150.4185  143.3533  159.0034 H   0  0  0  0  0  0  0  0  0  0  0  0
  151.1605  144.8705  160.8302 H   0  0  0  0  0  0  0  0  0  0  0  0
  150.6836  143.3065  161.4532 H   0  0  0  0  0  0  0  0  0  0  0  0
  153.5457  144.2622  160.9534 H   0  0  0  0  0  0  0  0  0  0  0  0
  152.8129  143.9678  162.5154 H   0  0  0  0  0  0  0  0  0  0  0  0
  154.2726  142.0567  161.7599 H   0  0  0  0  0  0  0  0  0  0  0  0
  152.6195  141.5616  162.0398 H   0  0  0  0  0  0  0  0  0  0  0  0
  153.8639  142.2132  159.3331 H   0  0  0  0  0  0  0  0  0  0  0  0
  154.6108  140.0494  160.1964 H   0  0  0  0  0  0  0  0  0  0  0  0
  152.9723  139.5540  160.5440 H   0  0  0  0  0  0  0  0  0  0  0  0
  1  2  3  0  0  0  0
  2  3  1  0  0  0  0
  3  8  1  0  0  0  0
  3  4  2  0  0  0  0
  4  5  1  0  0  0  0
  5  6  2  0  0  0  0
  5 21  1  0  0  0  0
  6  7  1  0  0  0  0
  6 22  1  0  0  0  0
  7  8  2  0  0  0  0
  8  9  1  0  0  0  0
  9 10  1  0  0  0  0
  9 23  1  0  0  0  0
 10 11  1  0  0  0  0
 10 24  1  0  0  0  0
 10 25  1  0  0  0  0
 11 20  1  0  0  0  0
 11 12  1  0  0  0  0
 11 26  1  0  0  0  0
 12 13  1  0  0  0  0
 12 27  1  0  0  0  0
 12 28  1  0  0  0  0
 13 18  1  0  0  0  0
 13 14  1  0  0  0  0
 14 15  1  0  0  0  0
 14 29  1  0  0  0  0
 14 30  1  0  0  0  0
 15 16  1  0  0  0  0
 15 31  1  0  0  0  0
 15 32  1  0  0  0  0
 16 17  1  0  0  0  0
 16 33  1  0  0  0  0
 16 34  1  0  0  0  0
 17 18  1  0  0  0  0
 17 35  1  0  0  0  0
 17 36  1  0  0  0  0
 18 19  1  0  0  0  0
 18 37  1  0  0  0  0
 19 20  1  0  0  0  0
 19 38  1  0  0  0  0
 19 39  1  0  0  0  0
M  END
> <s_m_source_file>
AV-unprocessed.smi

> <i_m_source_file_index>
3068

> <i_lp_mmshare_version>
43012

> <i_f3d_flags>
0

> <s_epik_input>
TiNDYzFuW2NIXVtjSF1uYzFbTkhdW0NIMl1bQ0BIXShbQ0gyXTIpT1tDSDJdW0NAQEhdKE4yMylbQ0gyXVtDSDJdW0NIMl1bQ0gyXTM=

> <s_epik_cmdline>
J2VwaWtfcHl0aG9uJywgJy1waCcsICc3LjAnLCAnLXRuJywgJzgnLCAnLW1hJywgJzIwMCcsICctbWV0YWxfYmluZGluZycsICctaW1hZScsICc8aW5maWxlLm1hZT4nLCAnLW9tYWUnLCAnPG91dGZpbGUubWFlPic=

> <r_epik_Ionization_Penalty>
1.22359

> <r_epik_Ionization_Penalty_Charging>
0

> <r_epik_Ionization_Penalty_Neutral>
1.22359

> <r_epik_State_Penalty>
1.29103

> <r_epik_Charging_Adjusted_Penalty>
1.29103

> <i_epik_Tot_Q>
0

> <i_epik_Tot_abs_Q>
0

> <r_epik_Metal_State_Penalty>
1.29103

> <b_epik_Metal_Only>
0

> <s_lp_Force_Field>
OPLS_2005

> <r_lp_Energy>
49.2936

> <b_lp_Chiralities_Consistent>
1

> <s_lp_Variant>
AV-unprocessed.smi:3068-10

> <Gold.Version>
5.8.1

> <Gold.Id.Protein>
6NUR|6NUR_protein|mol2

> <Gold.PLP.Fitness>
43.1606

> <Gold.PLP.PLP>
-32.5296

> <Gold.PLP.part.hbond>
-3.0000

> <Gold.PLP.part.metal>
0.0000

> <Gold.PLP.part.buried>
-3.0982

> <Gold.PLP.part.nonpolar>
-26.6196

> <Gold.PLP.part.repulsive>
0.6029

> <Gold.PLP.ligand.clash>
0.0000

> <Gold.PLP.ligand.torsion>
0.7086

> <Gold.PLP.Chemscore.Hbond>
2.7420

> <Gold.PLP.Chemscore.CHOScore>
1.2719

> <Gold.PLP.Chemscore.Metal>
0.0000

> <Gold.Chemscore.Hbonds>
donor molecule, donor type, donor heavy atom, donor atom, acceptor molecule, acceptor atom, score
      P1  H  7989  7998       L1     4  0.50
      P1  H  7997  8008       L1    20  0.90
      P1  H 10752 10765       L1     1  1.00
      L1  C     5    21       P1  7957  0.46
      L1  C     6    22       P1  8028  1.00

> <Gold.PLP.Chemscore.Internal.Correction>
0.0064

> <Gold.Rescore>
     Score         DG    S(hbond)    S(metal)    S(lipo)     H(rot)  DE(clash)    DE(int)     intcor
     18.41     -20.40       2.15        0.00      94.51       1.30       0.24       1.74       ----

> <Gold.Chemscore.Fitness>
18.4111

> <Gold.Chemscore.DG>
-20.3966

> <Gold.Chemscore.ZeroCoef>
-5.4800

> <Gold.Chemscore.Hbond>
2.1530

> <Gold.Chemscore.Metal>
0.0000

> <Gold.Chemscore.Lipo>
94.5148

> <Gold.Chemscore.Internal_Hbond>
0.0000

> <Gold.Chemscore.DEClash>
0.2436

> <Gold.Chemscore.DEInternal>
1.7419

> <Gold.Chemscore.Rot>
1.3019

> <Gold.Chemscore.Internal.Correction>
   9.000000E+99

> <Gold.Chemscore.Hbonds>
donor molecule, donor type, donor heavy atom, donor atom, acceptor molecule, acceptor atom, score
      P1  H  7989  7998       L1     4  0.02
      P1  H  7997  8008       L1    20  0.17
      P1  H 10752 10765       L1     1  0.94

> <Gold.Chemscore.Hbond.Weighted>
-7.1911

> <Gold.Chemscore.Metal.Weighted>
-0.0000

> <Gold.Chemscore.Lipo.Weighted>
-11.0582

> <Gold.Chemscore.Internal_Hbond.Weighted>
0.0000

> <Gold.Chemscore.DEClash.Weighted>
0.2436

> <Gold.Chemscore.DEInternal.Weighted>
1.7419

> <Gold.Chemscore.Rot.Weighted>
3.3327

> <Gold.Chemscore.Internal.Correction.Weighted>
   9.000000E+99

> <Gold.Protein.RotatedTorsions>
[ 6907 6896 6895 6894 ] final  101.33 input  -60.11 | X-H torsion
[ 7974 7965 7964 7962 ] final   73.99 input  175.53 | X-H torsion
[ 8008 7997 7996 7995 ] final  -80.90 input   59.86 | X-H torsion
[ 10167 10162 10161 10158 ] final  166.62 input  -65.29 | X-H torsion
[ 10718 10713 10712 10709 ] final   33.95 input   66.30 | X-H torsion
[ 10763 10752 10751 10750 ] final  179.94 input  -60.55 | X-H torsion
[ 11005 11000 10999 10996 ] final   18.80 input  -57.11 | X-H torsion

> <Gold.Protein.ActiveResidues>
 VAL166  LYS551  ARG553  GLY616  TRP617  ASP618  TYR619  PRO620  LYS621  CYS622 
 ASP623  PHE694  ASN695  SER759  ASP760  ASP761  ALA762  ILE779  LEU786  VAL792 
 PHE793  MET794  SER795  GLU796  ALA797  LYS798  CYS799  TRP800  GLU811  SER814 

> <Gold.Protein.RotatedAtoms>
  152.5352  134.0143  159.7952 H   0  0  0  0  0  0  0  0  0  0  0  0  # atno 6907 bound_to 6896
  151.0340  133.5757  159.2665 H   0  0  0  0  0  0  0  0  0  0  0  0  # atno 6908 bound_to 6896
  151.2752  135.0704  159.9202 H   0  0  0  0  0  0  0  0  0  0  0  0  # atno 6909 bound_to 6896
  145.7339  139.2694  143.1525 H   0  0  0  0  0  0  0  0  0  0  0  0  # atno 7974 bound_to 7965
  154.5929  140.0656  156.9264 H   0  0  0  0  0  0  0  0  0  0  0  0  # atno 8008 bound_to 7997
  155.2263  140.3334  155.4291 H   0  0  0  0  0  0  0  0  0  0  0  0  # atno 8009 bound_to 7997
  156.2268  140.1823  156.7327 H   0  0  0  0  0  0  0  0  0  0  0  0  # atno 8010 bound_to 7997
  139.4928  144.4008  151.9412 H   0  0  0  0  0  0  0  0  0  0  0  0  # atno 10167 bound_to 10162
  157.3042  130.7366  149.6685 H   0  0  0  0  0  0  0  0  0  0  0  0  # atno 10718 bound_to 10713
  154.5271  135.2797  155.1212 H   0  0  0  0  0  0  0  0  0  0  0  0  # atno 10763 bound_to 10752
  154.2747  135.6297  153.5327 H   0  0  0  0  0  0  0  0  0  0  0  0  # atno 10764 bound_to 10752
  152.9949  135.5637  154.5775 H   0  0  0  0  0  0  0  0  0  0  0  0  # atno 10765 bound_to 10752
  140.4207  134.1521  155.7673 H   0  0  0  0  0  0  0  0  0  0  0  0  # atno 11005 bound_to 11000
  146.0512  140.8067  142.9781 LP  0  0  0  0  0  0  0  0  0  0  0  0  # atno 17320 bound_to 7965
  144.6886  140.3055  143.7256 LP  0  0  0  0  0  0  0  0  0  0  0  0  # atno 17321 bound_to 7965
  140.3447  144.3161  150.5960 LP  0  0  0  0  0  0  0  0  0  0  0  0  # atno 17342 bound_to 10162
  140.5536  143.2202  151.7885 LP  0  0  0  0  0  0  0  0  0  0  0  0  # atno 17343 bound_to 10162
  155.9673  130.4271  150.4727 LP  0  0  0  0  0  0  0  0  0  0  0  0  # atno 17370 bound_to 10713
  157.2714  131.0588  151.2257 LP  0  0  0  0  0  0  0  0  0  0  0  0  # atno 17371 bound_to 10713
  141.1785  133.8464  157.1340 LP  0  0  0  0  0  0  0  0  0  0  0  0  # atno 17394 bound_to 11000
  140.0202  134.9949  157.0576 LP  0  0  0  0  0  0  0  0  0  0  0  0  # atno 17395 bound_to 11000

$$$$
