AV-unprocessed.smi:19|AV-procd|sdf|109|dock1
  -GOLD-   2262015273D 1   1.00000     0.00000
 Structure written by MMmdl.
 57 60  0  0  0  0  0  0  0  0  1 V2000
  150.2045  142.6884  157.5833 C   0  0  0  0  0  0  0  0  0  0  0  0
  148.9151  143.0519  157.1158 O   0  0  0  0  0  0  0  0  0  0  0  0
  148.1461  141.9653  156.6163 C   0  0  0  0  0  0  0  0  0  0  0  0
  148.4419  141.6826  155.1253 C   0  0  2  0  0  0  0  0  0  0  0  0
  147.7140  140.4395  154.5795 C   0  0  0  0  0  0  0  0  0  0  0  0
  148.3328  139.2187  155.0835 N   0  0  0  0  0  0  0  0  0  0  0  0
  147.5958  138.0903  154.9287 C   0  0  0  0  0  0  0  0  0  0  0  0
  147.8975  136.9771  155.6490 N   0  0  0  0  0  0  0  0  0  0  0  0
  147.1813  135.8596  155.4953 C   0  0  0  0  0  0  0  0  0  0  0  0
  146.1362  135.6424  154.6954 N   0  0  0  0  0  0  0  0  0  0  0  0
  145.8188  136.7585  153.9793 C   0  0  0  0  0  0  0  0  0  0  0  0
  146.4936  138.0110  154.0313 C   0  0  0  0  0  0  0  0  0  0  0  0
  145.8868  138.9107  153.1635 N   0  0  0  0  0  0  0  0  0  0  0  0
  144.9190  138.2257  152.6198 C   0  0  0  0  0  0  0  0  0  0  0  0
  144.7919  136.9288  153.0658 N   0  0  0  0  0  0  0  0  0  0  0  0
  143.8019  135.9515  152.6327 C   0  0  0  0  0  0  0  0  0  0  0  0
  144.2632  135.0167  151.4744 C   0  0  0  0  0  0  0  0  0  0  0  0
  144.1322  135.7384  150.1025 C   0  0  0  0  0  0  0  0  0  0  0  0
  145.0775  136.7784  149.9516 O   0  0  0  0  0  0  0  0  0  0  0  0
  145.7371  134.5887  151.6938 C   0  0  0  0  0  0  0  0  0  0  0  0
  146.1699  133.4180  150.7910 C   0  0  0  0  0  0  0  0  0  0  0  0
  145.2942  132.3123  150.9658 O   0  0  0  0  0  0  0  0  0  0  0  0
  143.9515  132.6120  150.6081 C   0  0  0  0  0  0  0  0  0  0  0  0
  143.4068  133.7255  151.5196 C   0  0  0  0  0  0  0  0  0  0  0  0
  149.7661  139.1543  154.8183 C   0  0  0  0  0  0  0  0  0  0  0  0
  150.4636  140.4002  155.3924 C   0  0  1  0  0  0  0  0  0  0  0  0
  151.9508  140.4419  155.0274 C   0  0  0  0  0  0  0  0  0  0  0  0
  149.8453  141.5772  154.8713 O   0  0  0  0  0  0  0  0  0  0  0  0
  150.7100  143.5726  157.9717 H   0  0  0  0  0  0  0  0  0  0  0  0
  150.8267  142.2747  156.7901 H   0  0  0  0  0  0  0  0  0  0  0  0
  150.1394  141.9604  158.3929 H   0  0  0  0  0  0  0  0  0  0  0  0
  148.3177  141.0724  157.2195 H   0  0  0  0  0  0  0  0  0  0  0  0
  147.0960  142.2255  156.7489 H   0  0  0  0  0  0  0  0  0  0  0  0
  148.1123  142.5424  154.5439 H   0  0  0  0  0  0  0  0  0  0  0  0
  146.6543  140.4936  154.8263 H   0  0  0  0  0  0  0  0  0  0  0  0
  147.7775  140.4292  153.4904 H   0  0  0  0  0  0  0  0  0  0  0  0
  147.4897  135.0194  156.0995 H   0  0  0  0  0  0  0  0  0  0  0  0
  144.2597  138.6553  151.8795 H   0  0  0  0  0  0  0  0  0  0  0  0
  143.5286  135.3574  153.5057 H   0  0  0  0  0  0  0  0  0  0  0  0
  142.8949  136.4874  152.3504 H   0  0  0  0  0  0  0  0  0  0  0  0
  144.2592  135.0342  149.2800 H   0  0  0  0  0  0  0  0  0  0  0  0
  143.1444  136.1761  149.9694 H   0  0  0  0  0  0  0  0  0  0  0  0
  144.6386  137.5336  149.5905 H   0  0  0  0  0  0  0  0  0  0  0  0
  146.4110  135.4304  151.5324 H   0  0  0  0  0  0  0  0  0  0  0  0
  145.8742  134.2827  152.7318 H   0  0  0  0  0  0  0  0  0  0  0  0
  146.2030  133.7096  149.7409 H   0  0  0  0  0  0  0  0  0  0  0  0
  147.1798  133.1039  151.0553 H   0  0  0  0  0  0  0  0  0  0  0  0
  143.8900  132.8882  149.5551 H   0  0  0  0  0  0  0  0  0  0  0  0
  143.3519  131.7098  150.7288 H   0  0  0  0  0  0  0  0  0  0  0  0
  143.3868  133.3405  152.5403 H   0  0  0  0  0  0  0  0  0  0  0  0
  142.3679  133.9378  151.2652 H   0  0  0  0  0  0  0  0  0  0  0  0
  150.1924  138.2560  155.2671 H   0  0  0  0  0  0  0  0  0  0  0  0
  149.9308  139.0916  153.7416 H   0  0  0  0  0  0  0  0  0  0  0  0
  150.3831  140.3947  156.4797 H   0  0  0  0  0  0  0  0  0  0  0  0
  152.4736  139.5661  155.4129 H   0  0  0  0  0  0  0  0  0  0  0  0
  152.4306  141.3264  155.4472 H   0  0  0  0  0  0  0  0  0  0  0  0
  152.0913  140.4672  153.9464 H   0  0  0  0  0  0  0  0  0  0  0  0
  1  2  1  0  0  0  0
  1 29  1  0  0  0  0
  1 30  1  0  0  0  0
  1 31  1  0  0  0  0
  2  3  1  0  0  0  0
  3  4  1  0  0  0  0
  3 32  1  0  0  0  0
  3 33  1  0  0  0  0
  4 28  1  0  0  0  0
  4  5  1  0  0  0  0
  4 34  1  0  0  0  0
  5  6  1  0  0  0  0
  5 35  1  0  0  0  0
  5 36  1  0  0  0  0
  6  7  1  0  0  0  0
  6 25  1  0  0  0  0
  7 12  1  0  0  0  0
  7  8  2  0  0  0  0
  8  9  1  0  0  0  0
  9 10  2  0  0  0  0
  9 37  1  0  0  0  0
 10 11  1  0  0  0  0
 11 15  1  0  0  0  0
 11 12  2  0  0  0  0
 12 13  1  0  0  0  0
 13 14  2  0  0  0  0
 14 15  1  0  0  0  0
 14 38  1  0  0  0  0
 15 16  1  0  0  0  0
 16 17  1  0  0  0  0
 16 39  1  0  0  0  0
 16 40  1  0  0  0  0
 17 24  1  0  0  0  0
 17 18  1  0  0  0  0
 17 20  1  0  0  0  0
 18 19  1  0  0  0  0
 18 41  1  0  0  0  0
 18 42  1  0  0  0  0
 19 43  1  0  0  0  0
 20 21  1  0  0  0  0
 20 44  1  0  0  0  0
 20 45  1  0  0  0  0
 21 22  1  0  0  0  0
 21 46  1  0  0  0  0
 21 47  1  0  0  0  0
 22 23  1  0  0  0  0
 23 24  1  0  0  0  0
 23 48  1  0  0  0  0
 23 49  1  0  0  0  0
 24 50  1  0  0  0  0
 24 51  1  0  0  0  0
 25 26  1  0  0  0  0
 25 52  1  0  0  0  0
 25 53  1  0  0  0  0
 26 27  1  0  0  0  0
 26 28  1  0  0  0  0
 26 54  1  0  0  0  0
 27 55  1  0  0  0  0
 27 56  1  0  0  0  0
 27 57  1  0  0  0  0
M  END
> <s_m_source_file>
AV-unprocessed.smi

> <i_m_source_file_index>
19

> <i_lp_mmshare_version>
43012

> <i_f3d_flags>
0

> <s_epik_input>
W0NIM11PW0NIMl1bQ0BASF0xW0NIMl1OKFtDSDJdW0NASF0oTzEpW0NIM10pYyhuW2NIXW4yKWMoYzIzKW5bY0hdbjNbQ0gyXUM0KFtDSDJdW09IXSlbQ0gyXVtDSDJdT1tDSDJdW0NIMl00

> <s_epik_cmdline>
J2VwaWtfcHl0aG9uJywgJy1waCcsICc3LjAnLCAnLXRuJywgJzgnLCAnLW1hJywgJzIwMCcsICctbWV0YWxfYmluZGluZycsICctaW1hZScsICc8aW5maWxlLm1hZT4nLCAnLW9tYWUnLCAnPG91dGZpbGUubWFlPic=

> <r_lp_tautomer_probability>
1

> <r_epik_Ionization_Penalty>
6.20357e-05

> <r_epik_Ionization_Penalty_Charging>
0

> <r_epik_Ionization_Penalty_Neutral>
6.20357e-05

> <r_epik_State_Penalty>
-0

> <r_epik_Charging_Adjusted_Penalty>
0

> <i_epik_Tot_Q>
0

> <i_epik_Tot_abs_Q>
0

> <r_epik_Metal_State_Penalty>
-0

> <b_epik_Metal_Only>
0

> <s_lp_Force_Field>
OPLS_2005

> <r_lp_Energy>
39.3548

> <b_lp_Chiralities_Consistent>
1

> <s_lp_Variant>
AV-unprocessed.smi:19-1

> <Gold.Version>
5.8.1

> <Gold.Id.Protein>
6NUR|6NUR_protein|mol2

> <Gold.PLP.Fitness>
47.7901

> <Gold.PLP.PLP>
-38.0558

> <Gold.PLP.part.hbond>
-2.9608

> <Gold.PLP.part.metal>
0.0000

> <Gold.PLP.part.buried>
-4.5653

> <Gold.PLP.part.nonpolar>
-30.9332

> <Gold.PLP.part.repulsive>
0.7549

> <Gold.PLP.ligand.clash>
0.0000

> <Gold.PLP.ligand.torsion>
1.1399

> <Gold.PLP.Chemscore.Hbond>
1.9920

> <Gold.PLP.Chemscore.CHOScore>
1.8541

> <Gold.PLP.Chemscore.Metal>
0.0000

> <Gold.Chemscore.Hbonds>
donor molecule, donor type, donor heavy atom, donor atom, acceptor molecule, acceptor atom, score
      L1  H    19    43       P1 10171  0.40
      L1  C    14    38       P1 10171  1.00
      L1  C    14    38       P1 10175  0.52

> <Gold.PLP.Chemscore.Internal.Correction>
0.4758

> <Gold.Rescore>
     Score         DG    S(hbond)    S(metal)    S(lipo)     H(rot)  DE(clash)    DE(int)     intcor
     10.55     -14.41       1.83        0.00      86.81       2.87       0.05       3.80       ----

> <Gold.Chemscore.Fitness>
10.5502

> <Gold.Chemscore.DG>
-14.4058

> <Gold.Chemscore.ZeroCoef>
-5.4800

> <Gold.Chemscore.Hbond>
1.8335

> <Gold.Chemscore.Metal>
0.0000

> <Gold.Chemscore.Lipo>
86.8083

> <Gold.Chemscore.Internal_Hbond>
0.0000

> <Gold.Chemscore.DEClash>
0.0548

> <Gold.Chemscore.DEInternal>
3.8008

> <Gold.Chemscore.Rot>
2.8729

> <Gold.Chemscore.Internal.Correction>
   9.000000E+99

> <Gold.Chemscore.Hbonds>
donor molecule, donor type, donor heavy atom, donor atom, acceptor molecule, acceptor atom, score
      L1  H    19    43       P1 10171  0.39

> <Gold.Chemscore.Hbond.Weighted>
-6.1238

> <Gold.Chemscore.Metal.Weighted>
-0.0000

> <Gold.Chemscore.Lipo.Weighted>
-10.1566

> <Gold.Chemscore.Internal_Hbond.Weighted>
0.0000

> <Gold.Chemscore.DEClash.Weighted>
0.0548

> <Gold.Chemscore.DEInternal.Weighted>
3.8008

> <Gold.Chemscore.Rot.Weighted>
7.3546

> <Gold.Chemscore.Internal.Correction.Weighted>
   9.000000E+99

> <Gold.Protein.RotatedTorsions>
[ 6907 6896 6895 6894 ] final -148.96 input  -60.11 | X-H torsion
[ 7974 7965 7964 7962 ] final  -88.51 input  175.53 | X-H torsion
[ 8008 7997 7996 7995 ] final -111.89 input   59.86 | X-H torsion
[ 10167 10162 10161 10158 ] final -104.55 input  -65.29 | X-H torsion
[ 10718 10713 10712 10709 ] final -140.25 input   66.30 | X-H torsion
[ 10763 10752 10751 10750 ] final  -77.77 input  -60.55 | X-H torsion
[ 11005 11000 10999 10996 ] final -170.05 input  -57.11 | X-H torsion

> <Gold.Protein.ActiveResidues>
 VAL166  LYS551  ARG553  GLY616  TRP617  ASP618  TYR619  PRO620  LYS621  CYS622 
 ASP623  PHE694  ASN695  SER759  ASP760  ASP761  ALA762  ILE779  LEU786  VAL792 
 PHE793  MET794  SER795  GLU796  ALA797  LYS798  CYS799  TRP800  GLU811  SER814 

> <Gold.Protein.RotatedAtoms>
  151.1773  133.4747  159.2593 H   0  0  0  0  0  0  0  0  0  0  0  0  # atno 6907 bound_to 6896
  151.1295  135.0122  159.8586 H   0  0  0  0  0  0  0  0  0  0  0  0  # atno 6908 bound_to 6896
  152.5459  134.1677  159.8637 H   0  0  0  0  0  0  0  0  0  0  0  0  # atno 6909 bound_to 6896
  145.4521  140.9561  143.2016 H   0  0  0  0  0  0  0  0  0  0  0  0  # atno 7974 bound_to 7965
  154.9968  140.0394  157.2343 H   0  0  0  0  0  0  0  0  0  0  0  0  # atno 8008 bound_to 7997
  154.7579  140.2779  155.6215 H   0  0  0  0  0  0  0  0  0  0  0  0  # atno 8009 bound_to 7997
  156.2898  140.2634  156.2350 H   0  0  0  0  0  0  0  0  0  0  0  0  # atno 8010 bound_to 7997
  140.2080  143.3768  152.1074 H   0  0  0  0  0  0  0  0  0  0  0  0  # atno 10167 bound_to 10162
  156.3202  130.7530  151.1626 H   0  0  0  0  0  0  0  0  0  0  0  0  # atno 10718 bound_to 10713
  154.5173  135.5752  153.6652 H   0  0  0  0  0  0  0  0  0  0  0  0  # atno 10763 bound_to 10752
  152.9909  135.6173  154.2801 H   0  0  0  0  0  0  0  0  0  0  0  0  # atno 10764 bound_to 10752
  154.2719  135.2853  155.2714 H   0  0  0  0  0  0  0  0  0  0  0  0  # atno 10765 bound_to 10752
  140.5239  134.5682  157.5056 H   0  0  0  0  0  0  0  0  0  0  0  0  # atno 11005 bound_to 11000
  144.8055  139.6060  143.7053 LP  0  0  0  0  0  0  0  0  0  0  0  0  # atno 17320 bound_to 7965
  146.2498  139.6176  142.9435 LP  0  0  0  0  0  0  0  0  0  0  0  0  # atno 17321 bound_to 7965
  139.5191  144.7014  151.5481 LP  0  0  0  0  0  0  0  0  0  0  0  0  # atno 17342 bound_to 10162
  140.6343  143.9014  150.6633 LP  0  0  0  0  0  0  0  0  0  0  0  0  # atno 17343 bound_to 10162
  157.7410  131.0509  150.5127 LP  0  0  0  0  0  0  0  0  0  0  0  0  # atno 17370 bound_to 10713
  156.5278  130.4177  149.6217 LP  0  0  0  0  0  0  0  0  0  0  0  0  # atno 17371 bound_to 10713
  139.9591  134.7484  156.0277 LP  0  0  0  0  0  0  0  0  0  0  0  0  # atno 17394 bound_to 11000
  141.1319  133.6584  156.3487 LP  0  0  0  0  0  0  0  0  0  0  0  0  # atno 17395 bound_to 11000

$$$$
