AV-unprocessed.smi:1868|AV-procd|sdf|7585|dock1
  -GOLD-   22720 9293D 1   1.00000     0.00000
 Structure written by MMmdl.
 47 49  0  0  0  0  0  0  0  0  2 V2000
  151.4058  139.0770  154.7123 C   0  0  0  0  0  0  0  0  0  0  0  0
  151.4591  140.0528  155.8447 C   0  0  0  0  0  0  0  0  0  0  0  0
  152.3458  139.9461  156.8339 N   0  0  0  0  0  0  0  0  0  0  0  0
  152.0448  141.0346  157.6299 C   0  0  0  0  0  0  0  0  0  0  0  0
  152.6283  141.4788  158.8379 C   0  0  0  0  0  0  0  0  0  0  0  0
  152.1430  142.6360  159.4815 C   0  0  0  0  0  0  0  0  0  0  0  0
  151.0703  143.3645  158.9277 C   0  0  0  0  0  0  0  0  0  0  0  0
  150.4744  142.9392  157.7250 C   0  0  0  0  0  0  0  0  0  0  0  0
  150.9615  141.7826  157.0871 C   0  0  0  0  0  0  0  0  0  0  0  0
  150.6061  141.1036  155.9253 N   0  0  0  0  0  0  0  0  0  0  0  0
  149.5381  141.4626  155.0020 C   0  0  0  0  0  0  0  0  0  0  0  0
  148.3206  140.5236  155.1112 C   0  0  1  0  0  0  0  0  0  0  0  0
  147.9007  140.4517  156.4603 O   0  0  0  0  0  0  0  0  0  0  0  0
  147.1382  141.0195  154.2558 C   0  0  0  0  0  0  0  0  0  0  0  0
  146.4564  139.9150  153.5331 N   0  3  2  0  0  0  0  0  0  0  0  0
  146.0433  138.7954  154.4205 C   0  0  0  0  0  0  0  0  0  0  0  0
  145.2229  137.7495  153.6473 C   0  0  0  0  0  0  0  0  0  0  0  0
  146.0011  137.2124  152.4344 C   0  0  1  0  0  0  0  0  0  0  0  0
  145.1766  136.1925  151.6365 C   0  0  0  0  0  0  0  0  0  0  0  0
  146.4490  138.3934  151.5573 C   0  0  0  0  0  0  0  0  0  0  0  0
  147.2448  139.4263  152.3728 C   0  0  0  0  0  0  0  0  0  0  0  0
  152.1426  138.2857  154.8547 H   0  0  0  0  0  0  0  0  0  0  0  0
  151.6238  139.5807  153.7703 H   0  0  0  0  0  0  0  0  0  0  0  0
  150.4191  138.6185  154.6493 H   0  0  0  0  0  0  0  0  0  0  0  0
  153.4504  140.9280  159.2704 H   0  0  0  0  0  0  0  0  0  0  0  0
  152.5959  142.9661  160.4051 H   0  0  0  0  0  0  0  0  0  0  0  0
  150.7048  144.2498  159.4275 H   0  0  0  0  0  0  0  0  0  0  0  0
  149.6516  143.4949  157.3004 H   0  0  0  0  0  0  0  0  0  0  0  0
  149.2412  142.4939  155.1978 H   0  0  0  0  0  0  0  0  0  0  0  0
  149.9341  141.4528  153.9864 H   0  0  0  0  0  0  0  0  0  0  0  0
  148.6230  139.5250  154.7993 H   0  0  0  0  0  0  0  0  0  0  0  0
  147.8719  139.5422  156.7184 H   0  0  0  0  0  0  0  0  0  0  0  0
  146.4291  141.5262  154.9125 H   0  0  0  0  0  0  0  0  0  0  0  0
  147.4712  141.7685  153.5356 H   0  0  0  0  0  0  0  0  0  0  0  0
  146.9282  138.3288  154.8565 H   0  0  0  0  0  0  0  0  0  0  0  0
  145.4442  139.1675  155.2505 H   0  0  0  0  0  0  0  0  0  0  0  0
  144.9557  136.9283  154.3133 H   0  0  0  0  0  0  0  0  0  0  0  0
  144.2837  138.1962  153.3170 H   0  0  0  0  0  0  0  0  0  0  0  0
  146.8938  136.7031  152.8011 H   0  0  0  0  0  0  0  0  0  0  0  0
  144.2613  136.6390  151.2466 H   0  0  0  0  0  0  0  0  0  0  0  0
  144.8936  135.3431  152.2591 H   0  0  0  0  0  0  0  0  0  0  0  0
  145.7445  135.8049  150.7902 H   0  0  0  0  0  0  0  0  0  0  0  0
  147.0590  138.0330  150.7282 H   0  0  0  0  0  0  0  0  0  0  0  0
  145.5774  138.8754  151.1118 H   0  0  0  0  0  0  0  0  0  0  0  0
  147.5064  140.2642  151.7253 H   0  0  0  0  0  0  0  0  0  0  0  0
  148.1819  138.9912  152.7239 H   0  0  0  0  0  0  0  0  0  0  0  0
  145.6124  140.3152  153.1478 H   0  0  0  0  0  0  0  0  0  0  0  0
  1  2  1  0  0  0  0
  1 22  1  0  0  0  0
  1 23  1  0  0  0  0
  1 24  1  0  0  0  0
  2 10  1  0  0  0  0
  2  3  2  0  0  0  0
  3  4  1  0  0  0  0
  4  9  2  0  0  0  0
  4  5  1  0  0  0  0
  5  6  2  0  0  0  0
  5 25  1  0  0  0  0
  6  7  1  0  0  0  0
  6 26  1  0  0  0  0
  7  8  2  0  0  0  0
  7 27  1  0  0  0  0
  8  9  1  0  0  0  0
  8 28  1  0  0  0  0
  9 10  1  0  0  0  0
 10 11  1  0  0  0  0
 11 12  1  0  0  0  0
 11 29  1  0  0  0  0
 11 30  1  0  0  0  0
 12 13  1  0  0  0  0
 12 14  1  0  0  0  0
 12 31  1  0  0  0  0
 13 32  1  0  0  0  0
 14 15  1  0  0  0  0
 14 33  1  0  0  0  0
 14 34  1  0  0  0  0
 15 21  1  0  0  0  0
 15 16  1  0  0  0  0
 15 47  1  0  0  0  0
 16 17  1  0  0  0  0
 16 35  1  0  0  0  0
 16 36  1  0  0  0  0
 17 18  1  0  0  0  0
 17 37  1  0  0  0  0
 17 38  1  0  0  0  0
 18 19  1  0  0  0  0
 18 20  1  0  0  0  0
 18 39  1  0  0  0  0
 19 40  1  0  0  0  0
 19 41  1  0  0  0  0
 19 42  1  0  0  0  0
 20 21  1  0  0  0  0
 20 43  1  0  0  0  0
 20 44  1  0  0  0  0
 21 45  1  0  0  0  0
 21 46  1  0  0  0  0
M  CHG  1  15   1
M  END
> <s_m_source_file>
AV-unprocessed.smi

> <i_m_source_file_index>
1868

> <i_lp_mmshare_version>
43012

> <i_f3d_flags>
0

> <s_epik_input>
W2NIXTFbY0hdW2NIXVtjSF1jKGMxMiluKGMobjIpW0NIM10pW0NIMl1bQ0BIXShbT0hdKVtDSDJdTjNbQ0gyXVtDSDJdW0NIXShbQ0gzXSlbQ0gyXVtDSDJdMw==

> <s_epik_cmdline>
J2VwaWtfcHl0aG9uJywgJy1waCcsICc3LjAnLCAnLXRuJywgJzgnLCAnLW1hJywgJzIwMCcsICctbWV0YWxfYmluZGluZycsICctaW1hZScsICc8aW5maWxlLm1hZT4nLCAnLW9tYWUnLCAnPG91dGZpbGUubWFlPic=

> <r_epik_Ionization_Penalty>
0.101157

> <r_epik_Ionization_Penalty_Charging>
0.00181365

> <r_epik_Ionization_Penalty_Neutral>
0.0993436

> <r_epik_State_Penalty>
0.0871902

> <r_epik_Charging_Adjusted_Penalty>
0.0890039

> <i_epik_Tot_Q>
1

> <i_epik_Tot_abs_Q>
1

> <r_epik_Metal_State_Penalty>
9.24346e-05

> <b_epik_Metal_Only>
0

> <s_lp_Force_Field>
OPLS_2005

> <r_lp_Energy>
21.7142

> <b_lp_Chiralities_Consistent>
1

> <s_lp_Variant>
AV-unprocessed.smi:1868-2

> <Gold.Version>
5.8.1

> <Gold.Id.Protein>
6NUR|6NUR_protein|mol2

> <Gold.PLP.Fitness>
45.5256

> <Gold.PLP.PLP>
-38.1825

> <Gold.PLP.part.hbond>
-2.0000

> <Gold.PLP.part.metal>
0.0000

> <Gold.PLP.part.buried>
1.5782

> <Gold.PLP.part.nonpolar>
-38.0399

> <Gold.PLP.part.repulsive>
0.0000

> <Gold.PLP.ligand.clash>
0.0000

> <Gold.PLP.ligand.torsion>
0.8368

> <Gold.PLP.Chemscore.Hbond>
2.9738

> <Gold.PLP.Chemscore.CHOScore>
0.0000

> <Gold.PLP.Chemscore.Metal>
0.0000

> <Gold.Chemscore.Hbonds>
donor molecule, donor type, donor heavy atom, donor atom, acceptor molecule, acceptor atom, score
      L1  H    15    47       P1 10175  1.92
      P1  H  7997  8008       L1     3  0.96

> <Gold.PLP.Chemscore.Internal.Correction>
0.0955

> <Gold.Rescore>
     Score         DG    S(hbond)    S(metal)    S(lipo)     H(rot)  DE(clash)    DE(int)     intcor
     16.91     -17.93       1.45        0.00     107.03       1.92       0.20       0.83       ----

> <Gold.Chemscore.Fitness>
16.9087

> <Gold.Chemscore.DG>
-17.9346

> <Gold.Chemscore.ZeroCoef>
-5.4800

> <Gold.Chemscore.Hbond>
1.4512

> <Gold.Chemscore.Metal>
0.0000

> <Gold.Chemscore.Lipo>
107.0273

> <Gold.Chemscore.Internal_Hbond>
0.0000

> <Gold.Chemscore.DEClash>
0.1975

> <Gold.Chemscore.DEInternal>
0.8283

> <Gold.Chemscore.Rot>
1.9198

> <Gold.Chemscore.Internal.Correction>
   9.000000E+99

> <Gold.Chemscore.Hbonds>
donor molecule, donor type, donor heavy atom, donor atom, acceptor molecule, acceptor atom, score
      L1  H    15    47       P1 10175  0.88
      P1  H  7997  8008       L1     3  0.31

> <Gold.Chemscore.Hbond.Weighted>
-4.8471

> <Gold.Chemscore.Metal.Weighted>
-0.0000

> <Gold.Chemscore.Lipo.Weighted>
-12.5222

> <Gold.Chemscore.Internal_Hbond.Weighted>
0.0000

> <Gold.Chemscore.DEClash.Weighted>
0.1975

> <Gold.Chemscore.DEInternal.Weighted>
0.8283

> <Gold.Chemscore.Rot.Weighted>
4.9147

> <Gold.Chemscore.Internal.Correction.Weighted>
   9.000000E+99

> <Gold.Protein.RotatedTorsions>
[ 6907 6896 6895 6894 ] final  -51.17 input  -60.11 | X-H torsion
[ 7974 7965 7964 7962 ] final  -67.51 input  175.53 | X-H torsion
[ 8008 7997 7996 7995 ] final  -61.77 input   59.86 | X-H torsion
[ 10167 10162 10161 10158 ] final   -2.73 input  -65.29 | X-H torsion
[ 10718 10713 10712 10709 ] final   61.43 input   66.30 | X-H torsion
[ 10763 10752 10751 10750 ] final   58.50 input  -60.55 | X-H torsion
[ 11005 11000 10999 10996 ] final  -24.20 input  -57.11 | X-H torsion

> <Gold.Protein.ActiveResidues>
 VAL166  LYS551  ARG553  GLY616  TRP617  ASP618  TYR619  PRO620  LYS621  CYS622 
 ASP623  PHE694  ASN695  SER759  ASP760  ASP761  ALA762  ILE779  LEU786  VAL792 
 PHE793  MET794  SER795  GLU796  ALA797  LYS798  CYS799  TRP800  GLU811  SER814 

> <Gold.Protein.RotatedAtoms>
  150.8637  134.7995  159.7101 H   0  0  0  0  0  0  0  0  0  0  0  0  # atno 6907 bound_to 6896
  152.4665  134.5059  159.9749 H   0  0  0  0  0  0  0  0  0  0  0  0  # atno 6908 bound_to 6896
  151.5158  133.3437  159.2928 H   0  0  0  0  0  0  0  0  0  0  0  0  # atno 6909 bound_to 6896
  145.7283  140.9008  143.0594 H   0  0  0  0  0  0  0  0  0  0  0  0  # atno 7974 bound_to 7965
  154.4465  140.1010  156.6483 H   0  0  0  0  0  0  0  0  0  0  0  0  # atno 8008 bound_to 7997
  155.5425  140.3484  155.4431 H   0  0  0  0  0  0  0  0  0  0  0  0  # atno 8009 bound_to 7997
  156.0587  140.1321  156.9956 H   0  0  0  0  0  0  0  0  0  0  0  0  # atno 8010 bound_to 7997
  140.6862  143.6623  150.8256 H   0  0  0  0  0  0  0  0  0  0  0  0  # atno 10167 bound_to 10162
  157.5827  130.8994  149.9460 H   0  0  0  0  0  0  0  0  0  0  0  0  # atno 10718 bound_to 10713
  152.9872  135.5604  154.5562 H   0  0  0  0  0  0  0  0  0  0  0  0  # atno 10763 bound_to 10752
  154.4990  135.2796  155.1438 H   0  0  0  0  0  0  0  0  0  0  0  0  # atno 10764 bound_to 10752
  154.2876  135.6332  153.5425 H   0  0  0  0  0  0  0  0  0  0  0  0  # atno 10765 bound_to 10752
  140.8823  133.7645  156.0317 H   0  0  0  0  0  0  0  0  0  0  0  0  # atno 11005 bound_to 11000
  144.6899  139.9296  143.7471 LP  0  0  0  0  0  0  0  0  0  0  0  0  # atno 17320 bound_to 7965
  146.0562  139.3558  143.0609 LP  0  0  0  0  0  0  0  0  0  0  0  0  # atno 17321 bound_to 7965
  140.0330  143.5424  152.2752 LP  0  0  0  0  0  0  0  0  0  0  0  0  # atno 17342 bound_to 10162
  139.6224  144.7631  151.2712 LP  0  0  0  0  0  0  0  0  0  0  0  0  # atno 17343 bound_to 10162
  156.0874  130.3666  150.0461 LP  0  0  0  0  0  0  0  0  0  0  0  0  # atno 17370 bound_to 10713
  156.8598  130.9487  151.3619 LP  0  0  0  0  0  0  0  0  0  0  0  0  # atno 17371 bound_to 10713
  140.8447  134.3025  157.5300 LP  0  0  0  0  0  0  0  0  0  0  0  0  # atno 17394 bound_to 11000
  139.8721  134.9435  156.3855 LP  0  0  0  0  0  0  0  0  0  0  0  0  # atno 17395 bound_to 11000

$$$$
