AV-unprocessed.smi:1503|AV-procd|sdf|6068|dock2
  -GOLD-   22720 6183D 1   1.00000     0.00000
 Structure written by MMmdl.
 44 45  0  0  0  0  0  0  0  0  1 V2000
  146.4351  132.9760  152.2309 C   0  0  0  0  0  0  0  0  0  0  0  0
  147.7229  133.2919  152.4336 C   0  0  0  0  0  0  0  0  0  0  0  0
  148.4476  133.1365  153.7564 C   0  0  0  0  0  0  0  0  0  0  0  0
  149.0748  134.3852  154.1725 N   0  0  0  0  0  0  0  0  0  0  0  0
  149.7905  134.5565  155.2950 C   0  0  0  0  0  0  0  0  0  0  0  0
  149.9876  133.6577  156.1133 O   0  0  0  0  0  0  0  0  0  0  0  0
  150.3654  135.9576  155.5222 C   0  0  0  0  0  0  0  0  0  0  0  0
  151.2326  136.0549  156.7917 C   0  0  0  0  0  0  0  0  0  0  0  0
  151.4928  137.5025  157.1994 C   0  0  0  0  0  0  0  0  0  0  0  0
  152.0579  138.4217  156.3677 C   0  0  0  0  0  0  0  0  0  0  0  0
  152.4679  138.1027  154.9407 C   0  0  0  0  0  0  0  0  0  0  0  0
  152.2913  139.7379  156.7853 N   0  0  0  0  0  0  0  0  0  0  0  0
  151.9691  140.1107  157.9842 C   0  0  0  0  0  0  0  0  0  0  0  0
  152.1545  141.3862  158.5222 N   0  0  0  0  0  0  0  0  0  0  0  0
  152.1468  141.6201  159.9687 C   0  0  0  0  0  0  0  0  0  0  0  0
  152.8966  142.9132  160.3299 C   0  0  0  0  0  0  0  0  0  0  0  0
  152.3387  144.0066  159.6141 O   0  0  0  0  0  0  0  0  0  0  0  0
  152.4661  143.8261  158.2105 C   0  0  0  0  0  0  0  0  0  0  0  0
  151.7033  142.5624  157.7787 C   0  0  0  0  0  0  0  0  0  0  0  0
  151.3947  139.1953  158.8728 N   0  0  0  0  0  0  0  0  0  0  0  0
  151.1277  137.9064  158.5667 C   0  0  0  0  0  0  0  0  0  0  0  0
  150.6128  137.1620  159.3997 O   0  0  0  0  0  0  0  0  0  0  0  0
  151.1611  139.5093  159.8032 H   0  0  0  0  0  0  0  0  0  0  0  0
  145.8210  132.5830  153.0280 H   0  0  0  0  0  0  0  0  0  0  0  0
  145.9780  133.1068  151.2611 H   0  0  0  0  0  0  0  0  0  0  0  0
  148.3056  133.6782  151.6096 H   0  0  0  0  0  0  0  0  0  0  0  0
  147.7483  132.8212  154.5314 H   0  0  0  0  0  0  0  0  0  0  0  0
  149.1960  132.3479  153.6660 H   0  0  0  0  0  0  0  0  0  0  0  0
  148.9612  135.1783  153.5579 H   0  0  0  0  0  0  0  0  0  0  0  0
  150.9587  136.2478  154.6536 H   0  0  0  0  0  0  0  0  0  0  0  0
  149.5343  136.6611  155.5813 H   0  0  0  0  0  0  0  0  0  0  0  0
  150.7545  135.5306  157.6210 H   0  0  0  0  0  0  0  0  0  0  0  0
  152.1769  135.5338  156.6335 H   0  0  0  0  0  0  0  0  0  0  0  0
  151.6408  137.6488  154.3943 H   0  0  0  0  0  0  0  0  0  0  0  0
  153.3111  137.4119  154.9331 H   0  0  0  0  0  0  0  0  0  0  0  0
  152.7666  139.0039  154.4038 H   0  0  0  0  0  0  0  0  0  0  0  0
  151.1110  141.6888  160.3032 H   0  0  0  0  0  0  0  0  0  0  0  0
  152.5962  140.7918  160.5166 H   0  0  0  0  0  0  0  0  0  0  0  0
  152.8108  143.1094  161.3987 H   0  0  0  0  0  0  0  0  0  0  0  0
  153.9611  142.8201  160.1081 H   0  0  0  0  0  0  0  0  0  0  0  0
  152.0600  144.7009  157.7028 H   0  0  0  0  0  0  0  0  0  0  0  0
  153.5193  143.7580  157.9336 H   0  0  0  0  0  0  0  0  0  0  0  0
  151.8413  142.4143  156.7066 H   0  0  0  0  0  0  0  0  0  0  0  0
  150.6337  142.6965  157.9460 H   0  0  0  0  0  0  0  0  0  0  0  0
  1  2  2  0  0  0  0
  1 24  1  0  0  0  0
  1 25  1  0  0  0  0
  2  3  1  0  0  0  0
  2 26  1  0  0  0  0
  3  4  1  0  0  0  0
  3 27  1  0  0  0  0
  3 28  1  0  0  0  0
  4  5  1  0  0  0  0
  4 29  1  0  0  0  0
  5  6  2  0  0  0  0
  5  7  1  0  0  0  0
  7  8  1  0  0  0  0
  7 30  1  0  0  0  0
  7 31  1  0  0  0  0
  8  9  1  0  0  0  0
  8 32  1  0  0  0  0
  8 33  1  0  0  0  0
  9 21  1  0  0  0  0
  9 10  2  0  0  0  0
 10 11  1  0  0  0  0
 10 12  1  0  0  0  0
 11 34  1  0  0  0  0
 11 35  1  0  0  0  0
 11 36  1  0  0  0  0
 12 13  2  0  0  0  0
 13 14  1  0  0  0  0
 13 20  1  0  0  0  0
 14 19  1  0  0  0  0
 14 15  1  0  0  0  0
 15 16  1  0  0  0  0
 15 37  1  0  0  0  0
 15 38  1  0  0  0  0
 16 17  1  0  0  0  0
 16 39  1  0  0  0  0
 16 40  1  0  0  0  0
 17 18  1  0  0  0  0
 18 19  1  0  0  0  0
 18 41  1  0  0  0  0
 18 42  1  0  0  0  0
 19 43  1  0  0  0  0
 19 44  1  0  0  0  0
 20 23  1  0  0  0  0
 20 21  1  0  0  0  0
 21 22  2  0  0  0  0
M  END
> <s_m_source_file>
AV-unprocessed.smi

> <i_m_source_file_index>
1503

> <i_lp_mmshare_version>
43012

> <i_f3d_flags>
0

> <s_epik_input>
W0NIMl09W0NIXVtDSDJdW05IXUMoPU8pW0NIMl1bQ0gyXWMxYyhbQ0gzXSluYyhbbkhdYzE9TylOMltDSDJdW0NIMl1PW0NIMl1bQ0gyXTI=

> <s_epik_cmdline>
J2VwaWtfcHl0aG9uJywgJy1waCcsICc3LjAnLCAnLXRuJywgJzgnLCAnLW1hJywgJzIwMCcsICctbWV0YWxfYmluZGluZycsICctaW1hZScsICc8aW5maWxlLm1hZT4nLCAnLW9tYWUnLCAnPG91dGZpbGUubWFlPic=

> <r_lp_tautomer_probability>
0.878553

> <r_epik_Ionization_Penalty>
0.00125265

> <r_epik_Ionization_Penalty_Charging>
0.00122759

> <r_epik_Ionization_Penalty_Neutral>
2.50575e-05

> <r_epik_State_Penalty>
0.0426914

> <r_epik_Charging_Adjusted_Penalty>
0.043919

> <i_epik_Tot_Q>
0

> <i_epik_Tot_abs_Q>
0

> <r_epik_Metal_State_Penalty>
1.02948

> <b_epik_Metal_Only>
0

> <s_lp_Force_Field>
OPLS_2005

> <r_lp_Energy>
21.7502

> <b_lp_Chiralities_Consistent>
1

> <s_lp_Variant>
AV-unprocessed.smi:1503-1

> <Gold.Version>
5.8.1

> <Gold.Id.Protein>
6NUR|6NUR_protein|mol2

> <Gold.PLP.Fitness>
48.6610

> <Gold.PLP.PLP>
-40.6089

> <Gold.PLP.part.hbond>
-3.0000

> <Gold.PLP.part.metal>
0.0000

> <Gold.PLP.part.buried>
-5.4225

> <Gold.PLP.part.nonpolar>
-31.8289

> <Gold.PLP.part.repulsive>
0.1432

> <Gold.PLP.ligand.clash>
0.0000

> <Gold.PLP.ligand.torsion>
0.6063

> <Gold.PLP.Chemscore.Hbond>
3.0000

> <Gold.PLP.Chemscore.CHOScore>
0.0000

> <Gold.PLP.Chemscore.Metal>
0.0000

> <Gold.Chemscore.Hbonds>
donor molecule, donor type, donor heavy atom, donor atom, acceptor molecule, acceptor atom, score
      L1  H     4    29       P1  7948  1.00
      P1  H  6896  6907       L1    22  0.59
      P1  H  7997  8008       L1    12  0.81

> <Gold.PLP.Chemscore.Internal.Correction>
0.2647

> <Gold.Rescore>
     Score         DG    S(hbond)    S(metal)    S(lipo)     H(rot)  DE(clash)    DE(int)     intcor
     17.09     -17.91       2.18        0.00      85.97       1.92       0.06       0.76       ----

> <Gold.Chemscore.Fitness>
17.0919

> <Gold.Chemscore.DG>
-17.9070

> <Gold.Chemscore.ZeroCoef>
-5.4800

> <Gold.Chemscore.Hbond>
2.1799

> <Gold.Chemscore.Metal>
0.0000

> <Gold.Chemscore.Lipo>
85.9667

> <Gold.Chemscore.Internal_Hbond>
0.0000

> <Gold.Chemscore.DEClash>
0.0564

> <Gold.Chemscore.DEInternal>
0.7587

> <Gold.Chemscore.Rot>
1.9187

> <Gold.Chemscore.Internal.Correction>
   9.000000E+99

> <Gold.Chemscore.Hbonds>
donor molecule, donor type, donor heavy atom, donor atom, acceptor molecule, acceptor atom, score
      L1  H     4    29       P1  7948  0.54
      P1  H  6896  6907       L1    22  0.58
      P1  H  7997  8008       L1    12  0.34

> <Gold.Chemscore.Hbond.Weighted>
-7.2808

> <Gold.Chemscore.Metal.Weighted>
-0.0000

> <Gold.Chemscore.Lipo.Weighted>
-10.0581

> <Gold.Chemscore.Internal_Hbond.Weighted>
0.0000

> <Gold.Chemscore.DEClash.Weighted>
0.0564

> <Gold.Chemscore.DEInternal.Weighted>
0.7587

> <Gold.Chemscore.Rot.Weighted>
4.9119

> <Gold.Chemscore.Internal.Correction.Weighted>
   9.000000E+99

> <Gold.Protein.RotatedTorsions>
[ 6907 6896 6895 6894 ] final  -13.11 input  -60.11 | X-H torsion
[ 7974 7965 7964 7962 ] final    5.51 input  175.53 | X-H torsion
[ 8008 7997 7996 7995 ] final  -50.08 input   59.86 | X-H torsion
[ 10167 10162 10161 10158 ] final   38.42 input  -65.29 | X-H torsion
[ 10718 10713 10712 10709 ] final  -45.91 input   66.30 | X-H torsion
[ 10763 10752 10751 10750 ] final  174.02 input  -60.55 | X-H torsion
[ 11005 11000 10999 10996 ] final   23.21 input  -57.11 | X-H torsion

> <Gold.Protein.ActiveResidues>
 VAL166  LYS551  ARG553  GLY616  TRP617  ASP618  TYR619  PRO620  LYS621  CYS622 
 ASP623  PHE694  ASN695  SER759  ASP760  ASP761  ALA762  ILE779  LEU786  VAL792 
 PHE793  MET794  SER795  GLU796  ALA797  LYS798  CYS799  TRP800  GLU811  SER814 

> <Gold.Protein.RotatedAtoms>
  151.3601  135.0902  159.9431 H   0  0  0  0  0  0  0  0  0  0  0  0  # atno 6907 bound_to 6896
  152.5164  133.9267  159.7571 H   0  0  0  0  0  0  0  0  0  0  0  0  # atno 6908 bound_to 6896
  150.9659  133.6341  159.2775 H   0  0  0  0  0  0  0  0  0  0  0  0  # atno 6909 bound_to 6896
  146.2440  140.0373  142.8385 H   0  0  0  0  0  0  0  0  0  0  0  0  # atno 7974 bound_to 7965
  154.4055  140.1281  156.4607 H   0  0  0  0  0  0  0  0  0  0  0  0  # atno 8008 bound_to 7997
  155.7275  140.3492  155.5024 H   0  0  0  0  0  0  0  0  0  0  0  0  # atno 8009 bound_to 7997
  155.9157  140.1044  157.1235 H   0  0  0  0  0  0  0  0  0  0  0  0  # atno 8010 bound_to 7997
  140.3938  144.1816  150.6131 H   0  0  0  0  0  0  0  0  0  0  0  0  # atno 10167 bound_to 10162
  156.2236  130.4168  149.8962 H   0  0  0  0  0  0  0  0  0  0  0  0  # atno 10718 bound_to 10713
  154.4482  135.2764  155.1800 H   0  0  0  0  0  0  0  0  0  0  0  0  # atno 10763 bound_to 10752
  154.3638  135.6123  153.5708 H   0  0  0  0  0  0  0  0  0  0  0  0  # atno 10764 bound_to 10752
  152.9845  135.5841  154.4822 H   0  0  0  0  0  0  0  0  0  0  0  0  # atno 10765 bound_to 10752
  140.3721  134.2011  155.7666 H   0  0  0  0  0  0  0  0  0  0  0  0  # atno 11005 bound_to 11000
  145.1101  140.9400  143.4661 LP  0  0  0  0  0  0  0  0  0  0  0  0  # atno 17320 bound_to 7965
  145.0585  139.3124  143.5892 LP  0  0  0  0  0  0  0  0  0  0  0  0  # atno 17321 bound_to 7965
  140.4811  143.2379  151.8953 LP  0  0  0  0  0  0  0  0  0  0  0  0  # atno 17342 bound_to 10162
  139.4787  144.5268  151.8724 LP  0  0  0  0  0  0  0  0  0  0  0  0  # atno 17343 bound_to 10162
  156.6600  130.8778  151.3545 LP  0  0  0  0  0  0  0  0  0  0  0  0  # atno 17370 bound_to 10713
  157.7100  130.9429  150.1056 LP  0  0  0  0  0  0  0  0  0  0  0  0  # atno 17371 bound_to 10713
  141.1951  133.8113  157.0729 LP  0  0  0  0  0  0  0  0  0  0  0  0  # atno 17394 bound_to 11000
  140.0543  134.9789  157.1193 LP  0  0  0  0  0  0  0  0  0  0  0  0  # atno 17395 bound_to 11000

$$$$
