AV-unprocessed.smi:2799|AV-procd|sdf|10792|dock1
  -GOLD-   2272015223D 1   1.00000     0.00000
 Structure written by MMmdl.
 52 53  0  0  0  0  0  0  0  0  2 V2000
  146.2668  143.1243  153.4875 C   0  0  0  0  0  0  0  0  0  0  0  0
  146.2642  141.9845  154.5180 C   0  0  0  0  0  0  0  0  0  0  0  0
  146.5022  142.5425  155.9316 C   0  0  0  0  0  0  0  0  0  0  0  0
  147.3106  140.9103  154.1349 C   0  0  0  0  0  0  0  0  0  0  0  0
  147.3839  139.7510  155.0764 N   0  3  1  0  0  0  0  0  0  0  0  0
  146.1014  138.9865  155.1021 C   0  0  0  0  0  0  0  0  0  0  0  0
  146.1006  137.8874  156.1717 C   0  0  0  0  0  0  0  0  0  0  0  0
  147.2603  136.9224  155.9441 C   0  0  0  0  0  0  0  0  0  0  0  0
  148.5718  137.7080  155.9183 C   0  0  0  0  0  0  0  0  0  0  0  0
  148.5620  138.8409  154.8583 C   0  0  2  0  0  0  0  0  0  0  0  0
  149.9311  139.5827  154.8683 C   0  0  0  0  0  0  0  0  0  0  0  0
  150.0901  140.4822  156.0084 N   0  0  0  0  0  0  0  0  0  0  0  0
  151.1044  140.4417  156.8845 C   0  0  0  0  0  0  0  0  0  0  0  0
  152.0263  139.6304  156.8048 O   0  0  0  0  0  0  0  0  0  0  0  0
  150.9642  141.3935  157.8255 N   0  0  0  0  0  0  0  0  0  0  0  0
  151.7709  141.6803  158.9414 C   0  0  0  0  0  0  0  0  0  0  0  0
  152.7107  140.8465  159.4549 C   0  0  0  0  0  0  0  0  0  0  0  0
  153.4850  141.2247  160.6126 C   0  0  0  0  0  0  0  0  0  0  0  0
  153.2488  142.4175  161.1759 C   0  0  0  0  0  0  0  0  0  0  0  0
  152.2749  143.2931  160.6671 N   0  0  0  0  0  0  0  0  0  0  0  0
  152.0910  144.5747  161.3529 C   0  0  0  0  0  0  0  0  0  0  0  0
  151.5158  142.9905  159.5721 C   0  0  0  0  0  0  0  0  0  0  0  0
  150.6681  143.7790  159.1460 O   0  0  0  0  0  0  0  0  0  0  0  0
  147.2295  143.6362  153.4609 H   0  0  0  0  0  0  0  0  0  0  0  0
  145.5028  143.8667  153.7201 H   0  0  0  0  0  0  0  0  0  0  0  0
  146.0625  142.7482  152.4845 H   0  0  0  0  0  0  0  0  0  0  0  0
  145.2632  141.5584  154.4850 H   0  0  0  0  0  0  0  0  0  0  0  0
  147.4906  142.9950  156.0186 H   0  0  0  0  0  0  0  0  0  0  0  0
  146.4253  141.7622  156.6889 H   0  0  0  0  0  0  0  0  0  0  0  0
  145.7651  143.3069  156.1798 H   0  0  0  0  0  0  0  0  0  0  0  0
  147.1219  140.5374  153.1269 H   0  0  0  0  0  0  0  0  0  0  0  0
  148.2575  141.4391  154.0908 H   0  0  0  0  0  0  0  0  0  0  0  0
  145.2591  139.6401  155.3168 H   0  0  0  0  0  0  0  0  0  0  0  0
  145.9176  138.5515  154.1182 H   0  0  0  0  0  0  0  0  0  0  0  0
  146.1772  138.3350  157.1634 H   0  0  0  0  0  0  0  0  0  0  0  0
  145.1554  137.3442  156.1478 H   0  0  0  0  0  0  0  0  0  0  0  0
  147.2861  136.1689  156.7319 H   0  0  0  0  0  0  0  0  0  0  0  0
  147.1261  136.3891  155.0020 H   0  0  0  0  0  0  0  0  0  0  0  0
  148.7606  138.1317  156.9058 H   0  0  0  0  0  0  0  0  0  0  0  0
  149.3812  137.0031  155.7289 H   0  0  0  0  0  0  0  0  0  0  0  0
  148.4309  138.3841  153.8759 H   0  0  0  0  0  0  0  0  0  0  0  0
  150.7748  138.8960  154.9103 H   0  0  0  0  0  0  0  0  0  0  0  0
  150.0470  140.1678  153.9557 H   0  0  0  0  0  0  0  0  0  0  0  0
  149.3752  141.1831  156.1405 H   0  0  0  0  0  0  0  0  0  0  0  0
  150.1750  142.0142  157.7166 H   0  0  0  0  0  0  0  0  0  0  0  0
  152.9071  139.8748  159.0335 H   0  0  0  0  0  0  0  0  0  0  0  0
  154.2369  140.5620  161.0153 H   0  0  0  0  0  0  0  0  0  0  0  0
  153.7860  142.7722  162.0434 H   0  0  0  0  0  0  0  0  0  0  0  0
  151.0534  144.6996  161.6663 H   0  0  0  0  0  0  0  0  0  0  0  0
  152.3481  145.4011  160.6890 H   0  0  0  0  0  0  0  0  0  0  0  0
  152.7104  144.6680  162.2456 H   0  0  0  0  0  0  0  0  0  0  0  0
  147.5047  140.1455  155.9983 H   0  0  0  0  0  0  0  0  0  0  0  0
  1  2  1  0  0  0  0
  1 24  1  0  0  0  0
  1 25  1  0  0  0  0
  1 26  1  0  0  0  0
  2  3  1  0  0  0  0
  2  4  1  0  0  0  0
  2 27  1  0  0  0  0
  3 28  1  0  0  0  0
  3 29  1  0  0  0  0
  3 30  1  0  0  0  0
  4  5  1  0  0  0  0
  4 31  1  0  0  0  0
  4 32  1  0  0  0  0
  5 10  1  0  0  0  0
  5  6  1  0  0  0  0
  5 52  1  0  0  0  0
  6  7  1  0  0  0  0
  6 33  1  0  0  0  0
  6 34  1  0  0  0  0
  7  8  1  0  0  0  0
  7 35  1  0  0  0  0
  7 36  1  0  0  0  0
  8  9  1  0  0  0  0
  8 37  1  0  0  0  0
  8 38  1  0  0  0  0
  9 10  1  0  0  0  0
  9 39  1  0  0  0  0
  9 40  1  0  0  0  0
 10 11  1  0  0  0  0
 10 41  1  0  0  0  0
 11 12  1  0  0  0  0
 11 42  1  0  0  0  0
 11 43  1  0  0  0  0
 12 13  1  0  0  0  0
 12 44  1  0  0  0  0
 13 14  2  0  0  0  0
 13 15  1  0  0  0  0
 15 16  1  0  0  0  0
 15 45  1  0  0  0  0
 16 22  1  0  0  0  0
 16 17  2  0  0  0  0
 17 18  1  0  0  0  0
 17 46  1  0  0  0  0
 18 19  2  0  0  0  0
 18 47  1  0  0  0  0
 19 20  1  0  0  0  0
 19 48  1  0  0  0  0
 20 21  1  0  0  0  0
 20 22  1  0  0  0  0
 21 49  1  0  0  0  0
 21 50  1  0  0  0  0
 21 51  1  0  0  0  0
 22 23  2  0  0  0  0
M  CHG  1   5   1
M  END
> <s_m_source_file>
AV-unprocessed.smi

> <i_m_source_file_index>
2799

> <i_lp_mmshare_version>
43012

> <i_f3d_flags>
0

> <s_epik_input>
W0NIM11bQ0hdKFtDSDNdKVtDSDJdTjFbQ0gyXVtDSDJdW0NIMl1bQ0gyXVtDQEhdMVtDSDJdW05IXUMoPU8pW05IXWMyW2NIXVtjSF1bY0hdbihbQ0gzXSljMj1P

> <s_epik_cmdline>
J2VwaWtfcHl0aG9uJywgJy1waCcsICc3LjAnLCAnLXRuJywgJzgnLCAnLW1hJywgJzIwMCcsICctbWV0YWxfYmluZGluZycsICctaW1hZScsICc8aW5maWxlLm1hZT4nLCAnLW9tYWUnLCAnPG91dGZpbGUubWFlPic=

> <r_lp_tautomer_probability>
1

> <r_epik_Ionization_Penalty>
0.0010885

> <r_epik_Ionization_Penalty_Charging>
0.00106921

> <r_epik_Ionization_Penalty_Neutral>
1.92865e-05

> <r_epik_State_Penalty>
0.000697184

> <r_epik_Charging_Adjusted_Penalty>
0.0017664

> <i_epik_Tot_Q>
1

> <i_epik_Tot_abs_Q>
1

> <r_epik_Metal_State_Penalty>
-0

> <b_epik_Metal_Only>
0

> <s_lp_Force_Field>
OPLS_2005

> <r_lp_Energy>
36.993

> <b_lp_Chiralities_Consistent>
1

> <s_lp_Variant>
AV-unprocessed.smi:2799-4

> <Gold.Version>
5.8.1

> <Gold.Id.Protein>
6NUR|6NUR_protein|mol2

> <Gold.PLP.Fitness>
43.8377

> <Gold.PLP.PLP>
-41.0196

> <Gold.PLP.part.hbond>
-1.0000

> <Gold.PLP.part.metal>
0.0000

> <Gold.PLP.part.buried>
-3.7333

> <Gold.PLP.part.nonpolar>
-35.9700

> <Gold.PLP.part.repulsive>
0.2367

> <Gold.PLP.ligand.clash>
0.0000

> <Gold.PLP.ligand.torsion>
0.1882

> <Gold.PLP.Chemscore.Hbond>
1.0000

> <Gold.PLP.Chemscore.CHOScore>
0.0000

> <Gold.PLP.Chemscore.Metal>
0.0000

> <Gold.Chemscore.Hbonds>
donor molecule, donor type, donor heavy atom, donor atom, acceptor molecule, acceptor atom, score
      P1  H  7997  8008       L1    14  0.06

> <Gold.PLP.Chemscore.Internal.Correction>
0.1946

> <Gold.Rescore>
     Score         DG    S(hbond)    S(metal)    S(lipo)     H(rot)  DE(clash)    DE(int)     intcor
     13.81     -15.21       0.98        0.00      89.33       1.57       0.06       1.33       ----

> <Gold.Chemscore.Fitness>
13.8094

> <Gold.Chemscore.DG>
-15.2053

> <Gold.Chemscore.ZeroCoef>
-5.4800

> <Gold.Chemscore.Hbond>
0.9849

> <Gold.Chemscore.Metal>
0.0000

> <Gold.Chemscore.Lipo>
89.3315

> <Gold.Chemscore.Internal_Hbond>
0.0000

> <Gold.Chemscore.DEClash>
0.0615

> <Gold.Chemscore.DEInternal>
1.3344

> <Gold.Chemscore.Rot>
1.5688

> <Gold.Chemscore.Internal.Correction>
   9.000000E+99

> <Gold.Chemscore.Hbonds>
donor molecule, donor type, donor heavy atom, donor atom, acceptor molecule, acceptor atom, score
      P1  H  7997  8008       L1    14  0.10

> <Gold.Chemscore.Hbond.Weighted>
-3.2896

> <Gold.Chemscore.Metal.Weighted>
-0.0000

> <Gold.Chemscore.Lipo.Weighted>
-10.4518

> <Gold.Chemscore.Internal_Hbond.Weighted>
0.0000

> <Gold.Chemscore.DEClash.Weighted>
0.0615

> <Gold.Chemscore.DEInternal.Weighted>
1.3344

> <Gold.Chemscore.Rot.Weighted>
4.0161

> <Gold.Chemscore.Internal.Correction.Weighted>
   9.000000E+99

> <Gold.Protein.RotatedTorsions>
[ 6907 6896 6895 6894 ] final  161.58 input  -60.11 | X-H torsion
[ 7974 7965 7964 7962 ] final  -16.67 input  175.53 | X-H torsion
[ 8008 7997 7996 7995 ] final  -41.74 input   59.86 | X-H torsion
[ 10167 10162 10161 10158 ] final -131.26 input  -65.29 | X-H torsion
[ 10718 10713 10712 10709 ] final   90.75 input   66.30 | X-H torsion
[ 10763 10752 10751 10750 ] final   54.51 input  -60.55 | X-H torsion
[ 11005 11000 10999 10996 ] final -129.58 input  -57.11 | X-H torsion

> <Gold.Protein.ActiveResidues>
 VAL166  LYS551  ARG553  GLY616  TRP617  ASP618  TYR619  PRO620  LYS621  CYS622 
 ASP623  PHE694  ASN695  SER759  ASP760  ASP761  ALA762  ILE779  LEU786  VAL792 
 PHE793  MET794  SER795  GLU796  ALA797  LYS798  CYS799  TRP800  GLU811  SER814 

> <Gold.Protein.RotatedAtoms>
  151.9534  133.3673  159.4008 H   0  0  0  0  0  0  0  0  0  0  0  0  # atno 6907 bound_to 6896
  150.6976  134.4316  159.5260 H   0  0  0  0  0  0  0  0  0  0  0  0  # atno 6908 bound_to 6896
  152.1993  134.8602  160.0560 H   0  0  0  0  0  0  0  0  0  0  0  0  # atno 6909 bound_to 6896
  146.1977  140.3669  142.8434 H   0  0  0  0  0  0  0  0  0  0  0  0  # atno 7974 bound_to 7965
  154.4002  140.1491  156.3241 H   0  0  0  0  0  0  0  0  0  0  0  0  # atno 8008 bound_to 7997
  155.8503  140.3458  155.5667 H   0  0  0  0  0  0  0  0  0  0  0  0  # atno 8009 bound_to 7997
  155.7992  140.0867  157.1957 H   0  0  0  0  0  0  0  0  0  0  0  0  # atno 8010 bound_to 7997
  139.9207  143.6386  152.2554 H   0  0  0  0  0  0  0  0  0  0  0  0  # atno 10167 bound_to 10162
  157.6959  131.0382  150.3626 H   0  0  0  0  0  0  0  0  0  0  0  0  # atno 10718 bound_to 10713
  152.9805  135.5742  154.4915 H   0  0  0  0  0  0  0  0  0  0  0  0  # atno 10763 bound_to 10752
  154.4449  135.2777  155.1824 H   0  0  0  0  0  0  0  0  0  0  0  0  # atno 10764 bound_to 10752
  154.3476  135.6216  153.5680 H   0  0  0  0  0  0  0  0  0  0  0  0  # atno 10765 bound_to 10752
  140.9419  134.1181  157.4142 H   0  0  0  0  0  0  0  0  0  0  0  0  # atno 11005 bound_to 11000
  144.8615  140.7146  143.6104 LP  0  0  0  0  0  0  0  0  0  0  0  0  # atno 17320 bound_to 7965
  145.3589  139.1687  143.4394 LP  0  0  0  0  0  0  0  0  0  0  0  0  # atno 17321 bound_to 7965
  139.6864  144.7651  151.1516 LP  0  0  0  0  0  0  0  0  0  0  0  0  # atno 17342 bound_to 10162
  140.7663  143.5651  150.9056 LP  0  0  0  0  0  0  0  0  0  0  0  0  # atno 17343 bound_to 10162
  156.4060  130.3925  149.6925 LP  0  0  0  0  0  0  0  0  0  0  0  0  # atno 17370 bound_to 10713
  156.4226  130.7776  151.2794 LP  0  0  0  0  0  0  0  0  0  0  0  0  # atno 17371 bound_to 10713
  139.8823  135.0039  156.6217 LP  0  0  0  0  0  0  0  0  0  0  0  0  # atno 17394 bound_to 11000
  140.7722  133.8729  155.8500 LP  0  0  0  0  0  0  0  0  0  0  0  0  # atno 17395 bound_to 11000

$$$$
