AV-unprocessed.smi:169|AV-procd|sdf|1398|dock5
  -GOLD-   2262019143D 1   1.00000     0.00000
 Structure written by MMmdl.
 56 60  0  0  0  0  0  0  0  0  2 V2000
  152.4523  143.4506  158.3661 C   0  0  0  0  0  0  0  0  0  0  0  0
  151.3164  143.8471  157.4066 C   0  0  0  0  0  0  0  0  0  0  0  0
  150.3653  142.7437  157.1107 N   0  3  2  0  0  0  0  0  0  0  0  0
  149.5795  142.3122  158.2950 C   0  0  0  0  0  0  0  0  0  0  0  0
  148.1231  141.9507  157.9426 C   0  0  0  0  0  0  0  0  0  0  0  0
  147.9328  141.0461  156.7055 C   0  0  1  0  0  0  0  0  0  0  0  0
  147.8939  141.8258  155.3729 C   0  0  0  0  0  0  0  0  0  0  0  0
  149.1480  141.3936  154.6060 C   0  0  0  0  0  0  0  0  0  0  0  0
  149.9977  140.6710  155.6554 C   0  0  1  0  0  0  0  0  0  0  0  0
  150.9957  141.6131  156.3717 C   0  0  0  0  0  0  0  0  0  0  0  0
  149.0208  140.0810  156.5697 N   0  0  0  0  0  0  0  0  0  0  0  0
  148.6398  138.7825  156.4411 C   0  0  0  0  0  0  0  0  0  0  0  0
  149.0310  138.0493  155.3649 N   0  0  0  0  0  0  0  0  0  0  0  0
  148.6425  136.7772  155.2358 C   0  0  0  0  0  0  0  0  0  0  0  0
  147.8772  136.0517  156.0532 N   0  0  0  0  0  0  0  0  0  0  0  0
  147.4868  136.7782  157.1392 C   0  0  0  0  0  0  0  0  0  0  0  0
  147.8205  138.1353  157.4083 C   0  0  0  0  0  0  0  0  0  0  0  0
  147.2482  138.5337  158.6104 N   0  0  0  0  0  0  0  0  0  0  0  0
  146.6062  137.4754  159.0240 C   0  0  0  0  0  0  0  0  0  0  0  0
  146.7026  136.3723  158.2056 N   0  0  0  0  0  0  0  0  0  0  0  0
  146.0893  135.0703  158.4206 C   0  0  0  0  0  0  0  0  0  0  0  0
  144.6321  134.9785  157.9300 C   0  0  0  0  0  0  0  0  0  0  0  0
  144.1665  133.5124  158.0442 C   0  0  0  0  0  0  0  0  0  0  0  0
  142.9425  133.2785  157.3761 O   0  0  0  0  0  0  0  0  0  0  0  0
  143.6640  136.0379  158.4768 C   0  0  0  0  0  0  0  0  0  0  0  0
  143.2762  136.4560  157.1494 O   0  0  0  0  0  0  0  0  0  0  0  0
  144.3571  135.6770  156.5904 C   0  0  0  0  0  0  0  0  0  0  0  0
  153.0969  144.3067  158.5658 H   0  0  0  0  0  0  0  0  0  0  0  0
  153.0811  142.6649  157.9475 H   0  0  0  0  0  0  0  0  0  0  0  0
  152.0703  143.1016  159.3254 H   0  0  0  0  0  0  0  0  0  0  0  0
  150.7609  144.6870  157.8258 H   0  0  0  0  0  0  0  0  0  0  0  0
  151.7396  144.2108  156.4696 H   0  0  0  0  0  0  0  0  0  0  0  0
  150.0764  141.4727  158.7840 H   0  0  0  0  0  0  0  0  0  0  0  0
  149.5484  143.1097  159.0387 H   0  0  0  0  0  0  0  0  0  0  0  0
  147.6942  141.4462  158.8090 H   0  0  0  0  0  0  0  0  0  0  0  0
  147.5332  142.8602  157.8231 H   0  0  0  0  0  0  0  0  0  0  0  0
  146.9716  140.5400  156.8090 H   0  0  0  0  0  0  0  0  0  0  0  0
  146.9970  141.5831  154.8018 H   0  0  0  0  0  0  0  0  0  0  0  0
  147.8890  142.9044  155.5334 H   0  0  0  0  0  0  0  0  0  0  0  0
  148.8669  140.6921  153.8193 H   0  0  0  0  0  0  0  0  0  0  0  0
  149.6661  142.2275  154.1314 H   0  0  0  0  0  0  0  0  0  0  0  0
  150.5987  139.9063  155.1628 H   0  0  0  0  0  0  0  0  0  0  0  0
  151.6763  142.0167  155.6208 H   0  0  0  0  0  0  0  0  0  0  0  0
  151.6147  141.0300  157.0547 H   0  0  0  0  0  0  0  0  0  0  0  0
  148.9950  136.2678  154.3507 H   0  0  0  0  0  0  0  0  0  0  0  0
  146.0413  137.4722  159.9446 H   0  0  0  0  0  0  0  0  0  0  0  0
  146.7096  134.3287  157.9156 H   0  0  0  0  0  0  0  0  0  0  0  0
  146.1517  134.8296  159.4826 H   0  0  0  0  0  0  0  0  0  0  0  0
  144.9128  132.8349  157.6279 H   0  0  0  0  0  0  0  0  0  0  0  0
  144.0229  133.2244  159.0855 H   0  0  0  0  0  0  0  0  0  0  0  0
  143.1050  132.7061  156.6419 H   0  0  0  0  0  0  0  0  0  0  0  0
  142.8299  135.6299  159.0489 H   0  0  0  0  0  0  0  0  0  0  0  0
  144.1486  136.8477  159.0232 H   0  0  0  0  0  0  0  0  0  0  0  0
  145.1741  136.3124  156.2450 H   0  0  0  0  0  0  0  0  0  0  0  0
  144.0263  135.0110  155.7927 H   0  0  0  0  0  0  0  0  0  0  0  0
  149.6960  143.1511  156.4732 H   0  0  0  0  0  0  0  0  0  0  0  0
  1  2  1  0  0  0  0
  1 28  1  0  0  0  0
  1 29  1  0  0  0  0
  1 30  1  0  0  0  0
  2  3  1  0  0  0  0
  2 31  1  0  0  0  0
  2 32  1  0  0  0  0
  3 10  1  0  0  0  0
  3  4  1  0  0  0  0
  3 56  1  0  0  0  0
  4  5  1  0  0  0  0
  4 33  1  0  0  0  0
  4 34  1  0  0  0  0
  5  6  1  0  0  0  0
  5 35  1  0  0  0  0
  5 36  1  0  0  0  0
  6 11  1  0  0  0  0
  6  7  1  0  0  0  0
  6 37  1  0  0  0  0
  7  8  1  0  0  0  0
  7 38  1  0  0  0  0
  7 39  1  0  0  0  0
  8  9  1  0  0  0  0
  8 40  1  0  0  0  0
  8 41  1  0  0  0  0
  9 10  1  0  0  0  0
  9 11  1  0  0  0  0
  9 42  1  0  0  0  0
 10 43  1  0  0  0  0
 10 44  1  0  0  0  0
 11 12  1  0  0  0  0
 12 17  1  0  0  0  0
 12 13  2  0  0  0  0
 13 14  1  0  0  0  0
 14 15  2  0  0  0  0
 14 45  1  0  0  0  0
 15 16  1  0  0  0  0
 16 20  1  0  0  0  0
 16 17  2  0  0  0  0
 17 18  1  0  0  0  0
 18 19  2  0  0  0  0
 19 20  1  0  0  0  0
 19 46  1  0  0  0  0
 20 21  1  0  0  0  0
 21 22  1  0  0  0  0
 21 47  1  0  0  0  0
 21 48  1  0  0  0  0
 22 27  1  0  0  0  0
 22 23  1  0  0  0  0
 22 25  1  0  0  0  0
 23 24  1  0  0  0  0
 23 49  1  0  0  0  0
 23 50  1  0  0  0  0
 24 51  1  0  0  0  0
 25 26  1  0  0  0  0
 25 52  1  0  0  0  0
 25 53  1  0  0  0  0
 26 27  1  0  0  0  0
 27 54  1  0  0  0  0
 27 55  1  0  0  0  0
M  CHG  1   3   1
M  END
> <s_m_source_file>
AV-unprocessed.smi

> <i_m_source_file_index>
169

> <i_lp_mmshare_version>
43012

> <i_f3d_flags>
0

> <s_epik_input>
W0NASF0xMltDSDJdW0NIMl1OKFtDSDJdW0NIM10pW0NIMl1bQ0BIXShbQ0gyXVtDSDJdMSlOMmMobltjSF1uMyljKGMzNCluW2NIXW40W0NIMl1DNShbQ0gyXVtPSF0pW0NIMl1PW0NIMl01

> <s_epik_cmdline>
J2VwaWtfcHl0aG9uJywgJy1waCcsICc3LjAnLCAnLXRuJywgJzgnLCAnLW1hJywgJzIwMCcsICctbWV0YWxfYmluZGluZycsICctaW1hZScsICc8aW5maWxlLm1hZT4nLCAnLW9tYWUnLCAnPG91dGZpbGUubWFlPic=

> <r_lp_tautomer_probability>
1

> <r_epik_Ionization_Penalty>
0.00274162

> <r_epik_Ionization_Penalty_Charging>
0.00243722

> <r_epik_Ionization_Penalty_Neutral>
0.000304399

> <r_epik_State_Penalty>
-0

> <r_epik_Charging_Adjusted_Penalty>
0.00243722

> <i_epik_Tot_Q>
1

> <i_epik_Tot_abs_Q>
1

> <r_epik_Metal_State_Penalty>
-0

> <b_epik_Metal_Only>
0

> <s_lp_Force_Field>
OPLS_2005

> <r_lp_Energy>
78.5453

> <b_lp_Chiralities_Consistent>
1

> <s_lp_Variant>
AV-unprocessed.smi:169-1

> <Gold.Version>
5.8.1

> <Gold.Id.Protein>
6NUR|6NUR_protein|mol2

> <Gold.PLP.Fitness>
40.4456

> <Gold.PLP.PLP>
-26.3839

> <Gold.PLP.part.hbond>
-4.0000

> <Gold.PLP.part.metal>
0.0000

> <Gold.PLP.part.buried>
-2.4109

> <Gold.PLP.part.nonpolar>
-20.7374

> <Gold.PLP.part.repulsive>
0.1296

> <Gold.PLP.ligand.clash>
0.0000

> <Gold.PLP.ligand.torsion>
0.7017

> <Gold.PLP.Chemscore.Hbond>
3.9887

> <Gold.PLP.Chemscore.CHOScore>
1.0000

> <Gold.PLP.Chemscore.Metal>
0.0000

> <Gold.Chemscore.Hbonds>
donor molecule, donor type, donor heavy atom, donor atom, acceptor molecule, acceptor atom, score
      L1  H     3    56       P1  8028  1.98
      L1  H    24    51       P1 10957  0.88
      P1  H  6934  6947       L1    18  0.01
      P1  H 11000 11005       L1    24  1.00
      L1  C    14    45       P1  7948  1.00

> <Gold.PLP.Chemscore.Internal.Correction>
0.4990

> <Gold.Rescore>
     Score         DG    S(hbond)    S(metal)    S(lipo)     H(rot)  DE(clash)    DE(int)     intcor
     14.45     -15.29       2.73        0.00      63.35       2.62       0.13       0.71       ----

> <Gold.Chemscore.Fitness>
14.4481

> <Gold.Chemscore.DG>
-15.2950

> <Gold.Chemscore.ZeroCoef>
-5.4800

> <Gold.Chemscore.Hbond>
2.7285

> <Gold.Chemscore.Metal>
0.0000

> <Gold.Chemscore.Lipo>
63.3495

> <Gold.Chemscore.Internal_Hbond>
0.0000

> <Gold.Chemscore.DEClash>
0.1349

> <Gold.Chemscore.DEInternal>
0.7120

> <Gold.Chemscore.Rot>
2.6212

> <Gold.Chemscore.Internal.Correction>
   9.000000E+99

> <Gold.Chemscore.Hbonds>
donor molecule, donor type, donor heavy atom, donor atom, acceptor molecule, acceptor atom, score
      L1  H     3    56       P1  8028  0.94
      L1  H    24    51       P1 10957  0.84
      P1  H 11000 11005       L1    24  0.54

> <Gold.Chemscore.Hbond.Weighted>
-9.1133

> <Gold.Chemscore.Metal.Weighted>
-0.0000

> <Gold.Chemscore.Lipo.Weighted>
-7.4119

> <Gold.Chemscore.Internal_Hbond.Weighted>
0.0000

> <Gold.Chemscore.DEClash.Weighted>
0.1349

> <Gold.Chemscore.DEInternal.Weighted>
0.7120

> <Gold.Chemscore.Rot.Weighted>
6.7102

> <Gold.Chemscore.Internal.Correction.Weighted>
   9.000000E+99

> <Gold.Protein.RotatedTorsions>
[ 6907 6896 6895 6894 ] final -178.88 input  -60.11 | X-H torsion
[ 7974 7965 7964 7962 ] final  -22.08 input  175.53 | X-H torsion
[ 8008 7997 7996 7995 ] final -100.80 input   59.86 | X-H torsion
[ 10167 10162 10161 10158 ] final  120.87 input  -65.29 | X-H torsion
[ 10718 10713 10712 10709 ] final  166.58 input   66.30 | X-H torsion
[ 10763 10752 10751 10750 ] final -169.97 input  -60.55 | X-H torsion
[ 11005 11000 10999 10996 ] final -106.69 input  -57.11 | X-H torsion

> <Gold.Protein.ActiveResidues>
 VAL166  LYS551  ARG553  GLY616  TRP617  ASP618  TYR619  PRO620  LYS621  CYS622 
 ASP623  PHE694  ASN695  SER759  ASP760  ASP761  ALA762  ILE779  LEU786  VAL792 
 PHE793  MET794  SER795  GLU796  ALA797  LYS798  CYS799  TRP800  GLU811  SER814 

> <Gold.Protein.RotatedAtoms>
  151.6444  133.3324  159.3137 H   0  0  0  0  0  0  0  0  0  0  0  0  # atno 6907 bound_to 6896
  150.7991  134.7077  159.6595 H   0  0  0  0  0  0  0  0  0  0  0  0  # atno 6908 bound_to 6896
  152.4082  134.6175  160.0093 H   0  0  0  0  0  0  0  0  0  0  0  0  # atno 6909 bound_to 6896
  146.1696  140.4430  142.8538 H   0  0  0  0  0  0  0  0  0  0  0  0  # atno 7974 bound_to 7965
  154.8337  140.0438  157.1494 H   0  0  0  0  0  0  0  0  0  0  0  0  # atno 8008 bound_to 7997
  154.9124  140.3015  155.5239 H   0  0  0  0  0  0  0  0  0  0  0  0  # atno 8009 bound_to 7997
  156.2988  140.2356  156.4164 H   0  0  0  0  0  0  0  0  0  0  0  0  # atno 8010 bound_to 7997
  139.5955  144.7040  151.3187 H   0  0  0  0  0  0  0  0  0  0  0  0  # atno 10167 bound_to 10162
  157.0638  131.0347  151.2637 H   0  0  0  0  0  0  0  0  0  0  0  0  # atno 10718 bound_to 10713
  154.6466  135.2905  155.0039 H   0  0  0  0  0  0  0  0  0  0  0  0  # atno 10763 bound_to 10752
  154.1147  135.6557  153.4895 H   0  0  0  0  0  0  0  0  0  0  0  0  # atno 10764 bound_to 10752
  153.0354  135.5273  154.7355 H   0  0  0  0  0  0  0  0  0  0  0  0  # atno 10765 bound_to 10752
  141.0992  133.8915  157.1886 H   0  0  0  0  0  0  0  0  0  0  0  0  # atno 11005 bound_to 11000
  144.8143  140.6441  143.6394 LP  0  0  0  0  0  0  0  0  0  0  0  0  # atno 17320 bound_to 7965
  145.4375  139.1540  143.3988 LP  0  0  0  0  0  0  0  0  0  0  0  0  # atno 17321 bound_to 7965
  140.7208  143.7141  150.7747 LP  0  0  0  0  0  0  0  0  0  0  0  0  # atno 17342 bound_to 10162
  140.0706  143.5065  152.2582 LP  0  0  0  0  0  0  0  0  0  0  0  0  # atno 17343 bound_to 10162
  157.4934  130.7835  149.7530 LP  0  0  0  0  0  0  0  0  0  0  0  0  # atno 17370 bound_to 10713
  155.9970  130.3902  150.2755 LP  0  0  0  0  0  0  0  0  0  0  0  0  # atno 17371 bound_to 10713
  139.9838  135.0089  156.9813 LP  0  0  0  0  0  0  0  0  0  0  0  0  # atno 17394 bound_to 11000
  140.5065  134.1045  155.7261 LP  0  0  0  0  0  0  0  0  0  0  0  0  # atno 17395 bound_to 11000

$$$$
