AV-unprocessed.smi:212|AV-procd|sdf|1617|dock7
  -GOLD-   2262019543D 1   1.00000     0.00000
 Structure written by MMmdl.
 65 68  0  0  0  0  0  0  0  0  2 V2000
  147.0234  137.1484  156.5056 C   0  0  0  0  0  0  0  0  0  0  0  0
  146.4440  137.3012  155.0859 C   0  0  2  0  0  0  0  0  0  0  0  0
  146.6446  136.0344  154.2289 C   0  0  0  0  0  0  0  0  0  0  0  0
  146.0144  136.1934  152.8935 N   0  3  2  0  0  0  0  0  0  0  0  0
  146.0672  134.9573  152.0685 C   0  0  0  0  0  0  0  0  0  0  0  0
  144.8401  134.8115  151.1384 C   0  0  0  0  0  0  0  0  0  0  0  0
  144.8796  133.4528  150.4194 C   0  0  0  0  0  0  0  0  0  0  0  0
  143.5092  134.9747  151.8959 C   0  0  0  0  0  0  0  0  0  0  0  0
  144.9034  135.8017  150.1311 O   0  0  0  0  0  0  0  0  0  0  0  0
  146.5057  137.3990  152.1771 C   0  0  0  0  0  0  0  0  0  0  0  0
  146.3524  138.6687  153.0393 C   0  0  0  0  0  0  0  0  0  0  0  0
  146.9122  138.4972  154.3779 N   0  0  0  0  0  0  0  0  0  0  0  0
  148.2173  138.8359  154.5019 C   0  0  0  0  0  0  0  0  0  0  0  0
  149.1794  138.0956  153.8927 N   0  0  0  0  0  0  0  0  0  0  0  0
  150.4663  138.4298  154.0306 C   0  0  0  0  0  0  0  0  0  0  0  0
  150.9967  139.4430  154.7196 N   0  0  0  0  0  0  0  0  0  0  0  0
  150.0305  140.1854  155.3328 C   0  0  0  0  0  0  0  0  0  0  0  0
  148.6284  139.9531  155.2745 C   0  0  0  0  0  0  0  0  0  0  0  0
  147.9529  140.9094  156.0211 N   0  0  0  0  0  0  0  0  0  0  0  0
  148.9038  141.6675  156.4959 C   0  0  0  0  0  0  0  0  0  0  0  0
  150.1811  141.3077  156.1283 N   0  0  0  0  0  0  0  0  0  0  0  0
  151.4129  141.9711  156.5206 C   0  0  0  0  0  0  0  0  0  0  0  0
  151.2861  142.7722  157.8408 C   0  0  2  0  0  0  0  0  0  0  0  0
  151.1280  144.2886  157.5571 C   0  0  0  0  0  0  0  0  0  0  0  0
  150.3848  144.9381  158.5668 O   0  0  0  0  0  0  0  0  0  0  0  0
  152.4913  142.4727  158.7754 C   0  0  2  0  0  0  0  0  0  0  0  0
  152.5840  141.0354  159.2624 C   0  0  0  0  0  0  0  0  0  0  0  0
  153.5260  141.1515  160.4552 C   0  0  0  0  0  0  0  0  0  0  0  0
  153.2883  142.4398  161.0083 O   0  0  0  0  0  0  0  0  0  0  0  0
  152.4829  143.2086  160.1207 C   0  0  0  0  0  0  0  0  0  0  0  0
  146.5557  136.3130  157.0269 H   0  0  0  0  0  0  0  0  0  0  0  0
  146.8462  138.0445  157.1013 H   0  0  0  0  0  0  0  0  0  0  0  0
  148.0978  136.9617  156.4903 H   0  0  0  0  0  0  0  0  0  0  0  0
  145.3688  137.4399  155.2085 H   0  0  0  0  0  0  0  0  0  0  0  0
  147.7055  135.8098  154.1100 H   0  0  0  0  0  0  0  0  0  0  0  0
  146.1954  135.1801  154.7371 H   0  0  0  0  0  0  0  0  0  0  0  0
  146.9920  134.9298  151.4895 H   0  0  0  0  0  0  0  0  0  0  0  0
  146.1101  134.0819  152.7188 H   0  0  0  0  0  0  0  0  0  0  0  0
  144.8329  132.6284  151.1317 H   0  0  0  0  0  0  0  0  0  0  0  0
  145.7962  133.3340  149.8402 H   0  0  0  0  0  0  0  0  0  0  0  0
  144.0404  133.3391  149.7321 H   0  0  0  0  0  0  0  0  0  0  0  0
  143.4173  134.2350  152.6921 H   0  0  0  0  0  0  0  0  0  0  0  0
  142.6554  134.8464  151.2292 H   0  0  0  0  0  0  0  0  0  0  0  0
  143.4180  135.9612  152.3508 H   0  0  0  0  0  0  0  0  0  0  0  0
  145.2739  135.4156  149.3513 H   0  0  0  0  0  0  0  0  0  0  0  0
  147.5500  137.2522  151.9002 H   0  0  0  0  0  0  0  0  0  0  0  0
  145.9556  137.5271  151.2449 H   0  0  0  0  0  0  0  0  0  0  0  0
  146.8147  139.5218  152.5405 H   0  0  0  0  0  0  0  0  0  0  0  0
  145.2948  138.9125  153.1463 H   0  0  0  0  0  0  0  0  0  0  0  0
  151.1723  137.7938  153.5172 H   0  0  0  0  0  0  0  0  0  0  0  0
  148.6990  142.5176  157.1308 H   0  0  0  0  0  0  0  0  0  0  0  0
  152.1736  141.1959  156.6073 H   0  0  0  0  0  0  0  0  0  0  0  0
  151.7336  142.6288  155.7118 H   0  0  0  0  0  0  0  0  0  0  0  0
  150.3776  142.4273  158.3375 H   0  0  0  0  0  0  0  0  0  0  0  0
  152.1026  144.7669  157.4545 H   0  0  0  0  0  0  0  0  0  0  0  0
  150.5929  144.4697  156.6260 H   0  0  0  0  0  0  0  0  0  0  0  0
  149.6122  145.3167  158.1755 H   0  0  0  0  0  0  0  0  0  0  0  0
  153.4191  142.7159  158.2550 H   0  0  0  0  0  0  0  0  0  0  0  0
  151.6058  140.6805  159.5911 H   0  0  0  0  0  0  0  0  0  0  0  0
  152.9632  140.3452  158.5083 H   0  0  0  0  0  0  0  0  0  0  0  0
  153.3654  140.3642  161.1919 H   0  0  0  0  0  0  0  0  0  0  0  0
  154.5646  141.1018  160.1261 H   0  0  0  0  0  0  0  0  0  0  0  0
  152.8617  144.2279  160.0421 H   0  0  0  0  0  0  0  0  0  0  0  0
  151.4730  143.2528  160.5312 H   0  0  0  0  0  0  0  0  0  0  0  0
  145.0344  136.3569  153.0749 H   0  0  0  0  0  0  0  0  0  0  0  0
  1  2  1  0  0  0  0
  1 31  1  0  0  0  0
  1 32  1  0  0  0  0
  1 33  1  0  0  0  0
  2 12  1  0  0  0  0
  2  3  1  0  0  0  0
  2 34  1  0  0  0  0
  3  4  1  0  0  0  0
  3 35  1  0  0  0  0
  3 36  1  0  0  0  0
  4  5  1  0  0  0  0
  4 10  1  0  0  0  0
  4 65  1  0  0  0  0
  5  6  1  0  0  0  0
  5 37  1  0  0  0  0
  5 38  1  0  0  0  0
  6  7  1  0  0  0  0
  6  8  1  0  0  0  0
  6  9  1  0  0  0  0
  7 39  1  0  0  0  0
  7 40  1  0  0  0  0
  7 41  1  0  0  0  0
  8 42  1  0  0  0  0
  8 43  1  0  0  0  0
  8 44  1  0  0  0  0
  9 45  1  0  0  0  0
 10 11  1  0  0  0  0
 10 46  1  0  0  0  0
 10 47  1  0  0  0  0
 11 12  1  0  0  0  0
 11 48  1  0  0  0  0
 11 49  1  0  0  0  0
 12 13  1  0  0  0  0
 13 18  1  0  0  0  0
 13 14  2  0  0  0  0
 14 15  1  0  0  0  0
 15 16  2  0  0  0  0
 15 50  1  0  0  0  0
 16 17  1  0  0  0  0
 17 21  1  0  0  0  0
 17 18  2  0  0  0  0
 18 19  1  0  0  0  0
 19 20  2  0  0  0  0
 20 21  1  0  0  0  0
 20 51  1  0  0  0  0
 21 22  1  0  0  0  0
 22 23  1  0  0  0  0
 22 52  1  0  0  0  0
 22 53  1  0  0  0  0
 23 24  1  0  0  0  0
 23 26  1  0  0  0  0
 23 54  1  0  0  0  0
 24 25  1  0  0  0  0
 24 55  1  0  0  0  0
 24 56  1  0  0  0  0
 25 57  1  0  0  0  0
 26 30  1  0  0  0  0
 26 27  1  0  0  0  0
 26 58  1  0  0  0  0
 27 28  1  0  0  0  0
 27 59  1  0  0  0  0
 27 60  1  0  0  0  0
 28 29  1  0  0  0  0
 28 61  1  0  0  0  0
 28 62  1  0  0  0  0
 29 30  1  0  0  0  0
 30 63  1  0  0  0  0
 30 64  1  0  0  0  0
M  CHG  1   4   1
M  END
> <s_m_source_file>
AV-unprocessed.smi

> <i_m_source_file_index>
212

> <i_lp_mmshare_version>
43012

> <i_f3d_flags>
0

> <s_epik_input>
W0NIM11bQ0BASF0xW0NIMl1OKFtDSDJdQyhbQ0gzXSkoW0NIM10pW09IXSlbQ0gyXVtDSDJdTjFjKG5bY0hdbjIpYyhjMjMpbltjSF1uM1tDSDJdW0NASF0oW0NIMl1bT0hdKVtDQEBIXTRbQ0gyXVtDSDJdT1tDSDJdNA==

> <s_epik_cmdline>
J2VwaWtfcHl0aG9uJywgJy1waCcsICc3LjAnLCAnLXRuJywgJzgnLCAnLW1hJywgJzIwMCcsICctbWV0YWxfYmluZGluZycsICctaW1hZScsICc8aW5maWxlLm1hZT4nLCAnLW9tYWUnLCAnPG91dGZpbGUubWFlPic=

> <r_lp_tautomer_probability>
1

> <r_epik_Ionization_Penalty>
0.00182193

> <r_epik_Ionization_Penalty_Charging>
0.00173996

> <r_epik_Ionization_Penalty_Neutral>
8.19718e-05

> <r_epik_State_Penalty>
-0

> <r_epik_Charging_Adjusted_Penalty>
0.00173996

> <i_epik_Tot_Q>
1

> <i_epik_Tot_abs_Q>
1

> <r_epik_Metal_State_Penalty>
-0

> <b_epik_Metal_Only>
0

> <s_lp_Force_Field>
OPLS_2005

> <r_lp_Energy>
60.482

> <b_lp_Chiralities_Consistent>
1

> <s_lp_Variant>
AV-unprocessed.smi:212-1

> <Gold.Version>
5.8.1

> <Gold.Id.Protein>
6NUR|6NUR_protein|mol2

> <Gold.PLP.Fitness>
49.6399

> <Gold.PLP.PLP>
-40.5483

> <Gold.PLP.part.hbond>
-5.3219

> <Gold.PLP.part.metal>
0.0000

> <Gold.PLP.part.buried>
-0.5338

> <Gold.PLP.part.nonpolar>
-38.8233

> <Gold.PLP.part.repulsive>
2.9589

> <Gold.PLP.ligand.clash>
0.0000

> <Gold.PLP.ligand.torsion>
1.8906

> <Gold.PLP.Chemscore.Hbond>
2.8000

> <Gold.PLP.Chemscore.CHOScore>
1.1300

> <Gold.PLP.Chemscore.Metal>
0.0000

> <Gold.Chemscore.Hbonds>
donor molecule, donor type, donor heavy atom, donor atom, acceptor molecule, acceptor atom, score
      L1  H     9    45       P1  7921  1.00
      L1  H    25    57       P1  8029  1.00
      P1  H  7989  7998       L1    16  0.85
      L1  C    15    50       P1  7949  0.55
      L1  C    20    51       P1  8028  0.41

> <Gold.PLP.Chemscore.Internal.Correction>
1.0831

> <Gold.Rescore>
     Score         DG    S(hbond)    S(metal)    S(lipo)     H(rot)  DE(clash)    DE(int)     intcor
     10.13     -15.73       2.15        0.00     106.72       3.68       3.64       1.97       ----

> <Gold.Chemscore.Fitness>
10.1256

> <Gold.Chemscore.DG>
-15.7344

> <Gold.Chemscore.ZeroCoef>
-5.4800

> <Gold.Chemscore.Hbond>
2.1535

> <Gold.Chemscore.Metal>
0.0000

> <Gold.Chemscore.Lipo>
106.7162

> <Gold.Chemscore.Internal_Hbond>
0.0000

> <Gold.Chemscore.DEClash>
3.6425

> <Gold.Chemscore.DEInternal>
1.9663

> <Gold.Chemscore.Rot>
3.6812

> <Gold.Chemscore.Internal.Correction>
   9.000000E+99

> <Gold.Chemscore.Hbonds>
donor molecule, donor type, donor heavy atom, donor atom, acceptor molecule, acceptor atom, score
      L1  H     9    45       P1  7921  0.96
      L1  H    25    57       P1  8029  0.37
      P1  H  7989  7998       L1    16  0.11

> <Gold.Chemscore.Hbond.Weighted>
-7.1926

> <Gold.Chemscore.Metal.Weighted>
-0.0000

> <Gold.Chemscore.Lipo.Weighted>
-12.4858

> <Gold.Chemscore.Internal_Hbond.Weighted>
0.0000

> <Gold.Chemscore.DEClash.Weighted>
3.6425

> <Gold.Chemscore.DEInternal.Weighted>
1.9663

> <Gold.Chemscore.Rot.Weighted>
9.4239

> <Gold.Chemscore.Internal.Correction.Weighted>
   9.000000E+99

> <Gold.Protein.RotatedTorsions>
[ 6907 6896 6895 6894 ] final  107.57 input  -60.11 | X-H torsion
[ 7974 7965 7964 7962 ] final  134.15 input  175.53 | X-H torsion
[ 8008 7997 7996 7995 ] final  -83.47 input   59.86 | X-H torsion
[ 10167 10162 10161 10158 ] final -173.32 input  -65.29 | X-H torsion
[ 10718 10713 10712 10709 ] final  -28.19 input   66.30 | X-H torsion
[ 10763 10752 10751 10750 ] final   32.54 input  -60.55 | X-H torsion
[ 11005 11000 10999 10996 ] final  -64.99 input  -57.11 | X-H torsion

> <Gold.Protein.ActiveResidues>
 VAL166  LYS551  ARG553  GLY616  TRP617  ASP618  TYR619  PRO620  LYS621  CYS622 
 ASP623  PHE694  ASN695  SER759  ASP760  ASP761  ALA762  ILE779  LEU786  VAL792 
 PHE793  MET794  SER795  GLU796  ALA797  LYS798  CYS799  TRP800  GLU811  SER814 

> <Gold.Protein.RotatedAtoms>
  152.5149  133.9216  159.7536 H   0  0  0  0  0  0  0  0  0  0  0  0  # atno 6907 bound_to 6896
  150.9586  133.6461  159.2765 H   0  0  0  0  0  0  0  0  0  0  0  0  # atno 6908 bound_to 6896
  151.3714  135.0928  159.9519 H   0  0  0  0  0  0  0  0  0  0  0  0  # atno 6909 bound_to 6896
  144.9792  139.4522  143.5394 H   0  0  0  0  0  0  0  0  0  0  0  0  # atno 7974 bound_to 7965
  154.6194  140.0618  156.9595 H   0  0  0  0  0  0  0  0  0  0  0  0  # atno 8008 bound_to 7997
  155.1842  140.3302  155.4351 H   0  0  0  0  0  0  0  0  0  0  0  0  # atno 8009 bound_to 7997
  156.2423  140.1892  156.6937 H   0  0  0  0  0  0  0  0  0  0  0  0  # atno 8010 bound_to 7997
  139.5695  144.1676  152.1362 H   0  0  0  0  0  0  0  0  0  0  0  0  # atno 10167 bound_to 10162
  156.4284  130.4440  149.7134 H   0  0  0  0  0  0  0  0  0  0  0  0  # atno 10718 bound_to 10713
  153.0257  135.6410  154.1370 H   0  0  0  0  0  0  0  0  0  0  0  0  # atno 10763 bound_to 10752
  154.1100  135.2853  155.3234 H   0  0  0  0  0  0  0  0  0  0  0  0  # atno 10764 bound_to 10752
  154.6338  135.5483  153.7774 H   0  0  0  0  0  0  0  0  0  0  0  0  # atno 10765 bound_to 10752
  141.1441  133.6674  156.5918 H   0  0  0  0  0  0  0  0  0  0  0  0  # atno 11005 bound_to 11000
  146.3403  139.9055  142.8788 LP  0  0  0  0  0  0  0  0  0  0  0  0  # atno 17320 bound_to 7965
  145.2445  141.0021  143.3917 LP  0  0  0  0  0  0  0  0  0  0  0  0  # atno 17321 bound_to 7965
  140.1206  144.5377  150.6865 LP  0  0  0  0  0  0  0  0  0  0  0  0  # atno 17342 bound_to 10162
  140.6979  143.2415  151.4948 LP  0  0  0  0  0  0  0  0  0  0  0  0  # atno 17343 bound_to 10162
  156.4047  130.7692  151.2702 LP  0  0  0  0  0  0  0  0  0  0  0  0  # atno 17370 bound_to 10713
  157.7508  131.0229  150.3813 LP  0  0  0  0  0  0  0  0  0  0  0  0  # atno 17371 bound_to 10713
  140.3757  134.7567  157.4628 LP  0  0  0  0  0  0  0  0  0  0  0  0  # atno 17394 bound_to 11000
  140.0676  134.5908  155.8678 LP  0  0  0  0  0  0  0  0  0  0  0  0  # atno 17395 bound_to 11000

$$$$
