AV-unprocessed.smi:500|AV-procd|sdf|2735|dock4
  -GOLD-   2262023193D 1   1.00000     0.00000
 Structure written by MMmdl.
 45 47  0  0  0  0  0  0  0  0  1 V2000
  147.5730  142.0712  154.3477 C   0  0  0  0  0  0  0  0  0  0  0  0
  148.2988  140.9192  153.6492 C   0  0  0  0  0  0  0  0  0  0  0  0
  149.6319  140.8580  154.1342 O   0  0  0  0  0  0  0  0  0  0  0  0
  149.8146  139.9475  155.2085 C   0  0  0  0  0  0  0  0  0  0  0  0
  149.2840  140.5245  156.5317 C   0  0  0  0  0  0  0  0  0  0  0  0
  150.2679  140.4077  157.5962 N   0  0  0  0  0  0  0  0  0  0  0  0
  150.6296  139.3001  158.2943 C   0  0  0  0  0  0  0  0  0  0  0  0
  150.0123  137.9475  158.0347 C   0  0  1  0  0  0  0  0  0  0  0  0
  151.0656  136.9029  157.6433 C   0  0  0  0  0  0  0  0  0  0  0  0
  149.3006  137.5151  159.2364 N   0  0  0  0  0  0  0  0  0  0  0  0
  148.8535  136.2709  159.4715 C   0  0  0  0  0  0  0  0  0  0  0  0
  149.0324  135.3275  158.7016 O   0  0  0  0  0  0  0  0  0  0  0  0
  148.1235  136.0813  160.7389 C   0  0  0  0  0  0  0  0  0  0  0  0
  147.7146  134.9456  161.3878 C   0  0  0  0  0  0  0  0  0  0  0  0
  147.0705  135.3693  162.5830 C   0  0  0  0  0  0  0  0  0  0  0  0
  147.1363  136.7330  162.5820 C   0  0  0  0  0  0  0  0  0  0  0  0
  147.7780  137.1815  161.4690 O   0  0  0  0  0  0  0  0  0  0  0  0
  151.5889  139.4855  159.2061 N   0  0  0  0  0  0  0  0  0  0  0  0
  151.8486  140.8376  159.1107 C   0  0  0  0  0  0  0  0  0  0  0  0
  152.7572  141.6508  159.8251 C   0  0  0  0  0  0  0  0  0  0  0  0
  152.8467  143.0313  159.5515 C   0  0  0  0  0  0  0  0  0  0  0  0
  152.0315  143.6168  158.5612 C   0  0  0  0  0  0  0  0  0  0  0  0
  151.1214  142.8237  157.8362 C   0  0  0  0  0  0  0  0  0  0  0  0
  151.0359  141.4460  158.1135 C   0  0  0  0  0  0  0  0  0  0  0  0
  146.5408  142.1458  154.0050 H   0  0  0  0  0  0  0  0  0  0  0  0
  148.0628  143.0237  154.1434 H   0  0  0  0  0  0  0  0  0  0  0  0
  147.5573  141.9261  155.4283 H   0  0  0  0  0  0  0  0  0  0  0  0
  147.7822  139.9800  153.8525 H   0  0  0  0  0  0  0  0  0  0  0  0
  148.2828  141.0770  152.5708 H   0  0  0  0  0  0  0  0  0  0  0  0
  149.2560  139.0424  154.9680 H   0  0  0  0  0  0  0  0  0  0  0  0
  150.8602  139.6493  155.2910 H   0  0  0  0  0  0  0  0  0  0  0  0
  148.9916  141.5688  156.4321 H   0  0  0  0  0  0  0  0  0  0  0  0
  148.3825  139.9899  156.8317 H   0  0  0  0  0  0  0  0  0  0  0  0
  149.2896  138.0174  157.2218 H   0  0  0  0  0  0  0  0  0  0  0  0
  151.5931  137.2028  156.7375 H   0  0  0  0  0  0  0  0  0  0  0  0
  150.6050  135.9334  157.4511 H   0  0  0  0  0  0  0  0  0  0  0  0
  151.8077  136.7704  158.4315 H   0  0  0  0  0  0  0  0  0  0  0  0
  149.1030  138.2255  159.9263 H   0  0  0  0  0  0  0  0  0  0  0  0
  147.8621  133.9313  161.0467 H   0  0  0  0  0  0  0  0  0  0  0  0
  146.6190  134.7546  163.3475 H   0  0  0  0  0  0  0  0  0  0  0  0
  146.7981  137.5017  163.2612 H   0  0  0  0  0  0  0  0  0  0  0  0
  153.3849  141.2119  160.5864 H   0  0  0  0  0  0  0  0  0  0  0  0
  153.5433  143.6440  160.1046 H   0  0  0  0  0  0  0  0  0  0  0  0
  152.1054  144.6754  158.3589 H   0  0  0  0  0  0  0  0  0  0  0  0
  150.4949  143.2695  157.0780 H   0  0  0  0  0  0  0  0  0  0  0  0
  1  2  1  0  0  0  0
  1 25  1  0  0  0  0
  1 26  1  0  0  0  0
  1 27  1  0  0  0  0
  2  3  1  0  0  0  0
  2 28  1  0  0  0  0
  2 29  1  0  0  0  0
  3  4  1  0  0  0  0
  4  5  1  0  0  0  0
  4 30  1  0  0  0  0
  4 31  1  0  0  0  0
  5  6  1  0  0  0  0
  5 32  1  0  0  0  0
  5 33  1  0  0  0  0
  6 24  1  0  0  0  0
  6  7  1  0  0  0  0
  7  8  1  0  0  0  0
  7 18  2  0  0  0  0
  8  9  1  0  0  0  0
  8 10  1  0  0  0  0
  8 34  1  0  0  0  0
  9 35  1  0  0  0  0
  9 36  1  0  0  0  0
  9 37  1  0  0  0  0
 10 11  1  0  0  0  0
 10 38  1  0  0  0  0
 11 12  2  0  0  0  0
 11 13  1  0  0  0  0
 13 17  1  0  0  0  0
 13 14  2  0  0  0  0
 14 15  1  0  0  0  0
 14 39  1  0  0  0  0
 15 16  2  0  0  0  0
 15 40  1  0  0  0  0
 16 17  1  0  0  0  0
 16 41  1  0  0  0  0
 18 19  1  0  0  0  0
 19 24  2  0  0  0  0
 19 20  1  0  0  0  0
 20 21  2  0  0  0  0
 20 42  1  0  0  0  0
 21 22  1  0  0  0  0
 21 43  1  0  0  0  0
 22 23  2  0  0  0  0
 22 44  1  0  0  0  0
 23 24  1  0  0  0  0
 23 45  1  0  0  0  0
M  END
> <s_m_source_file>
AV-unprocessed.smi

> <i_m_source_file_index>
500

> <i_lp_mmshare_version>
43012

> <i_f3d_flags>
0

> <s_epik_input>
W0NIM11bQ0gyXU9bQ0gyXVtDSDJdbihjKGMxMilbY0hdW2NIXVtjSF1bY0hdMiljKG4xKVtDQEhdKFtDSDNdKVtOSF1DKD1PKWMzW2NIXVtjSF1bY0hdbzM=

> <s_epik_cmdline>
J2VwaWtfcHl0aG9uJywgJy1waCcsICc3LjAnLCAnLXRuJywgJzgnLCAnLW1hJywgJzIwMCcsICctbWV0YWxfYmluZGluZycsICctaW1hZScsICc8aW5maWxlLm1hZT4nLCAnLW9tYWUnLCAnPG91dGZpbGUubWFlPic=

> <r_epik_Ionization_Penalty>
0.109801

> <r_epik_Ionization_Penalty_Charging>
0

> <r_epik_Ionization_Penalty_Neutral>
0.109801

> <r_epik_State_Penalty>
0.0995533

> <r_epik_Charging_Adjusted_Penalty>
0.0995533

> <i_epik_Tot_Q>
0

> <i_epik_Tot_abs_Q>
0

> <r_epik_Metal_State_Penalty>
0.0918163

> <b_epik_Metal_Only>
0

> <s_lp_Force_Field>
OPLS_2005

> <r_lp_Energy>
7.77682

> <b_lp_Chiralities_Consistent>
1

> <s_lp_Variant>
AV-unprocessed.smi:500-2

> <Gold.Version>
5.8.1

> <Gold.Id.Protein>
6NUR|6NUR_protein|mol2

> <Gold.PLP.Fitness>
55.8724

> <Gold.PLP.PLP>
-47.9769

> <Gold.PLP.part.hbond>
-4.1590

> <Gold.PLP.part.metal>
0.0000

> <Gold.PLP.part.buried>
-4.3143

> <Gold.PLP.part.nonpolar>
-40.8431

> <Gold.PLP.part.repulsive>
0.8868

> <Gold.PLP.ligand.clash>
0.0000

> <Gold.PLP.ligand.torsion>
1.0945

> <Gold.PLP.Chemscore.Hbond>
3.3280

> <Gold.PLP.Chemscore.CHOScore>
0.0000

> <Gold.PLP.Chemscore.Metal>
0.0000

> <Gold.Chemscore.Hbonds>
donor molecule, donor type, donor heavy atom, donor atom, acceptor molecule, acceptor atom, score
      P1  H  6896  6908       L1    12  0.94
      P1  H  6931  6943       L1    17  1.00
      P1  H  6934  6947       L1    17  0.75
      P1  H  7989  7998       L1     3  0.44

> <Gold.PLP.Chemscore.Internal.Correction>
0.1005

> <Gold.Rescore>
     Score         DG    S(hbond)    S(metal)    S(lipo)     H(rot)  DE(clash)    DE(int)     intcor
     18.66     -21.92       2.15        0.00     120.88       1.92       0.58       2.68       ----

> <Gold.Chemscore.Fitness>
18.6577

> <Gold.Chemscore.DG>
-21.9159

> <Gold.Chemscore.ZeroCoef>
-5.4800

> <Gold.Chemscore.Hbond>
2.1548

> <Gold.Chemscore.Metal>
0.0000

> <Gold.Chemscore.Lipo>
120.8802

> <Gold.Chemscore.Internal_Hbond>
0.0000

> <Gold.Chemscore.DEClash>
0.5810

> <Gold.Chemscore.DEInternal>
2.6772

> <Gold.Chemscore.Rot>
1.9156

> <Gold.Chemscore.Internal.Correction>
   9.000000E+99

> <Gold.Chemscore.Hbonds>
donor molecule, donor type, donor heavy atom, donor atom, acceptor molecule, acceptor atom, score
      P1  H  6896  6908       L1    12  0.53
      P1  H  6931  6943       L1    17  0.68
      P1  H  6934  6947       L1    17  0.58
      P1  H  7989  7998       L1     3  0.08

> <Gold.Chemscore.Hbond.Weighted>
-7.1970

> <Gold.Chemscore.Metal.Weighted>
-0.0000

> <Gold.Chemscore.Lipo.Weighted>
-14.1430

> <Gold.Chemscore.Internal_Hbond.Weighted>
0.0000

> <Gold.Chemscore.DEClash.Weighted>
0.5810

> <Gold.Chemscore.DEInternal.Weighted>
2.6772

> <Gold.Chemscore.Rot.Weighted>
4.9041

> <Gold.Chemscore.Internal.Correction.Weighted>
   9.000000E+99

> <Gold.Protein.RotatedTorsions>
[ 6907 6896 6895 6894 ] final  147.94 input  -60.11 | X-H torsion
[ 7974 7965 7964 7962 ] final  -62.87 input  175.53 | X-H torsion
[ 8008 7997 7996 7995 ] final  -86.36 input   59.86 | X-H torsion
[ 10167 10162 10161 10158 ] final   82.57 input  -65.29 | X-H torsion
[ 10718 10713 10712 10709 ] final  -65.76 input   66.30 | X-H torsion
[ 10763 10752 10751 10750 ] final -123.31 input  -60.55 | X-H torsion
[ 11005 11000 10999 10996 ] final  113.03 input  -57.11 | X-H torsion

> <Gold.Protein.ActiveResidues>
 VAL166  LYS551  ARG553  GLY616  TRP617  ASP618  TYR619  PRO620  LYS621  CYS622 
 ASP623  PHE694  ASN695  SER759  ASP760  ASP761  ALA762  ILE779  LEU786  VAL792 
 PHE793  MET794  SER795  GLU796  ALA797  LYS798  CYS799  TRP800  GLU811  SER814 

> <Gold.Protein.RotatedAtoms>
  152.1482  133.4505  159.4799 H   0  0  0  0  0  0  0  0  0  0  0  0  # atno 6907 bound_to 6896
  150.6893  134.2222  159.4410 H   0  0  0  0  0  0  0  0  0  0  0  0  # atno 6908 bound_to 6896
  152.0117  134.9872  160.0619 H   0  0  0  0  0  0  0  0  0  0  0  0  # atno 6909 bound_to 6896
  145.7860  140.8736  143.0305 H   0  0  0  0  0  0  0  0  0  0  0  0  # atno 7974 bound_to 7965
  154.6511  140.0579  156.9956 H   0  0  0  0  0  0  0  0  0  0  0  0  # atno 8008 bound_to 7997
  155.1370  140.3262  155.4442 H   0  0  0  0  0  0  0  0  0  0  0  0  # atno 8009 bound_to 7997
  156.2576  140.1970  156.6488 H   0  0  0  0  0  0  0  0  0  0  0  0  # atno 8010 bound_to 7997
  139.9274  144.6174  150.8379 H   0  0  0  0  0  0  0  0  0  0  0  0  # atno 10167 bound_to 10162
  156.0651  130.4252  150.1610 H   0  0  0  0  0  0  0  0  0  0  0  0  # atno 10718 bound_to 10713
  154.8705  135.4103  154.2922 H   0  0  0  0  0  0  0  0  0  0  0  0  # atno 10763 bound_to 10752
  153.3796  135.7011  153.6581 H   0  0  0  0  0  0  0  0  0  0  0  0  # atno 10764 bound_to 10752
  153.5408  135.3648  155.2689 H   0  0  0  0  0  0  0  0  0  0  0  0  # atno 10765 bound_to 10752
  139.8942  134.9542  156.6676 H   0  0  0  0  0  0  0  0  0  0  0  0  # atno 11005 bound_to 11000
  144.6789  140.0057  143.7484 LP  0  0  0  0  0  0  0  0  0  0  0  0  # atno 17320 bound_to 7965
  146.0025  139.3103  143.0919 LP  0  0  0  0  0  0  0  0  0  0  0  0  # atno 17321 bound_to 7965
  140.7646  143.3254  151.2528 LP  0  0  0  0  0  0  0  0  0  0  0  0  # atno 17342 bound_to 10162
  139.6811  143.9854  152.2808 LP  0  0  0  0  0  0  0  0  0  0  0  0  # atno 17343 bound_to 10162
  156.9672  130.9823  151.3466 LP  0  0  0  0  0  0  0  0  0  0  0  0  # atno 17370 bound_to 10713
  157.5687  130.8295  149.8362 LP  0  0  0  0  0  0  0  0  0  0  0  0  # atno 17371 bound_to 10713
  140.7398  133.8987  155.8270 LP  0  0  0  0  0  0  0  0  0  0  0  0  # atno 17394 bound_to 11000
  141.0087  134.1051  157.4244 LP  0  0  0  0  0  0  0  0  0  0  0  0  # atno 17395 bound_to 11000

$$$$
