AV-unprocessed.smi:1210|AV-procd|sdf|5077|dock10
  -GOLD-   22720 4123D 1   1.00000     0.00000
 Structure written by MMmdl.
 44 45  0  0  0  0  0  0  0  0  1 V2000
  154.6290  132.0224  162.5143 C   0  0  0  0  0  0  0  0  0  0  0  0
  154.4115  133.4167  163.0288 C   0  0  0  0  0  0  0  0  0  0  0  0
  153.9988  133.5933  164.2726 N   0  0  0  0  0  0  0  0  0  0  0  0
  153.9020  134.9766  164.4517 O   0  0  0  0  0  0  0  0  0  0  0  0
  154.2671  135.5858  163.2951 C   0  0  0  0  0  0  0  0  0  0  0  0
  154.2362  137.0767  163.2823 C   0  0  0  0  0  0  0  0  0  0  0  0
  154.6021  134.6554  162.3501 C   0  0  0  0  0  0  0  0  0  0  0  0
  155.0659  134.8834  160.9342 C   0  0  0  0  0  0  0  0  0  0  0  0
  154.5157  136.2141  160.4214 C   0  0  0  0  0  0  0  0  0  0  0  0
  153.3386  136.3006  160.0713 O   0  0  0  0  0  0  0  0  0  0  0  0
  155.3726  137.2462  160.3993 N   0  0  0  0  0  0  0  0  0  0  0  0
  155.0356  138.6074  160.0044 C   0  0  0  0  0  0  0  0  0  0  0  0
  154.0507  139.2501  160.9987 C   0  0  0  0  0  0  0  0  0  0  0  0
  153.7966  140.6592  160.6655 N   0  0  0  0  0  0  0  0  0  0  0  0
  153.9685  141.6160  161.7696 C   0  0  0  0  0  0  0  0  0  0  0  0
  152.6544  142.3238  162.1536 C   0  0  0  0  0  0  0  0  0  0  0  0
  152.2941  143.5096  161.2460 C   0  0  0  0  0  0  0  0  0  0  0  0
  152.0254  143.1289  159.7831 C   0  0  0  0  0  0  0  0  0  0  0  0
  153.2460  142.5079  159.0844 C   0  0  0  0  0  0  0  0  0  0  0  0
  153.4228  141.0204  159.4145 C   0  0  0  0  0  0  0  0  0  0  0  0
  153.2345  140.1999  158.5154 O   0  0  0  0  0  0  0  0  0  0  0  0
  155.6731  131.7280  162.6213 H   0  0  0  0  0  0  0  0  0  0  0  0
  154.3704  131.9480  161.4581 H   0  0  0  0  0  0  0  0  0  0  0  0
  154.0210  131.2952  163.0537 H   0  0  0  0  0  0  0  0  0  0  0  0
  155.1994  137.4787  162.9680 H   0  0  0  0  0  0  0  0  0  0  0  0
  154.0108  137.4747  164.2717 H   0  0  0  0  0  0  0  0  0  0  0  0
  153.4760  137.4402  162.5910 H   0  0  0  0  0  0  0  0  0  0  0  0
  156.1547  134.8812  160.8696 H   0  0  0  0  0  0  0  0  0  0  0  0
  154.7240  134.0890  160.2698 H   0  0  0  0  0  0  0  0  0  0  0  0
  156.3214  137.0818  160.7032 H   0  0  0  0  0  0  0  0  0  0  0  0
  155.9628  139.1798  159.9653 H   0  0  0  0  0  0  0  0  0  0  0  0
  154.6224  138.6169  158.9943 H   0  0  0  0  0  0  0  0  0  0  0  0
  153.1192  138.6835  161.0232 H   0  0  0  0  0  0  0  0  0  0  0  0
  154.4459  139.1714  162.0133 H   0  0  0  0  0  0  0  0  0  0  0  0
  154.3358  141.1021  162.6582 H   0  0  0  0  0  0  0  0  0  0  0  0
  154.7433  142.3422  161.5210 H   0  0  0  0  0  0  0  0  0  0  0  0
  151.8337  141.6057  162.1859 H   0  0  0  0  0  0  0  0  0  0  0  0
  152.7555  142.7034  163.1709 H   0  0  0  0  0  0  0  0  0  0  0  0
  151.4071  144.0005  161.6473 H   0  0  0  0  0  0  0  0  0  0  0  0
  153.0902  144.2538  161.2875 H   0  0  0  0  0  0  0  0  0  0  0  0
  151.1694  142.4548  159.7241 H   0  0  0  0  0  0  0  0  0  0  0  0
  151.7321  144.0282  159.2404 H   0  0  0  0  0  0  0  0  0  0  0  0
  153.1127  142.5968  158.0053 H   0  0  0  0  0  0  0  0  0  0  0  0
  154.1574  143.0605  159.3155 H   0  0  0  0  0  0  0  0  0  0  0  0
  1  2  1  0  0  0  0
  1 22  1  0  0  0  0
  1 23  1  0  0  0  0
  1 24  1  0  0  0  0
  2  7  1  0  0  0  0
  2  3  2  0  0  0  0
  3  4  1  0  0  0  0
  4  5  1  0  0  0  0
  5  6  1  0  0  0  0
  5  7  2  0  0  0  0
  6 25  1  0  0  0  0
  6 26  1  0  0  0  0
  6 27  1  0  0  0  0
  7  8  1  0  0  0  0
  8  9  1  0  0  0  0
  8 28  1  0  0  0  0
  8 29  1  0  0  0  0
  9 10  2  0  0  0  0
  9 11  1  0  0  0  0
 11 12  1  0  0  0  0
 11 30  1  0  0  0  0
 12 13  1  0  0  0  0
 12 31  1  0  0  0  0
 12 32  1  0  0  0  0
 13 14  1  0  0  0  0
 13 33  1  0  0  0  0
 13 34  1  0  0  0  0
 14 20  1  0  0  0  0
 14 15  1  0  0  0  0
 15 16  1  0  0  0  0
 15 35  1  0  0  0  0
 15 36  1  0  0  0  0
 16 17  1  0  0  0  0
 16 37  1  0  0  0  0
 16 38  1  0  0  0  0
 17 18  1  0  0  0  0
 17 39  1  0  0  0  0
 17 40  1  0  0  0  0
 18 19  1  0  0  0  0
 18 41  1  0  0  0  0
 18 42  1  0  0  0  0
 19 20  1  0  0  0  0
 19 43  1  0  0  0  0
 19 44  1  0  0  0  0
 20 21  2  0  0  0  0
M  END
> <s_m_source_file>
AV-unprocessed.smi

> <i_m_source_file_index>
1210

> <i_lp_mmshare_version>
43012

> <i_f3d_flags>
0

> <s_epik_input>
W0NIM11jMW5vYyhbQ0gzXSljMVtDSDJdQyg9TylbTkhdW0NIMl1bQ0gyXU4yW0NIMl1bQ0gyXVtDSDJdW0NIMl1bQ0gyXUMyPU8=

> <s_epik_cmdline>
J2VwaWtfcHl0aG9uJywgJy1waCcsICc3LjAnLCAnLXRuJywgJzgnLCAnLW1hJywgJzIwMCcsICctbWV0YWxfYmluZGluZycsICctaW1hZScsICc8aW5maWxlLm1hZT4nLCAnLW9tYWUnLCAnPG91dGZpbGUubWFlPic=

> <r_lp_tautomer_probability>
1

> <r_epik_Ionization_Penalty>
5.48219e-08

> <r_epik_Ionization_Penalty_Charging>
0

> <r_epik_Ionization_Penalty_Neutral>
5.48219e-08

> <r_epik_State_Penalty>
-0

> <r_epik_Charging_Adjusted_Penalty>
0

> <i_epik_Tot_Q>
0

> <i_epik_Tot_abs_Q>
0

> <r_epik_Metal_State_Penalty>
-0

> <b_epik_Metal_Only>
0

> <s_lp_Force_Field>
OPLS_2005

> <r_lp_Energy>
11.1007

> <b_lp_Chiralities_Consistent>
1

> <s_lp_Variant>
AV-unprocessed.smi:1210-1

> <Gold.Version>
5.8.1

> <Gold.Id.Protein>
6NUR|6NUR_protein|mol2

> <Gold.PLP.Fitness>
44.4076

> <Gold.PLP.PLP>
-40.0738

> <Gold.PLP.part.hbond>
-2.0000

> <Gold.PLP.part.metal>
0.0000

> <Gold.PLP.part.buried>
-2.6809

> <Gold.PLP.part.nonpolar>
-34.1549

> <Gold.PLP.part.repulsive>
0.1557

> <Gold.PLP.ligand.clash>
0.0000

> <Gold.PLP.ligand.torsion>
0.6904

> <Gold.PLP.Chemscore.Hbond>
1.8960

> <Gold.PLP.Chemscore.CHOScore>
0.0000

> <Gold.PLP.Chemscore.Metal>
0.0000

> <Gold.Chemscore.Hbonds>
donor molecule, donor type, donor heavy atom, donor atom, acceptor molecule, acceptor atom, score
      P1  H  6896  6908       L1    10  1.00
      P1  H  7997  8009       L1    21  0.89

> <Gold.PLP.Chemscore.Internal.Correction>
0.0267

> <Gold.Rescore>
     Score         DG    S(hbond)    S(metal)    S(lipo)     H(rot)  DE(clash)    DE(int)     intcor
     17.04     -19.12       1.94        0.00     100.48       1.79       0.18       1.90       ----

> <Gold.Chemscore.Fitness>
17.0427

> <Gold.Chemscore.DG>
-19.1230

> <Gold.Chemscore.ZeroCoef>
-5.4800

> <Gold.Chemscore.Hbond>
1.9387

> <Gold.Chemscore.Metal>
0.0000

> <Gold.Chemscore.Lipo>
100.4808

> <Gold.Chemscore.Internal_Hbond>
0.0000

> <Gold.Chemscore.DEClash>
0.1809

> <Gold.Chemscore.DEInternal>
1.8993

> <Gold.Chemscore.Rot>
1.7923

> <Gold.Chemscore.Internal.Correction>
   9.000000E+99

> <Gold.Chemscore.Hbonds>
donor molecule, donor type, donor heavy atom, donor atom, acceptor molecule, acceptor atom, score
      P1  H  6896  6908       L1    10  1.00
      P1  H  7997  8009       L1    21  0.72

> <Gold.Chemscore.Hbond.Weighted>
-6.4751

> <Gold.Chemscore.Metal.Weighted>
-0.0000

> <Gold.Chemscore.Lipo.Weighted>
-11.7563

> <Gold.Chemscore.Internal_Hbond.Weighted>
0.0000

> <Gold.Chemscore.DEClash.Weighted>
0.1809

> <Gold.Chemscore.DEInternal.Weighted>
1.8993

> <Gold.Chemscore.Rot.Weighted>
4.5884

> <Gold.Chemscore.Internal.Correction.Weighted>
   9.000000E+99

> <Gold.Protein.RotatedTorsions>
[ 6907 6896 6895 6894 ] final  -84.54 input  -60.11 | X-H torsion
[ 7974 7965 7964 7962 ] final  -11.45 input  175.53 | X-H torsion
[ 8008 7997 7996 7995 ] final  140.34 input   59.86 | X-H torsion
[ 10167 10162 10161 10158 ] final   42.93 input  -65.29 | X-H torsion
[ 10718 10713 10712 10709 ] final  -89.26 input   66.30 | X-H torsion
[ 10763 10752 10751 10750 ] final  -11.59 input  -60.55 | X-H torsion
[ 11005 11000 10999 10996 ] final  -90.32 input  -57.11 | X-H torsion

> <Gold.Protein.ActiveResidues>
 VAL166  LYS551  ARG553  GLY616  TRP617  ASP618  TYR619  PRO620  LYS621  CYS622 
 ASP623  PHE694  ASN695  SER759  ASP760  ASP761  ALA762  ILE779  LEU786  VAL792 
 PHE793  MET794  SER795  GLU796  ALA797  LYS798  CYS799  TRP800  GLU811  SER814 

> <Gold.Protein.RotatedAtoms>
  150.6876  134.3343  159.4840 H   0  0  0  0  0  0  0  0  0  0  0  0  # atno 6907 bound_to 6896
  152.1203  134.9207  160.0572 H   0  0  0  0  0  0  0  0  0  0  0  0  # atno 6908 bound_to 6896
  152.0416  133.3945  159.4376 H   0  0  0  0  0  0  0  0  0  0  0  0  # atno 6909 bound_to 6896
  146.2187  140.2912  142.8368 H   0  0  0  0  0  0  0  0  0  0  0  0  # atno 7974 bound_to 7965
  156.2980  140.2344  156.4385 H   0  0  0  0  0  0  0  0  0  0  0  0  # atno 8008 bound_to 7997
  154.8207  140.0438  157.1429 H   0  0  0  0  0  0  0  0  0  0  0  0  # atno 8009 bound_to 7997
  154.9318  140.3017  155.5167 H   0  0  0  0  0  0  0  0  0  0  0  0  # atno 8010 bound_to 7997
  140.3495  144.2368  150.6147 H   0  0  0  0  0  0  0  0  0  0  0  0  # atno 10167 bound_to 10162
  155.9984  130.4865  150.5143 H   0  0  0  0  0  0  0  0  0  0  0  0  # atno 10718 bound_to 10713
  153.4859  135.7017  153.5911 H   0  0  0  0  0  0  0  0  0  0  0  0  # atno 10763 bound_to 10752
  153.4104  135.3850  155.2047 H   0  0  0  0  0  0  0  0  0  0  0  0  # atno 10764 bound_to 10752
  154.8719  135.3903  154.4314 H   0  0  0  0  0  0  0  0  0  0  0  0  # atno 10765 bound_to 10752
  141.1568  133.7685  156.9721 H   0  0  0  0  0  0  0  0  0  0  0  0  # atno 11005 bound_to 11000
  144.9125  140.7774  143.5798 LP  0  0  0  0  0  0  0  0  0  0  0  0  # atno 17320 bound_to 7965
  145.2844  139.1906  143.4774 LP  0  0  0  0  0  0  0  0  0  0  0  0  # atno 17321 bound_to 7965
  140.5232  143.2260  151.8355 LP  0  0  0  0  0  0  0  0  0  0  0  0  # atno 17342 bound_to 10162
  139.4828  144.4811  151.9306 LP  0  0  0  0  0  0  0  0  0  0  0  0  # atno 17343 bound_to 10162
  157.3113  131.0664  151.1999 LP  0  0  0  0  0  0  0  0  0  0  0  0  # atno 17370 bound_to 10713
  157.2944  130.6812  149.6131 LP  0  0  0  0  0  0  0  0  0  0  0  0  # atno 17371 bound_to 10713
  140.1122  134.9469  157.2082 LP  0  0  0  0  0  0  0  0  0  0  0  0  # atno 17394 bound_to 11000
  140.3179  134.2950  155.7252 LP  0  0  0  0  0  0  0  0  0  0  0  0  # atno 17395 bound_to 11000

$$$$
