AV-unprocessed.smi:1204|AV-procd|sdf|5038|dock2
  -GOLD-   22720 4 63D 1   1.00000     0.00000
 Structure written by MMmdl.
 27 28  0  0  0  0  0  0  0  0  1 V2000
  152.9019  140.1172  158.0888 O   0  0  0  0  0  0  0  0  0  0  0  0
  152.1141  140.8813  157.5295 C   0  0  0  0  0  0  0  0  0  0  0  0
  151.6743  142.0394  158.0586 N   0  0  0  0  0  0  0  0  0  0  0  0
  151.9763  142.6026  159.3269 C   0  0  0  0  0  0  0  0  0  0  0  0
  151.5794  143.9487  159.4940 C   0  0  0  0  0  0  0  0  0  0  0  0
  151.8314  144.5990  160.7178 C   0  0  0  0  0  0  0  0  0  0  0  0
  152.4744  143.8850  161.7447 C   0  0  0  0  0  0  0  0  0  0  0  0
  152.8367  142.5484  161.4962 C   0  0  0  0  0  0  0  0  0  0  0  0
  152.5967  141.9236  160.3240 N   0  0  0  0  0  0  0  0  0  0  0  0
  151.5874  140.5543  156.1244 C   0  0  1  0  0  0  0  0  0  0  0  0
  152.2065  139.2696  155.5254 C   0  0  0  0  0  0  0  0  0  0  0  0
  151.6340  139.0233  154.2473 O   0  0  0  0  0  0  0  0  0  0  0  0
  150.2263  138.8534  154.3344 C   0  0  0  0  0  0  0  0  0  0  0  0
  149.6055  140.1328  154.9184 C   0  0  0  0  0  0  0  0  0  0  0  0
  150.1739  140.3830  156.1969 O   0  0  0  0  0  0  0  0  0  0  0  0
  151.0393  142.5746  157.4846 H   0  0  0  0  0  0  0  0  0  0  0  0
  151.0859  144.4820  158.6943 H   0  0  0  0  0  0  0  0  0  0  0  0
  151.5363  145.6273  160.8652 H   0  0  0  0  0  0  0  0  0  0  0  0
  152.6847  144.3489  162.6970 H   0  0  0  0  0  0  0  0  0  0  0  0
  153.3324  141.9652  162.2579 H   0  0  0  0  0  0  0  0  0  0  0  0
  151.8151  141.4057  155.4804 H   0  0  0  0  0  0  0  0  0  0  0  0
  153.2842  139.3822  155.4010 H   0  0  0  0  0  0  0  0  0  0  0  0
  152.0450  138.4093  156.1777 H   0  0  0  0  0  0  0  0  0  0  0  0
  149.8281  138.6592  153.3383 H   0  0  0  0  0  0  0  0  0  0  0  0
  149.9872  137.9861  154.9520 H   0  0  0  0  0  0  0  0  0  0  0  0
  149.7743  140.9847  154.2579 H   0  0  0  0  0  0  0  0  0  0  0  0
  148.5269  140.0166  155.0246 H   0  0  0  0  0  0  0  0  0  0  0  0
  1  2  2  0  0  0  0
  2  3  1  0  0  0  0
  2 10  1  0  0  0  0
  3  4  1  0  0  0  0
  3 16  1  0  0  0  0
  4  9  1  0  0  0  0
  4  5  2  0  0  0  0
  5  6  1  0  0  0  0
  5 17  1  0  0  0  0
  6  7  2  0  0  0  0
  6 18  1  0  0  0  0
  7  8  1  0  0  0  0
  7 19  1  0  0  0  0
  8  9  2  0  0  0  0
  8 20  1  0  0  0  0
 10 15  1  0  0  0  0
 10 11  1  0  0  0  0
 10 21  1  0  0  0  0
 11 12  1  0  0  0  0
 11 22  1  0  0  0  0
 11 23  1  0  0  0  0
 12 13  1  0  0  0  0
 13 14  1  0  0  0  0
 13 24  1  0  0  0  0
 13 25  1  0  0  0  0
 14 15  1  0  0  0  0
 14 26  1  0  0  0  0
 14 27  1  0  0  0  0
M  END
> <s_m_source_file>
AV-unprocessed.smi

> <i_m_source_file_index>
1204

> <i_lp_mmshare_version>
43012

> <i_f3d_flags>
0

> <s_epik_input>
TzFbQ0gyXVtDSDJdT1tDSDJdW0NASF0xQyg9TylbTkhdYzJbY0hdW2NIXVtjSF1bY0hdbjI=

> <s_epik_cmdline>
J2VwaWtfcHl0aG9uJywgJy1waCcsICc3LjAnLCAnLXRuJywgJzgnLCAnLW1hJywgJzIwMCcsICctbWV0YWxfYmluZGluZycsICctaW1hZScsICc8aW5maWxlLm1hZT4nLCAnLW9tYWUnLCAnPG91dGZpbGUubWFlPic=

> <r_epik_Ionization_Penalty>
0.0014012

> <r_epik_Ionization_Penalty_Charging>
0

> <r_epik_Ionization_Penalty_Neutral>
0.0014012

> <r_epik_State_Penalty>
0.00242437

> <r_epik_Charging_Adjusted_Penalty>
0.00242437

> <i_epik_Tot_Q>
0

> <i_epik_Tot_abs_Q>
0

> <r_epik_Metal_State_Penalty>
-0

> <b_epik_Metal_Only>
0

> <s_lp_Force_Field>
OPLS_2005

> <r_lp_Energy>
11.5738

> <b_lp_Chiralities_Consistent>
1

> <s_lp_Variant>
AV-unprocessed.smi:1204-2

> <Gold.Version>
5.8.1

> <Gold.Id.Protein>
6NUR|6NUR_protein|mol2

> <Gold.PLP.Fitness>
37.9837

> <Gold.PLP.PLP>
-32.4234

> <Gold.PLP.part.hbond>
-2.0000

> <Gold.PLP.part.metal>
0.0000

> <Gold.PLP.part.buried>
-3.8174

> <Gold.PLP.part.nonpolar>
-25.8113

> <Gold.PLP.part.repulsive>
0.2361

> <Gold.PLP.ligand.clash>
0.0000

> <Gold.PLP.ligand.torsion>
0.0600

> <Gold.PLP.Chemscore.Hbond>
1.8928

> <Gold.PLP.Chemscore.CHOScore>
0.0000

> <Gold.PLP.Chemscore.Metal>
0.0000

> <Gold.Chemscore.Hbonds>
donor molecule, donor type, donor heavy atom, donor atom, acceptor molecule, acceptor atom, score
      P1  H  7989  7998       L1    12  0.94
      P1  H  7997  8010       L1     1  1.00

> <Gold.PLP.Chemscore.Internal.Correction>
0.0020

> <Gold.Rescore>
     Score         DG    S(hbond)    S(metal)    S(lipo)     H(rot)  DE(clash)    DE(int)     intcor
     13.06     -14.60       0.86        0.00      75.36       1.00       0.23       1.31       ----

> <Gold.Chemscore.Fitness>
13.0603

> <Gold.Chemscore.DG>
-14.6000

> <Gold.Chemscore.ZeroCoef>
-5.4800

> <Gold.Chemscore.Hbond>
0.8573

> <Gold.Chemscore.Metal>
0.0000

> <Gold.Chemscore.Lipo>
75.3559

> <Gold.Chemscore.Internal_Hbond>
0.0000

> <Gold.Chemscore.DEClash>
0.2347

> <Gold.Chemscore.DEInternal>
1.3050

> <Gold.Chemscore.Rot>
1.0000

> <Gold.Chemscore.Internal.Correction>
   9.000000E+99

> <Gold.Chemscore.Hbonds>
donor molecule, donor type, donor heavy atom, donor atom, acceptor molecule, acceptor atom, score
      P1  H  7989  7998       L1    12  0.06
      P1  H  7997  8010       L1     1  0.56

> <Gold.Chemscore.Hbond.Weighted>
-2.8634

> <Gold.Chemscore.Metal.Weighted>
-0.0000

> <Gold.Chemscore.Lipo.Weighted>
-8.8166

> <Gold.Chemscore.Internal_Hbond.Weighted>
0.0000

> <Gold.Chemscore.DEClash.Weighted>
0.2347

> <Gold.Chemscore.DEInternal.Weighted>
1.3050

> <Gold.Chemscore.Rot.Weighted>
2.5600

> <Gold.Chemscore.Internal.Correction.Weighted>
   9.000000E+99

> <Gold.Protein.RotatedTorsions>
[ 6907 6896 6895 6894 ] final  -57.18 input  -60.11 | X-H torsion
[ 7974 7965 7964 7962 ] final   30.28 input  175.53 | X-H torsion
[ 8008 7997 7996 7995 ] final   37.76 input   59.86 | X-H torsion
[ 10167 10162 10161 10158 ] final   64.41 input  -65.29 | X-H torsion
[ 10718 10713 10712 10709 ] final  155.38 input   66.30 | X-H torsion
[ 10763 10752 10751 10750 ] final  113.76 input  -60.55 | X-H torsion
[ 11005 11000 10999 10996 ] final   23.47 input  -57.11 | X-H torsion

> <Gold.Protein.ActiveResidues>
 VAL166  LYS551  ARG553  GLY616  TRP617  ASP618  TYR619  PRO620  LYS621  CYS622 
 ASP623  PHE694  ASN695  SER759  ASP760  ASP761  ALA762  ILE779  LEU786  VAL792 
 PHE793  MET794  SER795  GLU796  ALA797  LYS798  CYS799  TRP800  GLU811  SER814 

> <Gold.Protein.RotatedAtoms>
  150.8107  134.7260  159.6684 H   0  0  0  0  0  0  0  0  0  0  0  0  # atno 6907 bound_to 6896
  152.4227  134.5923  159.9987 H   0  0  0  0  0  0  0  0  0  0  0  0  # atno 6908 bound_to 6896
  151.6133  133.3308  159.3108 H   0  0  0  0  0  0  0  0  0  0  0  0  # atno 6909 bound_to 6896
  146.1621  139.6809  142.9026 H   0  0  0  0  0  0  0  0  0  0  0  0  # atno 7974 bound_to 7965
  155.2091  140.3322  155.4331 H   0  0  0  0  0  0  0  0  0  0  0  0  # atno 8008 bound_to 7997
  156.2377  140.1880  156.7122 H   0  0  0  0  0  0  0  0  0  0  0  0  # atno 8009 bound_to 7997
  154.6090  140.0612  156.9454 H   0  0  0  0  0  0  0  0  0  0  0  0  # atno 8010 bound_to 7997
  140.1225  144.4718  150.6912 H   0  0  0  0  0  0  0  0  0  0  0  0  # atno 10167 bound_to 10162
  157.2191  131.0714  151.1923 H   0  0  0  0  0  0  0  0  0  0  0  0  # atno 10718 bound_to 10713
  153.4972  135.3646  155.2522 H   0  0  0  0  0  0  0  0  0  0  0  0  # atno 10763 bound_to 10752
  154.8749  135.3991  154.3520 H   0  0  0  0  0  0  0  0  0  0  0  0  # atno 10764 bound_to 10752
  153.4150  135.7079  153.6399 H   0  0  0  0  0  0  0  0  0  0  0  0  # atno 10765 bound_to 10752
  140.3693  134.2040  155.7667 H   0  0  0  0  0  0  0  0  0  0  0  0  # atno 11005 bound_to 11000
  145.4561  141.0431  143.2777 LP  0  0  0  0  0  0  0  0  0  0  0  0  # atno 17320 bound_to 7965
  144.8041  139.6084  143.7058 LP  0  0  0  0  0  0  0  0  0  0  0  0  # atno 17321 bound_to 7965
  140.6864  143.2352  151.5249 LP  0  0  0  0  0  0  0  0  0  0  0  0  # atno 17342 bound_to 10162
  139.5561  144.2271  152.1615 LP  0  0  0  0  0  0  0  0  0  0  0  0  # atno 17343 bound_to 10162
  157.3594  130.7123  149.6492 LP  0  0  0  0  0  0  0  0  0  0  0  0  # atno 17370 bound_to 10713
  155.9684  130.4230  150.4541 LP  0  0  0  0  0  0  0  0  0  0  0  0  # atno 17371 bound_to 10713
  141.1959  133.8093  157.0693 LP  0  0  0  0  0  0  0  0  0  0  0  0  # atno 17394 bound_to 11000
  140.0564  134.9778  157.1228 LP  0  0  0  0  0  0  0  0  0  0  0  0  # atno 17395 bound_to 11000

$$$$
