AV-unprocessed.smi:1592|AV-procd|sdf|6404|dock1
  -GOLD-   22720 7 43D 1   1.00000     0.00000
 Structure written by MMmdl.
 27 28  0  0  0  0  0  0  0  0  3 V2000
  151.1207  141.4080  158.9926 O   0  0  0  0  0  0  0  0  0  0  0  0
  151.6052  142.3254  158.3274 C   0  0  0  0  0  0  0  0  0  0  0  0
  151.5034  142.4371  156.9901 N   0  0  0  0  0  0  0  0  0  0  0  0
  150.8338  141.5801  156.0726 C   0  0  0  0  0  0  0  0  0  0  0  0
  149.7417  141.9816  155.3746 N   0  3  0  0  0  0  0  0  0  0  0  0
  149.0830  141.1930  154.4984 C   0  0  0  0  0  0  0  0  0  0  0  0
  149.5263  139.8761  154.2715 C   0  0  0  0  0  0  0  0  0  0  0  0
  150.6566  139.4071  154.9698 C   0  0  0  0  0  0  0  0  0  0  0  0
  151.3165  140.2631  155.8772 C   0  0  0  0  0  0  0  0  0  0  0  0
  152.4133  139.8070  156.5536 O   0  5  0  0  0  0  0  0  0  0  0  0
  152.4038  143.4321  159.0250 C   0  0  1  0  0  0  0  0  0  0  0  0
  151.8797  144.8545  158.7485 C   0  0  0  0  0  0  0  0  0  0  0  0
  151.3339  145.3071  160.0892 C   0  0  0  0  0  0  0  0  0  0  0  0
  152.1899  144.5106  161.0633 C   0  0  0  0  0  0  0  0  0  0  0  0
  152.2862  143.2431  160.4337 O   0  0  0  0  0  0  0  0  0  0  0  0
  151.9551  143.2370  156.5699 H   0  0  0  0  0  0  0  0  0  0  0  0
  148.2276  141.6368  154.0103 H   0  0  0  0  0  0  0  0  0  0  0  0
  149.0086  139.2346  153.5736 H   0  0  0  0  0  0  0  0  0  0  0  0
  151.0128  138.3997  154.8100 H   0  0  0  0  0  0  0  0  0  0  0  0
  149.4003  142.9321  155.5222 H   0  0  0  0  0  0  0  0  0  0  0  0
  153.4578  143.3714  158.7478 H   0  0  0  0  0  0  0  0  0  0  0  0
  152.7072  145.4977  158.4468 H   0  0  0  0  0  0  0  0  0  0  0  0
  151.1243  144.9089  157.9633 H   0  0  0  0  0  0  0  0  0  0  0  0
  151.4038  146.3847  160.2396 H   0  0  0  0  0  0  0  0  0  0  0  0
  150.2880  145.0130  160.1864 H   0  0  0  0  0  0  0  0  0  0  0  0
  153.1840  144.9492  161.1605 H   0  0  0  0  0  0  0  0  0  0  0  0
  151.7441  144.4352  162.0554 H   0  0  0  0  0  0  0  0  0  0  0  0
  1  2  2  0  0  0  0
  2  3  1  0  0  0  0
  2 11  1  0  0  0  0
  3 16  1  0  0  0  0
  3  4  1  0  0  0  0
  4  9  2  0  0  0  0
  4  5  1  0  0  0  0
  5 20  1  0  0  0  0
  5  6  2  0  0  0  0
  6 17  1  0  0  0  0
  6  7  1  0  0  0  0
  7 18  1  0  0  0  0
  7  8  2  0  0  0  0
  8  9  1  0  0  0  0
  8 19  1  0  0  0  0
  9 10  1  0  0  0  0
 11 15  1  0  0  0  0
 11 12  1  0  0  0  0
 11 21  1  0  0  0  0
 12 13  1  0  0  0  0
 12 22  1  0  0  0  0
 12 23  1  0  0  0  0
 13 14  1  0  0  0  0
 13 24  1  0  0  0  0
 13 25  1  0  0  0  0
 14 15  1  0  0  0  0
 14 26  1  0  0  0  0
 14 27  1  0  0  0  0
M  CHG  1   5   1
M  CHG  1  10  -1
M  END
> <s_m_source_file>
AV-unprocessed.smi

> <i_m_source_file_index>
1592

> <i_lp_mmshare_version>
43012

> <i_f3d_flags>
0

> <s_epik_input>
TzFbQ0gyXVtDSDJdW0NIMl1bQ0BIXTFDKD1PKVtOSF1jMm5bY0hdW2NIXVtjSF1jMltPSF0=

> <s_epik_cmdline>
J2VwaWtfcHl0aG9uJywgJy1waCcsICc3LjAnLCAnLXRuJywgJzgnLCAnLW1hJywgJzIwMCcsICctbWV0YWxfYmluZGluZycsICctaW1hZScsICc8aW5maWxlLm1hZT4nLCAnLW9tYWUnLCAnPG91dGZpbGUubWFlPic=

> <r_lp_tautomer_probability>
0.56342

> <r_epik_Ionization_Penalty>
0.215537

> <r_epik_Ionization_Penalty_Charging>
0.025819

> <r_epik_Ionization_Penalty_Neutral>
0.189718

> <r_epik_State_Penalty>
0.544343

> <r_epik_Charging_Adjusted_Penalty>
0.570162

> <i_epik_Tot_Q>
0

> <i_epik_Tot_abs_Q>
2

> <r_epik_Metal_State_Penalty>
2.6192

> <b_epik_Metal_Only>
0

> <s_lp_Force_Field>
OPLS_2005

> <r_lp_Energy>
19.357

> <b_lp_Chiralities_Consistent>
1

> <s_lp_Variant>
AV-unprocessed.smi:1592-4

> <Gold.Version>
5.8.1

> <Gold.Id.Protein>
6NUR|6NUR_protein|mol2

> <Gold.PLP.Fitness>
46.2237

> <Gold.PLP.PLP>
-35.1202

> <Gold.PLP.part.hbond>
-2.0000

> <Gold.PLP.part.metal>
0.0000

> <Gold.PLP.part.buried>
-2.2491

> <Gold.PLP.part.nonpolar>
-30.0103

> <Gold.PLP.part.repulsive>
0.2988

> <Gold.PLP.ligand.clash>
0.0000

> <Gold.PLP.ligand.torsion>
0.6935

> <Gold.PLP.Chemscore.Hbond>
4.0000

> <Gold.PLP.Chemscore.CHOScore>
0.0000

> <Gold.PLP.Chemscore.Metal>
0.0000

> <Gold.Chemscore.Hbonds>
donor molecule, donor type, donor heavy atom, donor atom, acceptor molecule, acceptor atom, score
      L1  H     5    20       P1  8028  2.00
      P1  H  7997  8009       L1    10  2.00

> <Gold.PLP.Chemscore.Internal.Correction>
0.4905

> <Gold.Rescore>
     Score         DG    S(hbond)    S(metal)    S(lipo)     H(rot)  DE(clash)    DE(int)     intcor
     17.78     -18.67       2.00        0.00      77.65       1.00       0.23       0.66       ----

> <Gold.Chemscore.Fitness>
17.7850

> <Gold.Chemscore.DG>
-18.6726

> <Gold.Chemscore.ZeroCoef>
-5.4800

> <Gold.Chemscore.Hbond>
1.9962

> <Gold.Chemscore.Metal>
0.0000

> <Gold.Chemscore.Lipo>
77.6516

> <Gold.Chemscore.Internal_Hbond>
0.0000

> <Gold.Chemscore.DEClash>
0.2317

> <Gold.Chemscore.DEInternal>
0.6559

> <Gold.Chemscore.Rot>
1.0000

> <Gold.Chemscore.Internal.Correction>
   9.000000E+99

> <Gold.Chemscore.Hbonds>
donor molecule, donor type, donor heavy atom, donor atom, acceptor molecule, acceptor atom, score
      L1  H     5    20       P1  8028  1.00
      P1  H  7997  8009       L1    10  0.99

> <Gold.Chemscore.Hbond.Weighted>
-6.6674

> <Gold.Chemscore.Metal.Weighted>
-0.0000

> <Gold.Chemscore.Lipo.Weighted>
-9.0852

> <Gold.Chemscore.Internal_Hbond.Weighted>
0.0000

> <Gold.Chemscore.DEClash.Weighted>
0.2317

> <Gold.Chemscore.DEInternal.Weighted>
0.6559

> <Gold.Chemscore.Rot.Weighted>
2.5600

> <Gold.Chemscore.Internal.Correction.Weighted>
   9.000000E+99

> <Gold.Protein.RotatedTorsions>
[ 6907 6896 6895 6894 ] final -135.55 input  -60.11 | X-H torsion
[ 7974 7965 7964 7962 ] final -169.33 input  175.53 | X-H torsion
[ 8008 7997 7996 7995 ] final -172.93 input   59.86 | X-H torsion
[ 10167 10162 10161 10158 ] final  -80.89 input  -65.29 | X-H torsion
[ 10718 10713 10712 10709 ] final  -24.08 input   66.30 | X-H torsion
[ 10763 10752 10751 10750 ] final -143.39 input  -60.55 | X-H torsion
[ 11005 11000 10999 10996 ] final  155.99 input  -57.11 | X-H torsion

> <Gold.Protein.ActiveResidues>
 VAL166  LYS551  ARG553  GLY616  TRP617  ASP618  TYR619  PRO620  LYS621  CYS622 
 ASP623  PHE694  ASN695  SER759  ASP760  ASP761  ALA762  ILE779  LEU786  VAL792 
 PHE793  MET794  SER795  GLU796  ALA797  LYS798  CYS799  TRP800  GLU811  SER814 

> <Gold.Protein.RotatedAtoms>
  150.9992  133.6072  159.2697 H   0  0  0  0  0  0  0  0  0  0  0  0  # atno 6907 bound_to 6896
  151.3265  135.0830  159.9333 H   0  0  0  0  0  0  0  0  0  0  0  0  # atno 6908 bound_to 6896
  152.5269  133.9630  159.7780 H   0  0  0  0  0  0  0  0  0  0  0  0  # atno 6909 bound_to 6896
  144.7187  140.2237  143.6313 H   0  0  0  0  0  0  0  0  0  0  0  0  # atno 7974 bound_to 7965
  155.9509  140.1126  157.0977 H   0  0  0  0  0  0  0  0  0  0  0  0  # atno 8008 bound_to 7997
  154.4109  140.1200  156.5118 H   0  0  0  0  0  0  0  0  0  0  0  0  # atno 8009 bound_to 7997
  155.6843  140.3473  155.4870 H   0  0  0  0  0  0  0  0  0  0  0  0  # atno 8010 bound_to 7997
  140.4462  143.2498  151.8554 H   0  0  0  0  0  0  0  0  0  0  0  0  # atno 10167 bound_to 10162
  156.4824  130.4548  149.6803 H   0  0  0  0  0  0  0  0  0  0  0  0  # atno 10718 bound_to 10713
  154.8472  135.3469  154.6180 H   0  0  0  0  0  0  0  0  0  0  0  0  # atno 10763 bound_to 10752
  153.6789  135.6981  153.5129 H   0  0  0  0  0  0  0  0  0  0  0  0  # atno 10764 bound_to 10752
  153.2684  135.4300  155.0920 H   0  0  0  0  0  0  0  0  0  0  0  0  # atno 10765 bound_to 10752
  140.1633  134.8594  157.2601 H   0  0  0  0  0  0  0  0  0  0  0  0  # atno 11005 bound_to 11000
  145.8477  139.2160  143.1790 LP  0  0  0  0  0  0  0  0  0  0  0  0  # atno 17320 bound_to 7965
  146.0289  140.8277  142.9886 LP  0  0  0  0  0  0  0  0  0  0  0  0  # atno 17321 bound_to 7965
  139.4793  144.5172  151.8851 LP  0  0  0  0  0  0  0  0  0  0  0  0  # atno 17342 bound_to 10162
  140.4260  144.2179  150.5887 LP  0  0  0  0  0  0  0  0  0  0  0  0  # atno 17343 bound_to 10162
  156.3508  130.7431  151.2390 LP  0  0  0  0  0  0  0  0  0  0  0  0  # atno 17370 bound_to 10713
  157.7482  131.0377  150.4471 LP  0  0  0  0  0  0  0  0  0  0  0  0  # atno 17371 bound_to 10713
  140.2464  134.3735  155.7460 LP  0  0  0  0  0  0  0  0  0  0  0  0  # atno 17394 bound_to 11000
  141.2211  133.7293  156.8868 LP  0  0  0  0  0  0  0  0  0  0  0  0  # atno 17395 bound_to 11000

$$$$
