AV-unprocessed.smi:1798|AV-procd|sdf|7259|dock7
  -GOLD-   22720 8513D 1   1.00000     0.00000
 Structure written by MMmdl.
 40 41  0  0  0  0  0  0  0  0  3 V2000
  153.1017  142.7529  161.1926 C   0  0  0  0  0  0  0  0  0  0  0  0
  152.3167  142.0160  160.0981 C   0  0  2  0  0  0  0  0  0  0  0  0
  152.8532  140.5877  159.8845 C   0  0  0  0  0  0  0  0  0  0  0  0
  152.0724  139.8469  158.7869 C   0  0  0  0  0  0  0  0  0  0  0  0
  152.0824  140.6324  157.4599 C   0  0  1  0  0  0  0  0  0  0  0  0
  151.2754  139.9519  156.4515 N   0  0  0  0  0  0  0  0  0  0  0  0
  151.7124  139.5535  155.2472 C   0  0  0  0  0  0  0  0  0  0  0  0
  152.8728  139.7101  154.8642 O   0  0  0  0  0  0  0  0  0  0  0  0
  150.6766  138.8532  154.3558 C   0  0  0  0  0  0  0  0  0  0  0  0
  150.0273  137.7043  155.0096 N   0  0  0  0  0  0  0  0  0  0  0  0
  150.8707  136.7371  155.5914 C   0  0  0  0  0  0  0  0  0  0  0  0
  150.3855  135.6428  156.2100 C   0  0  0  0  0  0  0  0  0  0  0  0
  151.2668  134.6572  156.7970 N   0  3  0  0  0  0  0  0  0  0  0  0
  152.4681  134.9002  156.8507 O   0  0  0  0  0  0  0  0  0  0  0  0
  150.7895  133.6092  157.2217 O   0  5  0  0  0  0  0  0  0  0  0  0
  148.9452  135.4824  156.2647 C   0  0  0  0  0  0  0  0  0  0  0  0
  148.1333  136.4021  155.7072 C   0  0  0  0  0  0  0  0  0  0  0  0
  148.6640  137.5905  155.0313 C   0  0  0  0  0  0  0  0  0  0  0  0
  147.9278  138.4320  154.5162 O   0  0  0  0  0  0  0  0  0  0  0  0
  151.5481  142.0606  157.6714 C   0  0  0  0  0  0  0  0  0  0  0  0
  152.3309  142.7976  158.7704 C   0  0  0  0  0  0  0  0  0  0  0  0
  154.1510  142.8682  160.9189 H   0  0  0  0  0  0  0  0  0  0  0  0
  153.0617  142.2102  162.1374 H   0  0  0  0  0  0  0  0  0  0  0  0
  152.6917  143.7478  161.3676 H   0  0  0  0  0  0  0  0  0  0  0  0
  151.2809  141.9399  160.4322 H   0  0  0  0  0  0  0  0  0  0  0  0
  153.9092  140.6270  159.6137 H   0  0  0  0  0  0  0  0  0  0  0  0
  152.7951  140.0239  160.8161 H   0  0  0  0  0  0  0  0  0  0  0  0
  152.5019  138.8550  158.6421 H   0  0  0  0  0  0  0  0  0  0  0  0
  151.0441  139.6922  159.1169 H   0  0  0  0  0  0  0  0  0  0  0  0
  153.1110  140.7067  157.1011 H   0  0  0  0  0  0  0  0  0  0  0  0
  150.3092  139.7758  156.6864 H   0  0  0  0  0  0  0  0  0  0  0  0
  149.9331  139.5926  154.0552 H   0  0  0  0  0  0  0  0  0  0  0  0
  151.1535  138.5363  153.4263 H   0  0  0  0  0  0  0  0  0  0  0  0
  151.9264  136.9439  155.4905 H   0  0  0  0  0  0  0  0  0  0  0  0
  148.5074  134.6240  156.7524 H   0  0  0  0  0  0  0  0  0  0  0  0
  147.0636  136.2623  155.7583 H   0  0  0  0  0  0  0  0  0  0  0  0
  151.6082  142.6237  156.7393 H   0  0  0  0  0  0  0  0  0  0  0  0
  150.4921  142.0250  157.9435 H   0  0  0  0  0  0  0  0  0  0  0  0
  151.9047  143.7906  158.9170 H   0  0  0  0  0  0  0  0  0  0  0  0
  153.3601  142.9500  158.4424 H   0  0  0  0  0  0  0  0  0  0  0  0
  1  2  1  0  0  0  0
  1 22  1  0  0  0  0
  1 23  1  0  0  0  0
  1 24  1  0  0  0  0
  2 21  1  0  0  0  0
  2  3  1  0  0  0  0
  2 25  1  0  0  0  0
  3  4  1  0  0  0  0
  3 26  1  0  0  0  0
  3 27  1  0  0  0  0
  4  5  1  0  0  0  0
  4 28  1  0  0  0  0
  4 29  1  0  0  0  0
  5  6  1  0  0  0  0
  5 20  1  0  0  0  0
  5 30  1  0  0  0  0
  6  7  1  0  0  0  0
  6 31  1  0  0  0  0
  7  8  2  0  0  0  0
  7  9  1  0  0  0  0
  9 10  1  0  0  0  0
  9 32  1  0  0  0  0
  9 33  1  0  0  0  0
 10 18  1  0  0  0  0
 10 11  1  0  0  0  0
 11 12  2  0  0  0  0
 11 34  1  0  0  0  0
 12 13  1  0  0  0  0
 12 16  1  0  0  0  0
 13 14  2  0  0  0  0
 13 15  1  0  0  0  0
 16 17  2  0  0  0  0
 16 35  1  0  0  0  0
 17 18  1  0  0  0  0
 17 36  1  0  0  0  0
 18 19  2  0  0  0  0
 20 21  1  0  0  0  0
 20 37  1  0  0  0  0
 20 38  1  0  0  0  0
 21 39  1  0  0  0  0
 21 40  1  0  0  0  0
M  CHG  1  13   1
M  CHG  1  15  -1
M  END
> <s_m_source_file>
AV-unprocessed.smi

> <i_m_source_file_index>
1798

> <i_lp_mmshare_version>
43012

> <i_f3d_flags>
0

> <s_epik_input>
W0NIM11bQ0BASF0xW0NIMl1bQ0gyXVtDQEhdKFtDSDJdW0NIMl0xKVtOSF1DKD1PKVtDSDJdbjJbY0hdYyhbTitdKD1PKVtPLV0pW2NIXVtjSF1jMj1P

> <s_epik_cmdline>
J2VwaWtfcHl0aG9uJywgJy1waCcsICc3LjAnLCAnLXRuJywgJzgnLCAnLW1hJywgJzIwMCcsICctbWV0YWxfYmluZGluZycsICctaW1hZScsICc8aW5maWxlLm1hZT4nLCAnLW9tYWUnLCAnPG91dGZpbGUubWFlPic=

> <r_lp_tautomer_probability>
1

> <r_epik_Ionization_Penalty>
1.91292e-08

> <r_epik_Ionization_Penalty_Charging>
8.23013e-11

> <r_epik_Ionization_Penalty_Neutral>
1.90469e-08

> <r_epik_State_Penalty>
-0

> <r_epik_Charging_Adjusted_Penalty>
8.23013e-11

> <i_epik_Tot_Q>
0

> <i_epik_Tot_abs_Q>
2

> <r_epik_Metal_State_Penalty>
-0

> <b_epik_Metal_Only>
0

> <s_lp_Force_Field>
OPLS_2005

> <r_lp_Energy>
19.9033

> <b_lp_Chiralities_Consistent>
1

> <s_lp_Variant>
AV-unprocessed.smi:1798-1

> <Gold.Version>
5.8.1

> <Gold.Id.Protein>
6NUR|6NUR_protein|mol2

> <Gold.PLP.Fitness>
40.8752

> <Gold.PLP.PLP>
-33.1493

> <Gold.PLP.part.hbond>
-4.1232

> <Gold.PLP.part.metal>
0.0000

> <Gold.PLP.part.buried>
-2.9665

> <Gold.PLP.part.nonpolar>
-26.2590

> <Gold.PLP.part.repulsive>
0.2464

> <Gold.PLP.ligand.clash>
0.0000

> <Gold.PLP.ligand.torsion>
0.1492

> <Gold.PLP.Chemscore.Hbond>
2.6720

> <Gold.PLP.Chemscore.CHOScore>
0.0000

> <Gold.PLP.Chemscore.Metal>
0.0000

> <Gold.Chemscore.Hbonds>
donor molecule, donor type, donor heavy atom, donor atom, acceptor molecule, acceptor atom, score
      P1  H  6896  6907       L1    15  0.67
      P1  H  7997  8008       L1     8  1.00
      P1  H 10752 10764       L1    14  1.00

> <Gold.PLP.Chemscore.Internal.Correction>
0.0083

> <Gold.Rescore>
     Score         DG    S(hbond)    S(metal)    S(lipo)     H(rot)  DE(clash)    DE(int)     intcor
     19.53     -19.65       2.58        0.00      81.31       1.55       0.03       0.09       ----

> <Gold.Chemscore.Fitness>
19.5300

> <Gold.Chemscore.DG>
-19.6534

> <Gold.Chemscore.ZeroCoef>
-5.4800

> <Gold.Chemscore.Hbond>
2.5834

> <Gold.Chemscore.Metal>
0.0000

> <Gold.Chemscore.Lipo>
81.3145

> <Gold.Chemscore.Internal_Hbond>
0.0000

> <Gold.Chemscore.DEClash>
0.0304

> <Gold.Chemscore.DEInternal>
0.0930

> <Gold.Chemscore.Rot>
1.5505

> <Gold.Chemscore.Internal.Correction>
   9.000000E+99

> <Gold.Chemscore.Hbonds>
donor molecule, donor type, donor heavy atom, donor atom, acceptor molecule, acceptor atom, score
      P1  H  6896  6907       L1    15  0.44
      P1  H  7997  8008       L1     8  0.99
      P1  H 10752 10764       L1    14  0.94

> <Gold.Chemscore.Hbond.Weighted>
-8.6287

> <Gold.Chemscore.Metal.Weighted>
-0.0000

> <Gold.Chemscore.Lipo.Weighted>
-9.5138

> <Gold.Chemscore.Internal_Hbond.Weighted>
0.0000

> <Gold.Chemscore.DEClash.Weighted>
0.0304

> <Gold.Chemscore.DEInternal.Weighted>
0.0930

> <Gold.Chemscore.Rot.Weighted>
3.9692

> <Gold.Chemscore.Internal.Correction.Weighted>
   9.000000E+99

> <Gold.Protein.RotatedTorsions>
[ 6907 6896 6895 6894 ] final -153.67 input  -60.11 | X-H torsion
[ 7974 7965 7964 7962 ] final   91.99 input  175.53 | X-H torsion
[ 8008 7997 7996 7995 ] final  -21.82 input   59.86 | X-H torsion
[ 10167 10162 10161 10158 ] final   -3.80 input  -65.29 | X-H torsion
[ 10718 10713 10712 10709 ] final   47.49 input   66.30 | X-H torsion
[ 10763 10752 10751 10750 ] final  -12.41 input  -60.55 | X-H torsion
[ 11005 11000 10999 10996 ] final  -36.38 input  -57.11 | X-H torsion

> <Gold.Protein.ActiveResidues>
 VAL166  LYS551  ARG553  GLY616  TRP617  ASP618  TYR619  PRO620  LYS621  CYS622 
 ASP623  PHE694  ASN695  SER759  ASP760  ASP761  ALA762  ILE779  LEU786  VAL792 
 PHE793  MET794  SER795  GLU796  ALA797  LYS798  CYS799  TRP800  GLU811  SER814 

> <Gold.Protein.RotatedAtoms>
  151.2460  133.4374  159.2609 H   0  0  0  0  0  0  0  0  0  0  0  0  # atno 6907 bound_to 6896
  151.0661  134.9768  159.8295 H   0  0  0  0  0  0  0  0  0  0  0  0  # atno 6908 bound_to 6896
  152.5405  134.2408  159.8914 H   0  0  0  0  0  0  0  0  0  0  0  0  # atno 6909 bound_to 6896
  145.4982  139.2276  143.2792 H   0  0  0  0  0  0  0  0  0  0  0  0  # atno 7974 bound_to 7965
  154.4682  140.2024  156.0063 H   0  0  0  0  0  0  0  0  0  0  0  0  # atno 8008 bound_to 7997
  156.0964  140.3250  155.7855 H   0  0  0  0  0  0  0  0  0  0  0  0  # atno 8009 bound_to 7997
  155.4870  140.0543  157.2950 H   0  0  0  0  0  0  0  0  0  0  0  0  # atno 8010 bound_to 7997
  140.6904  143.6498  150.8360 H   0  0  0  0  0  0  0  0  0  0  0  0  # atno 10167 bound_to 10162
  157.4590  130.8185  149.7867 H   0  0  0  0  0  0  0  0  0  0  0  0  # atno 10718 bound_to 10713
  153.4980  135.7017  153.5847 H   0  0  0  0  0  0  0  0  0  0  0  0  # atno 10763 bound_to 10752
  153.3991  135.3876  155.1975 H   0  0  0  0  0  0  0  0  0  0  0  0  # atno 10764 bound_to 10752
  154.8712  135.3877  154.4448 H   0  0  0  0  0  0  0  0  0  0  0  0  # atno 10765 bound_to 10752
  140.9870  133.7025  156.1783 H   0  0  0  0  0  0  0  0  0  0  0  0  # atno 11005 bound_to 11000
  146.2242  140.5781  142.9004 LP  0  0  0  0  0  0  0  0  0  0  0  0  # atno 17320 bound_to 7965
  144.7795  140.5810  143.6615 LP  0  0  0  0  0  0  0  0  0  0  0  0  # atno 17321 bound_to 7965
  140.0210  143.5542  152.2800 LP  0  0  0  0  0  0  0  0  0  0  0  0  # atno 17342 bound_to 10162
  139.6301  144.7643  151.2555 LP  0  0  0  0  0  0  0  0  0  0  0  0  # atno 17343 bound_to 10162
  156.0020  130.3875  150.2570 LP  0  0  0  0  0  0  0  0  0  0  0  0  # atno 17370 bound_to 10713
  157.0746  131.0126  151.3178 LP  0  0  0  0  0  0  0  0  0  0  0  0  # atno 17371 bound_to 10713
  140.7099  134.4473  157.5582 LP  0  0  0  0  0  0  0  0  0  0  0  0  # atno 17394 bound_to 11000
  139.8975  134.8635  156.2042 LP  0  0  0  0  0  0  0  0  0  0  0  0  # atno 17395 bound_to 11000

$$$$
