AV-unprocessed.smi:1536|AV-procd|sdf|6187|dock7
  -GOLD-   22720 6353D 1   1.00000     0.00000
 Structure written by MMmdl.
 48 49  0  0  0  0  0  0  0  0  2 V2000
  145.0612  133.6397  150.2219 C   0  0  0  0  0  0  0  0  0  0  0  0
  145.1148  134.6482  151.3778 C   0  0  2  0  0  0  0  0  0  0  0  0
  145.5960  136.0313  150.9041 C   0  0  0  0  0  0  0  0  0  0  0  0
  145.6722  137.0286  152.0719 C   0  0  0  0  0  0  0  0  0  0  0  0
  146.5472  136.5025  153.1537 N   0  3  1  0  0  0  0  0  0  0  0  0
  146.9447  137.5034  154.1947 C   0  0  1  0  0  0  0  0  0  0  0  0
  147.8463  138.6496  153.6533 C   0  0  0  0  0  0  0  0  0  0  0  0
  148.9834  138.9307  154.5235 N   0  0  0  0  0  0  0  0  0  0  0  0
  149.7128  140.0582  154.5243 C   0  0  0  0  0  0  0  0  0  0  0  0
  149.4764  141.0168  153.7907 O   0  0  0  0  0  0  0  0  0  0  0  0
  150.9180  140.1025  155.4683 C   0  0  0  0  0  0  0  0  0  0  0  0
  151.8090  138.9735  155.2700 N   0  0  0  0  0  0  0  0  0  0  0  0
  151.5858  137.6587  155.3238 C   0  0  0  0  0  0  0  0  0  0  0  0
  152.6838  136.9664  155.0615 N   0  0  0  0  0  0  0  0  0  0  0  0
  153.6317  137.9511  154.8365 N   0  0  0  0  0  0  0  0  0  0  0  0
  153.1187  139.1442  154.9598 N   0  0  0  0  0  0  0  0  0  0  0  0
  145.6787  138.0265  154.9341 C   0  0  0  0  0  0  0  0  0  0  0  0
  145.9356  139.3246  155.7224 C   0  0  0  0  0  0  0  0  0  0  0  0
  145.0966  136.9694  155.8944 C   0  0  0  0  0  0  0  0  0  0  0  0
  146.0864  135.1822  153.6618 C   0  0  0  0  0  0  0  0  0  0  0  0
  146.0215  134.1557  152.5198 C   0  0  0  0  0  0  0  0  0  0  0  0
  146.0481  133.4822  149.7857 H   0  0  0  0  0  0  0  0  0  0  0  0
  144.3983  133.9863  149.4285 H   0  0  0  0  0  0  0  0  0  0  0  0
  144.6898  132.6723  150.5618 H   0  0  0  0  0  0  0  0  0  0  0  0
  144.1024  134.7570  151.7701 H   0  0  0  0  0  0  0  0  0  0  0  0
  146.5784  135.9419  150.4380 H   0  0  0  0  0  0  0  0  0  0  0  0
  144.9241  136.4180  150.1368 H   0  0  0  0  0  0  0  0  0  0  0  0
  146.0632  137.9776  151.7035 H   0  0  0  0  0  0  0  0  0  0  0  0
  144.6684  137.2229  152.4471 H   0  0  0  0  0  0  0  0  0  0  0  0
  147.5303  136.9714  154.9462 H   0  0  0  0  0  0  0  0  0  0  0  0
  148.1694  138.4228  152.6361 H   0  0  0  0  0  0  0  0  0  0  0  0
  147.2818  139.5790  153.5907 H   0  0  0  0  0  0  0  0  0  0  0  0
  149.2480  138.2029  155.1721 H   0  0  0  0  0  0  0  0  0  0  0  0
  151.4695  141.0306  155.3110 H   0  0  0  0  0  0  0  0  0  0  0  0
  150.5808  140.1004  156.5057 H   0  0  0  0  0  0  0  0  0  0  0  0
  150.6277  137.2136  155.5485 H   0  0  0  0  0  0  0  0  0  0  0  0
  144.9103  138.2524  154.1943 H   0  0  0  0  0  0  0  0  0  0  0  0
  146.7639  139.2077  156.4221 H   0  0  0  0  0  0  0  0  0  0  0  0
  145.0560  139.6139  156.2986 H   0  0  0  0  0  0  0  0  0  0  0  0
  146.1627  140.1632  155.0648 H   0  0  0  0  0  0  0  0  0  0  0  0
  145.8275  136.6734  156.6476 H   0  0  0  0  0  0  0  0  0  0  0  0
  144.7757  136.0697  155.3693 H   0  0  0  0  0  0  0  0  0  0  0  0
  144.2210  137.3547  156.4182 H   0  0  0  0  0  0  0  0  0  0  0  0
  146.7641  134.8183  154.4338 H   0  0  0  0  0  0  0  0  0  0  0  0
  145.1025  135.2740  154.1207 H   0  0  0  0  0  0  0  0  0  0  0  0
  145.6549  133.2032  152.9043 H   0  0  0  0  0  0  0  0  0  0  0  0
  147.0276  133.9689  152.1410 H   0  0  0  0  0  0  0  0  0  0  0  0
  147.4163  136.3041  152.6787 H   0  0  0  0  0  0  0  0  0  0  0  0
  1  2  1  0  0  0  0
  1 22  1  0  0  0  0
  1 23  1  0  0  0  0
  1 24  1  0  0  0  0
  2 21  1  0  0  0  0
  2  3  1  0  0  0  0
  2 25  1  0  0  0  0
  3  4  1  0  0  0  0
  3 26  1  0  0  0  0
  3 27  1  0  0  0  0
  4  5  1  0  0  0  0
  4 28  1  0  0  0  0
  4 29  1  0  0  0  0
  5  6  1  0  0  0  0
  5 20  1  0  0  0  0
  5 48  1  0  0  0  0
  6  7  1  0  0  0  0
  6 17  1  0  0  0  0
  6 30  1  0  0  0  0
  7  8  1  0  0  0  0
  7 31  1  0  0  0  0
  7 32  1  0  0  0  0
  8  9  1  0  0  0  0
  8 33  1  0  0  0  0
  9 10  2  0  0  0  0
  9 11  1  0  0  0  0
 11 12  1  0  0  0  0
 11 34  1  0  0  0  0
 11 35  1  0  0  0  0
 12 16  1  0  0  0  0
 12 13  1  0  0  0  0
 13 14  2  0  0  0  0
 13 36  1  0  0  0  0
 14 15  1  0  0  0  0
 15 16  2  0  0  0  0
 17 18  1  0  0  0  0
 17 19  1  0  0  0  0
 17 37  1  0  0  0  0
 18 38  1  0  0  0  0
 18 39  1  0  0  0  0
 18 40  1  0  0  0  0
 19 41  1  0  0  0  0
 19 42  1  0  0  0  0
 19 43  1  0  0  0  0
 20 21  1  0  0  0  0
 20 44  1  0  0  0  0
 20 45  1  0  0  0  0
 21 46  1  0  0  0  0
 21 47  1  0  0  0  0
M  CHG  1   5   1
M  END
> <s_m_source_file>
AV-unprocessed.smi

> <i_m_source_file_index>
1536

> <i_lp_mmshare_version>
43012

> <i_f3d_flags>
0

> <s_epik_input>
W0NIM11bQ0hdMVtDSDJdW0NIMl1OKFtDSDJdW0NIMl0xKVtDQEBIXShbQ0hdKFtDSDNdKVtDSDNdKVtDSDJdW05IXUMoPU8pW0NIMl1uMltjSF1ubm4y

> <s_epik_cmdline>
J2VwaWtfcHl0aG9uJywgJy1waCcsICc3LjAnLCAnLXRuJywgJzgnLCAnLW1hJywgJzIwMCcsICctbWV0YWxfYmluZGluZycsICctaW1hZScsICc8aW5maWxlLm1hZT4nLCAnLW9tYWUnLCAnPG91dGZpbGUubWFlPic=

> <r_lp_tautomer_probability>
1

> <r_epik_Ionization_Penalty>
0.00109671

> <r_epik_Ionization_Penalty_Charging>
0.00109273

> <r_epik_Ionization_Penalty_Neutral>
3.97951e-06

> <r_epik_State_Penalty>
0.000716588

> <r_epik_Charging_Adjusted_Penalty>
0.00180932

> <i_epik_Tot_Q>
1

> <i_epik_Tot_abs_Q>
1

> <r_epik_Metal_State_Penalty>
-0

> <b_epik_Metal_Only>
0

> <s_lp_Force_Field>
OPLS_2005

> <r_lp_Energy>
35.3262

> <b_lp_Chiralities_Consistent>
1

> <s_lp_Variant>
AV-unprocessed.smi:1536-2

> <Gold.Version>
5.8.1

> <Gold.Id.Protein>
6NUR|6NUR_protein|mol2

> <Gold.PLP.Fitness>
40.9407

> <Gold.PLP.PLP>
-29.9775

> <Gold.PLP.part.hbond>
-6.3040

> <Gold.PLP.part.metal>
0.0000

> <Gold.PLP.part.buried>
-2.3349

> <Gold.PLP.part.nonpolar>
-23.6590

> <Gold.PLP.part.repulsive>
2.2519

> <Gold.PLP.ligand.clash>
0.0000

> <Gold.PLP.ligand.torsion>
1.2445

> <Gold.PLP.Chemscore.Hbond>
4.3240

> <Gold.PLP.Chemscore.CHOScore>
0.0000

> <Gold.PLP.Chemscore.Metal>
0.0000

> <Gold.Chemscore.Hbonds>
donor molecule, donor type, donor heavy atom, donor atom, acceptor molecule, acceptor atom, score
      L1  H     5    48       P1  7948  2.00
      P1  H  7989  7998       L1    10  0.02
      P1  H  7997  8009       L1    16  1.00
      P1  H  8011  8017       L1    10  0.92
      P1  H 10752 10763       L1    14  0.45

> <Gold.PLP.Chemscore.Internal.Correction>
0.4803

> <Gold.Rescore>
     Score         DG    S(hbond)    S(metal)    S(lipo)     H(rot)  DE(clash)    DE(int)     intcor
      8.97     -12.41       2.59        0.00      46.01       2.77       1.17       2.27       ----

> <Gold.Chemscore.Fitness>
8.9678

> <Gold.Chemscore.DG>
-12.4060

> <Gold.Chemscore.ZeroCoef>
-5.4800

> <Gold.Chemscore.Hbond>
2.5857

> <Gold.Chemscore.Metal>
0.0000

> <Gold.Chemscore.Lipo>
46.0113

> <Gold.Chemscore.Internal_Hbond>
0.0000

> <Gold.Chemscore.DEClash>
1.1658

> <Gold.Chemscore.DEInternal>
2.2724

> <Gold.Chemscore.Rot>
2.7709

> <Gold.Chemscore.Internal.Correction>
   9.000000E+99

> <Gold.Chemscore.Hbonds>
donor molecule, donor type, donor heavy atom, donor atom, acceptor molecule, acceptor atom, score
      L1  H     5    48       P1  7948  1.00
      P1  H  7997  8009       L1    16  0.50
      P1  H  8011  8017       L1    10  0.84
      P1  H 10752 10763       L1    14  0.42

> <Gold.Chemscore.Hbond.Weighted>
-8.6362

> <Gold.Chemscore.Metal.Weighted>
-0.0000

> <Gold.Chemscore.Lipo.Weighted>
-5.3833

> <Gold.Chemscore.Internal_Hbond.Weighted>
0.0000

> <Gold.Chemscore.DEClash.Weighted>
1.1658

> <Gold.Chemscore.DEInternal.Weighted>
2.2724

> <Gold.Chemscore.Rot.Weighted>
7.0935

> <Gold.Chemscore.Internal.Correction.Weighted>
   9.000000E+99

> <Gold.Protein.RotatedTorsions>
[ 6907 6896 6895 6894 ] final  177.43 input  -60.11 | X-H torsion
[ 7974 7965 7964 7962 ] final  -27.06 input  175.53 | X-H torsion
[ 8008 7997 7996 7995 ] final -133.64 input   59.86 | X-H torsion
[ 10167 10162 10161 10158 ] final -103.00 input  -65.29 | X-H torsion
[ 10718 10713 10712 10709 ] final -172.36 input   66.30 | X-H torsion
[ 10763 10752 10751 10750 ] final   55.00 input  -60.55 | X-H torsion
[ 11005 11000 10999 10996 ] final   46.42 input  -57.11 | X-H torsion

> <Gold.Protein.ActiveResidues>
 VAL166  LYS551  ARG553  GLY616  TRP617  ASP618  TYR619  PRO620  LYS621  CYS622 
 ASP623  PHE694  ASN695  SER759  ASP760  ASP761  ALA762  ILE779  LEU786  VAL792 
 PHE793  MET794  SER795  GLU796  ALA797  LYS798  CYS799  TRP800  GLU811  SER814 

> <Gold.Protein.RotatedAtoms>
  151.7042  133.3311  159.3273 H   0  0  0  0  0  0  0  0  0  0  0  0  # atno 6907 bound_to 6896
  150.7722  134.6589  159.6338 H   0  0  0  0  0  0  0  0  0  0  0  0  # atno 6908 bound_to 6896
  152.3751  134.6678  160.0214 H   0  0  0  0  0  0  0  0  0  0  0  0  # atno 6909 bound_to 6896
  146.1383  140.5102  142.8663 H   0  0  0  0  0  0  0  0  0  0  0  0  # atno 7974 bound_to 7965
  155.3488  140.0476  157.3046 H   0  0  0  0  0  0  0  0  0  0  0  0  # atno 8008 bound_to 7997
  154.5238  140.2234  155.8891 H   0  0  0  0  0  0  0  0  0  0  0  0  # atno 8009 bound_to 7997
  156.1718  140.3094  155.8993 H   0  0  0  0  0  0  0  0  0  0  0  0  # atno 8010 bound_to 7997
  140.2246  143.3651  152.0940 H   0  0  0  0  0  0  0  0  0  0  0  0  # atno 10167 bound_to 10162
  156.7545  130.9390  151.3116 H   0  0  0  0  0  0  0  0  0  0  0  0  # atno 10718 bound_to 10713
  152.9811  135.5725  154.4996 H   0  0  0  0  0  0  0  0  0  0  0  0  # atno 10763 bound_to 10752
  154.4517  135.2778  155.1778 H   0  0  0  0  0  0  0  0  0  0  0  0  # atno 10764 bound_to 10752
  154.3403  135.6231  153.5646 H   0  0  0  0  0  0  0  0  0  0  0  0  # atno 10765 bound_to 10752
  140.1370  134.4632  155.8478 H   0  0  0  0  0  0  0  0  0  0  0  0  # atno 11005 bound_to 11000
  144.7764  140.5749  143.6635 LP  0  0  0  0  0  0  0  0  0  0  0  0  # atno 17320 bound_to 7965
  145.5105  139.1479  143.3607 LP  0  0  0  0  0  0  0  0  0  0  0  0  # atno 17321 bound_to 7965
  139.5132  144.6928  151.5713 LP  0  0  0  0  0  0  0  0  0  0  0  0  # atno 17342 bound_to 10162
  140.6230  143.9223  150.6541 LP  0  0  0  0  0  0  0  0  0  0  0  0  # atno 17343 bound_to 10162
  157.6762  130.9097  150.0157 LP  0  0  0  0  0  0  0  0  0  0  0  0  # atno 17370 bound_to 10713
  156.1379  130.3642  149.9627 LP  0  0  0  0  0  0  0  0  0  0  0  0  # atno 17371 bound_to 10713
  141.2180  133.6818  156.7176 LP  0  0  0  0  0  0  0  0  0  0  0  0  # atno 17394 bound_to 11000
  140.2770  134.8347  157.3899 LP  0  0  0  0  0  0  0  0  0  0  0  0  # atno 17395 bound_to 11000

$$$$
