AV-unprocessed.smi:2863|AV-procd|sdf|11012|dock7
  -GOLD-   2272015473D 1   1.00000     0.00000
 Structure written by MMmdl.
 42 43  0  0  0  0  0  0  0  0  1 V2000
  144.5111  141.0419  157.3570 C   0  0  0  0  0  0  0  0  0  0  0  0
  145.3149  141.4876  156.1849 C   0  0  0  0  0  0  0  0  0  0  0  0
  146.4507  140.9585  155.7347 N   0  0  0  0  0  0  0  0  0  0  0  0
  146.7889  141.7317  154.6328 C   0  0  0  0  0  0  0  0  0  0  0  0
  148.0143  141.4613  153.8148 C   0  0  0  0  0  0  0  0  0  0  0  0
  149.2336  141.1398  154.6940 C   0  0  0  0  0  0  0  0  0  0  0  0
  149.6051  142.2701  155.5367 N   0  0  0  0  0  0  0  0  0  0  0  0
  150.5597  142.2447  156.4772 C   0  0  0  0  0  0  0  0  0  0  0  0
  151.2470  141.2563  156.7356 O   0  0  0  0  0  0  0  0  0  0  0  0
  150.6754  143.4259  157.1000 N   0  0  0  0  0  0  0  0  0  0  0  0
  151.6168  143.7229  158.1755 C   0  0  0  0  0  0  0  0  0  0  0  0
  151.6516  142.5467  159.1698 C   0  0  0  0  0  0  0  0  0  0  0  0
  152.5864  142.8387  160.3548 C   0  0  0  0  0  0  0  0  0  0  0  0
  152.1944  144.1438  161.0649 C   0  0  0  0  0  0  0  0  0  0  0  0
  152.1624  145.3226  160.0793 C   0  0  0  0  0  0  0  0  0  0  0  0
  151.2299  145.0338  158.8916 C   0  0  0  0  0  0  0  0  0  0  0  0
  145.8239  142.6932  154.4730 C   0  0  0  0  0  0  0  0  0  0  0  0
  145.6333  143.7891  153.4800 C   0  0  0  0  0  0  0  0  0  0  0  0
  144.8818  142.5512  155.4559 O   0  0  0  0  0  0  0  0  0  0  0  0
  144.9731  140.1729  157.8265 H   0  0  0  0  0  0  0  0  0  0  0  0
  143.5039  140.7743  157.0378 H   0  0  0  0  0  0  0  0  0  0  0  0
  144.4465  141.8447  158.0914 H   0  0  0  0  0  0  0  0  0  0  0  0
  147.8241  140.6342  153.1300 H   0  0  0  0  0  0  0  0  0  0  0  0
  148.2364  142.3242  153.1857 H   0  0  0  0  0  0  0  0  0  0  0  0
  149.0105  140.2934  155.3441 H   0  0  0  0  0  0  0  0  0  0  0  0
  150.0817  140.8408  154.0753 H   0  0  0  0  0  0  0  0  0  0  0  0
  149.0950  143.1301  155.3967 H   0  0  0  0  0  0  0  0  0  0  0  0
  150.0641  144.1760  156.8127 H   0  0  0  0  0  0  0  0  0  0  0  0
  152.6164  143.8353  157.7507 H   0  0  0  0  0  0  0  0  0  0  0  0
  150.6463  142.3488  159.5448 H   0  0  0  0  0  0  0  0  0  0  0  0
  151.9768  141.6376  158.6626 H   0  0  0  0  0  0  0  0  0  0  0  0
  152.5610  142.0085  161.0615 H   0  0  0  0  0  0  0  0  0  0  0  0
  153.6150  142.9104  159.9995 H   0  0  0  0  0  0  0  0  0  0  0  0
  151.2141  144.0278  161.5286 H   0  0  0  0  0  0  0  0  0  0  0  0
  152.8962  144.3531  161.8727 H   0  0  0  0  0  0  0  0  0  0  0  0
  151.8399  146.2285  160.5932 H   0  0  0  0  0  0  0  0  0  0  0  0
  153.1705  145.5183  159.7117 H   0  0  0  0  0  0  0  0  0  0  0  0
  151.2628  145.8699  158.1920 H   0  0  0  0  0  0  0  0  0  0  0  0
  150.2007  144.9704  159.2477 H   0  0  0  0  0  0  0  0  0  0  0  0
  146.0789  143.5254  152.5205 H   0  0  0  0  0  0  0  0  0  0  0  0
  146.1005  144.7102  153.8285 H   0  0  0  0  0  0  0  0  0  0  0  0
  144.5738  143.9863  153.3156 H   0  0  0  0  0  0  0  0  0  0  0  0
  1  2  1  0  0  0  0
  1 20  1  0  0  0  0
  1 21  1  0  0  0  0
  1 22  1  0  0  0  0
  2 19  1  0  0  0  0
  2  3  2  0  0  0  0
  3  4  1  0  0  0  0
  4  5  1  0  0  0  0
  4 17  2  0  0  0  0
  5  6  1  0  0  0  0
  5 23  1  0  0  0  0
  5 24  1  0  0  0  0
  6  7  1  0  0  0  0
  6 25  1  0  0  0  0
  6 26  1  0  0  0  0
  7  8  1  0  0  0  0
  7 27  1  0  0  0  0
  8  9  2  0  0  0  0
  8 10  1  0  0  0  0
 10 11  1  0  0  0  0
 10 28  1  0  0  0  0
 11 16  1  0  0  0  0
 11 12  1  0  0  0  0
 11 29  1  0  0  0  0
 12 13  1  0  0  0  0
 12 30  1  0  0  0  0
 12 31  1  0  0  0  0
 13 14  1  0  0  0  0
 13 32  1  0  0  0  0
 13 33  1  0  0  0  0
 14 15  1  0  0  0  0
 14 34  1  0  0  0  0
 14 35  1  0  0  0  0
 15 16  1  0  0  0  0
 15 36  1  0  0  0  0
 15 37  1  0  0  0  0
 16 38  1  0  0  0  0
 16 39  1  0  0  0  0
 17 18  1  0  0  0  0
 17 19  1  0  0  0  0
 18 40  1  0  0  0  0
 18 41  1  0  0  0  0
 18 42  1  0  0  0  0
M  END
> <s_m_source_file>
AV-unprocessed.smi

> <i_m_source_file_index>
2863

> <i_lp_mmshare_version>
43012

> <i_f3d_flags>
0

> <s_epik_input>
W0NIM11jMW5jKGMobzEpW0NIM10pW0NIMl1bQ0gyXVtOSF1DKD1PKVtOSF1bQ0hdMltDSDJdW0NIMl1bQ0gyXVtDSDJdW0NIMl0y

> <s_epik_cmdline>
J2VwaWtfcHl0aG9uJywgJy1waCcsICc3LjAnLCAnLXRuJywgJzgnLCAnLW1hJywgJzIwMCcsICctbWV0YWxfYmluZGluZycsICctaW1hZScsICc8aW5maWxlLm1hZT4nLCAnLW9tYWUnLCAnPG91dGZpbGUubWFlPic=

> <r_lp_tautomer_probability>
1

> <r_epik_Ionization_Penalty>
0.000108106

> <r_epik_Ionization_Penalty_Charging>
0

> <r_epik_Ionization_Penalty_Neutral>
0.000108106

> <r_epik_State_Penalty>
-0

> <r_epik_Charging_Adjusted_Penalty>
0

> <i_epik_Tot_Q>
0

> <i_epik_Tot_abs_Q>
0

> <r_epik_Metal_State_Penalty>
-0

> <b_epik_Metal_Only>
0

> <s_lp_Force_Field>
OPLS_2005

> <r_lp_Energy>
1.15326

> <b_lp_Chiralities_Consistent>
1

> <s_lp_Variant>
AV-unprocessed.smi:2863-1

> <Gold.Version>
5.8.1

> <Gold.Id.Protein>
6NUR|6NUR_protein|mol2

> <Gold.PLP.Fitness>
47.7543

> <Gold.PLP.PLP>
-42.7937

> <Gold.PLP.part.hbond>
-2.0000

> <Gold.PLP.part.metal>
0.0000

> <Gold.PLP.part.buried>
-6.2813

> <Gold.PLP.part.nonpolar>
-35.3266

> <Gold.PLP.part.repulsive>
0.4240

> <Gold.PLP.ligand.clash>
0.0000

> <Gold.PLP.ligand.torsion>
0.4647

> <Gold.PLP.Chemscore.Hbond>
1.9600

> <Gold.PLP.Chemscore.CHOScore>
0.0000

> <Gold.PLP.Chemscore.Metal>
0.0000

> <Gold.Chemscore.Hbonds>
donor molecule, donor type, donor heavy atom, donor atom, acceptor molecule, acceptor atom, score
      L1  H     7    27       P1  8028  1.00
      L1  H    10    28       P1  8028  0.96

> <Gold.PLP.Chemscore.Internal.Correction>
0.0101

> <Gold.Rescore>
     Score         DG    S(hbond)    S(metal)    S(lipo)     H(rot)  DE(clash)    DE(int)     intcor
     18.20     -19.97       1.91        0.00     104.75       1.61       0.09       1.68       ----

> <Gold.Chemscore.Fitness>
18.2006

> <Gold.Chemscore.DG>
-19.9717

> <Gold.Chemscore.ZeroCoef>
-5.4800

> <Gold.Chemscore.Hbond>
1.9057

> <Gold.Chemscore.Metal>
0.0000

> <Gold.Chemscore.Lipo>
104.7515

> <Gold.Chemscore.Internal_Hbond>
0.0000

> <Gold.Chemscore.DEClash>
0.0921

> <Gold.Chemscore.DEInternal>
1.6789

> <Gold.Chemscore.Rot>
1.6130

> <Gold.Chemscore.Internal.Correction>
   9.000000E+99

> <Gold.Chemscore.Hbonds>
donor molecule, donor type, donor heavy atom, donor atom, acceptor molecule, acceptor atom, score
      L1  H     7    27       P1  8028  0.95
      L1  H    10    28       P1  8028  0.88

> <Gold.Chemscore.Hbond.Weighted>
-6.3651

> <Gold.Chemscore.Metal.Weighted>
-0.0000

> <Gold.Chemscore.Lipo.Weighted>
-12.2559

> <Gold.Chemscore.Internal_Hbond.Weighted>
0.0000

> <Gold.Chemscore.DEClash.Weighted>
0.0921

> <Gold.Chemscore.DEInternal.Weighted>
1.6789

> <Gold.Chemscore.Rot.Weighted>
4.1293

> <Gold.Chemscore.Internal.Correction.Weighted>
   9.000000E+99

> <Gold.Protein.RotatedTorsions>
[ 6907 6896 6895 6894 ] final  172.55 input  -60.11 | X-H torsion
[ 7974 7965 7964 7962 ] final -108.56 input  175.53 | X-H torsion
[ 8008 7997 7996 7995 ] final  169.53 input   59.86 | X-H torsion
[ 10167 10162 10161 10158 ] final   43.90 input  -65.29 | X-H torsion
[ 10718 10713 10712 10709 ] final   26.83 input   66.30 | X-H torsion
[ 10763 10752 10751 10750 ] final  -52.23 input  -60.55 | X-H torsion
[ 11005 11000 10999 10996 ] final  -80.38 input  -57.11 | X-H torsion

> <Gold.Protein.ActiveResidues>
 VAL166  LYS551  ARG553  GLY616  TRP617  ASP618  TYR619  PRO620  LYS621  CYS622 
 ASP623  PHE694  ASN695  SER759  ASP760  ASP761  ALA762  ILE779  LEU786  VAL792 
 PHE793  MET794  SER795  GLU796  ALA797  LYS798  CYS799  TRP800  GLU811  SER814 

> <Gold.Protein.RotatedAtoms>
  151.7824  133.3351  159.3475 H   0  0  0  0  0  0  0  0  0  0  0  0  # atno 6907 bound_to 6896
  150.7421  134.5918  159.6001 H   0  0  0  0  0  0  0  0  0  0  0  0  # atno 6908 bound_to 6896
  152.3267  134.7313  160.0351 H   0  0  0  0  0  0  0  0  0  0  0  0  # atno 6909 bound_to 6896
  145.1913  140.9016  143.3423 H   0  0  0  0  0  0  0  0  0  0  0  0  # atno 7974 bound_to 7965
  156.1449  140.1562  156.8863 H   0  0  0  0  0  0  0  0  0  0  0  0  # atno 8008 bound_to 7997
  154.5019  140.0823  156.7853 H   0  0  0  0  0  0  0  0  0  0  0  0  # atno 8009 bound_to 7997
  155.4008  140.3414  155.4259 H   0  0  0  0  0  0  0  0  0  0  0  0  # atno 8010 bound_to 7997
  140.3397  144.2485  150.6157 H   0  0  0  0  0  0  0  0  0  0  0  0  # atno 10167 bound_to 10162
  157.2121  130.6939  149.6233 H   0  0  0  0  0  0  0  0  0  0  0  0  # atno 10718 bound_to 10713
  154.1393  135.6507  153.4939 H   0  0  0  0  0  0  0  0  0  0  0  0  # atno 10763 bound_to 10752
  153.0171  135.5311  154.6921 H   0  0  0  0  0  0  0  0  0  0  0  0  # atno 10764 bound_to 10752
  154.6178  135.2961  155.0331 H   0  0  0  0  0  0  0  0  0  0  0  0  # atno 10765 bound_to 10752
  141.1668  133.7147  156.8264 H   0  0  0  0  0  0  0  0  0  0  0  0  # atno 11005 bound_to 11000
  145.0038  139.3573  143.6154 LP  0  0  0  0  0  0  0  0  0  0  0  0  # atno 17320 bound_to 7965
  146.3435  139.9272  142.8758 LP  0  0  0  0  0  0  0  0  0  0  0  0  # atno 17321 bound_to 7965
  140.5320  143.2241  151.8223 LP  0  0  0  0  0  0  0  0  0  0  0  0  # atno 17342 bound_to 10162
  139.4842  144.4708  151.9427 LP  0  0  0  0  0  0  0  0  0  0  0  0  # atno 17343 bound_to 10162
  155.9690  130.4548  150.5862 LP  0  0  0  0  0  0  0  0  0  0  0  0  # atno 17370 bound_to 10713
  157.3662  131.0758  151.1596 LP  0  0  0  0  0  0  0  0  0  0  0  0  # atno 17371 bound_to 10713
  140.2083  134.8847  157.3246 LP  0  0  0  0  0  0  0  0  0  0  0  0  # atno 17394 bound_to 11000
  140.2114  134.4134  155.7611 LP  0  0  0  0  0  0  0  0  0  0  0  0  # atno 17395 bound_to 11000

$$$$
