AV-unprocessed.smi:658|AV-procd|sdf|3233|dock3
  -GOLD-   22720 0173D 1   1.00000     0.00000
 Structure written by MMmdl.
 38 38  0  0  0  0  0  0  0  0  2 V2000
  151.5049  140.5280  155.8846 C   0  0  0  0  0  0  0  0  0  0  0  0
  150.9042  141.7791  156.5465 C   0  0  1  0  0  0  0  0  0  0  0  0
  149.5037  141.9367  156.0900 N   0  3  0  0  0  0  0  0  0  0  0  0
  149.2731  141.5983  154.6718 C   0  0  0  0  0  0  0  0  0  0  0  0
  147.7949  141.7645  154.3015 C   0  0  0  0  0  0  0  0  0  0  0  0
  146.9759  140.4969  154.5812 C   0  0  0  0  0  0  0  0  0  0  0  0
  147.0739  139.3023  153.1795 S   0  0  0  0  0  0  0  0  0  0  0  0
  148.7409  138.8808  153.1800 N   0  0  0  0  0  0  0  0  0  0  0  0
  146.3135  138.0907  153.5216 O   0  0  0  0  0  0  0  0  0  0  0  0
  146.8115  140.0292  151.9287 O   0  0  0  0  0  0  0  0  0  0  0  0
  150.9573  141.7339  158.0953 C   0  0  1  0  0  0  0  0  0  0  0  0
  151.9940  140.7347  158.6426 C   0  0  0  0  0  0  0  0  0  0  0  0
  151.2117  143.0639  158.6392 N   0  0  0  0  0  0  0  0  0  0  0  0
  151.2151  144.2819  157.9877 C   0  0  0  0  0  0  0  0  0  0  0  0
  151.4521  145.2464  158.9244 C   0  0  0  0  0  0  0  0  0  0  0  0
  151.5725  144.5159  160.1388 C   0  0  0  0  0  0  0  0  0  0  0  0
  151.4181  143.2130  159.9666 N   0  0  0  0  0  0  0  0  0  0  0  0
  152.5689  140.4298  156.0979 H   0  0  0  0  0  0  0  0  0  0  0  0
  151.4022  140.5728  154.7998 H   0  0  0  0  0  0  0  0  0  0  0  0
  151.0087  139.6192  156.2272 H   0  0  0  0  0  0  0  0  0  0  0  0
  151.4865  142.6406  156.2142 H   0  0  0  0  0  0  0  0  0  0  0  0
  148.9048  141.3654  156.6687 H   0  0  0  0  0  0  0  0  0  0  0  0
  149.8846  142.2496  154.0455 H   0  0  0  0  0  0  0  0  0  0  0  0
  149.5962  140.5727  154.4893 H   0  0  0  0  0  0  0  0  0  0  0  0
  147.3713  142.6002  154.8599 H   0  0  0  0  0  0  0  0  0  0  0  0
  147.7144  142.0230  153.2448 H   0  0  0  0  0  0  0  0  0  0  0  0
  147.3644  139.9939  155.4673 H   0  0  0  0  0  0  0  0  0  0  0  0
  145.9257  140.7230  154.7679 H   0  0  0  0  0  0  0  0  0  0  0  0
  149.3093  139.4929  152.5947 H   0  0  0  0  0  0  0  0  0  0  0  0
  148.9029  137.8827  153.0465 H   0  0  0  0  0  0  0  0  0  0  0  0
  149.9797  141.4122  158.4604 H   0  0  0  0  0  0  0  0  0  0  0  0
  151.7296  139.7065  158.3967 H   0  0  0  0  0  0  0  0  0  0  0  0
  152.0573  140.7941  159.7298 H   0  0  0  0  0  0  0  0  0  0  0  0
  152.9893  140.9273  158.2413 H   0  0  0  0  0  0  0  0  0  0  0  0
  151.0467  144.3624  156.9240 H   0  0  0  0  0  0  0  0  0  0  0  0
  151.5243  146.3124  158.7668 H   0  0  0  0  0  0  0  0  0  0  0  0
  151.7596  144.8915  161.1342 H   0  0  0  0  0  0  0  0  0  0  0  0
  149.2457  142.9051  156.2217 H   0  0  0  0  0  0  0  0  0  0  0  0
  1  2  1  0  0  0  0
  1 18  1  0  0  0  0
  1 19  1  0  0  0  0
  1 20  1  0  0  0  0
  2  3  1  0  0  0  0
  2 11  1  0  0  0  0
  2 21  1  0  0  0  0
  3  4  1  0  0  0  0
  3 22  1  0  0  0  0
  3 38  1  0  0  0  0
  4  5  1  0  0  0  0
  4 23  1  0  0  0  0
  4 24  1  0  0  0  0
  5  6  1  0  0  0  0
  5 25  1  0  0  0  0
  5 26  1  0  0  0  0
  6  7  1  0  0  0  0
  6 27  1  0  0  0  0
  6 28  1  0  0  0  0
  7  8  1  0  0  0  0
  7  9  2  0  0  0  0
  7 10  2  0  0  0  0
  8 29  1  0  0  0  0
  8 30  1  0  0  0  0
 11 12  1  0  0  0  0
 11 13  1  0  0  0  0
 11 31  1  0  0  0  0
 12 32  1  0  0  0  0
 12 33  1  0  0  0  0
 12 34  1  0  0  0  0
 13 17  1  0  0  0  0
 13 14  1  0  0  0  0
 14 15  2  0  0  0  0
 14 35  1  0  0  0  0
 15 16  1  0  0  0  0
 15 36  1  0  0  0  0
 16 17  2  0  0  0  0
 16 37  1  0  0  0  0
M  CHG  1   3   1
M  END
> <s_m_source_file>
AV-unprocessed.smi

> <i_m_source_file_index>
658

> <i_lp_mmshare_version>
43012

> <i_f3d_flags>
0

> <s_epik_input>
bjFbY0hdW2NIXVtjSF1uMVtDQEBIXShbQ0gzXSlbQ0BIXShbQ0gzXSlbTkhdW0NIMl1bQ0gyXVtDSDJdUyg9TykoPU8pW05IMl0=

> <s_epik_cmdline>
J2VwaWtfcHl0aG9uJywgJy1waCcsICc3LjAnLCAnLXRuJywgJzgnLCAnLW1hJywgJzIwMCcsICctbWV0YWxfYmluZGluZycsICctaW1hZScsICc8aW5maWxlLm1hZT4nLCAnLW9tYWUnLCAnPG91dGZpbGUubWFlPic=

> <r_lp_tautomer_probability>
1

> <r_epik_Ionization_Penalty>
0.00535781

> <r_epik_Ionization_Penalty_Charging>
0.00511015

> <r_epik_Ionization_Penalty_Neutral>
0.000247661

> <r_epik_State_Penalty>
-0

> <r_epik_Charging_Adjusted_Penalty>
0.00511015

> <i_epik_Tot_Q>
1

> <i_epik_Tot_abs_Q>
1

> <r_epik_Metal_State_Penalty>
0.149106

> <b_epik_Metal_Only>
0

> <s_lp_Force_Field>
OPLS_2005

> <r_lp_Energy>
6.97458

> <b_lp_Chiralities_Consistent>
1

> <s_lp_Variant>
AV-unprocessed.smi:658-4

> <Gold.Version>
5.8.1

> <Gold.Id.Protein>
6NUR|6NUR_protein|mol2

> <Gold.PLP.Fitness>
48.2066

> <Gold.PLP.PLP>
-36.7163

> <Gold.PLP.part.hbond>
-2.9263

> <Gold.PLP.part.metal>
0.0000

> <Gold.PLP.part.buried>
-6.0164

> <Gold.PLP.part.nonpolar>
-29.8951

> <Gold.PLP.part.repulsive>
2.1603

> <Gold.PLP.ligand.clash>
0.0000

> <Gold.PLP.ligand.torsion>
1.8002

> <Gold.PLP.Chemscore.Hbond>
3.9520

> <Gold.PLP.Chemscore.CHOScore>
0.9702

> <Gold.PLP.Chemscore.Metal>
0.0000

> <Gold.Chemscore.Hbonds>
donor molecule, donor type, donor heavy atom, donor atom, acceptor molecule, acceptor atom, score
      L1  H     3    38       P1  8028  2.00
      L1  H     8    29       P1  7957  0.94
      L1  H     8    30       P1  7948  1.00
      L1  C    14    35       P1  8028  0.99

> <Gold.PLP.Chemscore.Internal.Correction>
0.3241

> <Gold.Rescore>
     Score         DG    S(hbond)    S(metal)    S(lipo)     H(rot)  DE(clash)    DE(int)     intcor
     14.75     -16.86       2.91        0.00      82.83       3.13       0.46       1.64       ----

> <Gold.Chemscore.Fitness>
14.7528

> <Gold.Chemscore.DG>
-16.8606

> <Gold.Chemscore.ZeroCoef>
-5.4800

> <Gold.Chemscore.Hbond>
2.9057

> <Gold.Chemscore.Metal>
0.0000

> <Gold.Chemscore.Lipo>
82.8340

> <Gold.Chemscore.Internal_Hbond>
0.0000

> <Gold.Chemscore.DEClash>
0.4647

> <Gold.Chemscore.DEInternal>
1.6431

> <Gold.Chemscore.Rot>
3.1312

> <Gold.Chemscore.Internal.Correction>
   9.000000E+99

> <Gold.Chemscore.Hbonds>
donor molecule, donor type, donor heavy atom, donor atom, acceptor molecule, acceptor atom, score
      L1  H     3    38       P1  8028  0.97
      L1  H     8    29       P1  7957  0.87
      L1  H     8    30       P1  7948  0.90

> <Gold.Chemscore.Hbond.Weighted>
-9.7050

> <Gold.Chemscore.Metal.Weighted>
-0.0000

> <Gold.Chemscore.Lipo.Weighted>
-9.6916

> <Gold.Chemscore.Internal_Hbond.Weighted>
0.0000

> <Gold.Chemscore.DEClash.Weighted>
0.4647

> <Gold.Chemscore.DEInternal.Weighted>
1.6431

> <Gold.Chemscore.Rot.Weighted>
8.0160

> <Gold.Chemscore.Internal.Correction.Weighted>
   9.000000E+99

> <Gold.Protein.RotatedTorsions>
[ 6907 6896 6895 6894 ] final  -34.78 input  -60.11 | X-H torsion
[ 7974 7965 7964 7962 ] final  -57.78 input  175.53 | X-H torsion
[ 8008 7997 7996 7995 ] final   21.18 input   59.86 | X-H torsion
[ 10167 10162 10161 10158 ] final  -23.71 input  -65.29 | X-H torsion
[ 10718 10713 10712 10709 ] final -160.68 input   66.30 | X-H torsion
[ 10763 10752 10751 10750 ] final -108.05 input  -60.55 | X-H torsion
[ 11005 11000 10999 10996 ] final  178.44 input  -57.11 | X-H torsion

> <Gold.Protein.ActiveResidues>
 VAL166  LYS551  ARG553  GLY616  TRP617  ASP618  TYR619  PRO620  LYS621  CYS622 
 ASP623  PHE694  ASN695  SER759  ASP760  ASP761  ALA762  ILE779  LEU786  VAL792 
 PHE793  MET794  SER795  GLU796  ALA797  LYS798  CYS799  TRP800  GLU811  SER814 

> <Gold.Protein.RotatedAtoms>
  151.0482  134.9654  159.8197 H   0  0  0  0  0  0  0  0  0  0  0  0  # atno 6907 bound_to 6896
  152.5376  134.2571  159.8931 H   0  0  0  0  0  0  0  0  0  0  0  0  # atno 6908 bound_to 6896
  151.2586  133.4270  159.2649 H   0  0  0  0  0  0  0  0  0  0  0  0  # atno 6909 bound_to 6896
  145.8470  140.8378  143.0005 H   0  0  0  0  0  0  0  0  0  0  0  0  # atno 7974 bound_to 7965
  154.9467  140.3060  155.5095 H   0  0  0  0  0  0  0  0  0  0  0  0  # atno 8008 bound_to 7997
  156.2991  140.2326  156.4478 H   0  0  0  0  0  0  0  0  0  0  0  0  # atno 8009 bound_to 7997
  154.8094  140.0429  157.1320 H   0  0  0  0  0  0  0  0  0  0  0  0  # atno 8010 bound_to 7997
  140.7288  143.4419  151.0645 H   0  0  0  0  0  0  0  0  0  0  0  0  # atno 10167 bound_to 10162
  156.5855  130.8748  151.2876 H   0  0  0  0  0  0  0  0  0  0  0  0  # atno 10718 bound_to 10713
  154.8112  135.4652  154.0523 H   0  0  0  0  0  0  0  0  0  0  0  0  # atno 10763 bound_to 10752
  153.1952  135.6861  153.8308 H   0  0  0  0  0  0  0  0  0  0  0  0  # atno 10764 bound_to 10752
  153.7812  135.3256  155.3343 H   0  0  0  0  0  0  0  0  0  0  0  0  # atno 10765 bound_to 10752
  140.3951  134.6827  157.4530 H   0  0  0  0  0  0  0  0  0  0  0  0  # atno 11005 bound_to 11000
  144.6731  140.0897  143.7465 LP  0  0  0  0  0  0  0  0  0  0  0  0  # atno 17320 bound_to 7965
  145.9401  139.2663  143.1274 LP  0  0  0  0  0  0  0  0  0  0  0  0  # atno 17321 bound_to 7965
  139.8087  143.7982  152.3169 LP  0  0  0  0  0  0  0  0  0  0  0  0  # atno 17342 bound_to 10162
  139.8024  144.7369  150.9807 LP  0  0  0  0  0  0  0  0  0  0  0  0  # atno 17343 bound_to 10162
  157.7316  130.9703  150.1889 LP  0  0  0  0  0  0  0  0  0  0  0  0  # atno 17370 bound_to 10713
  156.2595  130.3709  149.8146 LP  0  0  0  0  0  0  0  0  0  0  0  0  # atno 17371 bound_to 10713
  140.0377  134.6312  155.9021 LP  0  0  0  0  0  0  0  0  0  0  0  0  # atno 17394 bound_to 11000
  141.1877  133.6560  156.5292 LP  0  0  0  0  0  0  0  0  0  0  0  0  # atno 17395 bound_to 11000

$$$$
