AV-unprocessed.smi:970|AV-procd|sdf|4293|dock4
  -GOLD-   22720 2203D 1   1.00000     0.00000
 Structure written by MMmdl.
 31 31  0  0  0  0  0  0  0  0  1 V2000
  146.9845  138.8326  151.9465 C   0  0  0  0  0  0  0  0  0  0  0  0
  147.3197  139.9226  152.8495 N   0  0  0  0  0  0  0  0  0  0  0  0
  146.7954  140.0757  154.0737 C   0  0  0  0  0  0  0  0  0  0  0  0
  145.9786  139.2905  154.5589 O   0  0  0  0  0  0  0  0  0  0  0  0
  147.2827  141.2942  154.8755 C   0  0  2  0  0  0  0  0  0  0  0  0
  146.9347  142.5606  154.0761 C   0  0  0  0  0  0  0  0  0  0  0  0
  148.7344  141.2463  155.0358 N   0  0  0  0  0  0  0  0  0  0  0  0
  149.3942  141.4245  156.1921 C   0  0  0  0  0  0  0  0  0  0  0  0
  148.8314  141.7094  157.2500 O   0  0  0  0  0  0  0  0  0  0  0  0
  150.9178  141.2370  156.1368 C   0  0  1  0  0  0  0  0  0  0  0  0
  151.6016  141.5000  157.4942 C   0  0  0  0  0  0  0  0  0  0  0  0
  151.2349  139.9188  155.6002 N   0  0  0  0  0  0  0  0  0  0  0  0
  151.9160  138.9113  156.1510 C   0  0  0  0  0  0  0  0  0  0  0  0
  152.0685  137.8636  155.3535 N   0  0  0  0  0  0  0  0  0  0  0  0
  151.4257  138.3286  154.2417 C   0  0  0  0  0  0  0  0  0  0  0  0
  150.9170  139.5572  154.3321 N   0  0  0  0  0  0  0  0  0  0  0  0
  147.5316  138.9436  151.0102 H   0  0  0  0  0  0  0  0  0  0  0  0
  145.9175  138.8299  151.7196 H   0  0  0  0  0  0  0  0  0  0  0  0
  147.2503  137.8698  152.3851 H   0  0  0  0  0  0  0  0  0  0  0  0
  147.9859  140.6072  152.5223 H   0  0  0  0  0  0  0  0  0  0  0  0
  146.7949  141.3292  155.8517 H   0  0  0  0  0  0  0  0  0  0  0  0
  145.8582  142.6505  153.9251 H   0  0  0  0  0  0  0  0  0  0  0  0
  147.4101  142.5659  153.0939 H   0  0  0  0  0  0  0  0  0  0  0  0
  147.2629  143.4559  154.6048 H   0  0  0  0  0  0  0  0  0  0  0  0
  149.2727  141.0115  154.2146 H   0  0  0  0  0  0  0  0  0  0  0  0
  151.3110  141.9714  155.4316 H   0  0  0  0  0  0  0  0  0  0  0  0
  151.3953  142.5107  157.8480 H   0  0  0  0  0  0  0  0  0  0  0  0
  152.6840  141.3995  157.4091 H   0  0  0  0  0  0  0  0  0  0  0  0
  151.2657  140.8060  158.2657 H   0  0  0  0  0  0  0  0  0  0  0  0
  152.3145  138.9476  157.1543 H   0  0  0  0  0  0  0  0  0  0  0  0
  151.3353  137.7466  153.3364 H   0  0  0  0  0  0  0  0  0  0  0  0
  1  2  1  0  0  0  0
  1 17  1  0  0  0  0
  1 18  1  0  0  0  0
  1 19  1  0  0  0  0
  2  3  1  0  0  0  0
  2 20  1  0  0  0  0
  3  4  2  0  0  0  0
  3  5  1  0  0  0  0
  5  6  1  0  0  0  0
  5  7  1  0  0  0  0
  5 21  1  0  0  0  0
  6 22  1  0  0  0  0
  6 23  1  0  0  0  0
  6 24  1  0  0  0  0
  7  8  1  0  0  0  0
  7 25  1  0  0  0  0
  8  9  2  0  0  0  0
  8 10  1  0  0  0  0
 10 11  1  0  0  0  0
 10 12  1  0  0  0  0
 10 26  1  0  0  0  0
 11 27  1  0  0  0  0
 11 28  1  0  0  0  0
 11 29  1  0  0  0  0
 12 16  1  0  0  0  0
 12 13  1  0  0  0  0
 13 14  2  0  0  0  0
 13 30  1  0  0  0  0
 14 15  1  0  0  0  0
 15 16  2  0  0  0  0
 15 31  1  0  0  0  0
M  END
> <s_m_source_file>
AV-unprocessed.smi

> <i_m_source_file_index>
970

> <i_lp_mmshare_version>
43012

> <i_f3d_flags>
0

> <s_epik_input>
W0NIM11bTkhdQyg9TylbQ0BIXShbQ0gzXSlbTkhdQyg9TylbQ0BIXShbQ0gzXSluMVtjSF1uW2NIXW4x

> <s_epik_cmdline>
J2VwaWtfcHl0aG9uJywgJy1waCcsICc3LjAnLCAnLXRuJywgJzgnLCAnLW1hJywgJzIwMCcsICctbWV0YWxfYmluZGluZycsICctaW1hZScsICc8aW5maWxlLm1hZT4nLCAnLW9tYWUnLCAnPG91dGZpbGUubWFlPic=

> <r_lp_tautomer_probability>
1

> <r_epik_Ionization_Penalty>
1.07271e-05

> <r_epik_Ionization_Penalty_Charging>
0

> <r_epik_Ionization_Penalty_Neutral>
1.07271e-05

> <r_epik_State_Penalty>
-0

> <r_epik_Charging_Adjusted_Penalty>
0

> <i_epik_Tot_Q>
0

> <i_epik_Tot_abs_Q>
0

> <r_epik_Metal_State_Penalty>
-0

> <b_epik_Metal_Only>
0

> <s_lp_Force_Field>
OPLS_2005

> <r_lp_Energy>
8.21169

> <b_lp_Chiralities_Consistent>
1

> <s_lp_Variant>
AV-unprocessed.smi:970-3

> <Gold.Version>
5.8.1

> <Gold.Id.Protein>
6NUR|6NUR_protein|mol2

> <Gold.PLP.Fitness>
33.1448

> <Gold.PLP.PLP>
-26.6509

> <Gold.PLP.part.hbond>
-2.0376

> <Gold.PLP.part.metal>
0.0000

> <Gold.PLP.part.buried>
-2.5114

> <Gold.PLP.part.nonpolar>
-22.1665

> <Gold.PLP.part.repulsive>
0.5611

> <Gold.PLP.ligand.clash>
0.0000

> <Gold.PLP.ligand.torsion>
0.2070

> <Gold.PLP.Chemscore.Hbond>
1.2636

> <Gold.PLP.Chemscore.CHOScore>
1.0000

> <Gold.PLP.Chemscore.Metal>
0.0000

> <Gold.Chemscore.Hbonds>
donor molecule, donor type, donor heavy atom, donor atom, acceptor molecule, acceptor atom, score
      L1  H     2    20       P1  7957  0.26
      P1  H  7989  7998       L1    16  1.00
      L1  C    15    31       P1  7949  0.95

> <Gold.PLP.Chemscore.Internal.Correction>
0.1169

> <Gold.Rescore>
     Score         DG    S(hbond)    S(metal)    S(lipo)     H(rot)  DE(clash)    DE(int)     intcor
      5.57      -7.74       1.44        0.00      34.75       2.59       0.47       1.70       ----

> <Gold.Chemscore.Fitness>
5.5711

> <Gold.Chemscore.DG>
-7.7428

> <Gold.Chemscore.ZeroCoef>
-5.4800

> <Gold.Chemscore.Hbond>
1.4418

> <Gold.Chemscore.Metal>
0.0000

> <Gold.Chemscore.Lipo>
34.7466

> <Gold.Chemscore.Internal_Hbond>
0.0000

> <Gold.Chemscore.DEClash>
0.4705

> <Gold.Chemscore.DEInternal>
1.7012

> <Gold.Chemscore.Rot>
2.5852

> <Gold.Chemscore.Internal.Correction>
   9.000000E+99

> <Gold.Chemscore.Hbonds>
donor molecule, donor type, donor heavy atom, donor atom, acceptor molecule, acceptor atom, score
      L1  H     2    20       P1  7957  0.26
      P1  H  7989  7998       L1    16  0.25

> <Gold.Chemscore.Hbond.Weighted>
-4.8156

> <Gold.Chemscore.Metal.Weighted>
-0.0000

> <Gold.Chemscore.Lipo.Weighted>
-4.0653

> <Gold.Chemscore.Internal_Hbond.Weighted>
0.0000

> <Gold.Chemscore.DEClash.Weighted>
0.4705

> <Gold.Chemscore.DEInternal.Weighted>
1.7012

> <Gold.Chemscore.Rot.Weighted>
6.6182

> <Gold.Chemscore.Internal.Correction.Weighted>
   9.000000E+99

> <Gold.Protein.RotatedTorsions>
[ 6907 6896 6895 6894 ] final -149.60 input  -60.11 | X-H torsion
[ 7974 7965 7964 7962 ] final  -85.73 input  175.53 | X-H torsion
[ 8008 7997 7996 7995 ] final   52.76 input   59.86 | X-H torsion
[ 10167 10162 10161 10158 ] final  -23.30 input  -65.29 | X-H torsion
[ 10718 10713 10712 10709 ] final  -95.82 input   66.30 | X-H torsion
[ 10763 10752 10751 10750 ] final -165.04 input  -60.55 | X-H torsion
[ 11005 11000 10999 10996 ] final   46.53 input  -57.11 | X-H torsion

> <Gold.Protein.ActiveResidues>
 VAL166  LYS551  ARG553  GLY616  TRP617  ASP618  TYR619  PRO620  LYS621  CYS622 
 ASP623  PHE694  ASN695  SER759  ASP760  ASP761  ALA762  ILE779  LEU786  VAL792 
 PHE793  MET794  SER795  GLU796  ALA797  LYS798  CYS799  TRP800  GLU811  SER814 

> <Gold.Protein.RotatedAtoms>
  151.1864  133.4693  159.2594 H   0  0  0  0  0  0  0  0  0  0  0  0  # atno 6907 bound_to 6896
  151.1207  135.0077  159.8547 H   0  0  0  0  0  0  0  0  0  0  0  0  # atno 6908 bound_to 6896
  152.5456  134.1776  159.8675 H   0  0  0  0  0  0  0  0  0  0  0  0  # atno 6909 bound_to 6896
  145.4894  140.9553  143.1820 H   0  0  0  0  0  0  0  0  0  0  0  0  # atno 7974 bound_to 7965
  155.4571  140.3460  155.4308 H   0  0  0  0  0  0  0  0  0  0  0  0  # atno 8008 bound_to 7997
  156.1184  140.1480  156.9269 H   0  0  0  0  0  0  0  0  0  0  0  0  # atno 8009 bound_to 7997
  154.4806  140.0871  156.7346 H   0  0  0  0  0  0  0  0  0  0  0  0  # atno 8010 bound_to 7997
  140.7288  143.4456  151.0592 H   0  0  0  0  0  0  0  0  0  0  0  0  # atno 10167 bound_to 10162
  156.0050  130.5125  150.6133 H   0  0  0  0  0  0  0  0  0  0  0  0  # atno 10718 bound_to 10713
  154.6970  135.2981  154.9397 H   0  0  0  0  0  0  0  0  0  0  0  0  # atno 10763 bound_to 10752
  154.0341  135.6666  153.4787 H   0  0  0  0  0  0  0  0  0  0  0  0  # atno 10764 bound_to 10752
  153.0653  135.5092  154.8093 H   0  0  0  0  0  0  0  0  0  0  0  0  # atno 10765 bound_to 10752
  140.1360  134.4644  155.8485 H   0  0  0  0  0  0  0  0  0  0  0  0  # atno 11005 bound_to 11000
  144.7843  139.6460  143.7141 LP  0  0  0  0  0  0  0  0  0  0  0  0  # atno 17320 bound_to 7965
  146.2293  139.5783  142.9566 LP  0  0  0  0  0  0  0  0  0  0  0  0  # atno 17321 bound_to 7965
  139.8127  143.7928  152.3172 LP  0  0  0  0  0  0  0  0  0  0  0  0  # atno 17342 bound_to 10162
  139.7983  144.7384  150.9859 LP  0  0  0  0  0  0  0  0  0  0  0  0  # atno 17343 bound_to 10162
  157.3962  131.0803  151.1350 LP  0  0  0  0  0  0  0  0  0  0  0  0  # atno 17370 bound_to 10713
  157.2026  130.6401  149.5744 LP  0  0  0  0  0  0  0  0  0  0  0  0  # atno 17371 bound_to 10713
  141.2178  133.6814  156.7159 LP  0  0  0  0  0  0  0  0  0  0  0  0  # atno 17394 bound_to 11000
  140.2781  134.8338  157.3909 LP  0  0  0  0  0  0  0  0  0  0  0  0  # atno 17395 bound_to 11000

$$$$
