AV-unprocessed.smi:79|AV-procd|sdf|777|dock3
  -GOLD-   2262017133D 1   1.00000     0.00000
 Structure written by MMmdl.
 56 59  0  0  0  0  0  0  0  0  2 V2000
  145.4080  132.1448  149.4112 C   0  0  0  0  0  0  0  0  0  0  0  0
  144.4127  133.1989  149.9187 C   0  0  2  0  0  0  0  0  0  0  0  0
  143.7648  133.7623  148.7976 O   0  0  0  0  0  0  0  0  0  0  0  0
  145.0899  134.3366  150.7097 C   0  0  0  0  0  0  0  0  0  0  0  0
  144.1510  135.0584  151.6063 N   0  3  2  0  0  0  0  0  0  0  0  0
  144.4450  136.5113  151.7268 C   0  0  0  0  0  0  0  0  0  0  0  0
  143.3937  137.2210  152.5966 C   0  0  0  0  0  0  0  0  0  0  0  0
  143.2654  136.5596  153.8934 N   0  0  0  0  0  0  0  0  0  0  0  0
  144.0642  137.0514  154.8771 C   0  0  0  0  0  0  0  0  0  0  0  0
  143.5168  137.5132  156.0331 N   0  0  0  0  0  0  0  0  0  0  0  0
  144.2968  137.9866  157.0094 C   0  0  0  0  0  0  0  0  0  0  0  0
  145.6265  138.0898  157.0380 N   0  0  0  0  0  0  0  0  0  0  0  0
  146.1832  137.6347  155.8794 C   0  0  0  0  0  0  0  0  0  0  0  0
  145.4822  137.1032  154.7603 C   0  0  0  0  0  0  0  0  0  0  0  0
  146.3836  136.7506  153.7630 N   0  0  0  0  0  0  0  0  0  0  0  0
  147.5501  137.0487  154.2663 C   0  0  0  0  0  0  0  0  0  0  0  0
  147.5223  137.5944  155.5300 N   0  0  0  0  0  0  0  0  0  0  0  0
  148.6663  138.0215  156.3213 C   0  0  0  0  0  0  0  0  0  0  0  0
  149.9608  138.1826  155.5031 C   0  0  0  0  0  0  0  0  0  0  0  0
  150.4387  136.7854  155.0581 C   0  0  0  0  0  0  0  0  0  0  0  0
  151.4601  136.8483  154.0827 O   0  0  0  0  0  0  0  0  0  0  0  0
  149.9113  139.2628  154.4128 C   0  0  0  0  0  0  0  0  0  0  0  0
  151.1207  139.8871  154.8980 O   0  0  0  0  0  0  0  0  0  0  0  0
  151.0346  139.1000  156.1061 C   0  0  0  0  0  0  0  0  0  0  0  0
  142.9979  135.1183  153.8398 C   0  0  1  0  0  0  0  0  0  0  0  0
  141.5528  134.8331  153.3949 C   0  0  0  0  0  0  0  0  0  0  0  0
  144.0285  134.4032  152.9356 C   0  0  0  0  0  0  0  0  0  0  0  0
  145.9165  131.6488  150.2382 H   0  0  0  0  0  0  0  0  0  0  0  0
  146.1700  132.5910  148.7713 H   0  0  0  0  0  0  0  0  0  0  0  0
  144.8994  131.3727  148.8329 H   0  0  0  0  0  0  0  0  0  0  0  0
  143.6440  132.7134  150.5190 H   0  0  0  0  0  0  0  0  0  0  0  0
  144.3737  134.3253  148.3438 H   0  0  0  0  0  0  0  0  0  0  0  0
  145.8981  133.9065  151.3037 H   0  0  0  0  0  0  0  0  0  0  0  0
  145.5583  135.0514  150.0310 H   0  0  0  0  0  0  0  0  0  0  0  0
  145.4372  136.6452  152.1611 H   0  0  0  0  0  0  0  0  0  0  0  0
  144.4635  136.9826  150.7453 H   0  0  0  0  0  0  0  0  0  0  0  0
  143.6624  138.2715  152.7023 H   0  0  0  0  0  0  0  0  0  0  0  0
  142.4249  137.2088  152.0970 H   0  0  0  0  0  0  0  0  0  0  0  0
  143.7822  138.3309  157.8945 H   0  0  0  0  0  0  0  0  0  0  0  0
  148.4677  136.8792  153.7226 H   0  0  0  0  0  0  0  0  0  0  0  0
  148.4121  138.9565  156.8224 H   0  0  0  0  0  0  0  0  0  0  0  0
  148.8058  137.2902  157.1185 H   0  0  0  0  0  0  0  0  0  0  0  0
  150.8331  136.2174  155.9007 H   0  0  0  0  0  0  0  0  0  0  0  0
  149.6125  136.2061  154.6447 H   0  0  0  0  0  0  0  0  0  0  0  0
  151.1119  136.5367  153.2614 H   0  0  0  0  0  0  0  0  0  0  0  0
  150.0111  138.8834  153.3952 H   0  0  0  0  0  0  0  0  0  0  0  0
  149.0535  139.9329  154.4905 H   0  0  0  0  0  0  0  0  0  0  0  0
  150.6879  139.7004  156.9480 H   0  0  0  0  0  0  0  0  0  0  0  0
  151.9702  138.5951  156.3488 H   0  0  0  0  0  0  0  0  0  0  0  0
  143.0851  134.7039  154.8453 H   0  0  0  0  0  0  0  0  0  0  0  0
  141.3352  133.7658  153.4396 H   0  0  0  0  0  0  0  0  0  0  0  0
  141.3631  135.1630  152.3735 H   0  0  0  0  0  0  0  0  0  0  0  0
  140.8386  135.3386  154.0458 H   0  0  0  0  0  0  0  0  0  0  0  0
  143.7455  133.3570  152.8126 H   0  0  0  0  0  0  0  0  0  0  0  0
  145.0084  134.4029  153.4148 H   0  0  0  0  0  0  0  0  0  0  0  0
  143.2387  134.9824  151.1798 H   0  0  0  0  0  0  0  0  0  0  0  0
  1  2  1  0  0  0  0
  1 28  1  0  0  0  0
  1 29  1  0  0  0  0
  1 30  1  0  0  0  0
  2  3  1  0  0  0  0
  2  4  1  0  0  0  0
  2 31  1  0  0  0  0
  3 32  1  0  0  0  0
  4  5  1  0  0  0  0
  4 33  1  0  0  0  0
  4 34  1  0  0  0  0
  5 27  1  0  0  0  0
  5  6  1  0  0  0  0
  5 56  1  0  0  0  0
  6  7  1  0  0  0  0
  6 35  1  0  0  0  0
  6 36  1  0  0  0  0
  7  8  1  0  0  0  0
  7 37  1  0  0  0  0
  7 38  1  0  0  0  0
  8  9  1  0  0  0  0
  8 25  1  0  0  0  0
  9 14  1  0  0  0  0
  9 10  2  0  0  0  0
 10 11  1  0  0  0  0
 11 12  2  0  0  0  0
 11 39  1  0  0  0  0
 12 13  1  0  0  0  0
 13 17  1  0  0  0  0
 13 14  2  0  0  0  0
 14 15  1  0  0  0  0
 15 16  2  0  0  0  0
 16 17  1  0  0  0  0
 16 40  1  0  0  0  0
 17 18  1  0  0  0  0
 18 19  1  0  0  0  0
 18 41  1  0  0  0  0
 18 42  1  0  0  0  0
 19 24  1  0  0  0  0
 19 20  1  0  0  0  0
 19 22  1  0  0  0  0
 20 21  1  0  0  0  0
 20 43  1  0  0  0  0
 20 44  1  0  0  0  0
 21 45  1  0  0  0  0
 22 23  1  0  0  0  0
 22 46  1  0  0  0  0
 22 47  1  0  0  0  0
 23 24  1  0  0  0  0
 24 48  1  0  0  0  0
 24 49  1  0  0  0  0
 25 26  1  0  0  0  0
 25 27  1  0  0  0  0
 25 50  1  0  0  0  0
 26 51  1  0  0  0  0
 26 52  1  0  0  0  0
 26 53  1  0  0  0  0
 27 54  1  0  0  0  0
 27 55  1  0  0  0  0
M  CHG  1   5   1
M  END
> <s_m_source_file>
AV-unprocessed.smi

> <i_m_source_file_index>
79

> <i_lp_mmshare_version>
43012

> <i_f3d_flags>
0

> <s_epik_input>
W0NIM11bQ0BIXShbT0hdKVtDSDJdTjFbQ0gyXVtDSDJdTihbQ0BASF0oW0NIM10pW0NIMl0xKWMobltjSF1uMiljKGMyMyluW2NIXW4zW0NIMl1DNChbQ0gyXVtPSF0pW0NIMl1PW0NIMl00

> <s_epik_cmdline>
J2VwaWtfcHl0aG9uJywgJy1waCcsICc3LjAnLCAnLXRuJywgJzgnLCAnLW1hJywgJzIwMCcsICctbWV0YWxfYmluZGluZycsICctaW1hZScsICc8aW5maWxlLm1hZT4nLCAnLW9tYWUnLCAnPG91dGZpbGUubWFlPic=

> <r_lp_tautomer_probability>
1

> <r_epik_Ionization_Penalty>
0.00515943

> <r_epik_Ionization_Penalty_Charging>
0.00509693

> <r_epik_Ionization_Penalty_Neutral>
6.25007e-05

> <r_epik_State_Penalty>
-0

> <r_epik_Charging_Adjusted_Penalty>
0.00509693

> <i_epik_Tot_Q>
1

> <i_epik_Tot_abs_Q>
1

> <r_epik_Metal_State_Penalty>
-0

> <b_epik_Metal_Only>
0

> <s_lp_Force_Field>
OPLS_2005

> <r_lp_Energy>
51.7042

> <b_lp_Chiralities_Consistent>
1

> <s_lp_Variant>
AV-unprocessed.smi:79-1

> <Gold.Version>
5.8.1

> <Gold.Id.Protein>
6NUR|6NUR_protein|mol2

> <Gold.PLP.Fitness>
44.6208

> <Gold.PLP.PLP>
-31.5535

> <Gold.PLP.part.hbond>
-5.0000

> <Gold.PLP.part.metal>
0.0000

> <Gold.PLP.part.buried>
-2.4185

> <Gold.PLP.part.nonpolar>
-24.1049

> <Gold.PLP.part.repulsive>
0.2398

> <Gold.PLP.ligand.clash>
0.0000

> <Gold.PLP.ligand.torsion>
1.4676

> <Gold.PLP.Chemscore.Hbond>
4.0000

> <Gold.PLP.Chemscore.CHOScore>
1.0000

> <Gold.PLP.Chemscore.Metal>
0.0000

> <Gold.Chemscore.Hbonds>
donor molecule, donor type, donor heavy atom, donor atom, acceptor molecule, acceptor atom, score
      L1  H     3    32       P1  7921  1.00
      L1  H    21    45       P1  7949  1.00
      P1  H  7989  7998       L1    23  1.00
      P1  H 10752 10765       L1    21  1.00
      L1  C    16    40       P1  7948  0.98

> <Gold.PLP.Chemscore.Internal.Correction>
1.0024

> <Gold.Rescore>
     Score         DG    S(hbond)    S(metal)    S(lipo)     H(rot)  DE(clash)    DE(int)     intcor
      8.62     -13.38       2.60        0.00      74.68       3.72       1.12       3.64       ----

> <Gold.Chemscore.Fitness>
8.6171

> <Gold.Chemscore.DG>
-13.3837

> <Gold.Chemscore.ZeroCoef>
-5.4800

> <Gold.Chemscore.Hbond>
2.6035

> <Gold.Chemscore.Metal>
0.0000

> <Gold.Chemscore.Lipo>
74.6806

> <Gold.Chemscore.Internal_Hbond>
0.0000

> <Gold.Chemscore.DEClash>
1.1217

> <Gold.Chemscore.DEInternal>
3.6449

> <Gold.Chemscore.Rot>
3.7226

> <Gold.Chemscore.Internal.Correction>
   9.000000E+99

> <Gold.Chemscore.Hbonds>
donor molecule, donor type, donor heavy atom, donor atom, acceptor molecule, acceptor atom, score
      L1  H     3    32       P1  7921  0.97
      L1  H    21    45       P1  7949  0.39
      P1  H  7989  7998       L1    23  0.40
      P1  H 10752 10765       L1    21  0.37

> <Gold.Chemscore.Hbond.Weighted>
-8.6959

> <Gold.Chemscore.Metal.Weighted>
-0.0000

> <Gold.Chemscore.Lipo.Weighted>
-8.7376

> <Gold.Chemscore.Internal_Hbond.Weighted>
0.0000

> <Gold.Chemscore.DEClash.Weighted>
1.1217

> <Gold.Chemscore.DEInternal.Weighted>
3.6449

> <Gold.Chemscore.Rot.Weighted>
9.5298

> <Gold.Chemscore.Internal.Correction.Weighted>
   9.000000E+99

> <Gold.Protein.RotatedTorsions>
[ 6907 6896 6895 6894 ] final -111.61 input  -60.11 | X-H torsion
[ 7974 7965 7964 7962 ] final  -93.81 input  175.53 | X-H torsion
[ 8008 7997 7996 7995 ] final   68.39 input   59.86 | X-H torsion
[ 10167 10162 10161 10158 ] final -174.10 input  -65.29 | X-H torsion
[ 10718 10713 10712 10709 ] final   10.51 input   66.30 | X-H torsion
[ 10763 10752 10751 10750 ] final  177.36 input  -60.55 | X-H torsion
[ 11005 11000 10999 10996 ] final  -63.68 input  -57.11 | X-H torsion

> <Gold.Protein.ActiveResidues>
 VAL166  LYS551  ARG553  GLY616  TRP617  ASP618  TYR619  PRO620  LYS621  CYS622 
 ASP623  PHE694  ASN695  SER759  ASP760  ASP761  ALA762  ILE779  LEU786  VAL792 
 PHE793  MET794  SER795  GLU796  ALA797  LYS798  CYS799  TRP800  GLU811  SER814 

> <Gold.Protein.RotatedAtoms>
  150.7702  133.9211  159.3397 H   0  0  0  0  0  0  0  0  0  0  0  0  # atno 6907 bound_to 6896
  151.7099  135.0913  160.0275 H   0  0  0  0  0  0  0  0  0  0  0  0  # atno 6908 bound_to 6896
  152.3716  133.6388  159.6127 H   0  0  0  0  0  0  0  0  0  0  0  0  # atno 6909 bound_to 6896
  145.3816  140.9518  143.2390 H   0  0  0  0  0  0  0  0  0  0  0  0  # atno 7974 bound_to 7965
  155.7075  140.3494  155.4959 H   0  0  0  0  0  0  0  0  0  0  0  0  # atno 8008 bound_to 7997
  155.9385  140.1097  157.1097 H   0  0  0  0  0  0  0  0  0  0  0  0  # atno 8009 bound_to 7997
  154.4098  140.1217  156.4882 H   0  0  0  0  0  0  0  0  0  0  0  0  # atno 8010 bound_to 7997
  139.5652  144.1773  152.1301 H   0  0  0  0  0  0  0  0  0  0  0  0  # atno 10167 bound_to 10162
  156.9821  130.6009  149.5677 H   0  0  0  0  0  0  0  0  0  0  0  0  # atno 10718 bound_to 10713
  154.4934  135.2780  155.1479 H   0  0  0  0  0  0  0  0  0  0  0  0  # atno 10763 bound_to 10752
  154.3141  135.6223  153.5482 H   0  0  0  0  0  0  0  0  0  0  0  0  # atno 10764 bound_to 10752
  152.9891  135.5727  154.5360 H   0  0  0  0  0  0  0  0  0  0  0  0  # atno 10765 bound_to 10752
  141.1401  133.6655  156.5717 H   0  0  0  0  0  0  0  0  0  0  0  0  # atno 11005 bound_to 11000
  144.8504  139.5331  143.6859 LP  0  0  0  0  0  0  0  0  0  0  0  0  # atno 17320 bound_to 7965
  146.2839  139.6952  142.9209 LP  0  0  0  0  0  0  0  0  0  0  0  0  # atno 17321 bound_to 7965
  140.1294  144.5302  150.6812 LP  0  0  0  0  0  0  0  0  0  0  0  0  # atno 17342 bound_to 10162
  140.6935  143.2390  151.5065 LP  0  0  0  0  0  0  0  0  0  0  0  0  # atno 17343 bound_to 10162
  156.0240  130.5335  150.8356 LP  0  0  0  0  0  0  0  0  0  0  0  0  # atno 17370 bound_to 10713
  157.5519  131.0944  150.9683 LP  0  0  0  0  0  0  0  0  0  0  0  0  # atno 17371 bound_to 10713
  140.3907  134.7442  157.4720 LP  0  0  0  0  0  0  0  0  0  0  0  0  # atno 17394 bound_to 11000
  140.0568  134.6052  155.8796 LP  0  0  0  0  0  0  0  0  0  0  0  0  # atno 17395 bound_to 11000

$$$$
