AV-unprocessed.smi:72|AV-procd|sdf|714|dock2
  -GOLD-   2262017 33D 1   1.00000     0.00000
 Structure written by MMmdl.
 28 29  0  0  0  0  0  0  0  0  2 V2000
  153.5148  137.4217  155.7031 N   0  0  0  0  0  0  0  0  0  0  0  0
  152.6490  138.3311  155.5910 C   0  0  0  0  0  0  0  0  0  0  0  0
  151.7304  138.3259  154.4734 N   0  0  0  0  0  0  0  0  0  0  0  0
  150.8642  139.2890  154.3990 C   0  0  0  0  0  0  0  0  0  0  0  0
  150.8054  140.3496  155.3955 N   0  0  0  0  0  0  0  0  0  0  0  0
  149.7801  141.4629  155.2903 C   0  0  1  0  0  0  0  0  0  0  0  0
  149.2119  141.4383  154.0137 O   0  0  0  0  0  0  0  0  0  0  0  0
  147.8101  141.6684  154.1071 C   0  0  1  0  0  0  0  0  0  0  0  0
  147.0746  141.1337  152.8654 C   0  0  0  0  0  0  0  0  0  0  0  0
  147.4340  139.7892  152.6273 O   0  0  0  0  0  0  0  0  0  0  0  0
  147.4301  141.0052  155.4384 C   0  0  1  0  0  0  0  0  0  0  0  0
  147.2381  139.6092  155.2761 O   0  0  0  0  0  0  0  0  0  0  0  0
  148.6336  141.3319  156.3164 C   0  0  1  0  0  0  0  0  0  0  0  0
  148.8357  140.3932  157.3594 O   0  0  0  0  0  0  0  0  0  0  0  0
  151.7074  140.3194  156.4926 C   0  0  0  0  0  0  0  0  0  0  0  0
  151.6219  141.2056  157.3429 O   0  0  0  0  0  0  0  0  0  0  0  0
  152.6177  139.3076  156.5620 N   0  5  0  0  0  0  0  0  0  0  0  0
  150.3276  142.4011  155.3895 H   0  0  0  0  0  0  0  0  0  0  0  0
  147.6456  142.7433  154.2070 H   0  0  0  0  0  0  0  0  0  0  0  0
  146.5108  141.4250  155.8480 H   0  0  0  0  0  0  0  0  0  0  0  0
  148.4888  142.3165  156.7628 H   0  0  0  0  0  0  0  0  0  0  0  0
  154.0905  137.5397  156.5243 H   0  0  0  0  0  0  0  0  0  0  0  0
  150.1304  139.3635  153.5958 H   0  0  0  0  0  0  0  0  0  0  0  0
  145.9932  141.2233  152.9749 H   0  0  0  0  0  0  0  0  0  0  0  0
  147.3616  141.7070  151.9834 H   0  0  0  0  0  0  0  0  0  0  0  0
  148.2808  139.7745  152.2083 H   0  0  0  0  0  0  0  0  0  0  0  0
  146.3086  139.4389  155.2530 H   0  0  0  0  0  0  0  0  0  0  0  0
  147.9984  140.2054  157.7559 H   0  0  0  0  0  0  0  0  0  0  0  0
  1  2  2  0  0  0  0
  1 22  1  0  0  0  0
  2 17  1  0  0  0  0
  2  3  1  0  0  0  0
  3  4  2  0  0  0  0
  4  5  1  0  0  0  0
  4 23  1  0  0  0  0
  5  6  1  0  0  0  0
  5 15  1  0  0  0  0
  6 18  1  0  0  0  0
  6 13  1  0  0  0  0
  6  7  1  0  0  0  0
  7  8  1  0  0  0  0
  8 19  1  0  0  0  0
  8  9  1  0  0  0  0
  8 11  1  0  0  0  0
  9 10  1  0  0  0  0
  9 24  1  0  0  0  0
  9 25  1  0  0  0  0
 10 26  1  0  0  0  0
 11 20  1  0  0  0  0
 11 12  1  0  0  0  0
 11 13  1  0  0  0  0
 12 27  1  0  0  0  0
 13 21  1  0  0  0  0
 13 14  1  0  0  0  0
 14 28  1  0  0  0  0
 15 16  2  0  0  0  0
 15 17  1  0  0  0  0
M  CHG  1  17  -1
M  END
> <s_m_source_file>
AV-unprocessed.smi

> <i_m_source_file_index>
72

> <i_lp_mmshare_version>
43012

> <i_f3d_flags>
0

> <s_epik_input>
W05IMl1jMW5bY0hdbihjKD1PKW4xKVtDQEBIXTJPW0NASF0oW0NIMl1bT0hdKVtDQEBIXShbT0hdKVtDQEhdMltPSF0=

> <s_epik_cmdline>
J2VwaWtfcHl0aG9uJywgJy1waCcsICc3LjAnLCAnLXRuJywgJzgnLCAnLW1hJywgJzIwMCcsICctbWV0YWxfYmluZGluZycsICctaW1hZScsICc8aW5maWxlLm1hZT4nLCAnLW9tYWUnLCAnPG91dGZpbGUubWFlPic=

> <r_lp_tautomer_probability>
7.17554e-07

> <r_epik_Ionization_Penalty>
12.8705

> <r_epik_Ionization_Penalty_Charging>
5.64144

> <r_epik_Ionization_Penalty_Neutral>
7.22905

> <r_epik_State_Penalty>
3.30104

> <r_epik_Charging_Adjusted_Penalty>
8.94249

> <i_epik_Tot_Q>
-1

> <i_epik_Tot_abs_Q>
1

> <r_epik_Metal_State_Penalty>
0.529074

> <b_epik_Metal_Only>
1

> <s_epik_Chemistry_Notes>
This compound contains an acetal/aminal-like group ( X-CH(R)-Y where X, Y are N, S, or O) that may be acid/base labile, releasing an aldehyde.

> <s_lp_Force_Field>
OPLS_2005

> <r_lp_Energy>
43.693

> <b_lp_Chiralities_Consistent>
1

> <s_lp_Variant>
AV-unprocessed.smi:72-52

> <Gold.Version>
5.8.1

> <Gold.Id.Protein>
6NUR|6NUR_protein|mol2

> <Gold.PLP.Fitness>
39.5115

> <Gold.PLP.PLP>
-25.4932

> <Gold.PLP.part.hbond>
-4.9656

> <Gold.PLP.part.metal>
0.0000

> <Gold.PLP.part.buried>
-2.1323

> <Gold.PLP.part.nonpolar>
-17.6538

> <Gold.PLP.part.repulsive>
0.3280

> <Gold.PLP.ligand.clash>
0.0000

> <Gold.PLP.ligand.torsion>
0.3195

> <Gold.PLP.Chemscore.Hbond>
3.9920

> <Gold.PLP.Chemscore.CHOScore>
0.8925

> <Gold.PLP.Chemscore.Metal>
0.0000

> <Gold.Chemscore.Hbonds>
donor molecule, donor type, donor heavy atom, donor atom, acceptor molecule, acceptor atom, score
      L1  H    10    26       P1  7957  1.00
      P1  H  7997  8008       L1    17  2.00
      P1  H  8011  8017       L1     7  0.72
      P1  H 10752 10765       L1     1  0.27
      L1  C     4    23       P1  7957  0.89

> <Gold.PLP.Chemscore.Internal.Correction>
0.0039

> <Gold.Rescore>
     Score         DG    S(hbond)    S(metal)    S(lipo)     H(rot)  DE(clash)    DE(int)     intcor
      1.86      -5.14       2.22        0.00      22.08       4.04       0.45       2.83       ----

> <Gold.Chemscore.Fitness>
1.8594

> <Gold.Chemscore.DG>
-5.1401

> <Gold.Chemscore.ZeroCoef>
-5.4800

> <Gold.Chemscore.Hbond>
2.2213

> <Gold.Chemscore.Metal>
0.0000

> <Gold.Chemscore.Lipo>
22.0846

> <Gold.Chemscore.Internal_Hbond>
0.0000

> <Gold.Chemscore.DEClash>
0.4480

> <Gold.Chemscore.DEInternal>
2.8326

> <Gold.Chemscore.Rot>
4.0403

> <Gold.Chemscore.Internal.Correction>
   9.000000E+99

> <Gold.Chemscore.Hbonds>
donor molecule, donor type, donor heavy atom, donor atom, acceptor molecule, acceptor atom, score
      L1  H    10    26       P1  7957  1.00
      P1  H  7997  8008       L1    17  0.33
      P1  H  8011  8017       L1     7  0.34
      P1  H 10752 10765       L1     1  0.20

> <Gold.Chemscore.Hbond.Weighted>
-7.4193

> <Gold.Chemscore.Metal.Weighted>
-0.0000

> <Gold.Chemscore.Lipo.Weighted>
-2.5839

> <Gold.Chemscore.Internal_Hbond.Weighted>
0.0000

> <Gold.Chemscore.DEClash.Weighted>
0.4480

> <Gold.Chemscore.DEInternal.Weighted>
2.8326

> <Gold.Chemscore.Rot.Weighted>
10.3431

> <Gold.Chemscore.Internal.Correction.Weighted>
   9.000000E+99

> <Gold.Protein.RotatedTorsions>
[ 6907 6896 6895 6894 ] final -139.08 input  -60.11 | X-H torsion
[ 7974 7965 7964 7962 ] final    6.70 input  175.53 | X-H torsion
[ 8008 7997 7996 7995 ] final  -54.44 input   59.86 | X-H torsion
[ 10167 10162 10161 10158 ] final  153.85 input  -65.29 | X-H torsion
[ 10718 10713 10712 10709 ] final   75.00 input   66.30 | X-H torsion
[ 10763 10752 10751 10750 ] final -132.64 input  -60.55 | X-H torsion
[ 11005 11000 10999 10996 ] final   54.07 input  -57.11 | X-H torsion

> <Gold.Protein.ActiveResidues>
 VAL166  LYS551  ARG553  GLY616  TRP617  ASP618  TYR619  PRO620  LYS621  CYS622 
 ASP623  PHE694  ASN695  SER759  ASP760  ASP761  ALA762  ILE779  LEU786  VAL792 
 PHE793  MET794  SER795  GLU796  ALA797  LYS798  CYS799  TRP800  GLU811  SER814 

> <Gold.Protein.RotatedAtoms>
  151.0432  133.5688  159.2648 H   0  0  0  0  0  0  0  0  0  0  0  0  # atno 6907 bound_to 6896
  151.2727  135.0689  159.9150 H   0  0  0  0  0  0  0  0  0  0  0  0  # atno 6908 bound_to 6896
  152.5368  134.0159  159.8013 H   0  0  0  0  0  0  0  0  0  0  0  0  # atno 6909 bound_to 6896
  146.2433  140.0194  142.8399 H   0  0  0  0  0  0  0  0  0  0  0  0  # atno 7974 bound_to 7965
  154.4163  140.1176  156.5316 H   0  0  0  0  0  0  0  0  0  0  0  0  # atno 8008 bound_to 7997
  155.6600  140.3496  155.4760 H   0  0  0  0  0  0  0  0  0  0  0  0  # atno 8009 bound_to 7997
  155.9721  140.1143  157.0792 H   0  0  0  0  0  0  0  0  0  0  0  0  # atno 8010 bound_to 7997
  139.4825  144.5238  151.7834 H   0  0  0  0  0  0  0  0  0  0  0  0  # atno 10167 bound_to 10162
  157.6616  130.9705  150.1290 H   0  0  0  0  0  0  0  0  0  0  0  0  # atno 10718 bound_to 10713
  154.8741  135.3791  154.4442 H   0  0  0  0  0  0  0  0  0  0  0  0  # atno 10763 bound_to 10752
  153.5124  135.7029  153.5779 H   0  0  0  0  0  0  0  0  0  0  0  0  # atno 10764 bound_to 10752
  153.4062  135.3936  155.1986 H   0  0  0  0  0  0  0  0  0  0  0  0  # atno 10765 bound_to 10752
  140.0716  134.5462  155.9041 H   0  0  0  0  0  0  0  0  0  0  0  0  # atno 11005 bound_to 11000
  145.1255  140.9487  143.4575 LP  0  0  0  0  0  0  0  0  0  0  0  0  # atno 17320 bound_to 7965
  145.0439  139.3237  143.5963 LP  0  0  0  0  0  0  0  0  0  0  0  0  # atno 17321 bound_to 7965
  140.4755  144.1525  150.5924 LP  0  0  0  0  0  0  0  0  0  0  0  0  # atno 17342 bound_to 10162
  140.4335  143.2557  151.9565 LP  0  0  0  0  0  0  0  0  0  0  0  0  # atno 17343 bound_to 10162
  156.2142  130.3669  149.8634 LP  0  0  0  0  0  0  0  0  0  0  0  0  # atno 17370 bound_to 10713
  156.6504  130.8741  151.3530 LP  0  0  0  0  0  0  0  0  0  0  0  0  # atno 17371 bound_to 10713
  141.2014  133.6618  156.5947 LP  0  0  0  0  0  0  0  0  0  0  0  0  # atno 17394 bound_to 11000
  140.3619  134.7680  157.4540 LP  0  0  0  0  0  0  0  0  0  0  0  0  # atno 17395 bound_to 11000

$$$$
