AV-unprocessed.smi:3092|AV-procd|sdf|11785|dock4
  -GOLD-   2272017163D 1   1.00000     0.00000
 Structure written by MMmdl.
 26 27  0  0  0  0  0  0  0  0  3 V2000
  146.7430  133.4634  151.5007 C   0  0  0  0  0  0  0  0  0  0  0  0
  145.4862  133.2849  150.7705 N   0  0  0  0  0  0  0  0  0  0  0  0
  145.0269  132.1129  150.2260 C   0  0  0  0  0  0  0  0  0  0  0  0
  143.8237  132.3974  149.6370 C   0  0  0  0  0  0  0  0  0  0  0  0
  143.5974  133.7303  149.8465 N   0  3  0  0  0  0  0  0  0  0  0  0
  144.6065  134.2757  150.5387 C   0  0  0  0  0  0  0  0  0  0  0  0
  144.7024  135.7196  150.9485 C   0  0  1  0  0  0  0  0  0  0  0  0
  144.7627  135.9727  152.4530 C   0  0  0  0  0  0  0  0  0  0  0  0
  145.3248  137.3988  152.5476 C   0  0  0  0  0  0  0  0  0  0  0  0
  146.0298  137.6634  151.2742 N   0  3  0  0  0  0  0  0  0  0  0  0
  145.9518  136.4446  150.4488 C   0  0  0  0  0  0  0  0  0  0  0  0
  147.2771  132.5138  151.5470 H   0  0  0  0  0  0  0  0  0  0  0  0
  146.5271  133.8039  152.5139 H   0  0  0  0  0  0  0  0  0  0  0  0
  147.3612  134.1982  150.9838 H   0  0  0  0  0  0  0  0  0  0  0  0
  145.5767  131.1849  150.2948 H   0  0  0  0  0  0  0  0  0  0  0  0
  143.1302  131.7680  149.0982 H   0  0  0  0  0  0  0  0  0  0  0  0
  143.8271  136.2324  150.5494 H   0  0  0  0  0  0  0  0  0  0  0  0
  143.7962  135.8575  152.9448 H   0  0  0  0  0  0  0  0  0  0  0  0
  145.4619  135.2809  152.9251 H   0  0  0  0  0  0  0  0  0  0  0  0
  144.5195  138.1261  152.6555 H   0  0  0  0  0  0  0  0  0  0  0  0
  145.9962  137.5129  153.3992 H   0  0  0  0  0  0  0  0  0  0  0  0
  145.5537  138.4160  150.7970 H   0  0  0  0  0  0  0  0  0  0  0  0
  146.8466  135.8495  150.6380 H   0  0  0  0  0  0  0  0  0  0  0  0
  145.9153  136.6734  149.3833 H   0  0  0  0  0  0  0  0  0  0  0  0
  146.9925  137.9229  151.4382 H   0  0  0  0  0  0  0  0  0  0  0  0
  142.7819  134.2339  149.5207 H   0  0  0  0  0  0  0  0  0  0  0  0
  1  2  1  0  0  0  0
  1 12  1  0  0  0  0
  1 13  1  0  0  0  0
  1 14  1  0  0  0  0
  2  6  1  0  0  0  0
  2  3  1  0  0  0  0
  3  4  2  0  0  0  0
  3 15  1  0  0  0  0
  4  5  1  0  0  0  0
  4 16  1  0  0  0  0
  5  6  2  0  0  0  0
  5 26  1  0  0  0  0
  6  7  1  0  0  0  0
  7 11  1  0  0  0  0
  7  8  1  0  0  0  0
  7 17  1  0  0  0  0
  8  9  1  0  0  0  0
  8 18  1  0  0  0  0
  8 19  1  0  0  0  0
  9 10  1  0  0  0  0
  9 20  1  0  0  0  0
  9 21  1  0  0  0  0
 10 11  1  0  0  0  0
 10 22  1  0  0  0  0
 10 25  1  0  0  0  0
 11 23  1  0  0  0  0
 11 24  1  0  0  0  0
M  CHG  1   5   1
M  CHG  1  10   1
M  END
> <s_m_source_file>
AV-unprocessed.smi

> <i_m_source_file_index>
3092

> <i_lp_mmshare_version>
43012

> <i_f3d_flags>
0

> <s_epik_input>
W0NIM11uMVtjSF1bY0hdbmMxW0NAQEhdMltDSDJdW0NIMl1bTkhdW0NIMl0y

> <s_epik_cmdline>
J2VwaWtfcHl0aG9uJywgJy1waCcsICc3LjAnLCAnLXRuJywgJzgnLCAnLW1hJywgJzIwMCcsICctbWV0YWxfYmluZGluZycsICctaW1hZScsICc8aW5maWxlLm1hZT4nLCAnLW9tYWUnLCAnPG91dGZpbGUubWFlPic=

> <r_lp_tautomer_probability>
1

> <r_epik_Ionization_Penalty>
0.803493

> <r_epik_Ionization_Penalty_Charging>
0.000689375

> <r_epik_Ionization_Penalty_Neutral>
0.802804

> <r_epik_State_Penalty>
0.834355

> <r_epik_Charging_Adjusted_Penalty>
0.835044

> <i_epik_Tot_Q>
2

> <i_epik_Tot_abs_Q>
2

> <r_epik_Metal_State_Penalty>
4.76097

> <b_epik_Metal_Only>
0

> <s_lp_Force_Field>
OPLS_2005

> <r_lp_Energy>
35.9538

> <b_lp_Chiralities_Consistent>
1

> <s_lp_Variant>
AV-unprocessed.smi:3092-4

> <Gold.Version>
5.8.1

> <Gold.Id.Protein>
6NUR|6NUR_protein|mol2

> <Gold.PLP.Fitness>
33.1948

> <Gold.PLP.PLP>
-24.9529

> <Gold.PLP.part.hbond>
-2.1924

> <Gold.PLP.part.metal>
0.0000

> <Gold.PLP.part.buried>
-3.0052

> <Gold.PLP.part.nonpolar>
-19.4581

> <Gold.PLP.part.repulsive>
0.1224

> <Gold.PLP.ligand.clash>
0.0000

> <Gold.PLP.ligand.torsion>
0.0083

> <Gold.PLP.Chemscore.Hbond>
2.7520

> <Gold.PLP.Chemscore.CHOScore>
0.0000

> <Gold.PLP.Chemscore.Metal>
0.0000

> <Gold.Chemscore.Hbonds>
donor molecule, donor type, donor heavy atom, donor atom, acceptor molecule, acceptor atom, score
      L1  H     5    26       P1 10186  1.95
      L1  H    10    22       P1 10171  0.72

> <Gold.PLP.Chemscore.Internal.Correction>
0.0025

> <Gold.Rescore>
     Score         DG    S(hbond)    S(metal)    S(lipo)     H(rot)  DE(clash)    DE(int)     intcor
     14.82     -14.97       1.84        0.00      50.32       1.00       0.15       0.00       ----

> <Gold.Chemscore.Fitness>
14.8197

> <Gold.Chemscore.DG>
-14.9688

> <Gold.Chemscore.ZeroCoef>
-5.4800

> <Gold.Chemscore.Hbond>
1.8448

> <Gold.Chemscore.Metal>
0.0000

> <Gold.Chemscore.Lipo>
50.3188

> <Gold.Chemscore.Internal_Hbond>
0.0000

> <Gold.Chemscore.DEClash>
0.1477

> <Gold.Chemscore.DEInternal>
0.0015

> <Gold.Chemscore.Rot>
1.0000

> <Gold.Chemscore.Internal.Correction>
   9.000000E+99

> <Gold.Chemscore.Hbonds>
donor molecule, donor type, donor heavy atom, donor atom, acceptor molecule, acceptor atom, score
      L1  H     5    26       P1 10186  0.93
      L1  H    10    22       P1 10171  0.71

> <Gold.Chemscore.Hbond.Weighted>
-6.1615

> <Gold.Chemscore.Metal.Weighted>
-0.0000

> <Gold.Chemscore.Lipo.Weighted>
-5.8873

> <Gold.Chemscore.Internal_Hbond.Weighted>
0.0000

> <Gold.Chemscore.DEClash.Weighted>
0.1477

> <Gold.Chemscore.DEInternal.Weighted>
0.0015

> <Gold.Chemscore.Rot.Weighted>
2.5600

> <Gold.Chemscore.Internal.Correction.Weighted>
   9.000000E+99

> <Gold.Protein.RotatedTorsions>
[ 6907 6896 6895 6894 ] final  -15.52 input  -60.11 | X-H torsion
[ 7974 7965 7964 7962 ] final  -45.49 input  175.53 | X-H torsion
[ 8008 7997 7996 7995 ] final  112.38 input   59.86 | X-H torsion
[ 10167 10162 10161 10158 ] final  -59.46 input  -65.29 | X-H torsion
[ 10718 10713 10712 10709 ] final  130.54 input   66.30 | X-H torsion
[ 10763 10752 10751 10750 ] final  156.85 input  -60.55 | X-H torsion
[ 11005 11000 10999 10996 ] final  124.52 input  -57.11 | X-H torsion

> <Gold.Protein.ActiveResidues>
 VAL166  LYS551  ARG553  GLY616  TRP617  ASP618  TYR619  PRO620  LYS621  CYS622 
 ASP623  PHE694  ASN695  SER759  ASP760  ASP761  ALA762  ILE779  LEU786  VAL792 
 PHE793  MET794  SER795  GLU796  ALA797  LYS798  CYS799  TRP800  GLU811  SER814 

> <Gold.Protein.RotatedAtoms>
  151.3227  135.0822  159.9310 H   0  0  0  0  0  0  0  0  0  0  0  0  # atno 6907 bound_to 6896
  152.5253  133.9623  159.7733 H   0  0  0  0  0  0  0  0  0  0  0  0  # atno 6908 bound_to 6896
  150.9947  133.6063  159.2733 H   0  0  0  0  0  0  0  0  0  0  0  0  # atno 6909 bound_to 6896
  145.9815  140.7278  142.9361 H   0  0  0  0  0  0  0  0  0  0  0  0  # atno 7974 bound_to 7965
  156.2188  140.3001  155.9903 H   0  0  0  0  0  0  0  0  0  0  0  0  # atno 8008 bound_to 7997
  155.2536  140.0427  157.3006 H   0  0  0  0  0  0  0  0  0  0  0  0  # atno 8009 bound_to 7997
  154.5808  140.2375  155.8064 H   0  0  0  0  0  0  0  0  0  0  0  0  # atno 8010 bound_to 7997
  140.6134  143.2394  151.5656 H   0  0  0  0  0  0  0  0  0  0  0  0  # atno 10167 bound_to 10162
  157.5052  131.1095  150.9371 H   0  0  0  0  0  0  0  0  0  0  0  0  # atno 10718 bound_to 10713
  154.1908  135.2795  155.3022 H   0  0  0  0  0  0  0  0  0  0  0  0  # atno 10763 bound_to 10752
  154.5930  135.5554  153.7301 H   0  0  0  0  0  0  0  0  0  0  0  0  # atno 10764 bound_to 10752
  153.0113  135.6373  154.2047 H   0  0  0  0  0  0  0  0  0  0  0  0  # atno 10765 bound_to 10752
  139.9362  134.9639  156.8421 H   0  0  0  0  0  0  0  0  0  0  0  0  # atno 11005 bound_to 11000
  144.6863  140.2916  143.7277 LP  0  0  0  0  0  0  0  0  0  0  0  0  # atno 17320 bound_to 7965
  145.7763  139.1875  143.2184 LP  0  0  0  0  0  0  0  0  0  0  0  0  # atno 17321 bound_to 7965
  139.5379  144.2730  152.1290 LP  0  0  0  0  0  0  0  0  0  0  0  0  # atno 17342 bound_to 10162
  140.1934  144.4729  150.6467 LP  0  0  0  0  0  0  0  0  0  0  0  0  # atno 17343 bound_to 10162
  157.0029  130.5607  149.5313 LP  0  0  0  0  0  0  0  0  0  0  0  0  # atno 17370 bound_to 10713
  156.0254  130.5348  150.8391 LP  0  0  0  0  0  0  0  0  0  0  0  0  # atno 17371 bound_to 10713
  140.6068  134.0119  155.7560 LP  0  0  0  0  0  0  0  0  0  0  0  0  # atno 17394 bound_to 11000
  141.0977  133.9817  157.3132 LP  0  0  0  0  0  0  0  0  0  0  0  0  # atno 17395 bound_to 11000

$$$$
