AV-unprocessed.smi:888|AV-procd|sdf|4054|dock6
  -GOLD-   22720 1543D 1   1.00000     0.00000
 Structure written by MMmdl.
 45 46  0  0  0  0  0  0  0  0  1 V2000
  147.4816  142.1834  153.9463 C   0  0  0  0  0  0  0  0  0  0  0  0
  148.7237  141.8826  154.7940 C   0  0  0  0  0  0  0  0  0  0  0  0
  149.2946  140.5222  154.5227 C   0  0  0  0  0  0  0  0  0  0  0  0
  150.6131  140.2867  154.5150 N   0  0  0  0  0  0  0  0  0  0  0  0
  150.7550  138.9435  154.2371 N   0  0  0  0  0  0  0  0  0  0  0  0
  149.5074  138.4955  154.1165 C   0  0  0  0  0  0  0  0  0  0  0  0
  148.5480  139.4182  154.2877 N   0  0  0  0  0  0  0  0  0  0  0  0
  147.1090  139.2091  154.2363 C   0  0  0  0  0  0  0  0  0  0  0  0
  146.6094  138.8466  152.8244 C   0  0  0  0  0  0  0  0  0  0  0  0
  146.8312  137.4408  152.4851 N   0  0  0  0  0  0  0  0  0  0  0  0
  145.9309  136.4418  152.4659 C   0  0  0  0  0  0  0  0  0  0  0  0
  144.7527  136.6246  152.7651 O   0  0  0  0  0  0  0  0  0  0  0  0
  146.4302  135.2459  152.1121 N   0  0  0  0  0  0  0  0  0  0  0  0
  145.6748  133.9958  152.0474 C   0  0  2  0  0  0  0  0  0  0  0  0
  146.5583  132.8741  151.4666 C   0  0  0  0  0  0  0  0  0  0  0  0
  145.8970  132.4372  150.1623 C   0  0  0  0  0  0  0  0  0  0  0  0
  144.4192  132.7460  150.3758 C   0  0  0  0  0  0  0  0  0  0  0  0
  144.3918  134.0708  151.1606 C   0  0  0  0  0  0  0  0  0  0  0  0
  143.1214  134.1659  152.0264 C   0  0  0  0  0  0  0  0  0  0  0  0
  144.3970  135.2509  150.1582 C   0  0  0  0  0  0  0  0  0  0  0  0
  147.0754  143.1657  154.1881 H   0  0  0  0  0  0  0  0  0  0  0  0
  146.6964  141.4471  154.1153 H   0  0  0  0  0  0  0  0  0  0  0  0
  147.7189  142.1754  152.8822 H   0  0  0  0  0  0  0  0  0  0  0  0
  149.4948  142.6253  154.5872 H   0  0  0  0  0  0  0  0  0  0  0  0
  148.4745  141.9928  155.8473 H   0  0  0  0  0  0  0  0  0  0  0  0
  149.2856  137.4601  153.9028 H   0  0  0  0  0  0  0  0  0  0  0  0
  146.8736  138.3878  154.9142 H   0  0  0  0  0  0  0  0  0  0  0  0
  146.5895  140.0765  154.6404 H   0  0  0  0  0  0  0  0  0  0  0  0
  145.5409  139.0494  152.7465 H   0  0  0  0  0  0  0  0  0  0  0  0
  147.0883  139.4865  152.0815 H   0  0  0  0  0  0  0  0  0  0  0  0
  147.7840  137.1900  152.2623 H   0  0  0  0  0  0  0  0  0  0  0  0
  147.4111  135.1950  151.8791 H   0  0  0  0  0  0  0  0  0  0  0  0
  145.4084  133.6945  153.0626 H   0  0  0  0  0  0  0  0  0  0  0  0
  147.5947  133.1761  151.3084 H   0  0  0  0  0  0  0  0  0  0  0  0
  146.5755  132.0335  152.1617 H   0  0  0  0  0  0  0  0  0  0  0  0
  146.2850  133.0287  149.3323 H   0  0  0  0  0  0  0  0  0  0  0  0
  146.0768  131.3864  149.9335 H   0  0  0  0  0  0  0  0  0  0  0  0
  143.8641  132.7893  149.4380 H   0  0  0  0  0  0  0  0  0  0  0  0
  143.9777  131.9456  150.9716 H   0  0  0  0  0  0  0  0  0  0  0  0
  142.2215  134.1463  151.4111 H   0  0  0  0  0  0  0  0  0  0  0  0
  143.1063  135.0901  152.6046 H   0  0  0  0  0  0  0  0  0  0  0  0
  143.0539  133.3373  152.7324 H   0  0  0  0  0  0  0  0  0  0  0  0
  143.5365  135.2023  149.4898 H   0  0  0  0  0  0  0  0  0  0  0  0
  145.2920  135.2523  149.5356 H   0  0  0  0  0  0  0  0  0  0  0  0
  144.3464  136.2137  150.6679 H   0  0  0  0  0  0  0  0  0  0  0  0
  1  2  1  0  0  0  0
  1 21  1  0  0  0  0
  1 22  1  0  0  0  0
  1 23  1  0  0  0  0
  2  3  1  0  0  0  0
  2 24  1  0  0  0  0
  2 25  1  0  0  0  0
  3  7  1  0  0  0  0
  3  4  2  0  0  0  0
  4  5  1  0  0  0  0
  5  6  2  0  0  0  0
  6  7  1  0  0  0  0
  6 26  1  0  0  0  0
  7  8  1  0  0  0  0
  8  9  1  0  0  0  0
  8 27  1  0  0  0  0
  8 28  1  0  0  0  0
  9 10  1  0  0  0  0
  9 29  1  0  0  0  0
  9 30  1  0  0  0  0
 10 11  1  0  0  0  0
 10 31  1  0  0  0  0
 11 12  2  0  0  0  0
 11 13  1  0  0  0  0
 13 14  1  0  0  0  0
 13 32  1  0  0  0  0
 14 18  1  0  0  0  0
 14 15  1  0  0  0  0
 14 33  1  0  0  0  0
 15 16  1  0  0  0  0
 15 34  1  0  0  0  0
 15 35  1  0  0  0  0
 16 17  1  0  0  0  0
 16 36  1  0  0  0  0
 16 37  1  0  0  0  0
 17 18  1  0  0  0  0
 17 38  1  0  0  0  0
 17 39  1  0  0  0  0
 18 19  1  0  0  0  0
 18 20  1  0  0  0  0
 19 40  1  0  0  0  0
 19 41  1  0  0  0  0
 19 42  1  0  0  0  0
 20 43  1  0  0  0  0
 20 44  1  0  0  0  0
 20 45  1  0  0  0  0
M  END
> <s_m_source_file>
AV-unprocessed.smi

> <i_m_source_file_index>
888

> <i_lp_mmshare_version>
43012

> <i_f3d_flags>
0

> <s_epik_input>
W0NIM11bQ0gyXWMxbm5bY0hdbjFbQ0gyXVtDSDJdW05IXUMoPU8pW05IXVtDQEBIXShDMihbQ0gzXSlbQ0gzXSlbQ0gyXVtDSDJdW0NIMl0y

> <s_epik_cmdline>
J2VwaWtfcHl0aG9uJywgJy1waCcsICc3LjAnLCAnLXRuJywgJzgnLCAnLW1hJywgJzIwMCcsICctbWV0YWxfYmluZGluZycsICctaW1hZScsICc8aW5maWxlLm1hZT4nLCAnLW9tYWUnLCAnPG91dGZpbGUubWFlPic=

> <r_lp_tautomer_probability>
1

> <r_epik_Ionization_Penalty>
0.000379534

> <r_epik_Ionization_Penalty_Charging>
0

> <r_epik_Ionization_Penalty_Neutral>
0.000379534

> <r_epik_State_Penalty>
-0

> <r_epik_Charging_Adjusted_Penalty>
0

> <i_epik_Tot_Q>
0

> <i_epik_Tot_abs_Q>
0

> <r_epik_Metal_State_Penalty>
-0

> <b_epik_Metal_Only>
0

> <s_lp_Force_Field>
OPLS_2005

> <r_lp_Energy>
31.9266

> <b_lp_Chiralities_Consistent>
1

> <s_lp_Variant>
AV-unprocessed.smi:888-1

> <Gold.Version>
5.8.1

> <Gold.Id.Protein>
6NUR|6NUR_protein|mol2

> <Gold.PLP.Fitness>
45.6859

> <Gold.PLP.PLP>
-35.2453

> <Gold.PLP.part.hbond>
-3.2465

> <Gold.PLP.part.metal>
0.0000

> <Gold.PLP.part.buried>
-2.8125

> <Gold.PLP.part.nonpolar>
-30.7594

> <Gold.PLP.part.repulsive>
0.4991

> <Gold.PLP.ligand.clash>
0.0000

> <Gold.PLP.ligand.torsion>
0.6031

> <Gold.PLP.Chemscore.Hbond>
2.8800

> <Gold.PLP.Chemscore.CHOScore>
1.0000

> <Gold.PLP.Chemscore.Metal>
0.0000

> <Gold.Chemscore.Hbonds>
donor molecule, donor type, donor heavy atom, donor atom, acceptor molecule, acceptor atom, score
      L1  H    10    31       P1  7948  1.00
      L1  H    13    32       P1  7948  0.86
      P1  H  7989  7998       L1     4  1.00
      L1  C     6    26       P1  7948  1.00

> <Gold.PLP.Chemscore.Internal.Correction>
0.0067

> <Gold.Rescore>
     Score         DG    S(hbond)    S(metal)    S(lipo)     H(rot)  DE(clash)    DE(int)     intcor
     15.44     -17.25       2.55        0.00      72.16       2.03       0.32       1.48       ----

> <Gold.Chemscore.Fitness>
15.4409

> <Gold.Chemscore.DG>
-17.2469

> <Gold.Chemscore.ZeroCoef>
-5.4800

> <Gold.Chemscore.Hbond>
2.5507

> <Gold.Chemscore.Metal>
0.0000

> <Gold.Chemscore.Lipo>
72.1601

> <Gold.Chemscore.Internal_Hbond>
0.0000

> <Gold.Chemscore.DEClash>
0.3220

> <Gold.Chemscore.DEInternal>
1.4840

> <Gold.Chemscore.Rot>
2.0293

> <Gold.Chemscore.Internal.Correction>
   9.000000E+99

> <Gold.Chemscore.Hbonds>
donor molecule, donor type, donor heavy atom, donor atom, acceptor molecule, acceptor atom, score
      L1  H    10    31       P1  7948  0.94
      L1  H    13    32       P1  7948  0.81
      P1  H  7989  7998       L1     4  0.24

> <Gold.Chemscore.Hbond.Weighted>
-8.5192

> <Gold.Chemscore.Metal.Weighted>
-0.0000

> <Gold.Chemscore.Lipo.Weighted>
-8.4427

> <Gold.Chemscore.Internal_Hbond.Weighted>
0.0000

> <Gold.Chemscore.DEClash.Weighted>
0.3220

> <Gold.Chemscore.DEInternal.Weighted>
1.4840

> <Gold.Chemscore.Rot.Weighted>
5.1950

> <Gold.Chemscore.Internal.Correction.Weighted>
   9.000000E+99

> <Gold.Protein.RotatedTorsions>
[ 6907 6896 6895 6894 ] final   -6.91 input  -60.11 | X-H torsion
[ 7974 7965 7964 7962 ] final  -41.40 input  175.53 | X-H torsion
[ 8008 7997 7996 7995 ] final   -4.60 input   59.86 | X-H torsion
[ 10167 10162 10161 10158 ] final  115.76 input  -65.29 | X-H torsion
[ 10718 10713 10712 10709 ] final -100.87 input   66.30 | X-H torsion
[ 10763 10752 10751 10750 ] final   24.47 input  -60.55 | X-H torsion
[ 11005 11000 10999 10996 ] final  -34.53 input  -57.11 | X-H torsion

> <Gold.Protein.ActiveResidues>
 VAL166  LYS551  ARG553  GLY616  TRP617  ASP618  TYR619  PRO620  LYS621  CYS622 
 ASP623  PHE694  ASN695  SER759  ASP760  ASP761  ALA762  ILE779  LEU786  VAL792 
 PHE793  MET794  SER795  GLU796  ALA797  LYS798  CYS799  TRP800  GLU811  SER814 

> <Gold.Protein.RotatedAtoms>
  151.4581  135.1036  159.9716 H   0  0  0  0  0  0  0  0  0  0  0  0  # atno 6907 bound_to 6896
  152.4863  133.8378  159.7147 H   0  0  0  0  0  0  0  0  0  0  0  0  # atno 6908 bound_to 6896
  150.8976  133.7100  159.2914 H   0  0  0  0  0  0  0  0  0  0  0  0  # atno 6909 bound_to 6896
  146.0214  140.6845  142.9176 H   0  0  0  0  0  0  0  0  0  0  0  0  # atno 7974 bound_to 7965
  154.6126  140.2480  155.7649 H   0  0  0  0  0  0  0  0  0  0  0  0  # atno 8008 bound_to 7997
  156.2380  140.2943  156.0315 H   0  0  0  0  0  0  0  0  0  0  0  0  # atno 8009 bound_to 7997
  155.2027  140.0395  157.2910 H   0  0  0  0  0  0  0  0  0  0  0  0  # atno 8010 bound_to 7997
  139.6295  144.7113  151.2463 H   0  0  0  0  0  0  0  0  0  0  0  0  # atno 10167 bound_to 10162
  156.0176  130.5347  150.6880 H   0  0  0  0  0  0  0  0  0  0  0  0  # atno 10718 bound_to 10713
  153.0762  135.6604  154.0141 H   0  0  0  0  0  0  0  0  0  0  0  0  # atno 10763 bound_to 10752
  153.9775  135.2958  155.3424 H   0  0  0  0  0  0  0  0  0  0  0  0  # atno 10764 bound_to 10752
  154.7150  135.5189  153.8795 H   0  0  0  0  0  0  0  0  0  0  0  0  # atno 10765 bound_to 10752
  140.9723  133.7102  156.1545 H   0  0  0  0  0  0  0  0  0  0  0  0  # atno 11005 bound_to 11000
  144.6991  140.3573  143.7170 LP  0  0  0  0  0  0  0  0  0  0  0  0  # atno 17320 bound_to 7965
  145.7187  139.1704  143.2497 LP  0  0  0  0  0  0  0  0  0  0  0  0  # atno 17321 bound_to 7965
  140.7430  143.6507  150.8251 LP  0  0  0  0  0  0  0  0  0  0  0  0  # atno 17342 bound_to 10162
  140.0130  143.5623  152.2831 LP  0  0  0  0  0  0  0  0  0  0  0  0  # atno 17343 bound_to 10162
  157.4568  131.0879  151.0788 LP  0  0  0  0  0  0  0  0  0  0  0  0  # atno 17370 bound_to 10713
  157.1288  130.6093  149.5524 LP  0  0  0  0  0  0  0  0  0  0  0  0  # atno 17371 bound_to 10713
  140.7310  134.4255  157.5566 LP  0  0  0  0  0  0  0  0  0  0  0  0  # atno 17394 bound_to 11000
  139.8917  134.8773  156.2306 LP  0  0  0  0  0  0  0  0  0  0  0  0  # atno 17395 bound_to 11000

$$$$
