AV-unprocessed.smi:2528|AV-procd|sdf|9955|dock4
  -GOLD-   2272013593D 1   1.00000     0.00000
 Structure written by MMmdl.
 44 46  0  0  0  0  0  0  0  0  2 V2000
  151.0512  135.2776  155.9444 O   0  0  0  0  0  0  0  0  0  0  0  0
  150.3549  135.5584  154.9682 C   0  0  0  0  0  0  0  0  0  0  0  0
  149.7119  134.6381  154.2350 N   0  0  0  0  0  0  0  0  0  0  0  0
  149.7300  133.2019  154.4936 C   0  0  0  0  0  0  0  0  0  0  0  0
  148.8335  132.4278  153.5109 C   0  0  1  0  0  0  0  0  0  0  0  0
  148.9594  130.9045  153.6936 C   0  0  0  0  0  0  0  0  0  0  0  0
  148.0450  130.1958  152.7688 N   0  3  1  0  0  0  0  0  0  0  0  0
  148.1650  128.7196  152.8732 C   0  0  0  0  0  0  0  0  0  0  0  0
  147.2762  128.0189  151.8334 C   0  0  0  0  0  0  0  0  0  0  0  0
  145.8152  128.4644  151.9772 C   0  0  0  0  0  0  0  0  0  0  0  0
  145.7213  129.9941  151.8945 C   0  0  0  0  0  0  0  0  0  0  0  0
  146.6429  130.6683  152.9303 C   0  0  2  0  0  0  0  0  0  0  0  0
  146.5880  132.2046  152.8122 C   0  0  0  0  0  0  0  0  0  0  0  0
  147.4791  132.7963  153.7489 O   0  0  0  0  0  0  0  0  0  0  0  0
  150.1384  136.7986  154.4958 N   0  0  0  0  0  0  0  0  0  0  0  0
  150.6304  138.0306  155.0045 C   0  0  0  0  0  0  0  0  0  0  0  0
  150.2268  139.1789  154.2861 C   0  0  0  0  0  0  0  0  0  0  0  0
  150.6580  140.4501  154.7125 C   0  0  0  0  0  0  0  0  0  0  0  0
  151.4839  140.5408  155.8470 C   0  0  0  0  0  0  0  0  0  0  0  0
  151.8410  139.3487  156.5036 C   0  0  0  0  0  0  0  0  0  0  0  0
  151.4289  138.1292  156.0970 N   0  0  0  0  0  0  0  0  0  0  0  0
  149.1646  134.9521  153.4469 H   0  0  0  0  0  0  0  0  0  0  0  0
  150.7572  132.8374  154.4376 H   0  0  0  0  0  0  0  0  0  0  0  0
  149.3979  133.0325  155.5182 H   0  0  0  0  0  0  0  0  0  0  0  0
  149.1087  132.6888  152.4873 H   0  0  0  0  0  0  0  0  0  0  0  0
  149.9860  130.5908  153.5005 H   0  0  0  0  0  0  0  0  0  0  0  0
  148.7265  130.6266  154.7230 H   0  0  0  0  0  0  0  0  0  0  0  0
  149.2042  128.4259  152.7206 H   0  0  0  0  0  0  0  0  0  0  0  0
  147.8888  128.3996  153.8791 H   0  0  0  0  0  0  0  0  0  0  0  0
  147.6343  128.2500  150.8292 H   0  0  0  0  0  0  0  0  0  0  0  0
  147.3496  126.9370  151.9472 H   0  0  0  0  0  0  0  0  0  0  0  0
  145.2029  128.0065  151.2000 H   0  0  0  0  0  0  0  0  0  0  0  0
  145.4169  128.1215  152.9330 H   0  0  0  0  0  0  0  0  0  0  0  0
  145.9937  130.3202  150.8894 H   0  0  0  0  0  0  0  0  0  0  0  0
  144.6885  130.3079  152.0512 H   0  0  0  0  0  0  0  0  0  0  0  0
  146.3058  130.3897  153.9306 H   0  0  0  0  0  0  0  0  0  0  0  0
  146.8382  132.5322  151.8016 H   0  0  0  0  0  0  0  0  0  0  0  0
  145.5790  132.5617  153.0200 H   0  0  0  0  0  0  0  0  0  0  0  0
  149.5437  136.8724  153.6838 H   0  0  0  0  0  0  0  0  0  0  0  0
  149.5910  139.0921  153.4169 H   0  0  0  0  0  0  0  0  0  0  0  0
  150.3595  141.3396  154.1778 H   0  0  0  0  0  0  0  0  0  0  0  0
  151.8348  141.4978  156.2043 H   0  0  0  0  0  0  0  0  0  0  0  0
  152.4745  139.3741  157.3778 H   0  0  0  0  0  0  0  0  0  0  0  0
  148.3296  130.4449  151.8321 H   0  0  0  0  0  0  0  0  0  0  0  0
  1  2  2  0  0  0  0
  2  3  1  0  0  0  0
  2 15  1  0  0  0  0
  3  4  1  0  0  0  0
  3 22  1  0  0  0  0
  4  5  1  0  0  0  0
  4 23  1  0  0  0  0
  4 24  1  0  0  0  0
  5 14  1  0  0  0  0
  5  6  1  0  0  0  0
  5 25  1  0  0  0  0
  6  7  1  0  0  0  0
  6 26  1  0  0  0  0
  6 27  1  0  0  0  0
  7 12  1  0  0  0  0
  7  8  1  0  0  0  0
  7 44  1  0  0  0  0
  8  9  1  0  0  0  0
  8 28  1  0  0  0  0
  8 29  1  0  0  0  0
  9 10  1  0  0  0  0
  9 30  1  0  0  0  0
  9 31  1  0  0  0  0
 10 11  1  0  0  0  0
 10 32  1  0  0  0  0
 10 33  1  0  0  0  0
 11 12  1  0  0  0  0
 11 34  1  0  0  0  0
 11 35  1  0  0  0  0
 12 13  1  0  0  0  0
 12 36  1  0  0  0  0
 13 14  1  0  0  0  0
 13 37  1  0  0  0  0
 13 38  1  0  0  0  0
 15 16  1  0  0  0  0
 15 39  1  0  0  0  0
 16 21  1  0  0  0  0
 16 17  2  0  0  0  0
 17 18  1  0  0  0  0
 17 40  1  0  0  0  0
 18 19  2  0  0  0  0
 18 41  1  0  0  0  0
 19 20  1  0  0  0  0
 19 42  1  0  0  0  0
 20 21  2  0  0  0  0
 20 43  1  0  0  0  0
M  CHG  1   7   1
M  END
> <s_m_source_file>
AV-unprocessed.smi

> <i_m_source_file_index>
2528

> <i_lp_mmshare_version>
43012

> <i_f3d_flags>
0

> <s_epik_input>
bjFbY0hdW2NIXVtjSF1bY0hdYzFbTkhdQyg9TylbTkhdW0NIMl1bQ0BIXShbQ0gyXTIpT1tDSDJdW0NAQEhdKE4yMylbQ0gyXVtDSDJdW0NIMl1bQ0gyXTM=

> <s_epik_cmdline>
J2VwaWtfcHl0aG9uJywgJy1waCcsICc3LjAnLCAnLXRuJywgJzgnLCAnLW1hJywgJzIwMCcsICctbWV0YWxfYmluZGluZycsICctaW1hZScsICc8aW5maWxlLm1hZT4nLCAnLW9tYWUnLCAnPG91dGZpbGUubWFlPic=

> <r_epik_Ionization_Penalty>
0.0932337

> <r_epik_Ionization_Penalty_Charging>
0.0931942

> <r_epik_Ionization_Penalty_Neutral>
3.9565e-05

> <r_epik_State_Penalty>
0.0834605

> <r_epik_Charging_Adjusted_Penalty>
0.176655

> <i_epik_Tot_Q>
1

> <i_epik_Tot_abs_Q>
1

> <r_epik_Metal_State_Penalty>
0.0834607

> <b_epik_Metal_Only>
0

> <s_lp_Force_Field>
OPLS_2005

> <r_lp_Energy>
24.376

> <b_lp_Chiralities_Consistent>
1

> <s_lp_Variant>
AV-unprocessed.smi:2528-8

> <Gold.Version>
5.8.1

> <Gold.Id.Protein>
6NUR|6NUR_protein|mol2

> <Gold.PLP.Fitness>
48.4378

> <Gold.PLP.PLP>
-37.7402

> <Gold.PLP.part.hbond>
-4.2504

> <Gold.PLP.part.metal>
0.0000

> <Gold.PLP.part.buried>
-1.1014

> <Gold.PLP.part.nonpolar>
-32.1559

> <Gold.PLP.part.repulsive>
0.2520

> <Gold.PLP.ligand.clash>
0.0000

> <Gold.PLP.ligand.torsion>
0.0216

> <Gold.PLP.Chemscore.Hbond>
3.5801

> <Gold.PLP.Chemscore.CHOScore>
0.0000

> <Gold.PLP.Chemscore.Metal>
0.0000

> <Gold.Chemscore.Hbonds>
donor molecule, donor type, donor heavy atom, donor atom, acceptor molecule, acceptor atom, score
      L1  H     3    22       P1  7948  0.82
      L1  H     7    44       P1 10747  1.00
      L1  H    15    39       P1  7948  0.99
      P1  H 10752 10765       L1     1  0.40

> <Gold.PLP.Chemscore.Internal.Correction>
0.0005

> <Gold.Rescore>
     Score         DG    S(hbond)    S(metal)    S(lipo)     H(rot)  DE(clash)    DE(int)     intcor
     18.82     -20.28       2.19        0.00      92.21       1.29       0.13       1.32       ----

> <Gold.Chemscore.Fitness>
18.8178

> <Gold.Chemscore.DG>
-20.2758

> <Gold.Chemscore.ZeroCoef>
-5.4800

> <Gold.Chemscore.Hbond>
2.1862

> <Gold.Chemscore.Metal>
0.0000

> <Gold.Chemscore.Lipo>
92.2107

> <Gold.Chemscore.Internal_Hbond>
0.0000

> <Gold.Chemscore.DEClash>
0.1335

> <Gold.Chemscore.DEInternal>
1.3245

> <Gold.Chemscore.Rot>
1.2870

> <Gold.Chemscore.Internal.Correction>
   9.000000E+99

> <Gold.Chemscore.Hbonds>
donor molecule, donor type, donor heavy atom, donor atom, acceptor molecule, acceptor atom, score
      L1  H     3    22       P1  7948  0.13
      L1  H     7    44       P1 10747  0.94
      L1  H    15    39       P1  7948  0.75
      P1  H 10752 10765       L1     1  0.09

> <Gold.Chemscore.Hbond.Weighted>
-7.3020

> <Gold.Chemscore.Metal.Weighted>
-0.0000

> <Gold.Chemscore.Lipo.Weighted>
-10.7886

> <Gold.Chemscore.Internal_Hbond.Weighted>
0.0000

> <Gold.Chemscore.DEClash.Weighted>
0.1335

> <Gold.Chemscore.DEInternal.Weighted>
1.3245

> <Gold.Chemscore.Rot.Weighted>
3.2948

> <Gold.Chemscore.Internal.Correction.Weighted>
   9.000000E+99

> <Gold.Protein.RotatedTorsions>
[ 6907 6896 6895 6894 ] final  -10.29 input  -60.11 | X-H torsion
[ 7974 7965 7964 7962 ] final  -45.70 input  175.53 | X-H torsion
[ 8008 7997 7996 7995 ] final   41.23 input   59.86 | X-H torsion
[ 10167 10162 10161 10158 ] final  164.96 input  -65.29 | X-H torsion
[ 10718 10713 10712 10709 ] final -127.86 input   66.30 | X-H torsion
[ 10763 10752 10751 10750 ] final -153.55 input  -60.55 | X-H torsion
[ 11005 11000 10999 10996 ] final   15.04 input  -57.11 | X-H torsion

> <Gold.Protein.ActiveResidues>
 VAL166  LYS551  ARG553  GLY616  TRP617  ASP618  TYR619  PRO620  LYS621  CYS622 
 ASP623  PHE694  ASN695  SER759  ASP760  ASP761  ALA762  ILE779  LEU786  VAL792 
 PHE793  MET794  SER795  GLU796  ALA797  LYS798  CYS799  TRP800  GLU811  SER814 

> <Gold.Protein.RotatedAtoms>
  151.4043  135.0976  159.9565 H   0  0  0  0  0  0  0  0  0  0  0  0  # atno 6907 bound_to 6896
  152.5040  133.8858  159.7379 H   0  0  0  0  0  0  0  0  0  0  0  0  # atno 6908 bound_to 6896
  150.9339  133.6678  159.2833 H   0  0  0  0  0  0  0  0  0  0  0  0  # atno 6909 bound_to 6896
  145.9794  140.7300  142.9371 H   0  0  0  0  0  0  0  0  0  0  0  0  # atno 7974 bound_to 7965
  155.2662  140.3363  155.4269 H   0  0  0  0  0  0  0  0  0  0  0  0  # atno 8008 bound_to 7997
  156.2153  140.1786  156.7646 H   0  0  0  0  0  0  0  0  0  0  0  0  # atno 8009 bound_to 7997
  154.5744  140.0664  156.8997 H   0  0  0  0  0  0  0  0  0  0  0  0  # atno 8010 bound_to 7997
  139.4897  144.4181  151.9219 H   0  0  0  0  0  0  0  0  0  0  0  0  # atno 10167 bound_to 10162
  156.1896  130.6787  151.0408 H   0  0  0  0  0  0  0  0  0  0  0  0  # atno 10718 bound_to 10713
  154.7920  135.3210  154.7755 H   0  0  0  0  0  0  0  0  0  0  0  0  # atno 10763 bound_to 10752
  153.8442  135.6868  153.4804 H   0  0  0  0  0  0  0  0  0  0  0  0  # atno 10764 bound_to 10752
  153.1594  135.4667  154.9691 H   0  0  0  0  0  0  0  0  0  0  0  0  # atno 10765 bound_to 10752
  140.4628  134.1110  155.7719 H   0  0  0  0  0  0  0  0  0  0  0  0  # atno 11005 bound_to 11000
  144.6857  140.2882  143.7282 LP  0  0  0  0  0  0  0  0  0  0  0  0  # atno 17320 bound_to 7965
  145.7792  139.1885  143.2168 LP  0  0  0  0  0  0  0  0  0  0  0  0  # atno 17321 bound_to 7965
  140.3625  144.2956  150.5931 LP  0  0  0  0  0  0  0  0  0  0  0  0  # atno 17342 bound_to 10162
  140.5391  143.2227  151.8115 LP  0  0  0  0  0  0  0  0  0  0  0  0  # atno 17343 bound_to 10162
  157.6921  131.0806  150.7077 LP  0  0  0  0  0  0  0  0  0  0  0  0  # atno 17370 bound_to 10713
  156.7134  130.4658  149.5541 LP  0  0  0  0  0  0  0  0  0  0  0  0  # atno 17371 bound_to 10713
  141.1613  133.8787  157.1839 LP  0  0  0  0  0  0  0  0  0  0  0  0  # atno 17394 bound_to 11000
  139.9935  135.0056  157.0028 LP  0  0  0  0  0  0  0  0  0  0  0  0  # atno 17395 bound_to 11000

$$$$
