AV-unprocessed.smi:3223|AV-procd|sdf|12308|dock2
  -GOLD-   2272018153D 1   1.00000     0.00000
 Structure written by MMmdl.
 43 43  0  0  0  0  0  0  0  0  2 V2000
  151.9737  142.9581  158.2655 C   0  0  0  0  0  0  0  0  0  0  0  0
  151.3458  141.9205  157.3804 C   0  0  0  0  0  0  0  0  0  0  0  0
  151.3017  140.5115  157.5816 C   0  0  0  0  0  0  0  0  0  0  0  0
  150.6661  139.8737  156.6117 N   0  0  0  0  0  0  0  0  0  0  0  0
  150.2843  140.8497  155.7608 N   0  0  0  0  0  0  0  0  0  0  0  0
  149.5367  140.5118  154.5637 C   0  0  0  0  0  0  0  0  0  0  0  0
  149.2877  138.9955  154.4204 C   0  0  1  0  0  0  0  0  0  0  0  0
  148.4471  138.4710  155.5921 C   0  0  0  0  0  0  0  0  0  0  0  0
  148.6002  138.6827  153.1465 N   0  3  0  0  0  0  0  0  0  0  0  0
  147.1263  138.7791  153.1899 C   0  0  0  0  0  0  0  0  0  0  0  0
  146.5095  138.3393  151.8525 C   0  0  0  0  0  0  0  0  0  0  0  0
  145.7053  137.0428  151.9772 C   0  0  0  0  0  0  0  0  0  0  0  0
  144.5272  137.0768  152.3324 O   0  0  0  0  0  0  0  0  0  0  0  0
  146.3580  135.9057  151.6883 N   0  0  0  0  0  0  0  0  0  0  0  0
  145.7860  134.5631  151.7404 C   0  0  0  0  0  0  0  0  0  0  0  0
  146.8843  133.5061  151.5464 C   0  0  0  0  0  0  0  0  0  0  0  0
  144.6839  134.4362  150.6805 C   0  0  0  0  0  0  0  0  0  0  0  0
  150.6828  142.0944  156.1987 C   0  0  0  0  0  0  0  0  0  0  0  0
  152.8078  142.5507  158.8373 H   0  0  0  0  0  0  0  0  0  0  0  0
  151.2577  143.3593  158.9829 H   0  0  0  0  0  0  0  0  0  0  0  0
  152.3601  143.8001  157.6909 H   0  0  0  0  0  0  0  0  0  0  0  0
  151.7096  139.9374  158.4004 H   0  0  0  0  0  0  0  0  0  0  0  0
  148.5848  141.0429  154.6072 H   0  0  0  0  0  0  0  0  0  0  0  0
  150.0661  140.8995  153.6915 H   0  0  0  0  0  0  0  0  0  0  0  0
  150.2460  138.4737  154.4514 H   0  0  0  0  0  0  0  0  0  0  0  0
  148.9429  138.6571  156.5453 H   0  0  0  0  0  0  0  0  0  0  0  0
  148.2879  137.3951  155.5111 H   0  0  0  0  0  0  0  0  0  0  0  0
  147.4685  138.9513  155.6269 H   0  0  0  0  0  0  0  0  0  0  0  0
  148.9274  139.3328  152.4465 H   0  0  0  0  0  0  0  0  0  0  0  0
  146.7462  138.1621  154.0044 H   0  0  0  0  0  0  0  0  0  0  0  0
  146.8439  139.8095  153.4108 H   0  0  0  0  0  0  0  0  0  0  0  0
  145.8710  139.1332  151.4612 H   0  0  0  0  0  0  0  0  0  0  0  0
  147.2967  138.1779  151.1149 H   0  0  0  0  0  0  0  0  0  0  0  0
  147.3264  135.9732  151.4100 H   0  0  0  0  0  0  0  0  0  0  0  0
  145.3239  134.4082  152.7169 H   0  0  0  0  0  0  0  0  0  0  0  0
  146.4704  132.4986  151.5954 H   0  0  0  0  0  0  0  0  0  0  0  0
  147.6495  133.5830  152.3195 H   0  0  0  0  0  0  0  0  0  0  0  0
  147.3755  133.6164  150.5790 H   0  0  0  0  0  0  0  0  0  0  0  0
  144.2172  133.4515  150.7178 H   0  0  0  0  0  0  0  0  0  0  0  0
  145.0802  134.5784  149.6744 H   0  0  0  0  0  0  0  0  0  0  0  0
  143.8993  135.1771  150.8384 H   0  0  0  0  0  0  0  0  0  0  0  0
  150.4611  142.9926  155.6409 H   0  0  0  0  0  0  0  0  0  0  0  0
  148.8613  137.7484  152.8636 H   0  0  0  0  0  0  0  0  0  0  0  0
  1  2  1  0  0  0  0
  1 19  1  0  0  0  0
  1 20  1  0  0  0  0
  1 21  1  0  0  0  0
  2 18  2  0  0  0  0
  2  3  1  0  0  0  0
  3  4  2  0  0  0  0
  3 22  1  0  0  0  0
  4  5  1  0  0  0  0
  5  6  1  0  0  0  0
  5 18  1  0  0  0  0
  6  7  1  0  0  0  0
  6 23  1  0  0  0  0
  6 24  1  0  0  0  0
  7  8  1  0  0  0  0
  7  9  1  0  0  0  0
  7 25  1  0  0  0  0
  8 26  1  0  0  0  0
  8 27  1  0  0  0  0
  8 28  1  0  0  0  0
  9 10  1  0  0  0  0
  9 29  1  0  0  0  0
  9 43  1  0  0  0  0
 10 11  1  0  0  0  0
 10 30  1  0  0  0  0
 10 31  1  0  0  0  0
 11 12  1  0  0  0  0
 11 32  1  0  0  0  0
 11 33  1  0  0  0  0
 12 13  2  0  0  0  0
 12 14  1  0  0  0  0
 14 15  1  0  0  0  0
 14 34  1  0  0  0  0
 15 16  1  0  0  0  0
 15 17  1  0  0  0  0
 15 35  1  0  0  0  0
 16 36  1  0  0  0  0
 16 37  1  0  0  0  0
 16 38  1  0  0  0  0
 17 39  1  0  0  0  0
 17 40  1  0  0  0  0
 17 41  1  0  0  0  0
 18 42  1  0  0  0  0
M  CHG  1   9   1
M  END
> <s_m_source_file>
AV-unprocessed.smi

> <i_m_source_file_index>
3223

> <i_lp_mmshare_version>
43012

> <i_f3d_flags>
0

> <s_epik_input>
W0NIM11jMVtjSF1ubihbY0hdMSlbQ0gyXVtDQEhdKFtDSDNdKVtOSF1bQ0gyXVtDSDJdQyg9TylbTkhdW0NIXShbQ0gzXSlbQ0gzXQ==

> <s_epik_cmdline>
J2VwaWtfcHl0aG9uJywgJy1waCcsICc3LjAnLCAnLXRuJywgJzgnLCAnLW1hJywgJzIwMCcsICctbWV0YWxfYmluZGluZycsICctaW1hZScsICc8aW5maWxlLm1hZT4nLCAnLW9tYWUnLCAnPG91dGZpbGUubWFlPic=

> <r_lp_tautomer_probability>
1

> <r_epik_Ionization_Penalty>
0.0057861

> <r_epik_Ionization_Penalty_Charging>
0.00577767

> <r_epik_Ionization_Penalty_Neutral>
8.4224e-06

> <r_epik_State_Penalty>
0.00424195

> <r_epik_Charging_Adjusted_Penalty>
0.0100196

> <i_epik_Tot_Q>
1

> <i_epik_Tot_abs_Q>
1

> <r_epik_Metal_State_Penalty>
-0

> <b_epik_Metal_Only>
0

> <s_lp_Force_Field>
OPLS_2005

> <r_lp_Energy>
5.87618

> <b_lp_Chiralities_Consistent>
1

> <s_lp_Variant>
AV-unprocessed.smi:3223-2

> <Gold.Version>
5.8.1

> <Gold.Id.Protein>
6NUR|6NUR_protein|mol2

> <Gold.PLP.Fitness>
47.6218

> <Gold.PLP.PLP>
-34.5501

> <Gold.PLP.part.hbond>
-3.0000

> <Gold.PLP.part.metal>
0.0000

> <Gold.PLP.part.buried>
-3.9889

> <Gold.PLP.part.nonpolar>
-29.6710

> <Gold.PLP.part.repulsive>
1.3013

> <Gold.PLP.ligand.clash>
0.0000

> <Gold.PLP.ligand.torsion>
1.0396

> <Gold.PLP.Chemscore.Hbond>
3.9920

> <Gold.PLP.Chemscore.CHOScore>
1.0000

> <Gold.PLP.Chemscore.Metal>
0.0000

> <Gold.Chemscore.Hbonds>
donor molecule, donor type, donor heavy atom, donor atom, acceptor molecule, acceptor atom, score
      L1  H     9    29       P1  7957  1.00
      L1  H     9    43       P1  7948  2.00
      L1  H    14    34       P1  7948  1.00
      L1  C    18    42       P1  8028  1.00

> <Gold.PLP.Chemscore.Internal.Correction>
0.1750

> <Gold.Rescore>
     Score         DG    S(hbond)    S(metal)    S(lipo)     H(rot)  DE(clash)    DE(int)     intcor
     16.19     -18.60       2.96        0.00      75.46       2.19       0.00       2.41       ----

> <Gold.Chemscore.Fitness>
16.1920

> <Gold.Chemscore.DG>
-18.6035

> <Gold.Chemscore.ZeroCoef>
-5.4800

> <Gold.Chemscore.Hbond>
2.9606

> <Gold.Chemscore.Metal>
0.0000

> <Gold.Chemscore.Lipo>
75.4595

> <Gold.Chemscore.Internal_Hbond>
0.0000

> <Gold.Chemscore.DEClash>
0.0029

> <Gold.Chemscore.DEInternal>
2.4085

> <Gold.Chemscore.Rot>
2.1850

> <Gold.Chemscore.Internal.Correction>
   9.000000E+99

> <Gold.Chemscore.Hbonds>
donor molecule, donor type, donor heavy atom, donor atom, acceptor molecule, acceptor atom, score
      L1  H     9    29       P1  7957  0.99
      L1  H     9    43       P1  7948  0.99
      L1  H    14    34       P1  7948  0.94

> <Gold.Chemscore.Hbond.Weighted>
-9.8883

> <Gold.Chemscore.Metal.Weighted>
-0.0000

> <Gold.Chemscore.Lipo.Weighted>
-8.8288

> <Gold.Chemscore.Internal_Hbond.Weighted>
0.0000

> <Gold.Chemscore.DEClash.Weighted>
0.0029

> <Gold.Chemscore.DEInternal.Weighted>
2.4085

> <Gold.Chemscore.Rot.Weighted>
5.5936

> <Gold.Chemscore.Internal.Correction.Weighted>
   9.000000E+99

> <Gold.Protein.RotatedTorsions>
[ 6907 6896 6895 6894 ] final -129.84 input  -60.11 | X-H torsion
[ 7974 7965 7964 7962 ] final  -55.70 input  175.53 | X-H torsion
[ 8008 7997 7996 7995 ] final   30.75 input   59.86 | X-H torsion
[ 10167 10162 10161 10158 ] final  -84.95 input  -65.29 | X-H torsion
[ 10718 10713 10712 10709 ] final  160.50 input   66.30 | X-H torsion
[ 10763 10752 10751 10750 ] final  -29.04 input  -60.55 | X-H torsion
[ 11005 11000 10999 10996 ] final  -49.93 input  -57.11 | X-H torsion

> <Gold.Protein.ActiveResidues>
 VAL166  LYS551  ARG553  GLY616  TRP617  ASP618  TYR619  PRO620  LYS621  CYS622 
 ASP623  PHE694  ASN695  SER759  ASP760  ASP761  ALA762  ILE779  LEU786  VAL792 
 PHE793  MET794  SER795  GLU796  ALA797  LYS798  CYS799  TRP800  GLU811  SER814 

> <Gold.Protein.RotatedAtoms>
  150.9332  133.6743  159.2806 H   0  0  0  0  0  0  0  0  0  0  0  0  # atno 6907 bound_to 6896
  151.4158  135.0990  159.9608 H   0  0  0  0  0  0  0  0  0  0  0  0  # atno 6908 bound_to 6896
  152.5035  133.8794  159.7394 H   0  0  0  0  0  0  0  0  0  0  0  0  # atno 6909 bound_to 6896
  145.8712  140.8214  142.9887 H   0  0  0  0  0  0  0  0  0  0  0  0  # atno 7974 bound_to 7965
  155.0953  140.3224  155.4562 H   0  0  0  0  0  0  0  0  0  0  0  0  # atno 8008 bound_to 7997
  156.2731  140.2070  156.6027 H   0  0  0  0  0  0  0  0  0  0  0  0  # atno 8009 bound_to 7997
  154.6871  140.0520  157.0313 H   0  0  0  0  0  0  0  0  0  0  0  0  # atno 8010 bound_to 7997
  140.4084  143.2633  151.9051 H   0  0  0  0  0  0  0  0  0  0  0  0  # atno 10167 bound_to 10162
  157.1495  131.0560  151.2287 H   0  0  0  0  0  0  0  0  0  0  0  0  # atno 10718 bound_to 10713
  153.7581  135.6921  153.4931 H   0  0  0  0  0  0  0  0  0  0  0  0  # atno 10763 bound_to 10752
  153.1957  135.4454  155.0204 H   0  0  0  0  0  0  0  0  0  0  0  0  # atno 10764 bound_to 10752
  154.8163  135.3400  154.7098 H   0  0  0  0  0  0  0  0  0  0  0  0  # atno 10765 bound_to 10752
  141.0787  133.6659  156.3657 H   0  0  0  0  0  0  0  0  0  0  0  0  # atno 11005 bound_to 11000
  144.6726  140.1242  143.7448 LP  0  0  0  0  0  0  0  0  0  0  0  0  # atno 17320 bound_to 7965
  145.9134  139.2501  143.1424 LP  0  0  0  0  0  0  0  0  0  0  0  0  # atno 17321 bound_to 7965
  139.4783  144.5563  151.8309 LP  0  0  0  0  0  0  0  0  0  0  0  0  # atno 17342 bound_to 10162
  140.4665  144.1648  150.5912 LP  0  0  0  0  0  0  0  0  0  0  0  0  # atno 17343 bound_to 10162
  157.4233  130.7449  149.6931 LP  0  0  0  0  0  0  0  0  0  0  0  0  # atno 17370 bound_to 10713
  155.9773  130.4065  150.3721 LP  0  0  0  0  0  0  0  0  0  0  0  0  # atno 17371 bound_to 10713
  140.5516  134.6022  157.5409 LP  0  0  0  0  0  0  0  0  0  0  0  0  # atno 17394 bound_to 11000
  139.9600  134.7469  156.0258 LP  0  0  0  0  0  0  0  0  0  0  0  0  # atno 17395 bound_to 11000

$$$$
