AV-unprocessed.smi:3076|AV-procd|sdf|11725|dock4
  -GOLD-   2272017123D 1   1.00000     0.00000
 Structure written by MMmdl.
 21 21  0  0  0  0  0  0  0  0  2 V2000
  148.1456  138.6300  153.0700 N   0  3  0  0  0  0  0  0  0  0  0  0
  148.9055  138.7980  154.3211 C   0  0  0  0  0  0  0  0  0  0  0  0
  149.1727  140.2820  154.6306 C   0  0  2  0  0  0  0  0  0  0  0  0
  149.5572  140.9336  153.4355 O   0  0  0  0  0  0  0  0  0  0  0  0
  150.2214  140.4355  155.7206 C   0  0  0  0  0  0  0  0  0  0  0  0
  149.9323  141.0984  156.9338 C   0  0  0  0  0  0  0  0  0  0  0  0
  150.9471  141.2202  157.9022 C   0  0  0  0  0  0  0  0  0  0  0  0
  152.2146  140.6744  157.6182 C   0  0  0  0  0  0  0  0  0  0  0  0
  152.5052  140.0406  156.4619 N   0  0  0  0  0  0  0  0  0  0  0  0
  151.5265  139.9276  155.5387 C   0  0  0  0  0  0  0  0  0  0  0  0
  148.3452  139.3987  152.4460 H   0  0  0  0  0  0  0  0  0  0  0  0
  147.1580  138.6149  153.2827 H   0  0  0  0  0  0  0  0  0  0  0  0
  148.3281  138.3449  155.1278 H   0  0  0  0  0  0  0  0  0  0  0  0
  149.8410  138.2419  154.2471 H   0  0  0  0  0  0  0  0  0  0  0  0
  148.2488  140.7506  154.9735 H   0  0  0  0  0  0  0  0  0  0  0  0
  149.4468  140.3313  152.7147 H   0  0  0  0  0  0  0  0  0  0  0  0
  148.9511  141.5099  157.1211 H   0  0  0  0  0  0  0  0  0  0  0  0
  150.7595  141.7206  158.8408 H   0  0  0  0  0  0  0  0  0  0  0  0
  153.0163  140.7508  158.3377 H   0  0  0  0  0  0  0  0  0  0  0  0
  151.7964  139.4177  154.6252 H   0  0  0  0  0  0  0  0  0  0  0  0
  148.4073  137.7597  152.6298 H   0  0  0  0  0  0  0  0  0  0  0  0
  1  2  1  0  0  0  0
  1 11  1  0  0  0  0
  1 12  1  0  0  0  0
  1 21  1  0  0  0  0
  2  3  1  0  0  0  0
  2 13  1  0  0  0  0
  2 14  1  0  0  0  0
  3  4  1  0  0  0  0
  3  5  1  0  0  0  0
  3 15  1  0  0  0  0
  4 16  1  0  0  0  0
  5 10  1  0  0  0  0
  5  6  2  0  0  0  0
  6  7  1  0  0  0  0
  6 17  1  0  0  0  0
  7  8  2  0  0  0  0
  7 18  1  0  0  0  0
  8  9  1  0  0  0  0
  8 19  1  0  0  0  0
  9 10  2  0  0  0  0
 10 20  1  0  0  0  0
M  CHG  1   1   1
M  END
> <s_m_source_file>
AV-unprocessed.smi

> <i_m_source_file_index>
3076

> <i_lp_mmshare_version>
43012

> <i_f3d_flags>
0

> <s_epik_input>
W05IMl1bQ0gyXVtDQEhdKFtPSF0pYzFbY0hdW2NIXVtjSF1uW2NIXTE=

> <s_epik_cmdline>
J2VwaWtfcHl0aG9uJywgJy1waCcsICc3LjAnLCAnLXRuJywgJzgnLCAnLW1hJywgJzIwMCcsICctbWV0YWxfYmluZGluZycsICctaW1hZScsICc8aW5maWxlLm1hZT4nLCAnLW9tYWUnLCAnPG91dGZpbGUubWFlPic=

> <r_epik_Ionization_Penalty>
0.0145342

> <r_epik_Ionization_Penalty_Charging>
0.0140431

> <r_epik_Ionization_Penalty_Neutral>
0.000491123

> <r_epik_State_Penalty>
0.0109628

> <r_epik_Charging_Adjusted_Penalty>
0.0250059

> <i_epik_Tot_Q>
1

> <i_epik_Tot_abs_Q>
1

> <r_epik_Metal_State_Penalty>
0.0109916

> <b_epik_Metal_Only>
0

> <s_lp_Force_Field>
OPLS_2005

> <r_lp_Energy>
5.00299

> <b_lp_Chiralities_Consistent>
1

> <s_lp_Variant>
AV-unprocessed.smi:3076-1

> <Gold.Version>
5.8.1

> <Gold.Id.Protein>
6NUR|6NUR_protein|mol2

> <Gold.PLP.Fitness>
38.7726

> <Gold.PLP.PLP>
-20.6434

> <Gold.PLP.part.hbond>
-5.2381

> <Gold.PLP.part.metal>
0.0000

> <Gold.PLP.part.buried>
-1.9634

> <Gold.PLP.part.nonpolar>
-13.0222

> <Gold.PLP.part.repulsive>
0.0498

> <Gold.PLP.ligand.clash>
0.0000

> <Gold.PLP.ligand.torsion>
0.1189

> <Gold.PLP.Chemscore.Hbond>
6.1200

> <Gold.PLP.Chemscore.CHOScore>
0.0000

> <Gold.PLP.Chemscore.Metal>
0.0000

> <Gold.Chemscore.Hbonds>
donor molecule, donor type, donor heavy atom, donor atom, acceptor molecule, acceptor atom, score
      L1  H     1    11       P1  7957  0.86
      L1  H     1    21       P1  7948  2.00
      L1  H     4    16       P1  7957  0.96
      P1  H  7989  7998       L1     4  0.21
      P1  H  7997  8008       L1     9  1.00
      P1  H  8011  8017       L1     4  0.70

> <Gold.PLP.Chemscore.Internal.Correction>
0.0070

> <Gold.Rescore>
     Score         DG    S(hbond)    S(metal)    S(lipo)     H(rot)  DE(clash)    DE(int)     intcor
     18.86     -19.23       4.11        0.00      41.88       1.90       0.24       0.13       ----

> <Gold.Chemscore.Fitness>
18.8588

> <Gold.Chemscore.DG>
-19.2322

> <Gold.Chemscore.ZeroCoef>
-5.4800

> <Gold.Chemscore.Hbond>
4.1053

> <Gold.Chemscore.Metal>
0.0000

> <Gold.Chemscore.Lipo>
41.8773

> <Gold.Chemscore.Internal_Hbond>
0.0000

> <Gold.Chemscore.DEClash>
0.2434

> <Gold.Chemscore.DEInternal>
0.1300

> <Gold.Chemscore.Rot>
1.8981

> <Gold.Chemscore.Internal.Correction>
   9.000000E+99

> <Gold.Chemscore.Hbonds>
donor molecule, donor type, donor heavy atom, donor atom, acceptor molecule, acceptor atom, score
      L1  H     1    11       P1  7957  0.85
      L1  H     1    21       P1  7948  1.00
      L1  H     4    16       P1  7957  0.90
      P1  H  7989  7998       L1     4  0.01
      P1  H  7997  8008       L1     9  0.30
      P1  H  8011  8017       L1     4  0.07

> <Gold.Chemscore.Hbond.Weighted>
-13.7117

> <Gold.Chemscore.Metal.Weighted>
-0.0000

> <Gold.Chemscore.Lipo.Weighted>
-4.8996

> <Gold.Chemscore.Internal_Hbond.Weighted>
0.0000

> <Gold.Chemscore.DEClash.Weighted>
0.2434

> <Gold.Chemscore.DEInternal.Weighted>
0.1300

> <Gold.Chemscore.Rot.Weighted>
4.8592

> <Gold.Chemscore.Internal.Correction.Weighted>
   9.000000E+99

> <Gold.Protein.RotatedTorsions>
[ 6907 6896 6895 6894 ] final  -99.40 input  -60.11 | X-H torsion
[ 7974 7965 7964 7962 ] final  -55.46 input  175.53 | X-H torsion
[ 8008 7997 7996 7995 ] final  -49.81 input   59.86 | X-H torsion
[ 10167 10162 10161 10158 ] final  170.79 input  -65.29 | X-H torsion
[ 10718 10713 10712 10709 ] final  -79.36 input   66.30 | X-H torsion
[ 10763 10752 10751 10750 ] final -127.46 input  -60.55 | X-H torsion
[ 11005 11000 10999 10996 ] final  -25.41 input  -57.11 | X-H torsion

> <Gold.Protein.ActiveResidues>
 VAL166  LYS551  ARG553  GLY616  TRP617  ASP618  TYR619  PRO620  LYS621  CYS622 
 ASP623  PHE694  ASN695  SER759  ASP760  ASP761  ALA762  ILE779  LEU786  VAL792 
 PHE793  MET794  SER795  GLU796  ALA797  LYS798  CYS799  TRP800  GLU811  SER814 

> <Gold.Protein.RotatedAtoms>
  150.7079  134.1046  159.3977 H   0  0  0  0  0  0  0  0  0  0  0  0  # atno 6907 bound_to 6896
  151.9032  135.0367  160.0517 H   0  0  0  0  0  0  0  0  0  0  0  0  # atno 6908 bound_to 6896
  152.2397  133.5089  159.5299 H   0  0  0  0  0  0  0  0  0  0  0  0  # atno 6909 bound_to 6896
  145.8740  140.8195  142.9874 H   0  0  0  0  0  0  0  0  0  0  0  0  # atno 7974 bound_to 7965
  154.4050  140.1287  156.4564 H   0  0  0  0  0  0  0  0  0  0  0  0  # atno 8008 bound_to 7997
  155.7316  140.3491  155.5042 H   0  0  0  0  0  0  0  0  0  0  0  0  # atno 8009 bound_to 7997
  155.9122  140.1038  157.1261 H   0  0  0  0  0  0  0  0  0  0  0  0  # atno 8010 bound_to 7997
  139.5028  144.3557  151.9877 H   0  0  0  0  0  0  0  0  0  0  0  0  # atno 10167 bound_to 10162
  156.0094  130.4543  150.3636 H   0  0  0  0  0  0  0  0  0  0  0  0  # atno 10718 bound_to 10713
  154.8752  135.3961  154.3598 H   0  0  0  0  0  0  0  0  0  0  0  0  # atno 10763 bound_to 10752
  153.4372  135.7026  153.6197 H   0  0  0  0  0  0  0  0  0  0  0  0  # atno 10764 bound_to 10752
  153.4794  135.3772  155.2403 H   0  0  0  0  0  0  0  0  0  0  0  0  # atno 10765 bound_to 10752
  140.8935  133.7572  156.0452 H   0  0  0  0  0  0  0  0  0  0  0  0  # atno 11005 bound_to 11000
  144.6726  140.1281  143.7445 LP  0  0  0  0  0  0  0  0  0  0  0  0  # atno 17320 bound_to 7965
  145.9103  139.2483  143.1441 LP  0  0  0  0  0  0  0  0  0  0  0  0  # atno 17321 bound_to 7965
  140.2994  144.3664  150.6065 LP  0  0  0  0  0  0  0  0  0  0  0  0  # atno 17342 bound_to 10162
  140.5885  143.2169  151.7297 LP  0  0  0  0  0  0  0  0  0  0  0  0  # atno 17343 bound_to 10162
  157.1723  131.0372  151.2789 LP  0  0  0  0  0  0  0  0  0  0  0  0  # atno 17370 bound_to 10713
  157.4218  130.7442  149.6919 LP  0  0  0  0  0  0  0  0  0  0  0  0  # atno 17371 bound_to 10713
  140.8317  134.3170  157.5346 LP  0  0  0  0  0  0  0  0  0  0  0  0  # atno 17394 bound_to 11000
  139.8732  134.9367  156.3667 LP  0  0  0  0  0  0  0  0  0  0  0  0  # atno 17395 bound_to 11000

$$$$
