AV-unprocessed.smi:1739|AV-procd|sdf|7005|dock3
  -GOLD-   22720 8213D 1   1.00000     0.00000
 Structure written by MMmdl.
 41 42  0  0  0  0  0  0  0  0  1 V2000
  144.0852  132.5723  150.2082 C   0  0  0  0  0  0  0  0  0  0  0  0
  145.2448  133.5478  150.4452 C   0  0  0  0  0  0  0  0  0  0  0  0
  144.8271  134.7159  151.1967 N   0  0  0  0  0  0  0  0  0  0  0  0
  145.5349  135.8785  151.4308 C   0  0  0  0  0  0  0  0  0  0  0  0
  144.7098  136.6694  152.1795 C   0  0  0  0  0  0  0  0  0  0  0  0
  144.9383  137.9677  152.7022 N   0  0  0  0  0  0  0  0  0  0  0  0
  146.0204  138.3981  153.3713 C   0  0  0  0  0  0  0  0  0  0  0  0
  147.0211  137.7212  153.6084 O   0  0  0  0  0  0  0  0  0  0  0  0
  145.8812  139.6761  153.7526 N   0  0  0  0  0  0  0  0  0  0  0  0
  146.8737  140.4456  154.4970 C   0  0  0  0  0  0  0  0  0  0  0  0
  148.0585  140.7995  153.5727 C   0  0  0  0  0  0  0  0  0  0  0  0
  149.2095  141.4468  154.3638 C   0  0  0  0  0  0  0  0  0  0  0  0
  149.6086  140.5384  155.4452 N   0  0  0  0  0  0  0  0  0  0  0  0
  150.7803  139.8582  155.4349 C   0  0  0  0  0  0  0  0  0  0  0  0
  151.0772  138.8614  156.5575 C   0  0  0  0  0  0  0  0  0  0  0  0
  151.6255  140.0023  154.5514 O   0  0  0  0  0  0  0  0  0  0  0  0
  148.5320  140.3629  156.4278 C   0  0  0  0  0  0  0  0  0  0  0  0
  147.3446  139.6622  155.7438 C   0  0  0  0  0  0  0  0  0  0  0  0
  143.5176  135.9218  152.3618 C   0  0  0  0  0  0  0  0  0  0  0  0
  143.5945  134.7433  151.7623 N   0  0  0  0  0  0  0  0  0  0  0  0
  144.4249  131.6936  149.6598 H   0  0  0  0  0  0  0  0  0  0  0  0
  143.2882  133.0374  149.6269 H   0  0  0  0  0  0  0  0  0  0  0  0
  143.6584  132.2318  151.1518 H   0  0  0  0  0  0  0  0  0  0  0  0
  146.0465  133.0498  150.9918 H   0  0  0  0  0  0  0  0  0  0  0  0
  145.6657  133.8761  149.4941 H   0  0  0  0  0  0  0  0  0  0  0  0
  146.5354  136.0270  151.0524 H   0  0  0  0  0  0  0  0  0  0  0  0
  144.1955  138.6361  152.5591 H   0  0  0  0  0  0  0  0  0  0  0  0
  145.0249  140.1535  153.5115 H   0  0  0  0  0  0  0  0  0  0  0  0
  146.4266  141.3844  154.8299 H   0  0  0  0  0  0  0  0  0  0  0  0
  148.4281  139.8979  153.0811 H   0  0  0  0  0  0  0  0  0  0  0  0
  147.7280  141.4713  152.7796 H   0  0  0  0  0  0  0  0  0  0  0  0
  150.0322  141.6909  153.6904 H   0  0  0  0  0  0  0  0  0  0  0  0
  148.8846  142.3969  154.7902 H   0  0  0  0  0  0  0  0  0  0  0  0
  150.3115  138.0862  156.6000 H   0  0  0  0  0  0  0  0  0  0  0  0
  151.1249  139.3681  157.5218 H   0  0  0  0  0  0  0  0  0  0  0  0
  152.0374  138.3717  156.3917 H   0  0  0  0  0  0  0  0  0  0  0  0
  148.8338  139.8033  157.3119 H   0  0  0  0  0  0  0  0  0  0  0  0
  148.2219  141.3416  156.7970 H   0  0  0  0  0  0  0  0  0  0  0  0
  146.5220  139.5516  156.4515 H   0  0  0  0  0  0  0  0  0  0  0  0
  147.6432  138.6526  155.4567 H   0  0  0  0  0  0  0  0  0  0  0  0
  142.6178  136.1883  152.8965 H   0  0  0  0  0  0  0  0  0  0  0  0
  1  2  1  0  0  0  0
  1 21  1  0  0  0  0
  1 22  1  0  0  0  0
  1 23  1  0  0  0  0
  2  3  1  0  0  0  0
  2 24  1  0  0  0  0
  2 25  1  0  0  0  0
  3 20  1  0  0  0  0
  3  4  1  0  0  0  0
  4  5  2  0  0  0  0
  4 26  1  0  0  0  0
  5  6  1  0  0  0  0
  5 19  1  0  0  0  0
  6  7  1  0  0  0  0
  6 27  1  0  0  0  0
  7  8  2  0  0  0  0
  7  9  1  0  0  0  0
  9 10  1  0  0  0  0
  9 28  1  0  0  0  0
 10 18  1  0  0  0  0
 10 11  1  0  0  0  0
 10 29  1  0  0  0  0
 11 12  1  0  0  0  0
 11 30  1  0  0  0  0
 11 31  1  0  0  0  0
 12 13  1  0  0  0  0
 12 32  1  0  0  0  0
 12 33  1  0  0  0  0
 13 14  1  0  0  0  0
 13 17  1  0  0  0  0
 14 15  1  0  0  0  0
 14 16  2  0  0  0  0
 15 34  1  0  0  0  0
 15 35  1  0  0  0  0
 15 36  1  0  0  0  0
 17 18  1  0  0  0  0
 17 37  1  0  0  0  0
 17 38  1  0  0  0  0
 18 39  1  0  0  0  0
 18 40  1  0  0  0  0
 19 20  2  0  0  0  0
 19 41  1  0  0  0  0
M  END
> <s_m_source_file>
AV-unprocessed.smi

> <i_m_source_file_index>
1739

> <i_lp_mmshare_version>
43012

> <i_f3d_flags>
0

> <s_epik_input>
W0NIM11bQ0gyXW4xW2NIXWMoW2NIXW4xKVtOSF1DKD1PKVtOSF1bQ0hdMltDSDJdW0NIMl1OKEMoPU8pW0NIM10pW0NIMl1bQ0gyXTI=

> <s_epik_cmdline>
J2VwaWtfcHl0aG9uJywgJy1waCcsICc3LjAnLCAnLXRuJywgJzgnLCAnLW1hJywgJzIwMCcsICctbWV0YWxfYmluZGluZycsICctaW1hZScsICc8aW5maWxlLm1hZT4nLCAnLW9tYWUnLCAnPG91dGZpbGUubWFlPic=

> <r_lp_tautomer_probability>
1

> <r_epik_Ionization_Penalty>
0.000185887

> <r_epik_Ionization_Penalty_Charging>
0

> <r_epik_Ionization_Penalty_Neutral>
0.000185887

> <r_epik_State_Penalty>
-0

> <r_epik_Charging_Adjusted_Penalty>
0

> <i_epik_Tot_Q>
0

> <i_epik_Tot_abs_Q>
0

> <r_epik_Metal_State_Penalty>
-0

> <b_epik_Metal_Only>
0

> <s_lp_Force_Field>
OPLS_2005

> <r_lp_Energy>
25.6807

> <b_lp_Chiralities_Consistent>
1

> <s_lp_Variant>
AV-unprocessed.smi:1739-1

> <Gold.Version>
5.8.1

> <Gold.Id.Protein>
6NUR|6NUR_protein|mol2

> <Gold.PLP.Fitness>
40.7863

> <Gold.PLP.PLP>
-30.0691

> <Gold.PLP.part.hbond>
-3.4875

> <Gold.PLP.part.metal>
0.0000

> <Gold.PLP.part.buried>
-2.3005

> <Gold.PLP.part.nonpolar>
-24.5590

> <Gold.PLP.part.repulsive>
0.9062

> <Gold.PLP.ligand.clash>
0.0000

> <Gold.PLP.ligand.torsion>
0.6267

> <Gold.PLP.Chemscore.Hbond>
2.9833

> <Gold.PLP.Chemscore.CHOScore>
1.0000

> <Gold.PLP.Chemscore.Metal>
0.0000

> <Gold.Chemscore.Hbonds>
donor molecule, donor type, donor heavy atom, donor atom, acceptor molecule, acceptor atom, score
      L1  H     6    27       P1 10175  0.98
      L1  H     9    28       P1 10175  1.00
      P1  H  7989  7998       L1    16  0.57
      L1  C     4    26       P1  7948  1.00

> <Gold.PLP.Chemscore.Internal.Correction>
0.0208

> <Gold.Rescore>
     Score         DG    S(hbond)    S(metal)    S(lipo)     H(rot)  DE(clash)    DE(int)     intcor
     17.02     -18.54       2.87        0.00      56.23       1.22       0.03       1.49       ----

> <Gold.Chemscore.Fitness>
17.0215

> <Gold.Chemscore.DG>
-18.5407

> <Gold.Chemscore.ZeroCoef>
-5.4800

> <Gold.Chemscore.Hbond>
2.8731

> <Gold.Chemscore.Metal>
0.0000

> <Gold.Chemscore.Lipo>
56.2308

> <Gold.Chemscore.Internal_Hbond>
0.0000

> <Gold.Chemscore.DEClash>
0.0309

> <Gold.Chemscore.DEInternal>
1.4883

> <Gold.Chemscore.Rot>
1.2166

> <Gold.Chemscore.Internal.Correction>
   9.000000E+99

> <Gold.Chemscore.Hbonds>
donor molecule, donor type, donor heavy atom, donor atom, acceptor molecule, acceptor atom, score
      L1  H     6    27       P1 10175  0.93
      L1  H     9    28       P1 10175  0.98
      P1  H  7989  7998       L1    16  0.56

> <Gold.Chemscore.Hbond.Weighted>
-9.5962

> <Gold.Chemscore.Metal.Weighted>
-0.0000

> <Gold.Chemscore.Lipo.Weighted>
-6.5790

> <Gold.Chemscore.Internal_Hbond.Weighted>
0.0000

> <Gold.Chemscore.DEClash.Weighted>
0.0309

> <Gold.Chemscore.DEInternal.Weighted>
1.4883

> <Gold.Chemscore.Rot.Weighted>
3.1145

> <Gold.Chemscore.Internal.Correction.Weighted>
   9.000000E+99

> <Gold.Protein.RotatedTorsions>
[ 6907 6896 6895 6894 ] final   -4.87 input  -60.11 | X-H torsion
[ 7974 7965 7964 7962 ] final   65.37 input  175.53 | X-H torsion
[ 8008 7997 7996 7995 ] final -131.76 input   59.86 | X-H torsion
[ 10167 10162 10161 10158 ] final  132.43 input  -65.29 | X-H torsion
[ 10718 10713 10712 10709 ] final -164.25 input   66.30 | X-H torsion
[ 10763 10752 10751 10750 ] final -140.67 input  -60.55 | X-H torsion
[ 11005 11000 10999 10996 ] final    1.84 input  -57.11 | X-H torsion

> <Gold.Protein.ActiveResidues>
 VAL166  LYS551  ARG553  GLY616  TRP617  ASP618  TYR619  PRO620  LYS621  CYS622 
 ASP623  PHE694  ASN695  SER759  ASP760  ASP761  ALA762  ILE779  LEU786  VAL792 
 PHE793  MET794  SER795  GLU796  ALA797  LYS798  CYS799  TRP800  GLU811  SER814 

> <Gold.Protein.RotatedAtoms>
  151.4908  135.1057  159.9802 H   0  0  0  0  0  0  0  0  0  0  0  0  # atno 6907 bound_to 6896
  152.4742  133.8095  159.7006 H   0  0  0  0  0  0  0  0  0  0  0  0  # atno 6908 bound_to 6896
  150.8769  133.7364  159.2970 H   0  0  0  0  0  0  0  0  0  0  0  0  # atno 6909 bound_to 6896
  145.8392  139.3185  143.0941 H   0  0  0  0  0  0  0  0  0  0  0  0  # atno 7974 bound_to 7965
  155.3176  140.0460  157.3038 H   0  0  0  0  0  0  0  0  0  0  0  0  # atno 8008 bound_to 7997
  154.5398  140.2284  155.8627 H   0  0  0  0  0  0  0  0  0  0  0  0  # atno 8009 bound_to 7997
  156.1870  140.3060  155.9264 H   0  0  0  0  0  0  0  0  0  0  0  0  # atno 8010 bound_to 7997
  139.5340  144.6662  151.4850 H   0  0  0  0  0  0  0  0  0  0  0  0  # atno 10167 bound_to 10162
  156.6363  130.8950  151.2987 H   0  0  0  0  0  0  0  0  0  0  0  0  # atno 10718 bound_to 10713
  154.8571  135.3546  154.5745 H   0  0  0  0  0  0  0  0  0  0  0  0  # atno 10763 bound_to 10752
  153.6357  135.7000  153.5264 H   0  0  0  0  0  0  0  0  0  0  0  0  # atno 10764 bound_to 10752
  153.3012  135.4206  155.1214 H   0  0  0  0  0  0  0  0  0  0  0  0  # atno 10765 bound_to 10752
  140.6109  133.9749  155.8177 H   0  0  0  0  0  0  0  0  0  0  0  0  # atno 11005 bound_to 11000
  145.9484  140.8927  143.0272 LP  0  0  0  0  0  0  0  0  0  0  0  0  # atno 17320 bound_to 7965
  144.6734  140.1646  143.7419 LP  0  0  0  0  0  0  0  0  0  0  0  0  # atno 17321 bound_to 7965
  140.6536  143.8646  150.6811 LP  0  0  0  0  0  0  0  0  0  0  0  0  # atno 17342 bound_to 10162
  140.2019  143.3952  152.1785 LP  0  0  0  0  0  0  0  0  0  0  0  0  # atno 17343 bound_to 10162
  157.7184  130.9527  150.1345 LP  0  0  0  0  0  0  0  0  0  0  0  0  # atno 17370 bound_to 10713
  156.2194  130.3673  149.8574 LP  0  0  0  0  0  0  0  0  0  0  0  0  # atno 17371 bound_to 10713
  141.0808  134.0065  157.3388 LP  0  0  0  0  0  0  0  0  0  0  0  0  # atno 17394 bound_to 11000
  139.9192  135.0199  156.8001 LP  0  0  0  0  0  0  0  0  0  0  0  0  # atno 17395 bound_to 11000

$$$$
