AV-unprocessed.smi:757|AV-procd|sdf|3616|dock6
  -GOLD-   22720 1 13D 1   1.00000     0.00000
 Structure written by MMmdl.
 44 45  0  0  0  0  0  0  0  0  1 V2000
  152.8946  143.7796  159.9681 C   0  0  0  0  0  0  0  0  0  0  0  0
  152.5129  142.8120  159.3286 C   0  0  0  0  0  0  0  0  0  0  0  0
  152.0537  141.6545  158.5403 C   0  0  0  0  0  0  0  0  0  0  0  0
  150.6522  141.8263  157.9162 C   0  0  0  0  0  0  0  0  0  0  0  0
  150.2564  140.7127  157.0503 N   0  0  0  0  0  0  0  0  0  0  0  0
  150.2697  139.4758  157.8350 C   0  0  0  0  0  0  0  0  0  0  0  0
  149.7612  138.2945  156.9906 C   0  0  0  0  0  0  0  0  0  0  0  0
  150.6207  138.1092  155.7293 C   0  0  0  0  0  0  0  0  0  0  0  0
  150.0548  137.0855  154.8560 N   0  0  0  0  0  0  0  0  0  0  0  0
  149.8101  135.8161  155.2104 C   0  0  0  0  0  0  0  0  0  0  0  0
  150.0214  135.3738  156.3393 O   0  0  0  0  0  0  0  0  0  0  0  0
  149.2948  135.1182  154.1839 N   0  0  0  0  0  0  0  0  0  0  0  0
  148.9426  133.7421  154.1320 C   0  0  0  0  0  0  0  0  0  0  0  0
  149.5342  132.7342  154.9307 C   0  0  0  0  0  0  0  0  0  0  0  0
  149.1106  131.4013  154.7685 C   0  0  0  0  0  0  0  0  0  0  0  0
  148.1175  131.1127  153.8117 C   0  0  0  0  0  0  0  0  0  0  0  0
  147.7089  129.8036  153.6586 O   0  0  0  0  0  0  0  0  0  0  0  0
  146.6235  129.5329  152.7788 C   0  0  0  0  0  0  0  0  0  0  0  0
  147.5546  132.0711  153.0350 N   0  0  0  0  0  0  0  0  0  0  0  0
  147.9654  133.3466  153.1954 C   0  0  0  0  0  0  0  0  0  0  0  0
  150.7031  139.4465  154.9795 C   0  0  0  0  0  0  0  0  0  0  0  0
  151.1708  140.5778  155.9114 C   0  0  0  0  0  0  0  0  0  0  0  0
  153.2276  144.6272  160.5241 H   0  0  0  0  0  0  0  0  0  0  0  0
  152.8111  141.4305  157.7903 H   0  0  0  0  0  0  0  0  0  0  0  0
  152.0395  140.8010  159.2183 H   0  0  0  0  0  0  0  0  0  0  0  0
  149.9063  141.9648  158.7003 H   0  0  0  0  0  0  0  0  0  0  0  0
  150.6558  142.7490  157.3333 H   0  0  0  0  0  0  0  0  0  0  0  0
  151.2770  139.2736  158.2032 H   0  0  0  0  0  0  0  0  0  0  0  0
  149.6267  139.5884  158.7088 H   0  0  0  0  0  0  0  0  0  0  0  0
  149.7720  137.3840  157.5908 H   0  0  0  0  0  0  0  0  0  0  0  0
  148.7206  138.4697  156.7128 H   0  0  0  0  0  0  0  0  0  0  0  0
  151.6309  137.8182  156.0246 H   0  0  0  0  0  0  0  0  0  0  0  0
  149.8418  137.3649  153.9097 H   0  0  0  0  0  0  0  0  0  0  0  0
  149.0989  135.6447  153.3451 H   0  0  0  0  0  0  0  0  0  0  0  0
  150.3094  132.9491  155.6492 H   0  0  0  0  0  0  0  0  0  0  0  0
  149.5450  130.6127  155.3650 H   0  0  0  0  0  0  0  0  0  0  0  0
  146.4241  128.4615  152.7716 H   0  0  0  0  0  0  0  0  0  0  0  0
  146.8541  129.8330  151.7557 H   0  0  0  0  0  0  0  0  0  0  0  0
  145.7116  130.0365  153.1032 H   0  0  0  0  0  0  0  0  0  0  0  0
  147.4942  134.0767  152.5535 H   0  0  0  0  0  0  0  0  0  0  0  0
  151.3879  139.3590  154.1353 H   0  0  0  0  0  0  0  0  0  0  0  0
  149.7281  139.7034  154.5620 H   0  0  0  0  0  0  0  0  0  0  0  0
  151.2041  141.5031  155.3382 H   0  0  0  0  0  0  0  0  0  0  0  0
  152.1852  140.3839  156.2636 H   0  0  0  0  0  0  0  0  0  0  0  0
  1  2  3  0  0  0  0
  1 23  1  0  0  0  0
  2  3  1  0  0  0  0
  3  4  1  0  0  0  0
  3 24  1  0  0  0  0
  3 25  1  0  0  0  0
  4  5  1  0  0  0  0
  4 26  1  0  0  0  0
  4 27  1  0  0  0  0
  5 22  1  0  0  0  0
  5  6  1  0  0  0  0
  6  7  1  0  0  0  0
  6 28  1  0  0  0  0
  6 29  1  0  0  0  0
  7  8  1  0  0  0  0
  7 30  1  0  0  0  0
  7 31  1  0  0  0  0
  8  9  1  0  0  0  0
  8 21  1  0  0  0  0
  8 32  1  0  0  0  0
  9 10  1  0  0  0  0
  9 33  1  0  0  0  0
 10 11  2  0  0  0  0
 10 12  1  0  0  0  0
 12 13  1  0  0  0  0
 12 34  1  0  0  0  0
 13 20  1  0  0  0  0
 13 14  2  0  0  0  0
 14 15  1  0  0  0  0
 14 35  1  0  0  0  0
 15 16  2  0  0  0  0
 15 36  1  0  0  0  0
 16 17  1  0  0  0  0
 16 19  1  0  0  0  0
 17 18  1  0  0  0  0
 18 37  1  0  0  0  0
 18 38  1  0  0  0  0
 18 39  1  0  0  0  0
 19 20  2  0  0  0  0
 20 40  1  0  0  0  0
 21 22  1  0  0  0  0
 21 41  1  0  0  0  0
 21 42  1  0  0  0  0
 22 43  1  0  0  0  0
 22 44  1  0  0  0  0
M  END
> <s_m_source_file>
AV-unprocessed.smi

> <i_m_source_file_index>
757

> <i_lp_mmshare_version>
43012

> <i_f3d_flags>
0

> <s_epik_input>
W0NIXSNDW0NIMl1bQ0gyXU4xW0NIMl1bQ0gyXVtDSF0oW0NIMl1bQ0gyXTEpW05IXUMoPU8pW05IXWMyW2NIXVtjSF1jKE9bQ0gzXSluW2NIXTI=

> <s_epik_cmdline>
J2VwaWtfcHl0aG9uJywgJy1waCcsICc3LjAnLCAnLXRuJywgJzgnLCAnLW1hJywgJzIwMCcsICctbWV0YWxfYmluZGluZycsICctaW1hZScsICc8aW5maWxlLm1hZT4nLCAnLW9tYWUnLCAnPG91dGZpbGUubWFlPic=

> <r_lp_tautomer_probability>
1

> <r_epik_Ionization_Penalty>
1.61445

> <r_epik_Ionization_Penalty_Charging>
0

> <r_epik_Ionization_Penalty_Neutral>
1.61445

> <r_epik_State_Penalty>
1.71357

> <r_epik_Charging_Adjusted_Penalty>
1.71357

> <i_epik_Tot_Q>
0

> <i_epik_Tot_abs_Q>
0

> <r_epik_Metal_State_Penalty>
1.71356

> <b_epik_Metal_Only>
0

> <s_lp_Force_Field>
OPLS_2005

> <r_lp_Energy>
17.5598

> <b_lp_Chiralities_Consistent>
1

> <s_lp_Variant>
AV-unprocessed.smi:757-3

> <Gold.Version>
5.8.1

> <Gold.Id.Protein>
6NUR|6NUR_protein|mol2

> <Gold.PLP.Fitness>
41.1142

> <Gold.PLP.PLP>
-36.0390

> <Gold.PLP.part.hbond>
-1.6297

> <Gold.PLP.part.metal>
0.0000

> <Gold.PLP.part.buried>
-2.5122

> <Gold.PLP.part.nonpolar>
-31.7366

> <Gold.PLP.part.repulsive>
0.7672

> <Gold.PLP.ligand.clash>
0.0000

> <Gold.PLP.ligand.torsion>
0.1866

> <Gold.PLP.Chemscore.Hbond>
1.0000

> <Gold.PLP.Chemscore.CHOScore>
0.8146

> <Gold.PLP.Chemscore.Metal>
0.0000

> <Gold.Chemscore.Hbonds>
donor molecule, donor type, donor heavy atom, donor atom, acceptor molecule, acceptor atom, score
      L1  H    12    34       P1  7948  1.00
      L1  C    20    40       P1  7948  0.52

> <Gold.PLP.Chemscore.Internal.Correction>
0.0045

> <Gold.Rescore>
     Score         DG    S(hbond)    S(metal)    S(lipo)     H(rot)  DE(clash)    DE(int)     intcor
     14.80     -17.21       1.56        0.00      89.66       1.55       0.09       2.32       ----

> <Gold.Chemscore.Fitness>
14.8020

> <Gold.Chemscore.DG>
-17.2147

> <Gold.Chemscore.ZeroCoef>
-5.4800

> <Gold.Chemscore.Hbond>
1.5618

> <Gold.Chemscore.Metal>
0.0000

> <Gold.Chemscore.Lipo>
89.6636

> <Gold.Chemscore.Internal_Hbond>
0.0000

> <Gold.Chemscore.DEClash>
0.0939

> <Gold.Chemscore.DEInternal>
2.3188

> <Gold.Chemscore.Rot>
1.5517

> <Gold.Chemscore.Internal.Correction>
   9.000000E+99

> <Gold.Chemscore.Hbonds>
donor molecule, donor type, donor heavy atom, donor atom, acceptor molecule, acceptor atom, score
      L1  H     9    33       P1  7948  0.02
      L1  H    12    34       P1  7948  0.64

> <Gold.Chemscore.Hbond.Weighted>
-5.2165

> <Gold.Chemscore.Metal.Weighted>
-0.0000

> <Gold.Chemscore.Lipo.Weighted>
-10.4906

> <Gold.Chemscore.Internal_Hbond.Weighted>
0.0000

> <Gold.Chemscore.DEClash.Weighted>
0.0939

> <Gold.Chemscore.DEInternal.Weighted>
2.3188

> <Gold.Chemscore.Rot.Weighted>
3.9725

> <Gold.Chemscore.Internal.Correction.Weighted>
   9.000000E+99

> <Gold.Protein.RotatedTorsions>
[ 6907 6896 6895 6894 ] final -106.44 input  -60.11 | X-H torsion
[ 7974 7965 7964 7962 ] final -100.75 input  175.53 | X-H torsion
[ 8008 7997 7996 7995 ] final   69.74 input   59.86 | X-H torsion
[ 10167 10162 10161 10158 ] final  141.59 input  -65.29 | X-H torsion
[ 10718 10713 10712 10709 ] final   57.29 input   66.30 | X-H torsion
[ 10763 10752 10751 10750 ] final   48.81 input  -60.55 | X-H torsion
[ 11005 11000 10999 10996 ] final  172.51 input  -57.11 | X-H torsion

> <Gold.Protein.ActiveResidues>
 VAL166  LYS551  ARG553  GLY616  TRP617  ASP618  TYR619  PRO620  LYS621  CYS622 
 ASP623  PHE694  ASN695  SER759  ASP760  ASP761  ALA762  ILE779  LEU786  VAL792 
 PHE793  MET794  SER795  GLU796  ALA797  LYS798  CYS799  TRP800  GLU811  SER814 

> <Gold.Protein.RotatedAtoms>
  150.7389  133.9976  159.3627 H   0  0  0  0  0  0  0  0  0  0  0  0  # atno 6907 bound_to 6896
  151.7928  135.0729  160.0399 H   0  0  0  0  0  0  0  0  0  0  0  0  # atno 6908 bound_to 6896
  152.3196  133.5802  159.5771 H   0  0  0  0  0  0  0  0  0  0  0  0  # atno 6909 bound_to 6896
  145.2905  140.9351  143.2880 H   0  0  0  0  0  0  0  0  0  0  0  0  # atno 7974 bound_to 7965
  155.7282  140.3492  155.5047 H   0  0  0  0  0  0  0  0  0  0  0  0  # atno 8008 bound_to 7997
  155.9207  140.1066  157.1231 H   0  0  0  0  0  0  0  0  0  0  0  0  # atno 8009 bound_to 7997
  154.4069  140.1250  156.4662 H   0  0  0  0  0  0  0  0  0  0  0  0  # atno 8010 bound_to 7997
  139.5016  144.6161  151.6160 H   0  0  0  0  0  0  0  0  0  0  0  0  # atno 10167 bound_to 10162
  157.5502  130.8760  149.8951 H   0  0  0  0  0  0  0  0  0  0  0  0  # atno 10718 bound_to 10713
  152.9790  135.5932  154.3986 H   0  0  0  0  0  0  0  0  0  0  0  0  # atno 10763 bound_to 10752
  154.3634  135.2767  155.2309 H   0  0  0  0  0  0  0  0  0  0  0  0  # atno 10764 bound_to 10752
  154.4296  135.6039  153.6115 H   0  0  0  0  0  0  0  0  0  0  0  0  # atno 10765 bound_to 10752
  140.3305  134.7361  157.4131 H   0  0  0  0  0  0  0  0  0  0  0  0  # atno 11005 bound_to 11000
  144.9177  139.4450  143.6556 LP  0  0  0  0  0  0  0  0  0  0  0  0  # atno 17320 bound_to 7965
  146.3186  139.8019  142.8963 LP  0  0  0  0  0  0  0  0  0  0  0  0  # atno 17321 bound_to 7965
  140.5850  143.9880  150.6290 LP  0  0  0  0  0  0  0  0  0  0  0  0  # atno 17342 bound_to 10162
  140.3042  143.3241  152.0942 LP  0  0  0  0  0  0  0  0  0  0  0  0  # atno 17343 bound_to 10162
  156.0570  130.3706  150.1069 LP  0  0  0  0  0  0  0  0  0  0  0  0  # atno 17370 bound_to 10713
  156.9242  130.9693  151.3543 LP  0  0  0  0  0  0  0  0  0  0  0  0  # atno 17371 bound_to 10713
  140.0864  134.5660  155.8488 LP  0  0  0  0  0  0  0  0  0  0  0  0  # atno 17394 bound_to 11000
  141.2064  133.6655  156.6242 LP  0  0  0  0  0  0  0  0  0  0  0  0  # atno 17395 bound_to 11000

$$$$
