AV-unprocessed.smi:1703|AV-procd|sdf|6859|dock5
  -GOLD-   22720 8 43D 1   1.00000     0.00000
 Structure written by MMmdl.
 49 51  0  0  0  0  0  0  0  0  2 V2000
  145.9946  137.6554  152.2085 C   0  0  0  0  0  0  0  0  0  0  0  0
  146.3714  138.2245  153.5808 C   0  0  2  0  0  0  0  0  0  0  0  0
  147.5547  139.2055  153.4932 C   0  0  0  0  0  0  0  0  0  0  0  0
  147.9453  139.6635  154.8457 N   0  3  2  0  0  0  0  0  0  0  0  0
  149.0067  140.7008  154.8162 C   0  0  0  0  0  0  0  0  0  0  0  0
  149.4021  141.1713  156.2328 C   0  0  2  0  0  0  0  0  0  0  0  0
  148.3856  142.0155  156.7344 O   0  0  0  0  0  0  0  0  0  0  0  0
  150.7312  141.9509  156.2798 C   0  0  0  0  0  0  0  0  0  0  0  0
  151.4007  141.8375  157.5690 N   0  0  0  0  0  0  0  0  0  0  0  0
  152.0031  140.7527  158.1207 C   0  0  0  0  0  0  0  0  0  0  0  0
  152.0670  139.4269  157.4264 C   0  0  0  0  0  0  0  0  0  0  0  0
  153.3900  138.9704  157.2447 O   0  0  0  0  0  0  0  0  0  0  0  0
  152.5353  140.9375  159.3291 N   0  0  0  0  0  0  0  0  0  0  0  0
  152.2649  142.2678  159.5814 C   0  0  0  0  0  0  0  0  0  0  0  0
  152.5744  143.0716  160.7019 C   0  0  0  0  0  0  0  0  0  0  0  0
  152.1892  144.4278  160.7355 C   0  0  0  0  0  0  0  0  0  0  0  0
  151.4909  144.9987  159.6518 C   0  0  0  0  0  0  0  0  0  0  0  0
  151.1727  144.2154  158.5257 C   0  0  0  0  0  0  0  0  0  0  0  0
  151.5580  142.8617  158.4978 C   0  0  0  0  0  0  0  0  0  0  0  0
  148.2775  138.5003  155.7046 C   0  0  0  0  0  0  0  0  0  0  0  0
  147.1085  137.4975  155.7520 C   0  0  1  0  0  0  0  0  0  0  0  0
  145.9186  137.9824  156.5992 C   0  0  0  0  0  0  0  0  0  0  0  0
  146.7192  137.1321  154.4278 O   0  0  0  0  0  0  0  0  0  0  0  0
  145.7079  138.4494  151.5185 H   0  0  0  0  0  0  0  0  0  0  0  0
  145.1529  136.9671  152.2898 H   0  0  0  0  0  0  0  0  0  0  0  0
  146.8279  137.1103  151.7640 H   0  0  0  0  0  0  0  0  0  0  0  0
  145.4986  138.7390  153.9833 H   0  0  0  0  0  0  0  0  0  0  0  0
  148.4096  138.7316  153.0077 H   0  0  0  0  0  0  0  0  0  0  0  0
  147.2716  140.0627  152.8810 H   0  0  0  0  0  0  0  0  0  0  0  0
  149.8666  140.3030  154.2759 H   0  0  0  0  0  0  0  0  0  0  0  0
  148.6665  141.5670  154.2465 H   0  0  0  0  0  0  0  0  0  0  0  0
  149.4812  140.3173  156.9042 H   0  0  0  0  0  0  0  0  0  0  0  0
  148.6957  142.9085  156.7152 H   0  0  0  0  0  0  0  0  0  0  0  0
  151.3979  141.6144  155.4866 H   0  0  0  0  0  0  0  0  0  0  0  0
  150.5491  143.0099  156.0905 H   0  0  0  0  0  0  0  0  0  0  0  0
  151.5214  138.6862  158.0123 H   0  0  0  0  0  0  0  0  0  0  0  0
  151.5666  139.4910  156.4604 H   0  0  0  0  0  0  0  0  0  0  0  0
  153.3779  138.0273  157.1847 H   0  0  0  0  0  0  0  0  0  0  0  0
  153.1107  142.6444  161.5362 H   0  0  0  0  0  0  0  0  0  0  0  0
  152.4323  145.0334  161.5962 H   0  0  0  0  0  0  0  0  0  0  0  0
  151.2016  146.0389  159.6851 H   0  0  0  0  0  0  0  0  0  0  0  0
  150.6407  144.6516  157.6933 H   0  0  0  0  0  0  0  0  0  0  0  0
  149.1647  138.0056  155.3058 H   0  0  0  0  0  0  0  0  0  0  0  0
  148.5280  138.8197  156.7157 H   0  0  0  0  0  0  0  0  0  0  0  0
  147.4756  136.5837  156.2205 H   0  0  0  0  0  0  0  0  0  0  0  0
  146.2203  138.1345  157.6357 H   0  0  0  0  0  0  0  0  0  0  0  0
  145.1139  137.2469  156.5960 H   0  0  0  0  0  0  0  0  0  0  0  0
  145.5106  138.9268  156.2406 H   0  0  0  0  0  0  0  0  0  0  0  0
  147.1279  140.1050  155.2431 H   0  0  0  0  0  0  0  0  0  0  0  0
  1  2  1  0  0  0  0
  1 24  1  0  0  0  0
  1 25  1  0  0  0  0
  1 26  1  0  0  0  0
  2 23  1  0  0  0  0
  2  3  1  0  0  0  0
  2 27  1  0  0  0  0
  3  4  1  0  0  0  0
  3 28  1  0  0  0  0
  3 29  1  0  0  0  0
  4  5  1  0  0  0  0
  4 20  1  0  0  0  0
  4 49  1  0  0  0  0
  5  6  1  0  0  0  0
  5 30  1  0  0  0  0
  5 31  1  0  0  0  0
  6  7  1  0  0  0  0
  6  8  1  0  0  0  0
  6 32  1  0  0  0  0
  7 33  1  0  0  0  0
  8  9  1  0  0  0  0
  8 34  1  0  0  0  0
  8 35  1  0  0  0  0
  9 19  1  0  0  0  0
  9 10  1  0  0  0  0
 10 11  1  0  0  0  0
 10 13  2  0  0  0  0
 11 12  1  0  0  0  0
 11 36  1  0  0  0  0
 11 37  1  0  0  0  0
 12 38  1  0  0  0  0
 13 14  1  0  0  0  0
 14 19  2  0  0  0  0
 14 15  1  0  0  0  0
 15 16  2  0  0  0  0
 15 39  1  0  0  0  0
 16 17  1  0  0  0  0
 16 40  1  0  0  0  0
 17 18  2  0  0  0  0
 17 41  1  0  0  0  0
 18 19  1  0  0  0  0
 18 42  1  0  0  0  0
 20 21  1  0  0  0  0
 20 43  1  0  0  0  0
 20 44  1  0  0  0  0
 21 22  1  0  0  0  0
 21 23  1  0  0  0  0
 21 45  1  0  0  0  0
 22 46  1  0  0  0  0
 22 47  1  0  0  0  0
 22 48  1  0  0  0  0
M  CHG  1   4   1
M  END
> <s_m_source_file>
AV-unprocessed.smi

> <i_m_source_file_index>
1703

> <i_lp_mmshare_version>
43012

> <i_f3d_flags>
0

> <s_epik_input>
W0NIM11bQ0BASF0xW0NIMl1OKFtDSDJdW0NASF0oTzEpW0NIM10pW0NIMl1bQ0BIXShbT0hdKVtDSDJdbihjKG4yKVtDSDJdW09IXSljKGMyMylbY0hdW2NIXVtjSF1bY0hdMw==

> <s_epik_cmdline>
J2VwaWtfcHl0aG9uJywgJy1waCcsICc3LjAnLCAnLXRuJywgJzgnLCAnLW1hJywgJzIwMCcsICctbWV0YWxfYmluZGluZycsICctaW1hZScsICc8aW5maWxlLm1hZT4nLCAnLW9tYWUnLCAnPG91dGZpbGUubWFlPic=

> <r_epik_Ionization_Penalty>
0.655661

> <r_epik_Ionization_Penalty_Charging>
0.608065

> <r_epik_Ionization_Penalty_Neutral>
0.0475963

> <r_epik_State_Penalty>
0.695267

> <r_epik_Charging_Adjusted_Penalty>
1.30333

> <i_epik_Tot_Q>
1

> <i_epik_Tot_abs_Q>
1

> <r_epik_Metal_State_Penalty>
0.653591

> <b_epik_Metal_Only>
0

> <s_lp_Force_Field>
OPLS_2005

> <r_lp_Energy>
25.4362

> <b_lp_Chiralities_Consistent>
1

> <s_lp_Variant>
AV-unprocessed.smi:1703-7

> <Gold.Version>
5.8.1

> <Gold.Id.Protein>
6NUR|6NUR_protein|mol2

> <Gold.PLP.Fitness>
45.7705

> <Gold.PLP.PLP>
-40.7454

> <Gold.PLP.part.hbond>
-2.0000

> <Gold.PLP.part.metal>
0.0000

> <Gold.PLP.part.buried>
-6.0288

> <Gold.PLP.part.nonpolar>
-33.7196

> <Gold.PLP.part.repulsive>
0.0801

> <Gold.PLP.ligand.clash>
0.0000

> <Gold.PLP.ligand.torsion>
0.5229

> <Gold.PLP.Chemscore.Hbond>
2.0000

> <Gold.PLP.Chemscore.CHOScore>
0.0000

> <Gold.PLP.Chemscore.Metal>
0.0000

> <Gold.Chemscore.Hbonds>
donor molecule, donor type, donor heavy atom, donor atom, acceptor molecule, acceptor atom, score
      L1  H     7    33       P1  8028  0.81
      P1  H  7997  8010       L1    12  1.00

> <Gold.PLP.Chemscore.Internal.Correction>
0.0709

> <Gold.Rescore>
     Score         DG    S(hbond)    S(metal)    S(lipo)     H(rot)  DE(clash)    DE(int)     intcor
     16.96     -17.67       1.94        0.00     113.52       2.96       0.02       0.69       ----

> <Gold.Chemscore.Fitness>
16.9576

> <Gold.Chemscore.DG>
-17.6690

> <Gold.Chemscore.ZeroCoef>
-5.4800

> <Gold.Chemscore.Hbond>
1.9422

> <Gold.Chemscore.Metal>
0.0000

> <Gold.Chemscore.Lipo>
113.5242

> <Gold.Chemscore.Internal_Hbond>
0.0000

> <Gold.Chemscore.DEClash>
0.0246

> <Gold.Chemscore.DEInternal>
0.6867

> <Gold.Chemscore.Rot>
2.9611

> <Gold.Chemscore.Internal.Correction>
   9.000000E+99

> <Gold.Chemscore.Hbonds>
donor molecule, donor type, donor heavy atom, donor atom, acceptor molecule, acceptor atom, score
      L1  H     7    33       P1  8028  0.68
      P1  H  7997  8010       L1    12  0.90

> <Gold.Chemscore.Hbond.Weighted>
-6.4870

> <Gold.Chemscore.Metal.Weighted>
-0.0000

> <Gold.Chemscore.Lipo.Weighted>
-13.2823

> <Gold.Chemscore.Internal_Hbond.Weighted>
0.0000

> <Gold.Chemscore.DEClash.Weighted>
0.0246

> <Gold.Chemscore.DEInternal.Weighted>
0.6867

> <Gold.Chemscore.Rot.Weighted>
7.5803

> <Gold.Chemscore.Internal.Correction.Weighted>
   9.000000E+99

> <Gold.Protein.RotatedTorsions>
[ 6907 6896 6895 6894 ] final  -80.64 input  -60.11 | X-H torsion
[ 7974 7965 7964 7962 ] final    7.92 input  175.53 | X-H torsion
[ 8008 7997 7996 7995 ] final   56.17 input   59.86 | X-H torsion
[ 10167 10162 10161 10158 ] final -132.94 input  -65.29 | X-H torsion
[ 10718 10713 10712 10709 ] final    9.98 input   66.30 | X-H torsion
[ 10763 10752 10751 10750 ] final -106.93 input  -60.55 | X-H torsion
[ 11005 11000 10999 10996 ] final   47.20 input  -57.11 | X-H torsion

> <Gold.Protein.ActiveResidues>
 VAL166  LYS551  ARG553  GLY616  TRP617  ASP618  TYR619  PRO620  LYS621  CYS622 
 ASP623  PHE694  ASN695  SER759  ASP760  ASP761  ALA762  ILE779  LEU786  VAL792 
 PHE793  MET794  SER795  GLU796  ALA797  LYS798  CYS799  TRP800  GLU811  SER814 

> <Gold.Protein.RotatedAtoms>
  150.6926  134.3939  159.5088 H   0  0  0  0  0  0  0  0  0  0  0  0  # atno 6907 bound_to 6896
  152.1723  134.8821  160.0542 H   0  0  0  0  0  0  0  0  0  0  0  0  # atno 6908 bound_to 6896
  151.9842  133.3733  159.4156 H   0  0  0  0  0  0  0  0  0  0  0  0  # atno 6909 bound_to 6896
  146.2422  140.0011  142.8416 H   0  0  0  0  0  0  0  0  0  0  0  0  # atno 7974 bound_to 7965
  155.5130  140.3477  155.4392 H   0  0  0  0  0  0  0  0  0  0  0  0  # atno 8008 bound_to 7997
  156.0836  140.1393  156.9708 H   0  0  0  0  0  0  0  0  0  0  0  0  # atno 8009 bound_to 7997
  154.4594  140.0941  156.6826 H   0  0  0  0  0  0  0  0  0  0  0  0  # atno 8010 bound_to 7997
  139.9034  143.6580  152.2590 H   0  0  0  0  0  0  0  0  0  0  0  0  # atno 10167 bound_to 10162
  156.9742  130.5981  149.5671 H   0  0  0  0  0  0  0  0  0  0  0  0  # atno 10718 bound_to 10713
  154.8043  135.4694  154.0354 H   0  0  0  0  0  0  0  0  0  0  0  0  # atno 10763 bound_to 10752
  153.1835  135.6844  153.8454 H   0  0  0  0  0  0  0  0  0  0  0  0  # atno 10764 bound_to 10752
  153.7996  135.3232  155.3366 H   0  0  0  0  0  0  0  0  0  0  0  0  # atno 10765 bound_to 10752
  140.1300  134.4718  155.8529 H   0  0  0  0  0  0  0  0  0  0  0  0  # atno 11005 bound_to 11000
  145.1415  140.9574  143.4486 LP  0  0  0  0  0  0  0  0  0  0  0  0  # atno 17320 bound_to 7965
  145.0292  139.3356  143.6033 LP  0  0  0  0  0  0  0  0  0  0  0  0  # atno 17321 bound_to 7965
  139.7005  144.7635  151.1281 LP  0  0  0  0  0  0  0  0  0  0  0  0  # atno 17342 bound_to 10162
  140.7702  143.5464  150.9254 LP  0  0  0  0  0  0  0  0  0  0  0  0  # atno 17343 bound_to 10162
  156.0270  130.5363  150.8433 LP  0  0  0  0  0  0  0  0  0  0  0  0  # atno 17370 bound_to 10713
  157.5571  131.0945  150.9613 LP  0  0  0  0  0  0  0  0  0  0  0  0  # atno 17371 bound_to 10713
  141.2168  133.6792  156.7051 LP  0  0  0  0  0  0  0  0  0  0  0  0  # atno 17394 bound_to 11000
  140.2854  134.8283  157.3970 LP  0  0  0  0  0  0  0  0  0  0  0  0  # atno 17395 bound_to 11000

$$$$
