AV-unprocessed.smi:290|AV-procd|sdf|2216|dock2
  -GOLD-   2262022 53D 1   1.00000     0.00000
 Structure written by MMmdl.
 59 62  0  0  0  0  0  0  0  0  2 V2000
  150.3784  142.7711  157.4202 C   0  0  0  0  0  0  0  0  0  0  0  0
  151.4559  143.5977  158.1407 C   0  0  1  0  0  0  0  0  0  0  0  0
  150.9352  144.8556  158.5454 O   0  0  0  0  0  0  0  0  0  0  0  0
  151.8249  145.3792  159.5146 C   0  0  0  0  0  0  0  0  0  0  0  0
  152.1099  144.1695  160.3966 C   0  0  0  0  0  0  0  0  0  0  0  0
  152.0764  142.9856  159.4249 C   0  0  1  0  0  0  0  0  0  0  0  0
  151.2456  141.9811  159.9841 O   0  0  0  0  0  0  0  0  0  0  0  0
  153.4834  142.3802  159.1950 C   0  0  0  0  0  0  0  0  0  0  0  0
  154.0057  141.6686  160.3522 N   0  0  0  0  0  0  0  0  0  0  0  0
  153.7728  141.9663  161.6766 C   0  0  0  0  0  0  0  0  0  0  0  0
  154.3486  141.1719  162.5370 N   0  0  0  0  0  0  0  0  0  0  0  0
  155.0389  140.2621  161.7457 C   0  0  0  0  0  0  0  0  0  0  0  0
  155.8673  139.1372  162.0163 C   0  0  0  0  0  0  0  0  0  0  0  0
  156.1758  138.6878  163.2512 N   0  0  0  0  0  0  0  0  0  0  0  0
  155.0901  137.9983  163.9460 C   0  0  0  0  0  0  0  0  0  0  0  0
  155.2757  138.2997  165.4349 C   0  0  0  0  0  0  0  0  0  0  0  0
  155.8867  139.7017  165.3771 C   0  0  1  0  0  0  0  0  0  0  0  0
  156.4717  140.2652  166.6336 N   0  3  1  0  0  0  0  0  0  0  0  0
  157.1773  141.5458  166.3785 C   0  0  0  0  0  0  0  0  0  0  0  0
  155.5412  140.3519  167.7945 C   0  0  0  0  0  0  0  0  0  0  0  0
  154.8269  141.7120  167.8926 C   0  0  0  0  0  0  0  0  0  0  0  0
  154.0817  141.7866  169.0892 O   0  0  0  0  0  0  0  0  0  0  0  0
  156.8161  139.6501  164.1476 C   0  0  1  0  0  0  0  0  0  0  0  0
  158.2698  139.2194  164.4022 C   0  0  0  0  0  0  0  0  0  0  0  0
  156.3868  138.4593  160.9649 N   0  0  0  0  0  0  0  0  0  0  0  0
  156.1204  138.8586  159.7174 C   0  0  0  0  0  0  0  0  0  0  0  0
  155.3712  139.8864  159.3115 N   0  0  0  0  0  0  0  0  0  0  0  0
  154.8409  140.5647  160.3695 C   0  0  0  0  0  0  0  0  0  0  0  0
  155.0743  140.3668  165.0789 H   0  0  0  0  0  0  0  0  0  0  0  0
  156.8485  140.6428  163.6954 H   0  0  0  0  0  0  0  0  0  0  0  0
  150.7634  141.7952  157.1236 H   0  0  0  0  0  0  0  0  0  0  0  0
  150.0419  143.2810  156.5175 H   0  0  0  0  0  0  0  0  0  0  0  0
  149.5041  142.6129  158.0521 H   0  0  0  0  0  0  0  0  0  0  0  0
  152.2509  143.8220  157.4289 H   0  0  0  0  0  0  0  0  0  0  0  0
  152.7352  145.7341  159.0286 H   0  0  0  0  0  0  0  0  0  0  0  0
  151.3805  146.2082  160.0656 H   0  0  0  0  0  0  0  0  0  0  0  0
  153.0534  144.2650  160.9351 H   0  0  0  0  0  0  0  0  0  0  0  0
  151.3177  144.0873  161.1429 H   0  0  0  0  0  0  0  0  0  0  0  0
  151.7950  141.2877  160.3160 H   0  0  0  0  0  0  0  0  0  0  0  0
  153.4602  141.6903  158.3504 H   0  0  0  0  0  0  0  0  0  0  0  0
  154.1947  143.1628  158.9277 H   0  0  0  0  0  0  0  0  0  0  0  0
  153.1506  142.7934  161.9864 H   0  0  0  0  0  0  0  0  0  0  0  0
  154.1202  138.3661  163.6071 H   0  0  0  0  0  0  0  0  0  0  0  0
  155.1239  136.9262  163.7501 H   0  0  0  0  0  0  0  0  0  0  0  0
  154.3398  138.2617  165.9929 H   0  0  0  0  0  0  0  0  0  0  0  0
  155.9587  137.5656  165.8611 H   0  0  0  0  0  0  0  0  0  0  0  0
  156.4767  142.3162  166.0539 H   0  0  0  0  0  0  0  0  0  0  0  0
  157.9335  141.4252  165.6018 H   0  0  0  0  0  0  0  0  0  0  0  0
  157.6972  141.9091  167.2632 H   0  0  0  0  0  0  0  0  0  0  0  0
  154.8056  139.5489  167.7285 H   0  0  0  0  0  0  0  0  0  0  0  0
  156.0746  140.1965  168.7301 H   0  0  0  0  0  0  0  0  0  0  0  0
  155.5174  142.5520  167.8365 H   0  0  0  0  0  0  0  0  0  0  0  0
  154.1362  141.8231  167.0566 H   0  0  0  0  0  0  0  0  0  0  0  0
  153.7913  142.6783  169.2098 H   0  0  0  0  0  0  0  0  0  0  0  0
  158.7784  139.9055  165.0781 H   0  0  0  0  0  0  0  0  0  0  0  0
  158.8348  139.2125  163.4698 H   0  0  0  0  0  0  0  0  0  0  0  0
  158.3281  138.2143  164.8202 H   0  0  0  0  0  0  0  0  0  0  0  0
  156.5717  138.2705  158.9321 H   0  0  0  0  0  0  0  0  0  0  0  0
  157.1906  139.6095  166.9060 H   0  0  0  0  0  0  0  0  0  0  0  0
  1  2  1  0  0  0  0
  1 31  1  0  0  0  0
  1 32  1  0  0  0  0
  1 33  1  0  0  0  0
  2  6  1  0  0  0  0
  2  3  1  0  0  0  0
  2 34  1  0  0  0  0
  3  4  1  0  0  0  0
  4  5  1  0  0  0  0
  4 35  1  0  0  0  0
  4 36  1  0  0  0  0
  5  6  1  0  0  0  0
  5 37  1  0  0  0  0
  5 38  1  0  0  0  0
  6  7  1  0  0  0  0
  6  8  1  0  0  0  0
  7 39  1  0  0  0  0
  8  9  1  0  0  0  0
  8 40  1  0  0  0  0
  8 41  1  0  0  0  0
  9 28  1  0  0  0  0
  9 10  1  0  0  0  0
 10 11  2  0  0  0  0
 10 42  1  0  0  0  0
 11 12  1  0  0  0  0
 12 28  2  0  0  0  0
 12 13  1  0  0  0  0
 13 14  1  0  0  0  0
 13 25  2  0  0  0  0
 14 23  1  0  0  0  0
 14 15  1  0  0  0  0
 15 16  1  0  0  0  0
 15 43  1  0  0  0  0
 15 44  1  0  0  0  0
 16 17  1  0  0  0  0
 16 45  1  0  0  0  0
 16 46  1  0  0  0  0
 17 29  1  0  0  0  0
 17 18  1  0  0  0  0
 17 23  1  0  0  0  0
 18 19  1  0  0  0  0
 18 20  1  0  0  0  0
 18 59  1  0  0  0  0
 19 47  1  0  0  0  0
 19 48  1  0  0  0  0
 19 49  1  0  0  0  0
 20 21  1  0  0  0  0
 20 50  1  0  0  0  0
 20 51  1  0  0  0  0
 21 22  1  0  0  0  0
 21 52  1  0  0  0  0
 21 53  1  0  0  0  0
 22 54  1  0  0  0  0
 23 30  1  0  0  0  0
 23 24  1  0  0  0  0
 24 55  1  0  0  0  0
 24 56  1  0  0  0  0
 24 57  1  0  0  0  0
 25 26  1  0  0  0  0
 26 27  2  0  0  0  0
 26 58  1  0  0  0  0
 27 28  1  0  0  0  0
M  CHG  1  18   1
M  END
> <s_m_source_file>
AV-unprocessed.smi

> <i_m_source_file_index>
290

> <i_lp_mmshare_version>
43012

> <i_f3d_flags>
0

> <s_epik_input>
W0NIMl0xW0NIMl1PW0NAQEhdKFtDSDNdKVtDQEBdMShbT0hdKVtDSDJdbihbY0hdbjIpYyhjMjMpbltjSF1uYzNONFtDSDJdW0NIMl1bQ0BIXShbQ0BIXTRbQ0gzXSlOKFtDSDNdKVtDSDJdW0NIMl1bT0hd

> <s_epik_cmdline>
J2VwaWtfcHl0aG9uJywgJy1waCcsICc3LjAnLCAnLXRuJywgJzgnLCAnLW1hJywgJzIwMCcsICctbWV0YWxfYmluZGluZycsICctaW1hZScsICc8aW5maWxlLm1hZT4nLCAnLW9tYWUnLCAnPG91dGZpbGUubWFlPic=

> <r_lp_tautomer_probability>
1

> <r_epik_Ionization_Penalty>
0.0036983

> <r_epik_Ionization_Penalty_Charging>
0.0032725

> <r_epik_Ionization_Penalty_Neutral>
0.000425798

> <r_epik_State_Penalty>
-0

> <r_epik_Charging_Adjusted_Penalty>
0.0032725

> <i_epik_Tot_Q>
1

> <i_epik_Tot_abs_Q>
1

> <r_epik_Metal_State_Penalty>
-0

> <b_epik_Metal_Only>
0

> <s_lp_Force_Field>
OPLS_2005

> <r_lp_Energy>
65.8888

> <b_lp_Chiralities_Consistent>
1

> <s_lp_Variant>
AV-unprocessed.smi:290-2

> <Gold.Version>
5.8.1

> <Gold.Id.Protein>
6NUR|6NUR_protein|mol2

> <Gold.PLP.Fitness>
50.1211

> <Gold.PLP.PLP>
-48.8585

> <Gold.PLP.part.hbond>
-4.5878

> <Gold.PLP.part.metal>
0.0000

> <Gold.PLP.part.buried>
-5.3458

> <Gold.PLP.part.nonpolar>
-39.1470

> <Gold.PLP.part.repulsive>
0.2050

> <Gold.PLP.ligand.clash>
0.0000

> <Gold.PLP.ligand.torsion>
1.0091

> <Gold.PLP.Chemscore.Hbond>
1.0000

> <Gold.PLP.Chemscore.CHOScore>
0.0000

> <Gold.PLP.Chemscore.Metal>
0.0000

> <Gold.Chemscore.Hbonds>
donor molecule, donor type, donor heavy atom, donor atom, acceptor molecule, acceptor atom, score
      P1  H  7997  8009       L1    27  1.00

> <Gold.PLP.Chemscore.Internal.Correction>
0.2809

> <Gold.Rescore>
     Score         DG    S(hbond)    S(metal)    S(lipo)     H(rot)  DE(clash)    DE(int)     intcor
      8.93     -10.87       0.84        0.00     102.37       3.67       0.56       1.38       ----

> <Gold.Chemscore.Fitness>
8.9344

> <Gold.Chemscore.DG>
-10.8701

> <Gold.Chemscore.ZeroCoef>
-5.4800

> <Gold.Chemscore.Hbond>
0.8373

> <Gold.Chemscore.Metal>
0.0000

> <Gold.Chemscore.Lipo>
102.3750

> <Gold.Chemscore.Internal_Hbond>
0.0000

> <Gold.Chemscore.DEClash>
0.5588

> <Gold.Chemscore.DEInternal>
1.3769

> <Gold.Chemscore.Rot>
3.6658

> <Gold.Chemscore.Internal.Correction>
   9.000000E+99

> <Gold.Chemscore.Hbonds>
donor molecule, donor type, donor heavy atom, donor atom, acceptor molecule, acceptor atom, score
      P1  H  7997  8009       L1    27  0.66

> <Gold.Chemscore.Hbond.Weighted>
-2.7967

> <Gold.Chemscore.Metal.Weighted>
-0.0000

> <Gold.Chemscore.Lipo.Weighted>
-11.9779

> <Gold.Chemscore.Internal_Hbond.Weighted>
0.0000

> <Gold.Chemscore.DEClash.Weighted>
0.5588

> <Gold.Chemscore.DEInternal.Weighted>
1.3769

> <Gold.Chemscore.Rot.Weighted>
9.3844

> <Gold.Chemscore.Internal.Correction.Weighted>
   9.000000E+99

> <Gold.Protein.RotatedTorsions>
[ 6907 6896 6895 6894 ] final  -50.25 input  -60.11 | X-H torsion
[ 7974 7965 7964 7962 ] final -160.05 input  175.53 | X-H torsion
[ 8008 7997 7996 7995 ] final   94.48 input   59.86 | X-H torsion
[ 10167 10162 10161 10158 ] final  120.46 input  -65.29 | X-H torsion
[ 10718 10713 10712 10709 ] final -112.09 input   66.30 | X-H torsion
[ 10763 10752 10751 10750 ] final  162.90 input  -60.55 | X-H torsion
[ 11005 11000 10999 10996 ] final  -95.10 input  -57.11 | X-H torsion

> <Gold.Protein.ActiveResidues>
 VAL166  LYS551  ARG553  GLY616  TRP617  ASP618  TYR619  PRO620  LYS621  CYS622 
 ASP623  PHE694  ASN695  SER759  ASP760  ASP761  ALA762  ILE779  LEU786  VAL792 
 PHE793  MET794  SER795  GLU796  ALA797  LYS798  CYS799  TRP800  GLU811  SER814 

> <Gold.Protein.RotatedAtoms>
  150.8726  134.8102  159.7165 H   0  0  0  0  0  0  0  0  0  0  0  0  # atno 6907 bound_to 6896
  152.4725  134.4923  159.9709 H   0  0  0  0  0  0  0  0  0  0  0  0  # atno 6908 bound_to 6896
  151.5009  133.3466  159.2904 H   0  0  0  0  0  0  0  0  0  0  0  0  # atno 6909 bound_to 6896
  144.7441  140.3597  143.6099 H   0  0  0  0  0  0  0  0  0  0  0  0  # atno 7974 bound_to 7965
  156.0584  140.3299  155.7432 H   0  0  0  0  0  0  0  0  0  0  0  0  # atno 8008 bound_to 7997
  155.5494  140.0609  157.2871 H   0  0  0  0  0  0  0  0  0  0  0  0  # atno 8009 bound_to 7997
  154.4469  140.1897  156.0659 H   0  0  0  0  0  0  0  0  0  0  0  0  # atno 8010 bound_to 7997
  139.5980  144.7048  151.3129 H   0  0  0  0  0  0  0  0  0  0  0  0  # atno 10167 bound_to 10162
  156.0685  130.5901  150.8461 H   0  0  0  0  0  0  0  0  0  0  0  0  # atno 10718 bound_to 10713
  154.2855  135.2762  155.2678 H   0  0  0  0  0  0  0  0  0  0  0  0  # atno 10763 bound_to 10752
  154.5180  135.5764  153.6661 H   0  0  0  0  0  0  0  0  0  0  0  0  # atno 10764 bound_to 10752
  152.9922  135.6197  154.3017 H   0  0  0  0  0  0  0  0  0  0  0  0  # atno 10765 bound_to 10752
  141.1451  133.8002  157.0389 H   0  0  0  0  0  0  0  0  0  0  0  0  # atno 11005 bound_to 11000
  145.7191  139.1705  143.2495 LP  0  0  0  0  0  0  0  0  0  0  0  0  # atno 17320 bound_to 7965
  146.1291  140.7209  142.9421 LP  0  0  0  0  0  0  0  0  0  0  0  0  # atno 17321 bound_to 7965
  140.7228  143.7089  150.7785 LP  0  0  0  0  0  0  0  0  0  0  0  0  # atno 17342 bound_to 10162
  140.0660  143.5108  152.2604 LP  0  0  0  0  0  0  0  0  0  0  0  0  # atno 17343 bound_to 10162
  157.5741  131.0946  150.9372 LP  0  0  0  0  0  0  0  0  0  0  0  0  # atno 17370 bound_to 10713
  156.9582  130.5445  149.5285 LP  0  0  0  0  0  0  0  0  0  0  0  0  # atno 17371 bound_to 10713
  140.0705  134.9704  157.1460 LP  0  0  0  0  0  0  0  0  0  0  0  0  # atno 17394 bound_to 11000
  140.3717  134.2383  155.7177 LP  0  0  0  0  0  0  0  0  0  0  0  0  # atno 17395 bound_to 11000

$$$$
