AV-unprocessed.smi:1867|AV-procd|sdf|7573|dock5
  -GOLD-   22720 9283D 1   1.00000     0.00000
 Structure written by MMmdl.
 53 56  0  0  0  0  0  0  0  0  3 V2000
  149.2247  134.9901  156.1268 O   0  0  0  0  0  0  0  0  0  0  0  0
  149.2808  135.4242  154.9794 C   0  0  0  0  0  0  0  0  0  0  0  0
  149.7924  136.6219  154.6299 N   0  0  0  0  0  0  0  0  0  0  0  0
  150.3653  137.6345  155.4488 C   0  0  0  0  0  0  0  0  0  0  0  0
  150.8634  138.7860  154.8028 C   0  0  0  0  0  0  0  0  0  0  0  0
  151.4481  139.8216  155.5602 C   0  0  0  0  0  0  0  0  0  0  0  0
  151.5318  139.6985  156.9670 C   0  0  0  0  0  0  0  0  0  0  0  0
  152.1074  140.6852  157.7898 N   0  0  0  0  0  0  0  0  0  0  0  0
  151.6437  142.0622  157.7693 C   0  0  0  0  0  0  0  0  0  0  0  0
  152.4177  142.7462  158.8956 C   0  0  0  0  0  0  0  0  0  0  0  0
  152.6005  141.6275  159.9216 C   0  0  0  0  0  0  0  0  0  0  0  0
  152.7150  140.3558  159.0729 C   0  0  0  0  0  0  0  0  0  0  0  0
  151.0486  138.5736  157.5451 N   0  3  0  0  0  0  0  0  0  0  0  0
  150.4815  137.5583  156.8584 C   0  0  0  0  0  0  0  0  0  0  0  0
  148.8102  134.7033  153.9459 N   0  0  0  0  0  0  0  0  0  0  0  0
  148.1957  133.3754  153.9716 C   0  0  1  0  0  0  0  0  0  0  0  0
  147.1971  133.1223  152.8448 C   0  0  0  0  0  0  0  0  0  0  0  0
  147.1364  131.5940  152.8026 C   0  0  0  0  0  0  0  0  0  0  0  0
  148.4923  131.1216  153.1655 N   0  3  2  0  0  0  0  0  0  0  0  0
  148.5198  129.8650  153.9533 C   0  0  0  0  0  0  0  0  0  0  0  0
  149.9696  129.4518  154.2697 C   0  0  0  0  0  0  0  0  0  0  0  0
  150.8106  130.5994  154.8688 C   0  0  0  0  0  0  0  0  0  0  0  0
  149.9962  131.8893  155.0524 C   0  0  0  0  0  0  0  0  0  0  0  0
  149.2380  132.2670  153.7602 C   0  0  2  0  0  0  0  0  0  0  0  0
  149.7463  136.8430  153.6462 H   0  0  0  0  0  0  0  0  0  0  0  0
  150.8000  138.8805  153.7285 H   0  0  0  0  0  0  0  0  0  0  0  0
  151.8263  140.6955  155.0509 H   0  0  0  0  0  0  0  0  0  0  0  0
  151.8318  142.5394  156.8072 H   0  0  0  0  0  0  0  0  0  0  0  0
  150.5712  142.0876  157.9673 H   0  0  0  0  0  0  0  0  0  0  0  0
  153.3925  143.0718  158.5299 H   0  0  0  0  0  0  0  0  0  0  0  0
  151.9007  143.6173  159.2992 H   0  0  0  0  0  0  0  0  0  0  0  0
  153.4629  141.7818  160.5707 H   0  0  0  0  0  0  0  0  0  0  0  0
  151.7135  141.5660  160.5537 H   0  0  0  0  0  0  0  0  0  0  0  0
  152.2228  139.5150  159.5632 H   0  0  0  0  0  0  0  0  0  0  0  0
  153.7606  140.0929  158.9095 H   0  0  0  0  0  0  0  0  0  0  0  0
  150.1554  136.7341  157.4736 H   0  0  0  0  0  0  0  0  0  0  0  0
  148.8942  135.1291  153.0335 H   0  0  0  0  0  0  0  0  0  0  0  0
  147.6960  133.2129  154.9288 H   0  0  0  0  0  0  0  0  0  0  0  0
  146.2227  133.5774  153.0248 H   0  0  0  0  0  0  0  0  0  0  0  0
  147.5822  133.5080  151.8993 H   0  0  0  0  0  0  0  0  0  0  0  0
  146.4112  131.2441  153.5392 H   0  0  0  0  0  0  0  0  0  0  0  0
  146.8296  131.2145  151.8278 H   0  0  0  0  0  0  0  0  0  0  0  0
  147.9570  129.9979  154.8788 H   0  0  0  0  0  0  0  0  0  0  0  0
  148.0195  129.0741  153.3932 H   0  0  0  0  0  0  0  0  0  0  0  0
  149.9632  128.6011  154.9521 H   0  0  0  0  0  0  0  0  0  0  0  0
  150.4503  129.0981  153.3564 H   0  0  0  0  0  0  0  0  0  0  0  0
  151.2369  130.2934  155.8248 H   0  0  0  0  0  0  0  0  0  0  0  0
  151.6581  130.8017  154.2124 H   0  0  0  0  0  0  0  0  0  0  0  0
  149.2922  131.7506  155.8744 H   0  0  0  0  0  0  0  0  0  0  0  0
  150.6524  132.7064  155.3546 H   0  0  0  0  0  0  0  0  0  0  0  0
  149.9577  132.5817  153.0022 H   0  0  0  0  0  0  0  0  0  0  0  0
  148.9663  130.9175  152.2970 H   0  0  0  0  0  0  0  0  0  0  0  0
  151.1175  138.4858  158.5592 H   0  0  0  0  0  0  0  0  0  0  0  0
  1  2  2  0  0  0  0
  2  3  1  0  0  0  0
  2 15  1  0  0  0  0
  3  4  1  0  0  0  0
  3 25  1  0  0  0  0
  4 14  1  0  0  0  0
  4  5  2  0  0  0  0
  5  6  1  0  0  0  0
  5 26  1  0  0  0  0
  6  7  2  0  0  0  0
  6 27  1  0  0  0  0
  7  8  1  0  0  0  0
  7 13  1  0  0  0  0
  8 12  1  0  0  0  0
  8  9  1  0  0  0  0
  9 10  1  0  0  0  0
  9 28  1  0  0  0  0
  9 29  1  0  0  0  0
 10 11  1  0  0  0  0
 10 30  1  0  0  0  0
 10 31  1  0  0  0  0
 11 12  1  0  0  0  0
 11 32  1  0  0  0  0
 11 33  1  0  0  0  0
 12 34  1  0  0  0  0
 12 35  1  0  0  0  0
 13 14  2  0  0  0  0
 13 53  1  0  0  0  0
 14 36  1  0  0  0  0
 15 16  1  0  0  0  0
 15 37  1  0  0  0  0
 16 24  1  0  0  0  0
 16 17  1  0  0  0  0
 16 38  1  0  0  0  0
 17 18  1  0  0  0  0
 17 39  1  0  0  0  0
 17 40  1  0  0  0  0
 18 19  1  0  0  0  0
 18 41  1  0  0  0  0
 18 42  1  0  0  0  0
 19 24  1  0  0  0  0
 19 20  1  0  0  0  0
 19 52  1  0  0  0  0
 20 21  1  0  0  0  0
 20 43  1  0  0  0  0
 20 44  1  0  0  0  0
 21 22  1  0  0  0  0
 21 45  1  0  0  0  0
 21 46  1  0  0  0  0
 22 23  1  0  0  0  0
 22 47  1  0  0  0  0
 22 48  1  0  0  0  0
 23 24  1  0  0  0  0
 23 49  1  0  0  0  0
 23 50  1  0  0  0  0
 24 51  1  0  0  0  0
M  CHG  1  13   1
M  CHG  1  19   1
M  END
> <s_m_source_file>
AV-unprocessed.smi

> <i_m_source_file_index>
1867

> <i_lp_mmshare_version>
43012

> <i_f3d_flags>
0

> <s_epik_input>
W0NIMl0xW0NIMl1bQ0gyXVtDSDJdW0NASF0oTjEyKVtDQEBIXShbQ0gyXVtDSDJdMilbTkhdQyg9TylbTkhdYzNbY0hdW2NIXWMobltjSF0zKU40W0NIMl1bQ0gyXVtDSDJdW0NIMl00

> <s_epik_cmdline>
J2VwaWtfcHl0aG9uJywgJy1waCcsICc3LjAnLCAnLXRuJywgJzgnLCAnLW1hJywgJzIwMCcsICctbWV0YWxfYmluZGluZycsICctaW1hZScsICc8aW5maWxlLm1hZT4nLCAnLW9tYWUnLCAnPG91dGZpbGUubWFlPic=

> <r_lp_tautomer_probability>
0.999994

> <r_epik_Ionization_Penalty>
1.27347

> <r_epik_Ionization_Penalty_Charging>
1.27345

> <r_epik_Ionization_Penalty_Neutral>
1.96458e-05

> <r_epik_State_Penalty>
1.34393

> <r_epik_Charging_Adjusted_Penalty>
2.61738

> <i_epik_Tot_Q>
2

> <i_epik_Tot_abs_Q>
2

> <r_epik_Metal_State_Penalty>
1.41094

> <b_epik_Metal_Only>
0

> <s_lp_Force_Field>
OPLS_2005

> <r_lp_Energy>
84.8883

> <b_lp_Chiralities_Consistent>
1

> <s_lp_Variant>
AV-unprocessed.smi:1867-14

> <Gold.Version>
5.8.1

> <Gold.Id.Protein>
6NUR|6NUR_protein|mol2

> <Gold.PLP.Fitness>
47.7049

> <Gold.PLP.PLP>
-40.8703

> <Gold.PLP.part.hbond>
-3.0000

> <Gold.PLP.part.metal>
0.0000

> <Gold.PLP.part.buried>
-3.8387

> <Gold.PLP.part.nonpolar>
-33.0411

> <Gold.PLP.part.repulsive>
0.0931

> <Gold.PLP.ligand.clash>
0.0000

> <Gold.PLP.ligand.torsion>
1.0336

> <Gold.PLP.Chemscore.Hbond>
2.9040

> <Gold.PLP.Chemscore.CHOScore>
0.0000

> <Gold.PLP.Chemscore.Metal>
0.0000

> <Gold.Chemscore.Hbonds>
donor molecule, donor type, donor heavy atom, donor atom, acceptor molecule, acceptor atom, score
      L1  H     3    25       P1  7948  0.88
      L1  H    15    37       P1  7948  1.00
      L1  H    19    52       P1 10747  1.00

> <Gold.PLP.Chemscore.Internal.Correction>
0.1897

> <Gold.Rescore>
     Score         DG    S(hbond)    S(metal)    S(lipo)     H(rot)  DE(clash)    DE(int)     intcor
     21.02     -23.50       2.77        0.00      96.84       1.00       0.13       2.35       ----

> <Gold.Chemscore.Fitness>
21.0161

> <Gold.Chemscore.DG>
-23.4951

> <Gold.Chemscore.ZeroCoef>
-5.4800

> <Gold.Chemscore.Hbond>
2.7680

> <Gold.Chemscore.Metal>
0.0000

> <Gold.Chemscore.Lipo>
96.8389

> <Gold.Chemscore.Internal_Hbond>
0.0000

> <Gold.Chemscore.DEClash>
0.1300

> <Gold.Chemscore.DEInternal>
2.3490

> <Gold.Chemscore.Rot>
1.0000

> <Gold.Chemscore.Internal.Correction>
   9.000000E+99

> <Gold.Chemscore.Hbonds>
donor molecule, donor type, donor heavy atom, donor atom, acceptor molecule, acceptor atom, score
      L1  H     3    25       P1  7948  0.50
      L1  H    15    37       P1  7948  0.29
      L1  H    19    52       P1 10747  0.42

> <Gold.Chemscore.Hbond.Weighted>
-9.2450

> <Gold.Chemscore.Metal.Weighted>
-0.0000

> <Gold.Chemscore.Lipo.Weighted>
-11.3302

> <Gold.Chemscore.Internal_Hbond.Weighted>
0.0000

> <Gold.Chemscore.DEClash.Weighted>
0.1300

> <Gold.Chemscore.DEInternal.Weighted>
2.3490

> <Gold.Chemscore.Rot.Weighted>
2.5600

> <Gold.Chemscore.Internal.Correction.Weighted>
   9.000000E+99

> <Gold.Protein.RotatedTorsions>
[ 6907 6896 6895 6894 ] final  141.71 input  -60.11 | X-H torsion
[ 7974 7965 7964 7962 ] final  156.21 input  175.53 | X-H torsion
[ 8008 7997 7996 7995 ] final  -42.36 input   59.86 | X-H torsion
[ 10167 10162 10161 10158 ] final   67.59 input  -65.29 | X-H torsion
[ 10718 10713 10712 10709 ] final -148.59 input   66.30 | X-H torsion
[ 10763 10752 10751 10750 ] final   35.07 input  -60.55 | X-H torsion
[ 11005 11000 10999 10996 ] final   60.86 input  -57.11 | X-H torsion

> <Gold.Protein.ActiveResidues>
 VAL166  LYS551  ARG553  GLY616  TRP617  ASP618  TYR619  PRO620  LYS621  CYS622 
 ASP623  PHE694  ASN695  SER759  ASP760  ASP761  ALA762  ILE779  LEU786  VAL792 
 PHE793  MET794  SER795  GLU796  ALA797  LYS798  CYS799  TRP800  GLU811  SER814 

> <Gold.Protein.RotatedAtoms>
  152.2276  133.5032  159.5197 H   0  0  0  0  0  0  0  0  0  0  0  0  # atno 6907 bound_to 6896
  150.7029  134.1259  159.4061 H   0  0  0  0  0  0  0  0  0  0  0  0  # atno 6908 bound_to 6896
  151.9180  135.0310  160.0570 H   0  0  0  0  0  0  0  0  0  0  0  0  # atno 6909 bound_to 6896
  144.7977  139.7173  143.6195 H   0  0  0  0  0  0  0  0  0  0  0  0  # atno 7974 bound_to 7965
  154.3999  140.1475  156.3343 H   0  0  0  0  0  0  0  0  0  0  0  0  # atno 8008 bound_to 7997
  155.8415  140.3462  155.5614 H   0  0  0  0  0  0  0  0  0  0  0  0  # atno 8009 bound_to 7997
  155.8082  140.0880  157.1909 H   0  0  0  0  0  0  0  0  0  0  0  0  # atno 8010 bound_to 7997
  140.0878  144.5014  150.7119 H   0  0  0  0  0  0  0  0  0  0  0  0  # atno 10167 bound_to 10162
  156.4222  130.8034  151.2257 H   0  0  0  0  0  0  0  0  0  0  0  0  # atno 10718 bound_to 10713
  153.0135  135.6343  154.1768 H   0  0  0  0  0  0  0  0  0  0  0  0  # atno 10763 bound_to 10752
  154.1509  135.2829  155.3137 H   0  0  0  0  0  0  0  0  0  0  0  0  # atno 10764 bound_to 10752
  154.6054  135.5574  153.7478 H   0  0  0  0  0  0  0  0  0  0  0  0  # atno 10765 bound_to 10752
  140.0202  134.6165  155.9651 H   0  0  0  0  0  0  0  0  0  0  0  0  # atno 11005 bound_to 11000
  146.2249  139.5705  142.9593 LP  0  0  0  0  0  0  0  0  0  0  0  0  # atno 17320 bound_to 7965
  145.5632  141.0402  143.2214 LP  0  0  0  0  0  0  0  0  0  0  0  0  # atno 17321 bound_to 7965
  140.7044  143.2457  151.4769 LP  0  0  0  0  0  0  0  0  0  0  0  0  # atno 17342 bound_to 10162
  139.5742  144.1858  152.1879 LP  0  0  0  0  0  0  0  0  0  0  0  0  # atno 17343 bound_to 10162
  157.7508  131.0224  150.3793 LP  0  0  0  0  0  0  0  0  0  0  0  0  # atno 17370 bound_to 10713
  156.4112  130.3934  149.6890 LP  0  0  0  0  0  0  0  0  0  0  0  0  # atno 17371 bound_to 10713
  141.1769  133.6541  156.4863 LP  0  0  0  0  0  0  0  0  0  0  0  0  # atno 17394 bound_to 11000
  140.4401  134.7023  157.4987 LP  0  0  0  0  0  0  0  0  0  0  0  0  # atno 17395 bound_to 11000

$$$$
