AV-unprocessed.smi:2871|AV-procd|sdf|11032|dock7
  -GOLD-   2272015493D 1   1.00000     0.00000
 Structure written by MMmdl.
 38 40  0  0  0  0  0  0  0  0  1 V2000
  151.8845  144.9212  159.7444 C   0  0  0  0  0  0  0  0  0  0  0  0
  152.3452  143.7469  160.4737 N   0  0  0  0  0  0  0  0  0  0  0  0
  152.5176  143.8040  161.9214 C   0  0  0  0  0  0  0  0  0  0  0  0
  152.6100  142.5430  159.7846 C   0  0  0  0  0  0  0  0  0  0  0  0
  153.5587  141.6009  160.2520 C   0  0  0  0  0  0  0  0  0  0  0  0
  153.7413  140.4346  159.4750 C   0  0  0  0  0  0  0  0  0  0  0  0
  154.7316  139.3486  159.8673 C   0  0  0  0  0  0  0  0  0  0  0  0
  154.7277  138.3404  158.9942 F   0  0  0  0  0  0  0  0  0  0  0  0
  155.9619  139.8595  159.9174 F   0  0  0  0  0  0  0  0  0  0  0  0
  154.4168  138.8660  161.0697 F   0  0  0  0  0  0  0  0  0  0  0  0
  153.0404  140.2263  158.3377 N   0  0  0  0  0  0  0  0  0  0  0  0
  152.1712  141.1706  157.9801 C   0  0  0  0  0  0  0  0  0  0  0  0
  151.4775  140.9292  156.8088 N   0  0  0  0  0  0  0  0  0  0  0  0
  150.2319  141.5898  156.4343 C   0  0  2  0  0  0  0  0  0  0  0  0
  149.0400  141.1624  157.2938 C   0  0  0  0  0  0  0  0  0  0  0  0
  148.0203  140.7369  156.2276 C   0  0  2  0  0  0  0  0  0  0  0  0
  148.3834  139.3805  155.6099 C   0  0  0  0  0  0  0  0  0  0  0  0
  149.5903  139.7451  154.7477 C   0  0  0  0  0  0  0  0  0  0  0  0
  149.7293  141.2534  155.0161 C   0  0  1  0  0  0  0  0  0  0  0  0
  148.3636  141.6052  155.1604 O   0  0  0  0  0  0  0  0  0  0  0  0
  151.9236  142.3050  158.6413 N   0  0  0  0  0  0  0  0  0  0  0  0
  152.6250  145.2257  159.0042 H   0  0  0  0  0  0  0  0  0  0  0  0
  151.7183  145.7645  160.4148 H   0  0  0  0  0  0  0  0  0  0  0  0
  150.9445  144.7128  159.2330 H   0  0  0  0  0  0  0  0  0  0  0  0
  153.5469  143.5718  162.1957 H   0  0  0  0  0  0  0  0  0  0  0  0
  151.8591  143.0866  162.4122 H   0  0  0  0  0  0  0  0  0  0  0  0
  152.2838  144.7943  162.3120 H   0  0  0  0  0  0  0  0  0  0  0  0
  154.1253  141.7541  161.1578 H   0  0  0  0  0  0  0  0  0  0  0  0
  151.9192  140.3271  156.1294 H   0  0  0  0  0  0  0  0  0  0  0  0
  150.3620  142.6691  156.5259 H   0  0  0  0  0  0  0  0  0  0  0  0
  149.2656  140.3520  157.9886 H   0  0  0  0  0  0  0  0  0  0  0  0
  148.6693  142.0097  157.8719 H   0  0  0  0  0  0  0  0  0  0  0  0
  146.9823  140.8105  156.5530 H   0  0  0  0  0  0  0  0  0  0  0  0
  148.6126  138.6271  156.3643 H   0  0  0  0  0  0  0  0  0  0  0  0
  147.5694  139.0061  154.9883 H   0  0  0  0  0  0  0  0  0  0  0  0
  150.4858  139.1799  155.0066 H   0  0  0  0  0  0  0  0  0  0  0  0
  149.3719  139.5628  153.6951 H   0  0  0  0  0  0  0  0  0  0  0  0
  150.2443  141.7959  154.2228 H   0  0  0  0  0  0  0  0  0  0  0  0
  1  2  1  0  0  0  0
  1 22  1  0  0  0  0
  1 23  1  0  0  0  0
  1 24  1  0  0  0  0
  2  3  1  0  0  0  0
  2  4  1  0  0  0  0
  3 25  1  0  0  0  0
  3 26  1  0  0  0  0
  3 27  1  0  0  0  0
  4 21  1  0  0  0  0
  4  5  2  0  0  0  0
  5  6  1  0  0  0  0
  5 28  1  0  0  0  0
  6  7  1  0  0  0  0
  6 11  2  0  0  0  0
  7  8  1  0  0  0  0
  7  9  1  0  0  0  0
  7 10  1  0  0  0  0
 11 12  1  0  0  0  0
 12 13  1  0  0  0  0
 12 21  2  0  0  0  0
 13 14  1  0  0  0  0
 13 29  1  0  0  0  0
 14 19  1  0  0  0  0
 14 15  1  0  0  0  0
 14 30  1  0  0  0  0
 15 16  1  0  0  0  0
 15 31  1  0  0  0  0
 15 32  1  0  0  0  0
 16 20  1  0  0  0  0
 16 17  1  0  0  0  0
 16 33  1  0  0  0  0
 17 18  1  0  0  0  0
 17 34  1  0  0  0  0
 17 35  1  0  0  0  0
 18 19  1  0  0  0  0
 18 36  1  0  0  0  0
 18 37  1  0  0  0  0
 19 20  1  0  0  0  0
 19 38  1  0  0  0  0
M  END
> <s_m_source_file>
AV-unprocessed.smi

> <i_m_source_file_index>
2871

> <i_lp_mmshare_version>
43012

> <i_f3d_flags>
0

> <s_epik_input>
W0NIM11OKFtDSDNdKWMxW2NIXWMoQyhGKShGKUYpbmMobjEpW05IXVtDQEhdKFtDSDJdW0NAQEhdMjMpW0NAQEhdKE8zKVtDSDJdW0NIMl0y

> <s_epik_cmdline>
J2VwaWtfcHl0aG9uJywgJy1waCcsICc3LjAnLCAnLXRuJywgJzgnLCAnLW1hJywgJzIwMCcsICctbWV0YWxfYmluZGluZycsICctaW1hZScsICc8aW5maWxlLm1hZT4nLCAnLW9tYWUnLCAnPG91dGZpbGUubWFlPic=

> <r_lp_tautomer_probability>
1

> <r_epik_Ionization_Penalty>
0.00695968

> <r_epik_Ionization_Penalty_Charging>
0

> <r_epik_Ionization_Penalty_Neutral>
0.00695968

> <r_epik_State_Penalty>
0.0050343

> <r_epik_Charging_Adjusted_Penalty>
0.0050343

> <i_epik_Tot_Q>
0

> <i_epik_Tot_abs_Q>
0

> <r_epik_Metal_State_Penalty>
-0

> <b_epik_Metal_Only>
0

> <s_lp_Force_Field>
OPLS_2005

> <r_lp_Energy>
33.2945

> <b_lp_Chiralities_Consistent>
1

> <s_lp_Variant>
AV-unprocessed.smi:2871-3

> <Gold.Version>
5.8.1

> <Gold.Id.Protein>
6NUR|6NUR_protein|mol2

> <Gold.PLP.Fitness>
41.2377

> <Gold.PLP.PLP>
-39.3700

> <Gold.PLP.part.hbond>
-1.0000

> <Gold.PLP.part.metal>
0.0000

> <Gold.PLP.part.buried>
-4.3558

> <Gold.PLP.part.nonpolar>
-32.2268

> <Gold.PLP.part.repulsive>
0.3009

> <Gold.PLP.ligand.clash>
0.0000

> <Gold.PLP.ligand.torsion>
0.4864

> <Gold.PLP.Chemscore.Hbond>
0.9360

> <Gold.PLP.Chemscore.CHOScore>
0.0000

> <Gold.PLP.Chemscore.Metal>
0.0000

> <Gold.Chemscore.Hbonds>
donor molecule, donor type, donor heavy atom, donor atom, acceptor molecule, acceptor atom, score
      P1  H  7997  8008       L1    11  0.95

> <Gold.PLP.Chemscore.Internal.Correction>
0.0325

> <Gold.Rescore>
     Score         DG    S(hbond)    S(metal)    S(lipo)     H(rot)  DE(clash)    DE(int)     intcor
     12.91     -13.44       0.41        0.00      78.13       1.00       0.06       0.46       ----

> <Gold.Chemscore.Fitness>
12.9134

> <Gold.Chemscore.DG>
-13.4375

> <Gold.Chemscore.ZeroCoef>
-5.4800

> <Gold.Chemscore.Hbond>
0.4119

> <Gold.Chemscore.Metal>
0.0000

> <Gold.Chemscore.Lipo>
78.1341

> <Gold.Chemscore.Internal_Hbond>
0.0000

> <Gold.Chemscore.DEClash>
0.0593

> <Gold.Chemscore.DEInternal>
0.4648

> <Gold.Chemscore.Rot>
1.0000

> <Gold.Chemscore.Internal.Correction>
   9.000000E+99

> <Gold.Chemscore.Hbonds>
donor molecule, donor type, donor heavy atom, donor atom, acceptor molecule, acceptor atom, score
      P1  H  7997  8008       L1    11  0.18

> <Gold.Chemscore.Hbond.Weighted>
-1.3758

> <Gold.Chemscore.Metal.Weighted>
-0.0000

> <Gold.Chemscore.Lipo.Weighted>
-9.1417

> <Gold.Chemscore.Internal_Hbond.Weighted>
0.0000

> <Gold.Chemscore.DEClash.Weighted>
0.0593

> <Gold.Chemscore.DEInternal.Weighted>
0.4648

> <Gold.Chemscore.Rot.Weighted>
2.5600

> <Gold.Chemscore.Internal.Correction.Weighted>
   9.000000E+99

> <Gold.Protein.RotatedTorsions>
[ 6907 6896 6895 6894 ] final  176.84 input  -60.11 | X-H torsion
[ 7974 7965 7964 7962 ] final  129.54 input  175.53 | X-H torsion
[ 8008 7997 7996 7995 ] final  -83.56 input   59.86 | X-H torsion
[ 10167 10162 10161 10158 ] final  -59.99 input  -65.29 | X-H torsion
[ 10718 10713 10712 10709 ] final   82.37 input   66.30 | X-H torsion
[ 10763 10752 10751 10750 ] final -157.86 input  -60.55 | X-H torsion
[ 11005 11000 10999 10996 ] final  -65.53 input  -57.11 | X-H torsion

> <Gold.Protein.ActiveResidues>
 VAL166  LYS551  ARG553  GLY616  TRP617  ASP618  TYR619  PRO620  LYS621  CYS622 
 ASP623  PHE694  ASN695  SER759  ASP760  ASP761  ALA762  ILE779  LEU786  VAL792 
 PHE793  MET794  SER795  GLU796  ALA797  LYS798  CYS799  TRP800  GLU811  SER814 

> <Gold.Protein.RotatedAtoms>
  151.7137  133.3313  159.3297 H   0  0  0  0  0  0  0  0  0  0  0  0  # atno 6907 bound_to 6896
  150.7683  134.6509  159.6297 H   0  0  0  0  0  0  0  0  0  0  0  0  # atno 6908 bound_to 6896
  152.3695  134.6757  160.0232 H   0  0  0  0  0  0  0  0  0  0  0  0  # atno 6909 bound_to 6896
  145.0275  139.4076  143.5166 H   0  0  0  0  0  0  0  0  0  0  0  0  # atno 7974 bound_to 7965
  154.6204  140.0617  156.9608 H   0  0  0  0  0  0  0  0  0  0  0  0  # atno 8008 bound_to 7997
  155.1827  140.3300  155.4354 H   0  0  0  0  0  0  0  0  0  0  0  0  # atno 8009 bound_to 7997
  156.2428  140.1895  156.6922 H   0  0  0  0  0  0  0  0  0  0  0  0  # atno 8010 bound_to 7997
  140.6100  143.2384  151.5731 H   0  0  0  0  0  0  0  0  0  0  0  0  # atno 10167 bound_to 10162
  157.6855  131.0045  150.2365 H   0  0  0  0  0  0  0  0  0  0  0  0  # atno 10718 bound_to 10713
  154.7603  135.3116  154.8391 H   0  0  0  0  0  0  0  0  0  0  0  0  # atno 10763 bound_to 10752
  153.9154  135.6801  153.4753 H   0  0  0  0  0  0  0  0  0  0  0  0  # atno 10764 bound_to 10752
  153.1203  135.4825  154.9115 H   0  0  0  0  0  0  0  0  0  0  0  0  # atno 10765 bound_to 10752
  141.1457  133.6683  156.6000 H   0  0  0  0  0  0  0  0  0  0  0  0  # atno 11005 bound_to 11000
  146.3494  139.9807  142.8696 LP  0  0  0  0  0  0  0  0  0  0  0  0  # atno 17320 bound_to 7965
  145.1814  140.9769  143.4264 LP  0  0  0  0  0  0  0  0  0  0  0  0  # atno 17321 bound_to 7965
  139.5354  144.2796  152.1239 LP  0  0  0  0  0  0  0  0  0  0  0  0  # atno 17342 bound_to 10162
  140.1994  144.4673  150.6439 LP  0  0  0  0  0  0  0  0  0  0  0  0  # atno 17343 bound_to 10162
  156.2988  130.3755  149.7770 LP  0  0  0  0  0  0  0  0  0  0  0  0  # atno 17370 bound_to 10713
  156.5407  130.8298  151.3268 LP  0  0  0  0  0  0  0  0  0  0  0  0  # atno 17371 bound_to 10713
  140.3696  134.7617  157.4589 LP  0  0  0  0  0  0  0  0  0  0  0  0  # atno 17394 bound_to 11000
  140.0721  134.5848  155.8630 LP  0  0  0  0  0  0  0  0  0  0  0  0  # atno 17395 bound_to 11000

$$$$
