AV-unprocessed.smi:283|AV-procd|sdf|2134|dock2
  -GOLD-   2262021453D 1   1.00000     0.00000
 Structure written by MMmdl.
 48 51  0  0  0  0  0  0  0  0  1 V2000
  151.2703  140.8232  155.7538 C   0  0  0  0  0  0  0  0  0  0  0  0
  150.5888  141.5913  156.8945 C   0  0  1  0  0  0  0  0  0  0  0  0
  149.3114  140.9592  157.2161 N   0  0  0  0  0  0  0  0  0  0  0  0
  148.3217  140.8426  156.3028 C   0  0  0  0  0  0  0  0  0  0  0  0
  147.5628  141.9504  156.1286 N   0  0  0  0  0  0  0  0  0  0  0  0
  146.5650  141.9476  155.2413 C   0  0  0  0  0  0  0  0  0  0  0  0
  146.1650  140.9587  154.4421 N   0  0  0  0  0  0  0  0  0  0  0  0
  146.9141  139.8322  154.6167 C   0  0  0  0  0  0  0  0  0  0  0  0
  148.0032  139.6890  155.5251 C   0  0  0  0  0  0  0  0  0  0  0  0
  148.5087  138.3971  155.4310 N   0  0  0  0  0  0  0  0  0  0  0  0
  147.7765  137.8258  154.5152 C   0  0  0  0  0  0  0  0  0  0  0  0
  146.7913  138.6168  153.9717 N   0  0  0  0  0  0  0  0  0  0  0  0
  145.7986  138.2300  152.9225 C   0  0  2  0  0  0  0  0  0  0  0  0
  144.7698  137.5060  153.5257 O   0  0  0  0  0  0  0  0  0  0  0  0
  144.4260  136.4193  152.6818 C   0  0  2  0  0  0  0  0  0  0  0  0
  143.5490  135.3573  153.3792 C   0  0  0  0  0  0  0  0  0  0  0  0
  144.1629  134.0893  153.4774 O   0  0  0  0  0  0  0  0  0  0  0  0
  145.7286  136.0094  151.9773 C   0  0  2  0  0  0  0  0  0  0  0  0
  146.5134  135.1065  152.7305 O   0  0  0  0  0  0  0  0  0  0  0  0
  146.4614  137.3427  151.8469 C   0  0  1  0  0  0  0  0  0  0  0  0
  146.2553  137.8760  150.5536 O   0  0  0  0  0  0  0  0  0  0  0  0
  151.5481  141.7458  158.0785 C   0  0  0  0  0  0  0  0  0  0  0  0
  151.9961  140.6032  158.7822 C   0  0  0  0  0  0  0  0  0  0  0  0
  152.8748  140.7309  159.8742 C   0  0  0  0  0  0  0  0  0  0  0  0
  153.3243  142.0033  160.2697 C   0  0  0  0  0  0  0  0  0  0  0  0
  152.8980  143.1458  159.5681 C   0  0  0  0  0  0  0  0  0  0  0  0
  152.0176  143.0240  158.4746 C   0  0  0  0  0  0  0  0  0  0  0  0
  151.5377  144.4617  157.6420 Cl  0  0  0  0  0  0  0  0  0  0  0  0
  145.4213  139.1786  152.5373 H   0  0  0  0  0  0  0  0  0  0  0  0
  143.7929  136.8647  151.9117 H   0  0  0  0  0  0  0  0  0  0  0  0
  145.5260  135.5423  151.0124 H   0  0  0  0  0  0  0  0  0  0  0  0
  147.5357  137.2498  152.0172 H   0  0  0  0  0  0  0  0  0  0  0  0
  152.1857  141.3226  155.4352 H   0  0  0  0  0  0  0  0  0  0  0  0
  150.6176  140.7509  154.8831 H   0  0  0  0  0  0  0  0  0  0  0  0
  151.5334  139.8097  156.0590 H   0  0  0  0  0  0  0  0  0  0  0  0
  150.3447  142.5788  156.5071 H   0  0  0  0  0  0  0  0  0  0  0  0
  149.1431  140.8257  158.2026 H   0  0  0  0  0  0  0  0  0  0  0  0
  146.0085  142.8694  155.1565 H   0  0  0  0  0  0  0  0  0  0  0  0
  147.9331  136.8003  154.2137 H   0  0  0  0  0  0  0  0  0  0  0  0
  143.2793  135.6951  154.3800 H   0  0  0  0  0  0  0  0  0  0  0  0
  142.6171  135.2341  152.8270 H   0  0  0  0  0  0  0  0  0  0  0  0
  143.5828  133.5094  153.9467 H   0  0  0  0  0  0  0  0  0  0  0  0
  147.4116  135.4001  152.7087 H   0  0  0  0  0  0  0  0  0  0  0  0
  145.3712  138.2062  150.5040 H   0  0  0  0  0  0  0  0  0  0  0  0
  151.6656  139.6170  158.4908 H   0  0  0  0  0  0  0  0  0  0  0  0
  153.2049  139.8514  160.4072 H   0  0  0  0  0  0  0  0  0  0  0  0
  153.9991  142.1030  161.1071 H   0  0  0  0  0  0  0  0  0  0  0  0
  153.2506  144.1210  159.8702 H   0  0  0  0  0  0  0  0  0  0  0  0
  1  2  1  0  0  0  0
  1 33  1  0  0  0  0
  1 34  1  0  0  0  0
  1 35  1  0  0  0  0
  2  3  1  0  0  0  0
  2 22  1  0  0  0  0
  2 36  1  0  0  0  0
  3  4  1  0  0  0  0
  3 37  1  0  0  0  0
  4  9  1  0  0  0  0
  4  5  2  0  0  0  0
  5  6  1  0  0  0  0
  6  7  2  0  0  0  0
  6 38  1  0  0  0  0
  7  8  1  0  0  0  0
  8 12  1  0  0  0  0
  8  9  2  0  0  0  0
  9 10  1  0  0  0  0
 10 11  2  0  0  0  0
 11 12  1  0  0  0  0
 11 39  1  0  0  0  0
 12 13  1  0  0  0  0
 13 29  1  0  0  0  0
 13 20  1  0  0  0  0
 13 14  1  0  0  0  0
 14 15  1  0  0  0  0
 15 30  1  0  0  0  0
 15 16  1  0  0  0  0
 15 18  1  0  0  0  0
 16 17  1  0  0  0  0
 16 40  1  0  0  0  0
 16 41  1  0  0  0  0
 17 42  1  0  0  0  0
 18 31  1  0  0  0  0
 18 19  1  0  0  0  0
 18 20  1  0  0  0  0
 19 43  1  0  0  0  0
 20 32  1  0  0  0  0
 20 21  1  0  0  0  0
 21 44  1  0  0  0  0
 22 27  1  0  0  0  0
 22 23  2  0  0  0  0
 23 24  1  0  0  0  0
 23 45  1  0  0  0  0
 24 25  2  0  0  0  0
 24 46  1  0  0  0  0
 25 26  1  0  0  0  0
 25 47  1  0  0  0  0
 26 27  2  0  0  0  0
 26 48  1  0  0  0  0
 27 28  1  0  0  0  0
M  END
> <s_m_source_file>
AV-unprocessed.smi

> <i_m_source_file_index>
283

> <i_lp_mmshare_version>
43012

> <i_f3d_flags>
0

> <s_epik_input>
Q2xjMVtjSF1bY0hdW2NIXVtjSF1jMVtDQEhdKFtDSDNdKVtOSF1jKG5bY0hdbjIpYyhjMjMpbltjSF1uM1tDQEBIXTRPW0NASF0oW0NIMl1bT0hdKVtDQEBIXShbT0hdKVtDQEhdNFtPSF0=

> <s_epik_cmdline>
J2VwaWtfcHl0aG9uJywgJy1waCcsICc3LjAnLCAnLXRuJywgJzgnLCAnLW1hJywgJzIwMCcsICctbWV0YWxfYmluZGluZycsICctaW1hZScsICc8aW5maWxlLm1hZT4nLCAnLW9tYWUnLCAnPG91dGZpbGUubWFlPic=

> <r_lp_tautomer_probability>
1

> <r_epik_Ionization_Penalty>
0.000266407

> <r_epik_Ionization_Penalty_Charging>
0

> <r_epik_Ionization_Penalty_Neutral>
0.000266407

> <r_epik_State_Penalty>
-0

> <r_epik_Charging_Adjusted_Penalty>
0

> <i_epik_Tot_Q>
0

> <i_epik_Tot_abs_Q>
0

> <r_epik_Metal_State_Penalty>
-0

> <b_epik_Metal_Only>
0

> <s_epik_Chemistry_Notes>
This compound contains an acetal/aminal-like group ( X-CH(R)-Y where X, Y are N, S, or O) that may be acid/base labile, releasing an aldehyde.

> <s_lp_Force_Field>
OPLS_2005

> <r_lp_Energy>
45.8165

> <b_lp_Chiralities_Consistent>
1

> <s_lp_Variant>
AV-unprocessed.smi:283-10

> <Gold.Version>
5.8.1

> <Gold.Id.Protein>
6NUR|6NUR_protein|mol2

> <Gold.PLP.Fitness>
49.3486

> <Gold.PLP.PLP>
-40.5745

> <Gold.PLP.part.hbond>
-3.9320

> <Gold.PLP.part.metal>
0.0000

> <Gold.PLP.part.buried>
-2.2504

> <Gold.PLP.part.nonpolar>
-35.5972

> <Gold.PLP.part.repulsive>
0.8216

> <Gold.PLP.ligand.clash>
0.0000

> <Gold.PLP.ligand.torsion>
2.0722

> <Gold.PLP.Chemscore.Hbond>
3.6593

> <Gold.PLP.Chemscore.CHOScore>
0.6003

> <Gold.PLP.Chemscore.Metal>
0.0000

> <Gold.Chemscore.Hbonds>
donor molecule, donor type, donor heavy atom, donor atom, acceptor molecule, acceptor atom, score
      L1  H    17    42       P1 10957  0.71
      L1  H    19    43       P1  7948  1.00
      L1  H    21    44       P1 10171  1.00
      P1  H  7954  7966       L1    21  0.91
      L1  C    11    39       P1  7948  0.63

> <Gold.PLP.Chemscore.Internal.Correction>
0.1400

> <Gold.Rescore>
     Score         DG    S(hbond)    S(metal)    S(lipo)     H(rot)  DE(clash)    DE(int)     intcor
     14.71     -18.37       3.51        0.00      99.68       4.10       1.58       2.09       ----

> <Gold.Chemscore.Fitness>
14.7075

> <Gold.Chemscore.DG>
-18.3733

> <Gold.Chemscore.ZeroCoef>
-5.4800

> <Gold.Chemscore.Hbond>
3.5086

> <Gold.Chemscore.Metal>
0.0000

> <Gold.Chemscore.Lipo>
99.6805

> <Gold.Chemscore.Internal_Hbond>
0.0000

> <Gold.Chemscore.DEClash>
1.5798

> <Gold.Chemscore.DEInternal>
2.0860

> <Gold.Chemscore.Rot>
4.0968

> <Gold.Chemscore.Internal.Correction>
   9.000000E+99

> <Gold.Chemscore.Hbonds>
donor molecule, donor type, donor heavy atom, donor atom, acceptor molecule, acceptor atom, score
      L1  H    17    42       P1 10957  0.73
      L1  H    19    43       P1  7948  0.96
      L1  H    21    44       P1 10171  0.99
      P1  H  7954  7966       L1    21  0.22

> <Gold.Chemscore.Hbond.Weighted>
-11.7186

> <Gold.Chemscore.Metal.Weighted>
-0.0000

> <Gold.Chemscore.Lipo.Weighted>
-11.6626

> <Gold.Chemscore.Internal_Hbond.Weighted>
0.0000

> <Gold.Chemscore.DEClash.Weighted>
1.5798

> <Gold.Chemscore.DEInternal.Weighted>
2.0860

> <Gold.Chemscore.Rot.Weighted>
10.4879

> <Gold.Chemscore.Internal.Correction.Weighted>
   9.000000E+99

> <Gold.Protein.RotatedTorsions>
[ 6907 6896 6895 6894 ] final -147.45 input  -60.11 | X-H torsion
[ 7974 7965 7964 7962 ] final   75.75 input  175.53 | X-H torsion
[ 8008 7997 7996 7995 ] final  -18.07 input   59.86 | X-H torsion
[ 10167 10162 10161 10158 ] final -166.36 input  -65.29 | X-H torsion
[ 10718 10713 10712 10709 ] final   90.57 input   66.30 | X-H torsion
[ 10763 10752 10751 10750 ] final    9.95 input  -60.55 | X-H torsion
[ 11005 11000 10999 10996 ] final  -28.83 input  -57.11 | X-H torsion

> <Gold.Protein.ActiveResidues>
 VAL166  LYS551  ARG553  GLY616  TRP617  ASP618  TYR619  PRO620  LYS621  CYS622 
 ASP623  PHE694  ASN695  SER759  ASP760  ASP761  ALA762  ILE779  LEU786  VAL792 
 PHE793  MET794  SER795  GLU796  ALA797  LYS798  CYS799  TRP800  GLU811  SER814 

> <Gold.Protein.RotatedAtoms>
  151.1558  133.4877  159.2594 H   0  0  0  0  0  0  0  0  0  0  0  0  # atno 6907 bound_to 6896
  151.1506  135.0225  159.8676 H   0  0  0  0  0  0  0  0  0  0  0  0  # atno 6908 bound_to 6896
  152.5463  134.1443  159.8545 H   0  0  0  0  0  0  0  0  0  0  0  0  # atno 6909 bound_to 6896
  145.7116  139.2617  143.1647 H   0  0  0  0  0  0  0  0  0  0  0  0  # atno 7974 bound_to 7965
  154.4932  140.2125  155.9503 H   0  0  0  0  0  0  0  0  0  0  0  0  # atno 8008 bound_to 7997
  156.1334  140.3193  155.8352 H   0  0  0  0  0  0  0  0  0  0  0  0  # atno 8009 bound_to 7997
  155.4254  140.0500  157.3013 H   0  0  0  0  0  0  0  0  0  0  0  0  # atno 8010 bound_to 7997
  139.6120  144.0795  152.1851 H   0  0  0  0  0  0  0  0  0  0  0  0  # atno 10167 bound_to 10162
  157.6959  131.0375  150.3597 H   0  0  0  0  0  0  0  0  0  0  0  0  # atno 10718 bound_to 10713
  153.2084  135.6865  153.8144 H   0  0  0  0  0  0  0  0  0  0  0  0  # atno 10763 bound_to 10752
  153.7385  135.3241  155.3300 H   0  0  0  0  0  0  0  0  0  0  0  0  # atno 10764 bound_to 10752
  154.8209  135.4652  154.0881 H   0  0  0  0  0  0  0  0  0  0  0  0  # atno 10765 bound_to 10752
  140.9243  133.7378  156.0846 H   0  0  0  0  0  0  0  0  0  0  0  0  # atno 11005 bound_to 11000
  146.0707  140.7872  142.9689 LP  0  0  0  0  0  0  0  0  0  0  0  0  # atno 17320 bound_to 7965
  144.6940  140.3337  143.7211 LP  0  0  0  0  0  0  0  0  0  0  0  0  # atno 17321 bound_to 7965
  140.0416  144.6002  150.7406 LP  0  0  0  0  0  0  0  0  0  0  0  0  # atno 17342 bound_to 10162
  140.7325  143.2707  151.3899 LP  0  0  0  0  0  0  0  0  0  0  0  0  # atno 17343 bound_to 10162
  156.4035  130.3920  149.6943 LP  0  0  0  0  0  0  0  0  0  0  0  0  # atno 17370 bound_to 10713
  156.4252  130.7788  151.2806 LP  0  0  0  0  0  0  0  0  0  0  0  0  # atno 17371 bound_to 10713
  140.7946  134.3578  157.5455 LP  0  0  0  0  0  0  0  0  0  0  0  0  # atno 17394 bound_to 11000
  139.8782  134.9161  156.3147 LP  0  0  0  0  0  0  0  0  0  0  0  0  # atno 17395 bound_to 11000

$$$$
