AV-unprocessed.smi:976|AV-procd|sdf|4303|dock8
  -GOLD-   22720 2213D 1   1.00000     0.00000
 Structure written by MMmdl.
 41 42  0  0  0  0  0  0  0  0  1 V2000
  149.9757  137.7311  158.8781 C   0  0  0  0  0  0  0  0  0  0  0  0
  148.4718  137.5288  158.6399 C   0  0  1  0  0  0  0  0  0  0  0  0
  147.8457  137.4206  159.9159 O   0  0  0  0  0  0  0  0  0  0  0  0
  148.2506  136.3077  160.7071 C   0  0  0  0  0  0  0  0  0  0  0  0
  147.2648  136.1246  161.8672 C   0  0  0  0  0  0  0  0  0  0  0  0
  147.4287  134.9127  162.3961 F   0  0  0  0  0  0  0  0  0  0  0  0
  147.4898  137.0374  162.8117 F   0  0  0  0  0  0  0  0  0  0  0  0
  146.0112  136.2334  161.4279 F   0  0  0  0  0  0  0  0  0  0  0  0
  147.8691  138.6984  157.8449 C   0  0  0  0  0  0  0  0  0  0  0  0
  146.8393  139.2428  158.2427 O   0  0  0  0  0  0  0  0  0  0  0  0
  148.5387  139.0551  156.7342 N   0  0  0  0  0  0  0  0  0  0  0  0
  148.2247  140.0903  155.8085 C   0  0  0  0  0  0  0  0  0  0  0  0
  146.9548  140.7158  155.7750 C   0  0  0  0  0  0  0  0  0  0  0  0
  146.6976  141.6964  154.8003 C   0  0  0  0  0  0  0  0  0  0  0  0
  147.7163  142.0092  153.8835 C   0  0  0  0  0  0  0  0  0  0  0  0
  148.9256  141.4125  153.8925 N   0  0  0  0  0  0  0  0  0  0  0  0
  149.1842  140.4690  154.8309 C   0  0  0  0  0  0  0  0  0  0  0  0
  150.4648  139.8803  154.8228 N   0  0  0  0  0  0  0  0  0  0  0  0
  151.3090  140.1004  155.9932 C   0  0  0  0  0  0  0  0  0  0  0  0
  152.7314  139.5837  155.7170 C   0  0  0  0  0  0  0  0  0  0  0  0
  152.6768  138.2119  155.3352 O   0  0  0  0  0  0  0  0  0  0  0  0
  151.9108  138.0142  154.1500 C   0  0  0  0  0  0  0  0  0  0  0  0
  150.4665  138.4901  154.3816 C   0  0  0  0  0  0  0  0  0  0  0  0
  150.5164  137.8332  157.9365 H   0  0  0  0  0  0  0  0  0  0  0  0
  150.4002  136.8796  159.4102 H   0  0  0  0  0  0  0  0  0  0  0  0
  150.1721  138.6219  159.4763 H   0  0  0  0  0  0  0  0  0  0  0  0
  148.3356  136.5955  158.0900 H   0  0  0  0  0  0  0  0  0  0  0  0
  148.2819  135.3946  160.1116 H   0  0  0  0  0  0  0  0  0  0  0  0
  149.2549  136.4757  161.0991 H   0  0  0  0  0  0  0  0  0  0  0  0
  149.4229  138.5917  156.5809 H   0  0  0  0  0  0  0  0  0  0  0  0
  146.1699  140.4471  156.4653 H   0  0  0  0  0  0  0  0  0  0  0  0
  145.7386  142.1905  154.7516 H   0  0  0  0  0  0  0  0  0  0  0  0
  147.5550  142.7540  153.1183 H   0  0  0  0  0  0  0  0  0  0  0  0
  151.3375  141.1631  156.2365 H   0  0  0  0  0  0  0  0  0  0  0  0
  150.8895  139.5793  156.8550 H   0  0  0  0  0  0  0  0  0  0  0  0
  153.2132  140.1708  154.9336 H   0  0  0  0  0  0  0  0  0  0  0  0
  153.3463  139.6796  156.6120 H   0  0  0  0  0  0  0  0  0  0  0  0
  152.3669  138.5492  153.3154 H   0  0  0  0  0  0  0  0  0  0  0  0
  151.9206  136.9550  153.8930 H   0  0  0  0  0  0  0  0  0  0  0  0
  149.9880  137.8744  155.1446 H   0  0  0  0  0  0  0  0  0  0  0  0
  149.8862  138.3701  153.4667 H   0  0  0  0  0  0  0  0  0  0  0  0
  1  2  1  0  0  0  0
  1 24  1  0  0  0  0
  1 25  1  0  0  0  0
  1 26  1  0  0  0  0
  2  3  1  0  0  0  0
  2  9  1  0  0  0  0
  2 27  1  0  0  0  0
  3  4  1  0  0  0  0
  4  5  1  0  0  0  0
  4 28  1  0  0  0  0
  4 29  1  0  0  0  0
  5  6  1  0  0  0  0
  5  7  1  0  0  0  0
  5  8  1  0  0  0  0
  9 10  2  0  0  0  0
  9 11  1  0  0  0  0
 11 12  1  0  0  0  0
 11 30  1  0  0  0  0
 12 17  1  0  0  0  0
 12 13  2  0  0  0  0
 13 14  1  0  0  0  0
 13 31  1  0  0  0  0
 14 15  2  0  0  0  0
 14 32  1  0  0  0  0
 15 16  1  0  0  0  0
 15 33  1  0  0  0  0
 16 17  2  0  0  0  0
 17 18  1  0  0  0  0
 18 23  1  0  0  0  0
 18 19  1  0  0  0  0
 19 20  1  0  0  0  0
 19 34  1  0  0  0  0
 19 35  1  0  0  0  0
 20 21  1  0  0  0  0
 20 36  1  0  0  0  0
 20 37  1  0  0  0  0
 21 22  1  0  0  0  0
 22 23  1  0  0  0  0
 22 38  1  0  0  0  0
 22 39  1  0  0  0  0
 23 40  1  0  0  0  0
 23 41  1  0  0  0  0
M  END
> <s_m_source_file>
AV-unprocessed.smi

> <i_m_source_file_index>
976

> <i_lp_mmshare_version>
43012

> <i_f3d_flags>
0

> <s_epik_input>
RkMoRikoRilbQ0gyXU9bQ0BASF0oW0NIM10pQyg9TylbTkhdYzFbY0hdW2NIXVtjSF1uYzFOMltDSDJdW0NIMl1PW0NIMl1bQ0gyXTI=

> <s_epik_cmdline>
J2VwaWtfcHl0aG9uJywgJy1waCcsICc3LjAnLCAnLXRuJywgJzgnLCAnLW1hJywgJzIwMCcsICctbWV0YWxfYmluZGluZycsICctaW1hZScsICc8aW5maWxlLm1hZT4nLCAnLW9tYWUnLCAnPG91dGZpbGUubWFlPic=

> <r_lp_tautomer_probability>
1

> <r_epik_Ionization_Penalty>
0.000443367

> <r_epik_Ionization_Penalty_Charging>
0

> <r_epik_Ionization_Penalty_Neutral>
0.000443367

> <r_epik_State_Penalty>
0.00027288

> <r_epik_Charging_Adjusted_Penalty>
0.00027288

> <i_epik_Tot_Q>
0

> <i_epik_Tot_abs_Q>
0

> <r_epik_Metal_State_Penalty>
-0

> <b_epik_Metal_Only>
0

> <s_lp_Force_Field>
OPLS_2005

> <r_lp_Energy>
26.1197

> <b_lp_Chiralities_Consistent>
1

> <s_lp_Variant>
AV-unprocessed.smi:976-2

> <Gold.Version>
5.8.1

> <Gold.Id.Protein>
6NUR|6NUR_protein|mol2

> <Gold.PLP.Fitness>
45.9173

> <Gold.PLP.PLP>
-40.1050

> <Gold.PLP.part.hbond>
-4.7356

> <Gold.PLP.part.metal>
0.0000

> <Gold.PLP.part.buried>
-2.6667

> <Gold.PLP.part.nonpolar>
-32.3998

> <Gold.PLP.part.repulsive>
0.3609

> <Gold.PLP.ligand.clash>
0.0000

> <Gold.PLP.ligand.torsion>
0.6362

> <Gold.PLP.Chemscore.Hbond>
2.2825

> <Gold.PLP.Chemscore.CHOScore>
0.0000

> <Gold.PLP.Chemscore.Metal>
0.0000

> <Gold.Chemscore.Hbonds>
donor molecule, donor type, donor heavy atom, donor atom, acceptor molecule, acceptor atom, score
      P1  H  6934  6947       L1     3  0.72
      P1  H  7989  7998       L1    18  0.85
      P1  H  8011  8017       L1    16  0.68

> <Gold.PLP.Chemscore.Internal.Correction>
0.2371

> <Gold.Rescore>
     Score         DG    S(hbond)    S(metal)    S(lipo)     H(rot)  DE(clash)    DE(int)     intcor
      8.42     -11.42       0.97        0.00      65.65       1.95       0.08       2.93       ----

> <Gold.Chemscore.Fitness>
8.4168

> <Gold.Chemscore.DG>
-11.4242

> <Gold.Chemscore.ZeroCoef>
-5.4800

> <Gold.Chemscore.Hbond>
0.9738

> <Gold.Chemscore.Metal>
0.0000

> <Gold.Chemscore.Lipo>
65.6544

> <Gold.Chemscore.Internal_Hbond>
0.0000

> <Gold.Chemscore.DEClash>
0.0768

> <Gold.Chemscore.DEInternal>
2.9306

> <Gold.Chemscore.Rot>
1.9491

> <Gold.Chemscore.Internal.Correction>
   9.000000E+99

> <Gold.Chemscore.Hbonds>
donor molecule, donor type, donor heavy atom, donor atom, acceptor molecule, acceptor atom, score
      P1  H  6934  6947       L1     3  0.65
      P1  H  7989  7998       L1    18  0.05
      P1  H  8011  8017       L1    16  0.15

> <Gold.Chemscore.Hbond.Weighted>
-3.2524

> <Gold.Chemscore.Metal.Weighted>
-0.0000

> <Gold.Chemscore.Lipo.Weighted>
-7.6816

> <Gold.Chemscore.Internal_Hbond.Weighted>
0.0000

> <Gold.Chemscore.DEClash.Weighted>
0.0768

> <Gold.Chemscore.DEInternal.Weighted>
2.9306

> <Gold.Chemscore.Rot.Weighted>
4.9897

> <Gold.Chemscore.Internal.Correction.Weighted>
   9.000000E+99

> <Gold.Protein.RotatedTorsions>
[ 6907 6896 6895 6894 ] final   92.32 input  -60.11 | X-H torsion
[ 7974 7965 7964 7962 ] final -148.32 input  175.53 | X-H torsion
[ 8008 7997 7996 7995 ] final -120.30 input   59.86 | X-H torsion
[ 10167 10162 10161 10158 ] final -155.72 input  -65.29 | X-H torsion
[ 10718 10713 10712 10709 ] final   50.81 input   66.30 | X-H torsion
[ 10763 10752 10751 10750 ] final  -76.95 input  -60.55 | X-H torsion
[ 11005 11000 10999 10996 ] final -158.68 input  -57.11 | X-H torsion

> <Gold.Protein.ActiveResidues>
 VAL166  LYS551  ARG553  GLY616  TRP617  ASP618  TYR619  PRO620  LYS621  CYS622 
 ASP623  PHE694  ASN695  SER759  ASP760  ASP761  ALA762  ILE779  LEU786  VAL792 
 PHE793  MET794  SER795  GLU796  ALA797  LYS798  CYS799  TRP800  GLU811  SER814 

> <Gold.Protein.RotatedAtoms>
  152.5452  134.1520  159.8522 H   0  0  0  0  0  0  0  0  0  0  0  0  # atno 6907 bound_to 6896
  151.1546  133.4877  159.2602 H   0  0  0  0  0  0  0  0  0  0  0  0  # atno 6908 bound_to 6896
  151.1436  135.0203  159.8692 H   0  0  0  0  0  0  0  0  0  0  0  0  # atno 6909 bound_to 6896
  144.8037  140.5211  143.5690 H   0  0  0  0  0  0  0  0  0  0  0  0  # atno 7974 bound_to 7965
  155.1297  140.0400  157.2771 H   0  0  0  0  0  0  0  0  0  0  0  0  # atno 8008 bound_to 7997
  154.6552  140.2578  155.7143 H   0  0  0  0  0  0  0  0  0  0  0  0  # atno 8009 bound_to 7997
  156.2595  140.2828  156.1002 H   0  0  0  0  0  0  0  0  0  0  0  0  # atno 8010 bound_to 7997
  139.6908  143.9423  152.2384 H   0  0  0  0  0  0  0  0  0  0  0  0  # atno 10167 bound_to 10162
  157.4921  130.8382  149.8215 H   0  0  0  0  0  0  0  0  0  0  0  0  # atno 10718 bound_to 10713
  154.5065  135.5780  153.6571 H   0  0  0  0  0  0  0  0  0  0  0  0  # atno 10763 bound_to 10752
  152.9888  135.6148  154.2934 H   0  0  0  0  0  0  0  0  0  0  0  0  # atno 10764 bound_to 10752
  154.2846  135.2850  155.2661 H   0  0  0  0  0  0  0  0  0  0  0  0  # atno 10765 bound_to 10752
  140.6509  134.4451  157.5235 H   0  0  0  0  0  0  0  0  0  0  0  0  # atno 11005 bound_to 11000
  145.5491  139.1476  143.3404 LP  0  0  0  0  0  0  0  0  0  0  0  0  # atno 17320 bound_to 7965
  146.2324  140.5629  142.8970 LP  0  0  0  0  0  0  0  0  0  0  0  0  # atno 17321 bound_to 7965
  139.9239  144.6783  150.8433 LP  0  0  0  0  0  0  0  0  0  0  0  0  # atno 17342 bound_to 10162
  140.7682  143.3356  151.2317 LP  0  0  0  0  0  0  0  0  0  0  0  0  # atno 17343 bound_to 10162
  156.0179  130.3806  150.2052 LP  0  0  0  0  0  0  0  0  0  0  0  0  # atno 17370 bound_to 10713
  157.0241  130.9988  151.3331 LP  0  0  0  0  0  0  0  0  0  0  0  0  # atno 17371 bound_to 10713
  139.9046  134.8478  156.1757 LP  0  0  0  0  0  0  0  0  0  0  0  0  # atno 17394 bound_to 11000
  141.0537  133.6876  156.1820 LP  0  0  0  0  0  0  0  0  0  0  0  0  # atno 17395 bound_to 11000

$$$$
