AV-unprocessed.smi:2910|AV-procd|sdf|11176|dock6
  -GOLD-   2272016 63D 1   1.00000     0.00000
 Structure written by MMmdl.
 47 48  0  0  0  0  0  0  0  0  1 V2000
  143.3904  132.5206  149.4270 C   0  0  0  0  0  0  0  0  0  0  0  0
  144.4383  133.1516  150.2953 C   0  0  0  0  0  0  0  0  0  0  0  0
  144.5908  134.5296  150.6252 C   0  0  0  0  0  0  0  0  0  0  0  0
  145.6970  134.5261  151.4303 C   0  0  0  0  0  0  0  0  0  0  0  0
  146.3160  135.5732  152.0376 N   0  0  0  0  0  0  0  0  0  0  0  0
  145.7646  136.6075  152.6960 C   0  0  0  0  0  0  0  0  0  0  0  0
  144.5598  136.7670  152.8919 O   0  0  0  0  0  0  0  0  0  0  0  0
  146.7064  137.4613  153.1256 N   0  0  0  0  0  0  0  0  0  0  0  0
  146.4706  138.7040  153.8661 C   0  0  1  0  0  0  0  0  0  0  0  0
  145.9448  138.3555  155.2794 C   0  0  0  0  0  0  0  0  0  0  0  0
  145.2473  139.5234  155.9989 C   0  0  0  0  0  0  0  0  0  0  0  0
  143.9502  139.7011  155.4724 O   0  0  0  0  0  0  0  0  0  0  0  0
  147.7636  139.5706  153.8769 C   0  0  0  0  0  0  0  0  0  0  0  0
  148.9892  138.8016  154.4300 C   0  0  0  0  0  0  0  0  0  0  0  0
  150.2609  139.6650  154.4598 C   0  0  0  0  0  0  0  0  0  0  0  0
  150.0444  140.9527  155.2636 C   0  0  0  0  0  0  0  0  0  0  0  0
  148.8549  141.7423  154.7050 C   0  0  0  0  0  0  0  0  0  0  0  0
  147.5800  140.8849  154.6801 C   0  0  0  0  0  0  0  0  0  0  0  0
  146.1517  133.2323  151.5554 N   0  0  0  0  0  0  0  0  0  0  0  0
  147.2862  132.7230  152.3010 C   0  0  0  0  0  0  0  0  0  0  0  0
  145.3689  132.3851  150.8528 N   0  0  0  0  0  0  0  0  0  0  0  0
  142.6868  133.2655  149.0548 H   0  0  0  0  0  0  0  0  0  0  0  0
  142.8207  131.7723  149.9784 H   0  0  0  0  0  0  0  0  0  0  0  0
  143.8403  132.0296  148.5638 H   0  0  0  0  0  0  0  0  0  0  0  0
  143.9812  135.3631  150.3106 H   0  0  0  0  0  0  0  0  0  0  0  0
  147.3231  135.5724  151.9739 H   0  0  0  0  0  0  0  0  0  0  0  0
  147.6694  137.2425  152.9157 H   0  0  0  0  0  0  0  0  0  0  0  0
  145.6939  139.2863  153.3670 H   0  0  0  0  0  0  0  0  0  0  0  0
  145.2614  137.5073  155.2171 H   0  0  0  0  0  0  0  0  0  0  0  0
  146.7729  138.0345  155.9099 H   0  0  0  0  0  0  0  0  0  0  0  0
  145.1727  139.3265  157.0689 H   0  0  0  0  0  0  0  0  0  0  0  0
  145.8003  140.4545  155.8748 H   0  0  0  0  0  0  0  0  0  0  0  0
  144.0216  139.8560  154.5427 H   0  0  0  0  0  0  0  0  0  0  0  0
  147.9861  139.8471  152.8450 H   0  0  0  0  0  0  0  0  0  0  0  0
  148.7725  138.4397  155.4360 H   0  0  0  0  0  0  0  0  0  0  0  0
  149.2010  137.9217  153.8244 H   0  0  0  0  0  0  0  0  0  0  0  0
  151.0856  139.0952  154.8885 H   0  0  0  0  0  0  0  0  0  0  0  0
  150.5561  139.9157  153.4400 H   0  0  0  0  0  0  0  0  0  0  0  0
  149.8645  140.7074  156.3111 H   0  0  0  0  0  0  0  0  0  0  0  0
  150.9456  141.5660  155.2380 H   0  0  0  0  0  0  0  0  0  0  0  0
  148.6884  142.6366  155.3059 H   0  0  0  0  0  0  0  0  0  0  0  0
  149.0844  142.0860  153.6954 H   0  0  0  0  0  0  0  0  0  0  0  0
  146.7765  141.4889  154.2588 H   0  0  0  0  0  0  0  0  0  0  0  0
  147.2810  140.6492  155.7024 H   0  0  0  0  0  0  0  0  0  0  0  0
  148.1908  133.2500  151.9959 H   0  0  0  0  0  0  0  0  0  0  0  0
  147.4206  131.6560  152.1162 H   0  0  0  0  0  0  0  0  0  0  0  0
  147.1231  132.8806  153.3674 H   0  0  0  0  0  0  0  0  0  0  0  0
  1  2  1  0  0  0  0
  1 22  1  0  0  0  0
  1 23  1  0  0  0  0
  1 24  1  0  0  0  0
  2 21  2  0  0  0  0
  2  3  1  0  0  0  0
  3  4  2  0  0  0  0
  3 25  1  0  0  0  0
  4  5  1  0  0  0  0
  4 19  1  0  0  0  0
  5  6  1  0  0  0  0
  5 26  1  0  0  0  0
  6  7  2  0  0  0  0
  6  8  1  0  0  0  0
  8  9  1  0  0  0  0
  8 27  1  0  0  0  0
  9 10  1  0  0  0  0
  9 13  1  0  0  0  0
  9 28  1  0  0  0  0
 10 11  1  0  0  0  0
 10 29  1  0  0  0  0
 10 30  1  0  0  0  0
 11 12  1  0  0  0  0
 11 31  1  0  0  0  0
 11 32  1  0  0  0  0
 12 33  1  0  0  0  0
 13 18  1  0  0  0  0
 13 14  1  0  0  0  0
 13 34  1  0  0  0  0
 14 15  1  0  0  0  0
 14 35  1  0  0  0  0
 14 36  1  0  0  0  0
 15 16  1  0  0  0  0
 15 37  1  0  0  0  0
 15 38  1  0  0  0  0
 16 17  1  0  0  0  0
 16 39  1  0  0  0  0
 16 40  1  0  0  0  0
 17 18  1  0  0  0  0
 17 41  1  0  0  0  0
 17 42  1  0  0  0  0
 18 43  1  0  0  0  0
 18 44  1  0  0  0  0
 19 20  1  0  0  0  0
 19 21  1  0  0  0  0
 20 45  1  0  0  0  0
 20 46  1  0  0  0  0
 20 47  1  0  0  0  0
M  END
> <s_m_source_file>
AV-unprocessed.smi

> <i_m_source_file_index>
2910

> <i_lp_mmshare_version>
43012

> <i_f3d_flags>
0

> <s_epik_input>
W0NIM11jMVtjSF1jKG4objEpW0NIM10pW05IXUMoPU8pW05IXVtDQEhdKFtDSDJdW0NIMl1bT0hdKVtDSF0yW0NIMl1bQ0gyXVtDSDJdW0NIMl1bQ0gyXTI=

> <s_epik_cmdline>
J2VwaWtfcHl0aG9uJywgJy1waCcsICc3LjAnLCAnLXRuJywgJzgnLCAnLW1hJywgJzIwMCcsICctbWV0YWxfYmluZGluZycsICctaW1hZScsICc8aW5maWxlLm1hZT4nLCAnLW9tYWUnLCAnPG91dGZpbGUubWFlPic=

> <r_lp_tautomer_probability>
1

> <r_epik_Ionization_Penalty>
0.000101449

> <r_epik_Ionization_Penalty_Charging>
0

> <r_epik_Ionization_Penalty_Neutral>
0.000101449

> <r_epik_State_Penalty>
-0

> <r_epik_Charging_Adjusted_Penalty>
0

> <i_epik_Tot_Q>
0

> <i_epik_Tot_abs_Q>
0

> <r_epik_Metal_State_Penalty>
-0

> <b_epik_Metal_Only>
0

> <s_lp_Force_Field>
OPLS_2005

> <r_lp_Energy>
16.2271

> <b_lp_Chiralities_Consistent>
1

> <s_lp_Variant>
AV-unprocessed.smi:2910-2

> <Gold.Version>
5.8.1

> <Gold.Id.Protein>
6NUR|6NUR_protein|mol2

> <Gold.PLP.Fitness>
41.8882

> <Gold.PLP.PLP>
-34.3608

> <Gold.PLP.part.hbond>
-2.9780

> <Gold.PLP.part.metal>
0.0000

> <Gold.PLP.part.buried>
0.5862

> <Gold.PLP.part.nonpolar>
-31.3634

> <Gold.PLP.part.repulsive>
0.3902

> <Gold.PLP.ligand.clash>
0.0000

> <Gold.PLP.ligand.torsion>
0.7004

> <Gold.PLP.Chemscore.Hbond>
2.9440

> <Gold.PLP.Chemscore.CHOScore>
0.0000

> <Gold.PLP.Chemscore.Metal>
0.0000

> <Gold.Chemscore.Hbonds>
donor molecule, donor type, donor heavy atom, donor atom, acceptor molecule, acceptor atom, score
      L1  H     5    26       P1  7948  1.00
      L1  H     8    27       P1  7948  0.98
      L1  H    12    33       P1 10175  0.67

> <Gold.PLP.Chemscore.Internal.Correction>
0.0962

> <Gold.Rescore>
     Score         DG    S(hbond)    S(metal)    S(lipo)     H(rot)  DE(clash)    DE(int)     intcor
     16.38     -18.37       2.85        0.00      78.50       2.27       1.36       0.63       ----

> <Gold.Chemscore.Fitness>
16.3784

> <Gold.Chemscore.DG>
-18.3670

> <Gold.Chemscore.ZeroCoef>
-5.4800

> <Gold.Chemscore.Hbond>
2.8516

> <Gold.Chemscore.Metal>
0.0000

> <Gold.Chemscore.Lipo>
78.5031

> <Gold.Chemscore.Internal_Hbond>
0.0000

> <Gold.Chemscore.DEClash>
1.3590

> <Gold.Chemscore.DEInternal>
0.6296

> <Gold.Chemscore.Rot>
2.2743

> <Gold.Chemscore.Internal.Correction>
   9.000000E+99

> <Gold.Chemscore.Hbonds>
donor molecule, donor type, donor heavy atom, donor atom, acceptor molecule, acceptor atom, score
      L1  H     5    26       P1  7948  0.99
      L1  H     8    27       P1  7948  0.93
      L1  H    12    33       P1 10175  0.67

> <Gold.Chemscore.Hbond.Weighted>
-9.5244

> <Gold.Chemscore.Metal.Weighted>
-0.0000

> <Gold.Chemscore.Lipo.Weighted>
-9.1849

> <Gold.Chemscore.Internal_Hbond.Weighted>
0.0000

> <Gold.Chemscore.DEClash.Weighted>
1.3590

> <Gold.Chemscore.DEInternal.Weighted>
0.6296

> <Gold.Chemscore.Rot.Weighted>
5.8223

> <Gold.Chemscore.Internal.Correction.Weighted>
   9.000000E+99

> <Gold.Protein.RotatedTorsions>
[ 6907 6896 6895 6894 ] final   15.02 input  -60.11 | X-H torsion
[ 7974 7965 7964 7962 ] final  101.31 input  175.53 | X-H torsion
[ 8008 7997 7996 7995 ] final   63.04 input   59.86 | X-H torsion
[ 10167 10162 10161 10158 ] final -149.85 input  -65.29 | X-H torsion
[ 10718 10713 10712 10709 ] final -122.91 input   66.30 | X-H torsion
[ 10763 10752 10751 10750 ] final -145.21 input  -60.55 | X-H torsion
[ 11005 11000 10999 10996 ] final   58.75 input  -57.11 | X-H torsion

> <Gold.Protein.ActiveResidues>
 VAL166  LYS551  ARG553  GLY616  TRP617  ASP618  TYR619  PRO620  LYS621  CYS622 
 ASP623  PHE694  ASN695  SER759  ASP760  ASP761  ALA762  ILE779  LEU786  VAL792 
 PHE793  MET794  SER795  GLU796  ALA797  LYS798  CYS799  TRP800  GLU811  SER814 

> <Gold.Protein.RotatedAtoms>
  151.8114  135.0679  160.0413 H   0  0  0  0  0  0  0  0  0  0  0  0  # atno 6907 bound_to 6896
  152.3017  133.5658  159.5631 H   0  0  0  0  0  0  0  0  0  0  0  0  # atno 6908 bound_to 6896
  150.7277  134.0197  159.3739 H   0  0  0  0  0  0  0  0  0  0  0  0  # atno 6909 bound_to 6896
  145.3741  139.2392  143.3439 H   0  0  0  0  0  0  0  0  0  0  0  0  # atno 7974 bound_to 7965
  155.6239  140.3496  155.4661 H   0  0  0  0  0  0  0  0  0  0  0  0  # atno 8008 bound_to 7997
  156.0057  140.1222  157.0528 H   0  0  0  0  0  0  0  0  0  0  0  0  # atno 8009 bound_to 7997
  154.4263  140.1091  156.5745 H   0  0  0  0  0  0  0  0  0  0  0  0  # atno 8010 bound_to 7997
  139.7406  143.8668  152.2561 H   0  0  0  0  0  0  0  0  0  0  0  0  # atno 10167 bound_to 10162
  156.1458  130.6499  150.9839 H   0  0  0  0  0  0  0  0  0  0  0  0  # atno 10718 bound_to 10713
  154.8393  135.3419  154.6469 H   0  0  0  0  0  0  0  0  0  0  0  0  # atno 10763 bound_to 10752
  153.7081  135.6965  153.5049 H   0  0  0  0  0  0  0  0  0  0  0  0  # atno 10764 bound_to 10752
  153.2472  135.4365  155.0714 H   0  0  0  0  0  0  0  0  0  0  0  0  # atno 10765 bound_to 10752
  140.0354  134.5950  155.9450 H   0  0  0  0  0  0  0  0  0  0  0  0  # atno 11005 bound_to 11000
  146.2872  140.4397  142.8753 LP  0  0  0  0  0  0  0  0  0  0  0  0  # atno 17320 bound_to 7965
  144.8555  140.7064  143.6141 LP  0  0  0  0  0  0  0  0  0  0  0  0  # atno 17321 bound_to 7965
  139.8617  144.7113  150.9091 LP  0  0  0  0  0  0  0  0  0  0  0  0  # atno 17342 bound_to 10162
  140.7785  143.3812  151.1474 LP  0  0  0  0  0  0  0  0  0  0  0  0  # atno 17343 bound_to 10162
  157.6615  131.0880  150.7828 LP  0  0  0  0  0  0  0  0  0  0  0  0  # atno 17370 bound_to 10713
  156.7899  130.4887  149.5386 LP  0  0  0  0  0  0  0  0  0  0  0  0  # atno 17371 bound_to 10713
  141.1854  133.6555  156.5199 LP  0  0  0  0  0  0  0  0  0  0  0  0  # atno 17394 bound_to 11000
  140.4155  134.7234  157.4860 LP  0  0  0  0  0  0  0  0  0  0  0  0  # atno 17395 bound_to 11000

$$$$
