AV-unprocessed.smi:357|AV-procd|sdf|2416|dock3
  -GOLD-   2262022353D 1   1.00000     0.00000
 Structure written by MMmdl.
 37 38  0  0  0  0  0  0  0  0  1 V2000
  151.7356  137.0572  155.9766 O   0  0  0  0  0  0  0  0  0  0  0  0
  150.9918  137.9071  155.4853 C   0  0  0  0  0  0  0  0  0  0  0  0
  149.7304  137.5835  154.8031 C   0  0  0  0  0  0  0  0  0  0  0  0
  149.2827  135.9125  154.7083 Cl  0  0  0  0  0  0  0  0  0  0  0  0
  148.9325  138.5402  154.2565 C   0  0  0  0  0  0  0  0  0  0  0  0
  147.7504  138.1961  153.6114 N   0  0  0  0  0  0  0  0  0  0  0  0
  146.7737  139.0647  152.9706 C   0  0  0  0  0  0  0  0  0  0  0  0
  146.9196  139.0680  151.4419 C   0  0  0  0  0  0  0  0  0  0  0  0
  146.9621  137.7451  150.9513 O   0  0  0  0  0  0  0  0  0  0  0  0
  149.3939  139.9149  154.3804 C   0  0  0  0  0  0  0  0  0  0  0  0
  150.4911  140.2324  154.9760 N   0  0  0  0  0  0  0  0  0  0  0  0
  151.2796  139.2416  155.5245 N   0  0  0  0  0  0  0  0  0  0  0  0
  152.5112  139.7349  156.1496 C   0  0  0  0  0  0  0  0  0  0  0  0
  152.2267  140.3712  157.5183 C   0  0  0  0  0  0  0  0  0  0  0  0
  153.3202  140.1001  158.3841 O   0  0  0  0  0  0  0  0  0  0  0  0
  153.3607  140.7441  159.6022 C   0  0  0  0  0  0  0  0  0  0  0  0
  152.7182  141.9968  159.6851 C   0  0  0  0  0  0  0  0  0  0  0  0
  152.7112  142.7253  160.8902 C   0  0  0  0  0  0  0  0  0  0  0  0
  153.3509  142.2053  162.0305 C   0  0  0  0  0  0  0  0  0  0  0  0
  153.3443  143.0955  163.5083 Cl  0  0  0  0  0  0  0  0  0  0  0  0
  153.9966  140.9567  161.9621 C   0  0  0  0  0  0  0  0  0  0  0  0
  154.0027  140.2279  160.7569 C   0  0  0  0  0  0  0  0  0  0  0  0
  147.5159  137.2135  153.5942 H   0  0  0  0  0  0  0  0  0  0  0  0
  145.7951  138.6552  153.2222 H   0  0  0  0  0  0  0  0  0  0  0  0
  146.7883  140.0737  153.3827 H   0  0  0  0  0  0  0  0  0  0  0  0
  146.1193  139.6308  150.9597 H   0  0  0  0  0  0  0  0  0  0  0  0
  147.8590  139.5470  151.1653 H   0  0  0  0  0  0  0  0  0  0  0  0
  147.3427  137.1905  151.6151 H   0  0  0  0  0  0  0  0  0  0  0  0
  148.7577  140.6787  153.9354 H   0  0  0  0  0  0  0  0  0  0  0  0
  153.2207  138.9145  156.2720 H   0  0  0  0  0  0  0  0  0  0  0  0
  153.0108  140.4542  155.4981 H   0  0  0  0  0  0  0  0  0  0  0  0
  152.0949  141.4492  157.4106 H   0  0  0  0  0  0  0  0  0  0  0  0
  151.3065  139.9541  157.9307 H   0  0  0  0  0  0  0  0  0  0  0  0
  152.2244  142.4038  158.8149 H   0  0  0  0  0  0  0  0  0  0  0  0
  152.2142  143.6832  160.9371 H   0  0  0  0  0  0  0  0  0  0  0  0
  154.4893  140.5549  162.8353 H   0  0  0  0  0  0  0  0  0  0  0  0
  154.5087  139.2747  160.7448 H   0  0  0  0  0  0  0  0  0  0  0  0
  1  2  2  0  0  0  0
  2 12  1  0  0  0  0
  2  3  1  0  0  0  0
  3  4  1  0  0  0  0
  3  5  2  0  0  0  0
  5  6  1  0  0  0  0
  5 10  1  0  0  0  0
  6  7  1  0  0  0  0
  6 23  1  0  0  0  0
  7  8  1  0  0  0  0
  7 24  1  0  0  0  0
  7 25  1  0  0  0  0
  8  9  1  0  0  0  0
  8 26  1  0  0  0  0
  8 27  1  0  0  0  0
  9 28  1  0  0  0  0
 10 11  2  0  0  0  0
 10 29  1  0  0  0  0
 11 12  1  0  0  0  0
 12 13  1  0  0  0  0
 13 14  1  0  0  0  0
 13 30  1  0  0  0  0
 13 31  1  0  0  0  0
 14 15  1  0  0  0  0
 14 32  1  0  0  0  0
 14 33  1  0  0  0  0
 15 16  1  0  0  0  0
 16 22  1  0  0  0  0
 16 17  2  0  0  0  0
 17 18  1  0  0  0  0
 17 34  1  0  0  0  0
 18 19  2  0  0  0  0
 18 35  1  0  0  0  0
 19 20  1  0  0  0  0
 19 21  1  0  0  0  0
 21 22  2  0  0  0  0
 21 36  1  0  0  0  0
 22 37  1  0  0  0  0
M  END
> <s_m_source_file>
AV-unprocessed.smi

> <i_m_source_file_index>
357

> <i_lp_mmshare_version>
43012

> <i_f3d_flags>
0

> <s_epik_input>
W09IXVtDSDJdW0NIMl1bTkhdYyhjKENsKWMxPU8pW2NIXW5uMVtDSDJdW0NIMl1PYzJbY0hdW2NIXWMoQ2wpW2NIXVtjSF0y

> <s_epik_cmdline>
J2VwaWtfcHl0aG9uJywgJy1waCcsICc3LjAnLCAnLXRuJywgJzgnLCAnLW1hJywgJzIwMCcsICctbWV0YWxfYmluZGluZycsICctaW1hZScsICc8aW5maWxlLm1hZT4nLCAnLW9tYWUnLCAnPG91dGZpbGUubWFlPic=

> <r_lp_tautomer_probability>
1

> <r_epik_Ionization_Penalty>
2.22594e-05

> <r_epik_Ionization_Penalty_Charging>
1.05597e-09

> <r_epik_Ionization_Penalty_Neutral>
2.22583e-05

> <r_epik_State_Penalty>
-0

> <r_epik_Charging_Adjusted_Penalty>
1.05597e-09

> <i_epik_Tot_Q>
0

> <i_epik_Tot_abs_Q>
0

> <r_epik_Metal_State_Penalty>
-0

> <b_epik_Metal_Only>
0

> <s_lp_Force_Field>
OPLS_2005

> <r_lp_Energy>
32.065

> <b_lp_Chiralities_Consistent>
1

> <s_lp_Variant>
AV-unprocessed.smi:357-1

> <Gold.Version>
5.8.1

> <Gold.Id.Protein>
6NUR|6NUR_protein|mol2

> <Gold.PLP.Fitness>
55.6660

> <Gold.PLP.PLP>
-45.8553

> <Gold.PLP.part.hbond>
-5.3580

> <Gold.PLP.part.metal>
0.0000

> <Gold.PLP.part.buried>
3.2553

> <Gold.PLP.part.nonpolar>
-41.4269

> <Gold.PLP.part.repulsive>
0.1009

> <Gold.PLP.ligand.clash>
0.0000

> <Gold.PLP.ligand.torsion>
0.9793

> <Gold.PLP.Chemscore.Hbond>
3.8903

> <Gold.PLP.Chemscore.CHOScore>
0.0000

> <Gold.PLP.Chemscore.Metal>
0.0000

> <Gold.Chemscore.Hbonds>
donor molecule, donor type, donor heavy atom, donor atom, acceptor molecule, acceptor atom, score
      L1  H     9    28       P1  7948  0.70
      P1  H  7954  7966       L1     9  1.00
      P1  H  7989  7998       L1    11  1.00
      P1  H  7997  8008       L1    15  0.85
      P1  H 10752 10763       L1     1  0.32

> <Gold.PLP.Chemscore.Internal.Correction>
0.0986

> <Gold.Rescore>
     Score         DG    S(hbond)    S(metal)    S(lipo)     H(rot)  DE(clash)    DE(int)     intcor
     17.82     -21.03       2.52        0.00     120.18       2.70       2.15       1.06       ----

> <Gold.Chemscore.Fitness>
17.8249

> <Gold.Chemscore.DG>
-21.0338

> <Gold.Chemscore.ZeroCoef>
-5.4800

> <Gold.Chemscore.Hbond>
2.5162

> <Gold.Chemscore.Metal>
0.0000

> <Gold.Chemscore.Lipo>
120.1840

> <Gold.Chemscore.Internal_Hbond>
0.0000

> <Gold.Chemscore.DEClash>
2.1468

> <Gold.Chemscore.DEInternal>
1.0621

> <Gold.Chemscore.Rot>
2.6999

> <Gold.Chemscore.Internal.Correction>
   9.000000E+99

> <Gold.Chemscore.Hbonds>
donor molecule, donor type, donor heavy atom, donor atom, acceptor molecule, acceptor atom, score
      L1  H     6    23       P1  7948  0.01
      L1  H     9    28       P1  7948  0.70
      P1  H  7954  7966       L1     9  0.10
      P1  H  7989  7998       L1    11  0.13
      P1  H  7997  8008       L1    15  0.14
      P1  H 10752 10763       L1     1  0.32

> <Gold.Chemscore.Hbond.Weighted>
-8.4041

> <Gold.Chemscore.Metal.Weighted>
-0.0000

> <Gold.Chemscore.Lipo.Weighted>
-14.0615

> <Gold.Chemscore.Internal_Hbond.Weighted>
0.0000

> <Gold.Chemscore.DEClash.Weighted>
2.1468

> <Gold.Chemscore.DEInternal.Weighted>
1.0621

> <Gold.Chemscore.Rot.Weighted>
6.9118

> <Gold.Chemscore.Internal.Correction.Weighted>
   9.000000E+99

> <Gold.Protein.RotatedTorsions>
[ 6907 6896 6895 6894 ] final   -7.22 input  -60.11 | X-H torsion
[ 7974 7965 7964 7962 ] final -175.97 input  175.53 | X-H torsion
[ 8008 7997 7996 7995 ] final  -89.91 input   59.86 | X-H torsion
[ 10167 10162 10161 10158 ] final -120.25 input  -65.29 | X-H torsion
[ 10718 10713 10712 10709 ] final   21.63 input   66.30 | X-H torsion
[ 10763 10752 10751 10750 ] final   67.20 input  -60.55 | X-H torsion
[ 11005 11000 10999 10996 ] final  -11.93 input  -57.11 | X-H torsion

> <Gold.Protein.ActiveResidues>
 VAL166  LYS551  ARG553  GLY616  TRP617  ASP618  TYR619  PRO620  LYS621  CYS622 
 ASP623  PHE694  ASN695  SER759  ASP760  ASP761  ALA762  ILE779  LEU786  VAL792 
 PHE793  MET794  SER795  GLU796  ALA797  LYS798  CYS799  TRP800  GLU811  SER814 

> <Gold.Protein.RotatedAtoms>
  151.4530  135.1031  159.9702 H   0  0  0  0  0  0  0  0  0  0  0  0  # atno 6907 bound_to 6896
  152.4881  133.8422  159.7169 H   0  0  0  0  0  0  0  0  0  0  0  0  # atno 6908 bound_to 6896
  150.9009  133.7060  159.2906 H   0  0  0  0  0  0  0  0  0  0  0  0  # atno 6909 bound_to 6896
  144.7127  140.1240  143.6403 H   0  0  0  0  0  0  0  0  0  0  0  0  # atno 7974 bound_to 7965
  154.6922  140.0536  157.0375 H   0  0  0  0  0  0  0  0  0  0  0  0  # atno 8008 bound_to 7997
  155.0801  140.3208  155.4585 H   0  0  0  0  0  0  0  0  0  0  0  0  # atno 8009 bound_to 7997
  156.2732  140.2066  156.5929 H   0  0  0  0  0  0  0  0  0  0  0  0  # atno 8010 bound_to 7997
  140.0378  143.5183  152.2145 H   0  0  0  0  0  0  0  0  0  0  0  0  # atno 10167 bound_to 10162
  157.1411  130.6633  149.5981 H   0  0  0  0  0  0  0  0  0  0  0  0  # atno 10718 bound_to 10713
  153.0175  135.5292  154.6943 H   0  0  0  0  0  0  0  0  0  0  0  0  # atno 10763 bound_to 10752
  154.6069  135.2874  155.0477 H   0  0  0  0  0  0  0  0  0  0  0  0  # atno 10764 bound_to 10752
  154.1513  135.6562  153.5016 H   0  0  0  0  0  0  0  0  0  0  0  0  # atno 10765 bound_to 10752
  140.7604  133.8519  155.9120 H   0  0  0  0  0  0  0  0  0  0  0  0  # atno 11005 bound_to 11000
  145.9346  139.2628  143.1305 LP  0  0  0  0  0  0  0  0  0  0  0  0  # atno 17320 bound_to 7965
  145.9488  140.8924  143.0270 LP  0  0  0  0  0  0  0  0  0  0  0  0  # atno 17321 bound_to 7965
  139.6033  144.7589  151.3120 LP  0  0  0  0  0  0  0  0  0  0  0  0  # atno 17342 bound_to 10162
  140.7273  143.6965  150.7879 LP  0  0  0  0  0  0  0  0  0  0  0  0  # atno 17343 bound_to 10162
  155.9788  130.4777  150.6679 LP  0  0  0  0  0  0  0  0  0  0  0  0  # atno 17370 bound_to 10713
  157.4306  131.0849  151.1042 LP  0  0  0  0  0  0  0  0  0  0  0  0  # atno 17371 bound_to 10713
  140.9668  134.1583  157.4609 LP  0  0  0  0  0  0  0  0  0  0  0  0  # atno 17394 bound_to 11000
  139.8772  134.9964  156.5795 LP  0  0  0  0  0  0  0  0  0  0  0  0  # atno 17395 bound_to 11000

$$$$
