AV-unprocessed.smi:584|AV-procd|sdf|2999|dock1
  -GOLD-   2262023503D 1   1.00000     0.00000
 Structure written by MMmdl.
 41 42  0  0  0  0  0  0  0  0  1 V2000
  152.8084  139.3110  156.3767 O   0  0  0  0  0  0  0  0  0  0  0  0
  151.9156  139.6361  157.1609 C   0  0  0  0  0  0  0  0  0  0  0  0
  152.0839  139.4515  158.6759 C   0  0  0  0  0  0  0  0  0  0  0  0
  152.5050  140.6788  159.3721 N   0  0  0  0  0  0  0  0  0  0  0  0
  151.9242  141.8864  158.9381 C   0  0  0  0  0  0  0  0  0  0  0  0
  152.2369  143.0834  159.4697 C   0  0  0  0  0  0  0  0  0  0  0  0
  151.5584  144.3638  159.0086 C   0  0  0  0  0  0  0  0  0  0  0  0
  152.0311  145.4228  159.6661 F   0  0  0  0  0  0  0  0  0  0  0  0
  151.7794  144.5492  157.7081 F   0  0  0  0  0  0  0  0  0  0  0  0
  150.2400  144.3051  159.2010 F   0  0  0  0  0  0  0  0  0  0  0  0
  153.1944  143.0749  160.5582 C   0  0  0  0  0  0  0  0  0  0  0  0
  153.7570  141.9283  160.9879 C   0  0  0  0  0  0  0  0  0  0  0  0
  153.4269  140.6371  160.3801 C   0  0  0  0  0  0  0  0  0  0  0  0
  153.9466  139.5853  160.7537 O   0  0  0  0  0  0  0  0  0  0  0  0
  150.7520  140.1762  156.7672 N   0  0  0  0  0  0  0  0  0  0  0  0
  150.3739  140.4667  155.3870 C   0  0  0  0  0  0  0  0  0  0  0  0
  148.8686  140.7761  155.2406 C   0  0  0  0  0  0  0  0  0  0  0  0
  148.5531  141.2612  153.8102 C   0  0  0  0  0  0  0  0  0  0  0  0
  147.0583  141.5679  153.6245 C   0  0  0  0  0  0  0  0  0  0  0  0
  146.5672  142.5917  154.6582 C   0  0  0  0  0  0  0  0  0  0  0  0
  146.8636  142.1138  156.0868 C   0  0  0  0  0  0  0  0  0  0  0  0
  148.3581  141.8061  156.2749 C   0  0  0  0  0  0  0  0  0  0  0  0
  151.1383  139.0982  159.0905 H   0  0  0  0  0  0  0  0  0  0  0  0
  152.7916  138.6396  158.8525 H   0  0  0  0  0  0  0  0  0  0  0  0
  151.2097  141.7767  158.1349 H   0  0  0  0  0  0  0  0  0  0  0  0
  153.4707  144.0046  161.0334 H   0  0  0  0  0  0  0  0  0  0  0  0
  154.4704  141.9598  161.7982 H   0  0  0  0  0  0  0  0  0  0  0  0
  150.0768  140.4120  157.4800 H   0  0  0  0  0  0  0  0  0  0  0  0
  150.9719  141.2831  154.9787 H   0  0  0  0  0  0  0  0  0  0  0  0
  150.6239  139.5868  154.7937 H   0  0  0  0  0  0  0  0  0  0  0  0
  148.3221  139.8452  155.4006 H   0  0  0  0  0  0  0  0  0  0  0  0
  149.1371  142.1553  153.5867 H   0  0  0  0  0  0  0  0  0  0  0  0
  148.8589  140.5065  153.0848 H   0  0  0  0  0  0  0  0  0  0  0  0
  146.8783  141.9420  152.6164 H   0  0  0  0  0  0  0  0  0  0  0  0
  146.4821  140.6467  153.7204 H   0  0  0  0  0  0  0  0  0  0  0  0
  147.0547  143.5518  154.4842 H   0  0  0  0  0  0  0  0  0  0  0  0
  145.4968  142.7605  154.5362 H   0  0  0  0  0  0  0  0  0  0  0  0
  146.5463  142.8703  156.8052 H   0  0  0  0  0  0  0  0  0  0  0  0
  146.2773  141.2194  156.3016 H   0  0  0  0  0  0  0  0  0  0  0  0
  148.5125  141.4382  157.2891 H   0  0  0  0  0  0  0  0  0  0  0  0
  148.9339  142.7288  156.1916 H   0  0  0  0  0  0  0  0  0  0  0  0
  1  2  2  0  0  0  0
  2  3  1  0  0  0  0
  2 15  1  0  0  0  0
  3  4  1  0  0  0  0
  3 23  1  0  0  0  0
  3 24  1  0  0  0  0
  4 13  1  0  0  0  0
  4  5  1  0  0  0  0
  5  6  2  0  0  0  0
  5 25  1  0  0  0  0
  6  7  1  0  0  0  0
  6 11  1  0  0  0  0
  7  8  1  0  0  0  0
  7  9  1  0  0  0  0
  7 10  1  0  0  0  0
 11 12  2  0  0  0  0
 11 26  1  0  0  0  0
 12 13  1  0  0  0  0
 12 27  1  0  0  0  0
 13 14  2  0  0  0  0
 15 16  1  0  0  0  0
 15 28  1  0  0  0  0
 16 17  1  0  0  0  0
 16 29  1  0  0  0  0
 16 30  1  0  0  0  0
 17 22  1  0  0  0  0
 17 18  1  0  0  0  0
 17 31  1  0  0  0  0
 18 19  1  0  0  0  0
 18 32  1  0  0  0  0
 18 33  1  0  0  0  0
 19 20  1  0  0  0  0
 19 34  1  0  0  0  0
 19 35  1  0  0  0  0
 20 21  1  0  0  0  0
 20 36  1  0  0  0  0
 20 37  1  0  0  0  0
 21 22  1  0  0  0  0
 21 38  1  0  0  0  0
 21 39  1  0  0  0  0
 22 40  1  0  0  0  0
 22 41  1  0  0  0  0
M  END
> <s_m_source_file>
AV-unprocessed.smi

> <i_m_source_file_index>
584

> <i_lp_mmshare_version>
43012

> <i_f3d_flags>
0

> <s_epik_input>
W0NIMl0xW0NIMl1bQ0gyXVtDSDJdW0NIMl1bQ0hdMVtDSDJdW05IXUMoPU8pW0NIMl1uMltjSF1jKEMoRikoRilGKVtjSF1bY0hdYzI9Tw==

> <s_epik_cmdline>
J2VwaWtfcHl0aG9uJywgJy1waCcsICc3LjAnLCAnLXRuJywgJzgnLCAnLW1hJywgJzIwMCcsICctbWV0YWxfYmluZGluZycsICctaW1hZScsICc8aW5maWxlLm1hZT4nLCAnLW9tYWUnLCAnPG91dGZpbGUubWFlPic=

> <r_lp_tautomer_probability>
1

> <r_epik_Ionization_Penalty>
3.78989e-08

> <r_epik_Ionization_Penalty_Charging>
1.81011e-08

> <r_epik_Ionization_Penalty_Neutral>
1.97978e-08

> <r_epik_State_Penalty>
-0

> <r_epik_Charging_Adjusted_Penalty>
1.81011e-08

> <i_epik_Tot_Q>
0

> <i_epik_Tot_abs_Q>
0

> <r_epik_Metal_State_Penalty>
-0

> <b_epik_Metal_Only>
0

> <s_lp_Force_Field>
OPLS_2005

> <r_lp_Energy>
22.635

> <b_lp_Chiralities_Consistent>
1

> <s_lp_Variant>
AV-unprocessed.smi:584-1

> <Gold.Version>
5.8.1

> <Gold.Id.Protein>
6NUR|6NUR_protein|mol2

> <Gold.PLP.Fitness>
52.7629

> <Gold.PLP.PLP>
-51.0746

> <Gold.PLP.part.hbond>
-1.0000

> <Gold.PLP.part.metal>
0.0000

> <Gold.PLP.part.buried>
-4.1518

> <Gold.PLP.part.nonpolar>
-45.0841

> <Gold.PLP.part.repulsive>
0.0556

> <Gold.PLP.ligand.clash>
0.0000

> <Gold.PLP.ligand.torsion>
0.7422

> <Gold.PLP.Chemscore.Hbond>
1.0000

> <Gold.PLP.Chemscore.CHOScore>
0.0000

> <Gold.PLP.Chemscore.Metal>
0.0000

> <Gold.Chemscore.Hbonds>
donor molecule, donor type, donor heavy atom, donor atom, acceptor molecule, acceptor atom, score
      P1  H  7997  8008       L1     1  1.00

> <Gold.PLP.Chemscore.Internal.Correction>
0.1726

> <Gold.Rescore>
     Score         DG    S(hbond)    S(metal)    S(lipo)     H(rot)  DE(clash)    DE(int)     intcor
     14.16     -15.98       0.99        0.00      99.55       1.75       0.07       1.74       ----

> <Gold.Chemscore.Fitness>
14.1617

> <Gold.Chemscore.DG>
-15.9762

> <Gold.Chemscore.ZeroCoef>
-5.4800

> <Gold.Chemscore.Hbond>
0.9936

> <Gold.Chemscore.Metal>
0.0000

> <Gold.Chemscore.Lipo>
99.5485

> <Gold.Chemscore.Internal_Hbond>
0.0000

> <Gold.Chemscore.DEClash>
0.0711

> <Gold.Chemscore.DEInternal>
1.7433

> <Gold.Chemscore.Rot>
1.7459

> <Gold.Chemscore.Internal.Correction>
   9.000000E+99

> <Gold.Chemscore.Hbonds>
donor molecule, donor type, donor heavy atom, donor atom, acceptor molecule, acceptor atom, score
      P1  H  7997  8008       L1     1  0.98

> <Gold.Chemscore.Hbond.Weighted>
-3.3186

> <Gold.Chemscore.Metal.Weighted>
-0.0000

> <Gold.Chemscore.Lipo.Weighted>
-11.6472

> <Gold.Chemscore.Internal_Hbond.Weighted>
0.0000

> <Gold.Chemscore.DEClash.Weighted>
0.0711

> <Gold.Chemscore.DEInternal.Weighted>
1.7433

> <Gold.Chemscore.Rot.Weighted>
4.4696

> <Gold.Chemscore.Internal.Correction.Weighted>
   9.000000E+99

> <Gold.Protein.RotatedTorsions>
[ 6907 6896 6895 6894 ] final -144.69 input  -60.11 | X-H torsion
[ 7974 7965 7964 7962 ] final -124.92 input  175.53 | X-H torsion
[ 8008 7997 7996 7995 ] final  -29.96 input   59.86 | X-H torsion
[ 10167 10162 10161 10158 ] final -172.85 input  -65.29 | X-H torsion
[ 10718 10713 10712 10709 ] final  -79.86 input   66.30 | X-H torsion
[ 10763 10752 10751 10750 ] final -138.92 input  -60.55 | X-H torsion
[ 11005 11000 10999 10996 ] final -134.42 input  -57.11 | X-H torsion

> <Gold.Protein.ActiveResidues>
 VAL166  LYS551  ARG553  GLY616  TRP617  ASP618  TYR619  PRO620  LYS621  CYS622 
 ASP623  PHE694  ASN695  SER759  ASP760  ASP761  ALA762  ILE779  LEU786  VAL792 
 PHE793  MET794  SER795  GLU796  ALA797  LYS798  CYS799  TRP800  GLU811  SER814 

> <Gold.Protein.RotatedAtoms>
  151.1175  133.5128  159.2603 H   0  0  0  0  0  0  0  0  0  0  0  0  # atno 6907 bound_to 6896
  151.1898  135.0397  159.8838 H   0  0  0  0  0  0  0  0  0  0  0  0  # atno 6908 bound_to 6896
  152.5454  134.1017  159.8374 H   0  0  0  0  0  0  0  0  0  0  0  0  # atno 6909 bound_to 6896
  145.0030  140.7837  143.4485 H   0  0  0  0  0  0  0  0  0  0  0  0  # atno 7974 bound_to 7965
  154.4269  140.1804  156.1331 H   0  0  0  0  0  0  0  0  0  0  0  0  # atno 8008 bound_to 7997
  156.0052  140.3356  155.6860 H   0  0  0  0  0  0  0  0  0  0  0  0  # atno 8009 bound_to 7997
  155.6188  140.0657  157.2675 H   0  0  0  0  0  0  0  0  0  0  0  0  # atno 8010 bound_to 7997
  139.5721  144.1617  152.1399 H   0  0  0  0  0  0  0  0  0  0  0  0  # atno 10167 bound_to 10162
  156.0083  130.4558  150.3713 H   0  0  0  0  0  0  0  0  0  0  0  0  # atno 10718 bound_to 10713
  154.8624  135.3598  154.5462 H   0  0  0  0  0  0  0  0  0  0  0  0  # atno 10763 bound_to 10752
  153.6082  135.7010  153.5362 H   0  0  0  0  0  0  0  0  0  0  0  0  # atno 10764 bound_to 10752
  153.3232  135.4145  155.1395 H   0  0  0  0  0  0  0  0  0  0  0  0  # atno 10765 bound_to 10752
  140.8991  134.1713  157.4473 H   0  0  0  0  0  0  0  0  0  0  0  0  # atno 11005 bound_to 11000
  145.2127  139.2197  143.5134 LP  0  0  0  0  0  0  0  0  0  0  0  0  # atno 17320 bound_to 7965
  146.3455  140.1968  142.8589 LP  0  0  0  0  0  0  0  0  0  0  0  0  # atno 17321 bound_to 7965
  140.1152  144.5422  150.6898 LP  0  0  0  0  0  0  0  0  0  0  0  0  # atno 17342 bound_to 10162
  140.7005  143.2432  151.4877 LP  0  0  0  0  0  0  0  0  0  0  0  0  # atno 17343 bound_to 10162
  157.1797  131.0389  151.2754 LP  0  0  0  0  0  0  0  0  0  0  0  0  # atno 17370 bound_to 10713
  157.4156  130.7409  149.6873 LP  0  0  0  0  0  0  0  0  0  0  0  0  # atno 17371 bound_to 10713
  139.8739  134.9890  156.5440 LP  0  0  0  0  0  0  0  0  0  0  0  0  # atno 17394 bound_to 11000
  140.8252  133.8322  155.8932 LP  0  0  0  0  0  0  0  0  0  0  0  0  # atno 17395 bound_to 11000

$$$$
