AV-unprocessed.smi:148|AV-procd|sdf|1208|dock9
  -GOLD-   2262018383D 1   1.00000     0.00000
 Structure written by MMmdl.
 63 67  0  0  0  0  0  0  0  0  1 V2000
  147.6071  134.4916  153.0678 O   0  0  0  0  0  0  0  0  0  0  0  0
  148.1570  133.3370  153.6673 C   0  0  0  0  0  0  0  0  0  0  0  0
  149.0224  133.7008  154.8952 C   0  0  2  0  0  0  0  0  0  0  0  0
  150.1576  134.6858  154.5130 C   0  0  0  0  0  0  0  0  0  0  0  0
  150.1120  135.9207  155.2759 N   0  0  0  0  0  0  0  0  0  0  0  0
  149.2371  136.2350  156.2925 C   0  0  0  0  0  0  0  0  0  0  0  0
  149.3942  137.4207  156.8159 N   0  0  0  0  0  0  0  0  0  0  0  0
  150.4542  137.9635  156.1017 C   0  0  0  0  0  0  0  0  0  0  0  0
  151.1328  139.2091  156.1376 C   0  0  0  0  0  0  0  0  0  0  0  0
  150.7875  140.1852  157.0052 N   0  0  0  0  0  0  0  0  0  0  0  0
  151.9427  140.5465  157.8299 C   0  0  0  0  0  0  0  0  0  0  0  0
  151.5335  141.4333  159.0094 C   0  0  0  0  0  0  0  0  0  0  0  0
  150.8018  142.6730  158.4939 C   0  0  0  0  0  0  0  0  0  0  0  0
  149.6021  142.2505  157.6364 C   0  0  0  0  0  0  0  0  0  0  0  0
  149.9987  141.3119  156.4636 C   0  0  2  0  0  0  0  0  0  0  0  0
  148.7219  140.8652  155.6671 C   0  0  1  0  0  0  0  0  0  0  0  0
  147.7660  142.0055  155.2656 C   0  0  0  0  0  0  0  0  0  0  0  0
  146.8638  141.4488  154.1581 C   0  0  0  0  0  0  0  0  0  0  0  0
  147.5596  140.1880  153.6339 C   0  0  0  0  0  0  0  0  0  0  0  0
  148.9320  140.1467  154.3138 C   0  0  1  0  0  0  0  0  0  0  0  0
  149.8621  140.8393  153.5019 O   0  0  0  0  0  0  0  0  0  0  0  0
  152.1607  139.4028  155.2691 N   0  0  0  0  0  0  0  0  0  0  0  0
  152.4892  138.4400  154.4023 C   0  0  0  0  0  0  0  0  0  0  0  0
  151.9367  137.2345  154.2439 N   0  0  0  0  0  0  0  0  0  0  0  0
  150.9158  137.0367  155.1271 C   0  0  0  0  0  0  0  0  0  0  0  0
  149.5303  132.4385  155.6449 C   0  0  2  0  0  0  0  0  0  0  0  0
  150.4272  132.7105  156.8545 C   0  0  0  0  0  0  0  0  0  0  0  0
  151.6517  131.8270  156.6185 C   0  0  0  0  0  0  0  0  0  0  0  0
  151.1718  130.8010  155.7652 O   0  0  0  0  0  0  0  0  0  0  0  0
  150.3339  131.4307  154.8105 C   0  0  0  0  0  0  0  0  0  0  0  0
  148.2842  134.9240  152.5698 H   0  0  0  0  0  0  0  0  0  0  0  0
  147.3532  132.6548  153.9448 H   0  0  0  0  0  0  0  0  0  0  0  0
  148.7510  132.8329  152.9052 H   0  0  0  0  0  0  0  0  0  0  0  0
  148.3695  134.2249  155.5950 H   0  0  0  0  0  0  0  0  0  0  0  0
  151.1396  134.2428  154.6731 H   0  0  0  0  0  0  0  0  0  0  0  0
  150.1056  134.9409  153.4547 H   0  0  0  0  0  0  0  0  0  0  0  0
  148.4749  135.5519  156.6384 H   0  0  0  0  0  0  0  0  0  0  0  0
  152.4282  139.6449  158.2077 H   0  0  0  0  0  0  0  0  0  0  0  0
  152.6784  141.0711  157.2182 H   0  0  0  0  0  0  0  0  0  0  0  0
  150.8874  140.8738  159.6871 H   0  0  0  0  0  0  0  0  0  0  0  0
  152.4135  141.7259  159.5827 H   0  0  0  0  0  0  0  0  0  0  0  0
  150.4696  143.2896  159.3295 H   0  0  0  0  0  0  0  0  0  0  0  0
  151.4822  143.2860  157.9016 H   0  0  0  0  0  0  0  0  0  0  0  0
  148.8672  141.7518  158.2700 H   0  0  0  0  0  0  0  0  0  0  0  0
  149.1261  143.1573  157.2646 H   0  0  0  0  0  0  0  0  0  0  0  0
  150.6495  141.8829  155.8001 H   0  0  0  0  0  0  0  0  0  0  0  0
  148.1489  140.1944  156.3103 H   0  0  0  0  0  0  0  0  0  0  0  0
  147.1804  142.3755  156.1078 H   0  0  0  0  0  0  0  0  0  0  0  0
  148.3376  142.8460  154.8691 H   0  0  0  0  0  0  0  0  0  0  0  0
  145.8776  141.1977  154.5506 H   0  0  0  0  0  0  0  0  0  0  0  0
  146.7224  142.1862  153.3674 H   0  0  0  0  0  0  0  0  0  0  0  0
  146.9829  139.3133  153.9374 H   0  0  0  0  0  0  0  0  0  0  0  0
  147.6239  140.1652  152.5452 H   0  0  0  0  0  0  0  0  0  0  0  0
  149.2590  139.1144  154.4192 H   0  0  0  0  0  0  0  0  0  0  0  0
  149.6056  140.7359  152.5983 H   0  0  0  0  0  0  0  0  0  0  0  0
  153.3096  138.6700  153.7388 H   0  0  0  0  0  0  0  0  0  0  0  0
  148.6637  131.9037  156.0363 H   0  0  0  0  0  0  0  0  0  0  0  0
  150.7031  133.7575  156.9792 H   0  0  0  0  0  0  0  0  0  0  0  0
  149.9151  132.4052  157.7679 H   0  0  0  0  0  0  0  0  0  0  0  0
  152.4373  132.3851  156.1061 H   0  0  0  0  0  0  0  0  0  0  0  0
  152.0656  131.4234  157.5430 H   0  0  0  0  0  0  0  0  0  0  0  0
  149.6968  130.7072  154.3012 H   0  0  0  0  0  0  0  0  0  0  0  0
  150.9635  131.9118  154.0627 H   0  0  0  0  0  0  0  0  0  0  0  0
  1  2  1  0  0  0  0
  1 31  1  0  0  0  0
  2  3  1  0  0  0  0
  2 32  1  0  0  0  0
  2 33  1  0  0  0  0
  3  4  1  0  0  0  0
  3 26  1  0  0  0  0
  3 34  1  0  0  0  0
  4  5  1  0  0  0  0
  4 35  1  0  0  0  0
  4 36  1  0  0  0  0
  5 25  1  0  0  0  0
  5  6  1  0  0  0  0
  6  7  2  0  0  0  0
  6 37  1  0  0  0  0
  7  8  1  0  0  0  0
  8 25  2  0  0  0  0
  8  9  1  0  0  0  0
  9 10  1  0  0  0  0
  9 22  2  0  0  0  0
 10 15  1  0  0  0  0
 10 11  1  0  0  0  0
 11 12  1  0  0  0  0
 11 38  1  0  0  0  0
 11 39  1  0  0  0  0
 12 13  1  0  0  0  0
 12 40  1  0  0  0  0
 12 41  1  0  0  0  0
 13 14  1  0  0  0  0
 13 42  1  0  0  0  0
 13 43  1  0  0  0  0
 14 15  1  0  0  0  0
 14 44  1  0  0  0  0
 14 45  1  0  0  0  0
 15 16  1  0  0  0  0
 15 46  1  0  0  0  0
 16 20  1  0  0  0  0
 16 17  1  0  0  0  0
 16 47  1  0  0  0  0
 17 18  1  0  0  0  0
 17 48  1  0  0  0  0
 17 49  1  0  0  0  0
 18 19  1  0  0  0  0
 18 50  1  0  0  0  0
 18 51  1  0  0  0  0
 19 20  1  0  0  0  0
 19 52  1  0  0  0  0
 19 53  1  0  0  0  0
 20 21  1  0  0  0  0
 20 54  1  0  0  0  0
 21 55  1  0  0  0  0
 22 23  1  0  0  0  0
 23 24  2  0  0  0  0
 23 56  1  0  0  0  0
 24 25  1  0  0  0  0
 26 30  1  0  0  0  0
 26 27  1  0  0  0  0
 26 57  1  0  0  0  0
 27 28  1  0  0  0  0
 27 58  1  0  0  0  0
 27 59  1  0  0  0  0
 28 29  1  0  0  0  0
 28 60  1  0  0  0  0
 28 61  1  0  0  0  0
 29 30  1  0  0  0  0
 30 62  1  0  0  0  0
 30 63  1  0  0  0  0
M  END
> <s_m_source_file>
AV-unprocessed.smi

> <i_m_source_file_index>
148

> <i_lp_mmshare_version>
43012

> <i_f3d_flags>
0

> <s_epik_input>
W0NIMl0xT1tDSDJdW0NIMl1bQ0BIXTFbQ0BIXShbQ0gyXVtPSF0pW0NIMl1uKFtjSF1uMiljKGMyMyluW2NIXW5jM040W0NIMl1bQ0gyXVtDSDJdW0NIMl1bQ0BIXTRbQ0BASF01W0NIMl1bQ0gyXVtDSDJdW0NASF01W09IXQ==

> <s_epik_cmdline>
J2VwaWtfcHl0aG9uJywgJy1waCcsICc3LjAnLCAnLXRuJywgJzgnLCAnLW1hJywgJzIwMCcsICctbWV0YWxfYmluZGluZycsICctaW1hZScsICc8aW5maWxlLm1hZT4nLCAnLW9tYWUnLCAnPG91dGZpbGUubWFlPic=

> <r_lp_tautomer_probability>
1

> <r_epik_Ionization_Penalty>
0.00556303

> <r_epik_Ionization_Penalty_Charging>
0

> <r_epik_Ionization_Penalty_Neutral>
0.00556303

> <r_epik_State_Penalty>
0.00401767

> <r_epik_Charging_Adjusted_Penalty>
0.00401767

> <i_epik_Tot_Q>
0

> <i_epik_Tot_abs_Q>
0

> <r_epik_Metal_State_Penalty>
-0

> <b_epik_Metal_Only>
0

> <s_lp_Force_Field>
OPLS_2005

> <r_lp_Energy>
70.8238

> <b_lp_Chiralities_Consistent>
1

> <s_lp_Variant>
AV-unprocessed.smi:148-7

> <Gold.Version>
5.8.1

> <Gold.Id.Protein>
6NUR|6NUR_protein|mol2

> <Gold.PLP.Fitness>
52.6693

> <Gold.PLP.PLP>
-44.1483

> <Gold.PLP.part.hbond>
-4.9004

> <Gold.PLP.part.metal>
0.0000

> <Gold.PLP.part.buried>
-5.5548

> <Gold.PLP.part.nonpolar>
-34.1118

> <Gold.PLP.part.repulsive>
0.2245

> <Gold.PLP.ligand.clash>
0.0000

> <Gold.PLP.ligand.torsion>
1.1434

> <Gold.PLP.Chemscore.Hbond>
3.3680

> <Gold.PLP.Chemscore.CHOScore>
0.0000

> <Gold.PLP.Chemscore.Metal>
0.0000

> <Gold.Chemscore.Hbonds>
donor molecule, donor type, donor heavy atom, donor atom, acceptor molecule, acceptor atom, score
      L1  H     1    31       P1  7948  1.00
      L1  H    21    55       P1  7957  1.00
      P1  H  7989  7998       L1    21  0.34
      P1  H 10752 10763       L1    24  0.99

> <Gold.PLP.Chemscore.Internal.Correction>
0.7037

> <Gold.Rescore>
     Score         DG    S(hbond)    S(metal)    S(lipo)     H(rot)  DE(clash)    DE(int)     intcor
     17.12     -19.53       3.29        0.00      98.77       3.32       0.18       2.23       ----

> <Gold.Chemscore.Fitness>
17.1245

> <Gold.Chemscore.DG>
-19.5304

> <Gold.Chemscore.ZeroCoef>
-5.4800

> <Gold.Chemscore.Hbond>
3.2919

> <Gold.Chemscore.Metal>
0.0000

> <Gold.Chemscore.Lipo>
98.7657

> <Gold.Chemscore.Internal_Hbond>
0.0000

> <Gold.Chemscore.DEClash>
0.1794

> <Gold.Chemscore.DEInternal>
2.2266

> <Gold.Chemscore.Rot>
3.3203

> <Gold.Chemscore.Internal.Correction>
   9.000000E+99

> <Gold.Chemscore.Hbonds>
donor molecule, donor type, donor heavy atom, donor atom, acceptor molecule, acceptor atom, score
      L1  H     1    31       P1  7948  0.58
      L1  H    21    55       P1  7957  0.97
      P1  H  7989  7998       L1    21  0.15
      P1  H 10752 10763       L1    24  0.65

> <Gold.Chemscore.Hbond.Weighted>
-10.9949

> <Gold.Chemscore.Metal.Weighted>
-0.0000

> <Gold.Chemscore.Lipo.Weighted>
-11.5556

> <Gold.Chemscore.Internal_Hbond.Weighted>
0.0000

> <Gold.Chemscore.DEClash.Weighted>
0.1794

> <Gold.Chemscore.DEInternal.Weighted>
2.2266

> <Gold.Chemscore.Rot.Weighted>
8.5000

> <Gold.Chemscore.Internal.Correction.Weighted>
   9.000000E+99

> <Gold.Protein.RotatedTorsions>
[ 6907 6896 6895 6894 ] final   71.95 input  -60.11 | X-H torsion
[ 7974 7965 7964 7962 ] final -152.41 input  175.53 | X-H torsion
[ 8008 7997 7996 7995 ] final   76.26 input   59.86 | X-H torsion
[ 10167 10162 10161 10158 ] final  154.90 input  -65.29 | X-H torsion
[ 10718 10713 10712 10709 ] final  -42.28 input   66.30 | X-H torsion
[ 10763 10752 10751 10750 ] final   34.33 input  -60.55 | X-H torsion
[ 11005 11000 10999 10996 ] final -141.15 input  -57.11 | X-H torsion

> <Gold.Protein.ActiveResidues>
 VAL166  LYS551  ARG553  GLY616  TRP617  ASP618  TYR619  PRO620  LYS621  CYS622 
 ASP623  PHE694  ASN695  SER759  ASP760  ASP761  ALA762  ILE779  LEU786  VAL792 
 PHE793  MET794  SER795  GLU796  ALA797  LYS798  CYS799  TRP800  GLU811  SER814 

> <Gold.Protein.RotatedAtoms>
  152.4840  134.4643  159.9614 H   0  0  0  0  0  0  0  0  0  0  0  0  # atno 6907 bound_to 6896
  151.4643  133.3579  159.2821 H   0  0  0  0  0  0  0  0  0  0  0  0  # atno 6908 bound_to 6896
  150.8935  134.8366  159.7371 H   0  0  0  0  0  0  0  0  0  0  0  0  # atno 6909 bound_to 6896
  144.7796  140.4666  143.5849 H   0  0  0  0  0  0  0  0  0  0  0  0  # atno 7974 bound_to 7965
  155.8248  140.3468  155.5536 H   0  0  0  0  0  0  0  0  0  0  0  0  # atno 8008 bound_to 7997
  155.8304  140.0926  157.1816 H   0  0  0  0  0  0  0  0  0  0  0  0  # atno 8009 bound_to 7997
  154.4004  140.1413  156.3594 H   0  0  0  0  0  0  0  0  0  0  0  0  # atno 8010 bound_to 7997
  139.4822  144.5146  151.7971 H   0  0  0  0  0  0  0  0  0  0  0  0  # atno 10167 bound_to 10162
  156.2613  130.4197  149.8539 H   0  0  0  0  0  0  0  0  0  0  0  0  # atno 10718 bound_to 10713
  153.0169  135.6363  154.1652 H   0  0  0  0  0  0  0  0  0  0  0  0  # atno 10763 bound_to 10752
  154.1390  135.2836  155.3167 H   0  0  0  0  0  0  0  0  0  0  0  0  # atno 10764 bound_to 10752
  154.6138  135.5547  153.7563 H   0  0  0  0  0  0  0  0  0  0  0  0  # atno 10765 bound_to 10752
  140.8353  134.2467  157.4837 H   0  0  0  0  0  0  0  0  0  0  0  0  # atno 11005 bound_to 11000
  145.6088  139.1511  143.3087 LP  0  0  0  0  0  0  0  0  0  0  0  0  # atno 17320 bound_to 7965
  146.1996  140.6205  142.9108 LP  0  0  0  0  0  0  0  0  0  0  0  0  # atno 17321 bound_to 7965
  140.4653  144.1664  150.5911 LP  0  0  0  0  0  0  0  0  0  0  0  0  # atno 17342 bound_to 10162
  140.4441  143.2514  151.9435 LP  0  0  0  0  0  0  0  0  0  0  0  0  # atno 17343 bound_to 10162
  156.6053  130.8564  151.3441 LP  0  0  0  0  0  0  0  0  0  0  0  0  # atno 17370 bound_to 10713
  157.7251  130.9612  150.1603 LP  0  0  0  0  0  0  0  0  0  0  0  0  # atno 17371 bound_to 10713
  139.8704  134.9607  156.4373 LP  0  0  0  0  0  0  0  0  0  0  0  0  # atno 17394 bound_to 11000
  140.8954  133.7818  155.9619 LP  0  0  0  0  0  0  0  0  0  0  0  0  # atno 17395 bound_to 11000

$$$$
