AV-unprocessed.smi:1337|AV-procd|sdf|5498|dock9
  -GOLD-   22720 5 83D 1   1.00000     0.00000
 Structure written by MMmdl.
 38 39  0  0  0  0  0  0  0  0  1 V2000
  153.4164  139.0361  155.6922 O   0  0  0  0  0  0  0  0  0  0  0  0
  152.2983  139.2429  155.2182 C   0  0  0  0  0  0  0  0  0  0  0  0
  151.7101  138.3040  154.1553 C   0  0  0  0  0  0  0  0  0  0  0  0
  150.3581  137.8265  154.4887 N   0  0  0  0  0  0  0  0  0  0  0  0
  149.2734  138.6444  154.1303 C   0  0  0  0  0  0  0  0  0  0  0  0
  148.0131  138.2712  154.3949 C   0  0  0  0  0  0  0  0  0  0  0  0
  147.8433  136.9780  155.0699 C   0  0  0  0  0  0  0  0  0  0  0  0
  148.8297  136.2287  155.3952 N   0  0  0  0  0  0  0  0  0  0  0  0
  150.1520  136.6213  155.1131 C   0  0  0  0  0  0  0  0  0  0  0  0
  151.1045  135.9029  155.4173 O   0  0  0  0  0  0  0  0  0  0  0  0
  151.5349  140.2892  155.5679 N   0  0  0  0  0  0  0  0  0  0  0  0
  151.9017  141.2988  156.5539 C   0  0  0  0  0  0  0  0  0  0  0  0
  151.6665  140.7970  157.9891 C   0  0  0  0  0  0  0  0  0  0  0  0
  152.0478  141.8252  159.0415 C   0  0  0  0  0  0  0  0  0  0  0  0
  152.8065  141.5047  160.1078 C   0  0  0  0  0  0  0  0  0  0  0  0
  153.2044  142.4839  161.1982 C   0  0  0  0  0  0  0  0  0  0  0  0
  152.3757  143.7784  161.1528 C   0  0  0  0  0  0  0  0  0  0  0  0
  152.2188  144.2842  159.7134 C   0  0  0  0  0  0  0  0  0  0  0  0
  151.5207  143.2395  158.8240 C   0  0  0  0  0  0  0  0  0  0  0  0
  151.7000  138.8074  153.1866 H   0  0  0  0  0  0  0  0  0  0  0  0
  152.3922  137.4616  154.0333 H   0  0  0  0  0  0  0  0  0  0  0  0
  149.5293  139.5683  153.6325 H   0  0  0  0  0  0  0  0  0  0  0  0
  147.1360  138.8493  154.1442 H   0  0  0  0  0  0  0  0  0  0  0  0
  146.8095  136.6921  155.2792 H   0  0  0  0  0  0  0  0  0  0  0  0
  150.6332  140.3888  155.1245 H   0  0  0  0  0  0  0  0  0  0  0  0
  152.9539  141.5420  156.4062 H   0  0  0  0  0  0  0  0  0  0  0  0
  151.3425  142.2187  156.3742 H   0  0  0  0  0  0  0  0  0  0  0  0
  150.6164  140.5305  158.1175 H   0  0  0  0  0  0  0  0  0  0  0  0
  152.2373  139.8850  158.1664 H   0  0  0  0  0  0  0  0  0  0  0  0
  153.1778  140.4964  160.2197 H   0  0  0  0  0  0  0  0  0  0  0  0
  153.0910  142.0049  162.1712 H   0  0  0  0  0  0  0  0  0  0  0  0
  154.2641  142.7101  161.0773 H   0  0  0  0  0  0  0  0  0  0  0  0
  151.3876  143.5936  161.5766 H   0  0  0  0  0  0  0  0  0  0  0  0
  152.8416  144.5418  161.7765 H   0  0  0  0  0  0  0  0  0  0  0  0
  151.6576  145.2189  159.6992 H   0  0  0  0  0  0  0  0  0  0  0  0
  153.2044  144.5099  159.3044 H   0  0  0  0  0  0  0  0  0  0  0  0
  151.6384  143.5169  157.7760 H   0  0  0  0  0  0  0  0  0  0  0  0
  150.4505  143.2391  159.0321 H   0  0  0  0  0  0  0  0  0  0  0  0
  1  2  2  0  0  0  0
  2  3  1  0  0  0  0
  2 11  1  0  0  0  0
  3  4  1  0  0  0  0
  3 20  1  0  0  0  0
  3 21  1  0  0  0  0
  4  9  1  0  0  0  0
  4  5  1  0  0  0  0
  5  6  2  0  0  0  0
  5 22  1  0  0  0  0
  6  7  1  0  0  0  0
  6 23  1  0  0  0  0
  7  8  2  0  0  0  0
  7 24  1  0  0  0  0
  8  9  1  0  0  0  0
  9 10  2  0  0  0  0
 11 12  1  0  0  0  0
 11 25  1  0  0  0  0
 12 13  1  0  0  0  0
 12 26  1  0  0  0  0
 12 27  1  0  0  0  0
 13 14  1  0  0  0  0
 13 28  1  0  0  0  0
 13 29  1  0  0  0  0
 14 19  1  0  0  0  0
 14 15  2  0  0  0  0
 15 16  1  0  0  0  0
 15 30  1  0  0  0  0
 16 17  1  0  0  0  0
 16 31  1  0  0  0  0
 16 32  1  0  0  0  0
 17 18  1  0  0  0  0
 17 33  1  0  0  0  0
 17 34  1  0  0  0  0
 18 19  1  0  0  0  0
 18 35  1  0  0  0  0
 18 36  1  0  0  0  0
 19 37  1  0  0  0  0
 19 38  1  0  0  0  0
M  END
> <s_m_source_file>
AV-unprocessed.smi

> <i_m_source_file_index>
1337

> <i_lp_mmshare_version>
43012

> <i_f3d_flags>
0

> <s_epik_input>
Tz1jMW5bY0hdW2NIXVtjSF1uMVtDSDJdQyg9TylbTkhdW0NIMl1bQ0gyXUMyPVtDSF1bQ0gyXVtDSDJdW0NIMl1bQ0gyXTI=

> <s_epik_cmdline>
J2VwaWtfcHl0aG9uJywgJy1waCcsICc3LjAnLCAnLXRuJywgJzgnLCAnLW1hJywgJzIwMCcsICctbWV0YWxfYmluZGluZycsICctaW1hZScsICc8aW5maWxlLm1hZT4nLCAnLW9tYWUnLCAnPG91dGZpbGUubWFlPic=

> <r_lp_tautomer_probability>
1

> <r_epik_Ionization_Penalty>
7.10509e-06

> <r_epik_Ionization_Penalty_Charging>
1.70435e-08

> <r_epik_Ionization_Penalty_Neutral>
7.08805e-06

> <r_epik_State_Penalty>
-0

> <r_epik_Charging_Adjusted_Penalty>
1.70435e-08

> <i_epik_Tot_Q>
0

> <i_epik_Tot_abs_Q>
0

> <r_epik_Metal_State_Penalty>
-0

> <b_epik_Metal_Only>
0

> <s_lp_Force_Field>
OPLS_2005

> <r_lp_Energy>
9.56824

> <b_lp_Chiralities_Consistent>
1

> <s_lp_Variant>
AV-unprocessed.smi:1337-1

> <Gold.Version>
5.8.1

> <Gold.Id.Protein>
6NUR|6NUR_protein|mol2

> <Gold.PLP.Fitness>
44.1545

> <Gold.PLP.PLP>
-36.5097

> <Gold.PLP.part.hbond>
-1.7537

> <Gold.PLP.part.metal>
0.0000

> <Gold.PLP.part.buried>
-6.4098

> <Gold.PLP.part.nonpolar>
-29.1532

> <Gold.PLP.part.repulsive>
0.8533

> <Gold.PLP.ligand.clash>
0.0000

> <Gold.PLP.ligand.torsion>
0.6810

> <Gold.PLP.Chemscore.Hbond>
1.9913

> <Gold.PLP.Chemscore.CHOScore>
0.9984

> <Gold.PLP.Chemscore.Metal>
0.0000

> <Gold.Chemscore.Hbonds>
donor molecule, donor type, donor heavy atom, donor atom, acceptor molecule, acceptor atom, score
      P1  H  7997  8009       L1     1  0.98
      P1  H 10752 10765       L1    10  0.99
      L1  C     5    22       P1  7957  0.96

> <Gold.PLP.Chemscore.Internal.Correction>
0.0376

> <Gold.Rescore>
     Score         DG    S(hbond)    S(metal)    S(lipo)     H(rot)  DE(clash)    DE(int)     intcor
     17.12     -18.04       1.93        0.00      93.75       1.89       0.33       0.59       ----

> <Gold.Chemscore.Fitness>
17.1205

> <Gold.Chemscore.DG>
-18.0419

> <Gold.Chemscore.ZeroCoef>
-5.4800

> <Gold.Chemscore.Hbond>
1.9269

> <Gold.Chemscore.Metal>
0.0000

> <Gold.Chemscore.Lipo>
93.7468

> <Gold.Chemscore.Internal_Hbond>
0.0000

> <Gold.Chemscore.DEClash>
0.3287

> <Gold.Chemscore.DEInternal>
0.5927

> <Gold.Chemscore.Rot>
1.8916

> <Gold.Chemscore.Internal.Correction>
   9.000000E+99

> <Gold.Chemscore.Hbonds>
donor molecule, donor type, donor heavy atom, donor atom, acceptor molecule, acceptor atom, score
      P1  H  7997  8009       L1     1  0.88
      P1  H 10752 10765       L1    10  0.92

> <Gold.Chemscore.Hbond.Weighted>
-6.4360

> <Gold.Chemscore.Metal.Weighted>
-0.0000

> <Gold.Chemscore.Lipo.Weighted>
-10.9684

> <Gold.Chemscore.Internal_Hbond.Weighted>
0.0000

> <Gold.Chemscore.DEClash.Weighted>
0.3287

> <Gold.Chemscore.DEInternal.Weighted>
0.5927

> <Gold.Chemscore.Rot.Weighted>
4.8425

> <Gold.Chemscore.Internal.Correction.Weighted>
   9.000000E+99

> <Gold.Protein.RotatedTorsions>
[ 6907 6896 6895 6894 ] final  120.01 input  -60.11 | X-H torsion
[ 7974 7965 7964 7962 ] final  171.08 input  175.53 | X-H torsion
[ 8008 7997 7996 7995 ] final -161.27 input   59.86 | X-H torsion
[ 10167 10162 10161 10158 ] final   18.64 input  -65.29 | X-H torsion
[ 10718 10713 10712 10709 ] final  149.77 input   66.30 | X-H torsion
[ 10763 10752 10751 10750 ] final  177.94 input  -60.55 | X-H torsion
[ 11005 11000 10999 10996 ] final   15.86 input  -57.11 | X-H torsion

> <Gold.Protein.ActiveResidues>
 VAL166  LYS551  ARG553  GLY616  TRP617  ASP618  TYR619  PRO620  LYS621  CYS622 
 ASP623  PHE694  ASN695  SER759  ASP760  ASP761  ALA762  ILE779  LEU786  VAL792 
 PHE793  MET794  SER795  GLU796  ALA797  LYS798  CYS799  TRP800  GLU811  SER814 

> <Gold.Protein.RotatedAtoms>
  152.4429  133.7482  159.6678 H   0  0  0  0  0  0  0  0  0  0  0  0  # atno 6907 bound_to 6896
  150.8323  133.8059  159.3099 H   0  0  0  0  0  0  0  0  0  0  0  0  # atno 6908 bound_to 6896
  151.5709  135.1065  160.0047 H   0  0  0  0  0  0  0  0  0  0  0  0  # atno 6909 bound_to 6896
  144.7305  139.9297  143.6424 H   0  0  0  0  0  0  0  0  0  0  0  0  # atno 7974 bound_to 7965
  155.7898  140.0876  157.2015 H   0  0  0  0  0  0  0  0  0  0  0  0  # atno 8008 bound_to 7997
  154.3986  140.1492  156.3207 H   0  0  0  0  0  0  0  0  0  0  0  0  # atno 8009 bound_to 7997
  155.8570  140.3432  155.5734 H   0  0  0  0  0  0  0  0  0  0  0  0  # atno 8010 bound_to 7997
  140.5638  143.9288  150.6661 H   0  0  0  0  0  0  0  0  0  0  0  0  # atno 10167 bound_to 10162
  157.2919  131.0855  151.1455 H   0  0  0  0  0  0  0  0  0  0  0  0  # atno 10718 bound_to 10713
  154.5011  135.2783  155.1420 H   0  0  0  0  0  0  0  0  0  0  0  0  # atno 10763 bound_to 10752
  154.3053  135.6240  153.5446 H   0  0  0  0  0  0  0  0  0  0  0  0  # atno 10764 bound_to 10752
  152.9902  135.5706  154.5454 H   0  0  0  0  0  0  0  0  0  0  0  0  # atno 10765 bound_to 10752
  140.4535  134.1199  155.7706 H   0  0  0  0  0  0  0  0  0  0  0  0  # atno 11005 bound_to 11000
  146.0866  139.3855  143.0431 LP  0  0  0  0  0  0  0  0  0  0  0  0  # atno 17320 bound_to 7965
  145.7768  140.9873  143.1120 LP  0  0  0  0  0  0  0  0  0  0  0  0  # atno 17321 bound_to 7965
  140.2746  143.3432  152.1207 LP  0  0  0  0  0  0  0  0  0  0  0  0  # atno 17342 bound_to 10162
  139.5083  144.6847  151.5918 LP  0  0  0  0  0  0  0  0  0  0  0  0  # atno 17343 bound_to 10162
  157.2848  130.6767  149.6084 LP  0  0  0  0  0  0  0  0  0  0  0  0  # atno 17370 bound_to 10713
  155.9667  130.4439  150.5439 LP  0  0  0  0  0  0  0  0  0  0  0  0  # atno 17371 bound_to 10713
  141.1653  133.8714  157.1732 LP  0  0  0  0  0  0  0  0  0  0  0  0  # atno 17394 bound_to 11000
  139.9991  135.0035  157.0149 LP  0  0  0  0  0  0  0  0  0  0  0  0  # atno 17395 bound_to 11000

$$$$
