AV-unprocessed.smi:2488|AV-procd|sdf|9793|dock3
  -GOLD-   2272013433D 1   1.00000     0.00000
 Structure written by MMmdl.
 33 34  0  0  0  0  0  0  0  0  1 V2000
  148.2513  141.6362  154.1990 C   0  0  0  0  0  0  0  0  0  0  0  0
  148.7249  140.2180  154.5366 C   0  0  0  0  0  0  0  0  0  0  0  0
  150.0617  140.2137  155.2545 C   0  0  0  0  0  0  0  0  0  0  0  0
  151.0536  139.4922  154.6867 N   0  0  0  0  0  0  0  0  0  0  0  0
  152.2275  139.4801  155.3222 C   0  0  0  0  0  0  0  0  0  0  0  0
  152.5245  140.1057  156.4634 N   0  0  0  0  0  0  0  0  0  0  0  0
  151.5384  140.8251  157.0546 C   0  0  0  0  0  0  0  0  0  0  0  0
  151.8123  141.5114  158.2552 N   0  0  0  0  0  0  0  0  0  0  0  0
  151.7594  142.9573  158.0543 C   0  0  0  0  0  0  0  0  0  0  0  0
  151.8689  143.6957  159.3960 C   0  0  0  0  0  0  0  0  0  0  0  0
  153.0594  143.2877  160.0563 O   0  0  0  0  0  0  0  0  0  0  0  0
  153.0384  141.8979  160.3590 C   0  0  0  0  0  0  0  0  0  0  0  0
  152.9576  141.0597  159.0612 C   0  0  1  0  0  0  0  0  0  0  0  0
  152.9237  139.5701  159.4505 C   0  0  0  0  0  0  0  0  0  0  0  0
  153.9393  139.1126  160.1870 N   0  0  0  0  0  0  0  0  0  0  0  0
  151.9911  138.8470  159.1034 O   0  0  0  0  0  0  0  0  0  0  0  0
  150.2567  140.9148  156.4642 C   0  0  0  0  0  0  0  0  0  0  0  0
  149.2584  141.6302  157.0383 F   0  0  0  0  0  0  0  0  0  0  0  0
  147.2910  141.6129  153.6839 H   0  0  0  0  0  0  0  0  0  0  0  0
  148.9656  142.1437  153.5500 H   0  0  0  0  0  0  0  0  0  0  0  0
  148.1311  142.2374  155.1007 H   0  0  0  0  0  0  0  0  0  0  0  0
  147.9834  139.7216  155.1636 H   0  0  0  0  0  0  0  0  0  0  0  0
  148.7972  139.6255  153.6243 H   0  0  0  0  0  0  0  0  0  0  0  0
  153.0198  138.9067  154.8647 H   0  0  0  0  0  0  0  0  0  0  0  0
  152.5761  143.2602  157.3971 H   0  0  0  0  0  0  0  0  0  0  0  0
  150.8303  143.2457  157.5607 H   0  0  0  0  0  0  0  0  0  0  0  0
  151.9058  144.7727  159.2310 H   0  0  0  0  0  0  0  0  0  0  0  0
  150.9990  143.4983  160.0249 H   0  0  0  0  0  0  0  0  0  0  0  0
  153.9472  141.6572  160.9120 H   0  0  0  0  0  0  0  0  0  0  0  0
  152.1996  141.6816  161.0241 H   0  0  0  0  0  0  0  0  0  0  0  0
  153.8664  141.2472  158.4859 H   0  0  0  0  0  0  0  0  0  0  0  0
  153.9605  138.1441  160.4709 H   0  0  0  0  0  0  0  0  0  0  0  0
  154.6815  139.7401  160.4606 H   0  0  0  0  0  0  0  0  0  0  0  0
  1  2  1  0  0  0  0
  1 19  1  0  0  0  0
  1 20  1  0  0  0  0
  1 21  1  0  0  0  0
  2  3  1  0  0  0  0
  2 22  1  0  0  0  0
  2 23  1  0  0  0  0
  3 17  1  0  0  0  0
  3  4  2  0  0  0  0
  4  5  1  0  0  0  0
  5  6  2  0  0  0  0
  5 24  1  0  0  0  0
  6  7  1  0  0  0  0
  7  8  1  0  0  0  0
  7 17  2  0  0  0  0
  8 13  1  0  0  0  0
  8  9  1  0  0  0  0
  9 10  1  0  0  0  0
  9 25  1  0  0  0  0
  9 26  1  0  0  0  0
 10 11  1  0  0  0  0
 10 27  1  0  0  0  0
 10 28  1  0  0  0  0
 11 12  1  0  0  0  0
 12 13  1  0  0  0  0
 12 29  1  0  0  0  0
 12 30  1  0  0  0  0
 13 14  1  0  0  0  0
 13 31  1  0  0  0  0
 14 15  1  0  0  0  0
 14 16  2  0  0  0  0
 15 32  1  0  0  0  0
 15 33  1  0  0  0  0
 17 18  1  0  0  0  0
M  END
> <s_m_source_file>
AV-unprocessed.smi

> <i_m_source_file_index>
2488

> <i_lp_mmshare_version>
43012

> <i_f3d_flags>
0

> <s_epik_input>
W0NIM11bQ0gyXWMxbltjSF1uYyhjMUYpTjJbQ0gyXVtDSDJdT1tDSDJdW0NASF0yQyg9TylbTkgyXQ==

> <s_epik_cmdline>
J2VwaWtfcHl0aG9uJywgJy1waCcsICc3LjAnLCAnLXRuJywgJzgnLCAnLW1hJywgJzIwMCcsICctbWV0YWxfYmluZGluZycsICctaW1hZScsICc8aW5maWxlLm1hZT4nLCAnLW9tYWUnLCAnPG91dGZpbGUubWFlPic=

> <r_lp_tautomer_probability>
1

> <r_epik_Ionization_Penalty>
2.73136e-05

> <r_epik_Ionization_Penalty_Charging>
0

> <r_epik_Ionization_Penalty_Neutral>
2.73136e-05

> <r_epik_State_Penalty>
-0

> <r_epik_Charging_Adjusted_Penalty>
0

> <i_epik_Tot_Q>
0

> <i_epik_Tot_abs_Q>
0

> <r_epik_Metal_State_Penalty>
-0

> <b_epik_Metal_Only>
0

> <s_lp_Force_Field>
OPLS_2005

> <r_lp_Energy>
12.1778

> <b_lp_Chiralities_Consistent>
1

> <s_lp_Variant>
AV-unprocessed.smi:2488-1

> <Gold.Version>
5.8.1

> <Gold.Id.Protein>
6NUR|6NUR_protein|mol2

> <Gold.PLP.Fitness>
37.3380

> <Gold.PLP.PLP>
-33.2526

> <Gold.PLP.part.hbond>
-2.0000

> <Gold.PLP.part.metal>
0.0000

> <Gold.PLP.part.buried>
-3.4028

> <Gold.PLP.part.nonpolar>
-27.6116

> <Gold.PLP.part.repulsive>
0.1341

> <Gold.PLP.ligand.clash>
0.0000

> <Gold.PLP.ligand.torsion>
0.3483

> <Gold.PLP.Chemscore.Hbond>
1.5250

> <Gold.PLP.Chemscore.CHOScore>
0.0000

> <Gold.PLP.Chemscore.Metal>
0.0000

> <Gold.Chemscore.Hbonds>
donor molecule, donor type, donor heavy atom, donor atom, acceptor molecule, acceptor atom, score
      P1  H  7989  7998       L1     4  0.48
      P1  H  7997  8008       L1     6  1.00

> <Gold.PLP.Chemscore.Internal.Correction>
0.2071

> <Gold.Rescore>
     Score         DG    S(hbond)    S(metal)    S(lipo)     H(rot)  DE(clash)    DE(int)     intcor
      9.28     -11.10       0.86        0.00      64.23       1.86       0.04       1.78       ----

> <Gold.Chemscore.Fitness>
9.2818

> <Gold.Chemscore.DG>
-11.0990

> <Gold.Chemscore.ZeroCoef>
-5.4800

> <Gold.Chemscore.Hbond>
0.8565

> <Gold.Chemscore.Metal>
0.0000

> <Gold.Chemscore.Lipo>
64.2335

> <Gold.Chemscore.Internal_Hbond>
0.0000

> <Gold.Chemscore.DEClash>
0.0398

> <Gold.Chemscore.DEInternal>
1.7774

> <Gold.Chemscore.Rot>
1.8582

> <Gold.Chemscore.Internal.Correction>
   9.000000E+99

> <Gold.Chemscore.Hbonds>
donor molecule, donor type, donor heavy atom, donor atom, acceptor molecule, acceptor atom, score
      P1  H  7997  8008       L1     6  0.58

> <Gold.Chemscore.Hbond.Weighted>
-2.8607

> <Gold.Chemscore.Metal.Weighted>
-0.0000

> <Gold.Chemscore.Lipo.Weighted>
-7.5153

> <Gold.Chemscore.Internal_Hbond.Weighted>
0.0000

> <Gold.Chemscore.DEClash.Weighted>
0.0398

> <Gold.Chemscore.DEInternal.Weighted>
1.7774

> <Gold.Chemscore.Rot.Weighted>
4.7570

> <Gold.Chemscore.Internal.Correction.Weighted>
   9.000000E+99

> <Gold.Protein.RotatedTorsions>
[ 6907 6896 6895 6894 ] final -109.38 input  -60.11 | X-H torsion
[ 7974 7965 7964 7962 ] final  -34.46 input  175.53 | X-H torsion
[ 8008 7997 7996 7995 ] final  -59.30 input   59.86 | X-H torsion
[ 10167 10162 10161 10158 ] final -157.12 input  -65.29 | X-H torsion
[ 10718 10713 10712 10709 ] final   96.73 input   66.30 | X-H torsion
[ 10763 10752 10751 10750 ] final   63.56 input  -60.55 | X-H torsion
[ 11005 11000 10999 10996 ] final   75.55 input  -57.11 | X-H torsion

> <Gold.Protein.ActiveResidues>
 VAL166  LYS551  ARG553  GLY616  TRP617  ASP618  TYR619  PRO620  LYS621  CYS622 
 ASP623  PHE694  ASN695  SER759  ASP760  ASP761  ALA762  ILE779  LEU786  VAL792 
 PHE793  MET794  SER795  GLU796  ALA797  LYS798  CYS799  TRP800  GLU811  SER814 

> <Gold.Protein.RotatedAtoms>
  150.7559  133.9537  159.3493 H   0  0  0  0  0  0  0  0  0  0  0  0  # atno 6907 bound_to 6896
  151.7457  135.0842  160.0332 H   0  0  0  0  0  0  0  0  0  0  0  0  # atno 6908 bound_to 6896
  152.3499  133.6130  159.5973 H   0  0  0  0  0  0  0  0  0  0  0  0  # atno 6909 bound_to 6896
  146.0828  140.6041  142.8900 H   0  0  0  0  0  0  0  0  0  0  0  0  # atno 7974 bound_to 7965
  154.4346  140.1064  156.6094 H   0  0  0  0  0  0  0  0  0  0  0  0  # atno 8008 bound_to 7997
  155.5825  140.3491  155.4525 H   0  0  0  0  0  0  0  0  0  0  0  0  # atno 8009 bound_to 7997
  156.0307  140.1260  157.0250 H   0  0  0  0  0  0  0  0  0  0  0  0  # atno 8010 bound_to 7997
  139.6796  143.9604  152.2329 H   0  0  0  0  0  0  0  0  0  0  0  0  # atno 10167 bound_to 10162
  157.6923  131.0587  150.4536 H   0  0  0  0  0  0  0  0  0  0  0  0  # atno 10718 bound_to 10713
  153.0022  135.5424  154.6371 H   0  0  0  0  0  0  0  0  0  0  0  0  # atno 10763 bound_to 10752
  154.5635  135.2836  155.0898 H   0  0  0  0  0  0  0  0  0  0  0  0  # atno 10764 bound_to 10752
  154.2092  135.6470  153.5162 H   0  0  0  0  0  0  0  0  0  0  0  0  # atno 10765 bound_to 10752
  139.9338  134.7527  156.1285 H   0  0  0  0  0  0  0  0  0  0  0  0  # atno 11005 bound_to 11000
  144.7305  140.4656  143.6941 LP  0  0  0  0  0  0  0  0  0  0  0  0  # atno 17320 bound_to 7965
  145.6187  139.1521  143.3035 LP  0  0  0  0  0  0  0  0  0  0  0  0  # atno 17321 bound_to 7965
  139.9390  144.6693  150.8285 LP  0  0  0  0  0  0  0  0  0  0  0  0  # atno 17342 bound_to 10162
  140.7647  143.3257  151.2522 LP  0  0  0  0  0  0  0  0  0  0  0  0  # atno 17343 bound_to 10162
  156.4886  130.4090  149.6420 LP  0  0  0  0  0  0  0  0  0  0  0  0  # atno 17370 bound_to 10713
  156.3439  130.7396  151.2346 LP  0  0  0  0  0  0  0  0  0  0  0  0  # atno 17371 bound_to 10713
  141.0942  133.6702  156.2607 LP  0  0  0  0  0  0  0  0  0  0  0  0  # atno 17394 bound_to 11000
  140.6129  134.5440  157.5536 LP  0  0  0  0  0  0  0  0  0  0  0  0  # atno 17395 bound_to 11000

$$$$
