AV-unprocessed.smi:3292|AV-procd|sdf|12627|dock6
  -GOLD-   2272018563D 1   1.00000     0.00000
 Structure written by MMmdl.
 38 39  0  0  0  0  0  0  0  0  1 V2000
  145.4420  134.1670  154.1745 C   0  0  0  0  0  0  0  0  0  0  0  0
  145.7844  134.7611  152.8018 C   0  0  2  0  0  0  0  0  0  0  0  0
  146.3955  133.6949  151.8660 C   0  0  0  0  0  0  0  0  0  0  0  0
  145.3980  133.0221  151.0529 N   0  0  0  0  0  0  0  0  0  0  0  0
  144.0255  133.2330  151.0642 C   0  0  0  0  0  0  0  0  0  0  0  0
  143.4908  132.3891  150.1170 C   0  0  0  0  0  0  0  0  0  0  0  0
  144.5083  131.6476  149.5206 N   0  0  0  0  0  0  0  0  0  0  0  0
  145.6072  132.0731  150.1296 C   0  0  0  0  0  0  0  0  0  0  0  0
  146.7066  135.8816  152.9842 N   0  0  0  0  0  0  0  0  0  0  0  0
  146.4044  137.0488  153.5713 C   0  0  0  0  0  0  0  0  0  0  0  0
  145.3238  137.2957  154.1072 O   0  0  0  0  0  0  0  0  0  0  0  0
  147.4036  137.9335  153.4592 N   0  0  0  0  0  0  0  0  0  0  0  0
  147.3210  139.3345  153.8568 C   0  0  0  0  0  0  0  0  0  0  0  0
  148.7010  140.0231  153.8268 C   0  0  1  0  0  0  0  0  0  0  0  0
  148.7341  141.3798  154.5228 C   0  0  0  0  0  0  0  0  0  0  0  0
  150.0553  141.3791  155.2989 C   0  0  0  0  0  0  0  0  0  0  0  0
  150.7712  140.2530  154.8144 O   0  0  0  0  0  0  0  0  0  0  0  0
  149.8153  139.2471  154.5294 C   0  0  0  0  0  0  0  0  0  0  0  0
  144.7325  133.3446  154.0791 H   0  0  0  0  0  0  0  0  0  0  0  0
  144.9902  134.9163  154.8253 H   0  0  0  0  0  0  0  0  0  0  0  0
  146.3314  133.7821  154.6750 H   0  0  0  0  0  0  0  0  0  0  0  0
  144.8510  135.1190  152.3631 H   0  0  0  0  0  0  0  0  0  0  0  0
  147.1415  134.1441  151.2086 H   0  0  0  0  0  0  0  0  0  0  0  0
  146.9142  132.9352  152.4520 H   0  0  0  0  0  0  0  0  0  0  0  0
  143.5582  133.9535  151.7191 H   0  0  0  0  0  0  0  0  0  0  0  0
  142.4604  132.2599  149.8211 H   0  0  0  0  0  0  0  0  0  0  0  0
  146.5898  131.6945  149.8889 H   0  0  0  0  0  0  0  0  0  0  0  0
  147.6251  135.7816  152.5773 H   0  0  0  0  0  0  0  0  0  0  0  0
  148.2563  137.6367  153.0075 H   0  0  0  0  0  0  0  0  0  0  0  0
  146.6184  139.8633  153.2106 H   0  0  0  0  0  0  0  0  0  0  0  0
  146.9049  139.3743  154.8639 H   0  0  0  0  0  0  0  0  0  0  0  0
  149.0070  140.1766  152.7905 H   0  0  0  0  0  0  0  0  0  0  0  0
  148.7019  142.1870  153.7903 H   0  0  0  0  0  0  0  0  0  0  0  0
  147.8939  141.5173  155.2045 H   0  0  0  0  0  0  0  0  0  0  0  0
  150.6243  142.2985  155.1601 H   0  0  0  0  0  0  0  0  0  0  0  0
  149.8711  141.2517  156.3668 H   0  0  0  0  0  0  0  0  0  0  0  0
  149.4646  138.8001  155.4615 H   0  0  0  0  0  0  0  0  0  0  0  0
  150.2379  138.4589  153.9060 H   0  0  0  0  0  0  0  0  0  0  0  0
  1  2  1  0  0  0  0
  1 19  1  0  0  0  0
  1 20  1  0  0  0  0
  1 21  1  0  0  0  0
  2  3  1  0  0  0  0
  2  9  1  0  0  0  0
  2 22  1  0  0  0  0
  3  4  1  0  0  0  0
  3 23  1  0  0  0  0
  3 24  1  0  0  0  0
  4  8  1  0  0  0  0
  4  5  1  0  0  0  0
  5  6  2  0  0  0  0
  5 25  1  0  0  0  0
  6  7  1  0  0  0  0
  6 26  1  0  0  0  0
  7  8  2  0  0  0  0
  8 27  1  0  0  0  0
  9 10  1  0  0  0  0
  9 28  1  0  0  0  0
 10 11  2  0  0  0  0
 10 12  1  0  0  0  0
 12 13  1  0  0  0  0
 12 29  1  0  0  0  0
 13 14  1  0  0  0  0
 13 30  1  0  0  0  0
 13 31  1  0  0  0  0
 14 18  1  0  0  0  0
 14 15  1  0  0  0  0
 14 32  1  0  0  0  0
 15 16  1  0  0  0  0
 15 33  1  0  0  0  0
 15 34  1  0  0  0  0
 16 17  1  0  0  0  0
 16 35  1  0  0  0  0
 16 36  1  0  0  0  0
 17 18  1  0  0  0  0
 18 37  1  0  0  0  0
 18 38  1  0  0  0  0
M  END
> <s_m_source_file>
AV-unprocessed.smi

> <i_m_source_file_index>
3292

> <i_lp_mmshare_version>
43012

> <i_f3d_flags>
0

> <s_epik_input>
W2NIXTFuW2NIXVtjSF1uMVtDSDJdW0NAQEhdKFtDSDNdKVtOSF1DKD1PKVtOSF1bQ0gyXVtDQEBIXTJbQ0gyXVtDSDJdT1tDSDJdMg==

> <s_epik_cmdline>
J2VwaWtfcHl0aG9uJywgJy1waCcsICc3LjAnLCAnLXRuJywgJzgnLCAnLW1hJywgJzIwMCcsICctbWV0YWxfYmluZGluZycsICctaW1hZScsICc8aW5maWxlLm1hZT4nLCAnLW9tYWUnLCAnPG91dGZpbGUubWFlPic=

> <r_lp_tautomer_probability>
1

> <r_epik_Ionization_Penalty>
0.621291

> <r_epik_Ionization_Penalty_Charging>
0.621234

> <r_epik_Ionization_Penalty_Neutral>
5.72199e-05

> <r_epik_State_Penalty>
0.637278

> <r_epik_Charging_Adjusted_Penalty>
1.25851

> <i_epik_Tot_Q>
0

> <i_epik_Tot_abs_Q>
0

> <r_epik_Metal_State_Penalty>
0.306757

> <b_epik_Metal_Only>
0

> <s_lp_Force_Field>
OPLS_2005

> <r_lp_Energy>
18.0695

> <b_lp_Chiralities_Consistent>
1

> <s_lp_Variant>
AV-unprocessed.smi:3292-7

> <Gold.Version>
5.8.1

> <Gold.Id.Protein>
6NUR|6NUR_protein|mol2

> <Gold.PLP.Fitness>
45.7808

> <Gold.PLP.PLP>
-29.8376

> <Gold.PLP.part.hbond>
-4.0000

> <Gold.PLP.part.metal>
0.0000

> <Gold.PLP.part.buried>
-1.0701

> <Gold.PLP.part.nonpolar>
-25.2229

> <Gold.PLP.part.repulsive>
0.3401

> <Gold.PLP.ligand.clash>
0.0000

> <Gold.PLP.ligand.torsion>
0.6242

> <Gold.PLP.Chemscore.Hbond>
3.1255

> <Gold.PLP.Chemscore.CHOScore>
2.5895

> <Gold.PLP.Chemscore.Metal>
0.0000

> <Gold.Chemscore.Hbonds>
donor molecule, donor type, donor heavy atom, donor atom, acceptor molecule, acceptor atom, score
      L1  H     9    28       P1  7948  1.00
      L1  H    12    29       P1  7948  0.85
      P1  H  7989  7998       L1    17  1.00
      P1  H 10785 10796       L1     7  0.28
      L1  C     6    26       P1 10186  0.61
      L1  C     6    26       P1 10952  1.00
      L1  C     8    27       P1 10747  0.96

> <Gold.PLP.Chemscore.Internal.Correction>
0.0466

> <Gold.Rescore>
     Score         DG    S(hbond)    S(metal)    S(lipo)     H(rot)  DE(clash)    DE(int)     intcor
     14.59     -15.58       2.55        0.00      60.64       2.16       0.29       0.71       ----

> <Gold.Chemscore.Fitness>
14.5854

> <Gold.Chemscore.DG>
-15.5831

> <Gold.Chemscore.ZeroCoef>
-5.4800

> <Gold.Chemscore.Hbond>
2.5545

> <Gold.Chemscore.Metal>
0.0000

> <Gold.Chemscore.Lipo>
60.6400

> <Gold.Chemscore.Internal_Hbond>
0.0000

> <Gold.Chemscore.DEClash>
0.2897

> <Gold.Chemscore.DEInternal>
0.7079

> <Gold.Chemscore.Rot>
2.1577

> <Gold.Chemscore.Internal.Correction>
   9.000000E+99

> <Gold.Chemscore.Hbonds>
donor molecule, donor type, donor heavy atom, donor atom, acceptor molecule, acceptor atom, score
      L1  H     9    28       P1  7948  0.95
      L1  H    12    29       P1  7948  0.83
      P1  H  7989  7998       L1    17  0.37
      P1  H 10785 10796       L1     7  0.04

> <Gold.Chemscore.Hbond.Weighted>
-8.5319

> <Gold.Chemscore.Metal.Weighted>
-0.0000

> <Gold.Chemscore.Lipo.Weighted>
-7.0949

> <Gold.Chemscore.Internal_Hbond.Weighted>
0.0000

> <Gold.Chemscore.DEClash.Weighted>
0.2897

> <Gold.Chemscore.DEInternal.Weighted>
0.7079

> <Gold.Chemscore.Rot.Weighted>
5.5237

> <Gold.Chemscore.Internal.Correction.Weighted>
   9.000000E+99

> <Gold.Protein.RotatedTorsions>
[ 6907 6896 6895 6894 ] final -118.21 input  -60.11 | X-H torsion
[ 7974 7965 7964 7962 ] final  168.57 input  175.53 | X-H torsion
[ 8008 7997 7996 7995 ] final   83.13 input   59.86 | X-H torsion
[ 10167 10162 10161 10158 ] final  136.40 input  -65.29 | X-H torsion
[ 10718 10713 10712 10709 ] final -151.95 input   66.30 | X-H torsion
[ 10763 10752 10751 10750 ] final -153.06 input  -60.55 | X-H torsion
[ 11005 11000 10999 10996 ] final  -61.71 input  -57.11 | X-H torsion

> <Gold.Protein.ActiveResidues>
 VAL166  LYS551  ARG553  GLY616  TRP617  ASP618  TYR619  PRO620  LYS621  CYS622 
 ASP623  PHE694  ASN695  SER759  ASP760  ASP761  ALA762  ILE779  LEU786  VAL792 
 PHE793  MET794  SER795  GLU796  ALA797  LYS798  CYS799  TRP800  GLU811  SER814 

> <Gold.Protein.RotatedAtoms>
  150.8201  133.8268  159.3142 H   0  0  0  0  0  0  0  0  0  0  0  0  # atno 6907 bound_to 6896
  151.6029  135.1044  160.0074 H   0  0  0  0  0  0  0  0  0  0  0  0  # atno 6908 bound_to 6896
  152.4290  133.7204  159.6586 H   0  0  0  0  0  0  0  0  0  0  0  0  # atno 6909 bound_to 6896
  144.7384  139.8926  143.6404 H   0  0  0  0  0  0  0  0  0  0  0  0  # atno 7974 bound_to 7965
  155.9198  140.3422  155.6164 H   0  0  0  0  0  0  0  0  0  0  0  0  # atno 8008 bound_to 7997
  155.7287  140.0792  157.2317 H   0  0  0  0  0  0  0  0  0  0  0  0  # atno 8009 bound_to 7997
  154.4068  140.1592  156.2471 H   0  0  0  0  0  0  0  0  0  0  0  0  # atno 8010 bound_to 7997
  139.5181  144.6466  151.5421 H   0  0  0  0  0  0  0  0  0  0  0  0  # atno 10167 bound_to 10162
  156.4660  130.8236  151.2466 H   0  0  0  0  0  0  0  0  0  0  0  0  # atno 10718 bound_to 10713
  154.7953  135.3221  154.7682 H   0  0  0  0  0  0  0  0  0  0  0  0  # atno 10763 bound_to 10752
  153.8362  135.6875  153.4813 H   0  0  0  0  0  0  0  0  0  0  0  0  # atno 10764 bound_to 10752
  153.1641  135.4649  154.9755 H   0  0  0  0  0  0  0  0  0  0  0  0  # atno 10765 bound_to 10752
  141.1334  133.6632  156.5416 H   0  0  0  0  0  0  0  0  0  0  0  0  # atno 11005 bound_to 11000
  146.1130  139.4137  143.0276 LP  0  0  0  0  0  0  0  0  0  0  0  0  # atno 17320 bound_to 7965
  145.7415  141.0006  143.1298 LP  0  0  0  0  0  0  0  0  0  0  0  0  # atno 17321 bound_to 7965
  140.6254  143.9179  150.6560 LP  0  0  0  0  0  0  0  0  0  0  0  0  # atno 17342 bound_to 10162
  140.2466  143.3624  152.1442 LP  0  0  0  0  0  0  0  0  0  0  0  0  # atno 17343 bound_to 10162
  157.7495  131.0092  150.3257 LP  0  0  0  0  0  0  0  0  0  0  0  0  # atno 17370 bound_to 10713
  156.3667  130.3856  149.7207 LP  0  0  0  0  0  0  0  0  0  0  0  0  # atno 17371 bound_to 10713
  140.4135  134.7251  157.4849 LP  0  0  0  0  0  0  0  0  0  0  0  0  # atno 17394 bound_to 11000
  140.0410  134.6267  155.8981 LP  0  0  0  0  0  0  0  0  0  0  0  0  # atno 17395 bound_to 11000

$$$$
