AV-unprocessed.smi:3267|AV-procd|sdf|12506|dock1
  -GOLD-   2272018413D 1   1.00000     0.00000
 Structure written by MMmdl.
 38 39  0  0  0  0  0  0  0  0  1 V2000
  146.5155  144.5184  161.4659 C   0  0  0  0  0  0  0  0  0  0  0  0
  147.7572  144.2176  160.6147 C   0  0  2  0  0  0  0  0  0  0  0  0
  148.8306  145.3265  160.7470 C   0  0  0  0  0  0  0  0  0  0  0  0
  150.1204  144.8961  160.2411 N   0  0  0  0  0  0  0  0  0  0  0  0
  150.7417  145.2537  159.0634 C   0  0  0  0  0  0  0  0  0  0  0  0
  151.9321  144.5869  159.0142 C   0  0  0  0  0  0  0  0  0  0  0  0
  151.9489  143.8363  160.2231 C   0  0  0  0  0  0  0  0  0  0  0  0
  150.8632  144.0238  160.9562 N   0  0  0  0  0  0  0  0  0  0  0  0
  147.3521  144.0382  159.2226 N   0  0  0  0  0  0  0  0  0  0  0  0
  146.5085  143.0941  158.7813 C   0  0  0  0  0  0  0  0  0  0  0  0
  145.9794  142.2484  159.5031 O   0  0  0  0  0  0  0  0  0  0  0  0
  146.3179  143.1757  157.4579 N   0  0  0  0  0  0  0  0  0  0  0  0
  145.4897  142.2631  156.6784 C   0  0  0  0  0  0  0  0  0  0  0  0
  146.3341  141.4504  155.6831 C   0  0  1  0  0  0  0  0  0  0  0  0
  146.6245  142.1885  154.3770 C   0  0  0  0  0  0  0  0  0  0  0  0
  147.9051  141.5232  153.9278 C   0  0  0  0  0  0  0  0  0  0  0  0
  148.6337  141.3344  155.2543 C   0  0  0  0  0  0  0  0  0  0  0  0
  147.6160  141.1563  156.2362 O   0  0  0  0  0  0  0  0  0  0  0  0
  146.7796  144.6135  162.5196 H   0  0  0  0  0  0  0  0  0  0  0  0
  145.7781  143.7194  161.3834 H   0  0  0  0  0  0  0  0  0  0  0  0
  146.0371  145.4483  161.1568 H   0  0  0  0  0  0  0  0  0  0  0  0
  148.1633  143.2664  160.9662 H   0  0  0  0  0  0  0  0  0  0  0  0
  148.5411  146.2304  160.2088 H   0  0  0  0  0  0  0  0  0  0  0  0
  148.9557  145.6311  161.7872 H   0  0  0  0  0  0  0  0  0  0  0  0
  150.2877  145.9414  158.3649 H   0  0  0  0  0  0  0  0  0  0  0  0
  152.6759  144.6270  158.2325 H   0  0  0  0  0  0  0  0  0  0  0  0
  152.7122  143.1644  160.5869 H   0  0  0  0  0  0  0  0  0  0  0  0
  147.7376  144.6838  158.5492 H   0  0  0  0  0  0  0  0  0  0  0  0
  146.7979  143.9031  156.9484 H   0  0  0  0  0  0  0  0  0  0  0  0
  144.9445  141.5940  157.3461 H   0  0  0  0  0  0  0  0  0  0  0  0
  144.7390  142.8474  156.1458 H   0  0  0  0  0  0  0  0  0  0  0  0
  145.8448  140.5033  155.4496 H   0  0  0  0  0  0  0  0  0  0  0  0
  145.8168  142.0986  153.6501 H   0  0  0  0  0  0  0  0  0  0  0  0
  146.8019  143.2489  154.5628 H   0  0  0  0  0  0  0  0  0  0  0  0
  147.6867  140.5546  153.4761 H   0  0  0  0  0  0  0  0  0  0  0  0
  148.4712  142.1176  153.2103 H   0  0  0  0  0  0  0  0  0  0  0  0
  149.3230  140.4900  155.2347 H   0  0  0  0  0  0  0  0  0  0  0  0
  149.2026  142.2303  155.5056 H   0  0  0  0  0  0  0  0  0  0  0  0
  1  2  1  0  0  0  0
  1 19  1  0  0  0  0
  1 20  1  0  0  0  0
  1 21  1  0  0  0  0
  2  3  1  0  0  0  0
  2  9  1  0  0  0  0
  2 22  1  0  0  0  0
  3  4  1  0  0  0  0
  3 23  1  0  0  0  0
  3 24  1  0  0  0  0
  4  8  1  0  0  0  0
  4  5  1  0  0  0  0
  5  6  2  0  0  0  0
  5 25  1  0  0  0  0
  6  7  1  0  0  0  0
  6 26  1  0  0  0  0
  7  8  2  0  0  0  0
  7 27  1  0  0  0  0
  9 10  1  0  0  0  0
  9 28  1  0  0  0  0
 10 11  2  0  0  0  0
 10 12  1  0  0  0  0
 12 13  1  0  0  0  0
 12 29  1  0  0  0  0
 13 14  1  0  0  0  0
 13 30  1  0  0  0  0
 13 31  1  0  0  0  0
 14 18  1  0  0  0  0
 14 15  1  0  0  0  0
 14 32  1  0  0  0  0
 15 16  1  0  0  0  0
 15 33  1  0  0  0  0
 15 34  1  0  0  0  0
 16 17  1  0  0  0  0
 16 35  1  0  0  0  0
 16 36  1  0  0  0  0
 17 18  1  0  0  0  0
 17 37  1  0  0  0  0
 17 38  1  0  0  0  0
M  END
> <s_m_source_file>
AV-unprocessed.smi

> <i_m_source_file_index>
3267

> <i_lp_mmshare_version>
43012

> <i_f3d_flags>
0

> <s_epik_input>
bjFbY0hdW2NIXVtjSF1uMVtDSDJdW0NAQEhdKFtDSDNdKVtOSF1DKD1PKVtOSF1bQ0gyXVtDQEBIXTJbQ0gyXVtDSDJdW0NIMl1PMg==

> <s_epik_cmdline>
J2VwaWtfcHl0aG9uJywgJy1waCcsICc3LjAnLCAnLXRuJywgJzgnLCAnLW1hJywgJzIwMCcsICctbWV0YWxfYmluZGluZycsICctaW1hZScsICc8aW5maWxlLm1hZT4nLCAnLW9tYWUnLCAnPG91dGZpbGUubWFlPic=

> <r_lp_tautomer_probability>
1

> <r_epik_Ionization_Penalty>
6.24796e-05

> <r_epik_Ionization_Penalty_Charging>
0

> <r_epik_Ionization_Penalty_Neutral>
6.24796e-05

> <r_epik_State_Penalty>
-0

> <r_epik_Charging_Adjusted_Penalty>
0

> <i_epik_Tot_Q>
0

> <i_epik_Tot_abs_Q>
0

> <r_epik_Metal_State_Penalty>
-0

> <b_epik_Metal_Only>
0

> <s_lp_Force_Field>
OPLS_2005

> <r_lp_Energy>
17.3536

> <b_lp_Chiralities_Consistent>
1

> <s_lp_Variant>
AV-unprocessed.smi:3267-3

> <Gold.Version>
5.8.1

> <Gold.Id.Protein>
6NUR|6NUR_protein|mol2

> <Gold.PLP.Fitness>
44.5052

> <Gold.PLP.PLP>
-36.6358

> <Gold.PLP.part.hbond>
-3.1788

> <Gold.PLP.part.metal>
0.0000

> <Gold.PLP.part.buried>
-5.2583

> <Gold.PLP.part.nonpolar>
-28.7866

> <Gold.PLP.part.repulsive>
0.3248

> <Gold.PLP.ligand.clash>
0.0000

> <Gold.PLP.ligand.torsion>
0.5613

> <Gold.PLP.Chemscore.Hbond>
1.9913

> <Gold.PLP.Chemscore.CHOScore>
1.0000

> <Gold.PLP.Chemscore.Metal>
0.0000

> <Gold.Chemscore.Hbonds>
donor molecule, donor type, donor heavy atom, donor atom, acceptor molecule, acceptor atom, score
      L1  H     9    28       P1  8029  1.00
      P1  H  6934  6946       L1    11  0.93
      L1  C     5    25       P1  8029  0.82

> <Gold.PLP.Chemscore.Internal.Correction>
0.0182

> <Gold.Rescore>
     Score         DG    S(hbond)    S(metal)    S(lipo)     H(rot)  DE(clash)    DE(int)     intcor
     15.65     -16.42       1.99        0.00      77.77       1.87       0.17       0.60       ----

> <Gold.Chemscore.Fitness>
15.6539

> <Gold.Chemscore.DG>
-16.4235

> <Gold.Chemscore.ZeroCoef>
-5.4800

> <Gold.Chemscore.Hbond>
1.9874

> <Gold.Chemscore.Metal>
0.0000

> <Gold.Chemscore.Lipo>
77.7668

> <Gold.Chemscore.Internal_Hbond>
0.0000

> <Gold.Chemscore.DEClash>
0.1733

> <Gold.Chemscore.DEInternal>
0.5964

> <Gold.Chemscore.Rot>
1.8724

> <Gold.Chemscore.Internal.Correction>
   9.000000E+99

> <Gold.Chemscore.Hbonds>
donor molecule, donor type, donor heavy atom, donor atom, acceptor molecule, acceptor atom, score
      L1  H     9    28       P1  8029  0.98
      P1  H  6934  6946       L1    11  0.88

> <Gold.Chemscore.Hbond.Weighted>
-6.6381

> <Gold.Chemscore.Metal.Weighted>
-0.0000

> <Gold.Chemscore.Lipo.Weighted>
-9.0987

> <Gold.Chemscore.Internal_Hbond.Weighted>
0.0000

> <Gold.Chemscore.DEClash.Weighted>
0.1733

> <Gold.Chemscore.DEInternal.Weighted>
0.5964

> <Gold.Chemscore.Rot.Weighted>
4.7933

> <Gold.Chemscore.Internal.Correction.Weighted>
   9.000000E+99

> <Gold.Protein.RotatedTorsions>
[ 6907 6896 6895 6894 ] final -179.59 input  -60.11 | X-H torsion
[ 7974 7965 7964 7962 ] final  176.47 input  175.53 | X-H torsion
[ 8008 7997 7996 7995 ] final    7.74 input   59.86 | X-H torsion
[ 10167 10162 10161 10158 ] final   77.70 input  -65.29 | X-H torsion
[ 10718 10713 10712 10709 ] final  119.37 input   66.30 | X-H torsion
[ 10763 10752 10751 10750 ] final -150.62 input  -60.55 | X-H torsion
[ 11005 11000 10999 10996 ] final   81.84 input  -57.11 | X-H torsion

> <Gold.Protein.ActiveResidues>
 VAL166  LYS551  ARG553  GLY616  TRP617  ASP618  TYR619  PRO620  LYS621  CYS622 
 ASP623  PHE694  ASN695  SER759  ASP760  ASP761  ALA762  ILE779  LEU786  VAL792 
 PHE793  MET794  SER795  GLU796  ALA797  LYS798  CYS799  TRP800  GLU811  SER814 

> <Gold.Protein.RotatedAtoms>
  151.6559  133.3319  159.3162 H   0  0  0  0  0  0  0  0  0  0  0  0  # atno 6907 bound_to 6896
  150.7937  134.6985  159.6546 H   0  0  0  0  0  0  0  0  0  0  0  0  # atno 6908 bound_to 6896
  152.4021  134.6272  160.0117 H   0  0  0  0  0  0  0  0  0  0  0  0  # atno 6909 bound_to 6896
  144.7184  140.0102  143.6440 H   0  0  0  0  0  0  0  0  0  0  0  0  # atno 7974 bound_to 7965
  154.7578  140.2779  155.6239 H   0  0  0  0  0  0  0  0  0  0  0  0  # atno 8008 bound_to 7997
  156.2909  140.2666  156.2275 H   0  0  0  0  0  0  0  0  0  0  0  0  # atno 8009 bound_to 7997
  155.0056  140.0372  157.2368 H   0  0  0  0  0  0  0  0  0  0  0  0  # atno 8010 bound_to 7997
  139.9788  144.5841  150.7919 H   0  0  0  0  0  0  0  0  0  0  0  0  # atno 10167 bound_to 10162
  157.5966  131.1057  150.7887 H   0  0  0  0  0  0  0  0  0  0  0  0  # atno 10718 bound_to 10713
  154.8108  135.3280  154.7310 H   0  0  0  0  0  0  0  0  0  0  0  0  # atno 10763 bound_to 10752
  153.7960  135.6907  153.4868 H   0  0  0  0  0  0  0  0  0  0  0  0  # atno 10764 bound_to 10752
  153.1885  135.4559  155.0066 H   0  0  0  0  0  0  0  0  0  0  0  0  # atno 10765 bound_to 10752
  139.9084  134.8027  156.2095 H   0  0  0  0  0  0  0  0  0  0  0  0  # atno 11005 bound_to 11000
  146.0265  139.3296  143.0781 LP  0  0  0  0  0  0  0  0  0  0  0  0  # atno 17320 bound_to 7965
  145.8505  140.9531  143.0752 LP  0  0  0  0  0  0  0  0  0  0  0  0  # atno 17321 bound_to 7965
  140.7496  143.2942  151.3250 LP  0  0  0  0  0  0  0  0  0  0  0  0  # atno 17342 bound_to 10162
  139.6425  144.0512  152.2565 LP  0  0  0  0  0  0  0  0  0  0  0  0  # atno 17343 bound_to 10162
  156.8296  130.5011  149.5333 LP  0  0  0  0  0  0  0  0  0  0  0  0  # atno 17370 bound_to 10713
  156.1030  130.5983  150.9925 LP  0  0  0  0  0  0  0  0  0  0  0  0  # atno 17371 bound_to 10713
  141.0474  133.6906  156.1709 LP  0  0  0  0  0  0  0  0  0  0  0  0  # atno 17394 bound_to 11000
  140.6862  134.4714  157.5589 LP  0  0  0  0  0  0  0  0  0  0  0  0  # atno 17395 bound_to 11000

$$$$
