AV-unprocessed.smi:2665|AV-procd|sdf|10330|dock6
  -GOLD-   2272014353D 1   1.00000     0.00000
 Structure written by MMmdl.
 29 30  0  0  0  0  0  0  0  0  2 V2000
  153.2801  142.1202  161.1363 C   0  0  0  0  0  0  0  0  0  0  0  0
  152.3640  142.6784  160.0421 C   0  0  2  0  0  0  0  0  0  0  0  0
  152.0885  141.6438  158.9336 C   0  0  0  0  0  0  0  0  0  0  0  0
  151.2889  142.2464  157.8744 N   0  0  0  0  0  0  0  0  0  0  0  0
  150.8918  141.3354  156.8854 C   0  0  0  0  0  0  0  0  0  0  0  0
  151.7403  140.2531  156.5738 C   0  0  0  0  0  0  0  0  0  0  0  0
  151.3443  139.3328  155.5765 C   0  0  0  0  0  0  0  0  0  0  0  0
  152.2160  138.1633  155.2102 C   0  0  0  0  0  0  0  0  0  0  0  0
  151.6735  137.1059  154.8180 O   0  0  0  0  0  0  0  0  0  0  0  0
  153.4580  138.2817  155.3079 O   0  5  0  0  0  0  0  0  0  0  0  0
  150.1037  139.5457  154.9344 C   0  0  0  0  0  0  0  0  0  0  0  0
  149.3265  140.6559  155.3156 C   0  0  0  0  0  0  0  0  0  0  0  0
  149.7035  141.5348  156.2673 N   0  0  0  0  0  0  0  0  0  0  0  0
  151.8953  143.4583  157.3389 C   0  0  0  0  0  0  0  0  0  0  0  0
  152.1816  144.4494  158.4795 C   0  0  0  0  0  0  0  0  0  0  0  0
  152.9951  143.8209  159.4667 O   0  0  0  0  0  0  0  0  0  0  0  0
  152.8331  141.2484  161.6147 H   0  0  0  0  0  0  0  0  0  0  0  0
  153.4632  142.8667  161.9095 H   0  0  0  0  0  0  0  0  0  0  0  0
  154.2452  141.8197  160.7274 H   0  0  0  0  0  0  0  0  0  0  0  0
  151.4219  142.9845  160.5005 H   0  0  0  0  0  0  0  0  0  0  0  0
  153.0304  141.2787  158.5215 H   0  0  0  0  0  0  0  0  0  0  0  0
  151.5604  140.7829  159.3453 H   0  0  0  0  0  0  0  0  0  0  0  0
  152.6798  140.1365  157.0949 H   0  0  0  0  0  0  0  0  0  0  0  0
  149.7467  138.8767  154.1649 H   0  0  0  0  0  0  0  0  0  0  0  0
  148.3738  140.8431  154.8430 H   0  0  0  0  0  0  0  0  0  0  0  0
  152.8237  143.2104  156.8222 H   0  0  0  0  0  0  0  0  0  0  0  0
  151.2277  143.9127  156.6056 H   0  0  0  0  0  0  0  0  0  0  0  0
  152.7031  145.3257  158.0944 H   0  0  0  0  0  0  0  0  0  0  0  0
  151.2530  144.8032  158.9302 H   0  0  0  0  0  0  0  0  0  0  0  0
  1  2  1  0  0  0  0
  1 17  1  0  0  0  0
  1 18  1  0  0  0  0
  1 19  1  0  0  0  0
  2 16  1  0  0  0  0
  2  3  1  0  0  0  0
  2 20  1  0  0  0  0
  3  4  1  0  0  0  0
  3 21  1  0  0  0  0
  3 22  1  0  0  0  0
  4  5  1  0  0  0  0
  4 14  1  0  0  0  0
  5 13  1  0  0  0  0
  5  6  2  0  0  0  0
  6  7  1  0  0  0  0
  6 23  1  0  0  0  0
  7  8  1  0  0  0  0
  7 11  2  0  0  0  0
  8  9  2  0  0  0  0
  8 10  1  0  0  0  0
 11 12  1  0  0  0  0
 11 24  1  0  0  0  0
 12 13  2  0  0  0  0
 12 25  1  0  0  0  0
 14 15  1  0  0  0  0
 14 26  1  0  0  0  0
 14 27  1  0  0  0  0
 15 16  1  0  0  0  0
 15 28  1  0  0  0  0
 15 29  1  0  0  0  0
M  CHG  1  10  -1
M  END
> <s_m_source_file>
AV-unprocessed.smi

> <i_m_source_file_index>
2665

> <i_lp_mmshare_version>
43012

> <i_f3d_flags>
0

> <s_epik_input>
W0NIM11bQ0BASF0xW0NIMl1OKFtDSDJdW0NIMl1PMSljMltjSF1jKEMoPU8pW09IXSlbY0hdW2NIXW4y

> <s_epik_cmdline>
J2VwaWtfcHl0aG9uJywgJy1waCcsICc3LjAnLCAnLXRuJywgJzgnLCAnLW1hJywgJzIwMCcsICctbWV0YWxfYmluZGluZycsICctaW1hZScsICc8aW5maWxlLm1hZT4nLCAnLW9tYWUnLCAnPG91dGZpbGUubWFlPic=

> <r_epik_Ionization_Penalty>
0.00511367

> <r_epik_Ionization_Penalty_Charging>
0.00135522

> <r_epik_Ionization_Penalty_Neutral>
0.00375844

> <r_epik_State_Penalty>
0.00357724

> <r_epik_Charging_Adjusted_Penalty>
0.00493246

> <i_epik_Tot_Q>
-1

> <i_epik_Tot_abs_Q>
1

> <r_epik_Metal_State_Penalty>
-0

> <b_epik_Metal_Only>
0

> <s_lp_Force_Field>
OPLS_2005

> <r_lp_Energy>
17.7567

> <b_lp_Chiralities_Consistent>
1

> <s_lp_Variant>
AV-unprocessed.smi:2665-1

> <Gold.Version>
5.8.1

> <Gold.Id.Protein>
6NUR|6NUR_protein|mol2

> <Gold.PLP.Fitness>
46.4544

> <Gold.PLP.PLP>
-37.3238

> <Gold.PLP.part.hbond>
-2.0000

> <Gold.PLP.part.metal>
0.0000

> <Gold.PLP.part.buried>
-5.4395

> <Gold.PLP.part.nonpolar>
-30.3481

> <Gold.PLP.part.repulsive>
0.2974

> <Gold.PLP.ligand.clash>
0.0000

> <Gold.PLP.ligand.torsion>
1.0790

> <Gold.PLP.Chemscore.Hbond>
3.7283

> <Gold.PLP.Chemscore.CHOScore>
0.0000

> <Gold.PLP.Chemscore.Metal>
0.0000

> <Gold.Chemscore.Hbonds>
donor molecule, donor type, donor heavy atom, donor atom, acceptor molecule, acceptor atom, score
      P1  H  7997  8008       L1    10  0.82
      P1  H 10752 10764       L1     9  1.86

> <Gold.PLP.Chemscore.Internal.Correction>
0.1037

> <Gold.Rescore>
     Score         DG    S(hbond)    S(metal)    S(lipo)     H(rot)  DE(clash)    DE(int)     intcor
     17.28     -18.33       1.76        0.00      81.37       1.00       0.00       1.05       ----

> <Gold.Chemscore.Fitness>
17.2772

> <Gold.Chemscore.DG>
-18.3304

> <Gold.Chemscore.ZeroCoef>
-5.4800

> <Gold.Chemscore.Hbond>
1.7635

> <Gold.Chemscore.Metal>
0.0000

> <Gold.Chemscore.Lipo>
81.3702

> <Gold.Chemscore.Internal_Hbond>
0.0000

> <Gold.Chemscore.DEClash>
0.0000

> <Gold.Chemscore.DEInternal>
1.0532

> <Gold.Chemscore.Rot>
1.0000

> <Gold.Chemscore.Internal.Correction>
   9.000000E+99

> <Gold.Chemscore.Hbonds>
donor molecule, donor type, donor heavy atom, donor atom, acceptor molecule, acceptor atom, score
      P1  H  7997  8008       L1    10  0.40
      P1  H 10752 10764       L1     9  0.76

> <Gold.Chemscore.Hbond.Weighted>
-5.8901

> <Gold.Chemscore.Metal.Weighted>
-0.0000

> <Gold.Chemscore.Lipo.Weighted>
-9.5203

> <Gold.Chemscore.Internal_Hbond.Weighted>
0.0000

> <Gold.Chemscore.DEClash.Weighted>
0.0000

> <Gold.Chemscore.DEInternal.Weighted>
1.0532

> <Gold.Chemscore.Rot.Weighted>
2.5600

> <Gold.Chemscore.Internal.Correction.Weighted>
   9.000000E+99

> <Gold.Protein.RotatedTorsions>
[ 6907 6896 6895 6894 ] final -140.13 input  -60.11 | X-H torsion
[ 7974 7965 7964 7962 ] final -167.74 input  175.53 | X-H torsion
[ 8008 7997 7996 7995 ] final  -13.14 input   59.86 | X-H torsion
[ 10167 10162 10161 10158 ] final  -24.93 input  -65.29 | X-H torsion
[ 10718 10713 10712 10709 ] final -115.88 input   66.30 | X-H torsion
[ 10763 10752 10751 10750 ] final  -84.25 input  -60.55 | X-H torsion
[ 11005 11000 10999 10996 ] final -174.78 input  -57.11 | X-H torsion

> <Gold.Protein.ActiveResidues>
 VAL166  LYS551  ARG553  GLY616  TRP617  ASP618  TYR619  PRO620  LYS621  CYS622 
 ASP623  PHE694  ASN695  SER759  ASP760  ASP761  ALA762  ILE779  LEU786  VAL792 
 PHE793  MET794  SER795  GLU796  ALA797  LYS798  CYS799  TRP800  GLU811  SER814 

> <Gold.Protein.RotatedAtoms>
  151.0567  133.5578  159.2637 H   0  0  0  0  0  0  0  0  0  0  0  0  # atno 6907 bound_to 6896
  151.2568  135.0640  159.9093 H   0  0  0  0  0  0  0  0  0  0  0  0  # atno 6908 bound_to 6896
  152.5391  134.0319  159.8082 H   0  0  0  0  0  0  0  0  0  0  0  0  # atno 6909 bound_to 6896
  144.7217  140.2474  143.6283 H   0  0  0  0  0  0  0  0  0  0  0  0  # atno 7974 bound_to 7965
  154.5317  140.2257  155.8793 H   0  0  0  0  0  0  0  0  0  0  0  0  # atno 8008 bound_to 7997
  156.1770  140.3109  155.9042 H   0  0  0  0  0  0  0  0  0  0  0  0  # atno 8009 bound_to 7997
  155.3437  140.0452  157.3036 H   0  0  0  0  0  0  0  0  0  0  0  0  # atno 8010 bound_to 7997
  140.7287  143.4310  151.0802 H   0  0  0  0  0  0  0  0  0  0  0  0  # atno 10167 bound_to 10162
  156.0925  130.6105  150.8963 H   0  0  0  0  0  0  0  0  0  0  0  0  # atno 10718 bound_to 10713
  154.5973  135.5527  153.7339 H   0  0  0  0  0  0  0  0  0  0  0  0  # atno 10763 bound_to 10752
  153.0140  135.6358  154.1764 H   0  0  0  0  0  0  0  0  0  0  0  0  # atno 10764 bound_to 10752
  154.1704  135.2892  155.3062 H   0  0  0  0  0  0  0  0  0  0  0  0  # atno 10765 bound_to 10752
  140.4706  134.6168  157.4880 H   0  0  0  0  0  0  0  0  0  0  0  0  # atno 11005 bound_to 11000
  145.8261  139.2065  143.1910 LP  0  0  0  0  0  0  0  0  0  0  0  0  # atno 17320 bound_to 7965
  146.0471  140.8106  142.9800 LP  0  0  0  0  0  0  0  0  0  0  0  0  # atno 17321 bound_to 7965
  139.7967  143.8142  152.3158 LP  0  0  0  0  0  0  0  0  0  0  0  0  # atno 17342 bound_to 10162
  139.8144  144.7322  150.9654 LP  0  0  0  0  0  0  0  0  0  0  0  0  # atno 17343 bound_to 10162
  157.6078  131.0938  150.8848 LP  0  0  0  0  0  0  0  0  0  0  0  0  # atno 17370 bound_to 10713
  156.8994  130.5241  149.5283 LP  0  0  0  0  0  0  0  0  0  0  0  0  # atno 17371 bound_to 10713
  139.9887  134.7019  155.9727 LP  0  0  0  0  0  0  0  0  0  0  0  0  # atno 17394 bound_to 11000
  141.1578  133.6541  156.4220 LP  0  0  0  0  0  0  0  0  0  0  0  0  # atno 17395 bound_to 11000

$$$$
