AV-unprocessed.smi:1195|AV-procd|sdf|4994|dock8
  -GOLD-   22720 3593D 1   1.00000     0.00000
 Structure written by MMmdl.
 39 40  0  0  0  0  0  0  0  0  1 V2000
  153.5943  130.5998  156.4673 N   0  0  0  0  0  0  0  0  0  0  0  0
  152.6511  131.3783  157.0030 C   0  0  0  0  0  0  0  0  0  0  0  0
  152.9288  132.3229  157.7408 O   0  0  0  0  0  0  0  0  0  0  0  0
  151.1993  131.0317  156.6473 C   0  0  0  0  0  0  0  0  0  0  0  0
  150.4829  132.1433  156.0429 N   0  0  0  0  0  0  0  0  0  0  0  0
  149.8798  132.1956  154.8011 C   0  0  0  0  0  0  0  0  0  0  0  0
  149.3446  133.4486  154.7022 C   0  0  0  0  0  0  0  0  0  0  0  0
  148.6130  134.0327  153.6379 N   0  0  0  0  0  0  0  0  0  0  0  0
  147.5786  133.4972  152.9695 C   0  0  0  0  0  0  0  0  0  0  0  0
  147.0985  132.3836  153.1822 O   0  0  0  0  0  0  0  0  0  0  0  0
  147.1234  134.3343  152.0263 N   0  0  0  0  0  0  0  0  0  0  0  0
  146.0109  134.0605  151.1217 C   0  0  2  0  0  0  0  0  0  0  0  0
  144.7061  133.9456  151.9328 C   0  0  0  0  0  0  0  0  0  0  0  0
  143.5111  133.5908  151.0330 C   0  0  0  0  0  0  0  0  0  0  0  0
  143.7797  132.3009  150.2393 C   0  0  1  0  0  0  0  0  0  0  0  0
  142.6924  132.0436  149.3762 O   0  0  0  0  0  0  0  0  0  0  0  0
  145.0736  132.4193  149.4160 C   0  0  0  0  0  0  0  0  0  0  0  0
  146.2703  132.7709  150.3145 C   0  0  0  0  0  0  0  0  0  0  0  0
  149.6600  134.1019  155.9217 C   0  0  0  0  0  0  0  0  0  0  0  0
  150.3503  133.3081  156.7261 N   0  0  0  0  0  0  0  0  0  0  0  0
  154.5670  130.7837  156.6669 H   0  0  0  0  0  0  0  0  0  0  0  0
  153.3345  129.8324  155.8647 H   0  0  0  0  0  0  0  0  0  0  0  0
  151.1856  130.1805  155.9648 H   0  0  0  0  0  0  0  0  0  0  0  0
  150.6659  130.7295  157.5493 H   0  0  0  0  0  0  0  0  0  0  0  0
  149.8870  131.3537  154.1245 H   0  0  0  0  0  0  0  0  0  0  0  0
  148.9114  134.9543  153.3534 H   0  0  0  0  0  0  0  0  0  0  0  0
  147.5799  135.2290  151.9250 H   0  0  0  0  0  0  0  0  0  0  0  0
  145.9053  134.8966  150.4272 H   0  0  0  0  0  0  0  0  0  0  0  0
  144.8155  133.1805  152.7029 H   0  0  0  0  0  0  0  0  0  0  0  0
  144.5062  134.8824  152.4544 H   0  0  0  0  0  0  0  0  0  0  0  0
  142.6128  133.4772  151.6410 H   0  0  0  0  0  0  0  0  0  0  0  0
  143.3179  134.4164  150.3464 H   0  0  0  0  0  0  0  0  0  0  0  0
  143.8654  131.4617  150.9308 H   0  0  0  0  0  0  0  0  0  0  0  0
  142.1117  132.7892  149.3942 H   0  0  0  0  0  0  0  0  0  0  0  0
  145.2714  131.4855  148.8884 H   0  0  0  0  0  0  0  0  0  0  0  0
  144.9582  133.1891  148.6515 H   0  0  0  0  0  0  0  0  0  0  0  0
  147.1648  132.8824  149.7003 H   0  0  0  0  0  0  0  0  0  0  0  0
  146.4660  131.9416  150.9959 H   0  0  0  0  0  0  0  0  0  0  0  0
  149.4188  135.1043  156.2430 H   0  0  0  0  0  0  0  0  0  0  0  0
  1  2  1  0  0  0  0
  1 21  1  0  0  0  0
  1 22  1  0  0  0  0
  2  3  2  0  0  0  0
  2  4  1  0  0  0  0
  4  5  1  0  0  0  0
  4 23  1  0  0  0  0
  4 24  1  0  0  0  0
  5 20  1  0  0  0  0
  5  6  1  0  0  0  0
  6  7  2  0  0  0  0
  6 25  1  0  0  0  0
  7  8  1  0  0  0  0
  7 19  1  0  0  0  0
  8  9  1  0  0  0  0
  8 26  1  0  0  0  0
  9 10  2  0  0  0  0
  9 11  1  0  0  0  0
 11 12  1  0  0  0  0
 11 27  1  0  0  0  0
 12 18  1  0  0  0  0
 12 13  1  0  0  0  0
 12 28  1  0  0  0  0
 13 14  1  0  0  0  0
 13 29  1  0  0  0  0
 13 30  1  0  0  0  0
 14 15  1  0  0  0  0
 14 31  1  0  0  0  0
 14 32  1  0  0  0  0
 15 16  1  0  0  0  0
 15 17  1  0  0  0  0
 15 33  1  0  0  0  0
 16 34  1  0  0  0  0
 17 18  1  0  0  0  0
 17 35  1  0  0  0  0
 17 36  1  0  0  0  0
 18 37  1  0  0  0  0
 18 38  1  0  0  0  0
 19 20  2  0  0  0  0
 19 39  1  0  0  0  0
M  END
> <s_m_source_file>
AV-unprocessed.smi

> <i_m_source_file_index>
1195

> <i_lp_mmshare_version>
43012

> <i_f3d_flags>
0

> <s_epik_input>
W05IMl1DKD1PKVtDSDJdbjFbY0hdYyhbY0hdbjEpW05IXUMoPU8pW05IXVtDQEBIXTJbQ0gyXVtDSDJdW0NAQEhdKFtPSF0pW0NIMl1bQ0gyXTI=

> <s_epik_cmdline>
J2VwaWtfcHl0aG9uJywgJy1waCcsICc3LjAnLCAnLXRuJywgJzgnLCAnLW1hJywgJzIwMCcsICctbWV0YWxfYmluZGluZycsICctaW1hZScsICc8aW5maWxlLm1hZT4nLCAnLW9tYWUnLCAnPG91dGZpbGUubWFlPic=

> <r_lp_tautomer_probability>
1

> <r_epik_Ionization_Penalty>
4.75851e-05

> <r_epik_Ionization_Penalty_Charging>
0

> <r_epik_Ionization_Penalty_Neutral>
4.75851e-05

> <r_epik_State_Penalty>
-0

> <r_epik_Charging_Adjusted_Penalty>
0

> <i_epik_Tot_Q>
0

> <i_epik_Tot_abs_Q>
0

> <r_epik_Metal_State_Penalty>
-0

> <b_epik_Metal_Only>
0

> <s_lp_Force_Field>
OPLS_2005

> <r_lp_Energy>
13.1232

> <b_lp_Chiralities_Consistent>
1

> <s_lp_Variant>
AV-unprocessed.smi:1195-1

> <Gold.Version>
5.8.1

> <Gold.Id.Protein>
6NUR|6NUR_protein|mol2

> <Gold.PLP.Fitness>
47.5259

> <Gold.PLP.PLP>
-33.7178

> <Gold.PLP.part.hbond>
-5.9500

> <Gold.PLP.part.metal>
0.0000

> <Gold.PLP.part.buried>
-1.4188

> <Gold.PLP.part.nonpolar>
-26.0842

> <Gold.PLP.part.repulsive>
0.1496

> <Gold.PLP.ligand.clash>
0.0000

> <Gold.PLP.ligand.torsion>
0.4436

> <Gold.PLP.Chemscore.Hbond>
4.8960

> <Gold.PLP.Chemscore.CHOScore>
0.0000

> <Gold.PLP.Chemscore.Metal>
0.0000

> <Gold.Chemscore.Hbonds>
donor molecule, donor type, donor heavy atom, donor atom, acceptor molecule, acceptor atom, score
      L1  H     8    26       P1  7948  0.88
      L1  H    11    27       P1  7948  1.00
      L1  H    16    34       P1 10186  1.00
      P1  H  6896  6909       L1     3  0.68
      P1  H 10785 10796       L1    16  0.91

> <Gold.PLP.Chemscore.Internal.Correction>
0.0074

> <Gold.Rescore>
     Score         DG    S(hbond)    S(metal)    S(lipo)     H(rot)  DE(clash)    DE(int)     intcor
     17.86     -19.46       3.94        0.00      64.46       2.62       0.02       1.58       ----

> <Gold.Chemscore.Fitness>
17.8592

> <Gold.Chemscore.DG>
-19.4586

> <Gold.Chemscore.ZeroCoef>
-5.4800

> <Gold.Chemscore.Hbond>
3.9363

> <Gold.Chemscore.Metal>
0.0000

> <Gold.Chemscore.Lipo>
64.4582

> <Gold.Chemscore.Internal_Hbond>
0.0000

> <Gold.Chemscore.DEClash>
0.0186

> <Gold.Chemscore.DEInternal>
1.5807

> <Gold.Chemscore.Rot>
2.6212

> <Gold.Chemscore.Internal.Correction>
   9.000000E+99

> <Gold.Chemscore.Hbonds>
donor molecule, donor type, donor heavy atom, donor atom, acceptor molecule, acceptor atom, score
      L1  H     8    26       P1  7948  0.30
      L1  H    11    27       P1  7948  0.91
      L1  H    16    34       P1 10186  0.98
      P1  H  6896  6909       L1     3  0.67
      P1  H 10785 10796       L1    16  0.22

> <Gold.Chemscore.Hbond.Weighted>
-13.1472

> <Gold.Chemscore.Metal.Weighted>
-0.0000

> <Gold.Chemscore.Lipo.Weighted>
-7.5416

> <Gold.Chemscore.Internal_Hbond.Weighted>
0.0000

> <Gold.Chemscore.DEClash.Weighted>
0.0186

> <Gold.Chemscore.DEInternal.Weighted>
1.5807

> <Gold.Chemscore.Rot.Weighted>
6.7103

> <Gold.Chemscore.Internal.Correction.Weighted>
   9.000000E+99

> <Gold.Protein.RotatedTorsions>
[ 6907 6896 6895 6894 ] final  -94.53 input  -60.11 | X-H torsion
[ 7974 7965 7964 7962 ] final    6.47 input  175.53 | X-H torsion
[ 8008 7997 7996 7995 ] final -163.29 input   59.86 | X-H torsion
[ 10167 10162 10161 10158 ] final   27.56 input  -65.29 | X-H torsion
[ 10718 10713 10712 10709 ] final -114.62 input   66.30 | X-H torsion
[ 10763 10752 10751 10750 ] final    2.98 input  -60.55 | X-H torsion
[ 11005 11000 10999 10996 ] final -159.80 input  -57.11 | X-H torsion

> <Gold.Protein.ActiveResidues>
 VAL166  LYS551  ARG553  GLY616  TRP617  ASP618  TYR619  PRO620  LYS621  CYS622 
 ASP623  PHE694  ASN695  SER759  ASP760  ASP761  ALA762  ILE779  LEU786  VAL792 
 PHE793  MET794  SER795  GLU796  ALA797  LYS798  CYS799  TRP800  GLU811  SER814 

> <Gold.Protein.RotatedAtoms>
  150.6944  134.1798  159.4244 H   0  0  0  0  0  0  0  0  0  0  0  0  # atno 6907 bound_to 6896
  151.9773  135.0044  160.0565 H   0  0  0  0  0  0  0  0  0  0  0  0  # atno 6908 bound_to 6896
  152.1787  133.4657  159.4983 H   0  0  0  0  0  0  0  0  0  0  0  0  # atno 6909 bound_to 6896
  146.2434  140.0228  142.8396 H   0  0  0  0  0  0  0  0  0  0  0  0  # atno 7974 bound_to 7965
  155.8192  140.0917  157.1859 H   0  0  0  0  0  0  0  0  0  0  0  0  # atno 8008 bound_to 7997
  154.3979  140.1440  156.3539 H   0  0  0  0  0  0  0  0  0  0  0  0  # atno 8009 bound_to 7997
  155.8284  140.3443  155.5560 H   0  0  0  0  0  0  0  0  0  0  0  0  # atno 8010 bound_to 7997
  140.4928  144.0440  150.6303 H   0  0  0  0  0  0  0  0  0  0  0  0  # atno 10167 bound_to 10162
  156.0842  130.6037  150.8799 H   0  0  0  0  0  0  0  0  0  0  0  0  # atno 10718 bound_to 10713
  153.2889  135.6947  153.7312 H   0  0  0  0  0  0  0  0  0  0  0  0  # atno 10763 bound_to 10752
  153.6271  135.3417  155.3030 H   0  0  0  0  0  0  0  0  0  0  0  0  # atno 10764 bound_to 10752
  154.8518  135.4400  154.1966 H   0  0  0  0  0  0  0  0  0  0  0  0  # atno 10765 bound_to 10752
  140.6385  134.4576  157.5232 H   0  0  0  0  0  0  0  0  0  0  0  0  # atno 11005 bound_to 11000
  145.1225  140.9471  143.4592 LP  0  0  0  0  0  0  0  0  0  0  0  0  # atno 17320 bound_to 7965
  145.0467  139.3215  143.5949 LP  0  0  0  0  0  0  0  0  0  0  0  0  # atno 17321 bound_to 7965
  140.3714  143.2852  152.0274 LP  0  0  0  0  0  0  0  0  0  0  0  0  # atno 17342 bound_to 10162
  139.4855  144.6227  151.7224 LP  0  0  0  0  0  0  0  0  0  0  0  0  # atno 17343 bound_to 10162
  157.5970  131.0942  150.9024 LP  0  0  0  0  0  0  0  0  0  0  0  0  # atno 17370 bound_to 10713
  156.9189  130.5307  149.5279 LP  0  0  0  0  0  0  0  0  0  0  0  0  # atno 17371 bound_to 10713
  139.9089  134.8388  156.1602 LP  0  0  0  0  0  0  0  0  0  0  0  0  # atno 17394 bound_to 11000
  141.0624  133.6835  156.1978 LP  0  0  0  0  0  0  0  0  0  0  0  0  # atno 17395 bound_to 11000

$$$$
