AV-unprocessed.smi:1236|AV-procd|sdf|5179|dock8
  -GOLD-   22720 4263D 1   1.00000     0.00000
 Structure written by MMmdl.
 39 40  0  0  0  0  0  0  0  0  1 V2000
  148.3637  140.2272  154.0497 C   0  0  0  0  0  0  0  0  0  0  0  0
  147.5861  141.3633  154.7273 C   0  0  2  0  0  0  0  0  0  0  0  0
  146.7958  142.1940  153.6933 C   0  0  0  0  0  0  0  0  0  0  0  0
  145.9317  143.2385  154.2457 N   0  0  0  0  0  0  0  0  0  0  0  0
  144.8786  142.7053  155.1071 C   0  0  0  0  0  0  0  0  0  0  0  0
  143.9804  143.8212  155.6673 C   0  0  0  0  0  0  0  0  0  0  0  0
  143.4249  144.5730  154.5930 O   0  0  0  0  0  0  0  0  0  0  0  0
  144.4203  145.1450  153.7508 C   0  0  0  0  0  0  0  0  0  0  0  0
  145.3193  144.0318  153.1860 C   0  0  0  0  0  0  0  0  0  0  0  0
  148.5250  142.2192  155.4516 N   0  0  0  0  0  0  0  0  0  0  0  0
  149.4353  141.8061  156.3465 C   0  0  0  0  0  0  0  0  0  0  0  0
  149.6112  140.6246  156.6460 O   0  0  0  0  0  0  0  0  0  0  0  0
  150.1109  142.8466  156.8648 N   0  0  0  0  0  0  0  0  0  0  0  0
  151.1402  142.8258  157.8434 C   0  0  0  0  0  0  0  0  0  0  0  0
  151.6623  144.0926  158.1898 C   0  0  0  0  0  0  0  0  0  0  0  0
  152.6868  144.1803  159.1522 C   0  0  0  0  0  0  0  0  0  0  0  0
  153.1645  142.9973  159.7434 C   0  0  0  0  0  0  0  0  0  0  0  0
  152.5910  141.7769  159.3415 C   0  0  0  0  0  0  0  0  0  0  0  0
  151.6088  141.6907  158.4199 N   0  0  0  0  0  0  0  0  0  0  0  0
  147.6904  139.5578  153.5137 H   0  0  0  0  0  0  0  0  0  0  0  0
  148.9050  139.6295  154.7839 H   0  0  0  0  0  0  0  0  0  0  0  0
  149.0894  140.6126  153.3329 H   0  0  0  0  0  0  0  0  0  0  0  0
  146.8887  140.8925  155.4209 H   0  0  0  0  0  0  0  0  0  0  0  0
  147.5184  142.6576  153.0202 H   0  0  0  0  0  0  0  0  0  0  0  0
  146.2007  141.5239  153.0710 H   0  0  0  0  0  0  0  0  0  0  0  0
  144.2673  141.9948  154.5489 H   0  0  0  0  0  0  0  0  0  0  0  0
  145.3099  142.1565  155.9427 H   0  0  0  0  0  0  0  0  0  0  0  0
  143.1715  143.3955  156.2611 H   0  0  0  0  0  0  0  0  0  0  0  0
  144.5496  144.4789  156.3258 H   0  0  0  0  0  0  0  0  0  0  0  0
  143.9335  145.6882  152.9407 H   0  0  0  0  0  0  0  0  0  0  0  0
  145.0108  145.8692  154.3139 H   0  0  0  0  0  0  0  0  0  0  0  0
  146.0944  144.4785  152.5623 H   0  0  0  0  0  0  0  0  0  0  0  0
  144.7279  143.3865  152.5346 H   0  0  0  0  0  0  0  0  0  0  0  0
  148.4556  143.2103  155.2748 H   0  0  0  0  0  0  0  0  0  0  0  0
  149.8536  143.7616  156.5257 H   0  0  0  0  0  0  0  0  0  0  0  0
  151.2837  144.9914  157.7255 H   0  0  0  0  0  0  0  0  0  0  0  0
  153.0984  145.1390  159.4309 H   0  0  0  0  0  0  0  0  0  0  0  0
  153.9495  143.0237  160.4847 H   0  0  0  0  0  0  0  0  0  0  0  0
  152.9297  140.8454  159.7703 H   0  0  0  0  0  0  0  0  0  0  0  0
  1  2  1  0  0  0  0
  1 20  1  0  0  0  0
  1 21  1  0  0  0  0
  1 22  1  0  0  0  0
  2  3  1  0  0  0  0
  2 10  1  0  0  0  0
  2 23  1  0  0  0  0
  3  4  1  0  0  0  0
  3 24  1  0  0  0  0
  3 25  1  0  0  0  0
  4  9  1  0  0  0  0
  4  5  1  0  0  0  0
  5  6  1  0  0  0  0
  5 26  1  0  0  0  0
  5 27  1  0  0  0  0
  6  7  1  0  0  0  0
  6 28  1  0  0  0  0
  6 29  1  0  0  0  0
  7  8  1  0  0  0  0
  8  9  1  0  0  0  0
  8 30  1  0  0  0  0
  8 31  1  0  0  0  0
  9 32  1  0  0  0  0
  9 33  1  0  0  0  0
 10 11  1  0  0  0  0
 10 34  1  0  0  0  0
 11 12  2  0  0  0  0
 11 13  1  0  0  0  0
 13 14  1  0  0  0  0
 13 35  1  0  0  0  0
 14 19  1  0  0  0  0
 14 15  2  0  0  0  0
 15 16  1  0  0  0  0
 15 36  1  0  0  0  0
 16 17  2  0  0  0  0
 16 37  1  0  0  0  0
 17 18  1  0  0  0  0
 17 38  1  0  0  0  0
 18 19  2  0  0  0  0
 18 39  1  0  0  0  0
M  END
> <s_m_source_file>
AV-unprocessed.smi

> <i_m_source_file_index>
1236

> <i_lp_mmshare_version>
43012

> <i_f3d_flags>
0

> <s_epik_input>
W0NIMl0xW0NIMl1PW0NIMl1bQ0gyXU4xW0NIMl1bQ0BASF0oW0NIM10pW05IXUMoPU8pW05IXWMyW2NIXVtjSF1bY0hdW2NIXW4y

> <s_epik_cmdline>
J2VwaWtfcHl0aG9uJywgJy1waCcsICc3LjAnLCAnLXRuJywgJzgnLCAnLW1hJywgJzIwMCcsICctbWV0YWxfYmluZGluZycsICctaW1hZScsICc8aW5maWxlLm1hZT4nLCAnLW9tYWUnLCAnPG91dGZpbGUubWFlPic=

> <r_epik_Ionization_Penalty>
0.26604

> <r_epik_Ionization_Penalty_Charging>
0

> <r_epik_Ionization_Penalty_Neutral>
0.26604

> <r_epik_State_Penalty>
0.257924

> <r_epik_Charging_Adjusted_Penalty>
0.257924

> <i_epik_Tot_Q>
0

> <i_epik_Tot_abs_Q>
0

> <r_epik_Metal_State_Penalty>
0.257923

> <b_epik_Metal_Only>
0

> <s_lp_Force_Field>
OPLS_2005

> <r_lp_Energy>
27.6221

> <b_lp_Chiralities_Consistent>
1

> <s_lp_Variant>
AV-unprocessed.smi:1236-1

> <Gold.Version>
5.8.1

> <Gold.Id.Protein>
6NUR|6NUR_protein|mol2

> <Gold.PLP.Fitness>
44.1423

> <Gold.PLP.PLP>
-38.2737

> <Gold.PLP.part.hbond>
-2.0000

> <Gold.PLP.part.metal>
0.0000

> <Gold.PLP.part.buried>
-5.6365

> <Gold.PLP.part.nonpolar>
-32.1210

> <Gold.PLP.part.repulsive>
0.5314

> <Gold.PLP.ligand.clash>
0.0000

> <Gold.PLP.ligand.torsion>
0.0587

> <Gold.PLP.Chemscore.Hbond>
1.9920

> <Gold.PLP.Chemscore.CHOScore>
0.0000

> <Gold.PLP.Chemscore.Metal>
0.0000

> <Gold.Chemscore.Hbonds>
donor molecule, donor type, donor heavy atom, donor atom, acceptor molecule, acceptor atom, score
      L1  H    10    34       P1  8028  1.00
      L1  H    13    35       P1  8028  1.00

> <Gold.PLP.Chemscore.Internal.Correction>
0.0100

> <Gold.Rescore>
     Score         DG    S(hbond)    S(metal)    S(lipo)     H(rot)  DE(clash)    DE(int)     intcor
     15.95     -18.64       1.90        0.00      91.25       1.51       0.12       2.56       ----

> <Gold.Chemscore.Fitness>
15.9519

> <Gold.Chemscore.DG>
-18.6394

> <Gold.Chemscore.ZeroCoef>
-5.4800

> <Gold.Chemscore.Hbond>
1.9011

> <Gold.Chemscore.Metal>
0.0000

> <Gold.Chemscore.Lipo>
91.2494

> <Gold.Chemscore.Internal_Hbond>
0.0000

> <Gold.Chemscore.DEClash>
0.1245

> <Gold.Chemscore.DEInternal>
2.5630

> <Gold.Chemscore.Rot>
1.5104

> <Gold.Chemscore.Internal.Correction>
   9.000000E+99

> <Gold.Chemscore.Hbonds>
donor molecule, donor type, donor heavy atom, donor atom, acceptor molecule, acceptor atom, score
      L1  H    10    34       P1  8028  0.93
      L1  H    13    35       P1  8028  0.95

> <Gold.Chemscore.Hbond.Weighted>
-6.3498

> <Gold.Chemscore.Metal.Weighted>
-0.0000

> <Gold.Chemscore.Lipo.Weighted>
-10.6762

> <Gold.Chemscore.Internal_Hbond.Weighted>
0.0000

> <Gold.Chemscore.DEClash.Weighted>
0.1245

> <Gold.Chemscore.DEInternal.Weighted>
2.5630

> <Gold.Chemscore.Rot.Weighted>
3.8665

> <Gold.Chemscore.Internal.Correction.Weighted>
   9.000000E+99

> <Gold.Protein.RotatedTorsions>
[ 6907 6896 6895 6894 ] final   82.18 input  -60.11 | X-H torsion
[ 7974 7965 7964 7962 ] final   35.43 input  175.53 | X-H torsion
[ 8008 7997 7996 7995 ] final  -40.19 input   59.86 | X-H torsion
[ 10167 10162 10161 10158 ] final   81.04 input  -65.29 | X-H torsion
[ 10718 10713 10712 10709 ] final  -15.48 input   66.30 | X-H torsion
[ 10763 10752 10751 10750 ] final  -80.20 input  -60.55 | X-H torsion
[ 11005 11000 10999 10996 ] final  -14.15 input  -57.11 | X-H torsion

> <Gold.Protein.ActiveResidues>
 VAL166  LYS551  ARG553  GLY616  TRP617  ASP618  TYR619  PRO620  LYS621  CYS622 
 ASP623  PHE694  ASN695  SER759  ASP760  ASP761  ALA762  ILE779  LEU786  VAL792 
 PHE793  MET794  SER795  GLU796  ALA797  LYS798  CYS799  TRP800  GLU811  SER814 

> <Gold.Protein.RotatedAtoms>
  152.5291  134.3090  159.9106 H   0  0  0  0  0  0  0  0  0  0  0  0  # atno 6907 bound_to 6896
  151.3039  133.4103  159.2649 H   0  0  0  0  0  0  0  0  0  0  0  0  # atno 6908 bound_to 6896
  151.0095  134.9402  159.8056 H   0  0  0  0  0  0  0  0  0  0  0  0  # atno 6909 bound_to 6896
  146.1283  139.6143  142.9244 H   0  0  0  0  0  0  0  0  0  0  0  0  # atno 7974 bound_to 7965
  154.4014  140.1532  156.2987 H   0  0  0  0  0  0  0  0  0  0  0  0  # atno 8008 bound_to 7997
  155.8720  140.3448  155.5806 H   0  0  0  0  0  0  0  0  0  0  0  0  # atno 8009 bound_to 7997
  155.7763  140.0837  157.2072 H   0  0  0  0  0  0  0  0  0  0  0  0  # atno 8010 bound_to 7997
  139.9435  144.6074  150.8229 H   0  0  0  0  0  0  0  0  0  0  0  0  # atno 10167 bound_to 10162
  156.6011  130.4824  149.6239 H   0  0  0  0  0  0  0  0  0  0  0  0  # atno 10718 bound_to 10713
  154.5482  135.5669  153.6899 H   0  0  0  0  0  0  0  0  0  0  0  0  # atno 10763 bound_to 10752
  152.9982  135.6244  154.2410 H   0  0  0  0  0  0  0  0  0  0  0  0  # atno 10764 bound_to 10752
  154.2343  135.2864  155.2858 H   0  0  0  0  0  0  0  0  0  0  0  0  # atno 10765 bound_to 10752
  140.7834  133.8345  155.9313 H   0  0  0  0  0  0  0  0  0  0  0  0  # atno 11005 bound_to 11000
  145.5317  141.0426  143.2379 LP  0  0  0  0  0  0  0  0  0  0  0  0  # atno 17320 bound_to 7965
  144.7664  139.6834  143.7213 LP  0  0  0  0  0  0  0  0  0  0  0  0  # atno 17321 bound_to 7965
  140.7604  143.3150  151.2753 LP  0  0  0  0  0  0  0  0  0  0  0  0  # atno 17342 bound_to 10162
  139.6686  144.0061  152.2738 LP  0  0  0  0  0  0  0  0  0  0  0  0  # atno 17343 bound_to 10162
  156.2468  130.6883  151.1607 LP  0  0  0  0  0  0  0  0  0  0  0  0  # atno 17370 bound_to 10713
  157.7279  131.0636  150.5844 LP  0  0  0  0  0  0  0  0  0  0  0  0  # atno 17371 bound_to 10713
  140.9460  134.1840  157.4763 LP  0  0  0  0  0  0  0  0  0  0  0  0  # atno 17394 bound_to 11000
  139.8740  134.9891  156.5440 LP  0  0  0  0  0  0  0  0  0  0  0  0  # atno 17395 bound_to 11000

$$$$
