AV-unprocessed.smi:1592|AV-procd|sdf|6406|dock9
  -GOLD-   22720 7 43D 1   1.00000     0.00000
 Structure written by MMmdl.
 26 27  0  0  0  0  0  0  0  0  2 V2000
  155.0691  141.1653  163.0486 O   0  0  0  0  0  0  0  0  0  0  0  0
  154.9676  140.2428  162.2345 C   0  0  0  0  0  0  0  0  0  0  0  0
  154.3566  140.2335  160.9828 N   0  0  0  0  0  0  0  0  0  0  0  0
  153.6440  141.2239  160.5189 C   0  0  0  0  0  0  0  0  0  0  0  0
  153.4220  142.4159  161.2304 N   0  0  0  0  0  0  0  0  0  0  0  0
  152.6766  143.4628  160.7309 C   0  0  0  0  0  0  0  0  0  0  0  0
  152.1094  143.4023  159.5252 C   0  0  0  0  0  0  0  0  0  0  0  0
  152.2856  142.2056  158.7285 C   0  0  0  0  0  0  0  0  0  0  0  0
  153.0335  141.1125  159.1817 C   0  0  0  0  0  0  0  0  0  0  0  0
  153.1612  140.0983  158.4573 O   0  5  0  0  0  0  0  0  0  0  0  0
  155.5644  138.8672  162.5792 C   0  0  1  0  0  0  0  0  0  0  0  0
  155.1610  138.3687  163.9818 C   0  0  0  0  0  0  0  0  0  0  0  0
  154.4683  137.0416  163.7257 C   0  0  0  0  0  0  0  0  0  0  0  0
  153.9998  137.1798  162.2852 C   0  0  0  0  0  0  0  0  0  0  0  0
  155.0737  137.8774  161.6728 O   0  0  0  0  0  0  0  0  0  0  0  0
  152.5960  144.3164  161.3873 H   0  0  0  0  0  0  0  0  0  0  0  0
  151.5295  144.2319  159.1483 H   0  0  0  0  0  0  0  0  0  0  0  0
  151.8207  142.1676  157.7538 H   0  0  0  0  0  0  0  0  0  0  0  0
  153.8143  142.5466  162.1511 H   0  0  0  0  0  0  0  0  0  0  0  0
  156.6497  138.9137  162.4792 H   0  0  0  0  0  0  0  0  0  0  0  0
  156.0246  138.2492  164.6366 H   0  0  0  0  0  0  0  0  0  0  0  0
  154.4717  139.0563  164.4749 H   0  0  0  0  0  0  0  0  0  0  0  0
  155.1883  136.2263  163.8033 H   0  0  0  0  0  0  0  0  0  0  0  0
  153.6527  136.8437  164.4214 H   0  0  0  0  0  0  0  0  0  0  0  0
  153.8176  136.2181  161.8054 H   0  0  0  0  0  0  0  0  0  0  0  0
  153.0872  137.7752  162.2251 H   0  0  0  0  0  0  0  0  0  0  0  0
  1  2  2  0  0  0  0
  2  3  1  0  0  0  0
  2 11  1  0  0  0  0
  3  4  2  0  0  0  0
  4  9  1  0  0  0  0
  4  5  1  0  0  0  0
  5 19  1  0  0  0  0
  5  6  1  0  0  0  0
  6 16  1  0  0  0  0
  6  7  2  0  0  0  0
  7 17  1  0  0  0  0
  7  8  1  0  0  0  0
  8  9  2  0  0  0  0
  8 18  1  0  0  0  0
  9 10  1  0  0  0  0
 11 15  1  0  0  0  0
 11 12  1  0  0  0  0
 11 20  1  0  0  0  0
 12 13  1  0  0  0  0
 12 21  1  0  0  0  0
 12 22  1  0  0  0  0
 13 14  1  0  0  0  0
 13 23  1  0  0  0  0
 13 24  1  0  0  0  0
 14 15  1  0  0  0  0
 14 25  1  0  0  0  0
 14 26  1  0  0  0  0
M  CHG  1  10  -1
M  END
> <s_m_source_file>
AV-unprocessed.smi

> <i_m_source_file_index>
1592

> <i_lp_mmshare_version>
43012

> <i_f3d_flags>
0

> <s_epik_input>
TzFbQ0gyXVtDSDJdW0NIMl1bQ0BIXTFDKD1PKVtOSF1jMm5bY0hdW2NIXVtjSF1jMltPSF0=

> <s_epik_cmdline>
J2VwaWtfcHl0aG9uJywgJy1waCcsICc3LjAnLCAnLXRuJywgJzgnLCAnLW1hJywgJzIwMCcsICctbWV0YWxfYmluZGluZycsICctaW1hZScsICc8aW5maWxlLm1hZT4nLCAnLW9tYWUnLCAnPG91dGZpbGUubWFlPic=

> <r_epik_Ionization_Penalty>
0.780127

> <r_epik_Ionization_Penalty_Charging>
0.780127

> <r_epik_Ionization_Penalty_Neutral>
6.55423e-13

> <r_epik_State_Penalty>
1.4426

> <r_epik_Charging_Adjusted_Penalty>
2.22273

> <i_epik_Tot_Q>
-1

> <i_epik_Tot_abs_Q>
1

> <r_epik_Metal_State_Penalty>
1.40439

> <b_epik_Metal_Only>
0

> <s_lp_Force_Field>
OPLS_2005

> <r_lp_Energy>
49.5573

> <b_lp_Chiralities_Consistent>
1

> <s_lp_Variant>
AV-unprocessed.smi:1592-6

> <Gold.Version>
5.8.1

> <Gold.Id.Protein>
6NUR|6NUR_protein|mol2

> <Gold.PLP.Fitness>
35.8228

> <Gold.PLP.PLP>
-30.3780

> <Gold.PLP.part.hbond>
-2.0000

> <Gold.PLP.part.metal>
0.0000

> <Gold.PLP.part.buried>
-4.3457

> <Gold.PLP.part.nonpolar>
-24.0701

> <Gold.PLP.part.repulsive>
0.0331

> <Gold.PLP.ligand.clash>
0.0000

> <Gold.PLP.ligand.torsion>
0.2812

> <Gold.PLP.Chemscore.Hbond>
2.0000

> <Gold.PLP.Chemscore.CHOScore>
0.0000

> <Gold.PLP.Chemscore.Metal>
0.0000

> <Gold.Chemscore.Hbonds>
donor molecule, donor type, donor heavy atom, donor atom, acceptor molecule, acceptor atom, score
      P1  H  7997  8010       L1    10  2.00

> <Gold.PLP.Chemscore.Internal.Correction>
0.0073

> <Gold.Rescore>
     Score         DG    S(hbond)    S(metal)    S(lipo)     H(rot)  DE(clash)    DE(int)     intcor
     14.27     -14.50       0.95        0.00      71.86       1.00       0.05       0.19       ----

> <Gold.Chemscore.Fitness>
14.2669

> <Gold.Chemscore.DG>
-14.5025

> <Gold.Chemscore.ZeroCoef>
-5.4800

> <Gold.Chemscore.Hbond>
0.9505

> <Gold.Chemscore.Metal>
0.0000

> <Gold.Chemscore.Lipo>
71.8614

> <Gold.Chemscore.Internal_Hbond>
0.0000

> <Gold.Chemscore.DEClash>
0.0502

> <Gold.Chemscore.DEInternal>
0.1853

> <Gold.Chemscore.Rot>
1.0000

> <Gold.Chemscore.Internal.Correction>
   9.000000E+99

> <Gold.Chemscore.Hbonds>
donor molecule, donor type, donor heavy atom, donor atom, acceptor molecule, acceptor atom, score
      P1  H  7997  8010       L1    10  0.86

> <Gold.Chemscore.Hbond.Weighted>
-3.1747

> <Gold.Chemscore.Metal.Weighted>
-0.0000

> <Gold.Chemscore.Lipo.Weighted>
-8.4078

> <Gold.Chemscore.Internal_Hbond.Weighted>
0.0000

> <Gold.Chemscore.DEClash.Weighted>
0.0502

> <Gold.Chemscore.DEInternal.Weighted>
0.1853

> <Gold.Chemscore.Rot.Weighted>
2.5600

> <Gold.Chemscore.Internal.Correction.Weighted>
   9.000000E+99

> <Gold.Protein.RotatedTorsions>
[ 6907 6896 6895 6894 ] final -121.43 input  -60.11 | X-H torsion
[ 7974 7965 7964 7962 ] final -146.46 input  175.53 | X-H torsion
[ 8008 7997 7996 7995 ] final   37.33 input   59.86 | X-H torsion
[ 10167 10162 10161 10158 ] final  126.47 input  -65.29 | X-H torsion
[ 10718 10713 10712 10709 ] final   92.35 input   66.30 | X-H torsion
[ 10763 10752 10751 10750 ] final  119.47 input  -60.55 | X-H torsion
[ 11005 11000 10999 10996 ] final   25.37 input  -57.11 | X-H torsion

> <Gold.Protein.ActiveResidues>
 VAL166  LYS551  ARG553  GLY616  TRP617  ASP618  TYR619  PRO620  LYS621  CYS622 
 ASP623  PHE694  ASN695  SER759  ASP760  ASP761  ALA762  ILE779  LEU786  VAL792 
 PHE793  MET794  SER795  GLU796  ALA797  LYS798  CYS799  TRP800  GLU811  SER814 

> <Gold.Protein.RotatedAtoms>
  150.8482  133.7828  159.3034 H   0  0  0  0  0  0  0  0  0  0  0  0  # atno 6907 bound_to 6896
  151.5508  135.1066  159.9959 H   0  0  0  0  0  0  0  0  0  0  0  0  # atno 6908 bound_to 6896
  152.4531  133.7626  159.6811 H   0  0  0  0  0  0  0  0  0  0  0  0  # atno 6909 bound_to 6896
  144.8158  140.5453  143.5611 H   0  0  0  0  0  0  0  0  0  0  0  0  # atno 7974 bound_to 7965
  155.2020  140.3316  155.4342 H   0  0  0  0  0  0  0  0  0  0  0  0  # atno 8008 bound_to 7997
  156.2403  140.1892  156.7056 H   0  0  0  0  0  0  0  0  0  0  0  0  # atno 8009 bound_to 7997
  154.6135  140.0605  156.9510 H   0  0  0  0  0  0  0  0  0  0  0  0  # atno 8010 bound_to 7997
  139.5630  144.6893  151.3990 H   0  0  0  0  0  0  0  0  0  0  0  0  # atno 10167 bound_to 10162
  157.6959  131.0440  150.3868 H   0  0  0  0  0  0  0  0  0  0  0  0  # atno 10718 bound_to 10713
  153.5835  135.3479  155.2884 H   0  0  0  0  0  0  0  0  0  0  0  0  # atno 10763 bound_to 10752
  154.8664  135.4188  154.2594 H   0  0  0  0  0  0  0  0  0  0  0  0  # atno 10764 bound_to 10752
  153.3385  135.7048  153.6957 H   0  0  0  0  0  0  0  0  0  0  0  0  # atno 10765 bound_to 10752
  140.3486  134.2254  155.7682 H   0  0  0  0  0  0  0  0  0  0  0  0  # atno 11005 bound_to 11000
  145.5217  139.1476  143.3548 LP  0  0  0  0  0  0  0  0  0  0  0  0  # atno 17320 bound_to 7965
  146.2461  140.5358  142.8913 LP  0  0  0  0  0  0  0  0  0  0  0  0  # atno 17321 bound_to 7965
  140.6911  143.7859  150.7257 LP  0  0  0  0  0  0  0  0  0  0  0  0  # atno 17342 bound_to 10162
  140.1342  143.4499  152.2235 LP  0  0  0  0  0  0  0  0  0  0  0  0  # atno 17343 bound_to 10162
  156.4276  130.3965  149.6782 LP  0  0  0  0  0  0  0  0  0  0  0  0  # atno 17370 bound_to 10713
  156.4011  130.7675  151.2683 LP  0  0  0  0  0  0  0  0  0  0  0  0  # atno 17371 bound_to 10713
  141.2018  133.7952  157.0420 LP  0  0  0  0  0  0  0  0  0  0  0  0  # atno 17394 bound_to 11000
  140.0722  134.9696  157.1486 LP  0  0  0  0  0  0  0  0  0  0  0  0  # atno 17395 bound_to 11000

$$$$
