AV-unprocessed.smi:1526|AV-procd|sdf|6146|dock8
  -GOLD-   22720 6293D 1   1.00000     0.00000
 Structure written by MMmdl.
 34 35  0  0  0  0  0  0  0  0  3 V2000
  151.5181  141.3167  158.4980 O   0  0  0  0  0  0  0  0  0  0  0  0
  150.8032  141.7618  157.6012 C   0  0  0  0  0  0  0  0  0  0  0  0
  149.8963  140.7959  156.8181 C   0  0  0  0  0  0  0  0  0  0  0  0
  150.5823  139.6190  156.2526 N   0  0  0  0  0  0  0  0  0  0  0  0
  151.1148  138.6896  157.1679 C   0  0  0  0  0  0  0  0  0  0  0  0
  151.7558  137.5746  156.7658 C   0  0  0  0  0  0  0  0  0  0  0  0
  152.2886  136.6273  157.7202 N   0  3  0  0  0  0  0  0  0  0  0  0
  152.0676  136.8067  158.9134 O   0  0  0  0  0  0  0  0  0  0  0  0
  152.9452  135.6748  157.3104 O   0  5  0  0  0  0  0  0  0  0  0  0
  151.8893  137.3514  155.3391 C   0  0  0  0  0  0  0  0  0  0  0  0
  151.3784  138.2342  154.4583 C   0  0  0  0  0  0  0  0  0  0  0  0
  150.6751  139.4434  154.8985 C   0  0  0  0  0  0  0  0  0  0  0  0
  150.1927  140.2456  154.0993 O   0  0  0  0  0  0  0  0  0  0  0  0
  150.7813  143.0627  157.2710 N   0  0  0  0  0  0  0  0  0  0  0  0
  151.5954  144.0948  157.8937 C   0  0  0  0  0  0  0  0  0  0  0  0
  151.4069  144.0654  159.4053 C   0  0  0  0  0  0  0  0  0  0  0  0
  151.8031  145.2877  160.2486 C   0  0  0  0  0  0  0  0  0  0  0  0
  152.2343  144.3238  161.3573 C   0  0  0  0  0  0  0  0  0  0  0  0
  152.3704  143.2468  160.2772 C   0  0  0  0  0  0  0  0  0  0  0  0
  149.0816  140.4810  157.4723 H   0  0  0  0  0  0  0  0  0  0  0  0
  149.4102  141.3631  156.0230 H   0  0  0  0  0  0  0  0  0  0  0  0
  150.9572  138.9439  158.2064 H   0  0  0  0  0  0  0  0  0  0  0  0
  152.3995  136.4753  154.9668 H   0  0  0  0  0  0  0  0  0  0  0  0
  151.4888  138.0483  153.4000 H   0  0  0  0  0  0  0  0  0  0  0  0
  150.1681  143.3550  156.5244 H   0  0  0  0  0  0  0  0  0  0  0  0
  152.6430  143.9332  157.6364 H   0  0  0  0  0  0  0  0  0  0  0  0
  151.3143  145.0692  157.4910 H   0  0  0  0  0  0  0  0  0  0  0  0
  150.3828  143.7833  159.6611 H   0  0  0  0  0  0  0  0  0  0  0  0
  152.6411  145.8428  159.8233 H   0  0  0  0  0  0  0  0  0  0  0  0
  150.9760  145.9484  160.5105 H   0  0  0  0  0  0  0  0  0  0  0  0
  153.1659  144.5894  161.8580 H   0  0  0  0  0  0  0  0  0  0  0  0
  151.4348  144.1120  162.0691 H   0  0  0  0  0  0  0  0  0  0  0  0
  152.0016  142.2616  160.5645 H   0  0  0  0  0  0  0  0  0  0  0  0
  153.3782  143.1932  159.8617 H   0  0  0  0  0  0  0  0  0  0  0  0
  1  2  2  0  0  0  0
  2  3  1  0  0  0  0
  2 14  1  0  0  0  0
  3  4  1  0  0  0  0
  3 20  1  0  0  0  0
  3 21  1  0  0  0  0
  4 12  1  0  0  0  0
  4  5  1  0  0  0  0
  5  6  2  0  0  0  0
  5 22  1  0  0  0  0
  6  7  1  0  0  0  0
  6 10  1  0  0  0  0
  7  8  2  0  0  0  0
  7  9  1  0  0  0  0
 10 11  2  0  0  0  0
 10 23  1  0  0  0  0
 11 12  1  0  0  0  0
 11 24  1  0  0  0  0
 12 13  2  0  0  0  0
 14 15  1  0  0  0  0
 14 25  1  0  0  0  0
 15 16  1  0  0  0  0
 15 26  1  0  0  0  0
 15 27  1  0  0  0  0
 16 19  1  0  0  0  0
 16 17  1  0  0  0  0
 16 28  1  0  0  0  0
 17 18  1  0  0  0  0
 17 29  1  0  0  0  0
 17 30  1  0  0  0  0
 18 19  1  0  0  0  0
 18 31  1  0  0  0  0
 18 32  1  0  0  0  0
 19 33  1  0  0  0  0
 19 34  1  0  0  0  0
M  CHG  1   7   1
M  CHG  1   9  -1
M  END
> <s_m_source_file>
AV-unprocessed.smi

> <i_m_source_file_index>
1526

> <i_lp_mmshare_version>
43012

> <i_f3d_flags>
0

> <s_epik_input>
W0NIMl0xW0NIMl1bQ0gyXVtDSF0xW0NIMl1bTkhdQyg9TylbQ0gyXW4yW2NIXWMoW04rXSg9TylbTy1dKVtjSF1bY0hdYzI9Tw==

> <s_epik_cmdline>
J2VwaWtfcHl0aG9uJywgJy1waCcsICc3LjAnLCAnLXRuJywgJzgnLCAnLW1hJywgJzIwMCcsICctbWV0YWxfYmluZGluZycsICctaW1hZScsICc8aW5maWxlLm1hZT4nLCAnLW9tYWUnLCAnPG91dGZpbGUubWFlPic=

> <r_lp_tautomer_probability>
1

> <r_epik_Ionization_Penalty>
1.93777e-08

> <r_epik_Ionization_Penalty_Charging>
7.59562e-11

> <r_epik_Ionization_Penalty_Neutral>
1.93017e-08

> <r_epik_State_Penalty>
-0

> <r_epik_Charging_Adjusted_Penalty>
7.59562e-11

> <i_epik_Tot_Q>
0

> <i_epik_Tot_abs_Q>
2

> <r_epik_Metal_State_Penalty>
-0

> <b_epik_Metal_Only>
0

> <s_lp_Force_Field>
OPLS_2005

> <r_lp_Energy>
24.467

> <b_lp_Chiralities_Consistent>
1

> <s_lp_Variant>
AV-unprocessed.smi:1526-1

> <Gold.Version>
5.8.1

> <Gold.Id.Protein>
6NUR|6NUR_protein|mol2

> <Gold.PLP.Fitness>
46.5882

> <Gold.PLP.PLP>
-36.2618

> <Gold.PLP.part.hbond>
-3.9468

> <Gold.PLP.part.metal>
0.0000

> <Gold.PLP.part.buried>
-4.9965

> <Gold.PLP.part.nonpolar>
-29.9542

> <Gold.PLP.part.repulsive>
0.9815

> <Gold.PLP.ligand.clash>
0.0000

> <Gold.PLP.ligand.torsion>
0.4150

> <Gold.PLP.Chemscore.Hbond>
3.6877

> <Gold.PLP.Chemscore.CHOScore>
0.0000

> <Gold.PLP.Chemscore.Metal>
0.0000

> <Gold.Chemscore.Hbonds>
donor molecule, donor type, donor heavy atom, donor atom, acceptor molecule, acceptor atom, score
      L1  H    14    25       P1  8028  0.93
      P1  H  6896  6908       L1     8  0.88
      P1  H  7989  7998       L1    13  0.88
      P1  H 10752 10764       L1     9  0.89

> <Gold.PLP.Chemscore.Internal.Correction>
0.0934

> <Gold.Rescore>
     Score         DG    S(hbond)    S(metal)    S(lipo)     H(rot)  DE(clash)    DE(int)     intcor
     16.54     -19.71       2.58        0.00      87.86       1.82       0.32       2.85       ----

> <Gold.Chemscore.Fitness>
16.5387

> <Gold.Chemscore.DG>
-19.7069

> <Gold.Chemscore.ZeroCoef>
-5.4800

> <Gold.Chemscore.Hbond>
2.5761

> <Gold.Chemscore.Metal>
0.0000

> <Gold.Chemscore.Lipo>
87.8574

> <Gold.Chemscore.Internal_Hbond>
0.0000

> <Gold.Chemscore.DEClash>
0.3154

> <Gold.Chemscore.DEInternal>
2.8527

> <Gold.Chemscore.Rot>
1.8190

> <Gold.Chemscore.Internal.Correction>
   9.000000E+99

> <Gold.Chemscore.Hbonds>
donor molecule, donor type, donor heavy atom, donor atom, acceptor molecule, acceptor atom, score
      L1  H    14    25       P1  8028  0.84
      P1  H  6896  6908       L1     8  0.77
      P1  H  7989  7998       L1    13  0.19
      P1  H 10752 10764       L1     9  0.85

> <Gold.Chemscore.Hbond.Weighted>
-8.6042

> <Gold.Chemscore.Metal.Weighted>
-0.0000

> <Gold.Chemscore.Lipo.Weighted>
-10.2793

> <Gold.Chemscore.Internal_Hbond.Weighted>
0.0000

> <Gold.Chemscore.DEClash.Weighted>
0.3154

> <Gold.Chemscore.DEInternal.Weighted>
2.8527

> <Gold.Chemscore.Rot.Weighted>
4.6567

> <Gold.Chemscore.Internal.Correction.Weighted>
   9.000000E+99

> <Gold.Protein.RotatedTorsions>
[ 6907 6896 6895 6894 ] final -114.02 input  -60.11 | X-H torsion
[ 7974 7965 7964 7962 ] final -122.98 input  175.53 | X-H torsion
[ 8008 7997 7996 7995 ] final  -73.86 input   59.86 | X-H torsion
[ 10167 10162 10161 10158 ] final -142.47 input  -65.29 | X-H torsion
[ 10718 10713 10712 10709 ] final  -60.22 input   66.30 | X-H torsion
[ 10763 10752 10751 10750 ] final    1.61 input  -60.55 | X-H torsion
[ 11005 11000 10999 10996 ] final   63.04 input  -57.11 | X-H torsion

> <Gold.Protein.ActiveResidues>
 VAL166  LYS551  ARG553  GLY616  TRP617  ASP618  TYR619  PRO620  LYS621  CYS622 
 ASP623  PHE694  ASN695  SER759  ASP760  ASP761  ALA762  ILE779  LEU786  VAL792 
 PHE793  MET794  SER795  GLU796  ALA797  LYS798  CYS799  TRP800  GLU811  SER814 

> <Gold.Protein.RotatedAtoms>
  150.7871  133.8862  159.3299 H   0  0  0  0  0  0  0  0  0  0  0  0  # atno 6907 bound_to 6896
  151.6709  135.0974  160.0207 H   0  0  0  0  0  0  0  0  0  0  0  0  # atno 6908 bound_to 6896
  152.3937  133.6677  159.6294 H   0  0  0  0  0  0  0  0  0  0  0  0  # atno 6909 bound_to 6896
  145.0236  140.8009  143.4366 H   0  0  0  0  0  0  0  0  0  0  0  0  # atno 7974 bound_to 7965
  154.5282  140.0771  156.8298 H   0  0  0  0  0  0  0  0  0  0  0  0  # atno 8008 bound_to 7997
  155.3430  140.3408  155.4221 H   0  0  0  0  0  0  0  0  0  0  0  0  # atno 8009 bound_to 7997
  156.1754  140.1634  156.8358 H   0  0  0  0  0  0  0  0  0  0  0  0  # atno 8010 bound_to 7997
  139.8086  143.7734  152.2662 H   0  0  0  0  0  0  0  0  0  0  0  0  # atno 10167 bound_to 10162
  156.1006  130.4187  150.0824 H   0  0  0  0  0  0  0  0  0  0  0  0  # atno 10718 bound_to 10713
  153.3059  135.6959  153.7160 H   0  0  0  0  0  0  0  0  0  0  0  0  # atno 10763 bound_to 10752
  153.6056  135.3454  155.2961 H   0  0  0  0  0  0  0  0  0  0  0  0  # atno 10764 bound_to 10752
  154.8563  135.4351  154.2184 H   0  0  0  0  0  0  0  0  0  0  0  0  # atno 10765 bound_to 10752
  140.0051  134.6382  155.9868 H   0  0  0  0  0  0  0  0  0  0  0  0  # atno 11005 bound_to 11000
  145.1863  139.2325  143.5266 LP  0  0  0  0  0  0  0  0  0  0  0  0  # atno 17320 bound_to 7965
  146.3489  140.1648  142.8590 LP  0  0  0  0  0  0  0  0  0  0  0  0  # atno 17321 bound_to 7965
  139.7876  144.7422  151.0000 LP  0  0  0  0  0  0  0  0  0  0  0  0  # atno 17342 bound_to 10162
  140.7818  143.4476  151.0460 LP  0  0  0  0  0  0  0  0  0  0  0  0  # atno 17343 bound_to 10162
  156.8812  130.9557  151.3599 LP  0  0  0  0  0  0  0  0  0  0  0  0  # atno 17370 bound_to 10713
  157.6175  130.8629  149.9053 LP  0  0  0  0  0  0  0  0  0  0  0  0  # atno 17371 bound_to 10713
  141.1671  133.6537  156.4518 LP  0  0  0  0  0  0  0  0  0  0  0  0  # atno 17394 bound_to 11000
  140.4656  134.6801  157.5105 LP  0  0  0  0  0  0  0  0  0  0  0  0  # atno 17395 bound_to 11000

$$$$
