AV-unprocessed.smi:1663|AV-procd|sdf|6666|dock1
  -GOLD-   22720 7373D 1   1.00000     0.00000
 Structure written by MMmdl.
 39 40  0  0  0  0  0  0  0  0  2 V2000
  144.9451  138.8884  155.1561 C   0  0  0  0  0  0  0  0  0  0  0  0
  145.8064  139.7823  154.3525 N   0  3  2  0  0  0  0  0  0  0  0  0
  146.9697  139.0703  153.7680 C   0  0  0  0  0  0  0  0  0  0  0  0
  147.7776  139.9965  152.8412 C   0  0  0  0  0  0  0  0  0  0  0  0
  148.2306  141.2856  153.5533 C   0  0  2  0  0  0  0  0  0  0  0  0
  149.3946  141.0303  154.5414 C   0  0  0  0  0  0  0  0  0  0  0  0
  149.4760  142.0417  155.5912 N   0  0  0  0  0  0  0  0  0  0  0  0
  150.2116  141.9329  156.7073 C   0  0  0  0  0  0  0  0  0  0  0  0
  150.9134  140.9536  156.9609 O   0  0  0  0  0  0  0  0  0  0  0  0
  150.0788  143.0196  157.4883 N   0  0  0  0  0  0  0  0  0  0  0  0
  150.6991  143.2814  158.7393 C   0  0  0  0  0  0  0  0  0  0  0  0
  151.8746  142.5384  158.9926 C   0  0  0  0  0  0  0  0  0  0  0  0
  152.5633  142.7241  160.2069 C   0  0  0  0  0  0  0  0  0  0  0  0
  152.0593  143.6501  161.1375 C   0  0  0  0  0  0  0  0  0  0  0  0
  150.8840  144.3496  160.8068 C   0  0  0  0  0  0  0  0  0  0  0  0
  150.2218  144.1723  159.6441 N   0  0  0  0  0  0  0  0  0  0  0  0
  147.0017  141.9631  154.1958 C   0  0  0  0  0  0  0  0  0  0  0  0
  146.2131  140.9985  155.0993 C   0  0  0  0  0  0  0  0  0  0  0  0
  145.4849  138.4964  156.0192 H   0  0  0  0  0  0  0  0  0  0  0  0
  144.5997  138.0455  154.5567 H   0  0  0  0  0  0  0  0  0  0  0  0
  144.0649  139.4222  155.5157 H   0  0  0  0  0  0  0  0  0  0  0  0
  147.6028  138.6808  154.5664 H   0  0  0  0  0  0  0  0  0  0  0  0
  146.6178  138.2088  153.1989 H   0  0  0  0  0  0  0  0  0  0  0  0
  148.6398  139.4641  152.4378 H   0  0  0  0  0  0  0  0  0  0  0  0
  147.1598  140.2617  151.9819 H   0  0  0  0  0  0  0  0  0  0  0  0
  148.6089  141.9579  152.7820 H   0  0  0  0  0  0  0  0  0  0  0  0
  149.2873  140.0599  155.0248 H   0  0  0  0  0  0  0  0  0  0  0  0
  150.3435  140.9942  154.0035 H   0  0  0  0  0  0  0  0  0  0  0  0
  148.9253  142.8781  155.4633 H   0  0  0  0  0  0  0  0  0  0  0  0
  149.4661  143.7459  157.1488 H   0  0  0  0  0  0  0  0  0  0  0  0
  152.2486  141.8310  158.2667 H   0  0  0  0  0  0  0  0  0  0  0  0
  153.4626  142.1650  160.4196 H   0  0  0  0  0  0  0  0  0  0  0  0
  152.5596  143.8206  162.0793 H   0  0  0  0  0  0  0  0  0  0  0  0
  150.4635  145.0700  161.4928 H   0  0  0  0  0  0  0  0  0  0  0  0
  147.2945  142.8498  154.7583 H   0  0  0  0  0  0  0  0  0  0  0  0
  146.3415  142.3205  153.4044 H   0  0  0  0  0  0  0  0  0  0  0  0
  145.3244  141.5049  155.4782 H   0  0  0  0  0  0  0  0  0  0  0  0
  146.8077  140.7165  155.9693 H   0  0  0  0  0  0  0  0  0  0  0  0
  145.2432  140.0978  153.5755 H   0  0  0  0  0  0  0  0  0  0  0  0
  1  2  1  0  0  0  0
  1 19  1  0  0  0  0
  1 20  1  0  0  0  0
  1 21  1  0  0  0  0
  2 18  1  0  0  0  0
  2  3  1  0  0  0  0
  2 39  1  0  0  0  0
  3  4  1  0  0  0  0
  3 22  1  0  0  0  0
  3 23  1  0  0  0  0
  4  5  1  0  0  0  0
  4 24  1  0  0  0  0
  4 25  1  0  0  0  0
  5  6  1  0  0  0  0
  5 17  1  0  0  0  0
  5 26  1  0  0  0  0
  6  7  1  0  0  0  0
  6 27  1  0  0  0  0
  6 28  1  0  0  0  0
  7  8  1  0  0  0  0
  7 29  1  0  0  0  0
  8  9  2  0  0  0  0
  8 10  1  0  0  0  0
 10 11  1  0  0  0  0
 10 30  1  0  0  0  0
 11 16  1  0  0  0  0
 11 12  2  0  0  0  0
 12 13  1  0  0  0  0
 12 31  1  0  0  0  0
 13 14  2  0  0  0  0
 13 32  1  0  0  0  0
 14 15  1  0  0  0  0
 14 33  1  0  0  0  0
 15 16  2  0  0  0  0
 15 34  1  0  0  0  0
 17 18  1  0  0  0  0
 17 35  1  0  0  0  0
 17 36  1  0  0  0  0
 18 37  1  0  0  0  0
 18 38  1  0  0  0  0
M  CHG  1   2   1
M  END
> <s_m_source_file>
AV-unprocessed.smi

> <i_m_source_file_index>
1663

> <i_lp_mmshare_version>
43012

> <i_f3d_flags>
0

> <s_epik_input>
W0NIM11OMVtDSDJdW0NIMl1bQ0hdKFtDSDJdW0NIMl0xKVtDSDJdW05IXUMoPU8pW05IXWMyW2NIXVtjSF1bY0hdW2NIXW4y

> <s_epik_cmdline>
J2VwaWtfcHl0aG9uJywgJy1waCcsICc3LjAnLCAnLXRuJywgJzgnLCAnLW1hJywgJzIwMCcsICctbWV0YWxfYmluZGluZycsICctaW1hZScsICc8aW5maWxlLm1hZT4nLCAnLW9tYWUnLCAnPG91dGZpbGUubWFlPic=

> <r_epik_Ionization_Penalty>
0.00110639

> <r_epik_Ionization_Penalty_Charging>
0.00106265

> <r_epik_Ionization_Penalty_Neutral>
4.37361e-05

> <r_epik_State_Penalty>
0.000695551

> <r_epik_Charging_Adjusted_Penalty>
0.0017582

> <i_epik_Tot_Q>
1

> <i_epik_Tot_abs_Q>
1

> <r_epik_Metal_State_Penalty>
-0

> <b_epik_Metal_Only>
0

> <s_lp_Force_Field>
OPLS_2005

> <r_lp_Energy>
20.4416

> <b_lp_Chiralities_Consistent>
1

> <s_lp_Variant>
AV-unprocessed.smi:1663-2

> <Gold.Version>
5.8.1

> <Gold.Id.Protein>
6NUR|6NUR_protein|mol2

> <Gold.PLP.Fitness>
47.0676

> <Gold.PLP.PLP>
-36.0009

> <Gold.PLP.part.hbond>
-3.0000

> <Gold.PLP.part.metal>
0.0000

> <Gold.PLP.part.buried>
-5.2231

> <Gold.PLP.part.nonpolar>
-28.3232

> <Gold.PLP.part.repulsive>
0.3137

> <Gold.PLP.ligand.clash>
0.0000

> <Gold.PLP.ligand.torsion>
0.4717

> <Gold.PLP.Chemscore.Hbond>
4.0000

> <Gold.PLP.Chemscore.CHOScore>
0.0000

> <Gold.PLP.Chemscore.Metal>
0.0000

> <Gold.Chemscore.Hbonds>
donor molecule, donor type, donor heavy atom, donor atom, acceptor molecule, acceptor atom, score
      L1  H     2    39       P1 10175  2.00
      L1  H     7    29       P1  8028  0.93
      L1  H    10    30       P1  8028  0.94

> <Gold.PLP.Chemscore.Internal.Correction>
0.0100

> <Gold.Rescore>
     Score         DG    S(hbond)    S(metal)    S(lipo)     H(rot)  DE(clash)    DE(int)     intcor
     19.55     -21.21       2.92        0.00      79.11       1.28       0.03       1.64       ----

> <Gold.Chemscore.Fitness>
19.5465

> <Gold.Chemscore.DG>
-21.2100

> <Gold.Chemscore.ZeroCoef>
-5.4800

> <Gold.Chemscore.Hbond>
2.9171

> <Gold.Chemscore.Metal>
0.0000

> <Gold.Chemscore.Lipo>
79.1120

> <Gold.Chemscore.Internal_Hbond>
0.0000

> <Gold.Chemscore.DEClash>
0.0280

> <Gold.Chemscore.DEInternal>
1.6355

> <Gold.Chemscore.Rot>
1.2770

> <Gold.Chemscore.Internal.Correction>
   9.000000E+99

> <Gold.Chemscore.Hbonds>
donor molecule, donor type, donor heavy atom, donor atom, acceptor molecule, acceptor atom, score
      L1  H     2    39       P1 10175  0.98
      L1  H     7    29       P1  8028  0.90
      L1  H    10    30       P1  8028  0.68

> <Gold.Chemscore.Hbond.Weighted>
-9.7430

> <Gold.Chemscore.Metal.Weighted>
-0.0000

> <Gold.Chemscore.Lipo.Weighted>
-9.2561

> <Gold.Chemscore.Internal_Hbond.Weighted>
0.0000

> <Gold.Chemscore.DEClash.Weighted>
0.0280

> <Gold.Chemscore.DEInternal.Weighted>
1.6355

> <Gold.Chemscore.Rot.Weighted>
3.2691

> <Gold.Chemscore.Internal.Correction.Weighted>
   9.000000E+99

> <Gold.Protein.RotatedTorsions>
[ 6907 6896 6895 6894 ] final  102.45 input  -60.11 | X-H torsion
[ 7974 7965 7964 7962 ] final   22.32 input  175.53 | X-H torsion
[ 8008 7997 7996 7995 ] final -120.75 input   59.86 | X-H torsion
[ 10167 10162 10161 10158 ] final -178.40 input  -65.29 | X-H torsion
[ 10718 10713 10712 10709 ] final   69.58 input   66.30 | X-H torsion
[ 10763 10752 10751 10750 ] final  -30.97 input  -60.55 | X-H torsion
[ 11005 11000 10999 10996 ] final   17.93 input  -57.11 | X-H torsion

> <Gold.Protein.ActiveResidues>
 VAL166  LYS551  ARG553  GLY616  TRP617  ASP618  TYR619  PRO620  LYS621  CYS622 
 ASP623  PHE694  ASN695  SER759  ASP760  ASP761  ALA762  ILE779  LEU786  VAL792 
 PHE793  MET794  SER795  GLU796  ALA797  LYS798  CYS799  TRP800  GLU811  SER814 

> <Gold.Protein.RotatedAtoms>
  152.5323  133.9973  159.7878 H   0  0  0  0  0  0  0  0  0  0  0  0  # atno 6907 bound_to 6896
  151.0198  133.5879  159.2680 H   0  0  0  0  0  0  0  0  0  0  0  0  # atno 6908 bound_to 6896
  151.2923  135.0752  159.9262 H   0  0  0  0  0  0  0  0  0  0  0  0  # atno 6909 bound_to 6896
  146.2034  139.7901  142.8744 H   0  0  0  0  0  0  0  0  0  0  0  0  # atno 7974 bound_to 7965
  155.1369  140.0401  157.2789 H   0  0  0  0  0  0  0  0  0  0  0  0  # atno 8008 bound_to 7997
  154.6501  140.2567  155.7197 H   0  0  0  0  0  0  0  0  0  0  0  0  # atno 8009 bound_to 7997
  156.2573  140.2838  156.0932 H   0  0  0  0  0  0  0  0  0  0  0  0  # atno 8010 bound_to 7997
  139.5434  144.2300  152.0941 H   0  0  0  0  0  0  0  0  0  0  0  0  # atno 10167 bound_to 10162
  157.6354  130.9433  150.0533 H   0  0  0  0  0  0  0  0  0  0  0  0  # atno 10718 bound_to 10713
  153.7898  135.6898  153.4873 H   0  0  0  0  0  0  0  0  0  0  0  0  # atno 10763 bound_to 10752
  153.1757  135.4525  154.9960 H   0  0  0  0  0  0  0  0  0  0  0  0  # atno 10764 bound_to 10752
  154.8049  135.3353  154.7394 H   0  0  0  0  0  0  0  0  0  0  0  0  # atno 10765 bound_to 10752
  140.4304  134.1425  155.7680 H   0  0  0  0  0  0  0  0  0  0  0  0  # atno 11005 bound_to 11000
  145.3406  141.0287  143.3394 LP  0  0  0  0  0  0  0  0  0  0  0  0  # atno 17320 bound_to 7965
  144.8734  139.5005  143.6757 LP  0  0  0  0  0  0  0  0  0  0  0  0  # atno 17321 bound_to 7965
  140.1783  144.4869  150.6542 LP  0  0  0  0  0  0  0  0  0  0  0  0  # atno 17342 bound_to 10162
  140.6673  143.2272  151.5711 LP  0  0  0  0  0  0  0  0  0  0  0  0  # atno 17343 bound_to 10162
  156.1588  130.3643  149.9329 LP  0  0  0  0  0  0  0  0  0  0  0  0  # atno 17370 bound_to 10713
  156.7332  130.9051  151.3627 LP  0  0  0  0  0  0  0  0  0  0  0  0  # atno 17371 bound_to 10713
  141.1747  133.8537  157.1458 LP  0  0  0  0  0  0  0  0  0  0  0  0  # atno 17394 bound_to 11000
  140.0138  134.9976  157.0450 LP  0  0  0  0  0  0  0  0  0  0  0  0  # atno 17395 bound_to 11000

$$$$
