AV-unprocessed.smi:2125|AV-procd|sdf|8674|dock3
  -GOLD-   2272011423D 1   1.00000     0.00000
 Structure written by MMmdl.
 32 33  0  0  0  0  0  0  0  0  1 V2000
  150.6222  141.8524  156.9244 C   0  0  0  0  0  0  0  0  0  0  0  0
  150.3601  140.8601  155.9030 N   0  0  0  0  0  0  0  0  0  0  0  0
  151.3577  139.9035  155.5942 C   0  0  0  0  0  0  0  0  0  0  0  0
  152.4503  139.8745  156.1611 O   0  0  0  0  0  0  0  0  0  0  0  0
  150.9821  138.9575  154.5502 C   0  0  0  0  0  0  0  0  0  0  0  0
  149.7712  139.0244  153.9546 C   0  0  0  0  0  0  0  0  0  0  0  0
  148.8146  139.9698  154.2765 N   0  0  0  0  0  0  0  0  0  0  0  0
  147.5285  139.9749  153.5673 C   0  0  0  0  0  0  0  0  0  0  0  0
  146.8151  138.6162  153.6012 C   0  0  0  0  0  0  0  0  0  0  0  0
  147.2946  137.6672  154.2234 O   0  0  0  0  0  0  0  0  0  0  0  0
  145.6509  138.5473  152.9388 N   0  0  0  0  0  0  0  0  0  0  0  0
  144.8035  137.3647  152.8603 C   0  0  0  0  0  0  0  0  0  0  0  0
  145.1715  136.3872  151.7599 C   0  0  0  0  0  0  0  0  0  0  0  0
  144.3571  135.1366  151.5183 C   0  0  0  0  0  0  0  0  0  0  0  0
  145.7441  135.0319  152.1035 C   0  0  0  0  0  0  0  0  0  0  0  0
  149.0972  140.9260  155.2750 C   0  0  0  0  0  0  0  0  0  0  0  0
  148.2648  141.7842  155.5799 O   0  0  0  0  0  0  0  0  0  0  0  0
  151.6131  141.7252  157.3586 H   0  0  0  0  0  0  0  0  0  0  0  0
  149.8618  141.7288  157.6978 H   0  0  0  0  0  0  0  0  0  0  0  0
  150.5506  142.8319  156.4484 H   0  0  0  0  0  0  0  0  0  0  0  0
  151.6835  138.1933  154.2490 H   0  0  0  0  0  0  0  0  0  0  0  0
  149.5425  138.3024  153.1841 H   0  0  0  0  0  0  0  0  0  0  0  0
  146.8645  140.7179  154.0108 H   0  0  0  0  0  0  0  0  0  0  0  0
  147.6721  140.2902  152.5321 H   0  0  0  0  0  0  0  0  0  0  0  0
  145.3283  139.3738  152.4565 H   0  0  0  0  0  0  0  0  0  0  0  0
  144.8786  136.8434  153.8148 H   0  0  0  0  0  0  0  0  0  0  0  0
  143.7579  137.6604  152.7565 H   0  0  0  0  0  0  0  0  0  0  0  0
  145.6001  136.8617  150.8791 H   0  0  0  0  0  0  0  0  0  0  0  0
  143.5163  134.9420  152.1812 H   0  0  0  0  0  0  0  0  0  0  0  0
  144.2193  134.8203  150.4864 H   0  0  0  0  0  0  0  0  0  0  0  0
  146.5323  134.6424  151.4623 H   0  0  0  0  0  0  0  0  0  0  0  0
  145.8250  134.7667  153.1560 H   0  0  0  0  0  0  0  0  0  0  0  0
  1  2  1  0  0  0  0
  1 18  1  0  0  0  0
  1 19  1  0  0  0  0
  1 20  1  0  0  0  0
  2 16  1  0  0  0  0
  2  3  1  0  0  0  0
  3  4  2  0  0  0  0
  3  5  1  0  0  0  0
  5  6  2  0  0  0  0
  5 21  1  0  0  0  0
  6  7  1  0  0  0  0
  6 22  1  0  0  0  0
  7  8  1  0  0  0  0
  7 16  1  0  0  0  0
  8  9  1  0  0  0  0
  8 23  1  0  0  0  0
  8 24  1  0  0  0  0
  9 10  2  0  0  0  0
  9 11  1  0  0  0  0
 11 12  1  0  0  0  0
 11 25  1  0  0  0  0
 12 13  1  0  0  0  0
 12 26  1  0  0  0  0
 12 27  1  0  0  0  0
 13 15  1  0  0  0  0
 13 14  1  0  0  0  0
 13 28  1  0  0  0  0
 14 15  1  0  0  0  0
 14 29  1  0  0  0  0
 14 30  1  0  0  0  0
 15 31  1  0  0  0  0
 15 32  1  0  0  0  0
 16 17  2  0  0  0  0
M  END
> <s_m_source_file>
AV-unprocessed.smi

> <i_m_source_file_index>
2125

> <i_lp_mmshare_version>
43012

> <i_f3d_flags>
0

> <s_epik_input>
W0NIM11uMWMoPU8pW2NIXVtjSF1uKGMxPU8pW0NIMl1DKD1PKVtOSF1bQ0gyXVtDSF0yW0NIMl1bQ0gyXTI=

> <s_epik_cmdline>
J2VwaWtfcHl0aG9uJywgJy1waCcsICc3LjAnLCAnLXRuJywgJzgnLCAnLW1hJywgJzIwMCcsICctbWV0YWxfYmluZGluZycsICctaW1hZScsICc8aW5maWxlLm1hZT4nLCAnLW9tYWUnLCAnPG91dGZpbGUubWFlPic=

> <r_lp_tautomer_probability>
1

> <r_epik_Ionization_Penalty>
3.09839e-08

> <r_epik_Ionization_Penalty_Charging>
1.16822e-08

> <r_epik_Ionization_Penalty_Neutral>
1.93017e-08

> <r_epik_State_Penalty>
-0

> <r_epik_Charging_Adjusted_Penalty>
1.16822e-08

> <i_epik_Tot_Q>
0

> <i_epik_Tot_abs_Q>
0

> <r_epik_Metal_State_Penalty>
-0

> <b_epik_Metal_Only>
0

> <s_lp_Force_Field>
OPLS_2005

> <r_lp_Energy>
19.7621

> <b_lp_Chiralities_Consistent>
1

> <s_lp_Variant>
AV-unprocessed.smi:2125-1

> <Gold.Version>
5.8.1

> <Gold.Id.Protein>
6NUR|6NUR_protein|mol2

> <Gold.PLP.Fitness>
37.4684

> <Gold.PLP.PLP>
-28.8473

> <Gold.PLP.part.hbond>
-2.0000

> <Gold.PLP.part.metal>
0.0000

> <Gold.PLP.part.buried>
-0.2931

> <Gold.PLP.part.nonpolar>
-26.6545

> <Gold.PLP.part.repulsive>
0.6097

> <Gold.PLP.ligand.clash>
0.0000

> <Gold.PLP.ligand.torsion>
0.5823

> <Gold.PLP.Chemscore.Hbond>
1.8000

> <Gold.PLP.Chemscore.CHOScore>
1.2787

> <Gold.PLP.Chemscore.Metal>
0.0000

> <Gold.Chemscore.Hbonds>
donor molecule, donor type, donor heavy atom, donor atom, acceptor molecule, acceptor atom, score
      L1  H    11    25       P1 10175  0.72
      P1  H  7997  8009       L1     4  1.00
      L1  C     6    22       P1  7948  1.00
      L1  C     6    22       P1  7957  0.23

> <Gold.PLP.Chemscore.Internal.Correction>
0.5496

> <Gold.Rescore>
     Score         DG    S(hbond)    S(metal)    S(lipo)     H(rot)  DE(clash)    DE(int)     intcor
     10.26     -12.87       1.95        0.00      47.10       1.81       0.67       1.94       ----

> <Gold.Chemscore.Fitness>
10.2609

> <Gold.Chemscore.DG>
-12.8721

> <Gold.Chemscore.ZeroCoef>
-5.4800

> <Gold.Chemscore.Hbond>
1.9515

> <Gold.Chemscore.Metal>
0.0000

> <Gold.Chemscore.Lipo>
47.1008

> <Gold.Chemscore.Internal_Hbond>
0.0000

> <Gold.Chemscore.DEClash>
0.6697

> <Gold.Chemscore.DEInternal>
1.9415

> <Gold.Chemscore.Rot>
1.8112

> <Gold.Chemscore.Internal.Correction>
   9.000000E+99

> <Gold.Chemscore.Hbonds>
donor molecule, donor type, donor heavy atom, donor atom, acceptor molecule, acceptor atom, score
      L1  H    11    25       P1 10175  0.70
      P1  H  7997  8009       L1     4  1.00

> <Gold.Chemscore.Hbond.Weighted>
-6.5180

> <Gold.Chemscore.Metal.Weighted>
-0.0000

> <Gold.Chemscore.Lipo.Weighted>
-5.5108

> <Gold.Chemscore.Internal_Hbond.Weighted>
0.0000

> <Gold.Chemscore.DEClash.Weighted>
0.6697

> <Gold.Chemscore.DEInternal.Weighted>
1.9415

> <Gold.Chemscore.Rot.Weighted>
4.6367

> <Gold.Chemscore.Internal.Correction.Weighted>
   9.000000E+99

> <Gold.Protein.RotatedTorsions>
[ 6907 6896 6895 6894 ] final    2.21 input  -60.11 | X-H torsion
[ 7974 7965 7964 7962 ] final  -94.22 input  175.53 | X-H torsion
[ 8008 7997 7996 7995 ] final -157.28 input   59.86 | X-H torsion
[ 10167 10162 10161 10158 ] final  -88.95 input  -65.29 | X-H torsion
[ 10718 10713 10712 10709 ] final  -34.52 input   66.30 | X-H torsion
[ 10763 10752 10751 10750 ] final  -51.74 input  -60.55 | X-H torsion
[ 11005 11000 10999 10996 ] final  124.82 input  -57.11 | X-H torsion

> <Gold.Protein.ActiveResidues>
 VAL166  LYS551  ARG553  GLY616  TRP617  ASP618  TYR619  PRO620  LYS621  CYS622 
 ASP623  PHE694  ASN695  SER759  ASP760  ASP761  ALA762  ILE779  LEU786  VAL792 
 PHE793  MET794  SER795  GLU796  ALA797  LYS798  CYS799  TRP800  GLU811  SER814 

> <Gold.Protein.RotatedAtoms>
  151.6052  135.1044  160.0068 H   0  0  0  0  0  0  0  0  0  0  0  0  # atno 6907 bound_to 6896
  152.4237  133.7155  159.6514 H   0  0  0  0  0  0  0  0  0  0  0  0  # atno 6908 bound_to 6896
  150.8125  133.8324  159.3198 H   0  0  0  0  0  0  0  0  0  0  0  0  # atno 6909 bound_to 6896
  145.3761  140.9512  143.2420 H   0  0  0  0  0  0  0  0  0  0  0  0  # atno 7974 bound_to 7965
  155.7300  140.0801  157.2293 H   0  0  0  0  0  0  0  0  0  0  0  0  # atno 8008 bound_to 7997
  154.4034  140.1597  156.2552 H   0  0  0  0  0  0  0  0  0  0  0  0  # atno 8009 bound_to 7997
  155.9118  140.3403  155.6107 H   0  0  0  0  0  0  0  0  0  0  0  0  # atno 8010 bound_to 7997
  140.3697  143.2801  151.9516 H   0  0  0  0  0  0  0  0  0  0  0  0  # atno 10167 bound_to 10162
  156.3496  130.4306  149.7716 H   0  0  0  0  0  0  0  0  0  0  0  0  # atno 10718 bound_to 10713
  154.1314  135.6519  153.4923 H   0  0  0  0  0  0  0  0  0  0  0  0  # atno 10763 bound_to 10752
  153.0194  135.5294  154.6997 H   0  0  0  0  0  0  0  0  0  0  0  0  # atno 10764 bound_to 10752
  154.6233  135.2967  155.0271 H   0  0  0  0  0  0  0  0  0  0  0  0  # atno 10765 bound_to 10752
  139.9377  134.9638  156.8466 H   0  0  0  0  0  0  0  0  0  0  0  0  # atno 11005 bound_to 11000
  144.8541  139.5276  143.6843 LP  0  0  0  0  0  0  0  0  0  0  0  0  # atno 17320 bound_to 7965
  146.2863  139.7014  142.9193 LP  0  0  0  0  0  0  0  0  0  0  0  0  # atno 17321 bound_to 7965
  139.4805  144.5918  151.7758 LP  0  0  0  0  0  0  0  0  0  0  0  0  # atno 17342 bound_to 10162
  140.5046  144.1118  150.5979 LP  0  0  0  0  0  0  0  0  0  0  0  0  # atno 17343 bound_to 10162
  156.4921  130.8090  151.3099 LP  0  0  0  0  0  0  0  0  0  0  0  0  # atno 17370 bound_to 10713
  157.7459  130.9972  150.2807 LP  0  0  0  0  0  0  0  0  0  0  0  0  # atno 17371 bound_to 10713
  140.6033  134.0151  155.7546 LP  0  0  0  0  0  0  0  0  0  0  0  0  # atno 17394 bound_to 11000
  141.0998  133.9787  157.3099 LP  0  0  0  0  0  0  0  0  0  0  0  0  # atno 17395 bound_to 11000

$$$$
