AV-unprocessed.smi:265|AV-procd|sdf|2023|dock2
  -GOLD-   2262021223D 1   1.00000     0.00000
 Structure written by MMmdl.
 52 56  0  0  0  0  0  0  0  0  1 V2000
  148.2496  138.3951  154.8408 C   0  0  0  0  0  0  0  0  0  0  0  0
  148.8561  137.0154  155.1418 C   0  0  2  0  0  0  0  0  0  0  0  0
  148.5324  136.6894  156.4914 O   0  0  0  0  0  0  0  0  0  0  0  0
  149.5694  135.8908  157.0328 C   0  0  0  0  0  0  0  0  0  0  0  0
  150.8170  136.5483  156.4635 C   0  0  0  0  0  0  0  0  0  0  0  0
  150.4031  136.8927  155.0356 C   0  0  1  0  0  0  0  0  0  0  0  0
  150.6900  135.7697  154.2183 O   0  0  0  0  0  0  0  0  0  0  0  0
  151.1530  138.1171  154.4469 C   0  0  0  0  0  0  0  0  0  0  0  0
  151.1688  139.2726  155.3324 N   0  0  0  0  0  0  0  0  0  0  0  0
  150.5012  140.4617  155.1417 C   0  0  0  0  0  0  0  0  0  0  0  0
  150.6732  141.3538  156.0785 N   0  0  0  0  0  0  0  0  0  0  0  0
  151.5111  140.7279  156.9941 C   0  0  0  0  0  0  0  0  0  0  0  0
  152.0936  141.1198  158.2327 C   0  0  0  0  0  0  0  0  0  0  0  0
  151.8692  142.3342  158.7955 N   0  0  0  0  0  0  0  0  0  0  0  0
  152.5224  142.6214  160.0723 C   0  0  0  0  0  0  0  0  0  0  0  0
  152.4983  144.1289  160.3675 C   0  0  0  0  0  0  0  0  0  0  0  0
  151.0736  144.7015  160.2949 C   0  0  2  0  0  0  0  0  0  0  0  0
  150.2877  144.1981  161.3672 O   0  0  0  0  0  0  0  0  0  0  0  0
  149.0051  144.8165  161.4813 C   0  0  0  0  0  0  0  0  0  0  0  0
  148.2551  144.8602  160.1371 C   0  0  0  0  0  0  0  0  0  0  0  0
  147.0465  145.0811  160.1167 O   0  0  0  0  0  0  0  0  0  0  0  0
  148.9660  144.6943  159.0101 N   0  0  0  0  0  0  0  0  0  0  0  0
  150.3730  144.3089  158.9754 C   0  0  2  0  0  0  0  0  0  0  0  0
  150.4855  142.7950  158.7005 C   0  0  0  0  0  0  0  0  0  0  0  0
  152.8991  140.2188  158.8566 N   0  0  0  0  0  0  0  0  0  0  0  0
  153.1125  139.0155  158.3164 C   0  0  0  0  0  0  0  0  0  0  0  0
  152.6313  138.5157  157.1767 N   0  0  0  0  0  0  0  0  0  0  0  0
  151.8321  139.4175  156.5388 C   0  0  0  0  0  0  0  0  0  0  0  0
  151.1319  145.7884  160.3823 H   0  0  0  0  0  0  0  0  0  0  0  0
  150.8480  144.8469  158.1539 H   0  0  0  0  0  0  0  0  0  0  0  0
  148.4418  138.7007  153.8123 H   0  0  0  0  0  0  0  0  0  0  0  0
  148.6479  139.1616  155.5059 H   0  0  0  0  0  0  0  0  0  0  0  0
  147.1681  138.3758  154.9772 H   0  0  0  0  0  0  0  0  0  0  0  0
  148.3706  136.2789  154.4987 H   0  0  0  0  0  0  0  0  0  0  0  0
  149.5509  135.8908  158.1228 H   0  0  0  0  0  0  0  0  0  0  0  0
  149.4682  134.8625  156.6820 H   0  0  0  0  0  0  0  0  0  0  0  0
  151.0130  137.4608  157.0278 H   0  0  0  0  0  0  0  0  0  0  0  0
  151.7057  135.9189  156.5290 H   0  0  0  0  0  0  0  0  0  0  0  0
  151.0443  136.0799  153.3990 H   0  0  0  0  0  0  0  0  0  0  0  0
  152.1874  137.8537  154.2231 H   0  0  0  0  0  0  0  0  0  0  0  0
  150.7017  138.4254  153.5033 H   0  0  0  0  0  0  0  0  0  0  0  0
  149.8835  140.6502  154.2753 H   0  0  0  0  0  0  0  0  0  0  0  0
  152.0130  142.0776  160.8692 H   0  0  0  0  0  0  0  0  0  0  0  0
  153.5560  142.2734  160.0538 H   0  0  0  0  0  0  0  0  0  0  0  0
  152.9344  144.3271  161.3470 H   0  0  0  0  0  0  0  0  0  0  0  0
  153.1274  144.6436  159.6403 H   0  0  0  0  0  0  0  0  0  0  0  0
  148.4128  144.2728  162.2178 H   0  0  0  0  0  0  0  0  0  0  0  0
  149.1254  145.8354  161.8514 H   0  0  0  0  0  0  0  0  0  0  0  0
  148.4823  144.7611  158.1263 H   0  0  0  0  0  0  0  0  0  0  0  0
  150.0599  142.5742  157.7219 H   0  0  0  0  0  0  0  0  0  0  0  0
  149.8915  142.2382  159.4272 H   0  0  0  0  0  0  0  0  0  0  0  0
  153.7615  138.3592  158.8774 H   0  0  0  0  0  0  0  0  0  0  0  0
  1  2  1  0  0  0  0
  1 31  1  0  0  0  0
  1 32  1  0  0  0  0
  1 33  1  0  0  0  0
  2  6  1  0  0  0  0
  2  3  1  0  0  0  0
  2 34  1  0  0  0  0
  3  4  1  0  0  0  0
  4  5  1  0  0  0  0
  4 35  1  0  0  0  0
  4 36  1  0  0  0  0
  5  6  1  0  0  0  0
  5 37  1  0  0  0  0
  5 38  1  0  0  0  0
  6  7  1  0  0  0  0
  6  8  1  0  0  0  0
  7 39  1  0  0  0  0
  8  9  1  0  0  0  0
  8 40  1  0  0  0  0
  8 41  1  0  0  0  0
  9 28  1  0  0  0  0
  9 10  1  0  0  0  0
 10 11  2  0  0  0  0
 10 42  1  0  0  0  0
 11 12  1  0  0  0  0
 12 28  2  0  0  0  0
 12 13  1  0  0  0  0
 13 14  1  0  0  0  0
 13 25  2  0  0  0  0
 14 24  1  0  0  0  0
 14 15  1  0  0  0  0
 15 16  1  0  0  0  0
 15 43  1  0  0  0  0
 15 44  1  0  0  0  0
 16 17  1  0  0  0  0
 16 45  1  0  0  0  0
 16 46  1  0  0  0  0
 17 29  1  0  0  0  0
 17 23  1  0  0  0  0
 17 18  1  0  0  0  0
 18 19  1  0  0  0  0
 19 20  1  0  0  0  0
 19 47  1  0  0  0  0
 19 48  1  0  0  0  0
 20 21  2  0  0  0  0
 20 22  1  0  0  0  0
 22 23  1  0  0  0  0
 22 49  1  0  0  0  0
 23 30  1  0  0  0  0
 23 24  1  0  0  0  0
 24 50  1  0  0  0  0
 24 51  1  0  0  0  0
 25 26  1  0  0  0  0
 26 27  2  0  0  0  0
 26 52  1  0  0  0  0
 27 28  1  0  0  0  0
M  END
> <s_m_source_file>
AV-unprocessed.smi

> <i_m_source_file_index>
265

> <i_lp_mmshare_version>
43012

> <i_f3d_flags>
0

> <s_epik_input>
W0NIMl0xW0NIMl1PW0NAQEhdKFtDSDNdKVtDQEBdMShbT0hdKVtDSDJdbihbY0hdbjIpYyhjMjMpbltjSF1uYzNOKFtDSDJdW0NIMl00KVtDSDJdW0NAQEhdKFtDQEhdNDUpW05IXUMoPU8pW0NIMl1PNQ==

> <s_epik_cmdline>
J2VwaWtfcHl0aG9uJywgJy1waCcsICc3LjAnLCAnLXRuJywgJzgnLCAnLW1hJywgJzIwMCcsICctbWV0YWxfYmluZGluZycsICctaW1hZScsICc8aW5maWxlLm1hZT4nLCAnLW9tYWUnLCAnPG91dGZpbGUubWFlPic=

> <r_lp_tautomer_probability>
1

> <r_epik_Ionization_Penalty>
0.00221504

> <r_epik_Ionization_Penalty_Charging>
0

> <r_epik_Ionization_Penalty_Neutral>
0.00221504

> <r_epik_State_Penalty>
-0

> <r_epik_Charging_Adjusted_Penalty>
0

> <i_epik_Tot_Q>
0

> <i_epik_Tot_abs_Q>
0

> <r_epik_Metal_State_Penalty>
-0

> <b_epik_Metal_Only>
0

> <s_lp_Force_Field>
OPLS_2005

> <r_lp_Energy>
44.3548

> <b_lp_Chiralities_Consistent>
1

> <s_lp_Variant>
AV-unprocessed.smi:265-9

> <Gold.Version>
5.8.1

> <Gold.Id.Protein>
6NUR|6NUR_protein|mol2

> <Gold.PLP.Fitness>
40.6982

> <Gold.PLP.PLP>
-36.1445

> <Gold.PLP.part.hbond>
-4.1909

> <Gold.PLP.part.metal>
0.0000

> <Gold.PLP.part.buried>
-1.9215

> <Gold.PLP.part.nonpolar>
-32.2771

> <Gold.PLP.part.repulsive>
2.2645

> <Gold.PLP.ligand.clash>
0.0000

> <Gold.PLP.ligand.torsion>
0.4336

> <Gold.PLP.Chemscore.Hbond>
1.6880

> <Gold.PLP.Chemscore.CHOScore>
0.0000

> <Gold.PLP.Chemscore.Metal>
0.0000

> <Gold.Chemscore.Hbonds>
donor molecule, donor type, donor heavy atom, donor atom, acceptor molecule, acceptor atom, score
      L1  H     7    39       P1  7949  0.95
      L1  H    22    49       P1  8029  0.70

> <Gold.PLP.Chemscore.Internal.Correction>
0.3570

> <Gold.Rescore>
     Score         DG    S(hbond)    S(metal)    S(lipo)     H(rot)  DE(clash)    DE(int)     intcor
      6.16     -12.49       0.80        0.00      86.14       2.25       2.59       3.74       ----

> <Gold.Chemscore.Fitness>
6.1600

> <Gold.Chemscore.DG>
-12.4883

> <Gold.Chemscore.ZeroCoef>
-5.4800

> <Gold.Chemscore.Hbond>
0.8017

> <Gold.Chemscore.Metal>
0.0000

> <Gold.Chemscore.Lipo>
86.1428

> <Gold.Chemscore.Internal_Hbond>
0.0000

> <Gold.Chemscore.DEClash>
2.5876

> <Gold.Chemscore.DEInternal>
3.7406

> <Gold.Chemscore.Rot>
2.2453

> <Gold.Chemscore.Internal.Correction>
   9.000000E+99

> <Gold.Chemscore.Hbonds>
donor molecule, donor type, donor heavy atom, donor atom, acceptor molecule, acceptor atom, score
      L1  H     7    39       P1  7949  0.20
      L1  H    22    49       P1  8029  0.37

> <Gold.Chemscore.Hbond.Weighted>
-2.6775

> <Gold.Chemscore.Metal.Weighted>
-0.0000

> <Gold.Chemscore.Lipo.Weighted>
-10.0787

> <Gold.Chemscore.Internal_Hbond.Weighted>
0.0000

> <Gold.Chemscore.DEClash.Weighted>
2.5876

> <Gold.Chemscore.DEInternal.Weighted>
3.7406

> <Gold.Chemscore.Rot.Weighted>
5.7479

> <Gold.Chemscore.Internal.Correction.Weighted>
   9.000000E+99

> <Gold.Protein.RotatedTorsions>
[ 6907 6896 6895 6894 ] final  115.60 input  -60.11 | X-H torsion
[ 7974 7965 7964 7962 ] final  130.56 input  175.53 | X-H torsion
[ 8008 7997 7996 7995 ] final  -50.41 input   59.86 | X-H torsion
[ 10167 10162 10161 10158 ] final -138.90 input  -65.29 | X-H torsion
[ 10718 10713 10712 10709 ] final -128.67 input   66.30 | X-H torsion
[ 10763 10752 10751 10750 ] final   63.38 input  -60.55 | X-H torsion
[ 11005 11000 10999 10996 ] final  -74.43 input  -57.11 | X-H torsion

> <Gold.Protein.ActiveResidues>
 VAL166  LYS551  ARG553  GLY616  TRP617  ASP618  TYR619  PRO620  LYS621  CYS622 
 ASP623  PHE694  ASN695  SER759  ASP760  ASP761  ALA762  ILE779  LEU786  VAL792 
 PHE793  MET794  SER795  GLU796  ALA797  LYS798  CYS799  TRP800  GLU811  SER814 

> <Gold.Protein.RotatedAtoms>
  152.4731  133.8076  159.6985 H   0  0  0  0  0  0  0  0  0  0  0  0  # atno 6907 bound_to 6896
  150.8732  133.7466  159.2961 H   0  0  0  0  0  0  0  0  0  0  0  0  # atno 6908 bound_to 6896
  151.4995  135.1064  159.9877 H   0  0  0  0  0  0  0  0  0  0  0  0  # atno 6909 bound_to 6896
  145.0167  139.4170  143.5218 H   0  0  0  0  0  0  0  0  0  0  0  0  # atno 7974 bound_to 7965
  154.4061  140.1273  156.4661 H   0  0  0  0  0  0  0  0  0  0  0  0  # atno 8008 bound_to 7997
  155.7225  140.3492  155.5003 H   0  0  0  0  0  0  0  0  0  0  0  0  # atno 8009 bound_to 7997
  155.9201  140.1051  157.1203 H   0  0  0  0  0  0  0  0  0  0  0  0  # atno 8010 bound_to 7997
  139.8433  143.7294  152.2662 H   0  0  0  0  0  0  0  0  0  0  0  0  # atno 10167 bound_to 10162
  156.1973  130.6834  151.0497 H   0  0  0  0  0  0  0  0  0  0  0  0  # atno 10718 bound_to 10713
  153.0016  135.5431  154.6343 H   0  0  0  0  0  0  0  0  0  0  0  0  # atno 10763 bound_to 10752
  154.5613  135.2834  155.0918 H   0  0  0  0  0  0  0  0  0  0  0  0  # atno 10764 bound_to 10752
  154.2120  135.6466  153.5171 H   0  0  0  0  0  0  0  0  0  0  0  0  # atno 10765 bound_to 10752
  141.1635  133.6911  156.7363 H   0  0  0  0  0  0  0  0  0  0  0  0  # atno 11005 bound_to 11000
  146.3479  139.9641  142.8714 LP  0  0  0  0  0  0  0  0  0  0  0  0  # atno 17320 bound_to 7965
  145.1951  140.9829  143.4188 LP  0  0  0  0  0  0  0  0  0  0  0  0  # atno 17321 bound_to 7965
  139.7538  144.7527  151.0467 LP  0  0  0  0  0  0  0  0  0  0  0  0  # atno 17342 bound_to 10162
  140.7796  143.4830  150.9993 LP  0  0  0  0  0  0  0  0  0  0  0  0  # atno 17343 bound_to 10162
  157.6965  131.0792  150.6953 LP  0  0  0  0  0  0  0  0  0  0  0  0  # atno 17370 bound_to 10713
  156.7010  130.4623  149.5573 LP  0  0  0  0  0  0  0  0  0  0  0  0  # atno 17371 bound_to 10713
  140.2708  134.8394  157.3845 LP  0  0  0  0  0  0  0  0  0  0  0  0  # atno 17394 bound_to 11000
  140.1523  134.4833  155.7952 LP  0  0  0  0  0  0  0  0  0  0  0  0  # atno 17395 bound_to 11000

$$$$
