AV-unprocessed.smi:740|AV-procd|sdf|3549|dock6
  -GOLD-   22720 0543D 1   1.00000     0.00000
 Structure written by MMmdl.
 44 46  0  0  0  0  0  0  0  0  1 V2000
  153.5296  143.0871  163.4712 C   0  0  0  0  0  0  0  0  0  0  0  0
  153.0360  142.8962  162.0478 C   0  0  0  0  0  0  0  0  0  0  0  0
  152.1901  143.8738  161.4773 C   0  0  0  0  0  0  0  0  0  0  0  0
  151.7128  143.7367  160.1557 C   0  0  0  0  0  0  0  0  0  0  0  0
  150.8889  144.5610  159.4085 N   0  0  0  0  0  0  0  0  0  0  0  0
  150.8170  143.8962  158.2591 C   0  0  0  0  0  0  0  0  0  0  0  0
  151.4965  142.7367  158.1734 N   0  0  0  0  0  0  0  0  0  0  0  0
  151.5685  141.8535  157.0234 C   0  0  0  0  0  0  0  0  0  0  0  0
  150.2142  141.7202  156.3009 C   0  0  1  0  0  0  0  0  0  0  0  0
  150.4024  140.9561  155.1250 O   0  0  0  0  0  0  0  0  0  0  0  0
  149.1625  141.0194  157.1858 C   0  0  0  0  0  0  0  0  0  0  0  0
  147.8047  141.5056  156.9138 N   0  0  0  0  0  0  0  0  0  0  0  0
  147.2483  141.5353  155.6951 C   0  0  0  0  0  0  0  0  0  0  0  0
  147.7790  141.1793  154.6433 O   0  0  0  0  0  0  0  0  0  0  0  0
  145.8251  142.0718  155.7571 C   0  0  0  0  0  0  0  0  0  0  0  0
  145.6243  142.3680  157.2509 C   0  0  2  0  0  0  0  0  0  0  0  0
  145.2863  143.8378  157.5505 C   0  0  0  0  0  0  0  0  0  0  0  0
  146.9656  141.9581  157.8562 C   0  0  0  0  0  0  0  0  0  0  0  0
  147.2057  142.0457  159.0605 O   0  0  0  0  0  0  0  0  0  0  0  0
  152.1081  142.5854  159.4134 C   0  0  0  0  0  0  0  0  0  0  0  0
  152.9477  141.6046  159.9707 C   0  0  0  0  0  0  0  0  0  0  0  0
  153.4156  141.7573  161.2929 C   0  0  0  0  0  0  0  0  0  0  0  0
  154.3234  140.6941  161.8850 C   0  0  0  0  0  0  0  0  0  0  0  0
  153.1164  143.9917  163.9182 H   0  0  0  0  0  0  0  0  0  0  0  0
  154.6164  143.1711  163.4891 H   0  0  0  0  0  0  0  0  0  0  0  0
  153.2365  142.2427  164.0954 H   0  0  0  0  0  0  0  0  0  0  0  0
  151.9011  144.7420  162.0511 H   0  0  0  0  0  0  0  0  0  0  0  0
  150.2394  144.2747  157.4284 H   0  0  0  0  0  0  0  0  0  0  0  0
  152.3358  142.2233  156.3419 H   0  0  0  0  0  0  0  0  0  0  0  0
  151.9067  140.8762  157.3706 H   0  0  0  0  0  0  0  0  0  0  0  0
  149.8669  142.7150  156.0186 H   0  0  0  0  0  0  0  0  0  0  0  0
  149.6363  140.4201  154.9879 H   0  0  0  0  0  0  0  0  0  0  0  0
  149.2276  139.9351  157.0779 H   0  0  0  0  0  0  0  0  0  0  0  0
  149.3845  141.2136  158.2365 H   0  0  0  0  0  0  0  0  0  0  0  0
  145.7321  142.9639  155.1367 H   0  0  0  0  0  0  0  0  0  0  0  0
  145.1207  141.3219  155.3954 H   0  0  0  0  0  0  0  0  0  0  0  0
  144.8462  141.7209  157.6578 H   0  0  0  0  0  0  0  0  0  0  0  0
  145.1496  144.0016  158.6200 H   0  0  0  0  0  0  0  0  0  0  0  0
  144.3615  144.1318  157.0536 H   0  0  0  0  0  0  0  0  0  0  0  0
  146.0744  144.5094  157.2075 H   0  0  0  0  0  0  0  0  0  0  0  0
  153.2318  140.7441  159.3836 H   0  0  0  0  0  0  0  0  0  0  0  0
  154.5242  139.8974  161.1680 H   0  0  0  0  0  0  0  0  0  0  0  0
  153.8612  140.2442  162.7639 H   0  0  0  0  0  0  0  0  0  0  0  0
  155.2791  141.1279  162.1794 H   0  0  0  0  0  0  0  0  0  0  0  0
  1  2  1  0  0  0  0
  1 24  1  0  0  0  0
  1 25  1  0  0  0  0
  1 26  1  0  0  0  0
  2 22  1  0  0  0  0
  2  3  2  0  0  0  0
  3  4  1  0  0  0  0
  3 27  1  0  0  0  0
  4 20  2  0  0  0  0
  4  5  1  0  0  0  0
  5  6  2  0  0  0  0
  6  7  1  0  0  0  0
  6 28  1  0  0  0  0
  7  8  1  0  0  0  0
  7 20  1  0  0  0  0
  8  9  1  0  0  0  0
  8 29  1  0  0  0  0
  8 30  1  0  0  0  0
  9 10  1  0  0  0  0
  9 11  1  0  0  0  0
  9 31  1  0  0  0  0
 10 32  1  0  0  0  0
 11 12  1  0  0  0  0
 11 33  1  0  0  0  0
 11 34  1  0  0  0  0
 12 18  1  0  0  0  0
 12 13  1  0  0  0  0
 13 14  2  0  0  0  0
 13 15  1  0  0  0  0
 15 16  1  0  0  0  0
 15 35  1  0  0  0  0
 15 36  1  0  0  0  0
 16 17  1  0  0  0  0
 16 18  1  0  0  0  0
 16 37  1  0  0  0  0
 17 38  1  0  0  0  0
 17 39  1  0  0  0  0
 17 40  1  0  0  0  0
 18 19  2  0  0  0  0
 20 21  1  0  0  0  0
 21 22  2  0  0  0  0
 21 41  1  0  0  0  0
 22 23  1  0  0  0  0
 23 42  1  0  0  0  0
 23 43  1  0  0  0  0
 23 44  1  0  0  0  0
M  END
> <s_m_source_file>
AV-unprocessed.smi

> <i_m_source_file_index>
740

> <i_lp_mmshare_version>
43012

> <i_f3d_flags>
0

> <s_epik_input>
W0NIM11jKFtjSF0xKWMoW0NIM10pW2NIXWMoYzEyKW4oW2NIXW4yKVtDSDJdW0NASF0oW09IXSlbQ0gyXU4zQyg9TylbQ0gyXVtDQEBIXShbQ0gzXSlDMz1P

> <s_epik_cmdline>
J2VwaWtfcHl0aG9uJywgJy1waCcsICc3LjAnLCAnLXRuJywgJzgnLCAnLW1hJywgJzIwMCcsICctbWV0YWxfYmluZGluZycsICctaW1hZScsICc8aW5maWxlLm1hZT4nLCAnLW9tYWUnLCAnPG91dGZpbGUubWFlPic=

> <r_lp_tautomer_probability>
1

> <r_epik_Ionization_Penalty>
0.104021

> <r_epik_Ionization_Penalty_Charging>
0

> <r_epik_Ionization_Penalty_Neutral>
0.104021

> <r_epik_State_Penalty>
0.0939354

> <r_epik_Charging_Adjusted_Penalty>
0.0939354

> <i_epik_Tot_Q>
0

> <i_epik_Tot_abs_Q>
0

> <r_epik_Metal_State_Penalty>
0.000101783

> <b_epik_Metal_Only>
0

> <s_lp_Force_Field>
OPLS_2005

> <r_lp_Energy>
16.4677

> <b_lp_Chiralities_Consistent>
1

> <s_lp_Variant>
AV-unprocessed.smi:740-4

> <Gold.Version>
5.8.1

> <Gold.Id.Protein>
6NUR|6NUR_protein|mol2

> <Gold.PLP.Fitness>
51.7072

> <Gold.PLP.PLP>
-46.2166

> <Gold.PLP.part.hbond>
-2.1086

> <Gold.PLP.part.metal>
0.0000

> <Gold.PLP.part.buried>
-7.0427

> <Gold.PLP.part.nonpolar>
-37.1299

> <Gold.PLP.part.repulsive>
0.3011

> <Gold.PLP.ligand.clash>
0.0000

> <Gold.PLP.ligand.torsion>
0.7619

> <Gold.PLP.Chemscore.Hbond>
1.3292

> <Gold.PLP.Chemscore.CHOScore>
1.0000

> <Gold.PLP.Chemscore.Metal>
0.0000

> <Gold.Chemscore.Hbonds>
donor molecule, donor type, donor heavy atom, donor atom, acceptor molecule, acceptor atom, score
      P1  H  6934  6946       L1    19  0.58
      P1  H  7989  7998       L1    10  0.75
      L1  C     6    28       P1  8028  1.00

> <Gold.PLP.Chemscore.Internal.Correction>
0.0269

> <Gold.Rescore>
     Score         DG    S(hbond)    S(metal)    S(lipo)     H(rot)  DE(clash)    DE(int)     intcor
     13.95     -16.13       1.21        0.00     107.02       2.31       0.05       2.14       ----

> <Gold.Chemscore.Fitness>
13.9466

> <Gold.Chemscore.DG>
-16.1323

> <Gold.Chemscore.ZeroCoef>
-5.4800

> <Gold.Chemscore.Hbond>
1.2147

> <Gold.Chemscore.Metal>
0.0000

> <Gold.Chemscore.Lipo>
107.0168

> <Gold.Chemscore.Internal_Hbond>
0.0000

> <Gold.Chemscore.DEClash>
0.0504

> <Gold.Chemscore.DEInternal>
2.1354

> <Gold.Chemscore.Rot>
2.3147

> <Gold.Chemscore.Internal.Correction>
   9.000000E+99

> <Gold.Chemscore.Hbonds>
donor molecule, donor type, donor heavy atom, donor atom, acceptor molecule, acceptor atom, score
      P1  H  6934  6946       L1    19  0.54
      P1  H  7989  7998       L1    10  0.54

> <Gold.Chemscore.Hbond.Weighted>
-4.0569

> <Gold.Chemscore.Metal.Weighted>
-0.0000

> <Gold.Chemscore.Lipo.Weighted>
-12.5210

> <Gold.Chemscore.Internal_Hbond.Weighted>
0.0000

> <Gold.Chemscore.DEClash.Weighted>
0.0504

> <Gold.Chemscore.DEInternal.Weighted>
2.1354

> <Gold.Chemscore.Rot.Weighted>
5.9256

> <Gold.Chemscore.Internal.Correction.Weighted>
   9.000000E+99

> <Gold.Protein.RotatedTorsions>
[ 6907 6896 6895 6894 ] final  138.73 input  -60.11 | X-H torsion
[ 7974 7965 7964 7962 ] final -145.09 input  175.53 | X-H torsion
[ 8008 7997 7996 7995 ] final  171.28 input   59.86 | X-H torsion
[ 10167 10162 10161 10158 ] final -151.77 input  -65.29 | X-H torsion
[ 10718 10713 10712 10709 ] final  116.53 input   66.30 | X-H torsion
[ 10763 10752 10751 10750 ] final  122.78 input  -60.55 | X-H torsion
[ 11005 11000 10999 10996 ] final -115.49 input  -57.11 | X-H torsion

> <Gold.Protein.ActiveResidues>
 VAL166  LYS551  ARG553  GLY616  TRP617  ASP618  TYR619  PRO620  LYS621  CYS622 
 ASP623  PHE694  ASN695  SER759  ASP760  ASP761  ALA762  ILE779  LEU786  VAL792 
 PHE793  MET794  SER795  GLU796  ALA797  LYS798  CYS799  TRP800  GLU811  SER814 

> <Gold.Protein.RotatedAtoms>
  152.2632  133.5316  159.5394 H   0  0  0  0  0  0  0  0  0  0  0  0  # atno 6907 bound_to 6896
  150.7132  134.0800  159.3903 H   0  0  0  0  0  0  0  0  0  0  0  0  # atno 6908 bound_to 6896
  151.8717  135.0487  160.0531 H   0  0  0  0  0  0  0  0  0  0  0  0  # atno 6909 bound_to 6896
  144.8251  140.5627  143.5552 H   0  0  0  0  0  0  0  0  0  0  0  0  # atno 7974 bound_to 7965
  156.1286  140.1516  156.9099 H   0  0  0  0  0  0  0  0  0  0  0  0  # atno 8008 bound_to 7997
  154.4891  140.0856  156.7594 H   0  0  0  0  0  0  0  0  0  0  0  0  # atno 8009 bound_to 7997
  155.4297  140.3426  155.4281 H   0  0  0  0  0  0  0  0  0  0  0  0  # atno 8010 bound_to 7997
  139.7239  143.8914  152.2512 H   0  0  0  0  0  0  0  0  0  0  0  0  # atno 10167 bound_to 10162
  157.6154  131.1026  150.7486 H   0  0  0  0  0  0  0  0  0  0  0  0  # atno 10718 bound_to 10713
  153.6352  135.3389  155.3054 H   0  0  0  0  0  0  0  0  0  0  0  0  # atno 10763 bound_to 10752
  154.8571  135.4305  154.2063 H   0  0  0  0  0  0  0  0  0  0  0  0  # atno 10764 bound_to 10752
  153.2968  135.7021  153.7314 H   0  0  0  0  0  0  0  0  0  0  0  0  # atno 10765 bound_to 10752
  141.0484  133.9726  157.2878 H   0  0  0  0  0  0  0  0  0  0  0  0  # atno 11005 bound_to 11000
  145.5017  139.1483  143.3653 LP  0  0  0  0  0  0  0  0  0  0  0  0  # atno 17320 bound_to 7965
  146.2557  140.5157  142.8874 LP  0  0  0  0  0  0  0  0  0  0  0  0  # atno 17321 bound_to 7965
  139.8818  144.7013  150.8869 LP  0  0  0  0  0  0  0  0  0  0  0  0  # atno 17342 bound_to 10162
  140.7759  143.3655  151.1747 LP  0  0  0  0  0  0  0  0  0  0  0  0  # atno 17343 bound_to 10162
  156.7854  130.4873  149.5394 LP  0  0  0  0  0  0  0  0  0  0  0  0  # atno 17370 bound_to 10713
  156.1275  130.6154  151.0284 LP  0  0  0  0  0  0  0  0  0  0  0  0  # atno 17371 bound_to 10713
  139.9330  135.0198  156.8464 LP  0  0  0  0  0  0  0  0  0  0  0  0  # atno 17394 bound_to 11000
  140.6102  134.0089  155.7574 LP  0  0  0  0  0  0  0  0  0  0  0  0  # atno 17395 bound_to 11000

$$$$
