AV-unprocessed.smi:1291|AV-procd|sdf|5392|dock4
  -GOLD-   22720 4543D 1   1.00000     0.00000
 Structure written by MMmdl.
 43 45  0  0  0  0  0  0  0  0  1 V2000
  150.3740  140.1750  153.7205 O   0  0  0  0  0  0  0  0  0  0  0  0
  150.5627  139.4594  154.9249 C   0  0  0  0  0  0  0  0  0  0  0  0
  151.0003  140.3132  156.0816 C   0  0  0  0  0  0  0  0  0  0  0  0
  150.7848  141.6299  156.1378 N   0  0  0  0  0  0  0  0  0  0  0  0
  151.3345  141.9793  157.3550 C   0  0  0  0  0  0  0  0  0  0  0  0
  151.4250  143.2362  157.9950 C   0  0  0  0  0  0  0  0  0  0  0  0
  152.0404  143.3512  159.2588 C   0  0  0  0  0  0  0  0  0  0  0  0
  152.5719  142.2134  159.8998 C   0  0  0  0  0  0  0  0  0  0  0  0
  152.4905  140.9515  159.2801 C   0  0  0  0  0  0  0  0  0  0  0  0
  151.8764  140.8424  158.0178 C   0  0  0  0  0  0  0  0  0  0  0  0
  151.6389  139.7781  157.1526 N   0  0  0  0  0  0  0  0  0  0  0  0
  152.0043  138.3849  157.3774 C   0  0  0  0  0  0  0  0  0  0  0  0
  150.7833  137.4617  157.5714 C   0  0  1  0  0  0  0  0  0  0  0  0
  151.1757  136.1171  157.3742 O   0  0  0  0  0  0  0  0  0  0  0  0
  150.1919  137.5922  158.9841 C   0  0  0  0  0  0  0  0  0  0  0  0
  149.4104  136.4441  159.2704 O   0  0  0  0  0  0  0  0  0  0  0  0
  148.1769  136.7580  159.8984 C   0  0  0  0  0  0  0  0  0  0  0  0
  147.4905  135.5408  160.4957 C   0  0  0  0  0  0  0  0  0  0  0  0
  147.3501  134.3478  159.7515 C   0  0  0  0  0  0  0  0  0  0  0  0
  146.7032  133.2310  160.3152 C   0  0  0  0  0  0  0  0  0  0  0  0
  146.1879  133.3004  161.6234 C   0  0  0  0  0  0  0  0  0  0  0  0
  146.3172  134.4889  162.3666 C   0  0  0  0  0  0  0  0  0  0  0  0
  146.9640  135.6071  161.8046 C   0  0  0  0  0  0  0  0  0  0  0  0
  147.0769  136.7466  162.5287 F   0  0  0  0  0  0  0  0  0  0  0  0
  150.2526  139.5554  153.0178 H   0  0  0  0  0  0  0  0  0  0  0  0
  149.6263  138.9646  155.1831 H   0  0  0  0  0  0  0  0  0  0  0  0
  151.3058  138.6827  154.7472 H   0  0  0  0  0  0  0  0  0  0  0  0
  151.0205  144.1132  157.5119 H   0  0  0  0  0  0  0  0  0  0  0  0
  152.1052  144.3167  159.7383 H   0  0  0  0  0  0  0  0  0  0  0  0
  153.0429  142.3100  160.8671 H   0  0  0  0  0  0  0  0  0  0  0  0
  152.8980  140.0790  159.7684 H   0  0  0  0  0  0  0  0  0  0  0  0
  152.6015  138.0447  156.5303 H   0  0  0  0  0  0  0  0  0  0  0  0
  152.6610  138.3304  158.2460 H   0  0  0  0  0  0  0  0  0  0  0  0
  150.0220  137.7136  156.8329 H   0  0  0  0  0  0  0  0  0  0  0  0
  151.9184  136.1022  156.7904 H   0  0  0  0  0  0  0  0  0  0  0  0
  150.9776  137.7363  159.7281 H   0  0  0  0  0  0  0  0  0  0  0  0
  149.5406  138.4665  159.0299 H   0  0  0  0  0  0  0  0  0  0  0  0
  148.3509  137.4872  160.6914 H   0  0  0  0  0  0  0  0  0  0  0  0
  147.4980  137.2152  159.1770 H   0  0  0  0  0  0  0  0  0  0  0  0
  147.7361  134.2779  158.7452 H   0  0  0  0  0  0  0  0  0  0  0  0
  146.6021  132.3207  159.7428 H   0  0  0  0  0  0  0  0  0  0  0  0
  145.6921  132.4437  162.0554 H   0  0  0  0  0  0  0  0  0  0  0  0
  145.9191  134.5437  163.3691 H   0  0  0  0  0  0  0  0  0  0  0  0
  1  2  1  0  0  0  0
  1 25  1  0  0  0  0
  2  3  1  0  0  0  0
  2 26  1  0  0  0  0
  2 27  1  0  0  0  0
  3 11  1  0  0  0  0
  3  4  2  0  0  0  0
  4  5  1  0  0  0  0
  5 10  2  0  0  0  0
  5  6  1  0  0  0  0
  6  7  2  0  0  0  0
  6 28  1  0  0  0  0
  7  8  1  0  0  0  0
  7 29  1  0  0  0  0
  8  9  2  0  0  0  0
  8 30  1  0  0  0  0
  9 10  1  0  0  0  0
  9 31  1  0  0  0  0
 10 11  1  0  0  0  0
 11 12  1  0  0  0  0
 12 13  1  0  0  0  0
 12 32  1  0  0  0  0
 12 33  1  0  0  0  0
 13 14  1  0  0  0  0
 13 15  1  0  0  0  0
 13 34  1  0  0  0  0
 14 35  1  0  0  0  0
 15 16  1  0  0  0  0
 15 36  1  0  0  0  0
 15 37  1  0  0  0  0
 16 17  1  0  0  0  0
 17 18  1  0  0  0  0
 17 38  1  0  0  0  0
 17 39  1  0  0  0  0
 18 23  1  0  0  0  0
 18 19  2  0  0  0  0
 19 20  1  0  0  0  0
 19 40  1  0  0  0  0
 20 21  2  0  0  0  0
 20 41  1  0  0  0  0
 21 22  1  0  0  0  0
 21 42  1  0  0  0  0
 22 23  2  0  0  0  0
 22 43  1  0  0  0  0
 23 24  1  0  0  0  0
M  END
> <s_m_source_file>
AV-unprocessed.smi

> <i_m_source_file_index>
1291

> <i_lp_mmshare_version>
43012

> <i_f3d_flags>
0

> <s_epik_input>
W2NIXTFbY0hdW2NIXVtjSF1jKGMxMiluKGMobjIpW0NIMl1bT0hdKVtDSDJdW0NASF0oW09IXSlbQ0gyXU9bQ0gyXWMzW2NIXVtjSF1bY0hdW2NIXWMzRg==

> <s_epik_cmdline>
J2VwaWtfcHl0aG9uJywgJy1waCcsICc3LjAnLCAnLXRuJywgJzgnLCAnLW1hJywgJzIwMCcsICctbWV0YWxfYmluZGluZycsICctaW1hZScsICc8aW5maWxlLm1hZT4nLCAnLW9tYWUnLCAnPG91dGZpbGUubWFlPic=

> <r_epik_Ionization_Penalty>
0.0649918

> <r_epik_Ionization_Penalty_Charging>
0

> <r_epik_Ionization_Penalty_Neutral>
0.0649918

> <r_epik_State_Penalty>
0.0565791

> <r_epik_Charging_Adjusted_Penalty>
0.0565791

> <i_epik_Tot_Q>
0

> <i_epik_Tot_abs_Q>
0

> <r_epik_Metal_State_Penalty>
5.93658e-05

> <b_epik_Metal_Only>
0

> <s_lp_Force_Field>
OPLS_2005

> <r_lp_Energy>
17.1818

> <b_lp_Chiralities_Consistent>
1

> <s_lp_Variant>
AV-unprocessed.smi:1291-2

> <Gold.Version>
5.8.1

> <Gold.Id.Protein>
6NUR|6NUR_protein|mol2

> <Gold.PLP.Fitness>
57.1147

> <Gold.PLP.PLP>
-52.2806

> <Gold.PLP.part.hbond>
-3.1975

> <Gold.PLP.part.metal>
0.0000

> <Gold.PLP.part.buried>
-7.1548

> <Gold.PLP.part.nonpolar>
-42.7878

> <Gold.PLP.part.repulsive>
0.0734

> <Gold.PLP.ligand.clash>
0.0000

> <Gold.PLP.ligand.torsion>
1.2153

> <Gold.PLP.Chemscore.Hbond>
2.3551

> <Gold.PLP.Chemscore.CHOScore>
0.0000

> <Gold.PLP.Chemscore.Metal>
0.0000

> <Gold.Chemscore.Hbonds>
donor molecule, donor type, donor heavy atom, donor atom, acceptor molecule, acceptor atom, score
      L1  H     1    25       P1  7957  0.50
      P1  H  6896  6907       L1    16  0.62
      P1  H  7989  7998       L1     1  0.64

> <Gold.PLP.Chemscore.Internal.Correction>
0.1993

> <Gold.Rescore>
     Score         DG    S(hbond)    S(metal)    S(lipo)     H(rot)  DE(clash)    DE(int)     intcor
     17.06     -18.19       2.20        0.00     118.65       3.33       0.10       1.02       ----

> <Gold.Chemscore.Fitness>
17.0646

> <Gold.Chemscore.DG>
-18.1881

> <Gold.Chemscore.ZeroCoef>
-5.4800

> <Gold.Chemscore.Hbond>
2.2019

> <Gold.Chemscore.Metal>
0.0000

> <Gold.Chemscore.Lipo>
118.6546

> <Gold.Chemscore.Internal_Hbond>
0.0000

> <Gold.Chemscore.DEClash>
0.1011

> <Gold.Chemscore.DEInternal>
1.0225

> <Gold.Chemscore.Rot>
3.3316

> <Gold.Chemscore.Internal.Correction>
   9.000000E+99

> <Gold.Chemscore.Hbonds>
donor molecule, donor type, donor heavy atom, donor atom, acceptor molecule, acceptor atom, score
      L1  H     1    25       P1  7957  0.46
      P1  H  6896  6907       L1    16  0.41
      P1  H  7989  7998       L1     1  0.23

> <Gold.Chemscore.Hbond.Weighted>
-7.3544

> <Gold.Chemscore.Metal.Weighted>
-0.0000

> <Gold.Chemscore.Lipo.Weighted>
-13.8826

> <Gold.Chemscore.Internal_Hbond.Weighted>
0.0000

> <Gold.Chemscore.DEClash.Weighted>
0.1011

> <Gold.Chemscore.DEInternal.Weighted>
1.0225

> <Gold.Chemscore.Rot.Weighted>
8.5288

> <Gold.Chemscore.Internal.Correction.Weighted>
   9.000000E+99

> <Gold.Protein.RotatedTorsions>
[ 6907 6896 6895 6894 ] final  -57.17 input  -60.11 | X-H torsion
[ 7974 7965 7964 7962 ] final  154.59 input  175.53 | X-H torsion
[ 8008 7997 7996 7995 ] final -106.69 input   59.86 | X-H torsion
[ 10167 10162 10161 10158 ] final   65.53 input  -65.29 | X-H torsion
[ 10718 10713 10712 10709 ] final  127.40 input   66.30 | X-H torsion
[ 10763 10752 10751 10750 ] final  -81.78 input  -60.55 | X-H torsion
[ 11005 11000 10999 10996 ] final -156.35 input  -57.11 | X-H torsion

> <Gold.Protein.ActiveResidues>
 VAL166  LYS551  ARG553  GLY616  TRP617  ASP618  TYR619  PRO620  LYS621  CYS622 
 ASP623  PHE694  ASN695  SER759  ASP760  ASP761  ALA762  ILE779  LEU786  VAL792 
 PHE793  MET794  SER795  GLU796  ALA797  LYS798  CYS799  TRP800  GLU811  SER814 

> <Gold.Protein.RotatedAtoms>
  150.8108  134.7261  159.6685 H   0  0  0  0  0  0  0  0  0  0  0  0  # atno 6907 bound_to 6896
  152.4228  134.5921  159.9987 H   0  0  0  0  0  0  0  0  0  0  0  0  # atno 6908 bound_to 6896
  151.6131  133.3308  159.3108 H   0  0  0  0  0  0  0  0  0  0  0  0  # atno 6909 bound_to 6896
  144.8079  139.6954  143.6154 H   0  0  0  0  0  0  0  0  0  0  0  0  # atno 7974 bound_to 7965
  154.9182  140.0408  157.1983 H   0  0  0  0  0  0  0  0  0  0  0  0  # atno 8008 bound_to 7997
  154.8280  140.2894  155.5720 H   0  0  0  0  0  0  0  0  0  0  0  0  # atno 8009 bound_to 7997
  156.2985  140.2506  156.3200 H   0  0  0  0  0  0  0  0  0  0  0  0  # atno 8010 bound_to 7997
  140.1103  144.4824  150.6982 H   0  0  0  0  0  0  0  0  0  0  0  0  # atno 10167 bound_to 10162
  157.5336  131.1098  150.8970 H   0  0  0  0  0  0  0  0  0  0  0  0  # atno 10718 bound_to 10713
  154.5677  135.5614  153.7066 H   0  0  0  0  0  0  0  0  0  0  0  0  # atno 10763 bound_to 10752
  153.0038  135.6289  154.2157 H   0  0  0  0  0  0  0  0  0  0  0  0  # atno 10764 bound_to 10752
  154.2096  135.2874  155.2943 H   0  0  0  0  0  0  0  0  0  0  0  0  # atno 10765 bound_to 10752
  140.6766  134.4190  157.5229 H   0  0  0  0  0  0  0  0  0  0  0  0  # atno 11005 bound_to 11000
  146.2373  139.5931  142.9515 LP  0  0  0  0  0  0  0  0  0  0  0  0  # atno 17320 bound_to 7965
  145.5394  141.0422  143.2339 LP  0  0  0  0  0  0  0  0  0  0  0  0  # atno 17321 bound_to 7965
  140.6929  143.2386  151.5081 LP  0  0  0  0  0  0  0  0  0  0  0  0  # atno 17342 bound_to 10162
  139.5623  144.2127  152.1710 LP  0  0  0  0  0  0  0  0  0  0  0  0  # atno 17343 bound_to 10162
  156.9544  130.5431  149.5283 LP  0  0  0  0  0  0  0  0  0  0  0  0  # atno 17370 bound_to 10713
  156.0441  130.5520  150.8841 LP  0  0  0  0  0  0  0  0  0  0  0  0  # atno 17371 bound_to 10713
  139.8965  134.8659  156.2086 LP  0  0  0  0  0  0  0  0  0  0  0  0  # atno 17394 bound_to 11000
  141.0351  133.6968  156.1498 LP  0  0  0  0  0  0  0  0  0  0  0  0  # atno 17395 bound_to 11000

$$$$
