AV-unprocessed.smi:1961|AV-procd|sdf|7920|dock1
  -GOLD-   2272010 83D 1   1.00000     0.00000
 Structure written by MMmdl.
 35 36  0  0  0  0  0  0  0  0  2 V2000
  152.2729  143.6734  161.4853 C   0  0  0  0  0  0  0  0  0  0  0  0
  151.5209  144.1134  160.2206 C   0  0  0  0  0  0  0  0  0  0  0  0
  150.0725  144.5414  160.4972 C   0  0  0  0  0  0  0  0  0  0  0  0
  151.6082  143.0944  159.1279 C   0  0  0  0  0  0  0  0  0  0  0  0
  150.9444  143.2023  157.9728 N   0  0  0  0  0  0  0  0  0  0  0  0
  151.1908  142.1332  157.1242 N   0  0  0  0  0  0  0  0  0  0  0  0
  152.0443  141.2383  157.6408 C   0  0  0  0  0  0  0  0  0  0  0  0
  152.4133  140.1287  156.9800 N   0  5  0  0  0  0  0  0  0  0  0  0
  151.7340  139.7418  155.8764 C   0  0  0  0  0  0  0  0  0  0  0  0
  152.2167  139.5108  154.7652 O   0  0  0  0  0  0  0  0  0  0  0  0
  150.4146  139.6091  156.0735 N   0  0  0  0  0  0  0  0  0  0  0  0
  149.4394  139.1902  155.0728 C   0  0  0  0  0  0  0  0  0  0  0  0
  148.7648  140.3972  154.4000 C   0  0  2  0  0  0  0  0  0  0  0  0
  148.0763  141.3470  155.3771 C   0  0  0  0  0  0  0  0  0  0  0  0
  147.0177  142.0270  154.5221 C   0  0  0  0  0  0  0  0  0  0  0  0
  146.9199  141.1431  153.2746 C   0  0  0  0  0  0  0  0  0  0  0  0
  147.6838  139.9848  153.5784 O   0  0  0  0  0  0  0  0  0  0  0  0
  152.6010  141.6521  159.2615 S   0  0  0  0  0  0  0  0  0  0  0  0
  153.3185  143.4565  161.2638 H   0  0  0  0  0  0  0  0  0  0  0  0
  151.8305  142.7753  161.9175 H   0  0  0  0  0  0  0  0  0  0  0  0
  152.2508  144.4535  162.2466 H   0  0  0  0  0  0  0  0  0  0  0  0
  152.0365  145.0015  159.8529 H   0  0  0  0  0  0  0  0  0  0  0  0
  149.5997  144.9277  159.5936 H   0  0  0  0  0  0  0  0  0  0  0  0
  150.0319  145.3263  161.2527 H   0  0  0  0  0  0  0  0  0  0  0  0
  149.4721  143.7041  160.8546 H   0  0  0  0  0  0  0  0  0  0  0  0
  150.0624  139.8038  156.9991 H   0  0  0  0  0  0  0  0  0  0  0  0
  149.9505  138.5802  154.3276 H   0  0  0  0  0  0  0  0  0  0  0  0
  148.6895  138.5478  155.5368 H   0  0  0  0  0  0  0  0  0  0  0  0
  149.4821  140.9547  153.7942 H   0  0  0  0  0  0  0  0  0  0  0  0
  147.5924  140.7817  156.1747 H   0  0  0  0  0  0  0  0  0  0  0  0
  148.7698  142.0517  155.8368 H   0  0  0  0  0  0  0  0  0  0  0  0
  146.0669  142.0860  155.0525 H   0  0  0  0  0  0  0  0  0  0  0  0
  147.3148  143.0405  154.2503 H   0  0  0  0  0  0  0  0  0  0  0  0
  145.8917  140.8807  153.0254 H   0  0  0  0  0  0  0  0  0  0  0  0
  147.3617  141.6461  152.4131 H   0  0  0  0  0  0  0  0  0  0  0  0
  1  2  1  0  0  0  0
  1 19  1  0  0  0  0
  1 20  1  0  0  0  0
  1 21  1  0  0  0  0
  2  3  1  0  0  0  0
  2  4  1  0  0  0  0
  2 22  1  0  0  0  0
  3 23  1  0  0  0  0
  3 24  1  0  0  0  0
  3 25  1  0  0  0  0
  4 18  1  0  0  0  0
  4  5  2  0  0  0  0
  5  6  1  0  0  0  0
  6  7  2  0  0  0  0
  7  8  1  0  0  0  0
  7 18  1  0  0  0  0
  8  9  1  0  0  0  0
  9 10  2  0  0  0  0
  9 11  1  0  0  0  0
 11 12  1  0  0  0  0
 11 26  1  0  0  0  0
 12 13  1  0  0  0  0
 12 27  1  0  0  0  0
 12 28  1  0  0  0  0
 13 17  1  0  0  0  0
 13 14  1  0  0  0  0
 13 29  1  0  0  0  0
 14 15  1  0  0  0  0
 14 30  1  0  0  0  0
 14 31  1  0  0  0  0
 15 16  1  0  0  0  0
 15 32  1  0  0  0  0
 15 33  1  0  0  0  0
 16 17  1  0  0  0  0
 16 34  1  0  0  0  0
 16 35  1  0  0  0  0
M  CHG  1   8  -1
M  END
> <s_m_source_file>
AV-unprocessed.smi

> <i_m_source_file_index>
1961

> <i_lp_mmshare_version>
43012

> <i_f3d_flags>
0

> <s_epik_input>
W0NIM11bQ0hdKFtDSDNdKWMxbm5jKHMxKVtOSF1DKD1PKVtOSF1bQ0gyXVtDQEBIXTJbQ0gyXVtDSDJdW0NIMl1PMg==

> <s_epik_cmdline>
J2VwaWtfcHl0aG9uJywgJy1waCcsICc3LjAnLCAnLXRuJywgJzgnLCAnLW1hJywgJzIwMCcsICctbWV0YWxfYmluZGluZycsICctaW1hZScsICc8aW5maWxlLm1hZT4nLCAnLW9tYWUnLCAnPG91dGZpbGUubWFlPic=

> <r_lp_tautomer_probability>
1

> <r_epik_Ionization_Penalty>
4.36179

> <r_epik_Ionization_Penalty_Charging>
4.21437

> <r_epik_Ionization_Penalty_Neutral>
0.147417

> <r_epik_State_Penalty>
4.21389

> <r_epik_Charging_Adjusted_Penalty>
8.42826

> <i_epik_Tot_Q>
-1

> <i_epik_Tot_abs_Q>
1

> <r_epik_Metal_State_Penalty>
0.693772

> <b_epik_Metal_Only>
1

> <s_lp_Force_Field>
OPLS_2005

> <r_lp_Energy>
8.68115

> <b_lp_Chiralities_Consistent>
1

> <s_lp_Variant>
AV-unprocessed.smi:1961-3

> <Gold.Version>
5.8.1

> <Gold.Id.Protein>
6NUR|6NUR_protein|mol2

> <Gold.PLP.Fitness>
39.4762

> <Gold.PLP.PLP>
-32.7766

> <Gold.PLP.part.hbond>
-2.0000

> <Gold.PLP.part.metal>
0.0000

> <Gold.PLP.part.buried>
-6.5743

> <Gold.PLP.part.nonpolar>
-24.7800

> <Gold.PLP.part.repulsive>
1.1587

> <Gold.PLP.ligand.clash>
0.0000

> <Gold.PLP.ligand.torsion>
0.9319

> <Gold.PLP.Chemscore.Hbond>
2.8000

> <Gold.PLP.Chemscore.CHOScore>
0.0000

> <Gold.PLP.Chemscore.Metal>
0.0000

> <Gold.Chemscore.Hbonds>
donor molecule, donor type, donor heavy atom, donor atom, acceptor molecule, acceptor atom, score
      P1  H  7989  7998       L1    10  0.80
      P1  H  7997  8008       L1     8  2.00

> <Gold.PLP.Chemscore.Internal.Correction>
0.1633

> <Gold.Rescore>
     Score         DG    S(hbond)    S(metal)    S(lipo)     H(rot)  DE(clash)    DE(int)     intcor
     14.97     -15.80       1.34        0.00      80.91       1.42       0.06       0.77       ----

> <Gold.Chemscore.Fitness>
14.9741

> <Gold.Chemscore.DG>
-15.7978

> <Gold.Chemscore.ZeroCoef>
-5.4800

> <Gold.Chemscore.Hbond>
1.3427

> <Gold.Chemscore.Metal>
0.0000

> <Gold.Chemscore.Lipo>
80.9100

> <Gold.Chemscore.Internal_Hbond>
0.0000

> <Gold.Chemscore.DEClash>
0.0574

> <Gold.Chemscore.DEInternal>
0.7663

> <Gold.Chemscore.Rot>
1.4193

> <Gold.Chemscore.Internal.Correction>
   9.000000E+99

> <Gold.Chemscore.Hbonds>
donor molecule, donor type, donor heavy atom, donor atom, acceptor molecule, acceptor atom, score
      P1  H  7989  7998       L1    10  0.62
      P1  H  7997  8008       L1     8  0.55

> <Gold.Chemscore.Hbond.Weighted>
-4.4847

> <Gold.Chemscore.Metal.Weighted>
-0.0000

> <Gold.Chemscore.Lipo.Weighted>
-9.4665

> <Gold.Chemscore.Internal_Hbond.Weighted>
0.0000

> <Gold.Chemscore.DEClash.Weighted>
0.0574

> <Gold.Chemscore.DEInternal.Weighted>
0.7663

> <Gold.Chemscore.Rot.Weighted>
3.6333

> <Gold.Chemscore.Internal.Correction.Weighted>
   9.000000E+99

> <Gold.Protein.RotatedTorsions>
[ 6907 6896 6895 6894 ] final  157.59 input  -60.11 | X-H torsion
[ 7974 7965 7964 7962 ] final  121.30 input  175.53 | X-H torsion
[ 8008 7997 7996 7995 ] final  -55.67 input   59.86 | X-H torsion
[ 10167 10162 10161 10158 ] final  130.89 input  -65.29 | X-H torsion
[ 10718 10713 10712 10709 ] final -136.25 input   66.30 | X-H torsion
[ 10763 10752 10751 10750 ] final   43.13 input  -60.55 | X-H torsion
[ 11005 11000 10999 10996 ] final -127.96 input  -57.11 | X-H torsion

> <Gold.Protein.ActiveResidues>
 VAL166  LYS551  ARG553  GLY616  TRP617  ASP618  TYR619  PRO620  LYS621  CYS622 
 ASP623  PHE694  ASN695  SER759  ASP760  ASP761  ALA762  ILE779  LEU786  VAL792 
 PHE793  MET794  SER795  GLU796  ALA797  LYS798  CYS799  TRP800  GLU811  SER814 

> <Gold.Protein.RotatedAtoms>
  152.0128  133.3868  159.4226 H   0  0  0  0  0  0  0  0  0  0  0  0  # atno 6907 bound_to 6896
  150.6898  134.3711  159.5002 H   0  0  0  0  0  0  0  0  0  0  0  0  # atno 6908 bound_to 6896
  152.1474  134.9014  160.0601 H   0  0  0  0  0  0  0  0  0  0  0  0  # atno 6909 bound_to 6896
  145.1209  139.3390  143.4714 H   0  0  0  0  0  0  0  0  0  0  0  0  # atno 7974 bound_to 7965
  154.4203  140.1147  156.5515 H   0  0  0  0  0  0  0  0  0  0  0  0  # atno 8008 bound_to 7997
  155.6405  140.3496  155.4694 H   0  0  0  0  0  0  0  0  0  0  0  0  # atno 8009 bound_to 7997
  155.9874  140.1172  157.0660 H   0  0  0  0  0  0  0  0  0  0  0  0  # atno 8010 bound_to 7997
  139.5409  144.6729  151.4629 H   0  0  0  0  0  0  0  0  0  0  0  0  # atno 10167 bound_to 10162
  156.2750  130.7287  151.1267 H   0  0  0  0  0  0  0  0  0  0  0  0  # atno 10718 bound_to 10713
  152.9867  135.6110  154.3062 H   0  0  0  0  0  0  0  0  0  0  0  0  # atno 10763 bound_to 10752
  154.2780  135.2778  155.2711 H   0  0  0  0  0  0  0  0  0  0  0  0  # atno 10764 bound_to 10752
  154.5063  135.5853  153.6627 H   0  0  0  0  0  0  0  0  0  0  0  0  # atno 10765 bound_to 10752
  140.9556  134.1006  157.4020 H   0  0  0  0  0  0  0  0  0  0  0  0  # atno 11005 bound_to 11000
  146.3521  140.1168  142.8602 LP  0  0  0  0  0  0  0  0  0  0  0  0  # atno 17320 bound_to 7965
  145.0741  140.9176  143.4864 LP  0  0  0  0  0  0  0  0  0  0  0  0  # atno 17321 bound_to 7965
  140.6638  143.8442  150.6918 LP  0  0  0  0  0  0  0  0  0  0  0  0  # atno 17342 bound_to 10162
  140.1845  143.4087  152.1909 LP  0  0  0  0  0  0  0  0  0  0  0  0  # atno 17343 bound_to 10162
  157.7296  131.0623  150.5765 LP  0  0  0  0  0  0  0  0  0  0  0  0  # atno 17370 bound_to 10713
  156.5865  130.4318  149.5955 LP  0  0  0  0  0  0  0  0  0  0  0  0  # atno 17371 bound_to 10713
  139.8861  135.0078  156.6477 LP  0  0  0  0  0  0  0  0  0  0  0  0  # atno 17394 bound_to 11000
  140.7541  133.8872  155.8369 LP  0  0  0  0  0  0  0  0  0  0  0  0  # atno 17395 bound_to 11000

$$$$
