AV-unprocessed.smi:38|AV-procd|sdf|337|dock5
  -GOLD-   2262016173D 1   1.00000     0.00000
 Structure written by MMmdl.
 28 29  0  0  0  0  0  0  0  0  1 V2000
  151.9471  141.0596  158.9645 O   0  0  0  0  0  0  0  0  0  0  0  0
  151.3124  141.0921  157.9120 C   0  0  0  0  0  0  0  0  0  0  0  0
  151.6494  140.2347  156.8613 N   0  0  0  0  0  0  0  0  0  0  0  0
  151.0044  140.1753  155.6247 C   0  0  0  0  0  0  0  0  0  0  0  0
  151.4002  139.3921  154.7624 O   0  0  0  0  0  0  0  0  0  0  0  0
  149.9068  141.0418  155.4229 N   0  0  0  0  0  0  0  0  0  0  0  0
  149.2033  141.0088  154.0807 C   0  0  1  0  0  0  0  0  0  0  0  0
  148.4199  139.7014  153.8902 C   0  0  0  0  0  0  0  0  0  0  0  0
  147.1668  140.1970  153.2020 C   0  0  1  0  0  0  0  0  0  0  0  0
  146.0919  139.2873  153.3256 O   0  0  0  0  0  0  0  0  0  0  0  0
  146.9361  141.5568  153.8719 C   0  0  1  0  0  0  0  0  0  0  0  0
  146.2744  141.4940  155.2669 C   0  0  0  0  0  0  0  0  0  0  0  0
  144.9480  141.0268  155.1469 O   0  0  0  0  0  0  0  0  0  0  0  0
  148.2699  142.0525  154.0043 O   0  0  0  0  0  0  0  0  0  0  0  0
  149.5534  141.9309  156.4327 C   0  0  0  0  0  0  0  0  0  0  0  0
  150.1904  141.9811  157.6267 C   0  0  0  0  0  0  0  0  0  0  0  0
  149.7886  142.8650  158.5559 F   0  0  0  0  0  0  0  0  0  0  0  0
  152.4287  139.6096  157.0071 H   0  0  0  0  0  0  0  0  0  0  0  0
  149.9844  141.1678  153.3348 H   0  0  0  0  0  0  0  0  0  0  0  0
  147.3765  140.3487  152.1421 H   0  0  0  0  0  0  0  0  0  0  0  0
  146.3527  142.2030  153.2145 H   0  0  0  0  0  0  0  0  0  0  0  0
  148.9853  138.9787  153.3012 H   0  0  0  0  0  0  0  0  0  0  0  0
  148.1837  139.2645  154.8621 H   0  0  0  0  0  0  0  0  0  0  0  0
  145.3011  139.7145  153.0328 H   0  0  0  0  0  0  0  0  0  0  0  0
  146.7964  140.7857  155.9101 H   0  0  0  0  0  0  0  0  0  0  0  0
  146.2916  142.4568  155.7767 H   0  0  0  0  0  0  0  0  0  0  0  0
  144.7354  140.9581  154.2284 H   0  0  0  0  0  0  0  0  0  0  0  0
  148.7401  142.6255  156.2877 H   0  0  0  0  0  0  0  0  0  0  0  0
  1  2  2  0  0  0  0
  2 16  1  0  0  0  0
  2  3  1  0  0  0  0
  3 18  1  0  0  0  0
  3  4  1  0  0  0  0
  4  5  2  0  0  0  0
  4  6  1  0  0  0  0
  6  7  1  0  0  0  0
  6 15  1  0  0  0  0
  7 19  1  0  0  0  0
  7 14  1  0  0  0  0
  7  8  1  0  0  0  0
  8  9  1  0  0  0  0
  8 22  1  0  0  0  0
  8 23  1  0  0  0  0
  9 20  1  0  0  0  0
  9 10  1  0  0  0  0
  9 11  1  0  0  0  0
 10 24  1  0  0  0  0
 11 21  1  0  0  0  0
 11 12  1  0  0  0  0
 11 14  1  0  0  0  0
 12 13  1  0  0  0  0
 12 25  1  0  0  0  0
 12 26  1  0  0  0  0
 13 27  1  0  0  0  0
 15 16  2  0  0  0  0
 15 28  1  0  0  0  0
 16 17  1  0  0  0  0
M  END
> <s_m_source_file>
AV-unprocessed.smi

> <i_m_source_file_index>
38

> <i_lp_mmshare_version>
43012

> <i_f3d_flags>
0

> <s_epik_input>
Tz1jMVtuSF1jKD1PKW4oW2NIXWMxRilbQ0BIXTJbQ0gyXVtDQEhdKFtPSF0pW0NASF0oTzIpW0NIMl1bT0hd

> <s_epik_cmdline>
J2VwaWtfcHl0aG9uJywgJy1waCcsICc3LjAnLCAnLXRuJywgJzgnLCAnLW1hJywgJzIwMCcsICctbWV0YWxfYmluZGluZycsICctaW1hZScsICc8aW5maWxlLm1hZT4nLCAnLW9tYWUnLCAnPG91dGZpbGUubWFlPic=

> <r_lp_tautomer_probability>
0.999537

> <r_epik_Ionization_Penalty>
0.0357432

> <r_epik_Ionization_Penalty_Charging>
0.0357431

> <r_epik_Ionization_Penalty_Neutral>
1.19946e-07

> <r_epik_State_Penalty>
0.0298169

> <r_epik_Charging_Adjusted_Penalty>
0.06556

> <i_epik_Tot_Q>
0

> <i_epik_Tot_abs_Q>
0

> <r_epik_Metal_State_Penalty>
2.348

> <b_epik_Metal_Only>
0

> <s_epik_Chemistry_Notes>
This compound contains an acetal/aminal-like group ( X-CH(R)-Y where X, Y are N, S, or O) that may be acid/base labile, releasing an aldehyde.

> <s_lp_Force_Field>
OPLS_2005

> <r_lp_Energy>
30.312

> <b_lp_Chiralities_Consistent>
1

> <s_lp_Variant>
AV-unprocessed.smi:38-3

> <Gold.Version>
5.8.1

> <Gold.Id.Protein>
6NUR|6NUR_protein|mol2

> <Gold.PLP.Fitness>
36.1139

> <Gold.PLP.PLP>
-25.6422

> <Gold.PLP.part.hbond>
-4.0000

> <Gold.PLP.part.metal>
0.0000

> <Gold.PLP.part.buried>
2.0081

> <Gold.PLP.part.nonpolar>
-23.1663

> <Gold.PLP.part.repulsive>
0.3465

> <Gold.PLP.ligand.clash>
0.0000

> <Gold.PLP.ligand.torsion>
0.1282

> <Gold.PLP.Chemscore.Hbond>
2.6413

> <Gold.PLP.Chemscore.CHOScore>
0.9271

> <Gold.PLP.Chemscore.Metal>
0.0000

> <Gold.Chemscore.Hbonds>
donor molecule, donor type, donor heavy atom, donor atom, acceptor molecule, acceptor atom, score
      L1  H    10    24       P1 10175  1.00
      L1  H    13    27       P1 10175  0.86
      P1  H  7989  7998       L1     5  0.55
      L1  C    15    28       P1  8028  0.96

> <Gold.PLP.Chemscore.Internal.Correction>
0.0230

> <Gold.Rescore>
     Score         DG    S(hbond)    S(metal)    S(lipo)     H(rot)  DE(clash)    DE(int)     intcor
      8.19      -8.68       1.94        0.00      35.60       2.91       0.36       0.14       ----

> <Gold.Chemscore.Fitness>
8.1885

> <Gold.Chemscore.DG>
-8.6806

> <Gold.Chemscore.ZeroCoef>
-5.4800

> <Gold.Chemscore.Hbond>
1.9446

> <Gold.Chemscore.Metal>
0.0000

> <Gold.Chemscore.Lipo>
35.6037

> <Gold.Chemscore.Internal_Hbond>
0.0000

> <Gold.Chemscore.DEClash>
0.3560

> <Gold.Chemscore.DEInternal>
0.1361

> <Gold.Chemscore.Rot>
2.9141

> <Gold.Chemscore.Internal.Correction>
   9.000000E+99

> <Gold.Chemscore.Hbonds>
donor molecule, donor type, donor heavy atom, donor atom, acceptor molecule, acceptor atom, score
      L1  H    10    24       P1 10175  1.00
      L1  H    13    27       P1 10175  0.77
      P1  H  7989  7998       L1     5  0.03

> <Gold.Chemscore.Hbond.Weighted>
-6.4950

> <Gold.Chemscore.Metal.Weighted>
-0.0000

> <Gold.Chemscore.Lipo.Weighted>
-4.1656

> <Gold.Chemscore.Internal_Hbond.Weighted>
0.0000

> <Gold.Chemscore.DEClash.Weighted>
0.3560

> <Gold.Chemscore.DEInternal.Weighted>
0.1361

> <Gold.Chemscore.Rot.Weighted>
7.4601

> <Gold.Chemscore.Internal.Correction.Weighted>
   9.000000E+99

> <Gold.Protein.RotatedTorsions>
[ 6907 6896 6895 6894 ] final -173.55 input  -60.11 | X-H torsion
[ 7974 7965 7964 7962 ] final  -60.24 input  175.53 | X-H torsion
[ 8008 7997 7996 7995 ] final  -70.77 input   59.86 | X-H torsion
[ 10167 10162 10161 10158 ] final  -72.80 input  -65.29 | X-H torsion
[ 10718 10713 10712 10709 ] final   73.44 input   66.30 | X-H torsion
[ 10763 10752 10751 10750 ] final  -89.95 input  -60.55 | X-H torsion
[ 11005 11000 10999 10996 ] final -134.37 input  -57.11 | X-H torsion

> <Gold.Protein.ActiveResidues>
 VAL166  LYS551  ARG553  GLY616  TRP617  ASP618  TYR619  PRO620  LYS621  CYS622 
 ASP623  PHE694  ASN695  SER759  ASP760  ASP761  ALA762  ILE779  LEU786  VAL792 
 PHE793  MET794  SER795  GLU796  ALA797  LYS798  CYS799  TRP800  GLU811  SER814 

> <Gold.Protein.RotatedAtoms>
  151.5580  133.3407  159.2965 H   0  0  0  0  0  0  0  0  0  0  0  0  # atno 6907 bound_to 6896
  150.8439  134.7744  159.6966 H   0  0  0  0  0  0  0  0  0  0  0  0  # atno 6908 bound_to 6896
  152.4501  134.5419  159.9893 H   0  0  0  0  0  0  0  0  0  0  0  0  # atno 6909 bound_to 6896
  145.8178  140.8559  143.0148 H   0  0  0  0  0  0  0  0  0  0  0  0  # atno 7974 bound_to 7965
  154.5037  140.0828  156.7850 H   0  0  0  0  0  0  0  0  0  0  0  0  # atno 8008 bound_to 7997
  155.3943  140.3434  155.4235 H   0  0  0  0  0  0  0  0  0  0  0  0  # atno 8009 bound_to 7997
  156.1489  140.1552  156.8790 H   0  0  0  0  0  0  0  0  0  0  0  0  # atno 8010 bound_to 7997
  140.5163  143.2337  151.7507 H   0  0  0  0  0  0  0  0  0  0  0  0  # atno 10167 bound_to 10162
  157.6548  130.9629  150.1070 H   0  0  0  0  0  0  0  0  0  0  0  0  # atno 10718 bound_to 10713
  154.6606  135.5322  153.8014 H   0  0  0  0  0  0  0  0  0  0  0  0  # atno 10763 bound_to 10752
  153.0440  135.6505  154.0877 H   0  0  0  0  0  0  0  0  0  0  0  0  # atno 10764 bound_to 10752
  154.0786  135.2949  155.3274 H   0  0  0  0  0  0  0  0  0  0  0  0  # atno 10765 bound_to 10752
  140.8996  134.1708  157.4470 H   0  0  0  0  0  0  0  0  0  0  0  0  # atno 11005 bound_to 11000
  144.6750  140.0490  143.7479 LP  0  0  0  0  0  0  0  0  0  0  0  0  # atno 17320 bound_to 7965
  145.9707  139.2868  143.1100 LP  0  0  0  0  0  0  0  0  0  0  0  0  # atno 17321 bound_to 7965
  139.4910  144.4319  151.9862 LP  0  0  0  0  0  0  0  0  0  0  0  0  # atno 17342 bound_to 10162
  140.3414  144.3199  150.5966 LP  0  0  0  0  0  0  0  0  0  0  0  0  # atno 17343 bound_to 10162
  156.1977  130.3658  149.8828 LP  0  0  0  0  0  0  0  0  0  0  0  0  # atno 17370 bound_to 10713
  156.6740  130.8831  151.3566 LP  0  0  0  0  0  0  0  0  0  0  0  0  # atno 17371 bound_to 10713
  139.8740  134.9892  156.5448 LP  0  0  0  0  0  0  0  0  0  0  0  0  # atno 17394 bound_to 11000
  140.8247  133.8326  155.8928 LP  0  0  0  0  0  0  0  0  0  0  0  0  # atno 17395 bound_to 11000

$$$$
