AV-unprocessed.smi:1874|AV-procd|sdf|7611|dock4
  -GOLD-   22720 9333D 1   1.00000     0.00000
 Structure written by MMmdl.
 45 46  0  0  0  0  0  0  0  0  1 V2000
  143.9169  145.6950  154.4961 C   0  0  0  0  0  0  0  0  0  0  0  0
  144.1246  144.8068  155.7249 C   0  0  0  0  0  0  0  0  0  0  0  0
  143.8159  145.2624  156.8261 O   0  0  0  0  0  0  0  0  0  0  0  0
  144.6382  143.5633  155.5649 N   0  0  0  0  0  0  0  0  0  0  0  0
  145.1023  142.9920  154.2945 C   0  0  0  0  0  0  0  0  0  0  0  0
  146.6382  142.9000  154.3241 C   0  0  0  0  0  0  0  0  0  0  0  0
  147.1302  142.0861  155.5436 C   0  0  0  0  0  0  0  0  0  0  0  0
  148.5811  142.1796  155.6701 N   0  0  0  0  0  0  0  0  0  0  0  0
  149.3434  141.3985  156.4500 C   0  0  0  0  0  0  0  0  0  0  0  0
  148.8831  140.5105  157.1696 O   0  0  0  0  0  0  0  0  0  0  0  0
  150.8528  141.6820  156.4110 C   0  0  0  0  0  0  0  0  0  0  0  0
  151.3976  142.1298  157.7013 N   0  0  0  0  0  0  0  0  0  0  0  0
  150.8635  143.3204  158.1548 N   0  0  0  0  0  0  0  0  0  0  0  0
  151.2174  143.8280  159.2894 C   0  0  0  0  0  0  0  0  0  0  0  0
  150.5644  145.1259  159.6820 C   0  0  0  0  0  0  0  0  0  0  0  0
  152.2038  143.1377  160.1143 C   0  0  0  0  0  0  0  0  0  0  0  0
  152.5777  143.7795  161.4434 C   0  0  0  0  0  0  0  0  0  0  0  0
  152.7318  141.9768  159.6519 C   0  0  0  0  0  0  0  0  0  0  0  0
  153.7055  141.2354  160.3863 C   0  0  0  0  0  0  0  0  0  0  0  0
  154.5105  140.6481  160.9756 N   0  0  0  0  0  0  0  0  0  0  0  0
  152.3376  141.3972  158.3659 C   0  0  0  0  0  0  0  0  0  0  0  0
  152.7975  140.3462  157.9162 O   0  0  0  0  0  0  0  0  0  0  0  0
  146.4646  142.5691  156.8503 C   0  0  0  0  0  0  0  0  0  0  0  0
  144.9371  142.6772  156.6955 C   0  0  0  0  0  0  0  0  0  0  0  0
  144.8604  145.8633  153.9758 H   0  0  0  0  0  0  0  0  0  0  0  0
  143.5206  146.6680  154.7886 H   0  0  0  0  0  0  0  0  0  0  0  0
  143.2058  145.2400  153.8063 H   0  0  0  0  0  0  0  0  0  0  0  0
  144.6734  141.9964  154.1717 H   0  0  0  0  0  0  0  0  0  0  0  0
  144.7816  143.5544  153.4191 H   0  0  0  0  0  0  0  0  0  0  0  0
  146.9987  142.4486  153.3991 H   0  0  0  0  0  0  0  0  0  0  0  0
  147.0554  143.9077  154.3583 H   0  0  0  0  0  0  0  0  0  0  0  0
  146.8482  141.0415  155.3972 H   0  0  0  0  0  0  0  0  0  0  0  0
  149.0408  142.8879  155.1165 H   0  0  0  0  0  0  0  0  0  0  0  0
  151.3803  140.7877  156.0736 H   0  0  0  0  0  0  0  0  0  0  0  0
  151.0355  142.4358  155.6429 H   0  0  0  0  0  0  0  0  0  0  0  0
  151.3130  145.8850  159.9107 H   0  0  0  0  0  0  0  0  0  0  0  0
  149.9382  144.9907  160.5641 H   0  0  0  0  0  0  0  0  0  0  0  0
  149.9311  145.5193  158.8852 H   0  0  0  0  0  0  0  0  0  0  0  0
  153.2393  143.1475  162.0348 H   0  0  0  0  0  0  0  0  0  0  0  0
  151.6880  143.9687  162.0450 H   0  0  0  0  0  0  0  0  0  0  0  0
  153.0886  144.7281  161.2767 H   0  0  0  0  0  0  0  0  0  0  0  0
  146.7084  141.8901  157.6681 H   0  0  0  0  0  0  0  0  0  0  0  0
  146.8632  143.5457  157.1301 H   0  0  0  0  0  0  0  0  0  0  0  0
  144.4924  143.0206  157.6305 H   0  0  0  0  0  0  0  0  0  0  0  0
  144.5076  141.6921  156.5077 H   0  0  0  0  0  0  0  0  0  0  0  0
  1  2  1  0  0  0  0
  1 25  1  0  0  0  0
  1 26  1  0  0  0  0
  1 27  1  0  0  0  0
  2  3  2  0  0  0  0
  2  4  1  0  0  0  0
  4 24  1  0  0  0  0
  4  5  1  0  0  0  0
  5  6  1  0  0  0  0
  5 28  1  0  0  0  0
  5 29  1  0  0  0  0
  6  7  1  0  0  0  0
  6 30  1  0  0  0  0
  6 31  1  0  0  0  0
  7  8  1  0  0  0  0
  7 23  1  0  0  0  0
  7 32  1  0  0  0  0
  8  9  1  0  0  0  0
  8 33  1  0  0  0  0
  9 10  2  0  0  0  0
  9 11  1  0  0  0  0
 11 12  1  0  0  0  0
 11 34  1  0  0  0  0
 11 35  1  0  0  0  0
 12 21  1  0  0  0  0
 12 13  1  0  0  0  0
 13 14  2  0  0  0  0
 14 15  1  0  0  0  0
 14 16  1  0  0  0  0
 15 36  1  0  0  0  0
 15 37  1  0  0  0  0
 15 38  1  0  0  0  0
 16 17  1  0  0  0  0
 16 18  2  0  0  0  0
 17 39  1  0  0  0  0
 17 40  1  0  0  0  0
 17 41  1  0  0  0  0
 18 19  1  0  0  0  0
 18 21  1  0  0  0  0
 19 20  3  0  0  0  0
 21 22  2  0  0  0  0
 23 24  1  0  0  0  0
 23 42  1  0  0  0  0
 23 43  1  0  0  0  0
 24 44  1  0  0  0  0
 24 45  1  0  0  0  0
M  END
> <s_m_source_file>
AV-unprocessed.smi

> <i_m_source_file_index>
1874

> <i_lp_mmshare_version>
43012

> <i_f3d_flags>
0

> <s_epik_input>
W0NIM11DKD1PKU4xW0NIMl1bQ0gyXVtDSF0oW0NIMl1bQ0gyXTEpW05IXUMoPU8pW0NIMl1uMm5jKFtDSDNdKWMoW0NIM10pYyhDI04pYzI9Tw==

> <s_epik_cmdline>
J2VwaWtfcHl0aG9uJywgJy1waCcsICc3LjAnLCAnLXRuJywgJzgnLCAnLW1hJywgJzIwMCcsICctbWV0YWxfYmluZGluZycsICctaW1hZScsICc8aW5maWxlLm1hZT4nLCAnLW9tYWUnLCAnPG91dGZpbGUubWFlPic=

> <r_lp_tautomer_probability>
1

> <r_epik_Ionization_Penalty>
1.12408e-06

> <r_epik_Ionization_Penalty_Charging>
2.25008e-11

> <r_epik_Ionization_Penalty_Neutral>
1.12405e-06

> <r_epik_State_Penalty>
-0

> <r_epik_Charging_Adjusted_Penalty>
2.25008e-11

> <i_epik_Tot_Q>
0

> <i_epik_Tot_abs_Q>
0

> <r_epik_Metal_State_Penalty>
-0

> <b_epik_Metal_Only>
0

> <s_lp_Force_Field>
OPLS_2005

> <r_lp_Energy>
36.4073

> <b_lp_Chiralities_Consistent>
1

> <s_lp_Variant>
AV-unprocessed.smi:1874-1

> <Gold.Version>
5.8.1

> <Gold.Id.Protein>
6NUR|6NUR_protein|mol2

> <Gold.PLP.Fitness>
48.8259

> <Gold.PLP.PLP>
-45.3200

> <Gold.PLP.part.hbond>
-2.0000

> <Gold.PLP.part.metal>
0.0000

> <Gold.PLP.part.buried>
-5.8297

> <Gold.PLP.part.nonpolar>
-37.2595

> <Gold.PLP.part.repulsive>
0.3147

> <Gold.PLP.ligand.clash>
0.0000

> <Gold.PLP.ligand.torsion>
0.1524

> <Gold.PLP.Chemscore.Hbond>
1.2640

> <Gold.PLP.Chemscore.CHOScore>
0.0000

> <Gold.PLP.Chemscore.Metal>
0.0000

> <Gold.Chemscore.Hbonds>
donor molecule, donor type, donor heavy atom, donor atom, acceptor molecule, acceptor atom, score
      L1  H     8    33       P1  8028  0.38
      P1  H  7997  8010       L1    22  0.90

> <Gold.PLP.Chemscore.Internal.Correction>
0.0186

> <Gold.Rescore>
     Score         DG    S(hbond)    S(metal)    S(lipo)     H(rot)  DE(clash)    DE(int)     intcor
     15.83     -16.03       1.26        0.00      88.72       1.58       0.04       0.16       ----

> <Gold.Chemscore.Fitness>
15.8316

> <Gold.Chemscore.DG>
-16.0300

> <Gold.Chemscore.ZeroCoef>
-5.4800

> <Gold.Chemscore.Hbond>
1.2625

> <Gold.Chemscore.Metal>
0.0000

> <Gold.Chemscore.Lipo>
88.7200

> <Gold.Chemscore.Internal_Hbond>
0.0000

> <Gold.Chemscore.DEClash>
0.0396

> <Gold.Chemscore.DEInternal>
0.1587

> <Gold.Chemscore.Rot>
1.5808

> <Gold.Chemscore.Internal.Correction>
   9.000000E+99

> <Gold.Chemscore.Hbonds>
donor molecule, donor type, donor heavy atom, donor atom, acceptor molecule, acceptor atom, score
      L1  H     8    33       P1  8028  0.38
      P1  H  7997  8010       L1    22  0.85

> <Gold.Chemscore.Hbond.Weighted>
-4.2166

> <Gold.Chemscore.Metal.Weighted>
-0.0000

> <Gold.Chemscore.Lipo.Weighted>
-10.3802

> <Gold.Chemscore.Internal_Hbond.Weighted>
0.0000

> <Gold.Chemscore.DEClash.Weighted>
0.0396

> <Gold.Chemscore.DEInternal.Weighted>
0.1587

> <Gold.Chemscore.Rot.Weighted>
4.0469

> <Gold.Chemscore.Internal.Correction.Weighted>
   9.000000E+99

> <Gold.Protein.RotatedTorsions>
[ 6907 6896 6895 6894 ] final -110.53 input  -60.11 | X-H torsion
[ 7974 7965 7964 7962 ] final   62.15 input  175.53 | X-H torsion
[ 8008 7997 7996 7995 ] final   40.76 input   59.86 | X-H torsion
[ 10167 10162 10161 10158 ] final  -36.40 input  -65.29 | X-H torsion
[ 10718 10713 10712 10709 ] final -140.28 input   66.30 | X-H torsion
[ 10763 10752 10751 10750 ] final   11.10 input  -60.55 | X-H torsion
[ 11005 11000 10999 10996 ] final  101.31 input  -57.11 | X-H torsion

> <Gold.Protein.ActiveResidues>
 VAL166  LYS551  ARG553  GLY616  TRP617  ASP618  TYR619  PRO620  LYS621  CYS622 
 ASP623  PHE694  ASN695  SER759  ASP760  ASP761  ALA762  ILE779  LEU786  VAL792 
 PHE793  MET794  SER795  GLU796  ALA797  LYS798  CYS799  TRP800  GLU811  SER814 

> <Gold.Protein.RotatedAtoms>
  150.7631  133.9368  159.3443 H   0  0  0  0  0  0  0  0  0  0  0  0  # atno 6907 bound_to 6896
  151.7272  135.0880  160.0303 H   0  0  0  0  0  0  0  0  0  0  0  0  # atno 6908 bound_to 6896
  152.3612  133.6262  159.6052 H   0  0  0  0  0  0  0  0  0  0  0  0  # atno 6909 bound_to 6896
  145.8766  139.3414  143.0731 H   0  0  0  0  0  0  0  0  0  0  0  0  # atno 7974 bound_to 7965
  155.2585  140.3357  155.4275 H   0  0  0  0  0  0  0  0  0  0  0  0  # atno 8008 bound_to 7997
  156.2185  140.1799  156.7576 H   0  0  0  0  0  0  0  0  0  0  0  0  # atno 8009 bound_to 7997
  154.5789  140.0657  156.9060 H   0  0  0  0  0  0  0  0  0  0  0  0  # atno 8010 bound_to 7997
  140.7143  143.3411  151.2355 H   0  0  0  0  0  0  0  0  0  0  0  0  # atno 10167 bound_to 10162
  156.3205  130.7532  151.1628 H   0  0  0  0  0  0  0  0  0  0  0  0  # atno 10718 bound_to 10713
  153.1962  135.6849  153.8289 H   0  0  0  0  0  0  0  0  0  0  0  0  # atno 10763 bound_to 10752
  153.7572  135.3215  155.3332 H   0  0  0  0  0  0  0  0  0  0  0  0  # atno 10764 bound_to 10752
  154.8145  135.4695  154.0707 H   0  0  0  0  0  0  0  0  0  0  0  0  # atno 10765 bound_to 10752
  139.8773  134.9178  156.4888 H   0  0  0  0  0  0  0  0  0  0  0  0  # atno 11005 bound_to 11000
  145.9073  140.9203  143.0472 LP  0  0  0  0  0  0  0  0  0  0  0  0  # atno 17320 bound_to 7965
  144.6726  140.1113  143.7455 LP  0  0  0  0  0  0  0  0  0  0  0  0  # atno 17321 bound_to 7965
  139.6919  143.9678  152.2863 LP  0  0  0  0  0  0  0  0  0  0  0  0  # atno 17342 bound_to 10162
  139.9342  144.6722  150.8331 LP  0  0  0  0  0  0  0  0  0  0  0  0  # atno 17343 bound_to 10162
  157.7411  131.0509  150.5122 LP  0  0  0  0  0  0  0  0  0  0  0  0  # atno 17370 bound_to 10713
  156.5274  130.4176  149.6219 LP  0  0  0  0  0  0  0  0  0  0  0  0  # atno 17371 bound_to 10713
  140.8674  133.8014  155.9328 LP  0  0  0  0  0  0  0  0  0  0  0  0  # atno 17394 bound_to 11000
  140.8988  134.2404  157.5053 LP  0  0  0  0  0  0  0  0  0  0  0  0  # atno 17395 bound_to 11000

$$$$
