AV-unprocessed.smi:2520|AV-procd|sdf|9913|dock6
  -GOLD-   2272013553D 1   1.00000     0.00000
 Structure written by MMmdl.
 41 44  0  0  0  0  0  0  0  0  1 V2000
  145.9677  137.2783  154.9919 O   0  0  0  0  0  0  0  0  0  0  0  0
  146.8023  137.0868  154.1093 C   0  0  0  0  0  0  0  0  0  0  0  0
  146.5299  136.2965  153.0489 N   0  0  0  0  0  0  0  0  0  0  0  0
  145.3584  135.5620  152.6995 C   0  0  0  0  0  0  0  0  0  0  0  0
  145.4946  134.7356  151.5634 C   0  0  0  0  0  0  0  0  0  0  0  0
  144.3888  133.9708  151.1549 C   0  0  0  0  0  0  0  0  0  0  0  0
  143.2128  134.0817  151.9159 C   0  0  0  0  0  0  0  0  0  0  0  0
  143.1246  134.8832  152.9989 N   0  0  0  0  0  0  0  0  0  0  0  0
  144.1820  135.6068  153.3806 N   0  0  0  0  0  0  0  0  0  0  0  0
  148.0241  137.6397  154.1366 N   0  0  0  0  0  0  0  0  0  0  0  0
  148.5172  138.5497  155.1742 C   0  0  2  0  0  0  0  0  0  0  0  0
  148.0043  139.9861  155.0328 C   0  0  2  0  0  0  0  0  0  0  0  0
  146.8546  140.6399  154.3545 C   0  0  0  0  0  0  0  0  0  0  0  0
  147.6272  141.8613  153.7904 C   0  0  0  0  0  0  0  0  0  0  0  0
  149.0324  141.5831  154.0164 O   0  0  0  0  0  0  0  0  0  0  0  0
  149.1101  140.1705  154.0139 C   0  0  1  0  0  0  0  0  0  0  0  0
  149.9324  139.1751  154.8669 C   0  0  0  0  0  0  0  0  0  0  0  0
  150.7361  139.7643  156.0444 C   0  0  0  0  0  0  0  0  0  0  0  0
  152.1357  139.1478  156.0280 C   0  0  0  0  0  0  0  0  0  0  0  0
  152.3450  138.7233  154.5820 C   0  0  0  0  0  0  0  0  0  0  0  0
  150.9519  138.3002  154.1257 C   0  0  0  0  0  0  0  0  0  0  0  0
  147.3026  136.1753  152.4106 H   0  0  0  0  0  0  0  0  0  0  0  0
  146.4240  134.6865  151.0147 H   0  0  0  0  0  0  0  0  0  0  0  0
  144.4402  133.3236  150.2920 H   0  0  0  0  0  0  0  0  0  0  0  0
  142.3287  133.5197  151.6537 H   0  0  0  0  0  0  0  0  0  0  0  0
  148.6545  137.4302  153.3754 H   0  0  0  0  0  0  0  0  0  0  0  0
  148.4336  138.1507  156.1862 H   0  0  0  0  0  0  0  0  0  0  0  0
  148.2125  140.5142  155.9690 H   0  0  0  0  0  0  0  0  0  0  0  0
  146.4358  140.0203  153.5606 H   0  0  0  0  0  0  0  0  0  0  0  0
  146.0604  140.9251  155.0446 H   0  0  0  0  0  0  0  0  0  0  0  0
  147.4308  141.9855  152.7248 H   0  0  0  0  0  0  0  0  0  0  0  0
  147.3516  142.7872  154.2959 H   0  0  0  0  0  0  0  0  0  0  0  0
  148.8771  139.7790  153.0181 H   0  0  0  0  0  0  0  0  0  0  0  0
  150.8238  140.8460  155.9346 H   0  0  0  0  0  0  0  0  0  0  0  0
  150.2522  139.5881  157.0057 H   0  0  0  0  0  0  0  0  0  0  0  0
  152.9044  139.8356  156.3815 H   0  0  0  0  0  0  0  0  0  0  0  0
  152.1545  138.2674  156.6716 H   0  0  0  0  0  0  0  0  0  0  0  0
  152.6822  139.5773  153.9930 H   0  0  0  0  0  0  0  0  0  0  0  0
  153.0841  137.9286  154.4768 H   0  0  0  0  0  0  0  0  0  0  0  0
  150.7994  137.2513  154.3838 H   0  0  0  0  0  0  0  0  0  0  0  0
  150.8552  138.3736  153.0420 H   0  0  0  0  0  0  0  0  0  0  0  0
  1  2  2  0  0  0  0
  2  3  1  0  0  0  0
  2 10  1  0  0  0  0
  3  4  1  0  0  0  0
  3 22  1  0  0  0  0
  4  9  1  0  0  0  0
  4  5  2  0  0  0  0
  5  6  1  0  0  0  0
  5 23  1  0  0  0  0
  6  7  2  0  0  0  0
  6 24  1  0  0  0  0
  7  8  1  0  0  0  0
  7 25  1  0  0  0  0
  8  9  2  0  0  0  0
 10 11  1  0  0  0  0
 10 26  1  0  0  0  0
 11 17  1  0  0  0  0
 11 12  1  0  0  0  0
 11 27  1  0  0  0  0
 12 16  1  0  0  0  0
 12 13  1  0  0  0  0
 12 28  1  0  0  0  0
 13 14  1  0  0  0  0
 13 29  1  0  0  0  0
 13 30  1  0  0  0  0
 14 15  1  0  0  0  0
 14 31  1  0  0  0  0
 14 32  1  0  0  0  0
 15 16  1  0  0  0  0
 16 17  1  0  0  0  0
 16 33  1  0  0  0  0
 17 21  1  0  0  0  0
 17 18  1  0  0  0  0
 18 19  1  0  0  0  0
 18 34  1  0  0  0  0
 18 35  1  0  0  0  0
 19 20  1  0  0  0  0
 19 36  1  0  0  0  0
 19 37  1  0  0  0  0
 20 21  1  0  0  0  0
 20 38  1  0  0  0  0
 20 39  1  0  0  0  0
 21 40  1  0  0  0  0
 21 41  1  0  0  0  0
M  END
> <s_m_source_file>
AV-unprocessed.smi

> <i_m_source_file_index>
2520

> <i_lp_mmshare_version>
43012

> <i_f3d_flags>
0

> <s_epik_input>
bjFuW2NIXVtjSF1bY0hdYzFbTkhdQyg9TylbTkhdW0NAQEhdMltDQEBIXShbQ0gyXVtDSDJdTzMpW0NASF0zQzI0W0NIMl1bQ0gyXVtDSDJdW0NIMl00

> <s_epik_cmdline>
J2VwaWtfcHl0aG9uJywgJy1waCcsICc3LjAnLCAnLXRuJywgJzgnLCAnLW1hJywgJzIwMCcsICctbWV0YWxfYmluZGluZycsICctaW1hZScsICc8aW5maWxlLm1hZT4nLCAnLW9tYWUnLCAnPG91dGZpbGUubWFlPic=

> <r_lp_tautomer_probability>
1

> <r_epik_Ionization_Penalty>
0.00552561

> <r_epik_Ionization_Penalty_Charging>
0

> <r_epik_Ionization_Penalty_Neutral>
0.00552561

> <r_epik_State_Penalty>
-0

> <r_epik_Charging_Adjusted_Penalty>
0

> <i_epik_Tot_Q>
0

> <i_epik_Tot_abs_Q>
0

> <r_epik_Metal_State_Penalty>
-0

> <b_epik_Metal_Only>
0

> <s_lp_Force_Field>
OPLS_2005

> <r_lp_Energy>
86.2541

> <b_lp_Chiralities_Consistent>
1

> <s_lp_Variant>
AV-unprocessed.smi:2520-7

> <Gold.Version>
5.8.1

> <Gold.Id.Protein>
6NUR|6NUR_protein|mol2

> <Gold.PLP.Fitness>
40.1105

> <Gold.PLP.PLP>
-30.4392

> <Gold.PLP.part.hbond>
-3.4364

> <Gold.PLP.part.metal>
0.0000

> <Gold.PLP.part.buried>
-2.6484

> <Gold.PLP.part.nonpolar>
-24.2309

> <Gold.PLP.part.repulsive>
0.4424

> <Gold.PLP.ligand.clash>
0.0000

> <Gold.PLP.ligand.torsion>
0.1523

> <Gold.PLP.Chemscore.Hbond>
2.5040

> <Gold.PLP.Chemscore.CHOScore>
0.7302

> <Gold.PLP.Chemscore.Metal>
0.0000

> <Gold.Chemscore.Hbonds>
donor molecule, donor type, donor heavy atom, donor atom, acceptor molecule, acceptor atom, score
      L1  H     3    22       P1  7948  1.00
      L1  H    10    26       P1  7948  0.90
      P1  H  8011  8017       L1    15  0.61
      L1  C     7    25       P1 10186  0.54

> <Gold.PLP.Chemscore.Internal.Correction>
0.2731

> <Gold.Rescore>
     Score         DG    S(hbond)    S(metal)    S(lipo)     H(rot)  DE(clash)    DE(int)     intcor
     16.51     -18.13       1.92        0.00      75.27       1.00       0.25       1.37       ----

> <Gold.Chemscore.Fitness>
16.5083

> <Gold.Chemscore.DG>
-18.1318

> <Gold.Chemscore.ZeroCoef>
-5.4800

> <Gold.Chemscore.Hbond>
1.9178

> <Gold.Chemscore.Metal>
0.0000

> <Gold.Chemscore.Lipo>
75.2680

> <Gold.Chemscore.Internal_Hbond>
0.0000

> <Gold.Chemscore.DEClash>
0.2519

> <Gold.Chemscore.DEInternal>
1.3716

> <Gold.Chemscore.Rot>
1.0000

> <Gold.Chemscore.Internal.Correction>
   9.000000E+99

> <Gold.Chemscore.Hbonds>
donor molecule, donor type, donor heavy atom, donor atom, acceptor molecule, acceptor atom, score
      L1  H     3    22       P1  7948  0.99
      L1  H    10    26       P1  7948  0.87
      P1  H  8011  8017       L1    15  0.11

> <Gold.Chemscore.Hbond.Weighted>
-6.4054

> <Gold.Chemscore.Metal.Weighted>
-0.0000

> <Gold.Chemscore.Lipo.Weighted>
-8.8064

> <Gold.Chemscore.Internal_Hbond.Weighted>
0.0000

> <Gold.Chemscore.DEClash.Weighted>
0.2519

> <Gold.Chemscore.DEInternal.Weighted>
1.3716

> <Gold.Chemscore.Rot.Weighted>
2.5600

> <Gold.Chemscore.Internal.Correction.Weighted>
   9.000000E+99

> <Gold.Protein.RotatedTorsions>
[ 6907 6896 6895 6894 ] final  -22.64 input  -60.11 | X-H torsion
[ 7974 7965 7964 7962 ] final  -76.43 input  175.53 | X-H torsion
[ 8008 7997 7996 7995 ] final  -37.63 input   59.86 | X-H torsion
[ 10167 10162 10161 10158 ] final -133.08 input  -65.29 | X-H torsion
[ 10718 10713 10712 10709 ] final    0.89 input   66.30 | X-H torsion
[ 10763 10752 10751 10750 ] final  -92.33 input  -60.55 | X-H torsion
[ 11005 11000 10999 10996 ] final   -3.12 input  -57.11 | X-H torsion

> <Gold.Protein.ActiveResidues>
 VAL166  LYS551  ARG553  GLY616  TRP617  ASP618  TYR619  PRO620  LYS621  CYS622 
 ASP623  PHE694  ASN695  SER759  ASP760  ASP761  ALA762  ILE779  LEU786  VAL792 
 PHE793  MET794  SER795  GLU796  ALA797  LYS798  CYS799  TRP800  GLU811  SER814 

> <Gold.Protein.RotatedAtoms>
  151.2156  135.0498  159.8928 H   0  0  0  0  0  0  0  0  0  0  0  0  # atno 6907 bound_to 6896
  152.5420  134.0697  159.8198 H   0  0  0  0  0  0  0  0  0  0  0  0  # atno 6908 bound_to 6896
  151.0856  133.5308  159.2650 H   0  0  0  0  0  0  0  0  0  0  0  0  # atno 6909 bound_to 6896
  145.6130  140.9382  143.1179 H   0  0  0  0  0  0  0  0  0  0  0  0  # atno 7974 bound_to 7965
  154.4050  140.1599  156.2568 H   0  0  0  0  0  0  0  0  0  0  0  0  # atno 8008 bound_to 7997
  155.9071  140.3429  155.6048 H   0  0  0  0  0  0  0  0  0  0  0  0  # atno 8009 bound_to 7997
  155.7379  140.0789  157.2250 H   0  0  0  0  0  0  0  0  0  0  0  0  # atno 8010 bound_to 7997
  139.9019  143.6597  152.2593 H   0  0  0  0  0  0  0  0  0  0  0  0  # atno 10167 bound_to 10162
  156.8401  130.5518  149.5678 H   0  0  0  0  0  0  0  0  0  0  0  0  # atno 10718 bound_to 10713
  154.6850  135.5235  153.8314 H   0  0  0  0  0  0  0  0  0  0  0  0  # atno 10763 bound_to 10752
  153.0591  135.6561  154.0516 H   0  0  0  0  0  0  0  0  0  0  0  0  # atno 10764 bound_to 10752
  154.0398  135.2978  155.3336 H   0  0  0  0  0  0  0  0  0  0  0  0  # atno 10765 bound_to 10752
  140.6658  133.9280  155.8464 H   0  0  0  0  0  0  0  0  0  0  0  0  # atno 11005 bound_to 11000
  144.7262  139.7868  143.7364 LP  0  0  0  0  0  0  0  0  0  0  0  0  # atno 17320 bound_to 7965
  146.1490  139.4567  143.0061 LP  0  0  0  0  0  0  0  0  0  0  0  0  # atno 17321 bound_to 7965
  139.7017  144.7634  151.1261 LP  0  0  0  0  0  0  0  0  0  0  0  0  # atno 17342 bound_to 10162
  140.7705  143.5448  150.9271 LP  0  0  0  0  0  0  0  0  0  0  0  0  # atno 17343 bound_to 10162
  156.0886  130.5877  150.9692 LP  0  0  0  0  0  0  0  0  0  0  0  0  # atno 17370 bound_to 10713
  157.6360  131.0916  150.8347 LP  0  0  0  0  0  0  0  0  0  0  0  0  # atno 17371 bound_to 10713
  141.0430  134.0594  157.3878 LP  0  0  0  0  0  0  0  0  0  0  0  0  # atno 17394 bound_to 11000
  139.8998  135.0160  156.7211 LP  0  0  0  0  0  0  0  0  0  0  0  0  # atno 17395 bound_to 11000

$$$$
