AV-unprocessed.smi:3009|AV-procd|sdf|11449|dock2
  -GOLD-   2272016383D 1   1.00000     0.00000
 Structure written by MMmdl.
 44 45  0  0  0  0  0  0  0  0  2 V2000
  151.2871  140.0840  158.0631 C   0  0  0  0  0  0  0  0  0  0  0  0
  150.5863  140.2713  156.7093 C   0  0  0  0  0  0  0  0  0  0  0  0
  151.5589  139.9689  155.5567 C   0  0  0  0  0  0  0  0  0  0  0  0
  149.9859  141.6904  156.6024 C   0  0  0  0  0  0  0  0  0  0  0  0
  148.8150  141.7669  155.6910 N   0  3  1  0  0  0  0  0  0  0  0  0
  149.0112  141.0554  154.4035 C   0  0  0  0  0  0  0  0  0  0  0  0
  147.7703  141.2131  153.5094 C   0  0  0  0  0  0  0  0  0  0  0  0
  146.6216  140.7404  154.2012 O   0  0  0  0  0  0  0  0  0  0  0  0
  146.3644  141.4830  155.3890 C   0  0  1  0  0  0  0  0  0  0  0  0
  145.0562  140.9657  156.0141 C   0  0  0  0  0  0  0  0  0  0  0  0
  144.3627  140.0310  155.1342 N   0  0  0  0  0  0  0  0  0  0  0  0
  144.0553  138.7652  155.4496 C   0  0  0  0  0  0  0  0  0  0  0  0
  144.3297  138.2515  156.5342 O   0  0  0  0  0  0  0  0  0  0  0  0
  143.4176  138.1500  154.4411 N   0  0  0  0  0  0  0  0  0  0  0  0
  142.9246  136.8212  154.4235 C   0  0  0  0  0  0  0  0  0  0  0  0
  141.7754  136.2941  153.7643 C   0  0  0  0  0  0  0  0  0  0  0  0
  141.6495  134.9934  153.9863 N   0  0  0  0  0  0  0  0  0  0  0  0
  142.7020  134.6863  154.7773 N   0  0  0  0  0  0  0  0  0  0  0  0
  143.5036  135.7682  155.0671 C   0  0  0  0  0  0  0  0  0  0  0  0
  147.5626  141.3150  156.3426 C   0  0  0  0  0  0  0  0  0  0  0  0
  142.8577  133.7441  155.1069 H   0  0  0  0  0  0  0  0  0  0  0  0
  152.1194  140.7792  158.1785 H   0  0  0  0  0  0  0  0  0  0  0  0
  151.6819  139.0726  158.1662 H   0  0  0  0  0  0  0  0  0  0  0  0
  150.5969  140.2512  158.8906 H   0  0  0  0  0  0  0  0  0  0  0  0
  149.7821  139.5374  156.6709 H   0  0  0  0  0  0  0  0  0  0  0  0
  152.3911  140.6735  155.5436 H   0  0  0  0  0  0  0  0  0  0  0  0
  151.0612  140.0220  154.5883 H   0  0  0  0  0  0  0  0  0  0  0  0
  151.9759  138.9658  155.6505 H   0  0  0  0  0  0  0  0  0  0  0  0
  149.6964  142.0594  157.5876 H   0  0  0  0  0  0  0  0  0  0  0  0
  150.7655  142.3646  156.2441 H   0  0  0  0  0  0  0  0  0  0  0  0
  149.8813  141.4452  153.8771 H   0  0  0  0  0  0  0  0  0  0  0  0
  149.1991  139.9975  154.5936 H   0  0  0  0  0  0  0  0  0  0  0  0
  147.6313  142.2544  153.2141 H   0  0  0  0  0  0  0  0  0  0  0  0
  147.8918  140.6364  152.5924 H   0  0  0  0  0  0  0  0  0  0  0  0
  146.2534  142.5399  155.1397 H   0  0  0  0  0  0  0  0  0  0  0  0
  145.2645  140.4600  156.9574 H   0  0  0  0  0  0  0  0  0  0  0  0
  144.3933  141.7997  156.2508 H   0  0  0  0  0  0  0  0  0  0  0  0
  144.0983  140.3736  154.2221 H   0  0  0  0  0  0  0  0  0  0  0  0
  143.2666  138.6873  153.6000 H   0  0  0  0  0  0  0  0  0  0  0  0
  141.0420  136.7897  153.1457 H   0  0  0  0  0  0  0  0  0  0  0  0
  144.3854  135.6941  155.6862 H   0  0  0  0  0  0  0  0  0  0  0  0
  147.6642  140.2712  156.6447 H   0  0  0  0  0  0  0  0  0  0  0  0
  147.3910  141.8967  157.2493 H   0  0  0  0  0  0  0  0  0  0  0  0
  148.6822  142.7444  155.4733 H   0  0  0  0  0  0  0  0  0  0  0  0
  1  2  1  0  0  0  0
  1 22  1  0  0  0  0
  1 23  1  0  0  0  0
  1 24  1  0  0  0  0
  2  3  1  0  0  0  0
  2  4  1  0  0  0  0
  2 25  1  0  0  0  0
  3 26  1  0  0  0  0
  3 27  1  0  0  0  0
  3 28  1  0  0  0  0
  4  5  1  0  0  0  0
  4 29  1  0  0  0  0
  4 30  1  0  0  0  0
  5 20  1  0  0  0  0
  5  6  1  0  0  0  0
  5 44  1  0  0  0  0
  6  7  1  0  0  0  0
  6 31  1  0  0  0  0
  6 32  1  0  0  0  0
  7  8  1  0  0  0  0
  7 33  1  0  0  0  0
  7 34  1  0  0  0  0
  8  9  1  0  0  0  0
  9 10  1  0  0  0  0
  9 20  1  0  0  0  0
  9 35  1  0  0  0  0
 10 11  1  0  0  0  0
 10 36  1  0  0  0  0
 10 37  1  0  0  0  0
 11 12  1  0  0  0  0
 11 38  1  0  0  0  0
 12 13  2  0  0  0  0
 12 14  1  0  0  0  0
 14 15  1  0  0  0  0
 14 39  1  0  0  0  0
 15 19  2  0  0  0  0
 15 16  1  0  0  0  0
 16 17  2  0  0  0  0
 16 40  1  0  0  0  0
 17 18  1  0  0  0  0
 18 21  1  0  0  0  0
 18 19  1  0  0  0  0
 19 41  1  0  0  0  0
 20 42  1  0  0  0  0
 20 43  1  0  0  0  0
M  CHG  1   5   1
M  END
> <s_m_source_file>
AV-unprocessed.smi

> <i_m_source_file_index>
3009

> <i_lp_mmshare_version>
43012

> <i_f3d_flags>
0

> <s_epik_input>
W0NIM11bQ0hdKFtDSDNdKVtDSDJdTjFbQ0gyXVtDSDJdT1tDQEhdKFtDSDJdMSlbQ0gyXVtOSF1DKD1PKVtOSF1jMltjSF1uW25IXVtjSF0y

> <s_epik_cmdline>
J2VwaWtfcHl0aG9uJywgJy1waCcsICc3LjAnLCAnLXRuJywgJzgnLCAnLW1hJywgJzIwMCcsICctbWV0YWxfYmluZGluZycsICctaW1hZScsICc8aW5maWxlLm1hZT4nLCAnLW9tYWUnLCAnPG91dGZpbGUubWFlPic=

> <r_lp_tautomer_probability>
0.5

> <r_epik_Ionization_Penalty>
0.0974064

> <r_epik_Ionization_Penalty_Charging>
0.0973651

> <r_epik_Ionization_Penalty_Neutral>
4.13573e-05

> <r_epik_State_Penalty>
0.0874853

> <r_epik_Charging_Adjusted_Penalty>
0.18485

> <i_epik_Tot_Q>
1

> <i_epik_Tot_abs_Q>
1

> <r_epik_Metal_State_Penalty>
0.0874855

> <b_epik_Metal_Only>
0

> <s_lp_Force_Field>
OPLS_2005

> <r_lp_Energy>
19.2351

> <b_lp_Chiralities_Consistent>
1

> <s_lp_Variant>
AV-unprocessed.smi:3009-1

> <Gold.Version>
5.8.1

> <Gold.Id.Protein>
6NUR|6NUR_protein|mol2

> <Gold.PLP.Fitness>
38.9891

> <Gold.PLP.PLP>
-26.5804

> <Gold.PLP.part.hbond>
-5.1990

> <Gold.PLP.part.metal>
0.0000

> <Gold.PLP.part.buried>
-4.3143

> <Gold.PLP.part.nonpolar>
-17.1995

> <Gold.PLP.part.repulsive>
0.4411

> <Gold.PLP.ligand.clash>
0.0000

> <Gold.PLP.ligand.torsion>
1.3744

> <Gold.PLP.Chemscore.Hbond>
4.9833

> <Gold.PLP.Chemscore.CHOScore>
0.0000

> <Gold.PLP.Chemscore.Metal>
0.0000

> <Gold.Chemscore.Hbonds>
donor molecule, donor type, donor heavy atom, donor atom, acceptor molecule, acceptor atom, score
      L1  H     5    44       P1  8028  2.00
      L1  H    11    38       P1 10175  1.00
      L1  H    14    39       P1 10175  0.79
      L1  H    18    21       P1 10957  0.98

> <Gold.PLP.Chemscore.Internal.Correction>
0.2077

> <Gold.Rescore>
     Score         DG    S(hbond)    S(metal)    S(lipo)     H(rot)  DE(clash)    DE(int)     intcor
     18.22     -19.86       3.85        0.00      52.25       1.80       0.07       1.57       ----

> <Gold.Chemscore.Fitness>
18.2218

> <Gold.Chemscore.DG>
-19.8553

> <Gold.Chemscore.ZeroCoef>
-5.4800

> <Gold.Chemscore.Hbond>
3.8506

> <Gold.Chemscore.Metal>
0.0000

> <Gold.Chemscore.Lipo>
52.2466

> <Gold.Chemscore.Internal_Hbond>
0.0000

> <Gold.Chemscore.DEClash>
0.0663

> <Gold.Chemscore.DEInternal>
1.5673

> <Gold.Chemscore.Rot>
1.7963

> <Gold.Chemscore.Internal.Correction>
   9.000000E+99

> <Gold.Chemscore.Hbonds>
donor molecule, donor type, donor heavy atom, donor atom, acceptor molecule, acceptor atom, score
      L1  H     5    44       P1  8028  0.97
      L1  H    11    38       P1 10175  1.00
      L1  H    14    39       P1 10175  0.73
      L1  H    18    21       P1 10957  0.89

> <Gold.Chemscore.Hbond.Weighted>
-12.8610

> <Gold.Chemscore.Metal.Weighted>
-0.0000

> <Gold.Chemscore.Lipo.Weighted>
-6.1129

> <Gold.Chemscore.Internal_Hbond.Weighted>
0.0000

> <Gold.Chemscore.DEClash.Weighted>
0.0663

> <Gold.Chemscore.DEInternal.Weighted>
1.5673

> <Gold.Chemscore.Rot.Weighted>
4.5985

> <Gold.Chemscore.Internal.Correction.Weighted>
   9.000000E+99

> <Gold.Protein.RotatedTorsions>
[ 6907 6896 6895 6894 ] final  148.84 input  -60.11 | X-H torsion
[ 7974 7965 7964 7962 ] final  -61.70 input  175.53 | X-H torsion
[ 8008 7997 7996 7995 ] final  -83.66 input   59.86 | X-H torsion
[ 10167 10162 10161 10158 ] final -136.44 input  -65.29 | X-H torsion
[ 10718 10713 10712 10709 ] final  141.60 input   66.30 | X-H torsion
[ 10763 10752 10751 10750 ] final  143.68 input  -60.55 | X-H torsion
[ 11005 11000 10999 10996 ] final  101.85 input  -57.11 | X-H torsion

> <Gold.Protein.ActiveResidues>
 VAL166  LYS551  ARG553  GLY616  TRP617  ASP618  TYR619  PRO620  LYS621  CYS622 
 ASP623  PHE694  ASN695  SER759  ASP760  ASP761  ALA762  ILE779  LEU786  VAL792 
 PHE793  MET794  SER795  GLU796  ALA797  LYS798  CYS799  TRP800  GLU811  SER814 

> <Gold.Protein.RotatedAtoms>
  152.1361  133.4436  159.4743 H   0  0  0  0  0  0  0  0  0  0  0  0  # atno 6907 bound_to 6896
  150.6882  134.2362  159.4463 H   0  0  0  0  0  0  0  0  0  0  0  0  # atno 6908 bound_to 6896
  152.0250  134.9800  160.0622 H   0  0  0  0  0  0  0  0  0  0  0  0  # atno 6909 bound_to 6896
  145.8003  140.8659  143.0235 H   0  0  0  0  0  0  0  0  0  0  0  0  # atno 7974 bound_to 7965
  154.6214  140.0616  156.9620 H   0  0  0  0  0  0  0  0  0  0  0  0  # atno 8008 bound_to 7997
  155.1811  140.3299  155.4356 H   0  0  0  0  0  0  0  0  0  0  0  0  # atno 8009 bound_to 7997
  156.2433  140.1897  156.6908 H   0  0  0  0  0  0  0  0  0  0  0  0  # atno 8010 bound_to 7997
  139.8678  143.6995  152.2643 H   0  0  0  0  0  0  0  0  0  0  0  0  # atno 10167 bound_to 10162
  157.3901  131.1003  151.0654 H   0  0  0  0  0  0  0  0  0  0  0  0  # atno 10718 bound_to 10713
  153.9763  135.2945  155.3423 H   0  0  0  0  0  0  0  0  0  0  0  0  # atno 10763 bound_to 10752
  154.7294  135.5074  153.8942 H   0  0  0  0  0  0  0  0  0  0  0  0  # atno 10764 bound_to 10752
  153.0876  135.6698  154.0032 H   0  0  0  0  0  0  0  0  0  0  0  0  # atno 10765 bound_to 10752
  139.8775  134.9200  156.4969 H   0  0  0  0  0  0  0  0  0  0  0  0  # atno 11005 bound_to 11000
  144.6769  140.0249  143.7483 LP  0  0  0  0  0  0  0  0  0  0  0  0  # atno 17320 bound_to 7965
  145.9885  139.2996  143.0999 LP  0  0  0  0  0  0  0  0  0  0  0  0  # atno 17321 bound_to 7965
  139.7312  144.7582  151.0798 LP  0  0  0  0  0  0  0  0  0  0  0  0  # atno 17342 bound_to 10162
  140.7765  143.5085  150.9682 LP  0  0  0  0  0  0  0  0  0  0  0  0  # atno 17343 bound_to 10162
  157.1691  130.6259  149.5635 LP  0  0  0  0  0  0  0  0  0  0  0  0  # atno 17370 bound_to 10713
  155.9796  130.4791  150.6726 LP  0  0  0  0  0  0  0  0  0  0  0  0  # atno 17371 bound_to 10713
  140.8618  133.8054  155.9273 LP  0  0  0  0  0  0  0  0  0  0  0  0  # atno 17394 bound_to 11000
  140.9042  134.2341  157.5024 LP  0  0  0  0  0  0  0  0  0  0  0  0  # atno 17395 bound_to 11000

$$$$
