AV-unprocessed.smi:2715|AV-procd|sdf|10482|dock4
  -GOLD-   2272014523D 1   1.00000     0.00000
 Structure written by MMmdl.
 38 39  0  0  0  0  0  0  0  0  1 V2000
  154.7865  137.2523  164.8745 C   0  0  0  0  0  0  0  0  0  0  0  0
  154.8471  136.8350  163.4452 C   0  0  0  0  0  0  0  0  0  0  0  0
  154.2261  137.4868  162.4588 N   0  0  0  0  0  0  0  0  0  0  0  0
  154.4331  136.8957  161.2074 C   0  0  0  0  0  0  0  0  0  0  0  0
  153.8046  137.4933  159.9816 C   0  0  0  0  0  0  0  0  0  0  0  0
  154.3756  138.8863  159.7118 C   0  0  0  0  0  0  0  0  0  0  0  0
  155.2200  139.0428  158.8303 O   0  0  0  0  0  0  0  0  0  0  0  0
  153.9149  139.8823  160.4858 N   0  0  0  0  0  0  0  0  0  0  0  0
  154.3335  141.2797  160.4220 C   0  0  0  0  0  0  0  0  0  0  0  0
  153.3490  142.2040  161.1616 C   0  0  0  0  0  0  0  0  0  0  0  0
  152.5934  143.1496  160.2408 C   0  0  0  0  0  0  0  0  0  0  0  0
  152.7353  143.1062  158.9016 C   0  0  0  0  0  0  0  0  0  0  0  0
  151.9752  143.9971  157.9350 C   0  0  0  0  0  0  0  0  0  0  0  0
  150.7824  144.6989  158.6054 C   0  0  0  0  0  0  0  0  0  0  0  0
  151.1718  145.2561  159.9802 C   0  0  0  0  0  0  0  0  0  0  0  0
  151.6527  144.1378  160.9220 C   0  0  0  0  0  0  0  0  0  0  0  0
  155.2353  135.7823  161.2627 C   0  0  0  0  0  0  0  0  0  0  0  0
  155.7511  135.4318  162.8893 S   0  0  0  0  0  0  0  0  0  0  0  0
  153.9942  137.9860  165.0272 H   0  0  0  0  0  0  0  0  0  0  0  0
  155.7367  137.6950  165.1731 H   0  0  0  0  0  0  0  0  0  0  0  0
  154.5876  136.3878  165.5080 H   0  0  0  0  0  0  0  0  0  0  0  0
  153.9730  136.8629  159.1074 H   0  0  0  0  0  0  0  0  0  0  0  0
  152.7231  137.5650  160.1044 H   0  0  0  0  0  0  0  0  0  0  0  0
  153.2192  139.6504  161.1800 H   0  0  0  0  0  0  0  0  0  0  0  0
  155.3481  141.4103  160.8016 H   0  0  0  0  0  0  0  0  0  0  0  0
  154.3694  141.5629  159.3701 H   0  0  0  0  0  0  0  0  0  0  0  0
  152.6226  141.6040  161.7104 H   0  0  0  0  0  0  0  0  0  0  0  0
  153.8910  142.7808  161.9123 H   0  0  0  0  0  0  0  0  0  0  0  0
  153.4229  142.4017  158.4564 H   0  0  0  0  0  0  0  0  0  0  0  0
  152.6718  144.7334  157.5333 H   0  0  0  0  0  0  0  0  0  0  0  0
  151.6260  143.3974  157.0942 H   0  0  0  0  0  0  0  0  0  0  0  0
  150.4085  145.4962  157.9626 H   0  0  0  0  0  0  0  0  0  0  0  0
  149.9633  143.9885  158.7273 H   0  0  0  0  0  0  0  0  0  0  0  0
  151.9660  145.9935  159.8553 H   0  0  0  0  0  0  0  0  0  0  0  0
  150.3299  145.7835  160.4294 H   0  0  0  0  0  0  0  0  0  0  0  0
  150.7936  143.5868  161.3044 H   0  0  0  0  0  0  0  0  0  0  0  0
  152.1505  144.5801  161.7853 H   0  0  0  0  0  0  0  0  0  0  0  0
  155.5494  135.1476  160.4473 H   0  0  0  0  0  0  0  0  0  0  0  0
  1  2  1  0  0  0  0
  1 19  1  0  0  0  0
  1 20  1  0  0  0  0
  1 21  1  0  0  0  0
  2 18  1  0  0  0  0
  2  3  2  0  0  0  0
  3  4  1  0  0  0  0
  4  5  1  0  0  0  0
  4 17  2  0  0  0  0
  5  6  1  0  0  0  0
  5 22  1  0  0  0  0
  5 23  1  0  0  0  0
  6  7  2  0  0  0  0
  6  8  1  0  0  0  0
  8  9  1  0  0  0  0
  8 24  1  0  0  0  0
  9 10  1  0  0  0  0
  9 25  1  0  0  0  0
  9 26  1  0  0  0  0
 10 11  1  0  0  0  0
 10 27  1  0  0  0  0
 10 28  1  0  0  0  0
 11 16  1  0  0  0  0
 11 12  2  0  0  0  0
 12 13  1  0  0  0  0
 12 29  1  0  0  0  0
 13 14  1  0  0  0  0
 13 30  1  0  0  0  0
 13 31  1  0  0  0  0
 14 15  1  0  0  0  0
 14 32  1  0  0  0  0
 14 33  1  0  0  0  0
 15 16  1  0  0  0  0
 15 34  1  0  0  0  0
 15 35  1  0  0  0  0
 16 36  1  0  0  0  0
 16 37  1  0  0  0  0
 17 18  1  0  0  0  0
 17 38  1  0  0  0  0
M  END
> <s_m_source_file>
AV-unprocessed.smi

> <i_m_source_file_index>
2715

> <i_lp_mmshare_version>
43012

> <i_f3d_flags>
0

> <s_epik_input>
W0NIM11jMW5jKFtjSF1zMSlbQ0gyXUMoPU8pW05IXVtDSDJdW0NIMl1DMj1bQ0hdW0NIMl1bQ0gyXVtDSDJdW0NIMl0y

> <s_epik_cmdline>
J2VwaWtfcHl0aG9uJywgJy1waCcsICc3LjAnLCAnLXRuJywgJzgnLCAnLW1hJywgJzIwMCcsICctbWV0YWxfYmluZGluZycsICctaW1hZScsICc8aW5maWxlLm1hZT4nLCAnLW9tYWUnLCAnPG91dGZpbGUubWFlPic=

> <r_lp_tautomer_probability>
1

> <r_epik_Ionization_Penalty>
5.73492e-05

> <r_epik_Ionization_Penalty_Charging>
0

> <r_epik_Ionization_Penalty_Neutral>
5.73492e-05

> <r_epik_State_Penalty>
-0

> <r_epik_Charging_Adjusted_Penalty>
0

> <i_epik_Tot_Q>
0

> <i_epik_Tot_abs_Q>
0

> <r_epik_Metal_State_Penalty>
-0

> <b_epik_Metal_Only>
0

> <s_lp_Force_Field>
OPLS_2005

> <r_lp_Energy>
6.36926

> <b_lp_Chiralities_Consistent>
1

> <s_lp_Variant>
AV-unprocessed.smi:2715-1

> <Gold.Version>
5.8.1

> <Gold.Id.Protein>
6NUR|6NUR_protein|mol2

> <Gold.PLP.Fitness>
50.9893

> <Gold.PLP.PLP>
-49.3903

> <Gold.PLP.part.hbond>
-1.0000

> <Gold.PLP.part.metal>
0.0000

> <Gold.PLP.part.buried>
-5.4760

> <Gold.PLP.part.nonpolar>
-42.5708

> <Gold.PLP.part.repulsive>
0.0564

> <Gold.PLP.ligand.clash>
0.0000

> <Gold.PLP.ligand.torsion>
0.7300

> <Gold.PLP.Chemscore.Hbond>
1.0000

> <Gold.PLP.Chemscore.CHOScore>
0.0000

> <Gold.PLP.Chemscore.Metal>
0.0000

> <Gold.Chemscore.Hbonds>
donor molecule, donor type, donor heavy atom, donor atom, acceptor molecule, acceptor atom, score
      P1  H  7997  8009       L1     7  1.00

> <Gold.PLP.Chemscore.Internal.Correction>
0.0589

> <Gold.Rescore>
     Score         DG    S(hbond)    S(metal)    S(lipo)     H(rot)  DE(clash)    DE(int)     intcor
     20.83     -21.58       1.00        0.00     141.82       1.50       0.05       0.70       ----

> <Gold.Chemscore.Fitness>
20.8276

> <Gold.Chemscore.DG>
-21.5814

> <Gold.Chemscore.ZeroCoef>
-5.4800

> <Gold.Chemscore.Hbond>
1.0000

> <Gold.Chemscore.Metal>
0.0000

> <Gold.Chemscore.Lipo>
141.8163

> <Gold.Chemscore.Internal_Hbond>
0.0000

> <Gold.Chemscore.DEClash>
0.0532

> <Gold.Chemscore.DEInternal>
0.7006

> <Gold.Chemscore.Rot>
1.4965

> <Gold.Chemscore.Internal.Correction>
   9.000000E+99

> <Gold.Chemscore.Hbonds>
donor molecule, donor type, donor heavy atom, donor atom, acceptor molecule, acceptor atom, score
      P1  H  7997  8009       L1     7  1.00

> <Gold.Chemscore.Hbond.Weighted>
-3.3400

> <Gold.Chemscore.Metal.Weighted>
-0.0000

> <Gold.Chemscore.Lipo.Weighted>
-16.5925

> <Gold.Chemscore.Internal_Hbond.Weighted>
0.0000

> <Gold.Chemscore.DEClash.Weighted>
0.0532

> <Gold.Chemscore.DEInternal.Weighted>
0.7006

> <Gold.Chemscore.Rot.Weighted>
3.8311

> <Gold.Chemscore.Internal.Correction.Weighted>
   9.000000E+99

> <Gold.Protein.RotatedTorsions>
[ 6907 6896 6895 6894 ] final  -55.55 input  -60.11 | X-H torsion
[ 7974 7965 7964 7962 ] final -164.16 input  175.53 | X-H torsion
[ 8008 7997 7996 7995 ] final  113.25 input   59.86 | X-H torsion
[ 10167 10162 10161 10158 ] final   37.14 input  -65.29 | X-H torsion
[ 10718 10713 10712 10709 ] final  -10.08 input   66.30 | X-H torsion
[ 10763 10752 10751 10750 ] final -150.43 input  -60.55 | X-H torsion
[ 11005 11000 10999 10996 ] final  122.46 input  -57.11 | X-H torsion

> <Gold.Protein.ActiveResidues>
 VAL166  LYS551  ARG553  GLY616  TRP617  ASP618  TYR619  PRO620  LYS621  CYS622 
 ASP623  PHE694  ASN695  SER759  ASP760  ASP761  ALA762  ILE779  LEU786  VAL792 
 PHE793  MET794  SER795  GLU796  ALA797  LYS798  CYS799  TRP800  GLU811  SER814 

> <Gold.Protein.RotatedAtoms>
  150.8242  134.7465  159.6798 H   0  0  0  0  0  0  0  0  0  0  0  0  # atno 6907 bound_to 6896
  152.4355  134.5692  159.9926 H   0  0  0  0  0  0  0  0  0  0  0  0  # atno 6908 bound_to 6896
  151.5869  133.3333  159.3055 H   0  0  0  0  0  0  0  0  0  0  0  0  # atno 6909 bound_to 6896
  144.7305  140.3002  143.6206 H   0  0  0  0  0  0  0  0  0  0  0  0  # atno 7974 bound_to 7965
  156.2245  140.2983  156.0034 H   0  0  0  0  0  0  0  0  0  0  0  0  # atno 8008 bound_to 7997
  155.2392  140.0422  157.2990 H   0  0  0  0  0  0  0  0  0  0  0  0  # atno 8009 bound_to 7997
  154.5894  140.2397  155.7950 H   0  0  0  0  0  0  0  0  0  0  0  0  # atno 8010 bound_to 7997
  140.4061  144.1657  150.6136 H   0  0  0  0  0  0  0  0  0  0  0  0  # atno 10167 bound_to 10162
  156.6787  130.5030  149.5978 H   0  0  0  0  0  0  0  0  0  0  0  0  # atno 10718 bound_to 10713
  154.8119  135.3284  154.7281 H   0  0  0  0  0  0  0  0  0  0  0  0  # atno 10763 bound_to 10752
  153.7928  135.6909  153.4873 H   0  0  0  0  0  0  0  0  0  0  0  0  # atno 10764 bound_to 10752
  153.1905  135.4553  155.0090 H   0  0  0  0  0  0  0  0  0  0  0  0  # atno 10765 bound_to 10752
  139.9269  134.9641  156.8112 H   0  0  0  0  0  0  0  0  0  0  0  0  # atno 11005 bound_to 11000
  145.7768  139.1877  143.2181 LP  0  0  0  0  0  0  0  0  0  0  0  0  # atno 17320 bound_to 7965
  146.0866  140.7703  142.9615 LP  0  0  0  0  0  0  0  0  0  0  0  0  # atno 17321 bound_to 7965
  140.4688  143.2421  151.9118 LP  0  0  0  0  0  0  0  0  0  0  0  0  # atno 17342 bound_to 10162
  139.4783  144.5391  151.8554 LP  0  0  0  0  0  0  0  0  0  0  0  0  # atno 17343 bound_to 10162
  156.1884  130.6544  151.1033 LP  0  0  0  0  0  0  0  0  0  0  0  0  # atno 17370 bound_to 10713
  157.7051  131.0759  150.6692 LP  0  0  0  0  0  0  0  0  0  0  0  0  # atno 17371 bound_to 10713
  140.6310  133.9905  155.7662 LP  0  0  0  0  0  0  0  0  0  0  0  0  # atno 17394 bound_to 11000
  141.0833  134.0029  157.3352 LP  0  0  0  0  0  0  0  0  0  0  0  0  # atno 17395 bound_to 11000

$$$$
