AV-unprocessed.smi:2632|AV-procd|sdf|10250|dock1
  -GOLD-   2272014263D 1   1.00000     0.00000
 Structure written by MMmdl.
 38 39  0  0  0  0  0  0  0  0  1 V2000
  147.0600  136.6578  161.1908 C   0  0  0  0  0  0  0  0  0  0  0  0
  147.2143  137.4554  160.0308 O   0  0  0  0  0  0  0  0  0  0  0  0
  147.9720  136.8089  159.0211 C   0  0  0  0  0  0  0  0  0  0  0  0
  148.2521  137.7980  157.8773 C   0  0  0  0  0  0  0  0  0  0  0  0
  149.5925  138.3477  157.9224 N   0  0  0  0  0  0  0  0  0  0  0  0
  149.8756  139.7129  157.8276 C   0  0  0  0  0  0  0  0  0  0  0  0
  148.8301  140.6120  157.7013 N   0  0  0  0  0  0  0  0  0  0  0  0
  151.1572  140.1632  157.8391 C   0  0  0  0  0  0  0  0  0  0  0  0
  151.6513  141.8641  157.6970 S   0  0  0  0  0  0  0  0  0  0  0  0
  152.0498  142.2380  159.3734 C   0  0  0  0  0  0  0  0  0  0  0  0
  151.4664  143.3553  160.0031 C   0  0  0  0  0  0  0  0  0  0  0  0
  151.7929  143.6581  161.3392 C   0  0  0  0  0  0  0  0  0  0  0  0
  152.7006  142.8441  162.0485 C   0  0  0  0  0  0  0  0  0  0  0  0
  153.0504  143.1751  163.4847 C   0  0  0  0  0  0  0  0  0  0  0  0
  153.2827  141.7265  161.4140 C   0  0  0  0  0  0  0  0  0  0  0  0
  152.9567  141.4224  160.0778 C   0  0  0  0  0  0  0  0  0  0  0  0
  152.3043  139.2599  157.9541 C   0  0  0  0  0  0  0  0  0  0  0  0
  153.4925  139.5795  157.9842 O   0  0  0  0  0  0  0  0  0  0  0  0
  151.9518  137.9129  158.0297 N   0  0  0  0  0  0  0  0  0  0  0  0
  150.6521  137.4096  158.0103 C   0  0  0  0  0  0  0  0  0  0  0  0
  150.4760  136.1919  158.0643 O   0  0  0  0  0  0  0  0  0  0  0  0
  152.7042  137.2432  158.0995 H   0  0  0  0  0  0  0  0  0  0  0  0
  146.4685  137.1980  161.9297 H   0  0  0  0  0  0  0  0  0  0  0  0
  148.0264  136.4216  161.6382 H   0  0  0  0  0  0  0  0  0  0  0  0
  146.5417  135.7256  160.9622 H   0  0  0  0  0  0  0  0  0  0  0  0
  148.9164  136.4607  159.4418 H   0  0  0  0  0  0  0  0  0  0  0  0
  147.4413  135.9313  158.6492 H   0  0  0  0  0  0  0  0  0  0  0  0
  148.1213  137.3301  156.9023 H   0  0  0  0  0  0  0  0  0  0  0  0
  147.5528  138.6360  157.8873 H   0  0  0  0  0  0  0  0  0  0  0  0
  147.8684  140.3049  157.6762 H   0  0  0  0  0  0  0  0  0  0  0  0
  148.9791  141.6090  157.7645 H   0  0  0  0  0  0  0  0  0  0  0  0
  150.7723  143.9838  159.4646 H   0  0  0  0  0  0  0  0  0  0  0  0
  151.3451  144.5168  161.8175 H   0  0  0  0  0  0  0  0  0  0  0  0
  153.4659  142.3080  163.9988 H   0  0  0  0  0  0  0  0  0  0  0  0
  152.1638  143.4983  164.0311 H   0  0  0  0  0  0  0  0  0  0  0  0
  153.7865  143.9786  163.5173 H   0  0  0  0  0  0  0  0  0  0  0  0
  153.9812  141.0993  161.9484 H   0  0  0  0  0  0  0  0  0  0  0  0
  153.4070  140.5676  159.5947 H   0  0  0  0  0  0  0  0  0  0  0  0
  1  2  1  0  0  0  0
  1 23  1  0  0  0  0
  1 24  1  0  0  0  0
  1 25  1  0  0  0  0
  2  3  1  0  0  0  0
  3  4  1  0  0  0  0
  3 26  1  0  0  0  0
  3 27  1  0  0  0  0
  4  5  1  0  0  0  0
  4 28  1  0  0  0  0
  4 29  1  0  0  0  0
  5 20  1  0  0  0  0
  5  6  1  0  0  0  0
  6  7  1  0  0  0  0
  6  8  2  0  0  0  0
  7 30  1  0  0  0  0
  7 31  1  0  0  0  0
  8  9  1  0  0  0  0
  8 17  1  0  0  0  0
  9 10  1  0  0  0  0
 10 16  1  0  0  0  0
 10 11  2  0  0  0  0
 11 12  1  0  0  0  0
 11 32  1  0  0  0  0
 12 13  2  0  0  0  0
 12 33  1  0  0  0  0
 13 14  1  0  0  0  0
 13 15  1  0  0  0  0
 14 34  1  0  0  0  0
 14 35  1  0  0  0  0
 14 36  1  0  0  0  0
 15 16  2  0  0  0  0
 15 37  1  0  0  0  0
 16 38  1  0  0  0  0
 17 18  2  0  0  0  0
 17 19  1  0  0  0  0
 19 22  1  0  0  0  0
 19 20  1  0  0  0  0
 20 21  2  0  0  0  0
M  END
> <s_m_source_file>
AV-unprocessed.smi

> <i_m_source_file_index>
2632

> <i_lp_mmshare_version>
43012

> <i_f3d_flags>
0

> <s_epik_input>
W0NIM11PW0NIMl1bQ0gyXW4xYyhbTkgyXSljKGMoPU8pW25IXWMxPU8pU2MyW2NIXVtjSF1jKFtDSDNdKVtjSF1bY0hdMg==

> <s_epik_cmdline>
J2VwaWtfcHl0aG9uJywgJy1waCcsICc3LjAnLCAnLXRuJywgJzgnLCAnLW1hJywgJzIwMCcsICctbWV0YWxfYmluZGluZycsICctaW1hZScsICc8aW5maWxlLm1hZT4nLCAnLW9tYWUnLCAnPG91dGZpbGUubWFlPic=

> <r_lp_tautomer_probability>
1

> <r_epik_Ionization_Penalty>
1.3786e-05

> <r_epik_Ionization_Penalty_Charging>
1.17844e-05

> <r_epik_Ionization_Penalty_Neutral>
2.00164e-06

> <r_epik_State_Penalty>
-0

> <r_epik_Charging_Adjusted_Penalty>
1.17844e-05

> <i_epik_Tot_Q>
0

> <i_epik_Tot_abs_Q>
0

> <r_epik_Metal_State_Penalty>
0.0115847

> <b_epik_Metal_Only>
0

> <s_epik_Chemistry_Notes>
This compound has an imine and may undergo hydrolysis.

> <s_lp_Force_Field>
OPLS_2005

> <r_lp_Energy>
18.7052

> <b_lp_Chiralities_Consistent>
1

> <s_lp_Variant>
AV-unprocessed.smi:2632-1

> <Gold.Version>
5.8.1

> <Gold.Id.Protein>
6NUR|6NUR_protein|mol2

> <Gold.PLP.Fitness>
49.2623

> <Gold.PLP.PLP>
-42.1731

> <Gold.PLP.part.hbond>
-4.0000

> <Gold.PLP.part.metal>
0.0000

> <Gold.PLP.part.buried>
-4.6589

> <Gold.PLP.part.nonpolar>
-32.8536

> <Gold.PLP.part.repulsive>
0.2698

> <Gold.PLP.ligand.clash>
0.0000

> <Gold.PLP.ligand.torsion>
0.6706

> <Gold.PLP.Chemscore.Hbond>
2.8000

> <Gold.PLP.Chemscore.CHOScore>
0.0000

> <Gold.PLP.Chemscore.Metal>
0.0000

> <Gold.Chemscore.Hbonds>
donor molecule, donor type, donor heavy atom, donor atom, acceptor molecule, acceptor atom, score
      P1  H  6896  6907       L1    21  0.59
      P1  H  6934  6947       L1     2  0.75
      P1  H  7997  8008       L1    18  1.00

> <Gold.PLP.Chemscore.Internal.Correction>
0.0304

> <Gold.Rescore>
     Score         DG    S(hbond)    S(metal)    S(lipo)     H(rot)  DE(clash)    DE(int)     intcor
     18.83     -21.48       2.88        0.00      98.61       2.02       0.22       2.43       ----

> <Gold.Chemscore.Fitness>
18.8297

> <Gold.Chemscore.DG>
-21.4842

> <Gold.Chemscore.ZeroCoef>
-5.4800

> <Gold.Chemscore.Hbond>
2.8841

> <Gold.Chemscore.Metal>
0.0000

> <Gold.Chemscore.Lipo>
98.6093

> <Gold.Chemscore.Internal_Hbond>
0.0000

> <Gold.Chemscore.DEClash>
0.2235

> <Gold.Chemscore.DEInternal>
2.4310

> <Gold.Chemscore.Rot>
2.0180

> <Gold.Chemscore.Internal.Correction>
   9.000000E+99

> <Gold.Chemscore.Hbonds>
donor molecule, donor type, donor heavy atom, donor atom, acceptor molecule, acceptor atom, score
      P1  H  6896  6907       L1    21  0.60
      P1  H  6934  6947       L1     2  0.09
      P1  H  7997  8008       L1    18  0.94

> <Gold.Chemscore.Hbond.Weighted>
-9.6330

> <Gold.Chemscore.Metal.Weighted>
-0.0000

> <Gold.Chemscore.Lipo.Weighted>
-11.5373

> <Gold.Chemscore.Internal_Hbond.Weighted>
0.0000

> <Gold.Chemscore.DEClash.Weighted>
0.2235

> <Gold.Chemscore.DEInternal.Weighted>
2.4310

> <Gold.Chemscore.Rot.Weighted>
5.1661

> <Gold.Chemscore.Internal.Correction.Weighted>
   9.000000E+99

> <Gold.Protein.RotatedTorsions>
[ 6907 6896 6895 6894 ] final  -45.00 input  -60.11 | X-H torsion
[ 7974 7965 7964 7962 ] final -138.90 input  175.53 | X-H torsion
[ 8008 7997 7996 7995 ] final  -69.15 input   59.86 | X-H torsion
[ 10167 10162 10161 10158 ] final -176.83 input  -65.29 | X-H torsion
[ 10718 10713 10712 10709 ] final  -11.43 input   66.30 | X-H torsion
[ 10763 10752 10751 10750 ] final  -67.56 input  -60.55 | X-H torsion
[ 11005 11000 10999 10996 ] final -116.51 input  -57.11 | X-H torsion

> <Gold.Protein.ActiveResidues>
 VAL166  LYS551  ARG553  GLY616  TRP617  ASP618  TYR619  PRO620  LYS621  CYS622 
 ASP623  PHE694  ASN695  SER759  ASP760  ASP761  ALA762  ILE779  LEU786  VAL792 
 PHE793  MET794  SER795  GLU796  ALA797  LYS798  CYS799  TRP800  GLU811  SER814 

> <Gold.Protein.RotatedAtoms>
  150.9267  134.8684  159.7524 H   0  0  0  0  0  0  0  0  0  0  0  0  # atno 6907 bound_to 6896
  152.5019  134.4138  159.9468 H   0  0  0  0  0  0  0  0  0  0  0  0  # atno 6908 bound_to 6896
  151.4168  133.3670  159.2786 H   0  0  0  0  0  0  0  0  0  0  0  0  # atno 6909 bound_to 6896
  144.8721  140.6382  143.5260 H   0  0  0  0  0  0  0  0  0  0  0  0  # atno 7974 bound_to 7965
  154.4918  140.0859  156.7610 H   0  0  0  0  0  0  0  0  0  0  0  0  # atno 8008 bound_to 7997
  155.4213  140.3446  155.4253 H   0  0  0  0  0  0  0  0  0  0  0  0  # atno 8009 bound_to 7997
  156.1340  140.1509  156.9011 H   0  0  0  0  0  0  0  0  0  0  0  0  # atno 8010 bound_to 7997
  139.5510  144.2109  152.1077 H   0  0  0  0  0  0  0  0  0  0  0  0  # atno 10167 bound_to 10162
  156.6592  130.4977  149.6036 H   0  0  0  0  0  0  0  0  0  0  0  0  # atno 10718 bound_to 10713
  154.3762  135.6084  153.5766 H   0  0  0  0  0  0  0  0  0  0  0  0  # atno 10763 bound_to 10752
  152.9789  135.5850  154.4463 H   0  0  0  0  0  0  0  0  0  0  0  0  # atno 10764 bound_to 10752
  154.4225  135.2846  155.1943 H   0  0  0  0  0  0  0  0  0  0  0  0  # atno 10765 bound_to 10752
  141.0417  133.9825  157.2983 H   0  0  0  0  0  0  0  0  0  0  0  0  # atno 11005 bound_to 11000
  145.4111  139.1580  143.4125 LP  0  0  0  0  0  0  0  0  0  0  0  0  # atno 17320 bound_to 7965
  146.2937  140.4215  142.8730 LP  0  0  0  0  0  0  0  0  0  0  0  0  # atno 17321 bound_to 7965
  140.1604  144.5031  150.6636 LP  0  0  0  0  0  0  0  0  0  0  0  0  # atno 17342 bound_to 10162
  140.6773  143.2310  151.5475 LP  0  0  0  0  0  0  0  0  0  0  0  0  # atno 17343 bound_to 10162
  156.2024  130.6628  151.1182 LP  0  0  0  0  0  0  0  0  0  0  0  0  # atno 17370 bound_to 10713
  157.7115  131.0731  150.6482 LP  0  0  0  0  0  0  0  0  0  0  0  0  # atno 17371 bound_to 10713
  139.9281  135.0201  156.8305 LP  0  0  0  0  0  0  0  0  0  0  0  0  # atno 17394 bound_to 11000
  140.6222  133.9983  155.7623 LP  0  0  0  0  0  0  0  0  0  0  0  0  # atno 17395 bound_to 11000

$$$$
