AV-unprocessed.smi:1761|AV-procd|sdf|7098|dock6
  -GOLD-   22720 8313D 1   1.00000     0.00000
 Structure written by MMmdl.
 34 35  0  0  0  0  0  0  0  0  1 V2000
  144.4490  136.5080  152.5741 O   0  0  0  0  0  0  0  0  0  0  0  0
  145.6626  136.4421  152.3765 C   0  0  0  0  0  0  0  0  0  0  0  0
  146.2957  135.4289  151.7598 N   0  0  0  0  0  0  0  0  0  0  0  0
  145.7366  134.2332  151.2348 C   0  0  0  0  0  0  0  0  0  0  0  0
  144.3594  134.3036  150.9247 C   0  0  0  0  0  0  0  0  0  0  0  0
  143.7097  133.1718  150.3955 C   0  0  0  0  0  0  0  0  0  0  0  0
  144.4550  131.9974  150.1887 C   0  0  0  0  0  0  0  0  0  0  0  0
  145.8215  132.0114  150.5239 C   0  0  0  0  0  0  0  0  0  0  0  0
  146.4461  133.0948  151.0315 N   0  0  0  0  0  0  0  0  0  0  0  0
  146.5288  137.3936  152.7542 N   0  0  0  0  0  0  0  0  0  0  0  0
  146.1798  138.6368  153.4391 C   0  0  1  0  0  0  0  0  0  0  0  0
  146.1820  138.3587  154.9567 C   0  0  0  0  0  0  0  0  0  0  0  0
  145.9716  139.6366  155.7813 C   0  0  0  0  0  0  0  0  0  0  0  0
  147.0256  140.6949  155.4301 C   0  0  0  0  0  0  0  0  0  0  0  0
  146.9948  141.0127  153.9291 C   0  0  0  0  0  0  0  0  0  0  0  0
  147.1943  139.7474  153.0726 C   0  0  2  0  0  0  0  0  0  0  0  0
  147.0298  140.1226  151.7196 O   0  0  0  0  0  0  0  0  0  0  0  0
  147.2953  135.5217  151.6571 H   0  0  0  0  0  0  0  0  0  0  0  0
  143.8021  135.2145  151.0894 H   0  0  0  0  0  0  0  0  0  0  0  0
  142.6578  133.2058  150.1531 H   0  0  0  0  0  0  0  0  0  0  0  0
  143.9921  131.1096  149.7841 H   0  0  0  0  0  0  0  0  0  0  0  0
  146.4295  131.1304  150.3806 H   0  0  0  0  0  0  0  0  0  0  0  0
  147.5063  137.2540  152.5448 H   0  0  0  0  0  0  0  0  0  0  0  0
  145.1757  138.9652  153.1628 H   0  0  0  0  0  0  0  0  0  0  0  0
  145.4062  137.6326  155.2027 H   0  0  0  0  0  0  0  0  0  0  0  0
  147.1302  137.9034  155.2472 H   0  0  0  0  0  0  0  0  0  0  0  0
  144.9730  140.0336  155.5945 H   0  0  0  0  0  0  0  0  0  0  0  0
  146.0183  139.4041  156.8455 H   0  0  0  0  0  0  0  0  0  0  0  0
  146.8484  141.6032  156.0067 H   0  0  0  0  0  0  0  0  0  0  0  0
  148.0167  140.3364  155.7104 H   0  0  0  0  0  0  0  0  0  0  0  0
  146.0384  141.4780  153.6848 H   0  0  0  0  0  0  0  0  0  0  0  0
  147.7644  141.7487  153.6934 H   0  0  0  0  0  0  0  0  0  0  0  0
  148.2125  139.3800  153.2098 H   0  0  0  0  0  0  0  0  0  0  0  0
  147.8815  140.1568  151.3111 H   0  0  0  0  0  0  0  0  0  0  0  0
  1  2  2  0  0  0  0
  2  3  1  0  0  0  0
  2 10  1  0  0  0  0
  3  4  1  0  0  0  0
  3 18  1  0  0  0  0
  4  9  1  0  0  0  0
  4  5  2  0  0  0  0
  5  6  1  0  0  0  0
  5 19  1  0  0  0  0
  6  7  2  0  0  0  0
  6 20  1  0  0  0  0
  7  8  1  0  0  0  0
  7 21  1  0  0  0  0
  8  9  2  0  0  0  0
  8 22  1  0  0  0  0
 10 11  1  0  0  0  0
 10 23  1  0  0  0  0
 11 16  1  0  0  0  0
 11 12  1  0  0  0  0
 11 24  1  0  0  0  0
 12 13  1  0  0  0  0
 12 25  1  0  0  0  0
 12 26  1  0  0  0  0
 13 14  1  0  0  0  0
 13 27  1  0  0  0  0
 13 28  1  0  0  0  0
 14 15  1  0  0  0  0
 14 29  1  0  0  0  0
 14 30  1  0  0  0  0
 15 16  1  0  0  0  0
 15 31  1  0  0  0  0
 15 32  1  0  0  0  0
 16 17  1  0  0  0  0
 16 33  1  0  0  0  0
 17 34  1  0  0  0  0
M  END
> <s_m_source_file>
AV-unprocessed.smi

> <i_m_source_file_index>
1761

> <i_lp_mmshare_version>
43012

> <i_f3d_flags>
0

> <s_epik_input>
bjFbY0hdW2NIXVtjSF1bY0hdYzFbTkhdQyg9TylbTkhdW0NAQEhdMltDSDJdW0NIMl1bQ0gyXVtDSDJdW0NASF0yW09IXQ==

> <s_epik_cmdline>
J2VwaWtfcHl0aG9uJywgJy1waCcsICc3LjAnLCAnLXRuJywgJzgnLCAnLW1hJywgJzIwMCcsICctbWV0YWxfYmluZGluZycsICctaW1hZScsICc8aW5maWxlLm1hZT4nLCAnLW9tYWUnLCAnPG91dGZpbGUubWFlPic=

> <r_lp_tautomer_probability>
1

> <r_epik_Ionization_Penalty>
4.92589e-05

> <r_epik_Ionization_Penalty_Charging>
0

> <r_epik_Ionization_Penalty_Neutral>
4.92589e-05

> <r_epik_State_Penalty>
-0

> <r_epik_Charging_Adjusted_Penalty>
0

> <i_epik_Tot_Q>
0

> <i_epik_Tot_abs_Q>
0

> <r_epik_Metal_State_Penalty>
-0

> <b_epik_Metal_Only>
0

> <s_lp_Force_Field>
OPLS_2005

> <r_lp_Energy>
12.6575

> <b_lp_Chiralities_Consistent>
1

> <s_lp_Variant>
AV-unprocessed.smi:1761-4

> <Gold.Version>
5.8.1

> <Gold.Id.Protein>
6NUR|6NUR_protein|mol2

> <Gold.PLP.Fitness>
37.2933

> <Gold.PLP.PLP>
-26.2811

> <Gold.PLP.part.hbond>
-3.3248

> <Gold.PLP.part.metal>
0.0000

> <Gold.PLP.part.buried>
-4.4349

> <Gold.PLP.part.nonpolar>
-18.9516

> <Gold.PLP.part.repulsive>
0.4073

> <Gold.PLP.ligand.clash>
0.0000

> <Gold.PLP.ligand.torsion>
0.4824

> <Gold.PLP.Chemscore.Hbond>
2.9920

> <Gold.PLP.Chemscore.CHOScore>
1.0000

> <Gold.PLP.Chemscore.Metal>
0.0000

> <Gold.Chemscore.Hbonds>
donor molecule, donor type, donor heavy atom, donor atom, acceptor molecule, acceptor atom, score
      L1  H     3    18       P1  7948  1.00
      L1  H    10    23       P1  7948  1.00
      L1  H    17    34       P1  7957  1.00
      L1  C     8    22       P1 10747  0.94

> <Gold.PLP.Chemscore.Internal.Correction>
0.0011

> <Gold.Rescore>
     Score         DG    S(hbond)    S(metal)    S(lipo)     H(rot)  DE(clash)    DE(int)     intcor
     16.71     -18.66       2.87        0.00      62.77       1.47       0.06       1.90       ----

> <Gold.Chemscore.Fitness>
16.7058

> <Gold.Chemscore.DG>
-18.6628

> <Gold.Chemscore.ZeroCoef>
-5.4800

> <Gold.Chemscore.Hbond>
2.8713

> <Gold.Chemscore.Metal>
0.0000

> <Gold.Chemscore.Lipo>
62.7678

> <Gold.Chemscore.Internal_Hbond>
0.0000

> <Gold.Chemscore.DEClash>
0.0574

> <Gold.Chemscore.DEInternal>
1.8996

> <Gold.Chemscore.Rot>
1.4653

> <Gold.Chemscore.Internal.Correction>
   9.000000E+99

> <Gold.Chemscore.Hbonds>
donor molecule, donor type, donor heavy atom, donor atom, acceptor molecule, acceptor atom, score
      L1  H     3    18       P1  7948  0.98
      L1  H    10    23       P1  7948  0.97
      L1  H    17    34       P1  7957  1.00

> <Gold.Chemscore.Hbond.Weighted>
-9.5901

> <Gold.Chemscore.Metal.Weighted>
-0.0000

> <Gold.Chemscore.Lipo.Weighted>
-7.3438

> <Gold.Chemscore.Internal_Hbond.Weighted>
0.0000

> <Gold.Chemscore.DEClash.Weighted>
0.0574

> <Gold.Chemscore.DEInternal.Weighted>
1.8996

> <Gold.Chemscore.Rot.Weighted>
3.7511

> <Gold.Chemscore.Internal.Correction.Weighted>
   9.000000E+99

> <Gold.Protein.RotatedTorsions>
[ 6907 6896 6895 6894 ] final -141.54 input  -60.11 | X-H torsion
[ 7974 7965 7964 7962 ] final   -1.37 input  175.53 | X-H torsion
[ 8008 7997 7996 7995 ] final  -72.99 input   59.86 | X-H torsion
[ 10167 10162 10161 10158 ] final -133.77 input  -65.29 | X-H torsion
[ 10718 10713 10712 10709 ] final  -72.58 input   66.30 | X-H torsion
[ 10763 10752 10751 10750 ] final  -38.35 input  -60.55 | X-H torsion
[ 11005 11000 10999 10996 ] final   94.48 input  -57.11 | X-H torsion

> <Gold.Protein.ActiveResidues>
 VAL166  LYS551  ARG553  GLY616  TRP617  ASP618  TYR619  PRO620  LYS621  CYS622 
 ASP623  PHE694  ASN695  SER759  ASP760  ASP761  ALA762  ILE779  LEU786  VAL792 
 PHE793  MET794  SER795  GLU796  ALA797  LYS798  CYS799  TRP800  GLU811  SER814 

> <Gold.Protein.RotatedAtoms>
  151.0752  133.5434  159.2624 H   0  0  0  0  0  0  0  0  0  0  0  0  # atno 6907 bound_to 6896
  151.2358  135.0570  159.9015 H   0  0  0  0  0  0  0  0  0  0  0  0  # atno 6908 bound_to 6896
  152.5417  134.0534  159.8174 H   0  0  0  0  0  0  0  0  0  0  0  0  # atno 6909 bound_to 6896
  146.2418  140.1410  142.8335 H   0  0  0  0  0  0  0  0  0  0  0  0  # atno 7974 bound_to 7965
  154.5211  140.0787  156.8173 H   0  0  0  0  0  0  0  0  0  0  0  0  # atno 8008 bound_to 7997
  155.3575  140.3416  155.4222 H   0  0  0  0  0  0  0  0  0  0  0  0  # atno 8009 bound_to 7997
  156.1681  140.1610  156.8482 H   0  0  0  0  0  0  0  0  0  0  0  0  # atno 8010 bound_to 7997
  139.8949  143.6678  152.2605 H   0  0  0  0  0  0  0  0  0  0  0  0  # atno 10167 bound_to 10162
  156.0315  130.4375  150.2613 H   0  0  0  0  0  0  0  0  0  0  0  0  # atno 10718 bound_to 10713
  153.9114  135.6792  153.4751 H   0  0  0  0  0  0  0  0  0  0  0  0  # atno 10763 bound_to 10752
  153.1076  135.4798  154.8976 H   0  0  0  0  0  0  0  0  0  0  0  0  # atno 10764 bound_to 10752
  154.7525  135.3188  154.8487 H   0  0  0  0  0  0  0  0  0  0  0  0  # atno 10765 bound_to 10752
  139.8798  134.8847  156.3870 H   0  0  0  0  0  0  0  0  0  0  0  0  # atno 11005 bound_to 11000
  145.0247  140.8822  143.5146 LP  0  0  0  0  0  0  0  0  0  0  0  0  # atno 17320 bound_to 7965
  145.1464  139.2541  143.5463 LP  0  0  0  0  0  0  0  0  0  0  0  0  # atno 17321 bound_to 7965
  139.7077  144.7625  151.1165 LP  0  0  0  0  0  0  0  0  0  0  0  0  # atno 17342 bound_to 10162
  140.7719  143.5373  150.9354 LP  0  0  0  0  0  0  0  0  0  0  0  0  # atno 17343 bound_to 10162
  157.0715  131.0118  151.3188 LP  0  0  0  0  0  0  0  0  0  0  0  0  # atno 17370 bound_to 10713
  157.4995  130.7871  149.7590 LP  0  0  0  0  0  0  0  0  0  0  0  0  # atno 17371 bound_to 10713
  140.9359  133.7547  156.0084 LP  0  0  0  0  0  0  0  0  0  0  0  0  # atno 17394 bound_to 11000
  140.8276  134.3216  157.5360 LP  0  0  0  0  0  0  0  0  0  0  0  0  # atno 17395 bound_to 11000

$$$$
