AV-unprocessed.smi:2996|AV-procd|sdf|11411|dock4
  -GOLD-   2272016333D 1   1.00000     0.00000
 Structure written by MMmdl.
 46 47  0  0  0  0  0  0  0  0  1 V2000
  152.5956  138.6793  154.8196 C   0  0  0  0  0  0  0  0  0  0  0  0
  151.1932  138.1769  154.4576 C   0  0  0  0  0  0  0  0  0  0  0  0
  150.1919  139.2977  154.4001 C   0  0  0  0  0  0  0  0  0  0  0  0
  150.5230  140.5075  154.8231 N   0  0  0  0  0  0  0  0  0  0  0  0
  149.3898  141.3139  154.6363 O   0  0  0  0  0  0  0  0  0  0  0  0
  148.3883  140.5639  154.1019 C   0  0  0  0  0  0  0  0  0  0  0  0
  147.1197  141.2868  153.7894 C   0  0  0  0  0  0  0  0  0  0  0  0
  148.8426  139.2800  153.9593 C   0  0  0  0  0  0  0  0  0  0  0  0
  148.1852  138.1421  153.4263 N   0  0  0  0  0  0  0  0  0  0  0  0
  146.9681  137.6816  153.7530 C   0  0  0  0  0  0  0  0  0  0  0  0
  146.2254  138.1859  154.5945 O   0  0  0  0  0  0  0  0  0  0  0  0
  146.6669  136.5723  153.0644 N   0  0  0  0  0  0  0  0  0  0  0  0
  145.4435  135.7891  153.2255 C   0  0  1  0  0  0  0  0  0  0  0  0
  144.7371  135.5735  151.9016 C   0  0  0  0  0  0  0  0  0  0  0  0
  143.9054  134.3089  152.1526 C   0  0  0  0  0  0  0  0  0  0  0  0
  142.4992  134.6410  152.6800 C   0  0  0  0  0  0  0  0  0  0  0  0
  143.8287  133.4058  150.9118 C   0  0  0  0  0  0  0  0  0  0  0  0
  144.5884  133.6012  153.1869 O   0  0  0  0  0  0  0  0  0  0  0  0
  145.6883  134.3438  153.7101 C   0  0  0  0  0  0  0  0  0  0  0  0
  146.9679  133.6914  153.1448 C   0  0  0  0  0  0  0  0  0  0  0  0
  145.6512  134.2267  155.2419 C   0  0  0  0  0  0  0  0  0  0  0  0
  153.3051  137.8528  154.8637 H   0  0  0  0  0  0  0  0  0  0  0  0
  152.5973  139.1729  155.7920 H   0  0  0  0  0  0  0  0  0  0  0  0
  152.9620  139.3926  154.0807 H   0  0  0  0  0  0  0  0  0  0  0  0
  151.2304  137.6597  153.4981 H   0  0  0  0  0  0  0  0  0  0  0  0
  150.8778  137.4314  155.1878 H   0  0  0  0  0  0  0  0  0  0  0  0
  146.6661  140.9009  152.8766 H   0  0  0  0  0  0  0  0  0  0  0  0
  147.3030  142.3517  153.6455 H   0  0  0  0  0  0  0  0  0  0  0  0
  146.4015  141.1773  154.6020 H   0  0  0  0  0  0  0  0  0  0  0  0
  148.7346  137.5658  152.8061 H   0  0  0  0  0  0  0  0  0  0  0  0
  147.3409  136.2286  152.3963 H   0  0  0  0  0  0  0  0  0  0  0  0
  144.7503  136.2985  153.8981 H   0  0  0  0  0  0  0  0  0  0  0  0
  144.1346  136.4307  151.5985 H   0  0  0  0  0  0  0  0  0  0  0  0
  145.4696  135.3954  151.1126 H   0  0  0  0  0  0  0  0  0  0  0  0
  141.9221  135.1977  151.9413 H   0  0  0  0  0  0  0  0  0  0  0  0
  142.5441  135.2430  153.5880 H   0  0  0  0  0  0  0  0  0  0  0  0
  141.9444  133.7328  152.9176 H   0  0  0  0  0  0  0  0  0  0  0  0
  143.3283  133.9123  150.0861 H   0  0  0  0  0  0  0  0  0  0  0  0
  143.2760  132.4903  151.1253 H   0  0  0  0  0  0  0  0  0  0  0  0
  144.8231  133.1152  150.5715 H   0  0  0  0  0  0  0  0  0  0  0  0
  147.8678  134.1717  153.5296 H   0  0  0  0  0  0  0  0  0  0  0  0
  147.0009  133.7448  152.0565 H   0  0  0  0  0  0  0  0  0  0  0  0
  147.0208  132.6373  153.4191 H   0  0  0  0  0  0  0  0  0  0  0  0
  146.4753  134.7728  155.7012 H   0  0  0  0  0  0  0  0  0  0  0  0
  145.7269  133.1862  155.5587 H   0  0  0  0  0  0  0  0  0  0  0  0
  144.7206  134.6256  155.6470 H   0  0  0  0  0  0  0  0  0  0  0  0
  1  2  1  0  0  0  0
  1 22  1  0  0  0  0
  1 23  1  0  0  0  0
  1 24  1  0  0  0  0
  2  3  1  0  0  0  0
  2 25  1  0  0  0  0
  2 26  1  0  0  0  0
  3  8  1  0  0  0  0
  3  4  2  0  0  0  0
  4  5  1  0  0  0  0
  5  6  1  0  0  0  0
  6  7  1  0  0  0  0
  6  8  2  0  0  0  0
  7 27  1  0  0  0  0
  7 28  1  0  0  0  0
  7 29  1  0  0  0  0
  8  9  1  0  0  0  0
  9 10  1  0  0  0  0
  9 30  1  0  0  0  0
 10 11  2  0  0  0  0
 10 12  1  0  0  0  0
 12 13  1  0  0  0  0
 12 31  1  0  0  0  0
 13 19  1  0  0  0  0
 13 14  1  0  0  0  0
 13 32  1  0  0  0  0
 14 15  1  0  0  0  0
 14 33  1  0  0  0  0
 14 34  1  0  0  0  0
 15 16  1  0  0  0  0
 15 17  1  0  0  0  0
 15 18  1  0  0  0  0
 16 35  1  0  0  0  0
 16 36  1  0  0  0  0
 16 37  1  0  0  0  0
 17 38  1  0  0  0  0
 17 39  1  0  0  0  0
 17 40  1  0  0  0  0
 18 19  1  0  0  0  0
 19 20  1  0  0  0  0
 19 21  1  0  0  0  0
 20 41  1  0  0  0  0
 20 42  1  0  0  0  0
 20 43  1  0  0  0  0
 21 44  1  0  0  0  0
 21 45  1  0  0  0  0
 21 46  1  0  0  0  0
M  END
> <s_m_source_file>
AV-unprocessed.smi

> <i_m_source_file_index>
2996

> <i_lp_mmshare_version>
43012

> <i_f3d_flags>
0

> <s_epik_input>
W0NIM11bQ0gyXWMxbm9jKFtDSDNdKWMxW05IXUMoPU8pW05IXVtDQEBIXShDKE8yKShbQ0gzXSlbQ0gzXSlbQ0gyXUMyKFtDSDNdKVtDSDNd

> <s_epik_cmdline>
J2VwaWtfcHl0aG9uJywgJy1waCcsICc3LjAnLCAnLXRuJywgJzgnLCAnLW1hJywgJzIwMCcsICctbWV0YWxfYmluZGluZycsICctaW1hZScsICc8aW5maWxlLm1hZT4nLCAnLW9tYWUnLCAnPG91dGZpbGUubWFlPic=

> <r_lp_tautomer_probability>
1

> <r_epik_Ionization_Penalty>
3.17207e-05

> <r_epik_Ionization_Penalty_Charging>
0

> <r_epik_Ionization_Penalty_Neutral>
3.17207e-05

> <r_epik_State_Penalty>
-0

> <r_epik_Charging_Adjusted_Penalty>
0

> <i_epik_Tot_Q>
0

> <i_epik_Tot_abs_Q>
0

> <r_epik_Metal_State_Penalty>
-0

> <b_epik_Metal_Only>
0

> <s_lp_Force_Field>
OPLS_2005

> <r_lp_Energy>
17.4613

> <b_lp_Chiralities_Consistent>
1

> <s_lp_Variant>
AV-unprocessed.smi:2996-2

> <Gold.Version>
5.8.1

> <Gold.Id.Protein>
6NUR|6NUR_protein|mol2

> <Gold.PLP.Fitness>
39.1631

> <Gold.PLP.PLP>
-31.5310

> <Gold.PLP.part.hbond>
-3.7182

> <Gold.PLP.part.metal>
0.0000

> <Gold.PLP.part.buried>
-3.3331

> <Gold.PLP.part.nonpolar>
-26.3233

> <Gold.PLP.part.repulsive>
0.6908

> <Gold.PLP.ligand.clash>
0.0000

> <Gold.PLP.ligand.torsion>
0.5196

> <Gold.PLP.Chemscore.Hbond>
2.8260

> <Gold.PLP.Chemscore.CHOScore>
0.0000

> <Gold.PLP.Chemscore.Metal>
0.0000

> <Gold.Chemscore.Hbonds>
donor molecule, donor type, donor heavy atom, donor atom, acceptor molecule, acceptor atom, score
      L1  H     9    30       P1  7948  1.00
      L1  H    12    31       P1  7948  0.98
      P1  H  7989  7998       L1     4  0.85

> <Gold.PLP.Chemscore.Internal.Correction>
0.1934

> <Gold.Rescore>
     Score         DG    S(hbond)    S(metal)    S(lipo)     H(rot)  DE(clash)    DE(int)     intcor
     17.40     -17.98       1.94        0.00      76.71       1.16       0.09       0.49       ----

> <Gold.Chemscore.Fitness>
17.3953

> <Gold.Chemscore.DG>
-17.9771

> <Gold.Chemscore.ZeroCoef>
-5.4800

> <Gold.Chemscore.Hbond>
1.9429

> <Gold.Chemscore.Metal>
0.0000

> <Gold.Chemscore.Lipo>
76.7075

> <Gold.Chemscore.Internal_Hbond>
0.0000

> <Gold.Chemscore.DEClash>
0.0873

> <Gold.Chemscore.DEInternal>
0.4944

> <Gold.Chemscore.Rot>
1.1590

> <Gold.Chemscore.Internal.Correction>
   9.000000E+99

> <Gold.Chemscore.Hbonds>
donor molecule, donor type, donor heavy atom, donor atom, acceptor molecule, acceptor atom, score
      L1  H     9    30       P1  7948  0.97
      L1  H    12    31       P1  7948  0.93
      P1  H  7989  7998       L1     4  0.08

> <Gold.Chemscore.Hbond.Weighted>
-6.4894

> <Gold.Chemscore.Metal.Weighted>
-0.0000

> <Gold.Chemscore.Lipo.Weighted>
-8.9748

> <Gold.Chemscore.Internal_Hbond.Weighted>
0.0000

> <Gold.Chemscore.DEClash.Weighted>
0.0873

> <Gold.Chemscore.DEInternal.Weighted>
0.4944

> <Gold.Chemscore.Rot.Weighted>
2.9671

> <Gold.Chemscore.Internal.Correction.Weighted>
   9.000000E+99

> <Gold.Protein.RotatedTorsions>
[ 6907 6896 6895 6894 ] final -149.58 input  -60.11 | X-H torsion
[ 7974 7965 7964 7962 ] final  158.27 input  175.53 | X-H torsion
[ 8008 7997 7996 7995 ] final -141.06 input   59.86 | X-H torsion
[ 10167 10162 10161 10158 ] final  -83.32 input  -65.29 | X-H torsion
[ 10718 10713 10712 10709 ] final -131.17 input   66.30 | X-H torsion
[ 10763 10752 10751 10750 ] final  -91.42 input  -60.55 | X-H torsion
[ 11005 11000 10999 10996 ] final    2.05 input  -57.11 | X-H torsion

> <Gold.Protein.ActiveResidues>
 VAL166  LYS551  ARG553  GLY616  TRP617  ASP618  TYR619  PRO620  LYS621  CYS622 
 ASP623  PHE694  ASN695  SER759  ASP760  ASP761  ALA762  ILE779  LEU786  VAL792 
 PHE793  MET794  SER795  GLU796  ALA797  LYS798  CYS799  TRP800  GLU811  SER814 

> <Gold.Protein.RotatedAtoms>
  151.1862  133.4695  159.2594 H   0  0  0  0  0  0  0  0  0  0  0  0  # atno 6907 bound_to 6896
  151.1209  135.0079  159.8548 H   0  0  0  0  0  0  0  0  0  0  0  0  # atno 6908 bound_to 6896
  152.5456  134.1773  159.8674 H   0  0  0  0  0  0  0  0  0  0  0  0  # atno 6909 bound_to 6896
  144.7855  139.7454  143.6242 H   0  0  0  0  0  0  0  0  0  0  0  0  # atno 7974 bound_to 7965
  155.4715  140.0553  157.2979 H   0  0  0  0  0  0  0  0  0  0  0  0  # atno 8008 bound_to 7997
  154.4696  140.2034  155.9982 H   0  0  0  0  0  0  0  0  0  0  0  0  # atno 8009 bound_to 7997
  156.1034  140.3215  155.7977 H   0  0  0  0  0  0  0  0  0  0  0  0  # atno 8010 bound_to 7997
  140.4238  143.2574  151.8854 H   0  0  0  0  0  0  0  0  0  0  0  0  # atno 10167 bound_to 10162
  156.2217  130.6983  151.0763 H   0  0  0  0  0  0  0  0  0  0  0  0  # atno 10718 bound_to 10713
  154.6759  135.5268  153.8198 H   0  0  0  0  0  0  0  0  0  0  0  0  # atno 10763 bound_to 10752
  153.0532  135.6540  154.0652 H   0  0  0  0  0  0  0  0  0  0  0  0  # atno 10764 bound_to 10752
  154.0546  135.2966  155.3315 H   0  0  0  0  0  0  0  0  0  0  0  0  # atno 10765 bound_to 10752
  140.6086  133.9769  155.8166 H   0  0  0  0  0  0  0  0  0  0  0  0  # atno 11005 bound_to 11000
  146.2085  139.5426  142.9696 LP  0  0  0  0  0  0  0  0  0  0  0  0  # atno 17320 bound_to 7965
  145.5932  141.0366  143.2059 LP  0  0  0  0  0  0  0  0  0  0  0  0  # atno 17321 bound_to 7965
  139.4783  144.5409  151.8529 LP  0  0  0  0  0  0  0  0  0  0  0  0  # atno 17342 bound_to 10162
  140.4504  144.1862  150.5897 LP  0  0  0  0  0  0  0  0  0  0  0  0  # atno 17343 bound_to 10162
  157.7091  131.0743  150.6565 LP  0  0  0  0  0  0  0  0  0  0  0  0  # atno 17370 bound_to 10713
  156.6628  130.4517  149.5682 LP  0  0  0  0  0  0  0  0  0  0  0  0  # atno 17371 bound_to 10713
  141.0824  134.0043  157.3366 LP  0  0  0  0  0  0  0  0  0  0  0  0  # atno 17394 bound_to 11000
  139.9202  135.0200  156.8034 LP  0  0  0  0  0  0  0  0  0  0  0  0  # atno 17395 bound_to 11000

$$$$
