AV-unprocessed.smi:1984|AV-procd|sdf|8041|dock4
  -GOLD-   2272010233D 1   1.00000     0.00000
 Structure written by MMmdl.
 38 39  0  0  0  0  0  0  0  0  1 V2000
  151.4216  144.1143  157.5846 C   0  0  0  0  0  0  0  0  0  0  0  0
  151.8723  143.5871  158.9147 C   0  0  0  0  0  0  0  0  0  0  0  0
  151.7350  144.1912  160.1958 C   0  0  0  0  0  0  0  0  0  0  0  0
  152.3125  143.2986  161.0541 C   0  0  0  0  0  0  0  0  0  0  0  0
  152.4831  143.3607  162.5367 C   0  0  0  0  0  0  0  0  0  0  0  0
  152.7590  142.2361  160.2875 N   0  0  0  0  0  0  0  0  0  0  0  0
  153.4451  141.0234  160.7084 C   0  0  0  0  0  0  0  0  0  0  0  0
  153.7326  140.0962  159.5240 C   0  0  0  0  0  0  0  0  0  0  0  0
  154.8925  139.8202  159.2174 O   0  0  0  0  0  0  0  0  0  0  0  0
  152.6660  139.6182  158.8671 N   0  0  0  0  0  0  0  0  0  0  0  0
  152.7393  138.7152  157.7256 C   0  0  0  0  0  0  0  0  0  0  0  0
  151.9383  139.2571  156.5288 C   0  0  1  0  0  0  0  0  0  0  0  0
  151.6887  138.2035  155.4287 C   0  0  0  0  0  0  0  0  0  0  0  0
  150.6505  138.7554  154.4465 C   0  0  0  0  0  0  0  0  0  0  0  0
  149.5150  139.7816  155.4520 S   0  0  0  0  0  0  0  0  0  0  0  0
  149.4383  141.1271  154.8635 O   0  0  0  0  0  0  0  0  0  0  0  0
  148.2963  139.0151  155.7516 O   0  0  0  0  0  0  0  0  0  0  0  0
  150.5734  139.8255  156.9486 C   0  0  0  0  0  0  0  0  0  0  0  0
  152.4831  142.4156  158.9771 N   0  0  0  0  0  0  0  0  0  0  0  0
  150.9581  145.0957  157.6859 H   0  0  0  0  0  0  0  0  0  0  0  0
  150.6909  143.4482  157.1252 H   0  0  0  0  0  0  0  0  0  0  0  0
  152.2619  144.2142  156.8970 H   0  0  0  0  0  0  0  0  0  0  0  0
  151.2810  145.1384  160.4464 H   0  0  0  0  0  0  0  0  0  0  0  0
  151.9985  144.2467  162.9474 H   0  0  0  0  0  0  0  0  0  0  0  0
  153.5387  143.4024  162.8052 H   0  0  0  0  0  0  0  0  0  0  0  0
  152.0434  142.4869  163.0172 H   0  0  0  0  0  0  0  0  0  0  0  0
  154.3687  141.3028  161.2169 H   0  0  0  0  0  0  0  0  0  0  0  0
  152.8311  140.4920  161.4374 H   0  0  0  0  0  0  0  0  0  0  0  0
  151.7464  139.8918  159.1819 H   0  0  0  0  0  0  0  0  0  0  0  0
  153.7824  138.5671  157.4408 H   0  0  0  0  0  0  0  0  0  0  0  0
  152.3485  137.7410  158.0237 H   0  0  0  0  0  0  0  0  0  0  0  0
  152.5028  140.0736  156.0758 H   0  0  0  0  0  0  0  0  0  0  0  0
  152.6080  137.9248  154.9128 H   0  0  0  0  0  0  0  0  0  0  0  0
  151.2932  137.2956  155.8858 H   0  0  0  0  0  0  0  0  0  0  0  0
  151.1231  139.4012  153.7060 H   0  0  0  0  0  0  0  0  0  0  0  0
  150.0951  137.9746  153.9267 H   0  0  0  0  0  0  0  0  0  0  0  0
  150.1018  139.1981  157.7057 H   0  0  0  0  0  0  0  0  0  0  0  0
  150.6377  140.8430  157.3346 H   0  0  0  0  0  0  0  0  0  0  0  0
  1  2  1  0  0  0  0
  1 20  1  0  0  0  0
  1 21  1  0  0  0  0
  1 22  1  0  0  0  0
  2 19  2  0  0  0  0
  2  3  1  0  0  0  0
  3  4  2  0  0  0  0
  3 23  1  0  0  0  0
  4  5  1  0  0  0  0
  4  6  1  0  0  0  0
  5 24  1  0  0  0  0
  5 25  1  0  0  0  0
  5 26  1  0  0  0  0
  6  7  1  0  0  0  0
  6 19  1  0  0  0  0
  7  8  1  0  0  0  0
  7 27  1  0  0  0  0
  7 28  1  0  0  0  0
  8  9  2  0  0  0  0
  8 10  1  0  0  0  0
 10 11  1  0  0  0  0
 10 29  1  0  0  0  0
 11 12  1  0  0  0  0
 11 30  1  0  0  0  0
 11 31  1  0  0  0  0
 12 18  1  0  0  0  0
 12 13  1  0  0  0  0
 12 32  1  0  0  0  0
 13 14  1  0  0  0  0
 13 33  1  0  0  0  0
 13 34  1  0  0  0  0
 14 15  1  0  0  0  0
 14 35  1  0  0  0  0
 14 36  1  0  0  0  0
 15 16  2  0  0  0  0
 15 17  2  0  0  0  0
 15 18  1  0  0  0  0
 18 37  1  0  0  0  0
 18 38  1  0  0  0  0
M  END
> <s_m_source_file>
AV-unprocessed.smi

> <i_m_source_file_index>
1984

> <i_lp_mmshare_version>
43012

> <i_f3d_flags>
0

> <s_epik_input>
W0NIM11jMVtjSF1jKFtDSDNdKW4objEpW0NIMl1DKD1PKVtOSF1bQ0gyXVtDQEBIXShbQ0gyXTIpW0NIMl1bQ0gyXVMyKD1PKT1P

> <s_epik_cmdline>
J2VwaWtfcHl0aG9uJywgJy1waCcsICc3LjAnLCAnLXRuJywgJzgnLCAnLW1hJywgJzIwMCcsICctbWV0YWxfYmluZGluZycsICctaW1hZScsICc8aW5maWxlLm1hZT4nLCAnLW9tYWUnLCAnPG91dGZpbGUubWFlPic=

> <r_lp_tautomer_probability>
1

> <r_epik_Ionization_Penalty>
0.000335865

> <r_epik_Ionization_Penalty_Charging>
0

> <r_epik_Ionization_Penalty_Neutral>
0.000335865

> <r_epik_State_Penalty>
-0

> <r_epik_Charging_Adjusted_Penalty>
0

> <i_epik_Tot_Q>
0

> <i_epik_Tot_abs_Q>
0

> <r_epik_Metal_State_Penalty>
-0

> <b_epik_Metal_Only>
0

> <s_lp_Force_Field>
OPLS_2005

> <r_lp_Energy>
4.96267

> <b_lp_Chiralities_Consistent>
1

> <s_lp_Variant>
AV-unprocessed.smi:1984-2

> <Gold.Version>
5.8.1

> <Gold.Id.Protein>
6NUR|6NUR_protein|mol2

> <Gold.PLP.Fitness>
45.7294

> <Gold.PLP.PLP>
-42.5917

> <Gold.PLP.part.hbond>
-2.0781

> <Gold.PLP.part.metal>
0.0000

> <Gold.PLP.part.buried>
-2.9622

> <Gold.PLP.part.nonpolar>
-36.1228

> <Gold.PLP.part.repulsive>
0.2665

> <Gold.PLP.ligand.clash>
0.0000

> <Gold.PLP.ligand.torsion>
0.1476

> <Gold.PLP.Chemscore.Hbond>
1.1421

> <Gold.PLP.Chemscore.CHOScore>
0.0000

> <Gold.PLP.Chemscore.Metal>
0.0000

> <Gold.Chemscore.Hbonds>
donor molecule, donor type, donor heavy atom, donor atom, acceptor molecule, acceptor atom, score
      P1  H  7997  8009       L1     9  1.00

> <Gold.PLP.Chemscore.Internal.Correction>
0.0065

> <Gold.Rescore>
     Score         DG    S(hbond)    S(metal)    S(lipo)     H(rot)  DE(clash)    DE(int)     intcor
     15.25     -16.92       1.06        0.00     104.31       1.68       0.04       1.64       ----

> <Gold.Chemscore.Fitness>
15.2455

> <Gold.Chemscore.DG>
-16.9195

> <Gold.Chemscore.ZeroCoef>
-5.4800

> <Gold.Chemscore.Hbond>
1.0582

> <Gold.Chemscore.Metal>
0.0000

> <Gold.Chemscore.Lipo>
104.3116

> <Gold.Chemscore.Internal_Hbond>
0.0000

> <Gold.Chemscore.DEClash>
0.0387

> <Gold.Chemscore.DEInternal>
1.6353

> <Gold.Chemscore.Rot>
1.6795

> <Gold.Chemscore.Internal.Correction>
   9.000000E+99

> <Gold.Chemscore.Hbonds>
donor molecule, donor type, donor heavy atom, donor atom, acceptor molecule, acceptor atom, score
      P1  H  7997  8009       L1     9  0.81

> <Gold.Chemscore.Hbond.Weighted>
-3.5345

> <Gold.Chemscore.Metal.Weighted>
-0.0000

> <Gold.Chemscore.Lipo.Weighted>
-12.2045

> <Gold.Chemscore.Internal_Hbond.Weighted>
0.0000

> <Gold.Chemscore.DEClash.Weighted>
0.0387

> <Gold.Chemscore.DEInternal.Weighted>
1.6353

> <Gold.Chemscore.Rot.Weighted>
4.2995

> <Gold.Chemscore.Internal.Correction.Weighted>
   9.000000E+99

> <Gold.Protein.RotatedTorsions>
[ 6907 6896 6895 6894 ] final  -56.45 input  -60.11 | X-H torsion
[ 7974 7965 7964 7962 ] final   80.31 input  175.53 | X-H torsion
[ 8008 7997 7996 7995 ] final  114.67 input   59.86 | X-H torsion
[ 10167 10162 10161 10158 ] final -158.93 input  -65.29 | X-H torsion
[ 10718 10713 10712 10709 ] final  -71.13 input   66.30 | X-H torsion
[ 10763 10752 10751 10750 ] final  -63.95 input  -60.55 | X-H torsion
[ 11005 11000 10999 10996 ] final -150.10 input  -57.11 | X-H torsion

> <Gold.Protein.ActiveResidues>
 VAL166  LYS551  ARG553  GLY616  TRP617  ASP618  TYR619  PRO620  LYS621  CYS622 
 ASP623  PHE694  ASN695  SER759  ASP760  ASP761  ALA762  ILE779  LEU786  VAL792 
 PHE793  MET794  SER795  GLU796  ALA797  LYS798  CYS799  TRP800  GLU811  SER814 

> <Gold.Protein.RotatedAtoms>
  150.8167  134.7352  159.6735 H   0  0  0  0  0  0  0  0  0  0  0  0  # atno 6907 bound_to 6896
  152.4285  134.5820  159.9960 H   0  0  0  0  0  0  0  0  0  0  0  0  # atno 6908 bound_to 6896
  151.6015  133.3318  159.3084 H   0  0  0  0  0  0  0  0  0  0  0  0  # atno 6909 bound_to 6896
  145.6528  139.2452  143.1967 H   0  0  0  0  0  0  0  0  0  0  0  0  # atno 7974 bound_to 7965
  156.2335  140.2954  156.0250 H   0  0  0  0  0  0  0  0  0  0  0  0  # atno 8008 bound_to 7997
  155.2158  140.0414  157.2958 H   0  0  0  0  0  0  0  0  0  0  0  0  # atno 8009 bound_to 7997
  154.6037  140.2433  155.7766 H   0  0  0  0  0  0  0  0  0  0  0  0  # atno 8010 bound_to 7997
  139.6654  143.9838  152.2251 H   0  0  0  0  0  0  0  0  0  0  0  0  # atno 10167 bound_to 10162
  156.0376  130.4345  150.2398 H   0  0  0  0  0  0  0  0  0  0  0  0  # atno 10718 bound_to 10713
  154.3228  135.6193  153.5515 H   0  0  0  0  0  0  0  0  0  0  0  0  # atno 10763 bound_to 10752
  152.9818  135.5728  154.5050 H   0  0  0  0  0  0  0  0  0  0  0  0  # atno 10764 bound_to 10752
  154.4722  135.2860  155.1611 H   0  0  0  0  0  0  0  0  0  0  0  0  # atno 10765 bound_to 10752
  140.7438  134.3484  157.5141 H   0  0  0  0  0  0  0  0  0  0  0  0  # atno 11005 bound_to 11000
  146.1189  140.7334  142.9467 LP  0  0  0  0  0  0  0  0  0  0  0  0  # atno 17320 bound_to 7965
  144.7116  140.4060  143.7076 LP  0  0  0  0  0  0  0  0  0  0  0  0  # atno 17321 bound_to 7965
  139.9588  144.6571  150.8099 LP  0  0  0  0  0  0  0  0  0  0  0  0  # atno 17342 bound_to 10162
  140.7597  143.3135  151.2788 LP  0  0  0  0  0  0  0  0  0  0  0  0  # atno 17343 bound_to 10162
  157.0496  131.0059  151.3258 LP  0  0  0  0  0  0  0  0  0  0  0  0  # atno 17370 bound_to 10713
  157.5150  130.7962  149.7746 LP  0  0  0  0  0  0  0  0  0  0  0  0  # atno 17371 bound_to 10713
  139.8801  134.9098  156.2998 LP  0  0  0  0  0  0  0  0  0  0  0  0  # atno 17394 bound_to 11000
  140.9813  133.7265  156.0676 LP  0  0  0  0  0  0  0  0  0  0  0  0  # atno 17395 bound_to 11000

$$$$
