AV-unprocessed.smi:1851|AV-procd|sdf|7523|dock1
  -GOLD-   22720 9233D 1   1.00000     0.00000
 Structure written by MMmdl.
 39 41  0  0  0  0  0  0  0  0  1 V2000
  149.5022  141.2609  153.9234 O   0  0  0  0  0  0  0  0  0  0  0  0
  148.9507  140.5318  154.7461 C   0  0  0  0  0  0  0  0  0  0  0  0
  149.5805  139.9090  155.7526 N   0  0  0  0  0  0  0  0  0  0  0  0
  151.0118  139.9910  156.0250 C   0  0  0  0  0  0  0  0  0  0  0  0
  151.2713  141.1388  156.9569 C   0  0  0  0  0  0  0  0  0  0  0  0
  151.0554  142.4044  156.5960 N   0  0  0  0  0  0  0  0  0  0  0  0
  151.4083  143.1094  157.7300 C   0  0  0  0  0  0  0  0  0  0  0  0
  151.4009  144.4990  157.9875 C   0  0  0  0  0  0  0  0  0  0  0  0
  151.8044  144.9939  159.2453 C   0  0  0  0  0  0  0  0  0  0  0  0
  152.2209  144.1088  160.2607 C   0  0  0  0  0  0  0  0  0  0  0  0
  152.2379  142.7207  160.0240 C   0  0  0  0  0  0  0  0  0  0  0  0
  151.8348  142.2321  158.7668 C   0  0  0  0  0  0  0  0  0  0  0  0
  151.7331  140.9572  158.2200 N   0  0  0  0  0  0  0  0  0  0  0  0
  152.0508  139.7082  158.8935 C   0  0  0  0  0  0  0  0  0  0  0  0
  153.0760  138.8884  158.1014 C   0  0  0  0  0  0  0  0  0  0  0  0
  154.3431  139.0150  158.7311 O   0  0  0  0  0  0  0  0  0  0  0  0
  154.4531  138.6450  160.0545 C   0  0  0  0  0  0  0  0  0  0  0  0
  153.5878  137.6280  160.5088 C   0  0  0  0  0  0  0  0  0  0  0  0
  153.6303  137.1886  161.8459 C   0  0  0  0  0  0  0  0  0  0  0  0
  154.5446  137.7652  162.7471 C   0  0  0  0  0  0  0  0  0  0  0  0
  154.5984  137.2294  164.3864 Cl  0  0  0  0  0  0  0  0  0  0  0  0
  155.4149  138.7800  162.3074 C   0  0  0  0  0  0  0  0  0  0  0  0
  155.3718  139.2195  160.9697 C   0  0  0  0  0  0  0  0  0  0  0  0
  147.8740  140.3030  154.7564 H   0  0  0  0  0  0  0  0  0  0  0  0
  149.0301  139.3311  156.3712 H   0  0  0  0  0  0  0  0  0  0  0  0
  151.3828  139.0636  156.4652 H   0  0  0  0  0  0  0  0  0  0  0  0
  151.5554  140.1341  155.0914 H   0  0  0  0  0  0  0  0  0  0  0  0
  151.0827  145.1852  157.2166 H   0  0  0  0  0  0  0  0  0  0  0  0
  151.7934  146.0577  159.4321 H   0  0  0  0  0  0  0  0  0  0  0  0
  152.5272  144.4957  161.2214 H   0  0  0  0  0  0  0  0  0  0  0  0
  152.5559  142.0401  160.7994 H   0  0  0  0  0  0  0  0  0  0  0  0
  152.4196  139.9186  159.8973 H   0  0  0  0  0  0  0  0  0  0  0  0
  151.1305  139.1370  159.0197 H   0  0  0  0  0  0  0  0  0  0  0  0
  152.7696  137.8413  158.0767 H   0  0  0  0  0  0  0  0  0  0  0  0
  153.1279  139.2534  157.0744 H   0  0  0  0  0  0  0  0  0  0  0  0
  152.8824  137.1800  159.8245 H   0  0  0  0  0  0  0  0  0  0  0  0
  152.9606  136.4090  162.1786 H   0  0  0  0  0  0  0  0  0  0  0  0
  156.1184  139.2245  162.9960 H   0  0  0  0  0  0  0  0  0  0  0  0
  156.0553  139.9995  160.6709 H   0  0  0  0  0  0  0  0  0  0  0  0
  1  2  2  0  0  0  0
  2  3  1  0  0  0  0
  2 24  1  0  0  0  0
  3  4  1  0  0  0  0
  3 25  1  0  0  0  0
  4  5  1  0  0  0  0
  4 26  1  0  0  0  0
  4 27  1  0  0  0  0
  5 13  1  0  0  0  0
  5  6  2  0  0  0  0
  6  7  1  0  0  0  0
  7 12  2  0  0  0  0
  7  8  1  0  0  0  0
  8  9  2  0  0  0  0
  8 28  1  0  0  0  0
  9 10  1  0  0  0  0
  9 29  1  0  0  0  0
 10 11  2  0  0  0  0
 10 30  1  0  0  0  0
 11 12  1  0  0  0  0
 11 31  1  0  0  0  0
 12 13  1  0  0  0  0
 13 14  1  0  0  0  0
 14 15  1  0  0  0  0
 14 32  1  0  0  0  0
 14 33  1  0  0  0  0
 15 16  1  0  0  0  0
 15 34  1  0  0  0  0
 15 35  1  0  0  0  0
 16 17  1  0  0  0  0
 17 23  1  0  0  0  0
 17 18  2  0  0  0  0
 18 19  1  0  0  0  0
 18 36  1  0  0  0  0
 19 20  2  0  0  0  0
 19 37  1  0  0  0  0
 20 21  1  0  0  0  0
 20 22  1  0  0  0  0
 22 23  2  0  0  0  0
 22 38  1  0  0  0  0
 23 39  1  0  0  0  0
M  END
> <s_m_source_file>
AV-unprocessed.smi

> <i_m_source_file_index>
1851

> <i_lp_mmshare_version>
43012

> <i_f3d_flags>
0

> <s_epik_input>
Tz1bQ0hdW05IXVtDSDJdYyhuMSluKGMoYzEyKVtjSF1bY0hdW2NIXVtjSF0yKVtDSDJdW0NIMl1PYzNbY0hdW2NIXWMoQ2wpW2NIXVtjSF0z

> <s_epik_cmdline>
J2VwaWtfcHl0aG9uJywgJy1waCcsICc3LjAnLCAnLXRuJywgJzgnLCAnLW1hJywgJzIwMCcsICctbWV0YWxfYmluZGluZycsICctaW1hZScsICc8aW5maWxlLm1hZT4nLCAnLW9tYWUnLCAnPG91dGZpbGUubWFlPic=

> <r_lp_tautomer_probability>
1

> <r_epik_Ionization_Penalty>
0.0670201

> <r_epik_Ionization_Penalty_Charging>
0

> <r_epik_Ionization_Penalty_Neutral>
0.0670201

> <r_epik_State_Penalty>
0.0585513

> <r_epik_Charging_Adjusted_Penalty>
0.0585513

> <i_epik_Tot_Q>
0

> <i_epik_Tot_abs_Q>
0

> <r_epik_Metal_State_Penalty>
0.0525581

> <b_epik_Metal_Only>
0

> <s_lp_Force_Field>
OPLS_2005

> <r_lp_Energy>
12.626

> <b_lp_Chiralities_Consistent>
1

> <s_lp_Variant>
AV-unprocessed.smi:1851-1

> <Gold.Version>
5.8.1

> <Gold.Id.Protein>
6NUR|6NUR_protein|mol2

> <Gold.PLP.Fitness>
52.4261

> <Gold.PLP.PLP>
-48.1456

> <Gold.PLP.part.hbond>
-3.0000

> <Gold.PLP.part.metal>
0.0000

> <Gold.PLP.part.buried>
-4.3856

> <Gold.PLP.part.nonpolar>
-41.2465

> <Gold.PLP.part.repulsive>
1.0476

> <Gold.PLP.ligand.clash>
0.0000

> <Gold.PLP.ligand.torsion>
0.9273

> <Gold.PLP.Chemscore.Hbond>
2.0136

> <Gold.PLP.Chemscore.CHOScore>
0.0000

> <Gold.PLP.Chemscore.Metal>
0.0000

> <Gold.Chemscore.Hbonds>
donor molecule, donor type, donor heavy atom, donor atom, acceptor molecule, acceptor atom, score
      P1  H  7989  7998       L1     1  0.20
      P1  H  7997  8008       L1    16  1.00
      P1  H  8011  8017       L1     1  0.82

> <Gold.PLP.Chemscore.Internal.Correction>
0.0944

> <Gold.Rescore>
     Score         DG    S(hbond)    S(metal)    S(lipo)     H(rot)  DE(clash)    DE(int)     intcor
     19.20     -20.23       1.87        0.00     125.77       2.42       0.28       0.75       ----

> <Gold.Chemscore.Fitness>
19.2035

> <Gold.Chemscore.DG>
-20.2304

> <Gold.Chemscore.ZeroCoef>
-5.4800

> <Gold.Chemscore.Hbond>
1.8657

> <Gold.Chemscore.Metal>
0.0000

> <Gold.Chemscore.Lipo>
125.7722

> <Gold.Chemscore.Internal_Hbond>
0.0000

> <Gold.Chemscore.DEClash>
0.2767

> <Gold.Chemscore.DEInternal>
0.7502

> <Gold.Chemscore.Rot>
2.4205

> <Gold.Chemscore.Internal.Correction>
   9.000000E+99

> <Gold.Chemscore.Hbonds>
donor molecule, donor type, donor heavy atom, donor atom, acceptor molecule, acceptor atom, score
      P1  H  7989  7998       L1     1  0.19
      P1  H  7997  8008       L1    16  0.24
      P1  H  8011  8017       L1     1  0.77

> <Gold.Chemscore.Hbond.Weighted>
-6.2316

> <Gold.Chemscore.Metal.Weighted>
-0.0000

> <Gold.Chemscore.Lipo.Weighted>
-14.7153

> <Gold.Chemscore.Internal_Hbond.Weighted>
0.0000

> <Gold.Chemscore.DEClash.Weighted>
0.2767

> <Gold.Chemscore.DEInternal.Weighted>
0.7502

> <Gold.Chemscore.Rot.Weighted>
6.1965

> <Gold.Chemscore.Internal.Correction.Weighted>
   9.000000E+99

> <Gold.Protein.RotatedTorsions>
[ 6907 6896 6895 6894 ] final  116.56 input  -60.11 | X-H torsion
[ 7974 7965 7964 7962 ] final -158.99 input  175.53 | X-H torsion
[ 8008 7997 7996 7995 ] final -132.40 input   59.86 | X-H torsion
[ 10167 10162 10161 10158 ] final  -98.34 input  -65.29 | X-H torsion
[ 10718 10713 10712 10709 ] final -144.29 input   66.30 | X-H torsion
[ 10763 10752 10751 10750 ] final  -11.55 input  -60.55 | X-H torsion
[ 11005 11000 10999 10996 ] final  -10.56 input  -57.11 | X-H torsion

> <Gold.Protein.ActiveResidues>
 VAL166  LYS551  ARG553  GLY616  TRP617  ASP618  TYR619  PRO620  LYS621  CYS622 
 ASP623  PHE694  ASN695  SER759  ASP760  ASP761  ALA762  ILE779  LEU786  VAL792 
 PHE793  MET794  SER795  GLU796  ALA797  LYS798  CYS799  TRP800  GLU811  SER814 

> <Gold.Protein.RotatedAtoms>
  152.4670  133.7944  159.6919 H   0  0  0  0  0  0  0  0  0  0  0  0  # atno 6907 bound_to 6896
  150.8639  133.7593  159.2989 H   0  0  0  0  0  0  0  0  0  0  0  0  # atno 6908 bound_to 6896
  151.5150  135.1069  159.9915 H   0  0  0  0  0  0  0  0  0  0  0  0  # atno 6909 bound_to 6896
  144.7483  140.3749  143.6068 H   0  0  0  0  0  0  0  0  0  0  0  0  # atno 7974 bound_to 7965
  155.3282  140.0465  157.3042 H   0  0  0  0  0  0  0  0  0  0  0  0  # atno 8008 bound_to 7997
  154.5342  140.2267  155.8717 H   0  0  0  0  0  0  0  0  0  0  0  0  # atno 8009 bound_to 7997
  156.1819  140.3072  155.9171 H   0  0  0  0  0  0  0  0  0  0  0  0  # atno 8010 bound_to 7997
  140.2739  143.3325  152.0507 H   0  0  0  0  0  0  0  0  0  0  0  0  # atno 10167 bound_to 10162
  156.3683  130.7775  151.1952 H   0  0  0  0  0  0  0  0  0  0  0  0  # atno 10718 bound_to 10713
  153.4854  135.7017  153.5914 H   0  0  0  0  0  0  0  0  0  0  0  0  # atno 10763 bound_to 10752
  153.4109  135.3849  155.2050 H   0  0  0  0  0  0  0  0  0  0  0  0  # atno 10764 bound_to 10752
  154.8719  135.3904  154.4309 H   0  0  0  0  0  0  0  0  0  0  0  0  # atno 10765 bound_to 10752
  140.7460  133.8631  155.9006 H   0  0  0  0  0  0  0  0  0  0  0  0  # atno 11005 bound_to 11000
  145.7038  139.1668  143.2577 LP  0  0  0  0  0  0  0  0  0  0  0  0  # atno 17320 bound_to 7965
  146.1396  140.7076  142.9373 LP  0  0  0  0  0  0  0  0  0  0  0  0  # atno 17321 bound_to 7965
  139.4981  144.6637  151.6405 LP  0  0  0  0  0  0  0  0  0  0  0  0  # atno 17342 bound_to 10162
  140.5867  143.9852  150.6300 LP  0  0  0  0  0  0  0  0  0  0  0  0  # atno 17343 bound_to 10162
  157.7481  131.0379  150.4480 LP  0  0  0  0  0  0  0  0  0  0  0  0  # atno 17370 bound_to 10713
  156.4703  130.4051  149.6522 LP  0  0  0  0  0  0  0  0  0  0  0  0  # atno 17371 bound_to 10713
  140.9794  134.1426  157.4508 LP  0  0  0  0  0  0  0  0  0  0  0  0  # atno 17394 bound_to 11000
  139.8796  135.0005  156.6016 LP  0  0  0  0  0  0  0  0  0  0  0  0  # atno 17395 bound_to 11000

$$$$
