AV-unprocessed.smi:1385|AV-procd|sdf|5630|dock2
  -GOLD-   22720 5243D 1   1.00000     0.00000
 Structure written by MMmdl.
 39 40  0  0  0  0  0  0  0  0  2 V2000
  154.1398  141.7042  159.9086 C   0  0  0  0  0  0  0  0  0  0  0  0
  153.0960  141.5999  158.8497 C   0  0  0  0  0  0  0  0  0  0  0  0
  152.9879  140.5382  158.0416 N   0  0  0  0  0  0  0  0  0  0  0  0
  151.9427  140.6693  157.1376 N   0  0  0  0  0  0  0  0  0  0  0  0
  151.2902  141.8294  157.2932 C   0  0  0  0  0  0  0  0  0  0  0  0
  150.1801  142.2228  156.4997 N   0  0  0  0  0  0  0  0  0  0  0  0
  149.6377  141.5806  155.4503 C   0  0  0  0  0  0  0  0  0  0  0  0
  150.0262  140.5057  154.9930 O   0  0  0  0  0  0  0  0  0  0  0  0
  148.6029  142.2669  154.9434 N   0  0  0  0  0  0  0  0  0  0  0  0
  147.7950  141.8509  153.7972 C   0  0  2  0  0  0  0  0  0  0  0  0
  146.5502  142.7432  153.6199 C   0  0  0  0  0  0  0  0  0  0  0  0
  145.5116  142.5088  154.7305 C   0  0  0  0  0  0  0  0  0  0  0  0
  145.1211  141.0755  154.8049 N   0  3  2  0  0  0  0  0  0  0  0  0
  144.0196  140.8213  155.7693 C   0  0  0  0  0  0  0  0  0  0  0  0
  143.5029  139.3796  155.7217 C   0  0  0  0  0  0  0  0  0  0  0  0
  142.9966  138.9591  154.5603 N   0  0  0  0  0  0  0  0  0  0  0  0
  143.5437  138.6597  156.7178 O   0  0  0  0  0  0  0  0  0  0  0  0
  146.2971  140.2001  155.0438 C   0  0  0  0  0  0  0  0  0  0  0  0
  147.3620  140.3822  153.9463 C   0  0  0  0  0  0  0  0  0  0  0  0
  151.9048  142.8645  158.5707 S   0  0  0  0  0  0  0  0  0  0  0  0
  154.9924  141.0677  159.6695 H   0  0  0  0  0  0  0  0  0  0  0  0
  153.7279  141.3932  160.8685 H   0  0  0  0  0  0  0  0  0  0  0  0
  154.4877  142.7338  159.9933 H   0  0  0  0  0  0  0  0  0  0  0  0
  149.7544  143.1005  156.7584 H   0  0  0  0  0  0  0  0  0  0  0  0
  148.3493  143.1365  155.3892 H   0  0  0  0  0  0  0  0  0  0  0  0
  148.4157  141.9305  152.9027 H   0  0  0  0  0  0  0  0  0  0  0  0
  146.8323  143.7961  153.5875 H   0  0  0  0  0  0  0  0  0  0  0  0
  146.0912  142.5272  152.6542 H   0  0  0  0  0  0  0  0  0  0  0  0
  145.9092  142.8313  155.6940 H   0  0  0  0  0  0  0  0  0  0  0  0
  144.6352  143.1262  154.5324 H   0  0  0  0  0  0  0  0  0  0  0  0
  144.3755  140.9897  156.7864 H   0  0  0  0  0  0  0  0  0  0  0  0
  143.2044  141.5276  155.6021 H   0  0  0  0  0  0  0  0  0  0  0  0
  142.6444  138.0167  154.4700 H   0  0  0  0  0  0  0  0  0  0  0  0
  142.9697  139.5866  153.7688 H   0  0  0  0  0  0  0  0  0  0  0  0
  146.7201  140.4163  156.0260 H   0  0  0  0  0  0  0  0  0  0  0  0
  145.9805  139.1564  155.0599 H   0  0  0  0  0  0  0  0  0  0  0  0
  146.9551  140.0329  152.9962 H   0  0  0  0  0  0  0  0  0  0  0  0
  148.2271  139.7510  154.1537 H   0  0  0  0  0  0  0  0  0  0  0  0
  144.7593  140.8223  153.8961 H   0  0  0  0  0  0  0  0  0  0  0  0
  1  2  1  0  0  0  0
  1 21  1  0  0  0  0
  1 22  1  0  0  0  0
  1 23  1  0  0  0  0
  2 20  1  0  0  0  0
  2  3  2  0  0  0  0
  3  4  1  0  0  0  0
  4  5  2  0  0  0  0
  5  6  1  0  0  0  0
  5 20  1  0  0  0  0
  6  7  1  0  0  0  0
  6 24  1  0  0  0  0
  7  8  2  0  0  0  0
  7  9  1  0  0  0  0
  9 10  1  0  0  0  0
  9 25  1  0  0  0  0
 10 19  1  0  0  0  0
 10 11  1  0  0  0  0
 10 26  1  0  0  0  0
 11 12  1  0  0  0  0
 11 27  1  0  0  0  0
 11 28  1  0  0  0  0
 12 13  1  0  0  0  0
 12 29  1  0  0  0  0
 12 30  1  0  0  0  0
 13 14  1  0  0  0  0
 13 18  1  0  0  0  0
 13 39  1  0  0  0  0
 14 15  1  0  0  0  0
 14 31  1  0  0  0  0
 14 32  1  0  0  0  0
 15 16  1  0  0  0  0
 15 17  2  0  0  0  0
 16 33  1  0  0  0  0
 16 34  1  0  0  0  0
 18 19  1  0  0  0  0
 18 35  1  0  0  0  0
 18 36  1  0  0  0  0
 19 37  1  0  0  0  0
 19 38  1  0  0  0  0
M  CHG  1  13   1
M  END
> <s_m_source_file>
AV-unprocessed.smi

> <i_m_source_file_index>
1385

> <i_lp_mmshare_version>
43012

> <i_f3d_flags>
0

> <s_epik_input>
W0NIM11jMW5uYyhzMSlbTkhdQyg9TylbTkhdW0NIXTJbQ0gyXVtDSDJdTihbQ0gyXVtDSDJdMilbQ0gyXUMoPU8pW05IMl0=

> <s_epik_cmdline>
J2VwaWtfcHl0aG9uJywgJy1waCcsICc3LjAnLCAnLXRuJywgJzgnLCAnLW1hJywgJzIwMCcsICctbWV0YWxfYmluZGluZycsICctaW1hZScsICc8aW5maWxlLm1hZT4nLCAnLW9tYWUnLCAnPG91dGZpbGUubWFlPic=

> <r_lp_tautomer_probability>
1

> <r_epik_Ionization_Penalty>
0.866317

> <r_epik_Ionization_Penalty_Charging>
0.862349

> <r_epik_Ionization_Penalty_Neutral>
0.00396799

> <r_epik_State_Penalty>
0.898939

> <r_epik_Charging_Adjusted_Penalty>
1.76129

> <i_epik_Tot_Q>
1

> <i_epik_Tot_abs_Q>
1

> <r_epik_Metal_State_Penalty>
1.25402

> <b_epik_Metal_Only>
0

> <s_lp_Force_Field>
OPLS_2005

> <r_lp_Energy>
11.903

> <b_lp_Chiralities_Consistent>
1

> <s_lp_Variant>
AV-unprocessed.smi:1385-3

> <Gold.Version>
5.8.1

> <Gold.Id.Protein>
6NUR|6NUR_protein|mol2

> <Gold.PLP.Fitness>
45.6372

> <Gold.PLP.PLP>
-29.0230

> <Gold.PLP.part.hbond>
-5.5275

> <Gold.PLP.part.metal>
0.0000

> <Gold.PLP.part.buried>
-3.4282

> <Gold.PLP.part.nonpolar>
-18.5701

> <Gold.PLP.part.repulsive>
0.3638

> <Gold.PLP.ligand.clash>
0.0000

> <Gold.PLP.ligand.torsion>
0.1198

> <Gold.PLP.Chemscore.Hbond>
5.6110

> <Gold.PLP.Chemscore.CHOScore>
0.0000

> <Gold.PLP.Chemscore.Metal>
0.0000

> <Gold.Chemscore.Hbonds>
donor molecule, donor type, donor heavy atom, donor atom, acceptor molecule, acceptor atom, score
      L1  H     6    24       P1  8028  0.50
      L1  H     9    25       P1  8028  0.86
      L1  H    13    39       P1 10175  2.00
      L1  H    16    34       P1 10175  1.00
      P1  H  7989  7998       L1     8  0.50
      P1  H  7997  8008       L1     3  0.77

> <Gold.PLP.Chemscore.Internal.Correction>
0.0209

> <Gold.Rescore>
     Score         DG    S(hbond)    S(metal)    S(lipo)     H(rot)  DE(clash)    DE(int)     intcor
     17.32     -20.56       4.05        0.00      58.54       2.07       0.51       2.73       ----

> <Gold.Chemscore.Fitness>
17.3216

> <Gold.Chemscore.DG>
-20.5551

> <Gold.Chemscore.ZeroCoef>
-5.4800

> <Gold.Chemscore.Hbond>
4.0456

> <Gold.Chemscore.Metal>
0.0000

> <Gold.Chemscore.Lipo>
58.5404

> <Gold.Chemscore.Internal_Hbond>
0.0000

> <Gold.Chemscore.DEClash>
0.5079

> <Gold.Chemscore.DEInternal>
2.7257

> <Gold.Chemscore.Rot>
2.0650

> <Gold.Chemscore.Internal.Correction>
   9.000000E+99

> <Gold.Chemscore.Hbonds>
donor molecule, donor type, donor heavy atom, donor atom, acceptor molecule, acceptor atom, score
      L1  H     6    24       P1  8028  0.51
      L1  H     9    25       P1  8028  0.83
      L1  H    13    39       P1 10175  0.94
      L1  H    16    34       P1 10175  0.98
      P1  H  7989  7998       L1     8  0.34
      P1  H  7997  8008       L1     3  0.39

> <Gold.Chemscore.Hbond.Weighted>
-13.5123

> <Gold.Chemscore.Metal.Weighted>
-0.0000

> <Gold.Chemscore.Lipo.Weighted>
-6.8492

> <Gold.Chemscore.Internal_Hbond.Weighted>
0.0000

> <Gold.Chemscore.DEClash.Weighted>
0.5079

> <Gold.Chemscore.DEInternal.Weighted>
2.7257

> <Gold.Chemscore.Rot.Weighted>
5.2864

> <Gold.Chemscore.Internal.Correction.Weighted>
   9.000000E+99

> <Gold.Protein.RotatedTorsions>
[ 6907 6896 6895 6894 ] final   48.08 input  -60.11 | X-H torsion
[ 7974 7965 7964 7962 ] final  131.61 input  175.53 | X-H torsion
[ 8008 7997 7996 7995 ] final  -83.63 input   59.86 | X-H torsion
[ 10167 10162 10161 10158 ] final   33.68 input  -65.29 | X-H torsion
[ 10718 10713 10712 10709 ] final   97.38 input   66.30 | X-H torsion
[ 10763 10752 10751 10750 ] final -136.48 input  -60.55 | X-H torsion
[ 11005 11000 10999 10996 ] final   71.13 input  -57.11 | X-H torsion

> <Gold.Protein.ActiveResidues>
 VAL166  LYS551  ARG553  GLY616  TRP617  ASP618  TYR619  PRO620  LYS621  CYS622 
 ASP623  PHE694  ASN695  SER759  ASP760  ASP761  ALA762  ILE779  LEU786  VAL792 
 PHE793  MET794  SER795  GLU796  ALA797  LYS798  CYS799  TRP800  GLU811  SER814 

> <Gold.Protein.RotatedAtoms>
  152.2755  134.7886  160.0406 H   0  0  0  0  0  0  0  0  0  0  0  0  # atno 6907 bound_to 6896
  151.8484  133.3430  159.3673 H   0  0  0  0  0  0  0  0  0  0  0  0  # atno 6908 bound_to 6896
  150.7168  134.5251  159.5717 H   0  0  0  0  0  0  0  0  0  0  0  0  # atno 6909 bound_to 6896
  145.0055  139.4270  143.5271 H   0  0  0  0  0  0  0  0  0  0  0  0  # atno 7974 bound_to 7965
  154.6211  140.0616  156.9616 H   0  0  0  0  0  0  0  0  0  0  0  0  # atno 8008 bound_to 7997
  155.1816  140.3299  155.4355 H   0  0  0  0  0  0  0  0  0  0  0  0  # atno 8009 bound_to 7997
  156.2432  140.1896  156.6912 H   0  0  0  0  0  0  0  0  0  0  0  0  # atno 8010 bound_to 7997
  140.4385  144.1222  150.6170 H   0  0  0  0  0  0  0  0  0  0  0  0  # atno 10167 bound_to 10162
  157.6913  131.0607  150.4635 H   0  0  0  0  0  0  0  0  0  0  0  0  # atno 10718 bound_to 10713
  154.8683  135.3671  154.5068 H   0  0  0  0  0  0  0  0  0  0  0  0  # atno 10763 bound_to 10752
  153.5705  135.7021  153.5511 H   0  0  0  0  0  0  0  0  0  0  0  0  # atno 10764 bound_to 10752
  153.3546  135.4063  155.1635 H   0  0  0  0  0  0  0  0  0  0  0  0  # atno 10765 bound_to 10752
  139.9560  134.7143  156.0752 H   0  0  0  0  0  0  0  0  0  0  0  0  # atno 11005 bound_to 11000
  146.3460  139.9469  142.8734 LP  0  0  0  0  0  0  0  0  0  0  0  0  # atno 17320 bound_to 7965
  145.2094  140.9889  143.4109 LP  0  0  0  0  0  0  0  0  0  0  0  0  # atno 17321 bound_to 7965
  140.4346  143.2553  151.9552 LP  0  0  0  0  0  0  0  0  0  0  0  0  # atno 17342 bound_to 10162
  139.4788  144.5712  151.8085 LP  0  0  0  0  0  0  0  0  0  0  0  0  # atno 17343 bound_to 10162
  156.4977  130.4110  149.6370 LP  0  0  0  0  0  0  0  0  0  0  0  0  # atno 17370 bound_to 10713
  156.3357  130.7355  151.2292 LP  0  0  0  0  0  0  0  0  0  0  0  0  # atno 17371 bound_to 10713
  141.1231  133.6607  156.3267 LP  0  0  0  0  0  0  0  0  0  0  0  0  # atno 17394 bound_to 11000
  140.5608  134.5936  157.5433 LP  0  0  0  0  0  0  0  0  0  0  0  0  # atno 17395 bound_to 11000

$$$$
