AV-unprocessed.smi:1562|AV-procd|sdf|6287|dock6
  -GOLD-   22720 6483D 1   1.00000     0.00000
 Structure written by MMmdl.
 40 41  0  0  0  0  0  0  0  0  1 V2000
  144.4832  138.5135  154.2305 N   0  0  0  0  0  0  0  0  0  0  0  0
  145.6565  138.6795  154.8463 C   0  0  0  0  0  0  0  0  0  0  0  0
  146.0461  137.9129  155.7253 O   0  0  0  0  0  0  0  0  0  0  0  0
  146.5124  139.8768  154.4113 C   0  0  0  0  0  0  0  0  0  0  0  0
  147.8469  139.4089  153.7824 C   0  0  0  0  0  0  0  0  0  0  0  0
  148.7649  140.6055  153.4736 C   0  0  0  0  0  0  0  0  0  0  0  0
  148.9903  141.3606  154.7178 N   0  0  0  0  0  0  0  0  0  0  0  0
  150.1211  141.3514  155.4687 C   0  0  0  0  0  0  0  0  0  0  0  0
  151.0039  140.5004  155.3492 O   0  0  0  0  0  0  0  0  0  0  0  0
  150.1962  142.3295  156.3859 N   0  0  0  0  0  0  0  0  0  0  0  0
  151.3052  142.5110  157.3124 C   0  0  0  0  0  0  0  0  0  0  0  0
  151.3237  141.3925  158.3637 C   0  0  0  0  0  0  0  0  0  0  0  0
  152.0823  141.7939  159.6153 C   0  0  0  0  0  0  0  0  0  0  0  0
  153.2332  141.0843  160.0205 C   0  0  0  0  0  0  0  0  0  0  0  0
  153.8942  141.4929  161.1953 C   0  0  0  0  0  0  0  0  0  0  0  0
  153.3816  142.5889  161.9162 C   0  0  0  0  0  0  0  0  0  0  0  0
  152.2259  143.2304  161.4278 C   0  0  0  0  0  0  0  0  0  0  0  0
  151.5851  142.8471  160.3024 N   0  0  0  0  0  0  0  0  0  0  0  0
  147.7419  141.9611  155.2039 C   0  0  0  0  0  0  0  0  0  0  0  0
  146.7685  140.8351  155.5985 C   0  0  0  0  0  0  0  0  0  0  0  0
  143.8881  137.7396  154.4887 H   0  0  0  0  0  0  0  0  0  0  0  0
  144.1932  139.1613  153.5124 H   0  0  0  0  0  0  0  0  0  0  0  0
  145.9652  140.4339  153.6485 H   0  0  0  0  0  0  0  0  0  0  0  0
  148.3671  138.7257  154.4561 H   0  0  0  0  0  0  0  0  0  0  0  0
  147.6527  138.8503  152.8659 H   0  0  0  0  0  0  0  0  0  0  0  0
  149.6798  140.2554  152.9958 H   0  0  0  0  0  0  0  0  0  0  0  0
  148.2898  141.2582  152.7398 H   0  0  0  0  0  0  0  0  0  0  0  0
  149.4352  142.9907  156.4413 H   0  0  0  0  0  0  0  0  0  0  0  0
  152.2456  142.5177  156.7585 H   0  0  0  0  0  0  0  0  0  0  0  0
  151.2091  143.4827  157.7990 H   0  0  0  0  0  0  0  0  0  0  0  0
  150.3033  141.1178  158.6345 H   0  0  0  0  0  0  0  0  0  0  0  0
  151.7820  140.4946  157.9460 H   0  0  0  0  0  0  0  0  0  0  0  0
  153.6007  140.2455  159.4479 H   0  0  0  0  0  0  0  0  0  0  0  0
  154.7778  140.9744  161.5377 H   0  0  0  0  0  0  0  0  0  0  0  0
  153.8616  142.9296  162.8218 H   0  0  0  0  0  0  0  0  0  0  0  0
  151.8045  144.0731  161.9555 H   0  0  0  0  0  0  0  0  0  0  0  0
  147.8992  142.6323  156.0495 H   0  0  0  0  0  0  0  0  0  0  0  0
  147.3049  142.5778  154.4172 H   0  0  0  0  0  0  0  0  0  0  0  0
  145.8272  141.2677  155.9398 H   0  0  0  0  0  0  0  0  0  0  0  0
  147.1818  140.2877  156.4475 H   0  0  0  0  0  0  0  0  0  0  0  0
  1  2  1  0  0  0  0
  1 21  1  0  0  0  0
  1 22  1  0  0  0  0
  2  3  2  0  0  0  0
  2  4  1  0  0  0  0
  4 20  1  0  0  0  0
  4  5  1  0  0  0  0
  4 23  1  0  0  0  0
  5  6  1  0  0  0  0
  5 24  1  0  0  0  0
  5 25  1  0  0  0  0
  6  7  1  0  0  0  0
  6 26  1  0  0  0  0
  6 27  1  0  0  0  0
  7  8  1  0  0  0  0
  7 19  1  0  0  0  0
  8  9  2  0  0  0  0
  8 10  1  0  0  0  0
 10 11  1  0  0  0  0
 10 28  1  0  0  0  0
 11 12  1  0  0  0  0
 11 29  1  0  0  0  0
 11 30  1  0  0  0  0
 12 13  1  0  0  0  0
 12 31  1  0  0  0  0
 12 32  1  0  0  0  0
 13 18  1  0  0  0  0
 13 14  2  0  0  0  0
 14 15  1  0  0  0  0
 14 33  1  0  0  0  0
 15 16  2  0  0  0  0
 15 34  1  0  0  0  0
 16 17  1  0  0  0  0
 16 35  1  0  0  0  0
 17 18  2  0  0  0  0
 17 36  1  0  0  0  0
 19 20  1  0  0  0  0
 19 37  1  0  0  0  0
 19 38  1  0  0  0  0
 20 39  1  0  0  0  0
 20 40  1  0  0  0  0
M  END
> <s_m_source_file>
AV-unprocessed.smi

> <i_m_source_file_index>
1562

> <i_lp_mmshare_version>
43012

> <i_f3d_flags>
0

> <s_epik_input>
W05IMl1DKD1PKVtDSF0xW0NIMl1bQ0gyXU4oW0NIMl1bQ0gyXTEpQyg9TylbTkhdW0NIMl1bQ0gyXWMyW2NIXVtjSF1bY0hdW2NIXW4y

> <s_epik_cmdline>
J2VwaWtfcHl0aG9uJywgJy1waCcsICc3LjAnLCAnLXRuJywgJzgnLCAnLW1hJywgJzIwMCcsICctbWV0YWxfYmluZGluZycsICctaW1hZScsICc8aW5maWxlLm1hZT4nLCAnLW9tYWUnLCAnPG91dGZpbGUubWFlPic=

> <r_epik_Ionization_Penalty>
0.0445602

> <r_epik_Ionization_Penalty_Charging>
0

> <r_epik_Ionization_Penalty_Neutral>
0.0445602

> <r_epik_State_Penalty>
0.0377204

> <r_epik_Charging_Adjusted_Penalty>
0.0377204

> <i_epik_Tot_Q>
0

> <i_epik_Tot_abs_Q>
0

> <r_epik_Metal_State_Penalty>
0.0350723

> <b_epik_Metal_Only>
0

> <s_lp_Force_Field>
OPLS_2005

> <r_lp_Energy>
26.805

> <b_lp_Chiralities_Consistent>
1

> <s_lp_Variant>
AV-unprocessed.smi:1562-1

> <Gold.Version>
5.8.1

> <Gold.Id.Protein>
6NUR|6NUR_protein|mol2

> <Gold.PLP.Fitness>
44.0998

> <Gold.PLP.PLP>
-36.4757

> <Gold.PLP.part.hbond>
-3.8633

> <Gold.PLP.part.metal>
0.0000

> <Gold.PLP.part.buried>
0.5280

> <Gold.PLP.part.nonpolar>
-32.0868

> <Gold.PLP.part.repulsive>
0.1646

> <Gold.PLP.ligand.clash>
0.0407

> <Gold.PLP.ligand.torsion>
0.3625

> <Gold.PLP.Chemscore.Hbond>
2.7760

> <Gold.PLP.Chemscore.CHOScore>
0.0000

> <Gold.PLP.Chemscore.Metal>
0.0000

> <Gold.Chemscore.Hbonds>
donor molecule, donor type, donor heavy atom, donor atom, acceptor molecule, acceptor atom, score
      L1  H     1    22       P1 10175  1.00
      L1  H    10    28       P1  8028  0.80
      P1  H  7989  7998       L1     9  0.96

> <Gold.PLP.Chemscore.Internal.Correction>
0.0619

> <Gold.Rescore>
     Score         DG    S(hbond)    S(metal)    S(lipo)     H(rot)  DE(clash)    DE(int)     intcor
     17.47     -19.42       2.43        0.00      92.32       1.95       1.53       0.42       ----

> <Gold.Chemscore.Fitness>
17.4654

> <Gold.Chemscore.DG>
-19.4172

> <Gold.Chemscore.ZeroCoef>
-5.4800

> <Gold.Chemscore.Hbond>
2.4328

> <Gold.Chemscore.Metal>
0.0000

> <Gold.Chemscore.Lipo>
92.3218

> <Gold.Chemscore.Internal_Hbond>
0.0000

> <Gold.Chemscore.DEClash>
1.5285

> <Gold.Chemscore.DEInternal>
0.4232

> <Gold.Chemscore.Rot>
1.9492

> <Gold.Chemscore.Internal.Correction>
   9.000000E+99

> <Gold.Chemscore.Hbonds>
donor molecule, donor type, donor heavy atom, donor atom, acceptor molecule, acceptor atom, score
      L1  H     1    22       P1 10175  1.00
      L1  H    10    28       P1  8028  0.78
      P1  H  7989  7998       L1     9  0.27

> <Gold.Chemscore.Hbond.Weighted>
-8.1255

> <Gold.Chemscore.Metal.Weighted>
-0.0000

> <Gold.Chemscore.Lipo.Weighted>
-10.8017

> <Gold.Chemscore.Internal_Hbond.Weighted>
0.0000

> <Gold.Chemscore.DEClash.Weighted>
1.5285

> <Gold.Chemscore.DEInternal.Weighted>
0.4232

> <Gold.Chemscore.Rot.Weighted>
4.9900

> <Gold.Chemscore.Internal.Correction.Weighted>
   9.000000E+99

> <Gold.Protein.RotatedTorsions>
[ 6907 6896 6895 6894 ] final   71.61 input  -60.11 | X-H torsion
[ 7974 7965 7964 7962 ] final   64.56 input  175.53 | X-H torsion
[ 8008 7997 7996 7995 ] final   49.14 input   59.86 | X-H torsion
[ 10167 10162 10161 10158 ] final   59.64 input  -65.29 | X-H torsion
[ 10718 10713 10712 10709 ] final   88.59 input   66.30 | X-H torsion
[ 10763 10752 10751 10750 ] final  133.33 input  -60.55 | X-H torsion
[ 11005 11000 10999 10996 ] final  117.20 input  -57.11 | X-H torsion

> <Gold.Protein.ActiveResidues>
 VAL166  LYS551  ARG553  GLY616  TRP617  ASP618  TYR619  PRO620  LYS621  CYS622 
 ASP623  PHE694  ASN695  SER759  ASP760  ASP761  ALA762  ILE779  LEU786  VAL792 
 PHE793  MET794  SER795  GLU796  ALA797  LYS798  CYS799  TRP800  GLU811  SER814 

> <Gold.Protein.RotatedAtoms>
  152.4820  134.4695  159.9630 H   0  0  0  0  0  0  0  0  0  0  0  0  # atno 6907 bound_to 6896
  151.4699  133.3566  159.2829 H   0  0  0  0  0  0  0  0  0  0  0  0  # atno 6908 bound_to 6896
  150.8900  134.8328  159.7347 H   0  0  0  0  0  0  0  0  0  0  0  0  # atno 6909 bound_to 6896
  145.8488  139.3241  143.0888 H   0  0  0  0  0  0  0  0  0  0  0  0  # atno 7974 bound_to 7965
  155.3973  140.3436  155.4255 H   0  0  0  0  0  0  0  0  0  0  0  0  # atno 8008 bound_to 7997
  156.1524  140.1575  156.8781 H   0  0  0  0  0  0  0  0  0  0  0  0  # atno 8009 bound_to 7997
  154.5064  140.0801  156.7884 H   0  0  0  0  0  0  0  0  0  0  0  0  # atno 8010 bound_to 7997
  140.1742  144.4246  150.6646 H   0  0  0  0  0  0  0  0  0  0  0  0  # atno 10167 bound_to 10162
  157.6950  131.0300  150.3298 H   0  0  0  0  0  0  0  0  0  0  0  0  # atno 10718 bound_to 10713
  153.8054  135.3136  155.3395 H   0  0  0  0  0  0  0  0  0  0  0  0  # atno 10763 bound_to 10752
  154.8072  135.4690  154.0427 H   0  0  0  0  0  0  0  0  0  0  0  0  # atno 10764 bound_to 10752
  153.1788  135.6890  153.8595 H   0  0  0  0  0  0  0  0  0  0  0  0  # atno 10765 bound_to 10752
  139.9066  134.9607  156.7315 H   0  0  0  0  0  0  0  0  0  0  0  0  # atno 11005 bound_to 11000
  145.9382  140.8999  143.0321 LP  0  0  0  0  0  0  0  0  0  0  0  0  # atno 17320 bound_to 7965
  144.6730  140.1512  143.7430 LP  0  0  0  0  0  0  0  0  0  0  0  0  # atno 17321 bound_to 7965
  140.6562  143.2238  151.5963 LP  0  0  0  0  0  0  0  0  0  0  0  0  # atno 17342 bound_to 10162
  139.5324  144.2877  152.1178 LP  0  0  0  0  0  0  0  0  0  0  0  0  # atno 17343 bound_to 10162
  156.3773  130.3874  149.7129 LP  0  0  0  0  0  0  0  0  0  0  0  0  # atno 17370 bound_to 10713
  156.4523  130.7912  151.2933 LP  0  0  0  0  0  0  0  0  0  0  0  0  # atno 17371 bound_to 10713
  140.6921  133.9380  155.7973 LP  0  0  0  0  0  0  0  0  0  0  0  0  # atno 17394 bound_to 11000
  141.0434  134.0589  157.3874 LP  0  0  0  0  0  0  0  0  0  0  0  0  # atno 17395 bound_to 11000

$$$$
