AV-unprocessed.smi:730|AV-procd|sdf|3523|dock1
  -GOLD-   22720 0513D 1   1.00000     0.00000
 Structure written by MMmdl.
 40 41  0  0  0  0  0  0  0  0  1 V2000
  151.0617  143.9738  159.7883 C   0  0  0  0  0  0  0  0  0  0  0  0
  152.2754  143.5063  158.9600 C   0  0  0  0  0  0  0  0  0  0  0  0
  152.8452  144.7221  158.2051 C   0  0  0  0  0  0  0  0  0  0  0  0
  153.3434  142.9639  159.9277 C   0  0  0  0  0  0  0  0  0  0  0  0
  151.8753  142.4364  157.9828 C   0  0  0  0  0  0  0  0  0  0  0  0
  150.9464  142.3769  156.9794 C   0  0  0  0  0  0  0  0  0  0  0  0
  151.1124  141.0664  156.4589 C   0  0  0  0  0  0  0  0  0  0  0  0
  150.3184  140.6078  155.3775 N   0  0  0  0  0  0  0  0  0  0  0  0
  148.9798  140.5008  155.3320 C   0  0  0  0  0  0  0  0  0  0  0  0
  148.2115  140.7949  156.2482 O   0  0  0  0  0  0  0  0  0  0  0  0
  148.5710  140.0133  154.1518 N   0  0  0  0  0  0  0  0  0  0  0  0
  147.1775  139.7558  153.7847 C   0  0  1  0  0  0  0  0  0  0  0  0
  146.8317  140.4866  152.4746 C   0  0  0  0  0  0  0  0  0  0  0  0
  146.7319  139.4011  151.4044 C   0  0  0  0  0  0  0  0  0  0  0  0
  146.1888  138.1902  152.1569 C   0  0  0  0  0  0  0  0  0  0  0  0
  146.8549  138.2551  153.5373 C   0  0  1  0  0  0  0  0  0  0  0  0
  148.0054  137.4275  153.5269 O   0  0  0  0  0  0  0  0  0  0  0  0
  152.0537  140.3804  157.0870 N   0  0  0  0  0  0  0  0  0  0  0  0
  152.5457  141.2523  158.0645 O   0  0  0  0  0  0  0  0  0  0  0  0
  151.3418  144.7491  160.5025 H   0  0  0  0  0  0  0  0  0  0  0  0
  150.6251  143.1508  160.3557 H   0  0  0  0  0  0  0  0  0  0  0  0
  150.2791  144.3860  159.1501 H   0  0  0  0  0  0  0  0  0  0  0  0
  152.1119  145.1364  157.5122 H   0  0  0  0  0  0  0  0  0  0  0  0
  153.7292  144.4545  157.6249 H   0  0  0  0  0  0  0  0  0  0  0  0
  153.1353  145.5181  158.8917 H   0  0  0  0  0  0  0  0  0  0  0  0
  153.6447  143.7207  160.6532 H   0  0  0  0  0  0  0  0  0  0  0  0
  154.2410  142.6468  159.3958 H   0  0  0  0  0  0  0  0  0  0  0  0
  152.9717  142.1035  160.4852 H   0  0  0  0  0  0  0  0  0  0  0  0
  150.2604  143.1497  156.6659 H   0  0  0  0  0  0  0  0  0  0  0  0
  150.8249  140.3197  154.5535 H   0  0  0  0  0  0  0  0  0  0  0  0
  149.2704  139.7907  153.4588 H   0  0  0  0  0  0  0  0  0  0  0  0
  146.5265  140.1456  154.5696 H   0  0  0  0  0  0  0  0  0  0  0  0
  145.8607  140.9723  152.5801 H   0  0  0  0  0  0  0  0  0  0  0  0
  147.5495  141.2634  152.2072 H   0  0  0  0  0  0  0  0  0  0  0  0
  146.0998  139.6942  150.5656 H   0  0  0  0  0  0  0  0  0  0  0  0
  147.7249  139.1762  151.0128 H   0  0  0  0  0  0  0  0  0  0  0  0
  145.1094  138.2986  152.2722 H   0  0  0  0  0  0  0  0  0  0  0  0
  146.3654  137.2504  151.6316 H   0  0  0  0  0  0  0  0  0  0  0  0
  146.1819  137.8719  154.3052 H   0  0  0  0  0  0  0  0  0  0  0  0
  148.1504  137.1317  152.6409 H   0  0  0  0  0  0  0  0  0  0  0  0
  1  2  1  0  0  0  0
  1 20  1  0  0  0  0
  1 21  1  0  0  0  0
  1 22  1  0  0  0  0
  2  3  1  0  0  0  0
  2  4  1  0  0  0  0
  2  5  1  0  0  0  0
  3 23  1  0  0  0  0
  3 24  1  0  0  0  0
  3 25  1  0  0  0  0
  4 26  1  0  0  0  0
  4 27  1  0  0  0  0
  4 28  1  0  0  0  0
  5 19  1  0  0  0  0
  5  6  2  0  0  0  0
  6  7  1  0  0  0  0
  6 29  1  0  0  0  0
  7  8  1  0  0  0  0
  7 18  2  0  0  0  0
  8  9  1  0  0  0  0
  8 30  1  0  0  0  0
  9 10  2  0  0  0  0
  9 11  1  0  0  0  0
 11 12  1  0  0  0  0
 11 31  1  0  0  0  0
 12 16  1  0  0  0  0
 12 13  1  0  0  0  0
 12 32  1  0  0  0  0
 13 14  1  0  0  0  0
 13 33  1  0  0  0  0
 13 34  1  0  0  0  0
 14 15  1  0  0  0  0
 14 35  1  0  0  0  0
 14 36  1  0  0  0  0
 15 16  1  0  0  0  0
 15 37  1  0  0  0  0
 15 38  1  0  0  0  0
 16 17  1  0  0  0  0
 16 39  1  0  0  0  0
 17 40  1  0  0  0  0
 18 19  1  0  0  0  0
M  END
> <s_m_source_file>
AV-unprocessed.smi

> <i_m_source_file_index>
730

> <i_lp_mmshare_version>
43012

> <i_f3d_flags>
0

> <s_epik_input>
W0NIM11DKFtDSDNdKShbQ0gzXSljMVtjSF1jKG5vMSlbTkhdQyg9TylbTkhdW0NAQEhdMltDSDJdW0NIMl1bQ0gyXVtDQEhdMltPSF0=

> <s_epik_cmdline>
J2VwaWtfcHl0aG9uJywgJy1waCcsICc3LjAnLCAnLXRuJywgJzgnLCAnLW1hJywgJzIwMCcsICctbWV0YWxfYmluZGluZycsICctaW1hZScsICc8aW5maWxlLm1hZT4nLCAnLW9tYWUnLCAnPG91dGZpbGUubWFlPic=

> <r_lp_tautomer_probability>
1

> <r_epik_Ionization_Penalty>
2.23071e-05

> <r_epik_Ionization_Penalty_Charging>
0

> <r_epik_Ionization_Penalty_Neutral>
2.23071e-05

> <r_epik_State_Penalty>
-0

> <r_epik_Charging_Adjusted_Penalty>
0

> <i_epik_Tot_Q>
0

> <i_epik_Tot_abs_Q>
0

> <r_epik_Metal_State_Penalty>
-0

> <b_epik_Metal_Only>
0

> <s_lp_Force_Field>
OPLS_2005

> <r_lp_Energy>
21.0344

> <b_lp_Chiralities_Consistent>
1

> <s_lp_Variant>
AV-unprocessed.smi:730-2

> <Gold.Version>
5.8.1

> <Gold.Id.Protein>
6NUR|6NUR_protein|mol2

> <Gold.PLP.Fitness>
36.7070

> <Gold.PLP.PLP>
-34.9377

> <Gold.PLP.part.hbond>
-0.9697

> <Gold.PLP.part.metal>
0.0000

> <Gold.PLP.part.buried>
-1.2492

> <Gold.PLP.part.nonpolar>
-33.6161

> <Gold.PLP.part.repulsive>
0.2425

> <Gold.PLP.ligand.clash>
0.0000

> <Gold.PLP.ligand.torsion>
0.6166

> <Gold.PLP.Chemscore.Hbond>
1.0000

> <Gold.PLP.Chemscore.CHOScore>
0.0000

> <Gold.PLP.Chemscore.Metal>
0.0000

> <Gold.Chemscore.Hbonds>
donor molecule, donor type, donor heavy atom, donor atom, acceptor molecule, acceptor atom, score
      L1  H    11    31       P1  7957  0.18
      L1  H    17    40       P1  7948  0.65

> <Gold.PLP.Chemscore.Internal.Correction>
0.0024

> <Gold.Rescore>
     Score         DG    S(hbond)    S(metal)    S(lipo)     H(rot)  DE(clash)    DE(int)     intcor
     15.61     -16.32       1.00        0.00     101.64       1.71       0.07       0.64       ----

> <Gold.Chemscore.Fitness>
15.6133

> <Gold.Chemscore.DG>
-16.3211

> <Gold.Chemscore.ZeroCoef>
-5.4800

> <Gold.Chemscore.Hbond>
0.9978

> <Gold.Chemscore.Metal>
0.0000

> <Gold.Chemscore.Lipo>
101.6448

> <Gold.Chemscore.Internal_Hbond>
0.0000

> <Gold.Chemscore.DEClash>
0.0692

> <Gold.Chemscore.DEInternal>
0.6386

> <Gold.Chemscore.Rot>
1.7125

> <Gold.Chemscore.Internal.Correction>
   9.000000E+99

> <Gold.Chemscore.Hbonds>
donor molecule, donor type, donor heavy atom, donor atom, acceptor molecule, acceptor atom, score
      L1  H    11    31       P1  7957  0.19
      L1  H    17    40       P1  7948  0.63

> <Gold.Chemscore.Hbond.Weighted>
-3.3327

> <Gold.Chemscore.Metal.Weighted>
-0.0000

> <Gold.Chemscore.Lipo.Weighted>
-11.8924

> <Gold.Chemscore.Internal_Hbond.Weighted>
0.0000

> <Gold.Chemscore.DEClash.Weighted>
0.0692

> <Gold.Chemscore.DEInternal.Weighted>
0.6386

> <Gold.Chemscore.Rot.Weighted>
4.3841

> <Gold.Chemscore.Internal.Correction.Weighted>
   9.000000E+99

> <Gold.Protein.RotatedTorsions>
[ 6907 6896 6895 6894 ] final   75.32 input  -60.11 | X-H torsion
[ 7974 7965 7964 7962 ] final   43.36 input  175.53 | X-H torsion
[ 8008 7997 7996 7995 ] final -140.66 input   59.86 | X-H torsion
[ 10167 10162 10161 10158 ] final   94.08 input  -65.29 | X-H torsion
[ 10718 10713 10712 10709 ] final   87.60 input   66.30 | X-H torsion
[ 10763 10752 10751 10750 ] final   -3.96 input  -60.55 | X-H torsion
[ 11005 11000 10999 10996 ] final  -70.46 input  -57.11 | X-H torsion

> <Gold.Protein.ActiveResidues>
 VAL166  LYS551  ARG553  GLY616  TRP617  ASP618  TYR619  PRO620  LYS621  CYS622 
 ASP623  PHE694  ASN695  SER759  ASP760  ASP761  ALA762  ILE779  LEU786  VAL792 
 PHE793  MET794  SER795  GLU796  ALA797  LYS798  CYS799  TRP800  GLU811  SER814 

> <Gold.Protein.RotatedAtoms>
  152.5020  134.4138  159.9457 H   0  0  0  0  0  0  0  0  0  0  0  0  # atno 6907 bound_to 6896
  151.4108  133.3722  159.2751 H   0  0  0  0  0  0  0  0  0  0  0  0  # atno 6908 bound_to 6896
  150.9293  134.8731  159.7600 H   0  0  0  0  0  0  0  0  0  0  0  0  # atno 6909 bound_to 6896
  146.0662  139.5195  142.9627 H   0  0  0  0  0  0  0  0  0  0  0  0  # atno 7974 bound_to 7965
  155.4649  140.0548  157.2986 H   0  0  0  0  0  0  0  0  0  0  0  0  # atno 8008 bound_to 7997
  154.4722  140.2045  155.9921 H   0  0  0  0  0  0  0  0  0  0  0  0  # atno 8009 bound_to 7997
  156.1074  140.3209  155.8030 H   0  0  0  0  0  0  0  0  0  0  0  0  # atno 8010 bound_to 7997
  139.8118  144.6770  150.9631 H   0  0  0  0  0  0  0  0  0  0  0  0  # atno 10167 bound_to 10162
  157.6941  131.0262  150.3147 H   0  0  0  0  0  0  0  0  0  0  0  0  # atno 10718 bound_to 10713
  153.3783  135.6997  153.6584 H   0  0  0  0  0  0  0  0  0  0  0  0  # atno 10763 bound_to 10752
  153.5206  135.3613  155.2630 H   0  0  0  0  0  0  0  0  0  0  0  0  # atno 10764 bound_to 10752
  154.8689  135.4157  154.3076 H   0  0  0  0  0  0  0  0  0  0  0  0  # atno 10765 bound_to 10752
  141.1574  133.6790  156.6755 H   0  0  0  0  0  0  0  0  0  0  0  0  # atno 11005 bound_to 11000
  145.6473  141.0271  143.1779 LP  0  0  0  0  0  0  0  0  0  0  0  0  # atno 17320 bound_to 7965
  144.7204  139.8051  143.7384 LP  0  0  0  0  0  0  0  0  0  0  0  0  # atno 17321 bound_to 7965
  140.7817  143.4178  151.0890 LP  0  0  0  0  0  0  0  0  0  0  0  0  # atno 17342 bound_to 10162
  139.7844  143.8309  152.3142 LP  0  0  0  0  0  0  0  0  0  0  0  0  # atno 17343 bound_to 10162
  156.3643  130.3852  149.7226 LP  0  0  0  0  0  0  0  0  0  0  0  0  # atno 17370 bound_to 10713
  156.4661  130.7975  151.2994 LP  0  0  0  0  0  0  0  0  0  0  0  0  # atno 17371 bound_to 10713
  140.3142  134.8061  157.4201 LP  0  0  0  0  0  0  0  0  0  0  0  0  # atno 17394 bound_to 11000
  140.1152  134.5292  155.8231 LP  0  0  0  0  0  0  0  0  0  0  0  0  # atno 17395 bound_to 11000

$$$$
