AV-unprocessed.smi:1240|AV-procd|sdf|5204|dock7
  -GOLD-   22720 4293D 1   1.00000     0.00000
 Structure written by MMmdl.
 48 50  0  0  0  0  0  0  0  0  2 V2000
  145.6621  137.4606  154.3089 O   0  0  0  0  0  0  0  0  0  0  0  0
  146.6485  137.0458  153.7010 C   0  0  0  0  0  0  0  0  0  0  0  0
  147.8936  137.4954  153.9110 N   0  0  0  0  0  0  0  0  0  0  0  0
  148.2741  138.5352  154.8636 C   0  0  0  0  0  0  0  0  0  0  0  0
  149.1316  139.6402  154.1904 C   0  0  1  0  0  0  0  0  0  0  0  0
  148.3699  140.9989  154.0799 C   0  0  2  0  0  0  0  0  0  0  0  0
  147.9968  141.6907  155.3947 C   0  0  0  0  0  0  0  0  0  0  0  0
  146.5149  142.0243  155.2279 C   0  0  0  0  0  0  0  0  0  0  0  0
  146.3332  142.0968  153.8237 O   0  0  0  0  0  0  0  0  0  0  0  0
  147.0707  141.0261  153.2573 C   0  0  0  0  0  0  0  0  0  0  0  0
  150.5225  139.7332  154.6803 N   0  0  0  0  0  0  0  0  0  0  0  0
  151.2869  138.5017  154.4910 C   0  0  0  0  0  0  0  0  0  0  0  0
  152.7646  138.6825  154.8726 C   0  0  0  0  0  0  0  0  0  0  0  0
  152.8494  139.1226  156.2234 O   0  0  0  0  0  0  0  0  0  0  0  0
  152.1652  140.3517  156.4411 C   0  0  0  0  0  0  0  0  0  0  0  0
  150.6826  140.2087  156.0528 C   0  0  0  0  0  0  0  0  0  0  0  0
  146.6276  136.1135  152.7328 N   0  0  0  0  0  0  0  0  0  0  0  0
  145.5133  135.4013  152.2112 C   0  0  0  0  0  0  0  0  0  0  0  0
  144.2584  135.6137  152.8240 C   0  0  0  0  0  0  0  0  0  0  0  0
  143.1207  134.9418  152.3320 C   0  0  0  0  0  0  0  0  0  0  0  0
  143.2360  134.1095  151.2751 N   0  3  0  0  0  0  0  0  0  0  0  0
  144.4105  133.8854  150.6476 C   0  0  0  0  0  0  0  0  0  0  0  0
  145.5825  134.5291  151.0946 C   0  0  0  0  0  0  0  0  0  0  0  0
  148.6405  137.0963  153.3611 H   0  0  0  0  0  0  0  0  0  0  0  0
  147.3967  138.9764  155.3380 H   0  0  0  0  0  0  0  0  0  0  0  0
  148.8292  138.0368  155.6568 H   0  0  0  0  0  0  0  0  0  0  0  0
  149.2259  139.3256  153.1498 H   0  0  0  0  0  0  0  0  0  0  0  0
  149.0443  141.6894  153.5705 H   0  0  0  0  0  0  0  0  0  0  0  0
  148.1679  141.0952  156.2908 H   0  0  0  0  0  0  0  0  0  0  0  0
  148.5773  142.6077  155.5049 H   0  0  0  0  0  0  0  0  0  0  0  0
  145.8904  141.2256  155.6313 H   0  0  0  0  0  0  0  0  0  0  0  0
  146.2360  142.9570  155.7186 H   0  0  0  0  0  0  0  0  0  0  0  0
  147.2524  141.2056  152.1977 H   0  0  0  0  0  0  0  0  0  0  0  0
  146.4937  140.1072  153.3366 H   0  0  0  0  0  0  0  0  0  0  0  0
  150.8718  137.6991  155.1002 H   0  0  0  0  0  0  0  0  0  0  0  0
  151.2201  138.1769  153.4521 H   0  0  0  0  0  0  0  0  0  0  0  0
  153.3013  137.7394  154.7700 H   0  0  0  0  0  0  0  0  0  0  0  0
  153.2511  139.4026  154.2129 H   0  0  0  0  0  0  0  0  0  0  0  0
  152.2564  140.6301  157.4911 H   0  0  0  0  0  0  0  0  0  0  0  0
  152.6384  141.1437  155.8587 H   0  0  0  0  0  0  0  0  0  0  0  0
  150.2195  141.1841  156.1720 H   0  0  0  0  0  0  0  0  0  0  0  0
  150.1916  139.5276  156.7481 H   0  0  0  0  0  0  0  0  0  0  0  0
  147.5081  135.9371  152.2717 H   0  0  0  0  0  0  0  0  0  0  0  0
  144.1646  136.2811  153.6686 H   0  0  0  0  0  0  0  0  0  0  0  0
  142.1292  135.0460  152.7484 H   0  0  0  0  0  0  0  0  0  0  0  0
  144.3781  133.2069  149.8075 H   0  0  0  0  0  0  0  0  0  0  0  0
  146.5056  134.3497  150.5650 H   0  0  0  0  0  0  0  0  0  0  0  0
  142.4004  133.6340  150.9332 H   0  0  0  0  0  0  0  0  0  0  0  0
  1  2  2  0  0  0  0
  2  3  1  0  0  0  0
  2 17  1  0  0  0  0
  3  4  1  0  0  0  0
  3 24  1  0  0  0  0
  4  5  1  0  0  0  0
  4 25  1  0  0  0  0
  4 26  1  0  0  0  0
  5  6  1  0  0  0  0
  5 11  1  0  0  0  0
  5 27  1  0  0  0  0
  6 10  1  0  0  0  0
  6  7  1  0  0  0  0
  6 28  1  0  0  0  0
  7  8  1  0  0  0  0
  7 29  1  0  0  0  0
  7 30  1  0  0  0  0
  8  9  1  0  0  0  0
  8 31  1  0  0  0  0
  8 32  1  0  0  0  0
  9 10  1  0  0  0  0
 10 33  1  0  0  0  0
 10 34  1  0  0  0  0
 11 16  1  0  0  0  0
 11 12  1  0  0  0  0
 12 13  1  0  0  0  0
 12 35  1  0  0  0  0
 12 36  1  0  0  0  0
 13 14  1  0  0  0  0
 13 37  1  0  0  0  0
 13 38  1  0  0  0  0
 14 15  1  0  0  0  0
 15 16  1  0  0  0  0
 15 39  1  0  0  0  0
 15 40  1  0  0  0  0
 16 41  1  0  0  0  0
 16 42  1  0  0  0  0
 17 18  1  0  0  0  0
 17 43  1  0  0  0  0
 18 23  1  0  0  0  0
 18 19  2  0  0  0  0
 19 20  1  0  0  0  0
 19 44  1  0  0  0  0
 20 21  2  0  0  0  0
 20 45  1  0  0  0  0
 21 22  1  0  0  0  0
 21 48  1  0  0  0  0
 22 23  2  0  0  0  0
 22 46  1  0  0  0  0
 23 47  1  0  0  0  0
M  CHG  1  21   1
M  END
> <s_m_source_file>
AV-unprocessed.smi

> <i_m_source_file_index>
1240

> <i_lp_mmshare_version>
43012

> <i_f3d_flags>
0

> <s_epik_input>
W2NIXTFbY0hdbltjSF1bY0hdYzFbTkhdQyg9TylbTkhdW0NIMl1bQ0BIXShbQ0BASF0yW0NIMl1bQ0gyXU9bQ0gyXTIpTjNbQ0gyXVtDSDJdT1tDSDJdW0NIMl0z

> <s_epik_cmdline>
J2VwaWtfcHl0aG9uJywgJy1waCcsICc3LjAnLCAnLXRuJywgJzgnLCAnLW1hJywgJzIwMCcsICctbWV0YWxfYmluZGluZycsICctaW1hZScsICc8aW5maWxlLm1hZT4nLCAnLW9tYWUnLCAnPG91dGZpbGUubWFlPic=

> <r_epik_Ionization_Penalty>
1.15944

> <r_epik_Ionization_Penalty_Charging>
1.0344

> <r_epik_Ionization_Penalty_Neutral>
0.125034

> <r_epik_State_Penalty>
1.2199

> <r_epik_Charging_Adjusted_Penalty>
2.25431

> <i_epik_Tot_Q>
1

> <i_epik_Tot_abs_Q>
1

> <r_epik_Metal_State_Penalty>
1.3155

> <b_epik_Metal_Only>
0

> <s_lp_Force_Field>
OPLS_2005

> <r_lp_Energy>
64.7191

> <b_lp_Chiralities_Consistent>
1

> <s_lp_Variant>
AV-unprocessed.smi:1240-10

> <Gold.Version>
5.8.1

> <Gold.Id.Protein>
6NUR|6NUR_protein|mol2

> <Gold.PLP.Fitness>
46.7893

> <Gold.PLP.PLP>
-35.9992

> <Gold.PLP.part.hbond>
-4.9496

> <Gold.PLP.part.metal>
0.0000

> <Gold.PLP.part.buried>
-3.9211

> <Gold.PLP.part.nonpolar>
-28.1944

> <Gold.PLP.part.repulsive>
0.4056

> <Gold.PLP.ligand.clash>
0.0000

> <Gold.PLP.ligand.torsion>
0.9134

> <Gold.PLP.Chemscore.Hbond>
4.0860

> <Gold.PLP.Chemscore.CHOScore>
0.0000

> <Gold.PLP.Chemscore.Metal>
0.0000

> <Gold.Chemscore.Hbonds>
donor molecule, donor type, donor heavy atom, donor atom, acceptor molecule, acceptor atom, score
      L1  H     3    24       P1  7948  0.86
      L1  H    17    43       P1  7948  0.96
      L1  H    21    48       P1 10186  0.83
      P1  H  7989  7998       L1    11  0.80
      P1  H  7997  8010       L1    14  0.25

> <Gold.PLP.Chemscore.Internal.Correction>
0.3590

> <Gold.Rescore>
     Score         DG    S(hbond)    S(metal)    S(lipo)     H(rot)  DE(clash)    DE(int)     intcor
     16.63     -19.27       2.34        0.00      87.97       1.69       0.24       2.40       ----

> <Gold.Chemscore.Fitness>
16.6272

> <Gold.Chemscore.DG>
-19.2677

> <Gold.Chemscore.ZeroCoef>
-5.4800

> <Gold.Chemscore.Hbond>
2.3429

> <Gold.Chemscore.Metal>
0.0000

> <Gold.Chemscore.Lipo>
87.9658

> <Gold.Chemscore.Internal_Hbond>
0.0000

> <Gold.Chemscore.DEClash>
0.2379

> <Gold.Chemscore.DEInternal>
2.4026

> <Gold.Chemscore.Rot>
1.6912

> <Gold.Chemscore.Internal.Correction>
   9.000000E+99

> <Gold.Chemscore.Hbonds>
donor molecule, donor type, donor heavy atom, donor atom, acceptor molecule, acceptor atom, score
      L1  H     3    24       P1  7948  0.85
      L1  H    17    43       P1  7948  0.90
      L1  H    21    48       P1 10186  0.31
      P1  H  7989  7998       L1    11  0.06

> <Gold.Chemscore.Hbond.Weighted>
-7.8252

> <Gold.Chemscore.Metal.Weighted>
-0.0000

> <Gold.Chemscore.Lipo.Weighted>
-10.2920

> <Gold.Chemscore.Internal_Hbond.Weighted>
0.0000

> <Gold.Chemscore.DEClash.Weighted>
0.2379

> <Gold.Chemscore.DEInternal.Weighted>
2.4026

> <Gold.Chemscore.Rot.Weighted>
4.3295

> <Gold.Chemscore.Internal.Correction.Weighted>
   9.000000E+99

> <Gold.Protein.RotatedTorsions>
[ 6907 6896 6895 6894 ] final    0.95 input  -60.11 | X-H torsion
[ 7974 7965 7964 7962 ] final   61.25 input  175.53 | X-H torsion
[ 8008 7997 7996 7995 ] final   67.31 input   59.86 | X-H torsion
[ 10167 10162 10161 10158 ] final -100.25 input  -65.29 | X-H torsion
[ 10718 10713 10712 10709 ] final  -73.54 input   66.30 | X-H torsion
[ 10763 10752 10751 10750 ] final  -62.27 input  -60.55 | X-H torsion
[ 11005 11000 10999 10996 ] final  -46.14 input  -57.11 | X-H torsion

> <Gold.Protein.ActiveResidues>
 VAL166  LYS551  ARG553  GLY616  TRP617  ASP618  TYR619  PRO620  LYS621  CYS622 
 ASP623  PHE694  ASN695  SER759  ASP760  ASP761  ALA762  ILE779  LEU786  VAL792 
 PHE793  MET794  SER795  GLU796  ALA797  LYS798  CYS799  TRP800  GLU811  SER814 

> <Gold.Protein.RotatedAtoms>
  151.5848  135.1056  160.0025 H   0  0  0  0  0  0  0  0  0  0  0  0  # atno 6907 bound_to 6896
  152.4336  133.7317  159.6601 H   0  0  0  0  0  0  0  0  0  0  0  0  # atno 6908 bound_to 6896
  150.8231  133.8148  159.3153 H   0  0  0  0  0  0  0  0  0  0  0  0  # atno 6909 bound_to 6896
  145.8869  139.3483  143.0672 H   0  0  0  0  0  0  0  0  0  0  0  0  # atno 7974 bound_to 7965
  155.6909  140.3496  155.4893 H   0  0  0  0  0  0  0  0  0  0  0  0  # atno 8008 bound_to 7997
  155.9525  140.1122  157.0987 H   0  0  0  0  0  0  0  0  0  0  0  0  # atno 8009 bound_to 7997
  154.4125  140.1191  156.5057 H   0  0  0  0  0  0  0  0  0  0  0  0  # atno 8010 bound_to 7997
  140.2539  143.3454  152.0689 H   0  0  0  0  0  0  0  0  0  0  0  0  # atno 10167 bound_to 10162
  156.0276  130.4396  150.2758 H   0  0  0  0  0  0  0  0  0  0  0  0  # atno 10718 bound_to 10713
  154.2972  135.6241  153.5410 H   0  0  0  0  0  0  0  0  0  0  0  0  # atno 10763 bound_to 10752
  152.9845  135.5670  154.5324 H   0  0  0  0  0  0  0  0  0  0  0  0  # atno 10764 bound_to 10752
  154.4947  135.2869  155.1445 H   0  0  0  0  0  0  0  0  0  0  0  0  # atno 10765 bound_to 10752
  141.0560  133.6726  156.3112 H   0  0  0  0  0  0  0  0  0  0  0  0  # atno 11005 bound_to 11000
  145.8956  140.9276  143.0529 LP  0  0  0  0  0  0  0  0  0  0  0  0  # atno 17320 bound_to 7965
  144.6729  140.0963  143.7462 LP  0  0  0  0  0  0  0  0  0  0  0  0  # atno 17321 bound_to 7965
  139.5038  144.6762  151.6123 LP  0  0  0  0  0  0  0  0  0  0  0  0  # atno 17342 bound_to 10162
  140.6019  143.9594  150.6392 LP  0  0  0  0  0  0  0  0  0  0  0  0  # atno 17343 bound_to 10162
  157.0861  131.0157  151.3139 LP  0  0  0  0  0  0  0  0  0  0  0  0  # atno 17370 bound_to 10713
  157.4890  130.7811  149.7489 LP  0  0  0  0  0  0  0  0  0  0  0  0  # atno 17371 bound_to 10713
  140.5963  134.5599  157.5509 LP  0  0  0  0  0  0  0  0  0  0  0  0  # atno 17394 bound_to 11000
  139.9390  134.7821  156.0727 LP  0  0  0  0  0  0  0  0  0  0  0  0  # atno 17395 bound_to 11000

$$$$
