AV-unprocessed.smi:3173|AV-procd|sdf|12119|dock2
  -GOLD-   2272017553D 1   1.00000     0.00000
 Structure written by MMmdl.
 36 37  0  0  0  0  0  0  0  0  2 V2000
  148.8535  140.0897  154.8042 O   0  0  0  0  0  0  0  0  0  0  0  0
  148.7659  141.3028  154.6128 C   0  0  0  0  0  0  0  0  0  0  0  0
  147.6056  141.8771  153.7928 C   0  0  0  0  0  0  0  0  0  0  0  0
  146.7961  142.9491  154.5520 C   0  0  2  0  0  0  0  0  0  0  0  0
  146.0045  142.3666  155.6942 C   0  0  0  0  0  0  0  0  0  0  0  0
  144.7237  142.7292  155.6710 C   0  0  0  0  0  0  0  0  0  0  0  0
  144.4007  143.6257  154.5083 C   0  0  0  0  0  0  0  0  0  0  0  0
  145.7145  143.6638  153.6972 C   0  0  0  0  0  0  0  0  0  0  0  0
  149.6503  142.1882  155.0973 N   0  0  0  0  0  0  0  0  0  0  0  0
  150.8032  141.8489  155.9233 C   0  0  0  0  0  0  0  0  0  0  0  0
  150.4148  141.7174  157.4056 C   0  0  0  0  0  0  0  0  0  0  0  0
  150.9900  142.8356  158.2526 C   0  0  0  0  0  0  0  0  0  0  0  0
  151.8929  142.5861  159.3089 C   0  0  0  0  0  0  0  0  0  0  0  0
  152.3960  143.6712  160.0564 C   0  0  0  0  0  0  0  0  0  0  0  0
  151.9867  144.9814  159.7322 C   0  0  0  0  0  0  0  0  0  0  0  0
  151.0844  145.1735  158.6660 C   0  0  0  0  0  0  0  0  0  0  0  0
  150.6254  144.1082  157.9728 N   0  3  0  0  0  0  0  0  0  0  0  0
  147.9871  142.2965  152.8602 H   0  0  0  0  0  0  0  0  0  0  0  0
  146.9511  141.0505  153.5139 H   0  0  0  0  0  0  0  0  0  0  0  0
  147.4726  143.6881  154.9840 H   0  0  0  0  0  0  0  0  0  0  0  0
  146.4582  141.7391  156.4472 H   0  0  0  0  0  0  0  0  0  0  0  0
  143.9809  142.4410  156.4002 H   0  0  0  0  0  0  0  0  0  0  0  0
  143.5733  143.2215  153.9240 H   0  0  0  0  0  0  0  0  0  0  0  0
  144.1221  144.6151  154.8720 H   0  0  0  0  0  0  0  0  0  0  0  0
  146.0083  144.6859  153.4553 H   0  0  0  0  0  0  0  0  0  0  0  0
  145.5644  143.1427  152.7506 H   0  0  0  0  0  0  0  0  0  0  0  0
  149.5073  143.1656  154.8868 H   0  0  0  0  0  0  0  0  0  0  0  0
  151.2590  140.9246  155.5638 H   0  0  0  0  0  0  0  0  0  0  0  0
  151.5514  142.6323  155.8003 H   0  0  0  0  0  0  0  0  0  0  0  0
  149.3289  141.7154  157.5095 H   0  0  0  0  0  0  0  0  0  0  0  0
  150.7617  140.7629  157.8040 H   0  0  0  0  0  0  0  0  0  0  0  0
  152.1982  141.5764  159.5433 H   0  0  0  0  0  0  0  0  0  0  0  0
  153.0878  143.5002  160.8684 H   0  0  0  0  0  0  0  0  0  0  0  0
  152.3598  145.8259  160.2931 H   0  0  0  0  0  0  0  0  0  0  0  0
  150.7191  146.1394  158.3488 H   0  0  0  0  0  0  0  0  0  0  0  0
  149.9735  144.2713  157.2051 H   0  0  0  0  0  0  0  0  0  0  0  0
  1  2  2  0  0  0  0
  2  3  1  0  0  0  0
  2  9  1  0  0  0  0
  3  4  1  0  0  0  0
  3 18  1  0  0  0  0
  3 19  1  0  0  0  0
  4  8  1  0  0  0  0
  4  5  1  0  0  0  0
  4 20  1  0  0  0  0
  5  6  2  0  0  0  0
  5 21  1  0  0  0  0
  6  7  1  0  0  0  0
  6 22  1  0  0  0  0
  7  8  1  0  0  0  0
  7 23  1  0  0  0  0
  7 24  1  0  0  0  0
  8 25  1  0  0  0  0
  8 26  1  0  0  0  0
  9 10  1  0  0  0  0
  9 27  1  0  0  0  0
 10 11  1  0  0  0  0
 10 28  1  0  0  0  0
 10 29  1  0  0  0  0
 11 12  1  0  0  0  0
 11 30  1  0  0  0  0
 11 31  1  0  0  0  0
 12 17  1  0  0  0  0
 12 13  2  0  0  0  0
 13 14  1  0  0  0  0
 13 32  1  0  0  0  0
 14 15  2  0  0  0  0
 14 33  1  0  0  0  0
 15 16  1  0  0  0  0
 15 34  1  0  0  0  0
 16 17  2  0  0  0  0
 16 35  1  0  0  0  0
 17 36  1  0  0  0  0
M  CHG  1  17   1
M  END
> <s_m_source_file>
AV-unprocessed.smi

> <i_m_source_file_index>
3173

> <i_lp_mmshare_version>
43012

> <i_f3d_flags>
0

> <s_epik_input>
W0NIMl0xW0NIMl1bQ0hdPVtDSF1bQ0BIXTFbQ0gyXUMoPU8pW05IXVtDSDJdW0NIMl1jMltjSF1bY0hdW2NIXVtjSF1uMg==

> <s_epik_cmdline>
J2VwaWtfcHl0aG9uJywgJy1waCcsICc3LjAnLCAnLXRuJywgJzgnLCAnLW1hJywgJzIwMCcsICctbWV0YWxfYmluZGluZycsICctaW1hZScsICc8aW5maWxlLm1hZT4nLCAnLW9tYWUnLCAnPG91dGZpbGUubWFlPic=

> <r_epik_Ionization_Penalty>
1.86798

> <r_epik_Ionization_Penalty_Charging>
1.86798

> <r_epik_Ionization_Penalty_Neutral>
1.53848e-08

> <r_epik_State_Penalty>
1.98677

> <r_epik_Charging_Adjusted_Penalty>
3.85475

> <i_epik_Tot_Q>
1

> <i_epik_Tot_abs_Q>
1

> <r_epik_Metal_State_Penalty>
2.01174

> <b_epik_Metal_Only>
0

> <s_lp_Force_Field>
OPLS_2005

> <r_lp_Energy>
19.7802

> <b_lp_Chiralities_Consistent>
1

> <s_lp_Variant>
AV-unprocessed.smi:3173-3

> <Gold.Version>
5.8.1

> <Gold.Id.Protein>
6NUR|6NUR_protein|mol2

> <Gold.PLP.Fitness>
47.2279

> <Gold.PLP.PLP>
-39.4228

> <Gold.PLP.part.hbond>
-2.1902

> <Gold.PLP.part.metal>
0.0000

> <Gold.PLP.part.buried>
-5.3859

> <Gold.PLP.part.nonpolar>
-32.0704

> <Gold.PLP.part.repulsive>
0.3368

> <Gold.PLP.ligand.clash>
0.0000

> <Gold.PLP.ligand.torsion>
0.5743

> <Gold.PLP.Chemscore.Hbond>
2.9600

> <Gold.PLP.Chemscore.CHOScore>
0.0000

> <Gold.PLP.Chemscore.Metal>
0.0000

> <Gold.Chemscore.Hbonds>
donor molecule, donor type, donor heavy atom, donor atom, acceptor molecule, acceptor atom, score
      L1  H     9    27       P1  8028  0.85
      L1  H    17    36       P1  8028  2.00

> <Gold.PLP.Chemscore.Internal.Correction>
0.0737

> <Gold.Rescore>
     Score         DG    S(hbond)    S(metal)    S(lipo)     H(rot)  DE(clash)    DE(int)     intcor
     18.00     -18.86       1.78        0.00      98.81       1.61       0.24       0.61       ----

> <Gold.Chemscore.Fitness>
18.0034

> <Gold.Chemscore.DG>
-18.8551

> <Gold.Chemscore.ZeroCoef>
-5.4800

> <Gold.Chemscore.Hbond>
1.7788

> <Gold.Chemscore.Metal>
0.0000

> <Gold.Chemscore.Lipo>
98.8104

> <Gold.Chemscore.Internal_Hbond>
0.0000

> <Gold.Chemscore.DEClash>
0.2443

> <Gold.Chemscore.DEInternal>
0.6074

> <Gold.Chemscore.Rot>
1.6122

> <Gold.Chemscore.Internal.Correction>
   9.000000E+99

> <Gold.Chemscore.Hbonds>
donor molecule, donor type, donor heavy atom, donor atom, acceptor molecule, acceptor atom, score
      L1  H     9    27       P1  8028  0.83
      L1  H    17    36       P1  8028  0.60

> <Gold.Chemscore.Hbond.Weighted>
-5.9413

> <Gold.Chemscore.Metal.Weighted>
-0.0000

> <Gold.Chemscore.Lipo.Weighted>
-11.5608

> <Gold.Chemscore.Internal_Hbond.Weighted>
0.0000

> <Gold.Chemscore.DEClash.Weighted>
0.2443

> <Gold.Chemscore.DEInternal.Weighted>
0.6074

> <Gold.Chemscore.Rot.Weighted>
4.1271

> <Gold.Chemscore.Internal.Correction.Weighted>
   9.000000E+99

> <Gold.Protein.RotatedTorsions>
[ 6907 6896 6895 6894 ] final  -13.66 input  -60.11 | X-H torsion
[ 7974 7965 7964 7962 ] final -127.60 input  175.53 | X-H torsion
[ 8008 7997 7996 7995 ] final   50.06 input   59.86 | X-H torsion
[ 10167 10162 10161 10158 ] final  -55.30 input  -65.29 | X-H torsion
[ 10718 10713 10712 10709 ] final  108.98 input   66.30 | X-H torsion
[ 10763 10752 10751 10750 ] final  162.30 input  -60.55 | X-H torsion
[ 11005 11000 10999 10996 ] final  149.77 input  -57.11 | X-H torsion

> <Gold.Protein.ActiveResidues>
 VAL166  LYS551  ARG553  GLY616  TRP617  ASP618  TYR619  PRO620  LYS621  CYS622 
 ASP623  PHE694  ASN695  SER759  ASP760  ASP761  ALA762  ILE779  LEU786  VAL792 
 PHE793  MET794  SER795  GLU796  ALA797  LYS798  CYS799  TRP800  GLU811  SER814 

> <Gold.Protein.RotatedAtoms>
  151.3515  135.0885  159.9404 H   0  0  0  0  0  0  0  0  0  0  0  0  # atno 6907 bound_to 6896
  152.5186  133.9348  159.7608 H   0  0  0  0  0  0  0  0  0  0  0  0  # atno 6908 bound_to 6896
  150.9724  133.6276  159.2765 H   0  0  0  0  0  0  0  0  0  0  0  0  # atno 6909 bound_to 6896
  144.9754  140.7587  143.4645 H   0  0  0  0  0  0  0  0  0  0  0  0  # atno 7974 bound_to 7965
  155.4126  140.3443  155.4265 H   0  0  0  0  0  0  0  0  0  0  0  0  # atno 8008 bound_to 7997
  156.1440  140.1550  156.8908 H   0  0  0  0  0  0  0  0  0  0  0  0  # atno 8009 bound_to 7997
  154.4995  140.0818  156.7748 H   0  0  0  0  0  0  0  0  0  0  0  0  # atno 8010 bound_to 7997
  140.6382  143.2493  151.5060 H   0  0  0  0  0  0  0  0  0  0  0  0  # atno 10167 bound_to 10162
  157.6562  131.0904  150.6386 H   0  0  0  0  0  0  0  0  0  0  0  0  # atno 10718 bound_to 10713
  154.2763  135.2764  155.2716 H   0  0  0  0  0  0  0  0  0  0  0  0  # atno 10763 bound_to 10752
  154.5257  135.5743  153.6721 H   0  0  0  0  0  0  0  0  0  0  0  0  # atno 10764 bound_to 10752
  152.9936  135.6215  154.2920 H   0  0  0  0  0  0  0  0  0  0  0  0  # atno 10765 bound_to 10752
  140.1073  134.8946  157.1885 H   0  0  0  0  0  0  0  0  0  0  0  0  # atno 11005 bound_to 11000
  145.2498  139.2036  143.4948 LP  0  0  0  0  0  0  0  0  0  0  0  0  # atno 17320 bound_to 7965
  146.3394  140.2409  142.8595 LP  0  0  0  0  0  0  0  0  0  0  0  0  # atno 17321 bound_to 7965
  139.5592  144.2199  152.1663 LP  0  0  0  0  0  0  0  0  0  0  0  0  # atno 17342 bound_to 10162
  140.1461  144.5157  150.6715 LP  0  0  0  0  0  0  0  0  0  0  0  0  # atno 17343 bound_to 10162
  156.6692  130.4534  149.5662 LP  0  0  0  0  0  0  0  0  0  0  0  0  # atno 17370 bound_to 10713
  156.2010  130.6619  151.1167 LP  0  0  0  0  0  0  0  0  0  0  0  0  # atno 17371 bound_to 10713
  140.3138  134.2993  155.7261 LP  0  0  0  0  0  0  0  0  0  0  0  0  # atno 17394 bound_to 11000
  141.2121  133.7667  156.9814 LP  0  0  0  0  0  0  0  0  0  0  0  0  # atno 17395 bound_to 11000

$$$$
