AV-unprocessed.smi:2708|AV-procd|sdf|10458|dock6
  -GOLD-   2272014493D 1   1.00000     0.00000
 Structure written by MMmdl.
 35 35  0  0  0  0  0  0  0  0  2 V2000
  150.8898  136.3544  155.2117 C   0  0  0  0  0  0  0  0  0  0  0  0
  150.8791  136.8685  156.6612 C   0  0  2  0  0  0  0  0  0  0  0  0
  150.6640  138.3119  156.6986 N   0  0  0  0  0  0  0  0  0  0  0  0
  151.6088  139.2546  156.5551 C   0  0  0  0  0  0  0  0  0  0  0  0
  152.7995  139.0033  156.3697 O   0  0  0  0  0  0  0  0  0  0  0  0
  151.1363  140.7072  156.6334 C   0  0  0  0  0  0  0  0  0  0  0  0
  151.6146  141.3409  157.9076 C   0  0  0  0  0  0  0  0  0  0  0  0
  152.3776  140.7520  158.8844 C   0  0  0  0  0  0  0  0  0  0  0  0
  152.7167  141.8495  160.1921 S   0  0  0  0  0  0  0  0  0  0  0  0
  151.7855  143.0996  159.3587 C   0  0  0  0  0  0  0  0  0  0  0  0
  151.5659  144.5027  159.8717 C   0  0  0  0  0  0  0  0  0  0  0  0
  152.2138  144.6594  161.2610 C   0  0  0  0  0  0  0  0  0  0  0  0
  150.0560  144.8034  159.9395 C   0  0  0  0  0  0  0  0  0  0  0  0
  152.2086  145.5494  158.9360 C   0  0  0  0  0  0  0  0  0  0  0  0
  151.2826  142.6681  158.1963 N   0  0  0  0  0  0  0  0  0  0  0  0
  152.1383  136.5027  157.4527 C   0  0  0  0  0  0  0  0  0  0  0  0
  153.1201  136.0789  156.8030 O   0  0  0  0  0  0  0  0  0  0  0  0
  152.1011  136.6531  158.6936 O   0  5  0  0  0  0  0  0  0  0  0  0
  150.0409  136.3902  157.1721 H   0  0  0  0  0  0  0  0  0  0  0  0
  151.0570  135.2772  155.1791 H   0  0  0  0  0  0  0  0  0  0  0  0
  151.6766  136.8310  154.6262 H   0  0  0  0  0  0  0  0  0  0  0  0
  149.9396  136.5529  154.7151 H   0  0  0  0  0  0  0  0  0  0  0  0
  149.7102  138.6125  156.8401 H   0  0  0  0  0  0  0  0  0  0  0  0
  151.5055  141.2549  155.7650 H   0  0  0  0  0  0  0  0  0  0  0  0
  150.0475  140.7345  156.5738 H   0  0  0  0  0  0  0  0  0  0  0  0
  152.7665  139.7447  158.9089 H   0  0  0  0  0  0  0  0  0  0  0  0
  152.0835  145.6700  161.6497 H   0  0  0  0  0  0  0  0  0  0  0  0
  153.2846  144.4552  161.2243 H   0  0  0  0  0  0  0  0  0  0  0  0
  151.7738  143.9745  161.9868 H   0  0  0  0  0  0  0  0  0  0  0  0
  149.5430  144.1222  160.6194 H   0  0  0  0  0  0  0  0  0  0  0  0
  149.5873  144.7037  158.9597 H   0  0  0  0  0  0  0  0  0  0  0  0
  149.8673  145.8175  160.2939 H   0  0  0  0  0  0  0  0  0  0  0  0
  152.0498  146.5624  159.3077 H   0  0  0  0  0  0  0  0  0  0  0  0
  151.7849  145.5061  157.9319 H   0  0  0  0  0  0  0  0  0  0  0  0
  153.2863  145.4050  158.8498 H   0  0  0  0  0  0  0  0  0  0  0  0
  1  2  1  0  0  0  0
  1 20  1  0  0  0  0
  1 21  1  0  0  0  0
  1 22  1  0  0  0  0
  2 19  1  0  0  0  0
  2  3  1  0  0  0  0
  2 16  1  0  0  0  0
  3  4  1  0  0  0  0
  3 23  1  0  0  0  0
  4  5  2  0  0  0  0
  4  6  1  0  0  0  0
  6  7  1  0  0  0  0
  6 24  1  0  0  0  0
  6 25  1  0  0  0  0
  7 15  1  0  0  0  0
  7  8  2  0  0  0  0
  8  9  1  0  0  0  0
  8 26  1  0  0  0  0
  9 10  1  0  0  0  0
 10 11  1  0  0  0  0
 10 15  2  0  0  0  0
 11 12  1  0  0  0  0
 11 13  1  0  0  0  0
 11 14  1  0  0  0  0
 12 27  1  0  0  0  0
 12 28  1  0  0  0  0
 12 29  1  0  0  0  0
 13 30  1  0  0  0  0
 13 31  1  0  0  0  0
 13 32  1  0  0  0  0
 14 33  1  0  0  0  0
 14 34  1  0  0  0  0
 14 35  1  0  0  0  0
 16 17  2  0  0  0  0
 16 18  1  0  0  0  0
M  CHG  1  18  -1
M  END
> <s_m_source_file>
AV-unprocessed.smi

> <i_m_source_file_index>
2708

> <i_lp_mmshare_version>
43012

> <i_f3d_flags>
0

> <s_epik_input>
Tz1DKFtPSF0pW0NASF0oW0NIM10pW05IXUMoPU8pW0NIMl1jMVtjSF1zYyhuMSlDKFtDSDNdKShbQ0gzXSlbQ0gzXQ==

> <s_epik_cmdline>
J2VwaWtfcHl0aG9uJywgJy1waCcsICc3LjAnLCAnLXRuJywgJzgnLCAnLW1hJywgJzIwMCcsICctbWV0YWxfYmluZGluZycsICctaW1hZScsICc8aW5maWxlLm1hZT4nLCAnLW9tYWUnLCAnPG91dGZpbGUubWFlPic=

> <r_lp_tautomer_probability>
1

> <r_epik_Ionization_Penalty>
0.000214174

> <r_epik_Ionization_Penalty_Charging>
0.000167453

> <r_epik_Ionization_Penalty_Neutral>
4.67216e-05

> <r_epik_State_Penalty>
-0

> <r_epik_Charging_Adjusted_Penalty>
0.000167453

> <i_epik_Tot_Q>
-1

> <i_epik_Tot_abs_Q>
1

> <r_epik_Metal_State_Penalty>
-0

> <b_epik_Metal_Only>
0

> <s_lp_Force_Field>
OPLS_2005

> <r_lp_Energy>
-5.26793

> <b_lp_Chiralities_Consistent>
1

> <s_lp_Variant>
AV-unprocessed.smi:2708-1

> <Gold.Version>
5.8.1

> <Gold.Id.Protein>
6NUR|6NUR_protein|mol2

> <Gold.PLP.Fitness>
44.4482

> <Gold.PLP.PLP>
-32.4744

> <Gold.PLP.part.hbond>
-3.0000

> <Gold.PLP.part.metal>
0.0000

> <Gold.PLP.part.buried>
-4.3557

> <Gold.PLP.part.nonpolar>
-25.1011

> <Gold.PLP.part.repulsive>
0.0565

> <Gold.PLP.ligand.clash>
0.0000

> <Gold.PLP.ligand.torsion>
0.6627

> <Gold.PLP.Chemscore.Hbond>
4.4080

> <Gold.PLP.Chemscore.CHOScore>
0.0000

> <Gold.PLP.Chemscore.Metal>
0.0000

> <Gold.Chemscore.Hbonds>
donor molecule, donor type, donor heavy atom, donor atom, acceptor molecule, acceptor atom, score
      P1  H  6896  6909       L1    18  1.47
      P1  H  7997  8009       L1     5  1.00
      P1  H 10752 10765       L1    17  2.00

> <Gold.PLP.Chemscore.Internal.Correction>
0.0752

> <Gold.Rescore>
     Score         DG    S(hbond)    S(metal)    S(lipo)     H(rot)  DE(clash)    DE(int)     intcor
     18.14     -19.77       2.75        0.00      92.75       2.25       0.08       1.55       ----

> <Gold.Chemscore.Fitness>
18.1367

> <Gold.Chemscore.DG>
-19.7656

> <Gold.Chemscore.ZeroCoef>
-5.4800

> <Gold.Chemscore.Hbond>
2.7508

> <Gold.Chemscore.Metal>
0.0000

> <Gold.Chemscore.Lipo>
92.7548

> <Gold.Chemscore.Internal_Hbond>
0.0000

> <Gold.Chemscore.DEClash>
0.0816

> <Gold.Chemscore.DEInternal>
1.5473

> <Gold.Chemscore.Rot>
2.2478

> <Gold.Chemscore.Internal.Correction>
   9.000000E+99

> <Gold.Chemscore.Hbonds>
donor molecule, donor type, donor heavy atom, donor atom, acceptor molecule, acceptor atom, score
      P1  H  6896  6909       L1    18  0.67
      P1  H  7997  8009       L1     5  1.00
      P1  H 10752 10765       L1    17  0.99

> <Gold.Chemscore.Hbond.Weighted>
-9.1878

> <Gold.Chemscore.Metal.Weighted>
-0.0000

> <Gold.Chemscore.Lipo.Weighted>
-10.8523

> <Gold.Chemscore.Internal_Hbond.Weighted>
0.0000

> <Gold.Chemscore.DEClash.Weighted>
0.0816

> <Gold.Chemscore.DEInternal.Weighted>
1.5473

> <Gold.Chemscore.Rot.Weighted>
5.7544

> <Gold.Chemscore.Internal.Correction.Weighted>
   9.000000E+99

> <Gold.Protein.RotatedTorsions>
[ 6907 6896 6895 6894 ] final  126.49 input  -60.11 | X-H torsion
[ 7974 7965 7964 7962 ] final   40.95 input  175.53 | X-H torsion
[ 8008 7997 7996 7995 ] final -171.32 input   59.86 | X-H torsion
[ 10167 10162 10161 10158 ] final  -11.98 input  -65.29 | X-H torsion
[ 10718 10713 10712 10709 ] final  -76.75 input   66.30 | X-H torsion
[ 10763 10752 10751 10750 ] final -109.41 input  -60.55 | X-H torsion
[ 11005 11000 10999 10996 ] final  -19.10 input  -57.11 | X-H torsion

> <Gold.Protein.ActiveResidues>
 VAL166  LYS551  ARG553  GLY616  TRP617  ASP618  TYR619  PRO620  LYS621  CYS622 
 ASP623  PHE694  ASN695  SER759  ASP760  ASP761  ALA762  ILE779  LEU786  VAL792 
 PHE793  MET794  SER795  GLU796  ALA797  LYS798  CYS799  TRP800  GLU811  SER814 

> <Gold.Protein.RotatedAtoms>
  152.3899  133.6664  159.6228 H   0  0  0  0  0  0  0  0  0  0  0  0  # atno 6907 bound_to 6896
  150.7809  133.8972  159.3339 H   0  0  0  0  0  0  0  0  0  0  0  0  # atno 6908 bound_to 6896
  151.6761  135.0970  160.0258 H   0  0  0  0  0  0  0  0  0  0  0  0  # atno 6909 bound_to 6896
  146.0863  139.5472  142.9504 H   0  0  0  0  0  0  0  0  0  0  0  0  # atno 7974 bound_to 7965
  155.9301  140.1089  157.1139 H   0  0  0  0  0  0  0  0  0  0  0  0  # atno 8008 bound_to 7997
  154.4069  140.1239  156.4856 H   0  0  0  0  0  0  0  0  0  0  0  0  # atno 8009 bound_to 7997
  155.7091  140.3471  155.4968 H   0  0  0  0  0  0  0  0  0  0  0  0  # atno 8010 bound_to 7997
  140.7151  143.5581  150.9226 H   0  0  0  0  0  0  0  0  0  0  0  0  # atno 10167 bound_to 10162
  156.0165  130.4473  150.3241 H   0  0  0  0  0  0  0  0  0  0  0  0  # atno 10718 bound_to 10713
  154.8191  135.4602  154.0728 H   0  0  0  0  0  0  0  0  0  0  0  0  # atno 10763 bound_to 10752
  153.2096  135.6880  153.8137 H   0  0  0  0  0  0  0  0  0  0  0  0  # atno 10764 bound_to 10752
  153.7593  135.3286  155.3311 H   0  0  0  0  0  0  0  0  0  0  0  0  # atno 10765 bound_to 10752
  140.8333  133.7980  155.9782 H   0  0  0  0  0  0  0  0  0  0  0  0  # atno 11005 bound_to 11000
  145.6123  141.0337  143.1959 LP  0  0  0  0  0  0  0  0  0  0  0  0  # atno 17320 bound_to 7965
  144.7328  139.7674  143.7340 LP  0  0  0  0  0  0  0  0  0  0  0  0  # atno 17321 bound_to 7965
  139.9306  143.6497  152.3077 LP  0  0  0  0  0  0  0  0  0  0  0  0  # atno 17342 bound_to 10162
  139.6947  144.7643  151.1377 LP  0  0  0  0  0  0  0  0  0  0  0  0  # atno 17343 bound_to 10162
  157.1341  131.0279  151.2956 LP  0  0  0  0  0  0  0  0  0  0  0  0  # atno 17370 bound_to 10713
  157.4526  130.7607  149.7165 LP  0  0  0  0  0  0  0  0  0  0  0  0  # atno 17371 bound_to 10713
  140.8975  134.2420  157.5060 LP  0  0  0  0  0  0  0  0  0  0  0  0  # atno 17394 bound_to 11000
  139.8704  134.9690  156.4653 LP  0  0  0  0  0  0  0  0  0  0  0  0  # atno 17395 bound_to 11000

$$$$
