AV-unprocessed.smi:1562|AV-procd|sdf|6288|dock8
  -GOLD-   22720 6483D 1   1.00000     0.00000
 Structure written by MMmdl.
 41 42  0  0  0  0  0  0  0  0  2 V2000
  150.1354  133.8457  156.4408 N   0  0  0  0  0  0  0  0  0  0  0  0
  150.0288  135.1547  156.6821 C   0  0  0  0  0  0  0  0  0  0  0  0
  149.9903  135.6068  157.8249 O   0  0  0  0  0  0  0  0  0  0  0  0
  149.9562  136.0872  155.4656 C   0  0  0  0  0  0  0  0  0  0  0  0
  151.1958  137.0114  155.3979 C   0  0  0  0  0  0  0  0  0  0  0  0
  151.0569  138.0460  154.2664 C   0  0  0  0  0  0  0  0  0  0  0  0
  149.8195  138.8147  154.4814 N   0  0  0  0  0  0  0  0  0  0  0  0
  149.7369  140.0742  154.9802 C   0  0  0  0  0  0  0  0  0  0  0  0
  148.7401  140.7873  154.8550 O   0  0  0  0  0  0  0  0  0  0  0  0
  150.8485  140.5095  155.5949 N   0  0  0  0  0  0  0  0  0  0  0  0
  150.9947  141.8233  156.2059 C   0  0  0  0  0  0  0  0  0  0  0  0
  150.3609  141.8455  157.6035 C   0  0  0  0  0  0  0  0  0  0  0  0
  150.9260  142.9540  158.4706 C   0  0  0  0  0  0  0  0  0  0  0  0
  151.8049  142.6940  159.5446 C   0  0  0  0  0  0  0  0  0  0  0  0
  152.2898  143.7718  160.3146 C   0  0  0  0  0  0  0  0  0  0  0  0
  151.8845  145.0848  159.9964 C   0  0  0  0  0  0  0  0  0  0  0  0
  151.0039  145.2870  158.9142 C   0  0  0  0  0  0  0  0  0  0  0  0
  150.5625  144.2285  158.1993 N   0  3  0  0  0  0  0  0  0  0  0  0
  148.6365  137.9564  154.3479 C   0  0  0  0  0  0  0  0  0  0  0  0
  148.6493  136.9151  155.4820 C   0  0  0  0  0  0  0  0  0  0  0  0
  150.1840  133.1977  157.2137 H   0  0  0  0  0  0  0  0  0  0  0  0
  150.1649  133.5079  155.4900 H   0  0  0  0  0  0  0  0  0  0  0  0
  149.9501  135.4760  154.5610 H   0  0  0  0  0  0  0  0  0  0  0  0
  151.3321  137.5366  156.3450 H   0  0  0  0  0  0  0  0  0  0  0  0
  152.0967  136.4167  155.2426 H   0  0  0  0  0  0  0  0  0  0  0  0
  151.9561  138.6595  154.2143 H   0  0  0  0  0  0  0  0  0  0  0  0
  151.0006  137.5369  153.3032 H   0  0  0  0  0  0  0  0  0  0  0  0
  151.6368  139.8811  155.6521 H   0  0  0  0  0  0  0  0  0  0  0  0
  152.0528  142.0827  156.2722 H   0  0  0  0  0  0  0  0  0  0  0  0
  150.5190  142.5668  155.5647 H   0  0  0  0  0  0  0  0  0  0  0  0
  149.2804  141.9721  157.5215 H   0  0  0  0  0  0  0  0  0  0  0  0
  150.5217  140.8897  158.1043 H   0  0  0  0  0  0  0  0  0  0  0  0
  152.1039  141.6823  159.7779 H   0  0  0  0  0  0  0  0  0  0  0  0
  152.9633  143.5934  161.1402 H   0  0  0  0  0  0  0  0  0  0  0  0
  152.2436  145.9238  160.5744 H   0  0  0  0  0  0  0  0  0  0  0  0
  150.6410  146.2553  158.6013 H   0  0  0  0  0  0  0  0  0  0  0  0
  147.7036  138.5214  154.3675 H   0  0  0  0  0  0  0  0  0  0  0  0
  148.6574  137.4570  153.3784 H   0  0  0  0  0  0  0  0  0  0  0  0
  147.7870  136.2548  155.3825 H   0  0  0  0  0  0  0  0  0  0  0  0
  148.5355  137.4283  156.4387 H   0  0  0  0  0  0  0  0  0  0  0  0
  149.9240  144.3984  157.4217 H   0  0  0  0  0  0  0  0  0  0  0  0
  1  2  1  0  0  0  0
  1 21  1  0  0  0  0
  1 22  1  0  0  0  0
  2  3  2  0  0  0  0
  2  4  1  0  0  0  0
  4 20  1  0  0  0  0
  4  5  1  0  0  0  0
  4 23  1  0  0  0  0
  5  6  1  0  0  0  0
  5 24  1  0  0  0  0
  5 25  1  0  0  0  0
  6  7  1  0  0  0  0
  6 26  1  0  0  0  0
  6 27  1  0  0  0  0
  7  8  1  0  0  0  0
  7 19  1  0  0  0  0
  8  9  2  0  0  0  0
  8 10  1  0  0  0  0
 10 11  1  0  0  0  0
 10 28  1  0  0  0  0
 11 12  1  0  0  0  0
 11 29  1  0  0  0  0
 11 30  1  0  0  0  0
 12 13  1  0  0  0  0
 12 31  1  0  0  0  0
 12 32  1  0  0  0  0
 13 18  1  0  0  0  0
 13 14  2  0  0  0  0
 14 15  1  0  0  0  0
 14 33  1  0  0  0  0
 15 16  2  0  0  0  0
 15 34  1  0  0  0  0
 16 17  1  0  0  0  0
 16 35  1  0  0  0  0
 17 18  2  0  0  0  0
 17 36  1  0  0  0  0
 18 41  1  0  0  0  0
 19 20  1  0  0  0  0
 19 37  1  0  0  0  0
 19 38  1  0  0  0  0
 20 39  1  0  0  0  0
 20 40  1  0  0  0  0
M  CHG  1  18   1
M  END
> <s_m_source_file>
AV-unprocessed.smi

> <i_m_source_file_index>
1562

> <i_lp_mmshare_version>
43012

> <i_f3d_flags>
0

> <s_epik_input>
W05IMl1DKD1PKVtDSF0xW0NIMl1bQ0gyXU4oW0NIMl1bQ0gyXTEpQyg9TylbTkhdW0NIMl1bQ0gyXWMyW2NIXVtjSF1bY0hdW2NIXW4y

> <s_epik_cmdline>
J2VwaWtfcHl0aG9uJywgJy1waCcsICc3LjAnLCAnLXRuJywgJzgnLCAnLW1hJywgJzIwMCcsICctbWV0YWxfYmluZGluZycsICctaW1hZScsICc8aW5maWxlLm1hZT4nLCAnLW9tYWUnLCAnPG91dGZpbGUubWFlPic=

> <r_epik_Ionization_Penalty>
1.55599

> <r_epik_Ionization_Penalty_Charging>
1.55593

> <r_epik_Ionization_Penalty_Neutral>
5.20779e-05

> <r_epik_State_Penalty>
1.65054

> <r_epik_Charging_Adjusted_Penalty>
3.20648

> <i_epik_Tot_Q>
1

> <i_epik_Tot_abs_Q>
1

> <r_epik_Metal_State_Penalty>
1.69236

> <b_epik_Metal_Only>
0

> <s_lp_Force_Field>
OPLS_2005

> <r_lp_Energy>
33.1399

> <b_lp_Chiralities_Consistent>
1

> <s_lp_Variant>
AV-unprocessed.smi:1562-2

> <Gold.Version>
5.8.1

> <Gold.Id.Protein>
6NUR|6NUR_protein|mol2

> <Gold.PLP.Fitness>
43.1277

> <Gold.PLP.PLP>
-36.0749

> <Gold.PLP.part.hbond>
-2.1091

> <Gold.PLP.part.metal>
0.0000

> <Gold.PLP.part.buried>
-5.6369

> <Gold.PLP.part.nonpolar>
-29.3191

> <Gold.PLP.part.repulsive>
0.4227

> <Gold.PLP.ligand.clash>
0.0000

> <Gold.PLP.ligand.torsion>
0.6780

> <Gold.PLP.Chemscore.Hbond>
2.7771

> <Gold.PLP.Chemscore.CHOScore>
0.0000

> <Gold.PLP.Chemscore.Metal>
0.0000

> <Gold.Chemscore.Hbonds>
donor molecule, donor type, donor heavy atom, donor atom, acceptor molecule, acceptor atom, score
      L1  H    18    41       P1  8028  1.98
      P1  H  6896  6907       L1     3  0.65

> <Gold.PLP.Chemscore.Internal.Correction>
0.0774

> <Gold.Rescore>
     Score         DG    S(hbond)    S(metal)    S(lipo)     H(rot)  DE(clash)    DE(int)     intcor
     16.37     -17.08       1.87        0.00      90.30       2.03       0.07       0.64       ----

> <Gold.Chemscore.Fitness>
16.3673

> <Gold.Chemscore.DG>
-17.0799

> <Gold.Chemscore.ZeroCoef>
-5.4800

> <Gold.Chemscore.Hbond>
1.8689

> <Gold.Chemscore.Metal>
0.0000

> <Gold.Chemscore.Lipo>
90.2955

> <Gold.Chemscore.Internal_Hbond>
0.0000

> <Gold.Chemscore.DEClash>
0.0679

> <Gold.Chemscore.DEInternal>
0.6446

> <Gold.Chemscore.Rot>
2.0339

> <Gold.Chemscore.Internal.Correction>
   9.000000E+99

> <Gold.Chemscore.Hbonds>
donor molecule, donor type, donor heavy atom, donor atom, acceptor molecule, acceptor atom, score
      L1  H    18    41       P1  8028  0.28
      P1  H  6896  6907       L1     3  0.61

> <Gold.Chemscore.Hbond.Weighted>
-6.2422

> <Gold.Chemscore.Metal.Weighted>
-0.0000

> <Gold.Chemscore.Lipo.Weighted>
-10.5646

> <Gold.Chemscore.Internal_Hbond.Weighted>
0.0000

> <Gold.Chemscore.DEClash.Weighted>
0.0679

> <Gold.Chemscore.DEInternal.Weighted>
0.6446

> <Gold.Chemscore.Rot.Weighted>
5.2069

> <Gold.Chemscore.Internal.Correction.Weighted>
   9.000000E+99

> <Gold.Protein.RotatedTorsions>
[ 6907 6896 6895 6894 ] final  -80.08 input  -60.11 | X-H torsion
[ 7974 7965 7964 7962 ] final -169.21 input  175.53 | X-H torsion
[ 8008 7997 7996 7995 ] final  131.74 input   59.86 | X-H torsion
[ 10167 10162 10161 10158 ] final -146.53 input  -65.29 | X-H torsion
[ 10718 10713 10712 10709 ] final  116.71 input   66.30 | X-H torsion
[ 10763 10752 10751 10750 ] final   78.38 input  -60.55 | X-H torsion
[ 11005 11000 10999 10996 ] final   44.84 input  -57.11 | X-H torsion

> <Gold.Protein.ActiveResidues>
 VAL166  LYS551  ARG553  GLY616  TRP617  ASP618  TYR619  PRO620  LYS621  CYS622 
 ASP623  PHE694  ASN695  SER759  ASP760  ASP761  ALA762  ILE779  LEU786  VAL792 
 PHE793  MET794  SER795  GLU796  ALA797  LYS798  CYS799  TRP800  GLU811  SER814 

> <Gold.Protein.RotatedAtoms>
  150.6936  134.4024  159.5124 H   0  0  0  0  0  0  0  0  0  0  0  0  # atno 6907 bound_to 6896
  152.1796  134.8763  160.0536 H   0  0  0  0  0  0  0  0  0  0  0  0  # atno 6908 bound_to 6896
  151.9758  133.3706  159.4125 H   0  0  0  0  0  0  0  0  0  0  0  0  # atno 6909 bound_to 6896
  144.7189  140.2255  143.6310 H   0  0  0  0  0  0  0  0  0  0  0  0  # atno 7974 bound_to 7965
  156.2974  140.2564  156.2974 H   0  0  0  0  0  0  0  0  0  0  0  0  # atno 8008 bound_to 7997
  154.9450  140.0395  157.2134 H   0  0  0  0  0  0  0  0  0  0  0  0  # atno 8009 bound_to 7997
  154.8090  140.2841  155.5871 H   0  0  0  0  0  0  0  0  0  0  0  0  # atno 8010 bound_to 7997
  139.7705  143.8245  152.2623 H   0  0  0  0  0  0  0  0  0  0  0  0  # atno 10167 bound_to 10162
  157.6143  131.1028  150.7511 H   0  0  0  0  0  0  0  0  0  0  0  0  # atno 10718 bound_to 10713
  153.0870  135.4879  154.8616 H   0  0  0  0  0  0  0  0  0  0  0  0  # atno 10763 bound_to 10752
  154.7222  135.3042  154.9030 H   0  0  0  0  0  0  0  0  0  0  0  0  # atno 10764 bound_to 10752
  153.9691  135.6803  153.4800 H   0  0  0  0  0  0  0  0  0  0  0  0  # atno 10765 bound_to 10752
  140.1515  134.4456  155.8379 H   0  0  0  0  0  0  0  0  0  0  0  0  # atno 11005 bound_to 11000
  145.8460  139.2152  143.1799 LP  0  0  0  0  0  0  0  0  0  0  0  0  # atno 17320 bound_to 7965
  146.0303  140.8264  142.9879 LP  0  0  0  0  0  0  0  0  0  0  0  0  # atno 17321 bound_to 7965
  139.8278  144.7267  150.9490 LP  0  0  0  0  0  0  0  0  0  0  0  0  # atno 17342 bound_to 10162
  140.7813  143.4098  151.1011 LP  0  0  0  0  0  0  0  0  0  0  0  0  # atno 17343 bound_to 10162
  156.7882  130.4881  149.5389 LP  0  0  0  0  0  0  0  0  0  0  0  0  # atno 17370 bound_to 10713
  156.1259  130.6143  151.0262 LP  0  0  0  0  0  0  0  0  0  0  0  0  # atno 17371 bound_to 10713
  141.2199  133.6874  156.7430 LP  0  0  0  0  0  0  0  0  0  0  0  0  # atno 17394 bound_to 11000
  140.2599  134.8475  157.3748 LP  0  0  0  0  0  0  0  0  0  0  0  0  # atno 17395 bound_to 11000

$$$$
