AV-unprocessed.smi:682|AV-procd|sdf|3327|dock8
  -GOLD-   22720 0293D 1   1.00000     0.00000
 Structure written by MMmdl.
 41 42  0  0  0  0  0  0  0  0  1 V2000
  146.4674  142.7351  154.5298 C   0  0  0  0  0  0  0  0  0  0  0  0
  146.8687  141.4875  155.0824 O   0  0  0  0  0  0  0  0  0  0  0  0
  147.8664  140.7424  154.3705 C   0  0  2  0  0  0  0  0  0  0  0  0
  149.2019  141.4969  154.3653 C   0  0  0  0  0  0  0  0  0  0  0  0
  147.2904  140.2170  153.0413 C   0  0  0  0  0  0  0  0  0  0  0  0
  146.7034  139.0552  153.8404 C   0  0  1  0  0  0  0  0  0  0  0  0
  146.7575  137.7882  153.1187 N   0  0  0  0  0  0  0  0  0  0  0  0
  145.6820  137.0554  152.8007 C   0  0  0  0  0  0  0  0  0  0  0  0
  144.5280  137.3898  153.0696 O   0  0  0  0  0  0  0  0  0  0  0  0
  146.0309  135.9232  152.1682 N   0  0  0  0  0  0  0  0  0  0  0  0
  145.1685  134.9002  151.6988 C   0  0  0  0  0  0  0  0  0  0  0  0
  144.0338  134.4132  152.3983 C   0  0  0  0  0  0  0  0  0  0  0  0
  143.4211  133.4594  151.7130 N   0  0  0  0  0  0  0  0  0  0  0  0
  144.1471  133.3229  150.5767 N   0  0  0  0  0  0  0  0  0  0  0  0
  143.7403  132.3463  149.5892 C   0  0  0  0  0  0  0  0  0  0  0  0
  145.2232  134.1868  150.5348 C   0  0  0  0  0  0  0  0  0  0  0  0
  147.8350  139.2640  154.8799 C   0  0  0  0  0  0  0  0  0  0  0  0
  149.1273  138.4516  154.6703 C   0  0  0  0  0  0  0  0  0  0  0  0
  147.4443  139.0512  156.3466 C   0  0  0  0  0  0  0  0  0  0  0  0
  145.5978  143.1017  155.0752 H   0  0  0  0  0  0  0  0  0  0  0  0
  146.1889  142.6553  153.4795 H   0  0  0  0  0  0  0  0  0  0  0  0
  147.2496  143.4876  154.6291 H   0  0  0  0  0  0  0  0  0  0  0  0
  149.9980  140.9084  153.9107 H   0  0  0  0  0  0  0  0  0  0  0  0
  149.5186  141.7480  155.3777 H   0  0  0  0  0  0  0  0  0  0  0  0
  149.1467  142.4216  153.7914 H   0  0  0  0  0  0  0  0  0  0  0  0
  146.5453  140.8476  152.5573 H   0  0  0  0  0  0  0  0  0  0  0  0
  148.0649  139.9145  152.3342 H   0  0  0  0  0  0  0  0  0  0  0  0
  145.7136  139.2985  154.2341 H   0  0  0  0  0  0  0  0  0  0  0  0
  147.6705  137.4443  152.8597 H   0  0  0  0  0  0  0  0  0  0  0  0
  147.0171  135.7718  152.0155 H   0  0  0  0  0  0  0  0  0  0  0  0
  143.6412  134.7136  153.3586 H   0  0  0  0  0  0  0  0  0  0  0  0
  144.4281  132.3602  148.7433 H   0  0  0  0  0  0  0  0  0  0  0  0
  142.7365  132.5784  149.2326 H   0  0  0  0  0  0  0  0  0  0  0  0
  143.7432  131.3497  150.0316 H   0  0  0  0  0  0  0  0  0  0  0  0
  145.9083  134.2111  149.7002 H   0  0  0  0  0  0  0  0  0  0  0  0
  148.9775  137.3929  154.8850 H   0  0  0  0  0  0  0  0  0  0  0  0
  149.9281  138.8009  155.3228 H   0  0  0  0  0  0  0  0  0  0  0  0
  149.4956  138.5190  153.6466 H   0  0  0  0  0  0  0  0  0  0  0  0
  147.3768  137.9914  156.5942 H   0  0  0  0  0  0  0  0  0  0  0  0
  146.4721  139.4867  156.5778 H   0  0  0  0  0  0  0  0  0  0  0  0
  148.1713  139.5029  157.0220 H   0  0  0  0  0  0  0  0  0  0  0  0
  1  2  1  0  0  0  0
  1 20  1  0  0  0  0
  1 21  1  0  0  0  0
  1 22  1  0  0  0  0
  2  3  1  0  0  0  0
  3 17  1  0  0  0  0
  3  4  1  0  0  0  0
  3  5  1  0  0  0  0
  4 23  1  0  0  0  0
  4 24  1  0  0  0  0
  4 25  1  0  0  0  0
  5  6  1  0  0  0  0
  5 26  1  0  0  0  0
  5 27  1  0  0  0  0
  6  7  1  0  0  0  0
  6 17  1  0  0  0  0
  6 28  1  0  0  0  0
  7  8  1  0  0  0  0
  7 29  1  0  0  0  0
  8  9  2  0  0  0  0
  8 10  1  0  0  0  0
 10 11  1  0  0  0  0
 10 30  1  0  0  0  0
 11 16  2  0  0  0  0
 11 12  1  0  0  0  0
 12 13  2  0  0  0  0
 12 31  1  0  0  0  0
 13 14  1  0  0  0  0
 14 15  1  0  0  0  0
 14 16  1  0  0  0  0
 15 32  1  0  0  0  0
 15 33  1  0  0  0  0
 15 34  1  0  0  0  0
 16 35  1  0  0  0  0
 17 18  1  0  0  0  0
 17 19  1  0  0  0  0
 18 36  1  0  0  0  0
 18 37  1  0  0  0  0
 18 38  1  0  0  0  0
 19 39  1  0  0  0  0
 19 40  1  0  0  0  0
 19 41  1  0  0  0  0
M  END
> <s_m_source_file>
AV-unprocessed.smi

> <i_m_source_file_index>
682

> <i_lp_mmshare_version>
43012

> <i_f3d_flags>
0

> <s_epik_input>
W0NIM11PW0NAQF0xKFtDSDNdKVtDSDJdW0NASF0oQzEoW0NIM10pW0NIM10pW05IXUMoPU8pW05IXWMyW2NIXW5uKFtDSDNdKVtjSF0y

> <s_epik_cmdline>
J2VwaWtfcHl0aG9uJywgJy1waCcsICc3LjAnLCAnLXRuJywgJzgnLCAnLW1hJywgJzIwMCcsICctbWV0YWxfYmluZGluZycsICctaW1hZScsICc8aW5maWxlLm1hZT4nLCAnLW9tYWUnLCAnPG91dGZpbGUubWFlPic=

> <r_lp_tautomer_probability>
1

> <r_epik_Ionization_Penalty>
0.000192302

> <r_epik_Ionization_Penalty_Charging>
0

> <r_epik_Ionization_Penalty_Neutral>
0.000192302

> <r_epik_State_Penalty>
-0

> <r_epik_Charging_Adjusted_Penalty>
0

> <i_epik_Tot_Q>
0

> <i_epik_Tot_abs_Q>
0

> <r_epik_Metal_State_Penalty>
-0

> <b_epik_Metal_Only>
0

> <s_lp_Force_Field>
OPLS_2005

> <r_lp_Energy>
24.7984

> <b_lp_Chiralities_Consistent>
1

> <s_lp_Variant>
AV-unprocessed.smi:682-2

> <Gold.Version>
5.8.1

> <Gold.Id.Protein>
6NUR|6NUR_protein|mol2

> <Gold.PLP.Fitness>
36.9181

> <Gold.PLP.PLP>
-28.6708

> <Gold.PLP.part.hbond>
-2.0000

> <Gold.PLP.part.metal>
0.0000

> <Gold.PLP.part.buried>
-1.0686

> <Gold.PLP.part.nonpolar>
-25.7552

> <Gold.PLP.part.repulsive>
0.5495

> <Gold.PLP.ligand.clash>
0.0000

> <Gold.PLP.ligand.torsion>
0.5635

> <Gold.PLP.Chemscore.Hbond>
2.0000

> <Gold.PLP.Chemscore.CHOScore>
1.0000

> <Gold.PLP.Chemscore.Metal>
0.0000

> <Gold.Chemscore.Hbonds>
donor molecule, donor type, donor heavy atom, donor atom, acceptor molecule, acceptor atom, score
      L1  H     7    29       P1  7948  1.00
      L1  H    10    30       P1  7948  1.00
      L1  C    16    35       P1  7921  1.00

> <Gold.PLP.Chemscore.Internal.Correction>
0.3742

> <Gold.Rescore>
     Score         DG    S(hbond)    S(metal)    S(lipo)     H(rot)  DE(clash)    DE(int)     intcor
     15.25     -16.68       1.94        0.00      67.26       1.23       0.86       0.57       ----

> <Gold.Chemscore.Fitness>
15.2542

> <Gold.Chemscore.DG>
-16.6825

> <Gold.Chemscore.ZeroCoef>
-5.4800

> <Gold.Chemscore.Hbond>
1.9436

> <Gold.Chemscore.Metal>
0.0000

> <Gold.Chemscore.Lipo>
67.2572

> <Gold.Chemscore.Internal_Hbond>
0.0000

> <Gold.Chemscore.DEClash>
0.8631

> <Gold.Chemscore.DEInternal>
0.5652

> <Gold.Chemscore.Rot>
1.2336

> <Gold.Chemscore.Internal.Correction>
   9.000000E+99

> <Gold.Chemscore.Hbonds>
donor molecule, donor type, donor heavy atom, donor atom, acceptor molecule, acceptor atom, score
      L1  H     7    29       P1  7948  0.93
      L1  H    10    30       P1  7948  0.98

> <Gold.Chemscore.Hbond.Weighted>
-6.4915

> <Gold.Chemscore.Metal.Weighted>
-0.0000

> <Gold.Chemscore.Lipo.Weighted>
-7.8691

> <Gold.Chemscore.Internal_Hbond.Weighted>
0.0000

> <Gold.Chemscore.DEClash.Weighted>
0.8631

> <Gold.Chemscore.DEInternal.Weighted>
0.5652

> <Gold.Chemscore.Rot.Weighted>
3.1581

> <Gold.Chemscore.Internal.Correction.Weighted>
   9.000000E+99

> <Gold.Protein.RotatedTorsions>
[ 6907 6896 6895 6894 ] final   50.17 input  -60.11 | X-H torsion
[ 7974 7965 7964 7962 ] final  -86.91 input  175.53 | X-H torsion
[ 8008 7997 7996 7995 ] final  143.31 input   59.86 | X-H torsion
[ 10167 10162 10161 10158 ] final  -70.53 input  -65.29 | X-H torsion
[ 10718 10713 10712 10709 ] final   91.57 input   66.30 | X-H torsion
[ 10763 10752 10751 10750 ] final  -31.52 input  -60.55 | X-H torsion
[ 11005 11000 10999 10996 ] final  159.61 input  -57.11 | X-H torsion

> <Gold.Protein.ActiveResidues>
 VAL166  LYS551  ARG553  GLY616  TRP617  ASP618  TYR619  PRO620  LYS621  CYS622 
 ASP623  PHE694  ASN695  SER759  ASP760  ASP761  ALA762  ILE779  LEU786  VAL792 
 PHE793  MET794  SER795  GLU796  ALA797  LYS798  CYS799  TRP800  GLU811  SER814 

> <Gold.Protein.RotatedAtoms>
  152.2989  134.7634  160.0361 H   0  0  0  0  0  0  0  0  0  0  0  0  # atno 6907 bound_to 6896
  151.8155  133.3382  159.3576 H   0  0  0  0  0  0  0  0  0  0  0  0  # atno 6908 bound_to 6896
  150.7264  134.5553  159.5859 H   0  0  0  0  0  0  0  0  0  0  0  0  # atno 6909 bound_to 6896
  145.4735  140.9559  143.1904 H   0  0  0  0  0  0  0  0  0  0  0  0  # atno 7974 bound_to 7965
  156.2933  140.2266  156.4869 H   0  0  0  0  0  0  0  0  0  0  0  0  # atno 8008 bound_to 7997
  154.7804  140.0460  157.1144 H   0  0  0  0  0  0  0  0  0  0  0  0  # atno 8009 bound_to 7997
  154.9765  140.3073  155.4968 H   0  0  0  0  0  0  0  0  0  0  0  0  # atno 8010 bound_to 7997
  140.5345  143.2319  151.7202 H   0  0  0  0  0  0  0  0  0  0  0  0  # atno 10167 bound_to 10162
  157.6960  131.0412  150.3749 H   0  0  0  0  0  0  0  0  0  0  0  0  # atno 10718 bound_to 10713
  153.7986  135.6892  153.4859 H   0  0  0  0  0  0  0  0  0  0  0  0  # atno 10763 bound_to 10752
  153.1703  135.4545  154.9891 H   0  0  0  0  0  0  0  0  0  0  0  0  # atno 10764 bound_to 10752
  154.8015  135.3340  154.7477 H   0  0  0  0  0  0  0  0  0  0  0  0  # atno 10765 bound_to 10752
  140.1979  134.8359  157.2985 H   0  0  0  0  0  0  0  0  0  0  0  0  # atno 11005 bound_to 11000
  144.7931  139.6288  143.7104 LP  0  0  0  0  0  0  0  0  0  0  0  0  # atno 17320 bound_to 7965
  146.2383  139.5949  142.9509 LP  0  0  0  0  0  0  0  0  0  0  0  0  # atno 17321 bound_to 7965
  139.4966  144.4063  152.0128 LP  0  0  0  0  0  0  0  0  0  0  0  0  # atno 17342 bound_to 10162
  140.3168  144.3474  150.6019 LP  0  0  0  0  0  0  0  0  0  0  0  0  # atno 17343 bound_to 10162
  156.4170  130.3945  149.6851 LP  0  0  0  0  0  0  0  0  0  0  0  0  # atno 17370 bound_to 10713
  156.4116  130.7724  151.2738 LP  0  0  0  0  0  0  0  0  0  0  0  0  # atno 17371 bound_to 10713
  140.2087  134.4165  155.7624 LP  0  0  0  0  0  0  0  0  0  0  0  0  # atno 17394 bound_to 11000
  141.2227  133.7107  156.8302 LP  0  0  0  0  0  0  0  0  0  0  0  0  # atno 17395 bound_to 11000

$$$$
