AV-unprocessed.smi:3281|AV-procd|sdf|12557|dock2
  -GOLD-   2272018473D 1   1.00000     0.00000
 Structure written by MMmdl.
 37 38  0  0  0  0  0  0  0  0  2 V2000
  154.0695  137.6568  158.0388 C   0  0  0  0  0  0  0  0  0  0  0  0
  154.0015  137.6383  156.5076 C   0  0  0  0  0  0  0  0  0  0  0  0
  153.0043  138.6005  155.9502 C   0  0  0  0  0  0  0  0  0  0  0  0
  152.6603  138.7809  154.6329 C   0  0  0  0  0  0  0  0  0  0  0  0
  151.6881  139.7635  154.4323 N   0  0  0  0  0  0  0  0  0  0  0  0
  151.3050  140.3411  155.5731 C   0  0  0  0  0  0  0  0  0  0  0  0
  150.2610  141.4039  155.6466 C   0  0  0  0  0  0  0  0  0  0  0  0
  150.2641  142.1363  156.9943 C   0  0  0  0  0  0  0  0  0  0  0  0
  150.9885  143.4191  156.8973 N   0  3  0  0  0  0  0  0  0  0  0  0
  151.7929  143.7708  158.0875 C   0  0  1  0  0  0  0  0  0  0  0  0
  150.9181  144.5376  159.0981 C   0  0  0  0  0  0  0  0  0  0  0  0
  151.6986  144.9834  160.3462 C   0  0  0  0  0  0  0  0  0  0  0  0
  152.2897  143.7989  161.1234 C   0  0  0  0  0  0  0  0  0  0  0  0
  153.4756  142.8781  160.1074 S   0  0  0  0  0  0  0  0  0  0  0  0
  152.3905  142.4947  158.7060 C   0  0  0  0  0  0  0  0  0  0  0  0
  152.1046  139.6741  156.9913 S   0  0  0  0  0  0  0  0  0  0  0  0
  154.8151  136.9495  158.4026 H   0  0  0  0  0  0  0  0  0  0  0  0
  153.1108  137.3851  158.4813 H   0  0  0  0  0  0  0  0  0  0  0  0
  154.3406  138.6464  158.4077 H   0  0  0  0  0  0  0  0  0  0  0  0
  154.9891  137.8624  156.1027 H   0  0  0  0  0  0  0  0  0  0  0  0
  153.7590  136.6306  156.1691 H   0  0  0  0  0  0  0  0  0  0  0  0
  153.0545  138.2536  153.7765 H   0  0  0  0  0  0  0  0  0  0  0  0
  150.4293  142.1105  154.8331 H   0  0  0  0  0  0  0  0  0  0  0  0
  149.2859  140.9487  155.4681 H   0  0  0  0  0  0  0  0  0  0  0  0
  149.2398  142.3269  157.3181 H   0  0  0  0  0  0  0  0  0  0  0  0
  150.7363  141.5141  157.7561 H   0  0  0  0  0  0  0  0  0  0  0  0
  151.6054  143.3779  156.0986 H   0  0  0  0  0  0  0  0  0  0  0  0
  152.6160  144.4206  157.7842 H   0  0  0  0  0  0  0  0  0  0  0  0
  150.4953  145.4196  158.6154 H   0  0  0  0  0  0  0  0  0  0  0  0
  150.0708  143.9204  159.4003 H   0  0  0  0  0  0  0  0  0  0  0  0
  152.4963  145.6692  160.0584 H   0  0  0  0  0  0  0  0  0  0  0  0
  151.0345  145.5468  161.0026 H   0  0  0  0  0  0  0  0  0  0  0  0
  152.7981  144.1517  162.0209 H   0  0  0  0  0  0  0  0  0  0  0  0
  151.4983  143.1229  161.4493 H   0  0  0  0  0  0  0  0  0  0  0  0
  151.5999  141.8245  159.0457 H   0  0  0  0  0  0  0  0  0  0  0  0
  152.9745  141.9493  157.9639 H   0  0  0  0  0  0  0  0  0  0  0  0
  150.3138  144.1546  156.7417 H   0  0  0  0  0  0  0  0  0  0  0  0
  1  2  1  0  0  0  0
  1 17  1  0  0  0  0
  1 18  1  0  0  0  0
  1 19  1  0  0  0  0
  2  3  1  0  0  0  0
  2 20  1  0  0  0  0
  2 21  1  0  0  0  0
  3 16  1  0  0  0  0
  3  4  2  0  0  0  0
  4  5  1  0  0  0  0
  4 22  1  0  0  0  0
  5  6  2  0  0  0  0
  6  7  1  0  0  0  0
  6 16  1  0  0  0  0
  7  8  1  0  0  0  0
  7 23  1  0  0  0  0
  7 24  1  0  0  0  0
  8  9  1  0  0  0  0
  8 25  1  0  0  0  0
  8 26  1  0  0  0  0
  9 10  1  0  0  0  0
  9 27  1  0  0  0  0
  9 37  1  0  0  0  0
 10 15  1  0  0  0  0
 10 11  1  0  0  0  0
 10 28  1  0  0  0  0
 11 12  1  0  0  0  0
 11 29  1  0  0  0  0
 11 30  1  0  0  0  0
 12 13  1  0  0  0  0
 12 31  1  0  0  0  0
 12 32  1  0  0  0  0
 13 14  1  0  0  0  0
 13 33  1  0  0  0  0
 13 34  1  0  0  0  0
 14 15  1  0  0  0  0
 15 35  1  0  0  0  0
 15 36  1  0  0  0  0
M  CHG  1   9   1
M  END
> <s_m_source_file>
AV-unprocessed.smi

> <i_m_source_file_index>
3281

> <i_lp_mmshare_version>
43012

> <i_f3d_flags>
0

> <s_epik_input>
W0NIM11bQ0gyXWMxW2NIXW5jKHMxKVtDSDJdW0NIMl1bTkhdW0NAQEhdMltDSDJdW0NIMl1bQ0gyXVNbQ0gyXTI=

> <s_epik_cmdline>
J2VwaWtfcHl0aG9uJywgJy1waCcsICc3LjAnLCAnLXRuJywgJzgnLCAnLW1hJywgJzIwMCcsICctbWV0YWxfYmluZGluZycsICctaW1hZScsICc8aW5maWxlLm1hZT4nLCAnLW9tYWUnLCAnPG91dGZpbGUubWFlPic=

> <r_epik_Ionization_Penalty>
0.00827702

> <r_epik_Ionization_Penalty_Charging>
0.00826679

> <r_epik_Ionization_Penalty_Neutral>
1.02314e-05

> <r_epik_State_Penalty>
0.00622064

> <r_epik_Charging_Adjusted_Penalty>
0.0144874

> <i_epik_Tot_Q>
1

> <i_epik_Tot_abs_Q>
1

> <r_epik_Metal_State_Penalty>
0.0062521

> <b_epik_Metal_Only>
0

> <s_lp_Force_Field>
OPLS_2005

> <r_lp_Energy>
0.380523

> <b_lp_Chiralities_Consistent>
1

> <s_lp_Variant>
AV-unprocessed.smi:3281-2

> <Gold.Version>
5.8.1

> <Gold.Id.Protein>
6NUR|6NUR_protein|mol2

> <Gold.PLP.Fitness>
46.0878

> <Gold.PLP.PLP>
-39.2713

> <Gold.PLP.part.hbond>
-2.0000

> <Gold.PLP.part.metal>
0.0000

> <Gold.PLP.part.buried>
-4.9270

> <Gold.PLP.part.nonpolar>
-33.3398

> <Gold.PLP.part.repulsive>
0.0932

> <Gold.PLP.ligand.clash>
0.0000

> <Gold.PLP.ligand.torsion>
1.0561

> <Gold.PLP.Chemscore.Hbond>
2.9520

> <Gold.PLP.Chemscore.CHOScore>
0.0000

> <Gold.PLP.Chemscore.Metal>
0.0000

> <Gold.Chemscore.Hbonds>
donor molecule, donor type, donor heavy atom, donor atom, acceptor molecule, acceptor atom, score
      L1  H     9    37       P1  8028  1.86
      P1  H  7989  7998       L1     5  0.76

> <Gold.PLP.Chemscore.Internal.Correction>
0.0726

> <Gold.Rescore>
     Score         DG    S(hbond)    S(metal)    S(lipo)     H(rot)  DE(clash)    DE(int)     intcor
     20.49     -21.55       1.79        0.00     116.44       1.38       0.04       1.01       ----

> <Gold.Chemscore.Fitness>
20.4937

> <Gold.Chemscore.DG>
-21.5484

> <Gold.Chemscore.ZeroCoef>
-5.4800

> <Gold.Chemscore.Hbond>
1.7872

> <Gold.Chemscore.Metal>
0.0000

> <Gold.Chemscore.Lipo>
116.4389

> <Gold.Chemscore.Internal_Hbond>
0.0000

> <Gold.Chemscore.DEClash>
0.0418

> <Gold.Chemscore.DEInternal>
1.0129

> <Gold.Chemscore.Rot>
1.3767

> <Gold.Chemscore.Internal.Correction>
   9.000000E+99

> <Gold.Chemscore.Hbonds>
donor molecule, donor type, donor heavy atom, donor atom, acceptor molecule, acceptor atom, score
      L1  H     9    37       P1  8028  0.89
      P1  H  7989  7998       L1     5  0.30

> <Gold.Chemscore.Hbond.Weighted>
-5.9694

> <Gold.Chemscore.Metal.Weighted>
-0.0000

> <Gold.Chemscore.Lipo.Weighted>
-13.6234

> <Gold.Chemscore.Internal_Hbond.Weighted>
0.0000

> <Gold.Chemscore.DEClash.Weighted>
0.0418

> <Gold.Chemscore.DEInternal.Weighted>
1.0129

> <Gold.Chemscore.Rot.Weighted>
3.5243

> <Gold.Chemscore.Internal.Correction.Weighted>
   9.000000E+99

> <Gold.Protein.RotatedTorsions>
[ 6907 6896 6895 6894 ] final    9.22 input  -60.11 | X-H torsion
[ 7974 7965 7964 7962 ] final  151.45 input  175.53 | X-H torsion
[ 8008 7997 7996 7995 ] final   83.36 input   59.86 | X-H torsion
[ 10167 10162 10161 10158 ] final  176.88 input  -65.29 | X-H torsion
[ 10718 10713 10712 10709 ] final -104.22 input   66.30 | X-H torsion
[ 10763 10752 10751 10750 ] final -162.94 input  -60.55 | X-H torsion
[ 11005 11000 10999 10996 ] final -138.59 input  -57.11 | X-H torsion

> <Gold.Protein.ActiveResidues>
 VAL166  LYS551  ARG553  GLY616  TRP617  ASP618  TYR619  PRO620  LYS621  CYS622 
 ASP623  PHE694  ASN695  SER759  ASP760  ASP761  ALA762  ILE779  LEU786  VAL792 
 PHE793  MET794  SER795  GLU796  ALA797  LYS798  CYS799  TRP800  GLU811  SER814 

> <Gold.Protein.RotatedAtoms>
  151.7187  135.0898  160.0280 H   0  0  0  0  0  0  0  0  0  0  0  0  # atno 6907 bound_to 6896
  152.3616  133.6299  159.6027 H   0  0  0  0  0  0  0  0  0  0  0  0  # atno 6908 bound_to 6896
  150.7608  133.9331  159.3474 H   0  0  0  0  0  0  0  0  0  0  0  0  # atno 6909 bound_to 6896
  144.8291  139.6540  143.6066 H   0  0  0  0  0  0  0  0  0  0  0  0  # atno 7974 bound_to 7965
  155.9229  140.3420  155.6187 H   0  0  0  0  0  0  0  0  0  0  0  0  # atno 8008 bound_to 7997
  155.7251  140.0788  157.2332 H   0  0  0  0  0  0  0  0  0  0  0  0  # atno 8009 bound_to 7997
  154.4072  140.1598  156.2433 H   0  0  0  0  0  0  0  0  0  0  0  0  # atno 8010 bound_to 7997
  139.5231  144.2863  152.0502 H   0  0  0  0  0  0  0  0  0  0  0  0  # atno 10167 bound_to 10162
  156.0296  130.5504  150.7365 H   0  0  0  0  0  0  0  0  0  0  0  0  # atno 10718 bound_to 10713
  154.7168  135.3017  154.9111 H   0  0  0  0  0  0  0  0  0  0  0  0  # atno 10763 bound_to 10752
  153.9995  135.6708  153.4762 H   0  0  0  0  0  0  0  0  0  0  0  0  # atno 10764 bound_to 10752
  153.0800  135.5014  154.8399 H   0  0  0  0  0  0  0  0  0  0  0  0  # atno 10765 bound_to 10752
  140.8601  134.2179  157.4712 H   0  0  0  0  0  0  0  0  0  0  0  0  # atno 11005 bound_to 11000
  146.2595  139.6378  142.9371 LP  0  0  0  0  0  0  0  0  0  0  0  0  # atno 17320 bound_to 7965
  145.4934  141.0438  143.2580 LP  0  0  0  0  0  0  0  0  0  0  0  0  # atno 17321 bound_to 7965
  140.2316  144.4362  150.6297 LP  0  0  0  0  0  0  0  0  0  0  0  0  # atno 17342 bound_to 10162
  140.6351  143.2193  151.6412 LP  0  0  0  0  0  0  0  0  0  0  0  0  # atno 17343 bound_to 10162
  157.4944  131.0913  151.0388 LP  0  0  0  0  0  0  0  0  0  0  0  0  # atno 17370 bound_to 10713
  157.0786  130.5894  149.5416 LP  0  0  0  0  0  0  0  0  0  0  0  0  # atno 17371 bound_to 10713
  139.8706  134.9725  156.4776 LP  0  0  0  0  0  0  0  0  0  0  0  0  # atno 17394 bound_to 11000
  140.8693  133.8001  155.9347 LP  0  0  0  0  0  0  0  0  0  0  0  0  # atno 17395 bound_to 11000

$$$$
