AV-unprocessed.smi:2567|AV-procd|sdf|10078|dock8
  -GOLD-   2272014103D 1   1.00000     0.00000
 Structure written by MMmdl.
 34 35  0  0  0  0  0  0  0  0  2 V2000
  153.1338  142.5277  159.2356 C   0  0  0  0  0  0  0  0  0  0  0  0
  152.0931  143.6589  159.0809 C   0  0  0  0  0  0  0  0  0  0  0  0
  151.8697  144.2513  160.4896 C   0  0  0  0  0  0  0  0  0  0  0  0
  152.6423  144.7490  158.1430 C   0  0  0  0  0  0  0  0  0  0  0  0
  150.7951  143.1208  158.5255 C   0  0  0  0  0  0  0  0  0  0  0  0
  149.6864  143.0751  159.2687 N   0  0  0  0  0  0  0  0  0  0  0  0
  148.8251  142.4142  158.4684 N   0  0  0  0  0  0  0  0  0  0  0  0
  149.4521  142.0558  157.3478 C   0  0  0  0  0  0  0  0  0  0  0  0
  148.7761  141.2719  156.2677 C   0  0  2  0  0  0  0  0  0  0  0  0
  149.6357  141.1653  154.9932 C   0  0  0  0  0  0  0  0  0  0  0  0
  148.8798  140.4747  153.9302 N   0  3  0  0  0  0  0  0  0  0  0  0
  147.5815  141.1309  153.6780 C   0  0  0  0  0  0  0  0  0  0  0  0
  146.7837  141.2483  154.9885 C   0  0  0  0  0  0  0  0  0  0  0  0
  147.5567  141.9439  155.9611 O   0  0  0  0  0  0  0  0  0  0  0  0
  150.7222  142.4454  157.3351 N   0  0  0  0  0  0  0  0  0  0  0  0
  147.8690  142.2201  158.7303 H   0  0  0  0  0  0  0  0  0  0  0  0
  154.0605  142.8988  159.6748 H   0  0  0  0  0  0  0  0  0  0  0  0
  153.3947  142.0819  158.2751 H   0  0  0  0  0  0  0  0  0  0  0  0
  152.7623  141.7302  159.8804 H   0  0  0  0  0  0  0  0  0  0  0  0
  151.4607  143.5072  161.1741 H   0  0  0  0  0  0  0  0  0  0  0  0
  151.1794  145.0954  160.4691 H   0  0  0  0  0  0  0  0  0  0  0  0
  152.8034  144.6148  160.9202 H   0  0  0  0  0  0  0  0  0  0  0  0
  153.5797  145.1607  158.5181 H   0  0  0  0  0  0  0  0  0  0  0  0
  151.9377  145.5751  158.0409 H   0  0  0  0  0  0  0  0  0  0  0  0
  152.8329  144.3537  157.1446 H   0  0  0  0  0  0  0  0  0  0  0  0
  148.5500  140.2753  156.6525 H   0  0  0  0  0  0  0  0  0  0  0  0
  149.9179  142.1581  154.6391 H   0  0  0  0  0  0  0  0  0  0  0  0
  150.5585  140.6201  155.1935 H   0  0  0  0  0  0  0  0  0  0  0  0
  149.4243  140.4693  153.0795 H   0  0  0  0  0  0  0  0  0  0  0  0
  147.7565  142.1207  153.2542 H   0  0  0  0  0  0  0  0  0  0  0  0
  147.0230  140.5576  152.9376 H   0  0  0  0  0  0  0  0  0  0  0  0
  145.8565  141.7952  154.8166 H   0  0  0  0  0  0  0  0  0  0  0  0
  146.5063  140.2628  155.3660 H   0  0  0  0  0  0  0  0  0  0  0  0
  148.7101  139.5218  154.2190 H   0  0  0  0  0  0  0  0  0  0  0  0
  1  2  1  0  0  0  0
  1 17  1  0  0  0  0
  1 18  1  0  0  0  0
  1 19  1  0  0  0  0
  2  3  1  0  0  0  0
  2  4  1  0  0  0  0
  2  5  1  0  0  0  0
  3 20  1  0  0  0  0
  3 21  1  0  0  0  0
  3 22  1  0  0  0  0
  4 23  1  0  0  0  0
  4 24  1  0  0  0  0
  4 25  1  0  0  0  0
  5 15  1  0  0  0  0
  5  6  2  0  0  0  0
  6  7  1  0  0  0  0
  7 16  1  0  0  0  0
  7  8  1  0  0  0  0
  8  9  1  0  0  0  0
  8 15  2  0  0  0  0
  9 14  1  0  0  0  0
  9 10  1  0  0  0  0
  9 26  1  0  0  0  0
 10 11  1  0  0  0  0
 10 27  1  0  0  0  0
 10 28  1  0  0  0  0
 11 12  1  0  0  0  0
 11 29  1  0  0  0  0
 11 34  1  0  0  0  0
 12 13  1  0  0  0  0
 12 30  1  0  0  0  0
 12 31  1  0  0  0  0
 13 14  1  0  0  0  0
 13 32  1  0  0  0  0
 13 33  1  0  0  0  0
M  CHG  1  11   1
M  END
> <s_m_source_file>
AV-unprocessed.smi

> <i_m_source_file_index>
2567

> <i_lp_mmshare_version>
43012

> <i_f3d_flags>
0

> <s_epik_input>
W0NIM11DKFtDSDNdKShbQ0gzXSljMW5bbkhdYyhuMSlbQ0BASF0yW0NIMl1bTkhdW0NIMl1bQ0gyXU8y

> <s_epik_cmdline>
J2VwaWtfcHl0aG9uJywgJy1waCcsICc3LjAnLCAnLXRuJywgJzgnLCAnLW1hJywgJzIwMCcsICctbWV0YWxfYmluZGluZycsICctaW1hZScsICc8aW5maWxlLm1hZT4nLCAnLW9tYWUnLCAnPG91dGZpbGUubWFlPic=

> <r_epik_Ionization_Penalty>
0.162344

> <r_epik_Ionization_Penalty_Charging>
0.125708

> <r_epik_Ionization_Penalty_Neutral>
0.0366363

> <r_epik_State_Penalty>
1.18286

> <r_epik_Charging_Adjusted_Penalty>
1.30856

> <i_epik_Tot_Q>
1

> <i_epik_Tot_abs_Q>
1

> <r_epik_Metal_State_Penalty>
1.49333

> <b_epik_Metal_Only>
0

> <s_lp_Force_Field>
OPLS_2005

> <r_lp_Energy>
12.4699

> <b_lp_Chiralities_Consistent>
1

> <s_lp_Variant>
AV-unprocessed.smi:2567-3

> <Gold.Version>
5.8.1

> <Gold.Id.Protein>
6NUR|6NUR_protein|mol2

> <Gold.PLP.Fitness>
32.8433

> <Gold.PLP.PLP>
-30.2736

> <Gold.PLP.part.hbond>
-1.9263

> <Gold.PLP.part.metal>
0.0000

> <Gold.PLP.part.buried>
-3.9163

> <Gold.PLP.part.nonpolar>
-25.5177

> <Gold.PLP.part.repulsive>
1.5242

> <Gold.PLP.ligand.clash>
0.0000

> <Gold.PLP.ligand.torsion>
0.2819

> <Gold.PLP.Chemscore.Hbond>
0.9760

> <Gold.PLP.Chemscore.CHOScore>
0.0000

> <Gold.PLP.Chemscore.Metal>
0.0000

> <Gold.Chemscore.Hbonds>
donor molecule, donor type, donor heavy atom, donor atom, acceptor molecule, acceptor atom, score
      L1  H    11    29       P1  7957  1.00

> <Gold.PLP.Chemscore.Internal.Correction>
0.2056

> <Gold.Rescore>
     Score         DG    S(hbond)    S(metal)    S(lipo)     H(rot)  DE(clash)    DE(int)     intcor
     13.70     -14.23       0.95        0.00      75.22       1.26       0.10       0.43       ----

> <Gold.Chemscore.Fitness>
13.7005

> <Gold.Chemscore.DG>
-14.2282

> <Gold.Chemscore.ZeroCoef>
-5.4800

> <Gold.Chemscore.Hbond>
0.9537

> <Gold.Chemscore.Metal>
0.0000

> <Gold.Chemscore.Lipo>
75.2165

> <Gold.Chemscore.Internal_Hbond>
0.0000

> <Gold.Chemscore.DEClash>
0.1000

> <Gold.Chemscore.DEInternal>
0.4277

> <Gold.Chemscore.Rot>
1.2647

> <Gold.Chemscore.Internal.Correction>
   9.000000E+99

> <Gold.Chemscore.Hbonds>
donor molecule, donor type, donor heavy atom, donor atom, acceptor molecule, acceptor atom, score
      L1  H    11    29       P1  7957  0.93

> <Gold.Chemscore.Hbond.Weighted>
-3.1854

> <Gold.Chemscore.Metal.Weighted>
-0.0000

> <Gold.Chemscore.Lipo.Weighted>
-8.8003

> <Gold.Chemscore.Internal_Hbond.Weighted>
0.0000

> <Gold.Chemscore.DEClash.Weighted>
0.1000

> <Gold.Chemscore.DEInternal.Weighted>
0.4277

> <Gold.Chemscore.Rot.Weighted>
3.2375

> <Gold.Chemscore.Internal.Correction.Weighted>
   9.000000E+99

> <Gold.Protein.RotatedTorsions>
[ 6907 6896 6895 6894 ] final  146.33 input  -60.11 | X-H torsion
[ 7974 7965 7964 7962 ] final  -31.59 input  175.53 | X-H torsion
[ 8008 7997 7996 7995 ] final -140.68 input   59.86 | X-H torsion
[ 10167 10162 10161 10158 ] final  104.08 input  -65.29 | X-H torsion
[ 10718 10713 10712 10709 ] final  -70.95 input   66.30 | X-H torsion
[ 10763 10752 10751 10750 ] final  -36.76 input  -60.55 | X-H torsion
[ 11005 11000 10999 10996 ] final  -99.91 input  -57.11 | X-H torsion

> <Gold.Protein.ActiveResidues>
 VAL166  LYS551  ARG553  GLY616  TRP617  ASP618  TYR619  PRO620  LYS621  CYS622 
 ASP623  PHE694  ASN695  SER759  ASP760  ASP761  ALA762  ILE779  LEU786  VAL792 
 PHE793  MET794  SER795  GLU796  ALA797  LYS798  CYS799  TRP800  GLU811  SER814 

> <Gold.Protein.RotatedAtoms>
  152.1693  133.4632  159.4900 H   0  0  0  0  0  0  0  0  0  0  0  0  # atno 6907 bound_to 6896
  150.6917  134.1974  159.4318 H   0  0  0  0  0  0  0  0  0  0  0  0  # atno 6908 bound_to 6896
  151.9880  134.9994  160.0611 H   0  0  0  0  0  0  0  0  0  0  0  0  # atno 6909 bound_to 6896
  146.1056  140.5686  142.8801 H   0  0  0  0  0  0  0  0  0  0  0  0  # atno 7974 bound_to 7965
  155.4654  140.0549  157.2986 H   0  0  0  0  0  0  0  0  0  0  0  0  # atno 8008 bound_to 7997
  154.4720  140.2044  155.9925 H   0  0  0  0  0  0  0  0  0  0  0  0  # atno 8009 bound_to 7997
  156.1071  140.3210  155.8026 H   0  0  0  0  0  0  0  0  0  0  0  0  # atno 8010 bound_to 7997
  139.7207  144.7058  151.0877 H   0  0  0  0  0  0  0  0  0  0  0  0  # atno 10167 bound_to 10162
  156.0385  130.4341  150.2371 H   0  0  0  0  0  0  0  0  0  0  0  0  # atno 10718 bound_to 10713
  153.8851  135.6818  153.4764 H   0  0  0  0  0  0  0  0  0  0  0  0  # atno 10763 bound_to 10752
  153.1212  135.4739  154.9196 H   0  0  0  0  0  0  0  0  0  0  0  0  # atno 10764 bound_to 10752
  154.7650  135.3221  154.8257 H   0  0  0  0  0  0  0  0  0  0  0  0  # atno 10765 bound_to 10752
  141.1291  133.8358  157.1034 H   0  0  0  0  0  0  0  0  0  0  0  0  # atno 11005 bound_to 11000
  144.7468  140.5088  143.6830 LP  0  0  0  0  0  0  0  0  0  0  0  0  # atno 17320 bound_to 7965
  145.5767  139.1486  143.3258 LP  0  0  0  0  0  0  0  0  0  0  0  0  # atno 17321 bound_to 7965
  140.7753  143.5170  150.9583 LP  0  0  0  0  0  0  0  0  0  0  0  0  # atno 17342 bound_to 10162
  139.8856  143.7017  152.3152 LP  0  0  0  0  0  0  0  0  0  0  0  0  # atno 17343 bound_to 10162
  157.0468  131.0051  151.3266 LP  0  0  0  0  0  0  0  0  0  0  0  0  # atno 17370 bound_to 10713
  157.5169  130.7974  149.7766 LP  0  0  0  0  0  0  0  0  0  0  0  0  # atno 17371 bound_to 10713
  140.0319  134.9897  157.0797 LP  0  0  0  0  0  0  0  0  0  0  0  0  # atno 17394 bound_to 11000
  140.4271  134.1819  155.7166 LP  0  0  0  0  0  0  0  0  0  0  0  0  # atno 17395 bound_to 11000

$$$$
