AV-unprocessed.smi:966|AV-procd|sdf|4284|dock7
  -GOLD-   22720 2193D 1   1.00000     0.00000
 Structure written by MMmdl.
 30 31  0  0  0  0  0  0  0  0  2 V2000
  152.7134  143.0683  161.7863 C   0  0  0  0  0  0  0  0  0  0  0  0
  152.5058  142.6458  160.3431 C   0  0  0  0  0  0  0  0  0  0  0  0
  152.8175  141.2907  159.9479 C   0  0  0  0  0  0  0  0  0  0  0  0
  152.6136  140.9169  158.6337 C   0  0  0  0  0  0  0  0  0  0  0  0
  152.8287  139.8126  158.0810 O   0  5  0  0  0  0  0  0  0  0  0  0
  152.0966  141.8527  157.6760 N   0  0  0  0  0  0  0  0  0  0  0  0
  151.8521  141.4643  156.2559 C   0  0  0  0  0  0  0  0  0  0  0  0
  150.4263  140.9162  156.0448 C   0  0  1  0  0  0  0  0  0  0  0  0
  149.3294  141.9064  156.4337 C   0  0  0  0  0  0  0  0  0  0  0  0
  148.1703  141.4271  155.5908 C   0  0  0  0  0  0  0  0  0  0  0  0
  148.8750  141.0461  154.2933 C   0  0  0  0  0  0  0  0  0  0  0  0
  150.1818  140.6215  154.6703 O   0  0  0  0  0  0  0  0  0  0  0  0
  151.8241  143.1517  158.0203 C   0  0  0  0  0  0  0  0  0  0  0  0
  151.4155  143.9774  157.1996 O   0  0  0  0  0  0  0  0  0  0  0  0
  152.0410  143.5163  159.4235 C   0  0  0  0  0  0  0  0  0  0  0  0
  151.7260  144.8675  159.7658 C   0  0  0  0  0  0  0  0  0  0  0  0
  151.4661  145.9671  160.0203 N   0  0  0  0  0  0  0  0  0  0  0  0
  153.0816  142.2391  162.3911 H   0  0  0  0  0  0  0  0  0  0  0  0
  151.7753  143.4131  162.2222 H   0  0  0  0  0  0  0  0  0  0  0  0
  153.4414  143.8780  161.8453 H   0  0  0  0  0  0  0  0  0  0  0  0
  153.2123  140.5857  160.6650 H   0  0  0  0  0  0  0  0  0  0  0  0
  152.0299  142.3030  155.5813 H   0  0  0  0  0  0  0  0  0  0  0  0
  152.5744  140.7278  155.9003 H   0  0  0  0  0  0  0  0  0  0  0  0
  150.2810  139.9947  156.6104 H   0  0  0  0  0  0  0  0  0  0  0  0
  149.1140  141.9023  157.5025 H   0  0  0  0  0  0  0  0  0  0  0  0
  149.6052  142.9213  156.1430 H   0  0  0  0  0  0  0  0  0  0  0  0
  147.7147  140.5464  156.0455 H   0  0  0  0  0  0  0  0  0  0  0  0
  147.3961  142.1820  155.4521 H   0  0  0  0  0  0  0  0  0  0  0  0
  148.3443  140.2683  153.7439 H   0  0  0  0  0  0  0  0  0  0  0  0
  148.9701  141.9158  153.6424 H   0  0  0  0  0  0  0  0  0  0  0  0
  1  2  1  0  0  0  0
  1 18  1  0  0  0  0
  1 19  1  0  0  0  0
  1 20  1  0  0  0  0
  2 15  2  0  0  0  0
  2  3  1  0  0  0  0
  3  4  2  0  0  0  0
  3 21  1  0  0  0  0
  4  5  1  0  0  0  0
  4  6  1  0  0  0  0
  6  7  1  0  0  0  0
  6 13  1  0  0  0  0
  7  8  1  0  0  0  0
  7 22  1  0  0  0  0
  7 23  1  0  0  0  0
  8 12  1  0  0  0  0
  8  9  1  0  0  0  0
  8 24  1  0  0  0  0
  9 10  1  0  0  0  0
  9 25  1  0  0  0  0
  9 26  1  0  0  0  0
 10 11  1  0  0  0  0
 10 27  1  0  0  0  0
 10 28  1  0  0  0  0
 11 12  1  0  0  0  0
 11 29  1  0  0  0  0
 11 30  1  0  0  0  0
 13 14  2  0  0  0  0
 13 15  1  0  0  0  0
 15 16  1  0  0  0  0
 16 17  3  0  0  0  0
M  CHG  1   5  -1
M  END
> <s_m_source_file>
AV-unprocessed.smi

> <i_m_source_file_index>
966

> <i_lp_mmshare_version>
43012

> <i_f3d_flags>
0

> <s_epik_input>
W0NIM11jMVtjSF1jKFtPSF0pbihjKD1PKWMxQyNOKVtDSDJdW0NAQEhdMltDSDJdW0NIMl1bQ0gyXU8y

> <s_epik_cmdline>
J2VwaWtfcHl0aG9uJywgJy1waCcsICc3LjAnLCAnLXRuJywgJzgnLCAnLW1hJywgJzIwMCcsICctbWV0YWxfYmluZGluZycsICctaW1hZScsICc8aW5maWxlLm1hZT4nLCAnLW9tYWUnLCAnPG91dGZpbGUubWFlPic=

> <r_lp_tautomer_probability>
1

> <r_epik_Ionization_Penalty>
3.48555e-06

> <r_epik_Ionization_Penalty_Charging>
3.48554e-06

> <r_epik_Ionization_Penalty_Neutral>
1.71861e-11

> <r_epik_State_Penalty>
-0

> <r_epik_Charging_Adjusted_Penalty>
3.48554e-06

> <i_epik_Tot_Q>
-1

> <i_epik_Tot_abs_Q>
1

> <r_epik_Metal_State_Penalty>
-0

> <b_epik_Metal_Only>
0

> <s_lp_Force_Field>
OPLS_2005

> <r_lp_Energy>
36.155

> <b_lp_Chiralities_Consistent>
1

> <s_lp_Variant>
AV-unprocessed.smi:966-2

> <Gold.Version>
5.8.1

> <Gold.Id.Protein>
6NUR|6NUR_protein|mol2

> <Gold.PLP.Fitness>
41.7000

> <Gold.PLP.PLP>
-33.5250

> <Gold.PLP.part.hbond>
-3.8314

> <Gold.PLP.part.metal>
0.0000

> <Gold.PLP.part.buried>
-6.1749

> <Gold.PLP.part.nonpolar>
-24.3135

> <Gold.PLP.part.repulsive>
1.4831

> <Gold.PLP.ligand.clash>
0.0000

> <Gold.PLP.ligand.torsion>
0.3774

> <Gold.PLP.Chemscore.Hbond>
2.9760

> <Gold.PLP.Chemscore.CHOScore>
0.0000

> <Gold.PLP.Chemscore.Metal>
0.0000

> <Gold.Chemscore.Hbonds>
donor molecule, donor type, donor heavy atom, donor atom, acceptor molecule, acceptor atom, score
      P1  H  7989  7998       L1    12  0.88
      P1  H  7997  8009       L1     5  1.89

> <Gold.PLP.Chemscore.Internal.Correction>
0.0019

> <Gold.Rescore>
     Score         DG    S(hbond)    S(metal)    S(lipo)     H(rot)  DE(clash)    DE(int)     intcor
     13.29     -16.67       1.70        0.00      74.61       1.25       3.02       0.36       ----

> <Gold.Chemscore.Fitness>
13.2893

> <Gold.Chemscore.DG>
-16.6691

> <Gold.Chemscore.ZeroCoef>
-5.4800

> <Gold.Chemscore.Hbond>
1.6957

> <Gold.Chemscore.Metal>
0.0000

> <Gold.Chemscore.Lipo>
74.6060

> <Gold.Chemscore.Internal_Hbond>
0.0000

> <Gold.Chemscore.DEClash>
3.0167

> <Gold.Chemscore.DEInternal>
0.3631

> <Gold.Chemscore.Rot>
1.2514

> <Gold.Chemscore.Internal.Correction>
   9.000000E+99

> <Gold.Chemscore.Hbonds>
donor molecule, donor type, donor heavy atom, donor atom, acceptor molecule, acceptor atom, score
      P1  H  7989  7998       L1    12  0.78
      P1  H  7997  8009       L1     5  0.49

> <Gold.Chemscore.Hbond.Weighted>
-5.6637

> <Gold.Chemscore.Metal.Weighted>
-0.0000

> <Gold.Chemscore.Lipo.Weighted>
-8.7289

> <Gold.Chemscore.Internal_Hbond.Weighted>
0.0000

> <Gold.Chemscore.DEClash.Weighted>
3.0167

> <Gold.Chemscore.DEInternal.Weighted>
0.3631

> <Gold.Chemscore.Rot.Weighted>
3.2036

> <Gold.Chemscore.Internal.Correction.Weighted>
   9.000000E+99

> <Gold.Protein.RotatedTorsions>
[ 6907 6896 6895 6894 ] final   49.67 input  -60.11 | X-H torsion
[ 7974 7965 7964 7962 ] final -160.34 input  175.53 | X-H torsion
[ 8008 7997 7996 7995 ] final  160.33 input   59.86 | X-H torsion
[ 10167 10162 10161 10158 ] final -134.00 input  -65.29 | X-H torsion
[ 10718 10713 10712 10709 ] final  146.07 input   66.30 | X-H torsion
[ 10763 10752 10751 10750 ] final -171.99 input  -60.55 | X-H torsion
[ 11005 11000 10999 10996 ] final  133.28 input  -57.11 | X-H torsion

> <Gold.Protein.ActiveResidues>
 VAL166  LYS551  ARG553  GLY616  TRP617  ASP618  TYR619  PRO620  LYS621  CYS622 
 ASP623  PHE694  ASN695  SER759  ASP760  ASP761  ALA762  ILE779  LEU786  VAL792 
 PHE793  MET794  SER795  GLU796  ALA797  LYS798  CYS799  TRP800  GLU811  SER814 

> <Gold.Protein.RotatedAtoms>
  152.2933  134.7696  160.0373 H   0  0  0  0  0  0  0  0  0  0  0  0  # atno 6907 bound_to 6896
  151.8234  133.3392  159.3599 H   0  0  0  0  0  0  0  0  0  0  0  0  # atno 6908 bound_to 6896
  150.7240  134.5481  159.5825 H   0  0  0  0  0  0  0  0  0  0  0  0  # atno 6909 bound_to 6896
  144.7431  140.3556  143.6107 H   0  0  0  0  0  0  0  0  0  0  0  0  # atno 7974 bound_to 7965
  156.2179  140.1807  156.7545 H   0  0  0  0  0  0  0  0  0  0  0  0  # atno 8008 bound_to 7997
  154.5820  140.0664  156.9147 H   0  0  0  0  0  0  0  0  0  0  0  0  # atno 8009 bound_to 7997
  155.2485  140.3327  155.4287 H   0  0  0  0  0  0  0  0  0  0  0  0  # atno 8010 bound_to 7997
  139.8925  143.6706  152.2610 H   0  0  0  0  0  0  0  0  0  0  0  0  # atno 10167 bound_to 10162
  157.3376  131.0930  151.1109 H   0  0  0  0  0  0  0  0  0  0  0  0  # atno 10718 bound_to 10713
  154.6243  135.2879  155.0290 H   0  0  0  0  0  0  0  0  0  0  0  0  # atno 10763 bound_to 10752
  154.1474  135.6509  153.4959 H   0  0  0  0  0  0  0  0  0  0  0  0  # atno 10764 bound_to 10752
  153.0250  135.5347  154.7045 H   0  0  0  0  0  0  0  0  0  0  0  0  # atno 10765 bound_to 10752
  139.9842  134.9538  156.9702 H   0  0  0  0  0  0  0  0  0  0  0  0  # atno 11005 bound_to 11000
  145.7231  139.1715  143.2473 LP  0  0  0  0  0  0  0  0  0  0  0  0  # atno 17320 bound_to 7965
  146.1262  140.7245  142.9434 LP  0  0  0  0  0  0  0  0  0  0  0  0  # atno 17321 bound_to 7965
  139.7097  144.7622  151.1132 LP  0  0  0  0  0  0  0  0  0  0  0  0  # atno 17342 bound_to 10162
  140.7724  143.5347  150.9382 LP  0  0  0  0  0  0  0  0  0  0  0  0  # atno 17343 bound_to 10162
  157.2334  130.6535  149.5859 LP  0  0  0  0  0  0  0  0  0  0  0  0  # atno 17370 bound_to 10713
  155.9703  130.4591  150.6025 LP  0  0  0  0  0  0  0  0  0  0  0  0  # atno 17371 bound_to 10713
  140.5036  134.1073  155.7255 LP  0  0  0  0  0  0  0  0  0  0  0  0  # atno 17394 bound_to 11000
  141.1509  133.8970  157.2099 LP  0  0  0  0  0  0  0  0  0  0  0  0  # atno 17395 bound_to 11000

$$$$
