AV-unprocessed.smi:2620|AV-procd|sdf|10224|dock4
  -GOLD-   2272014233D 1   1.00000     0.00000
 Structure written by MMmdl.
 35 36  0  0  0  0  0  0  0  0  2 V2000
  146.1479  142.6826  154.4539 C   0  0  0  0  0  0  0  0  0  0  0  0
  147.2011  141.8686  153.9683 O   0  0  0  0  0  0  0  0  0  0  0  0
  147.8971  141.2043  155.0091 C   0  0  0  0  0  0  0  0  0  0  0  0
  149.0386  142.1079  155.4982 C   0  0  0  0  0  0  0  0  0  0  0  0
  150.1683  141.3171  156.0039 N   0  0  0  0  0  0  0  0  0  0  0  0
  150.7074  141.7026  157.2464 C   0  0  0  0  0  0  0  0  0  0  0  0
  151.7433  141.0548  157.8121 C   0  0  0  0  0  0  0  0  0  0  0  0
  152.2864  141.5027  159.1179 C   0  0  0  0  0  0  0  0  0  0  0  0
  152.8208  140.7053  159.8903 O   0  0  0  0  0  0  0  0  0  0  0  0
  152.1885  142.9548  159.4560 C   0  0  0  0  0  0  0  0  0  0  0  0
  152.3508  143.9102  158.4245 C   0  0  0  0  0  0  0  0  0  0  0  0
  152.2784  145.2882  158.7010 C   0  0  0  0  0  0  0  0  0  0  0  0
  152.0423  145.7295  160.0149 C   0  0  0  0  0  0  0  0  0  0  0  0
  151.8761  144.7911  161.0498 C   0  0  0  0  0  0  0  0  0  0  0  0
  151.9462  143.4087  160.7813 C   0  0  0  0  0  0  0  0  0  0  0  0
  151.7540  142.5433  161.8236 O   0  5  0  0  0  0  0  0  0  0  0  0
  152.3120  139.9345  157.0875 C   0  0  0  0  0  0  0  0  0  0  0  0
  151.8077  139.5678  155.8926 C   0  0  0  0  0  0  0  0  0  0  0  0
  152.3570  138.4755  155.1598 C   0  0  0  0  0  0  0  0  0  0  0  0
  152.7923  137.5954  154.5469 N   0  0  0  0  0  0  0  0  0  0  0  0
  150.6745  140.2741  155.2786 C   0  0  0  0  0  0  0  0  0  0  0  0
  150.2080  139.9572  154.1829 O   0  0  0  0  0  0  0  0  0  0  0  0
  145.6445  143.1677  153.6177 H   0  0  0  0  0  0  0  0  0  0  0  0
  146.5252  143.4617  155.1175 H   0  0  0  0  0  0  0  0  0  0  0  0
  145.4081  142.0904  154.9940 H   0  0  0  0  0  0  0  0  0  0  0  0
  147.2131  140.9791  155.8290 H   0  0  0  0  0  0  0  0  0  0  0  0
  148.2978  140.2573  154.6437 H   0  0  0  0  0  0  0  0  0  0  0  0
  149.3678  142.7523  154.6816 H   0  0  0  0  0  0  0  0  0  0  0  0
  148.6703  142.7914  156.2651 H   0  0  0  0  0  0  0  0  0  0  0  0
  150.2233  142.5560  157.7007 H   0  0  0  0  0  0  0  0  0  0  0  0
  152.5422  143.5915  157.4100 H   0  0  0  0  0  0  0  0  0  0  0  0
  152.4075  146.0068  157.9053 H   0  0  0  0  0  0  0  0  0  0  0  0
  151.9876  146.7863  160.2298 H   0  0  0  0  0  0  0  0  0  0  0  0
  151.6901  145.1374  162.0563 H   0  0  0  0  0  0  0  0  0  0  0  0
  153.1545  139.3914  157.4914 H   0  0  0  0  0  0  0  0  0  0  0  0
  1  2  1  0  0  0  0
  1 23  1  0  0  0  0
  1 24  1  0  0  0  0
  1 25  1  0  0  0  0
  2  3  1  0  0  0  0
  3  4  1  0  0  0  0
  3 26  1  0  0  0  0
  3 27  1  0  0  0  0
  4  5  1  0  0  0  0
  4 28  1  0  0  0  0
  4 29  1  0  0  0  0
  5 21  1  0  0  0  0
  5  6  1  0  0  0  0
  6  7  2  0  0  0  0
  6 30  1  0  0  0  0
  7  8  1  0  0  0  0
  7 17  1  0  0  0  0
  8  9  2  0  0  0  0
  8 10  1  0  0  0  0
 10 15  1  0  0  0  0
 10 11  2  0  0  0  0
 11 12  1  0  0  0  0
 11 31  1  0  0  0  0
 12 13  2  0  0  0  0
 12 32  1  0  0  0  0
 13 14  1  0  0  0  0
 13 33  1  0  0  0  0
 14 15  2  0  0  0  0
 14 34  1  0  0  0  0
 15 16  1  0  0  0  0
 17 18  2  0  0  0  0
 17 35  1  0  0  0  0
 18 19  1  0  0  0  0
 18 21  1  0  0  0  0
 19 20  3  0  0  0  0
 21 22  2  0  0  0  0
M  CHG  1  16  -1
M  END
> <s_m_source_file>
AV-unprocessed.smi

> <i_m_source_file_index>
2620

> <i_lp_mmshare_version>
43012

> <i_f3d_flags>
0

> <s_epik_input>
W0NIM11PW0NIMl1bQ0gyXW4xW2NIXWMoW2NIXWMoQyNOKWMxPU8pQyg9TyljMltjSF1bY0hdW2NIXVtjSF1jMltPSF0=

> <s_epik_cmdline>
J2VwaWtfcHl0aG9uJywgJy1waCcsICc3LjAnLCAnLXRuJywgJzgnLCAnLW1hJywgJzIwMCcsICctbWV0YWxfYmluZGluZycsICctaW1hZScsICc8aW5maWxlLm1hZT4nLCAnLW9tYWUnLCAnPG91dGZpbGUubWFlPic=

> <r_epik_Ionization_Penalty>
0.694682

> <r_epik_Ionization_Penalty_Charging>
0.694682

> <r_epik_Ionization_Penalty_Neutral>
1.08437e-11

> <r_epik_State_Penalty>
0.716871

> <r_epik_Charging_Adjusted_Penalty>
1.41155

> <i_epik_Tot_Q>
-1

> <i_epik_Tot_abs_Q>
1

> <r_epik_Metal_State_Penalty>
0.716871

> <b_epik_Metal_Only>
0

> <s_lp_Force_Field>
OPLS_2005

> <r_lp_Energy>
23.3851

> <b_lp_Chiralities_Consistent>
1

> <s_lp_Variant>
AV-unprocessed.smi:2620-2

> <Gold.Version>
5.8.1

> <Gold.Id.Protein>
6NUR|6NUR_protein|mol2

> <Gold.PLP.Fitness>
53.3367

> <Gold.PLP.PLP>
-48.0241

> <Gold.PLP.part.hbond>
-3.0000

> <Gold.PLP.part.metal>
0.0000

> <Gold.PLP.part.buried>
-1.4295

> <Gold.PLP.part.nonpolar>
-45.2334

> <Gold.PLP.part.repulsive>
0.8168

> <Gold.PLP.ligand.clash>
0.2112

> <Gold.PLP.ligand.torsion>
1.4043

> <Gold.PLP.Chemscore.Hbond>
2.2020

> <Gold.PLP.Chemscore.CHOScore>
0.0000

> <Gold.PLP.Chemscore.Metal>
0.0000

> <Gold.Chemscore.Hbonds>
donor molecule, donor type, donor heavy atom, donor atom, acceptor molecule, acceptor atom, score
      P1  H  6933  6945       L1    16  1.57
      P1  H  7989  7998       L1    22  0.30
      P1  H 10752 10764       L1    20  0.35

> <Gold.PLP.Chemscore.Internal.Correction>
1.7265

> <Gold.Rescore>
     Score         DG    S(hbond)    S(metal)    S(lipo)     H(rot)  DE(clash)    DE(int)     intcor
     13.16     -18.24       1.04        0.00     110.83       1.44       0.22       4.85       ----

> <Gold.Chemscore.Fitness>
13.1589

> <Gold.Chemscore.DG>
-18.2352

> <Gold.Chemscore.ZeroCoef>
-5.4800

> <Gold.Chemscore.Hbond>
1.0383

> <Gold.Chemscore.Metal>
0.0000

> <Gold.Chemscore.Lipo>
110.8288

> <Gold.Chemscore.Internal_Hbond>
0.0000

> <Gold.Chemscore.DEClash>
0.2243

> <Gold.Chemscore.DEInternal>
4.8520

> <Gold.Chemscore.Rot>
1.4374

> <Gold.Chemscore.Internal.Correction>
   9.000000E+99

> <Gold.Chemscore.Hbonds>
donor molecule, donor type, donor heavy atom, donor atom, acceptor molecule, acceptor atom, score
      P1  H  6933  6945       L1    16  0.77
      P1  H 10752 10764       L1    20  0.33

> <Gold.Chemscore.Hbond.Weighted>
-3.4680

> <Gold.Chemscore.Metal.Weighted>
-0.0000

> <Gold.Chemscore.Lipo.Weighted>
-12.9670

> <Gold.Chemscore.Internal_Hbond.Weighted>
0.0000

> <Gold.Chemscore.DEClash.Weighted>
0.2243

> <Gold.Chemscore.DEInternal.Weighted>
4.8520

> <Gold.Chemscore.Rot.Weighted>
3.6797

> <Gold.Chemscore.Internal.Correction.Weighted>
   9.000000E+99

> <Gold.Protein.RotatedTorsions>
[ 6907 6896 6895 6894 ] final   70.25 input  -60.11 | X-H torsion
[ 7974 7965 7964 7962 ] final -134.23 input  175.53 | X-H torsion
[ 8008 7997 7996 7995 ] final  172.40 input   59.86 | X-H torsion
[ 10167 10162 10161 10158 ] final  -90.23 input  -65.29 | X-H torsion
[ 10718 10713 10712 10709 ] final  -23.33 input   66.30 | X-H torsion
[ 10763 10752 10751 10750 ] final -103.75 input  -60.55 | X-H torsion
[ 11005 11000 10999 10996 ] final -145.56 input  -57.11 | X-H torsion

> <Gold.Protein.ActiveResidues>
 VAL166  LYS551  ARG553  GLY616  TRP617  ASP618  TYR619  PRO620  LYS621  CYS622 
 ASP623  PHE694  ASN695  SER759  ASP760  ASP761  ALA762  ILE779  LEU786  VAL792 
 PHE793  MET794  SER795  GLU796  ALA797  LYS798  CYS799  TRP800  GLU811  SER814 

> <Gold.Protein.RotatedAtoms>
  152.4737  134.4896  159.9690 H   0  0  0  0  0  0  0  0  0  0  0  0  # atno 6907 bound_to 6896
  151.4917  133.3517  159.2862 H   0  0  0  0  0  0  0  0  0  0  0  0  # atno 6908 bound_to 6896
  150.8763  134.8173  159.7253 H   0  0  0  0  0  0  0  0  0  0  0  0  # atno 6909 bound_to 6896
  144.9122  140.6909  143.5018 H   0  0  0  0  0  0  0  0  0  0  0  0  # atno 7974 bound_to 7965
  156.1178  140.1487  156.9247 H   0  0  0  0  0  0  0  0  0  0  0  0  # atno 8008 bound_to 7997
  154.4813  140.0878  156.7427 H   0  0  0  0  0  0  0  0  0  0  0  0  # atno 8009 bound_to 7997
  155.4482  140.3433  155.4300 H   0  0  0  0  0  0  0  0  0  0  0  0  # atno 8010 bound_to 7997
  140.3570  143.2861  151.9659 H   0  0  0  0  0  0  0  0  0  0  0  0  # atno 10167 bound_to 10162
  156.4925  130.4569  149.6747 H   0  0  0  0  0  0  0  0  0  0  0  0  # atno 10718 bound_to 10713
  154.7830  135.4811  153.9885 H   0  0  0  0  0  0  0  0  0  0  0  0  # atno 10763 bound_to 10752
  153.1520  135.6793  153.8875 H   0  0  0  0  0  0  0  0  0  0  0  0  # atno 10764 bound_to 10752
  153.8516  135.3166  155.3411 H   0  0  0  0  0  0  0  0  0  0  0  0  # atno 10765 bound_to 10752
  140.7910  134.2968  157.5013 H   0  0  0  0  0  0  0  0  0  0  0  0  # atno 11005 bound_to 11000
  145.3436  139.1725  143.4472 LP  0  0  0  0  0  0  0  0  0  0  0  0  # atno 17320 bound_to 7965
  146.3164  140.3480  142.8653 LP  0  0  0  0  0  0  0  0  0  0  0  0  # atno 17321 bound_to 7965
  139.4819  144.6026  151.7578 LP  0  0  0  0  0  0  0  0  0  0  0  0  # atno 17342 bound_to 10162
  140.5164  144.0946  150.6009 LP  0  0  0  0  0  0  0  0  0  0  0  0  # atno 17343 bound_to 10162
  156.3413  130.7383  151.2329 LP  0  0  0  0  0  0  0  0  0  0  0  0  # atno 17370 bound_to 10713
  157.7472  131.0403  150.4591 LP  0  0  0  0  0  0  0  0  0  0  0  0  # atno 17371 bound_to 10713
  139.8731  134.9375  156.3688 LP  0  0  0  0  0  0  0  0  0  0  0  0  # atno 17394 bound_to 11000
  140.9389  133.7528  156.0121 LP  0  0  0  0  0  0  0  0  0  0  0  0  # atno 17395 bound_to 11000

$$$$
