AV-unprocessed.smi:2725|AV-procd|sdf|10518|dock3
  -GOLD-   2272014563D 1   1.00000     0.00000
 Structure written by MMmdl.
 45 46  0  0  0  0  0  0  0  0  2 V2000
  151.5060  140.2134  154.9963 O   0  0  0  0  0  0  0  0  0  0  0  0
  151.3365  140.0051  156.1977 C   0  0  0  0  0  0  0  0  0  0  0  0
  151.8815  140.9843  157.2417 C   0  0  0  0  0  0  0  0  0  0  0  0
  151.2403  142.3817  157.1449 C   0  0  0  0  0  0  0  0  0  0  0  0
  151.7836  143.3707  158.1913 C   0  0  0  0  0  0  0  0  0  0  0  0
  152.3950  142.7104  159.4320 C   0  0  0  0  0  0  0  0  0  0  0  0
  152.3458  143.7780  160.5326 C   0  0  0  0  0  0  0  0  0  0  0  0
  151.3260  144.8303  160.0716 C   0  0  0  0  0  0  0  0  0  0  0  0
  150.7079  144.2844  158.7818 C   0  0  0  0  0  0  0  0  0  0  0  0
  150.6766  138.9362  156.6719 N   0  0  0  0  0  0  0  0  0  0  0  0
  150.0661  137.8863  155.8581 C   0  0  1  0  0  0  0  0  0  0  0  0
  149.2573  138.5235  154.7047 C   0  0  0  0  0  0  0  0  0  0  0  0
  148.2571  137.6433  154.2369 O   0  0  0  0  0  0  0  0  0  0  0  0
  151.1745  136.9183  155.3901 C   0  0  0  0  0  0  0  0  0  0  0  0
  150.7490  135.4610  155.3573 C   0  0  0  0  0  0  0  0  0  0  0  0
  151.2074  134.5291  156.3136 C   0  0  0  0  0  0  0  0  0  0  0  0
  150.7660  133.1914  156.2403 C   0  0  0  0  0  0  0  0  0  0  0  0
  149.8757  132.8137  155.2140 C   0  0  0  0  0  0  0  0  0  0  0  0
  149.4483  133.7851  154.2860 C   0  0  0  0  0  0  0  0  0  0  0  0
  149.8941  135.0564  154.3894 N   0  3  0  0  0  0  0  0  0  0  0  0
  151.7066  140.5573  158.2295 H   0  0  0  0  0  0  0  0  0  0  0  0
  152.9628  141.0715  157.1254 H   0  0  0  0  0  0  0  0  0  0  0  0
  151.4228  142.7892  156.1493 H   0  0  0  0  0  0  0  0  0  0  0  0
  150.1568  142.3045  157.2476 H   0  0  0  0  0  0  0  0  0  0  0  0
  152.5424  144.0022  157.7262 H   0  0  0  0  0  0  0  0  0  0  0  0
  151.7893  141.8546  159.7335 H   0  0  0  0  0  0  0  0  0  0  0  0
  153.4079  142.3478  159.2540 H   0  0  0  0  0  0  0  0  0  0  0  0
  152.0649  143.3372  161.4897 H   0  0  0  0  0  0  0  0  0  0  0  0
  153.3249  144.2406  160.6622 H   0  0  0  0  0  0  0  0  0  0  0  0
  150.5682  145.0322  160.8295 H   0  0  0  0  0  0  0  0  0  0  0  0
  151.8395  145.7702  159.8655 H   0  0  0  0  0  0  0  0  0  0  0  0
  150.4093  145.0775  158.0957 H   0  0  0  0  0  0  0  0  0  0  0  0
  149.8164  143.7034  159.0232 H   0  0  0  0  0  0  0  0  0  0  0  0
  150.5864  138.8465  157.6736 H   0  0  0  0  0  0  0  0  0  0  0  0
  149.3844  137.3284  156.5039 H   0  0  0  0  0  0  0  0  0  0  0  0
  148.7440  139.4235  155.0454 H   0  0  0  0  0  0  0  0  0  0  0  0
  149.9068  138.8239  153.8822 H   0  0  0  0  0  0  0  0  0  0  0  0
  148.6021  137.1603  153.5011 H   0  0  0  0  0  0  0  0  0  0  0  0
  151.5329  137.2092  154.4014 H   0  0  0  0  0  0  0  0  0  0  0  0
  152.0354  136.9977  156.0557 H   0  0  0  0  0  0  0  0  0  0  0  0
  151.8855  134.8351  157.0971 H   0  0  0  0  0  0  0  0  0  0  0  0
  151.1053  132.4645  156.9637 H   0  0  0  0  0  0  0  0  0  0  0  0
  149.5248  131.7946  155.1412 H   0  0  0  0  0  0  0  0  0  0  0  0
  148.7671  133.5858  153.4717 H   0  0  0  0  0  0  0  0  0  0  0  0
  149.5671  135.7434  153.7099 H   0  0  0  0  0  0  0  0  0  0  0  0
  1  2  2  0  0  0  0
  2  3  1  0  0  0  0
  2 10  1  0  0  0  0
  3  4  1  0  0  0  0
  3 21  1  0  0  0  0
  3 22  1  0  0  0  0
  4  5  1  0  0  0  0
  4 23  1  0  0  0  0
  4 24  1  0  0  0  0
  5  9  1  0  0  0  0
  5  6  1  0  0  0  0
  5 25  1  0  0  0  0
  6  7  1  0  0  0  0
  6 26  1  0  0  0  0
  6 27  1  0  0  0  0
  7  8  1  0  0  0  0
  7 28  1  0  0  0  0
  7 29  1  0  0  0  0
  8  9  1  0  0  0  0
  8 30  1  0  0  0  0
  8 31  1  0  0  0  0
  9 32  1  0  0  0  0
  9 33  1  0  0  0  0
 10 11  1  0  0  0  0
 10 34  1  0  0  0  0
 11 12  1  0  0  0  0
 11 14  1  0  0  0  0
 11 35  1  0  0  0  0
 12 13  1  0  0  0  0
 12 36  1  0  0  0  0
 12 37  1  0  0  0  0
 13 38  1  0  0  0  0
 14 15  1  0  0  0  0
 14 39  1  0  0  0  0
 14 40  1  0  0  0  0
 15 20  1  0  0  0  0
 15 16  2  0  0  0  0
 16 17  1  0  0  0  0
 16 41  1  0  0  0  0
 17 18  2  0  0  0  0
 17 42  1  0  0  0  0
 18 19  1  0  0  0  0
 18 43  1  0  0  0  0
 19 20  2  0  0  0  0
 19 44  1  0  0  0  0
 20 45  1  0  0  0  0
M  CHG  1  20   1
M  END
> <s_m_source_file>
AV-unprocessed.smi

> <i_m_source_file_index>
2725

> <i_lp_mmshare_version>
43012

> <i_f3d_flags>
0

> <s_epik_input>
W0NIMl0xW0NIMl1bQ0gyXVtDSDJdW0NIXTFbQ0gyXVtDSDJdQyg9TylbTkhdW0NASF0oW0NIMl1bT0hdKVtDSDJdYzJbY0hdW2NIXVtjSF1bY0hdbjI=

> <s_epik_cmdline>
J2VwaWtfcHl0aG9uJywgJy1waCcsICc3LjAnLCAnLXRuJywgJzgnLCAnLW1hJywgJzIwMCcsICctbWV0YWxfYmluZGluZycsICctaW1hZScsICc8aW5maWxlLm1hZT4nLCAnLW9tYWUnLCAnPG91dGZpbGUubWFlPic=

> <r_epik_Ionization_Penalty>
1.87189

> <r_epik_Ionization_Penalty_Charging>
1.87189

> <r_epik_Ionization_Penalty_Neutral>
6.79411e-08

> <r_epik_State_Penalty>
1.99097

> <r_epik_Charging_Adjusted_Penalty>
3.86287

> <i_epik_Tot_Q>
1

> <i_epik_Tot_abs_Q>
1

> <r_epik_Metal_State_Penalty>
2.01578

> <b_epik_Metal_Only>
0

> <s_lp_Force_Field>
OPLS_2005

> <r_lp_Energy>
28.0453

> <b_lp_Chiralities_Consistent>
1

> <s_lp_Variant>
AV-unprocessed.smi:2725-4

> <Gold.Version>
5.8.1

> <Gold.Id.Protein>
6NUR|6NUR_protein|mol2

> <Gold.PLP.Fitness>
48.5666

> <Gold.PLP.PLP>
-39.7244

> <Gold.PLP.part.hbond>
-3.0741

> <Gold.PLP.part.metal>
0.0000

> <Gold.PLP.part.buried>
-5.7892

> <Gold.PLP.part.nonpolar>
-30.8542

> <Gold.PLP.part.repulsive>
0.1085

> <Gold.PLP.ligand.clash>
0.0000

> <Gold.PLP.ligand.torsion>
1.6120

> <Gold.PLP.Chemscore.Hbond>
3.9840

> <Gold.PLP.Chemscore.CHOScore>
0.0000

> <Gold.PLP.Chemscore.Metal>
0.0000

> <Gold.Chemscore.Hbonds>
donor molecule, donor type, donor heavy atom, donor atom, acceptor molecule, acceptor atom, score
      L1  H    13    38       P1  7948  1.00
      L1  H    20    45       P1  7948  2.00
      P1  H  7989  7998       L1     1  1.00

> <Gold.PLP.Chemscore.Internal.Correction>
0.1141

> <Gold.Rescore>
     Score         DG    S(hbond)    S(metal)    S(lipo)     H(rot)  DE(clash)    DE(int)     intcor
     17.11     -20.31       2.63        0.00     108.18       2.58       0.12       3.08       ----

> <Gold.Chemscore.Fitness>
17.1103

> <Gold.Chemscore.DG>
-20.3139

> <Gold.Chemscore.ZeroCoef>
-5.4800

> <Gold.Chemscore.Hbond>
2.6273

> <Gold.Chemscore.Metal>
0.0000

> <Gold.Chemscore.Lipo>
108.1757

> <Gold.Chemscore.Internal_Hbond>
0.0000

> <Gold.Chemscore.DEClash>
0.1214

> <Gold.Chemscore.DEInternal>
3.0822

> <Gold.Chemscore.Rot>
2.5773

> <Gold.Chemscore.Internal.Correction>
   9.000000E+99

> <Gold.Chemscore.Hbonds>
donor molecule, donor type, donor heavy atom, donor atom, acceptor molecule, acceptor atom, score
      L1  H    13    38       P1  7948  1.00
      L1  H    20    45       P1  7948  0.24
      P1  H  7989  7998       L1     1  0.96

> <Gold.Chemscore.Hbond.Weighted>
-8.7752

> <Gold.Chemscore.Metal.Weighted>
-0.0000

> <Gold.Chemscore.Lipo.Weighted>
-12.6566

> <Gold.Chemscore.Internal_Hbond.Weighted>
0.0000

> <Gold.Chemscore.DEClash.Weighted>
0.1214

> <Gold.Chemscore.DEInternal.Weighted>
3.0822

> <Gold.Chemscore.Rot.Weighted>
6.5978

> <Gold.Chemscore.Internal.Correction.Weighted>
   9.000000E+99

> <Gold.Protein.RotatedTorsions>
[ 6907 6896 6895 6894 ] final   33.08 input  -60.11 | X-H torsion
[ 7974 7965 7964 7962 ] final   74.45 input  175.53 | X-H torsion
[ 8008 7997 7996 7995 ] final -123.33 input   59.86 | X-H torsion
[ 10167 10162 10161 10158 ] final -179.00 input  -65.29 | X-H torsion
[ 10718 10713 10712 10709 ] final -170.18 input   66.30 | X-H torsion
[ 10763 10752 10751 10750 ] final  147.66 input  -60.55 | X-H torsion
[ 11005 11000 10999 10996 ] final  177.13 input  -57.11 | X-H torsion

> <Gold.Protein.ActiveResidues>
 VAL166  LYS551  ARG553  GLY616  TRP617  ASP618  TYR619  PRO620  LYS621  CYS622 
 ASP623  PHE694  ASN695  SER759  ASP760  ASP761  ALA762  ILE779  LEU786  VAL792 
 PHE793  MET794  SER795  GLU796  ALA797  LYS798  CYS799  TRP800  GLU811  SER814 

> <Gold.Protein.RotatedAtoms>
  152.0835  134.9455  160.0572 H   0  0  0  0  0  0  0  0  0  0  0  0  # atno 6907 bound_to 6896
  152.0734  133.4113  159.4477 H   0  0  0  0  0  0  0  0  0  0  0  0  # atno 6908 bound_to 6896
  150.6836  134.2985  159.4740 H   0  0  0  0  0  0  0  0  0  0  0  0  # atno 6909 bound_to 6896
  145.7281  139.2673  143.1557 H   0  0  0  0  0  0  0  0  0  0  0  0  # atno 7974 bound_to 7965
  155.1788  140.0410  157.2878 H   0  0  0  0  0  0  0  0  0  0  0  0  # atno 8008 bound_to 7997
  154.6218  140.2502  155.7513 H   0  0  0  0  0  0  0  0  0  0  0  0  # atno 8009 bound_to 7997
  156.2437  140.2893  156.0529 H   0  0  0  0  0  0  0  0  0  0  0  0  # atno 8010 bound_to 7997
  139.5406  144.2373  152.0887 H   0  0  0  0  0  0  0  0  0  0  0  0  # atno 10167 bound_to 10162
  156.7225  130.9275  151.3098 H   0  0  0  0  0  0  0  0  0  0  0  0  # atno 10718 bound_to 10713
  154.0420  135.2889  155.3353 H   0  0  0  0  0  0  0  0  0  0  0  0  # atno 10763 bound_to 10752
  154.6923  135.5221  153.8413 H   0  0  0  0  0  0  0  0  0  0  0  0  # atno 10764 bound_to 10752
  153.0596  135.6608  154.0623 H   0  0  0  0  0  0  0  0  0  0  0  0  # atno 10765 bound_to 10752
  140.3807  134.6949  157.4449 H   0  0  0  0  0  0  0  0  0  0  0  0  # atno 11005 bound_to 11000
  146.0563  140.8017  142.9757 LP  0  0  0  0  0  0  0  0  0  0  0  0  # atno 17320 bound_to 7965
  144.6899  140.3129  143.7245 LP  0  0  0  0  0  0  0  0  0  0  0  0  # atno 17321 bound_to 7965
  140.1851  144.4806  150.6508 LP  0  0  0  0  0  0  0  0  0  0  0  0  # atno 17342 bound_to 10162
  140.6634  143.2259  151.5801 LP  0  0  0  0  0  0  0  0  0  0  0  0  # atno 17343 bound_to 10162
  157.6892  130.9216  150.0468 LP  0  0  0  0  0  0  0  0  0  0  0  0  # atno 17370 bound_to 10713
  156.1585  130.3643  149.9334 LP  0  0  0  0  0  0  0  0  0  0  0  0  # atno 17371 bound_to 10713
  140.0481  134.6171  155.8896 LP  0  0  0  0  0  0  0  0  0  0  0  0  # atno 17394 bound_to 11000
  141.1924  133.6575  156.5501 LP  0  0  0  0  0  0  0  0  0  0  0  0  # atno 17395 bound_to 11000

$$$$
