AV-unprocessed.smi:72|AV-procd|sdf|668|dock1
  -GOLD-   2262016573D 1   1.00000     0.00000
 Structure written by MMmdl.
 29 30  0  0  0  0  0  0  0  0  1 V2000
  153.7402  138.5569  154.7660 N   0  0  0  0  0  0  0  0  0  0  0  0
  152.4803  138.7964  154.8515 C   0  0  0  0  0  0  0  0  0  0  0  0
  151.9044  140.0681  154.9910 N   0  0  0  0  0  0  0  0  0  0  0  0
  150.6126  140.1629  155.0667 C   0  0  0  0  0  0  0  0  0  0  0  0
  149.7440  138.9950  155.0065 N   0  0  0  0  0  0  0  0  0  0  0  0
  148.2310  139.0973  155.0965 C   0  0  1  0  0  0  0  0  0  0  0  0
  147.8541  140.4158  155.3723 O   0  0  0  0  0  0  0  0  0  0  0  0
  147.2749  141.0125  154.2157 C   0  0  2  0  0  0  0  0  0  0  0  0
  146.3886  142.2118  154.5934 C   0  0  0  0  0  0  0  0  0  0  0  0
  146.8294  142.7712  155.8121 O   0  0  0  0  0  0  0  0  0  0  0  0
  146.5526  139.8349  153.5508 C   0  0  2  0  0  0  0  0  0  0  0  0
  145.3028  139.5866  154.1691 O   0  0  0  0  0  0  0  0  0  0  0  0
  147.5058  138.6720  153.7950 C   0  0  1  0  0  0  0  0  0  0  0  0
  148.3664  138.5196  152.6791 O   0  0  0  0  0  0  0  0  0  0  0  0
  150.3113  137.7051  154.8655 C   0  0  0  0  0  0  0  0  0  0  0  0
  149.6228  136.6869  154.7999 O   0  0  0  0  0  0  0  0  0  0  0  0
  151.6592  137.6623  154.7960 N   0  0  0  0  0  0  0  0  0  0  0  0
  147.9505  138.4909  155.9595 H   0  0  0  0  0  0  0  0  0  0  0  0
  148.0711  141.3369  153.5433 H   0  0  0  0  0  0  0  0  0  0  0  0
  146.3719  140.0151  152.4900 H   0  0  0  0  0  0  0  0  0  0  0  0
  146.9805  137.7295  153.9552 H   0  0  0  0  0  0  0  0  0  0  0  0
  153.9069  137.5658  154.6719 H   0  0  0  0  0  0  0  0  0  0  0  0
  150.1061  141.1209  155.1803 H   0  0  0  0  0  0  0  0  0  0  0  0
  146.4629  142.9888  153.8321 H   0  0  0  0  0  0  0  0  0  0  0  0
  145.3392  141.9246  154.6670 H   0  0  0  0  0  0  0  0  0  0  0  0
  147.6745  143.1701  155.6722 H   0  0  0  0  0  0  0  0  0  0  0  0
  144.6487  140.1263  153.7527 H   0  0  0  0  0  0  0  0  0  0  0  0
  148.4437  137.5977  152.4864 H   0  0  0  0  0  0  0  0  0  0  0  0
  152.0911  136.7558  154.6941 H   0  0  0  0  0  0  0  0  0  0  0  0
  1  2  2  0  0  0  0
  1 22  1  0  0  0  0
  2 17  1  0  0  0  0
  2  3  1  0  0  0  0
  3  4  2  0  0  0  0
  4  5  1  0  0  0  0
  4 23  1  0  0  0  0
  5  6  1  0  0  0  0
  5 15  1  0  0  0  0
  6 18  1  0  0  0  0
  6 13  1  0  0  0  0
  6  7  1  0  0  0  0
  7  8  1  0  0  0  0
  8 19  1  0  0  0  0
  8  9  1  0  0  0  0
  8 11  1  0  0  0  0
  9 10  1  0  0  0  0
  9 24  1  0  0  0  0
  9 25  1  0  0  0  0
 10 26  1  0  0  0  0
 11 20  1  0  0  0  0
 11 12  1  0  0  0  0
 11 13  1  0  0  0  0
 12 27  1  0  0  0  0
 13 21  1  0  0  0  0
 13 14  1  0  0  0  0
 14 28  1  0  0  0  0
 15 16  2  0  0  0  0
 15 17  1  0  0  0  0
 17 29  1  0  0  0  0
M  END
> <s_m_source_file>
AV-unprocessed.smi

> <i_m_source_file_index>
72

> <i_lp_mmshare_version>
43012

> <i_f3d_flags>
0

> <s_epik_input>
W05IMl1jMW5bY0hdbihjKD1PKW4xKVtDQEBIXTJPW0NASF0oW0NIMl1bT0hdKVtDQEBIXShbT0hdKVtDQEhdMltPSF0=

> <s_epik_cmdline>
J2VwaWtfcHl0aG9uJywgJy1waCcsICc3LjAnLCAnLXRuJywgJzgnLCAnLW1hJywgJzIwMCcsICctbWV0YWxfYmluZGluZycsICctaW1hZScsICc8aW5maWxlLm1hZT4nLCAnLW9tYWUnLCAnPG91dGZpbGUubWFlPic=

> <r_lp_tautomer_probability>
7.17554e-07

> <r_epik_Ionization_Penalty>
0.0066451

> <r_epik_Ionization_Penalty_Charging>
0.00663793

> <r_epik_Ionization_Penalty_Neutral>
7.17052e-06

> <r_epik_State_Penalty>
0.419231

> <r_epik_Charging_Adjusted_Penalty>
0.425868

> <i_epik_Tot_Q>
0

> <i_epik_Tot_abs_Q>
0

> <r_epik_Metal_State_Penalty>
1.44144

> <b_epik_Metal_Only>
0

> <s_epik_Chemistry_Notes>
This compound contains an acetal/aminal-like group ( X-CH(R)-Y where X, Y are N, S, or O) that may be acid/base labile, releasing an aldehyde.

> <s_lp_Force_Field>
OPLS_2005

> <r_lp_Energy>
43.5158

> <b_lp_Chiralities_Consistent>
1

> <s_lp_Variant>
AV-unprocessed.smi:72-6

> <Gold.Version>
5.8.1

> <Gold.Id.Protein>
6NUR|6NUR_protein|mol2

> <Gold.PLP.Fitness>
33.5630

> <Gold.PLP.PLP>
-22.4127

> <Gold.PLP.part.hbond>
-5.3640

> <Gold.PLP.part.metal>
0.0000

> <Gold.PLP.part.buried>
-2.2088

> <Gold.PLP.part.nonpolar>
-16.3893

> <Gold.PLP.part.repulsive>
0.8794

> <Gold.PLP.ligand.clash>
0.0000

> <Gold.PLP.ligand.torsion>
0.5444

> <Gold.PLP.Chemscore.Hbond>
4.0560

> <Gold.PLP.Chemscore.CHOScore>
0.0000

> <Gold.PLP.Chemscore.Metal>
0.0000

> <Gold.Chemscore.Hbonds>
donor molecule, donor type, donor heavy atom, donor atom, acceptor molecule, acceptor atom, score
      L1  H    10    26       P1  8028  1.00
      L1  H    12    27       P1 10175  1.00
      L1  H    14    28       P1  7948  1.00
      P1  H  7989  7998       L1     3  0.13
      P1  H  7997  8009       L1     1  0.77

> <Gold.PLP.Chemscore.Internal.Correction>
0.0710

> <Gold.Rescore>
     Score         DG    S(hbond)    S(metal)    S(lipo)     H(rot)  DE(clash)    DE(int)     intcor
      6.37      -6.89       2.76        0.00      22.04       4.06       0.07       0.45       ----

> <Gold.Chemscore.Fitness>
6.3697

> <Gold.Chemscore.DG>
-6.8908

> <Gold.Chemscore.ZeroCoef>
-5.4800

> <Gold.Chemscore.Hbond>
2.7622

> <Gold.Chemscore.Metal>
0.0000

> <Gold.Chemscore.Lipo>
22.0408

> <Gold.Chemscore.Internal_Hbond>
0.0000

> <Gold.Chemscore.DEClash>
0.0682

> <Gold.Chemscore.DEInternal>
0.4529

> <Gold.Chemscore.Rot>
4.0600

> <Gold.Chemscore.Internal.Correction>
   9.000000E+99

> <Gold.Chemscore.Hbonds>
donor molecule, donor type, donor heavy atom, donor atom, acceptor molecule, acceptor atom, score
      L1  H    10    26       P1  8028  0.24
      L1  H    12    27       P1 10175  0.96
      L1  H    14    28       P1  7948  0.96
      P1  H  7997  8009       L1     1  0.26

> <Gold.Chemscore.Hbond.Weighted>
-9.2257

> <Gold.Chemscore.Metal.Weighted>
-0.0000

> <Gold.Chemscore.Lipo.Weighted>
-2.5788

> <Gold.Chemscore.Internal_Hbond.Weighted>
0.0000

> <Gold.Chemscore.DEClash.Weighted>
0.0682

> <Gold.Chemscore.DEInternal.Weighted>
0.4529

> <Gold.Chemscore.Rot.Weighted>
10.3936

> <Gold.Chemscore.Internal.Correction.Weighted>
   9.000000E+99

> <Gold.Protein.RotatedTorsions>
[ 6907 6896 6895 6894 ] final   90.38 input  -60.11 | X-H torsion
[ 7974 7965 7964 7962 ] final  160.53 input  175.53 | X-H torsion
[ 8008 7997 7996 7995 ] final -125.27 input   59.86 | X-H torsion
[ 10167 10162 10161 10158 ] final  -22.30 input  -65.29 | X-H torsion
[ 10718 10713 10712 10709 ] final  -18.32 input   66.30 | X-H torsion
[ 10763 10752 10751 10750 ] final  -26.43 input  -60.55 | X-H torsion
[ 11005 11000 10999 10996 ] final  -27.03 input  -57.11 | X-H torsion

> <Gold.Protein.ActiveResidues>
 VAL166  LYS551  ARG553  GLY616  TRP617  ASP618  TYR619  PRO620  LYS621  CYS622 
 ASP623  PHE694  ASN695  SER759  ASP760  ASP761  ALA762  ILE779  LEU786  VAL792 
 PHE793  MET794  SER795  GLU796  ALA797  LYS798  CYS799  TRP800  GLU811  SER814 

> <Gold.Protein.RotatedAtoms>
  152.5444  134.1821  159.8639 H   0  0  0  0  0  0  0  0  0  0  0  0  # atno 6907 bound_to 6896
  151.1822  133.4711  159.2601 H   0  0  0  0  0  0  0  0  0  0  0  0  # atno 6908 bound_to 6896
  151.1167  135.0068  159.8574 H   0  0  0  0  0  0  0  0  0  0  0  0  # atno 6909 bound_to 6896
  144.7732  139.7771  143.6289 H   0  0  0  0  0  0  0  0  0  0  0  0  # atno 7974 bound_to 7965
  155.2105  140.0418  157.2932 H   0  0  0  0  0  0  0  0  0  0  0  0  # atno 8008 bound_to 7997
  154.6015  140.2453  155.7758 H   0  0  0  0  0  0  0  0  0  0  0  0  # atno 8009 bound_to 7997
  156.2324  140.2933  156.0231 H   0  0  0  0  0  0  0  0  0  0  0  0  # atno 8010 bound_to 7997
  140.7285  143.4548  151.0464 H   0  0  0  0  0  0  0  0  0  0  0  0  # atno 10167 bound_to 10162
  156.5612  130.4726  149.6406 H   0  0  0  0  0  0  0  0  0  0  0  0  # atno 10718 bound_to 10713
  153.7157  135.6948  153.5025 H   0  0  0  0  0  0  0  0  0  0  0  0  # atno 10763 bound_to 10752
  153.2240  135.4360  155.0520 H   0  0  0  0  0  0  0  0  0  0  0  0  # atno 10764 bound_to 10752
  154.8300  135.3467  154.6693 H   0  0  0  0  0  0  0  0  0  0  0  0  # atno 10765 bound_to 10752
  140.9083  133.7478  156.0636 H   0  0  0  0  0  0  0  0  0  0  0  0  # atno 11005 bound_to 11000
  146.1893  139.5125  142.9815 LP  0  0  0  0  0  0  0  0  0  0  0  0  # atno 17320 bound_to 7965
  145.6263  141.0313  143.1888 LP  0  0  0  0  0  0  0  0  0  0  0  0  # atno 17321 bound_to 7965
  139.8227  143.7798  152.3177 LP  0  0  0  0  0  0  0  0  0  0  0  0  # atno 17342 bound_to 10162
  139.7886  144.7418  150.9987 LP  0  0  0  0  0  0  0  0  0  0  0  0  # atno 17343 bound_to 10162
  156.2798  130.7064  151.1885 LP  0  0  0  0  0  0  0  0  0  0  0  0  # atno 17370 bound_to 10713
  157.7368  131.0558  150.5392 LP  0  0  0  0  0  0  0  0  0  0  0  0  # atno 17371 bound_to 10713
  140.8143  134.3363  157.5402 LP  0  0  0  0  0  0  0  0  0  0  0  0  # atno 17394 bound_to 11000
  139.8753  134.9272  156.3419 LP  0  0  0  0  0  0  0  0  0  0  0  0  # atno 17395 bound_to 11000

$$$$
