AV-unprocessed.smi:1629|AV-procd|sdf|6523|dock7
  -GOLD-   22720 7203D 1   1.00000     0.00000
 Structure written by MMmdl.
 43 44  0  0  0  0  0  0  0  0  2 V2000
  150.3740  132.6171  154.9859 C   0  0  0  0  0  0  0  0  0  0  0  0
  149.7444  132.9688  156.6751 S   0  0  0  0  0  0  0  0  0  0  0  0
  148.4304  132.3110  156.7573 O   0  0  0  0  0  0  0  0  0  0  0  0
  150.7905  132.4995  157.5979 O   0  0  0  0  0  0  0  0  0  0  0  0
  149.6352  134.5862  156.6208 N   0  5  0  0  0  0  0  0  0  0  0  0
  150.6936  135.3650  155.9938 C   0  0  0  0  0  0  0  0  0  0  0  0
  151.4816  136.1891  157.0478 C   0  0  0  0  0  0  0  0  0  0  0  0
  152.4581  137.2187  156.4154 C   0  0  0  0  0  0  0  0  0  0  0  0
  151.7379  138.1377  155.5054 N   0  0  0  0  0  0  0  0  0  0  0  0
  151.5330  139.4671  155.6811 C   0  0  0  0  0  0  0  0  0  0  0  0
  150.9968  140.1878  154.8385 O   0  0  0  0  0  0  0  0  0  0  0  0
  151.9585  139.9450  156.8601 N   0  0  0  0  0  0  0  0  0  0  0  0
  151.8627  141.3345  157.2894 C   0  0  0  0  0  0  0  0  0  0  0  0
  152.0759  141.4673  158.8070 C   0  0  0  0  0  0  0  0  0  0  0  0
  151.9731  142.8984  159.3076 C   0  0  0  0  0  0  0  0  0  0  0  0
  151.9922  143.9824  158.4033 C   0  0  0  0  0  0  0  0  0  0  0  0
  151.8770  145.2879  158.9185 C   0  0  0  0  0  0  0  0  0  0  0  0
  151.7492  145.4587  160.3104 C   0  0  0  0  0  0  0  0  0  0  0  0
  151.7406  144.3115  161.1287 C   0  0  0  0  0  0  0  0  0  0  0  0
  151.8483  143.0553  160.6445 N   0  0  0  0  0  0  0  0  0  0  0  0
  151.1198  137.3738  154.4059 C   0  0  0  0  0  0  0  0  0  0  0  0
  150.0897  136.3484  154.9572 C   0  0  0  0  0  0  0  0  0  0  0  0
  150.5036  131.5421  154.8662 H   0  0  0  0  0  0  0  0  0  0  0  0
  151.3316  133.1168  154.8433 H   0  0  0  0  0  0  0  0  0  0  0  0
  149.6592  132.9815  154.2487 H   0  0  0  0  0  0  0  0  0  0  0  0
  151.4016  134.7266  155.4638 H   0  0  0  0  0  0  0  0  0  0  0  0
  150.7825  136.7248  157.6923 H   0  0  0  0  0  0  0  0  0  0  0  0
  152.0422  135.5187  157.6995 H   0  0  0  0  0  0  0  0  0  0  0  0
  152.9943  137.7305  157.2141 H   0  0  0  0  0  0  0  0  0  0  0  0
  153.2387  136.7069  155.8483 H   0  0  0  0  0  0  0  0  0  0  0  0
  152.3869  139.2964  157.5044 H   0  0  0  0  0  0  0  0  0  0  0  0
  152.6162  141.9158  156.7563 H   0  0  0  0  0  0  0  0  0  0  0  0
  150.8895  141.7457  157.0167 H   0  0  0  0  0  0  0  0  0  0  0  0
  151.3467  140.8520  159.3355 H   0  0  0  0  0  0  0  0  0  0  0  0
  153.0554  141.0682  159.0739 H   0  0  0  0  0  0  0  0  0  0  0  0
  152.0862  143.8189  157.3395 H   0  0  0  0  0  0  0  0  0  0  0  0
  151.8851  146.1423  158.2577 H   0  0  0  0  0  0  0  0  0  0  0  0
  151.6593  146.4450  160.7411 H   0  0  0  0  0  0  0  0  0  0  0  0
  151.6436  144.4054  162.2001 H   0  0  0  0  0  0  0  0  0  0  0  0
  150.6205  138.0226  153.6853 H   0  0  0  0  0  0  0  0  0  0  0  0
  151.9040  136.8689  153.8379 H   0  0  0  0  0  0  0  0  0  0  0  0
  149.6556  135.7873  154.1288 H   0  0  0  0  0  0  0  0  0  0  0  0
  149.2661  136.9007  155.4131 H   0  0  0  0  0  0  0  0  0  0  0  0
  1  2  1  0  0  0  0
  1 23  1  0  0  0  0
  1 24  1  0  0  0  0
  1 25  1  0  0  0  0
  2  3  2  0  0  0  0
  2  4  2  0  0  0  0
  2  5  1  0  0  0  0
  5  6  1  0  0  0  0
  6 22  1  0  0  0  0
  6  7  1  0  0  0  0
  6 26  1  0  0  0  0
  7  8  1  0  0  0  0
  7 27  1  0  0  0  0
  7 28  1  0  0  0  0
  8  9  1  0  0  0  0
  8 29  1  0  0  0  0
  8 30  1  0  0  0  0
  9 10  1  0  0  0  0
  9 21  1  0  0  0  0
 10 11  2  0  0  0  0
 10 12  1  0  0  0  0
 12 13  1  0  0  0  0
 12 31  1  0  0  0  0
 13 14  1  0  0  0  0
 13 32  1  0  0  0  0
 13 33  1  0  0  0  0
 14 15  1  0  0  0  0
 14 34  1  0  0  0  0
 14 35  1  0  0  0  0
 15 20  1  0  0  0  0
 15 16  2  0  0  0  0
 16 17  1  0  0  0  0
 16 36  1  0  0  0  0
 17 18  2  0  0  0  0
 17 37  1  0  0  0  0
 18 19  1  0  0  0  0
 18 38  1  0  0  0  0
 19 20  2  0  0  0  0
 19 39  1  0  0  0  0
 21 22  1  0  0  0  0
 21 40  1  0  0  0  0
 21 41  1  0  0  0  0
 22 42  1  0  0  0  0
 22 43  1  0  0  0  0
M  CHG  1   5  -1
M  END
> <s_m_source_file>
AV-unprocessed.smi

> <i_m_source_file_index>
1629

> <i_lp_mmshare_version>
43012

> <i_f3d_flags>
0

> <s_epik_input>
W0NIM11TKD1PKSg9TylbTkhdW0NIXTFbQ0gyXVtDSDJdTihbQ0gyXVtDSDJdMSlDKD1PKVtOSF1bQ0gyXVtDSDJdYzJbY0hdW2NIXVtjSF1bY0hdbjI=

> <s_epik_cmdline>
J2VwaWtfcHl0aG9uJywgJy1waCcsICc3LjAnLCAnLXRuJywgJzgnLCAnLW1hJywgJzIwMCcsICctbWV0YWxfYmluZGluZycsICctaW1hZScsICc8aW5maWxlLm1hZT4nLCAnLW9tYWUnLCAnPG91dGZpbGUubWFlPic=

> <r_epik_Ionization_Penalty>
6.75298

> <r_epik_Ionization_Penalty_Charging>
6.70803

> <r_epik_Ionization_Penalty_Neutral>
0.0449518

> <r_epik_State_Penalty>
6.74601

> <r_epik_Charging_Adjusted_Penalty>
13.454

> <i_epik_Tot_Q>
-1

> <i_epik_Tot_abs_Q>
1

> <r_epik_Metal_State_Penalty>
2.70902

> <b_epik_Metal_Only>
1

> <s_lp_Force_Field>
OPLS_2005

> <r_lp_Energy>
26.8071

> <b_lp_Chiralities_Consistent>
1

> <s_lp_Variant>
AV-unprocessed.smi:1629-3

> <Gold.Version>
5.8.1

> <Gold.Id.Protein>
6NUR|6NUR_protein|mol2

> <Gold.PLP.Fitness>
45.7715

> <Gold.PLP.PLP>
-40.6926

> <Gold.PLP.part.hbond>
-2.0000

> <Gold.PLP.part.metal>
0.0000

> <Gold.PLP.part.buried>
-5.7286

> <Gold.PLP.part.nonpolar>
-33.0384

> <Gold.PLP.part.repulsive>
0.2478

> <Gold.PLP.ligand.clash>
0.0000

> <Gold.PLP.ligand.torsion>
0.9568

> <Gold.PLP.Chemscore.Hbond>
2.0000

> <Gold.PLP.Chemscore.CHOScore>
0.0000

> <Gold.PLP.Chemscore.Metal>
0.0000

> <Gold.Chemscore.Hbonds>
donor molecule, donor type, donor heavy atom, donor atom, acceptor molecule, acceptor atom, score
      P1  H  6896  6909       L1     4  1.00
      P1  H  7989  7998       L1    11  1.00

> <Gold.PLP.Chemscore.Internal.Correction>
0.9925

> <Gold.Rescore>
     Score         DG    S(hbond)    S(metal)    S(lipo)     H(rot)  DE(clash)    DE(int)     intcor
     19.47     -20.52       1.99        0.00     108.52       1.68       0.19       0.86       ----

> <Gold.Chemscore.Fitness>
19.4673

> <Gold.Chemscore.DG>
-20.5158

> <Gold.Chemscore.ZeroCoef>
-5.4800

> <Gold.Chemscore.Hbond>
1.9890

> <Gold.Chemscore.Metal>
0.0000

> <Gold.Chemscore.Lipo>
108.5201

> <Gold.Chemscore.Internal_Hbond>
0.0000

> <Gold.Chemscore.DEClash>
0.1898

> <Gold.Chemscore.DEInternal>
0.8586

> <Gold.Chemscore.Rot>
1.6813

> <Gold.Chemscore.Internal.Correction>
   9.000000E+99

> <Gold.Chemscore.Hbonds>
donor molecule, donor type, donor heavy atom, donor atom, acceptor molecule, acceptor atom, score
      P1  H  6896  6909       L1     4  1.00
      P1  H  7989  7998       L1    11  0.99

> <Gold.Chemscore.Hbond.Weighted>
-6.6431

> <Gold.Chemscore.Metal.Weighted>
-0.0000

> <Gold.Chemscore.Lipo.Weighted>
-12.6968

> <Gold.Chemscore.Internal_Hbond.Weighted>
0.0000

> <Gold.Chemscore.DEClash.Weighted>
0.1898

> <Gold.Chemscore.DEInternal.Weighted>
0.8586

> <Gold.Chemscore.Rot.Weighted>
4.3042

> <Gold.Chemscore.Internal.Correction.Weighted>
   9.000000E+99

> <Gold.Protein.RotatedTorsions>
[ 6907 6896 6895 6894 ] final  -39.79 input  -60.11 | X-H torsion
[ 7974 7965 7964 7962 ] final -143.61 input  175.53 | X-H torsion
[ 8008 7997 7996 7995 ] final  132.98 input   59.86 | X-H torsion
[ 10167 10162 10161 10158 ] final   78.45 input  -65.29 | X-H torsion
[ 10718 10713 10712 10709 ] final -178.98 input   66.30 | X-H torsion
[ 10763 10752 10751 10750 ] final -169.67 input  -60.55 | X-H torsion
[ 11005 11000 10999 10996 ] final   -3.27 input  -57.11 | X-H torsion

> <Gold.Protein.ActiveResidues>
 VAL166  LYS551  ARG553  GLY616  TRP617  ASP618  TYR619  PRO620  LYS621  CYS622 
 ASP623  PHE694  ASN695  SER759  ASP760  ASP761  ALA762  ILE779  LEU786  VAL792 
 PHE793  MET794  SER795  GLU796  ALA797  LYS798  CYS799  TRP800  GLU811  SER814 

> <Gold.Protein.RotatedAtoms>
  150.9861  134.9206  159.7872 H   0  0  0  0  0  0  0  0  0  0  0  0  # atno 6907 bound_to 6896
  152.5237  134.3345  159.9205 H   0  0  0  0  0  0  0  0  0  0  0  0  # atno 6908 bound_to 6896
  151.3351  133.3943  159.2700 H   0  0  0  0  0  0  0  0  0  0  0  0  # atno 6909 bound_to 6896
  144.8357  140.5813  143.5485 H   0  0  0  0  0  0  0  0  0  0  0  0  # atno 7974 bound_to 7965
  156.2988  140.2533  156.3178 H   0  0  0  0  0  0  0  0  0  0  0  0  # atno 8008 bound_to 7997
  154.9264  140.0399  157.2044 H   0  0  0  0  0  0  0  0  0  0  0  0  # atno 8009 bound_to 7997
  154.8261  140.2868  155.5758 H   0  0  0  0  0  0  0  0  0  0  0  0  # atno 8010 bound_to 7997
  139.9708  144.5895  150.7987 H   0  0  0  0  0  0  0  0  0  0  0  0  # atno 10167 bound_to 10162
  156.8524  130.9723  151.3091 H   0  0  0  0  0  0  0  0  0  0  0  0  # atno 10718 bound_to 10713
  154.6498  135.2910  155.0001 H   0  0  0  0  0  0  0  0  0  0  0  0  # atno 10763 bound_to 10752
  154.1097  135.6564  153.4887 H   0  0  0  0  0  0  0  0  0  0  0  0  # atno 10764 bound_to 10752
  153.0370  135.5262  154.7401 H   0  0  0  0  0  0  0  0  0  0  0  0  # atno 10765 bound_to 10752
  140.6675  133.9266  155.8474 H   0  0  0  0  0  0  0  0  0  0  0  0  # atno 11005 bound_to 11000
  145.4800  139.1496  143.3767 LP  0  0  0  0  0  0  0  0  0  0  0  0  # atno 17320 bound_to 7965
  146.2656  140.4936  142.8835 LP  0  0  0  0  0  0  0  0  0  0  0  0  # atno 17321 bound_to 7965
  140.7522  143.2986  151.3138 LP  0  0  0  0  0  0  0  0  0  0  0  0  # atno 17342 bound_to 10162
  139.6482  144.0411  152.2607 LP  0  0  0  0  0  0  0  0  0  0  0  0  # atno 17343 bound_to 10162
  157.6296  130.8719  149.9250 LP  0  0  0  0  0  0  0  0  0  0  0  0  # atno 17370 bound_to 10713
  156.0821  130.3672  150.0560 LP  0  0  0  0  0  0  0  0  0  0  0  0  # atno 17371 bound_to 10713
  141.0418  134.0611  157.3893 LP  0  0  0  0  0  0  0  0  0  0  0  0  # atno 17394 bound_to 11000
  139.8992  135.0158  156.7186 LP  0  0  0  0  0  0  0  0  0  0  0  0  # atno 17395 bound_to 11000

$$$$
