AV-unprocessed.smi:72|AV-procd|sdf|757|dock2
  -GOLD-   2262017 93D 1   1.00000     0.00000
 Structure written by MMmdl.
 29 30  0  0  0  0  0  0  0  0  1 V2000
  154.3231  138.8021  153.9489 N   0  0  0  0  0  0  0  0  0  0  0  0
  152.9753  138.9239  154.2136 C   0  0  0  0  0  0  0  0  0  0  0  0
  152.1400  137.9493  153.6509 N   0  0  0  0  0  0  0  0  0  0  0  0
  150.8727  138.0587  153.8961 C   0  0  0  0  0  0  0  0  0  0  0  0
  150.3537  139.1416  154.7152 N   0  0  0  0  0  0  0  0  0  0  0  0
  148.8735  139.2987  155.0162 C   0  0  2  0  0  0  0  0  0  0  0  0
  148.1616  138.2125  154.4944 O   0  0  0  0  0  0  0  0  0  0  0  0
  147.3821  138.6244  153.3742 C   0  0  1  0  0  0  0  0  0  0  0  0
  146.1919  137.6701  153.1920 C   0  0  0  0  0  0  0  0  0  0  0  0
  146.6274  136.4597  152.6100 O   0  0  0  0  0  0  0  0  0  0  0  0
  146.9793  140.0410  153.7819 C   0  0  2  0  0  0  0  0  0  0  0  0
  146.5091  140.8202  152.6977 O   0  0  0  0  0  0  0  0  0  0  0  0
  148.2583  140.5841  154.4124 C   0  0  2  0  0  0  0  0  0  0  0  0
  149.0945  141.2232  153.4589 O   0  0  0  0  0  0  0  0  0  0  0  0
  151.2599  140.0975  155.2508 C   0  0  0  0  0  0  0  0  0  0  0  0
  150.8391  141.0306  155.9349 O   0  0  0  0  0  0  0  0  0  0  0  0
  152.6184  139.9312  154.9575 N   0  0  0  0  0  0  0  0  0  0  0  0
  148.7881  139.2493  156.1030 H   0  0  0  0  0  0  0  0  0  0  0  0
  148.0016  138.6627  152.4759 H   0  0  0  0  0  0  0  0  0  0  0  0
  146.2006  139.9913  154.5447 H   0  0  0  0  0  0  0  0  0  0  0  0
  148.0409  141.2945  155.2105 H   0  0  0  0  0  0  0  0  0  0  0  0
  155.0168  139.4456  154.3007 H   0  0  0  0  0  0  0  0  0  0  0  0
  154.7155  138.0603  153.3879 H   0  0  0  0  0  0  0  0  0  0  0  0
  150.1339  137.3574  153.5084 H   0  0  0  0  0  0  0  0  0  0  0  0
  145.6883  137.4770  154.1397 H   0  0  0  0  0  0  0  0  0  0  0  0
  145.4567  138.1103  152.5178 H   0  0  0  0  0  0  0  0  0  0  0  0
  147.5317  136.5571  152.3538 H   0  0  0  0  0  0  0  0  0  0  0  0
  145.5710  140.7206  152.6423 H   0  0  0  0  0  0  0  0  0  0  0  0
  149.0638  140.7284  152.6543 H   0  0  0  0  0  0  0  0  0  0  0  0
  1  2  1  0  0  0  0
  1 22  1  0  0  0  0
  1 23  1  0  0  0  0
  2 17  2  0  0  0  0
  2  3  1  0  0  0  0
  3  4  2  0  0  0  0
  4  5  1  0  0  0  0
  4 24  1  0  0  0  0
  5  6  1  0  0  0  0
  5 15  1  0  0  0  0
  6 18  1  0  0  0  0
  6 13  1  0  0  0  0
  6  7  1  0  0  0  0
  7  8  1  0  0  0  0
  8 19  1  0  0  0  0
  8  9  1  0  0  0  0
  8 11  1  0  0  0  0
  9 10  1  0  0  0  0
  9 25  1  0  0  0  0
  9 26  1  0  0  0  0
 10 27  1  0  0  0  0
 11 20  1  0  0  0  0
 11 12  1  0  0  0  0
 11 13  1  0  0  0  0
 12 28  1  0  0  0  0
 13 21  1  0  0  0  0
 13 14  1  0  0  0  0
 14 29  1  0  0  0  0
 15 16  2  0  0  0  0
 15 17  1  0  0  0  0
M  END
> <s_m_source_file>
AV-unprocessed.smi

> <i_m_source_file_index>
72

> <i_lp_mmshare_version>
43012

> <i_f3d_flags>
0

> <s_epik_input>
W05IMl1jMW5bY0hdbihjKD1PKW4xKVtDQEBIXTJPW0NASF0oW0NIMl1bT0hdKVtDQEBIXShbT0hdKVtDQEhdMltPSF0=

> <s_epik_cmdline>
J2VwaWtfcHl0aG9uJywgJy1waCcsICc3LjAnLCAnLXRuJywgJzgnLCAnLW1hJywgJzIwMCcsICctbWV0YWxfYmluZGluZycsICctaW1hZScsICc8aW5maWxlLm1hZT4nLCAnLW9tYWUnLCAnPG91dGZpbGUubWFlPic=

> <r_lp_tautomer_probability>
4.77166e-05

> <r_epik_Ionization_Penalty>
1.3546

> <r_epik_Ionization_Penalty_Charging>
1.46833e-10

> <r_epik_Ionization_Penalty_Neutral>
1.3546

> <r_epik_State_Penalty>
3.51908

> <r_epik_Charging_Adjusted_Penalty>
3.51908

> <i_epik_Tot_Q>
0

> <i_epik_Tot_abs_Q>
0

> <r_epik_Metal_State_Penalty>
3.44088

> <b_epik_Metal_Only>
1

> <s_epik_Chemistry_Notes>
This compound contains an acetal/aminal-like group ( X-CH(R)-Y where X, Y are N, S, or O) that may be acid/base labile, releasing an aldehyde.

> <s_lp_Force_Field>
OPLS_2005

> <r_lp_Energy>
34.5765

> <b_lp_Chiralities_Consistent>
1

> <s_lp_Variant>
AV-unprocessed.smi:72-95

> <Gold.Version>
5.8.1

> <Gold.Id.Protein>
6NUR|6NUR_protein|mol2

> <Gold.PLP.Fitness>
44.8303

> <Gold.PLP.PLP>
-26.5609

> <Gold.PLP.part.hbond>
-8.1650

> <Gold.PLP.part.metal>
0.0000

> <Gold.PLP.part.buried>
-3.9838

> <Gold.PLP.part.nonpolar>
-17.3162

> <Gold.PLP.part.repulsive>
1.0470

> <Gold.PLP.ligand.clash>
0.0000

> <Gold.PLP.ligand.torsion>
0.1362

> <Gold.PLP.Chemscore.Hbond>
5.1826

> <Gold.PLP.Chemscore.CHOScore>
0.9766

> <Gold.PLP.Chemscore.Metal>
0.0000

> <Gold.Chemscore.Hbonds>
donor molecule, donor type, donor heavy atom, donor atom, acceptor molecule, acceptor atom, score
      L1  H    10    27       P1  7948  0.99
      L1  H    12    28       P1 10175  1.00
      L1  H    14    29       P1  7957  1.00
      P1  H  7997  8009       L1    17  0.48
      L1  C     4    24       P1  7948  1.00
      L1  C     4    24       P1  7949  0.06

> <Gold.PLP.Chemscore.Internal.Correction>
0.0641

> <Gold.Rescore>
     Score         DG    S(hbond)    S(metal)    S(lipo)     H(rot)  DE(clash)    DE(int)     intcor
      7.32      -9.29       3.43        0.00      23.48       4.06       1.64       0.33       ----

> <Gold.Chemscore.Fitness>
7.3165

> <Gold.Chemscore.DG>
-9.2879

> <Gold.Chemscore.ZeroCoef>
-5.4800

> <Gold.Chemscore.Hbond>
3.4293

> <Gold.Chemscore.Metal>
0.0000

> <Gold.Chemscore.Lipo>
23.4850

> <Gold.Chemscore.Internal_Hbond>
0.0000

> <Gold.Chemscore.DEClash>
1.6407

> <Gold.Chemscore.DEInternal>
0.3308

> <Gold.Chemscore.Rot>
4.0600

> <Gold.Chemscore.Internal.Correction>
   9.000000E+99

> <Gold.Chemscore.Hbonds>
donor molecule, donor type, donor heavy atom, donor atom, acceptor molecule, acceptor atom, score
      L1  H    10    27       P1  7948  0.92
      L1  H    12    28       P1 10175  0.35
      L1  H    14    29       P1  7957  0.99
      P1  H  7997  8009       L1    17  0.16
      P1  H 10752 10765       L1     3  0.04

> <Gold.Chemscore.Hbond.Weighted>
-11.4538

> <Gold.Chemscore.Metal.Weighted>
-0.0000

> <Gold.Chemscore.Lipo.Weighted>
-2.7477

> <Gold.Chemscore.Internal_Hbond.Weighted>
0.0000

> <Gold.Chemscore.DEClash.Weighted>
1.6407

> <Gold.Chemscore.DEInternal.Weighted>
0.3308

> <Gold.Chemscore.Rot.Weighted>
10.3936

> <Gold.Chemscore.Internal.Correction.Weighted>
   9.000000E+99

> <Gold.Protein.RotatedTorsions>
[ 6907 6896 6895 6894 ] final  -33.38 input  -60.11 | X-H torsion
[ 7974 7965 7964 7962 ] final   25.30 input  175.53 | X-H torsion
[ 8008 7997 7996 7995 ] final -163.63 input   59.86 | X-H torsion
[ 10167 10162 10161 10158 ] final  -89.97 input  -65.29 | X-H torsion
[ 10718 10713 10712 10709 ] final   30.41 input   66.30 | X-H torsion
[ 10763 10752 10751 10750 ] final  148.26 input  -60.55 | X-H torsion
[ 11005 11000 10999 10996 ] final  -79.88 input  -57.11 | X-H torsion

> <Gold.Protein.ActiveResidues>
 VAL166  LYS551  ARG553  GLY616  TRP617  ASP618  TYR619  PRO620  LYS621  CYS622 
 ASP623  PHE694  ASN695  SER759  ASP760  ASP761  ALA762  ILE779  LEU786  VAL792 
 PHE793  MET794  SER795  GLU796  ALA797  LYS798  CYS799  TRP800  GLU811  SER814 

> <Gold.Protein.RotatedAtoms>
  151.0664  134.9770  159.8286 H   0  0  0  0  0  0  0  0  0  0  0  0  # atno 6907 bound_to 6896
  152.5402  134.2354  159.8851 H   0  0  0  0  0  0  0  0  0  0  0  0  # atno 6908 bound_to 6896
  151.2376  133.4373  159.2640 H   0  0  0  0  0  0  0  0  0  0  0  0  # atno 6909 bound_to 6896
  146.1895  139.7485  142.8842 H   0  0  0  0  0  0  0  0  0  0  0  0  # atno 7974 bound_to 7965
  155.8241  140.0924  157.1832 H   0  0  0  0  0  0  0  0  0  0  0  0  # atno 8008 bound_to 7997
  154.3979  140.1431  156.3595 H   0  0  0  0  0  0  0  0  0  0  0  0  # atno 8009 bound_to 7997
  155.8235  140.3445  155.5531 H   0  0  0  0  0  0  0  0  0  0  0  0  # atno 8010 bound_to 7997
  140.3595  143.2849  151.9631 H   0  0  0  0  0  0  0  0  0  0  0  0  # atno 10167 bound_to 10162
  157.2592  130.7153  149.6445 H   0  0  0  0  0  0  0  0  0  0  0  0  # atno 10718 bound_to 10713
  154.0519  135.2881  155.3339 H   0  0  0  0  0  0  0  0  0  0  0  0  # atno 10763 bound_to 10752
  154.6863  135.5244  153.8335 H   0  0  0  0  0  0  0  0  0  0  0  0  # atno 10764 bound_to 10752
  153.0557  135.6594  154.0715 H   0  0  0  0  0  0  0  0  0  0  0  0  # atno 10765 bound_to 10752
  141.1668  133.7125  156.8189 H   0  0  0  0  0  0  0  0  0  0  0  0  # atno 11005 bound_to 11000
  145.3835  141.0362  143.3164 LP  0  0  0  0  0  0  0  0  0  0  0  0  # atno 17320 bound_to 7965
  144.8460  139.5396  143.6878 LP  0  0  0  0  0  0  0  0  0  0  0  0  # atno 17321 bound_to 7965
  139.4816  144.6005  151.7614 LP  0  0  0  0  0  0  0  0  0  0  0  0  # atno 17342 bound_to 10162
  140.5141  144.0980  150.6003 LP  0  0  0  0  0  0  0  0  0  0  0  0  # atno 17343 bound_to 10162
  155.9664  130.4403  150.5293 LP  0  0  0  0  0  0  0  0  0  0  0  0  # atno 17370 bound_to 10713
  157.3194  131.0679  151.1943 LP  0  0  0  0  0  0  0  0  0  0  0  0  # atno 17371 bound_to 10713
  140.2133  134.8811  157.3298 LP  0  0  0  0  0  0  0  0  0  0  0  0  # atno 17394 bound_to 11000
  140.2063  134.4192  155.7636 LP  0  0  0  0  0  0  0  0  0  0  0  0  # atno 17395 bound_to 11000

$$$$
