AV-unprocessed.smi:2083|AV-procd|sdf|8496|dock7
  -GOLD-   2272011203D 1   1.00000     0.00000
 Structure written by MMmdl.
 45 46  0  0  0  0  0  0  0  0  2 V2000
  151.9482  140.1132  156.2481 C   0  0  0  0  0  0  0  0  0  0  0  0
  150.8249  139.9076  155.2906 C   0  0  0  0  0  0  0  0  0  0  0  0
  150.3666  138.8110  154.6162 C   0  0  0  0  0  0  0  0  0  0  0  0
  149.2696  139.3262  153.8764 C   0  0  0  0  0  0  0  0  0  0  0  0
  148.5052  138.4855  153.0280 N   0  0  0  0  0  0  0  0  0  0  0  0
  147.1966  138.5877  152.7406 C   0  0  0  0  0  0  0  0  0  0  0  0
  146.4407  139.4600  153.1695 O   0  0  0  0  0  0  0  0  0  0  0  0
  146.7976  137.6093  151.9149 N   0  0  0  0  0  0  0  0  0  0  0  0
  145.4370  137.4508  151.4084 C   0  0  0  0  0  0  0  0  0  0  0  0
  144.5689  136.4945  152.2758 C   0  0  2  0  0  0  0  0  0  0  0  0
  144.7685  136.8100  153.7757 C   0  0  0  0  0  0  0  0  0  0  0  0
  144.8167  135.0357  152.0229 N   0  3  2  0  0  0  0  0  0  0  0  0
  146.1922  134.5455  152.3315 C   0  0  0  0  0  0  0  0  0  0  0  0
  146.3068  133.0221  152.1552 C   0  0  0  0  0  0  0  0  0  0  0  0
  145.8837  132.5878  150.7495 C   0  0  0  0  0  0  0  0  0  0  0  0
  144.4689  133.1028  150.4498 C   0  0  2  0  0  0  0  0  0  0  0  0
  144.0121  132.6969  149.0413 C   0  0  0  0  0  0  0  0  0  0  0  0
  144.4133  134.6307  150.6444 C   0  0  0  0  0  0  0  0  0  0  0  0
  149.0731  140.6195  154.0829 N   0  0  0  0  0  0  0  0  0  0  0  0
  150.0698  140.9989  154.9898 O   0  0  0  0  0  0  0  0  0  0  0  0
  152.3826  139.1601  156.5494 H   0  0  0  0  0  0  0  0  0  0  0  0
  151.6033  140.6262  157.1459 H   0  0  0  0  0  0  0  0  0  0  0  0
  152.7356  140.7151  155.7947 H   0  0  0  0  0  0  0  0  0  0  0  0
  150.7568  137.8045  154.6482 H   0  0  0  0  0  0  0  0  0  0  0  0
  149.0100  137.7264  152.5951 H   0  0  0  0  0  0  0  0  0  0  0  0
  147.4821  136.9327  151.6090 H   0  0  0  0  0  0  0  0  0  0  0  0
  144.9984  138.4480  151.3515 H   0  0  0  0  0  0  0  0  0  0  0  0
  145.5032  137.0755  150.3866 H   0  0  0  0  0  0  0  0  0  0  0  0
  143.5262  136.6920  152.0216 H   0  0  0  0  0  0  0  0  0  0  0  0
  144.5372  137.8502  154.0049 H   0  0  0  0  0  0  0  0  0  0  0  0
  145.7999  136.6291  154.0794 H   0  0  0  0  0  0  0  0  0  0  0  0
  144.1274  136.2120  154.4208 H   0  0  0  0  0  0  0  0  0  0  0  0
  146.9160  135.0570  151.6946 H   0  0  0  0  0  0  0  0  0  0  0  0
  146.4584  134.7589  153.3659 H   0  0  0  0  0  0  0  0  0  0  0  0
  147.3308  132.7018  152.3502 H   0  0  0  0  0  0  0  0  0  0  0  0
  145.6815  132.5214  152.8954 H   0  0  0  0  0  0  0  0  0  0  0  0
  146.5899  132.9777  150.0147 H   0  0  0  0  0  0  0  0  0  0  0  0
  145.9178  131.5005  150.6706 H   0  0  0  0  0  0  0  0  0  0  0  0
  143.7807  132.6450  151.1623 H   0  0  0  0  0  0  0  0  0  0  0  0
  144.6577  133.1271  148.2750 H   0  0  0  0  0  0  0  0  0  0  0  0
  142.9937  133.0332  148.8459 H   0  0  0  0  0  0  0  0  0  0  0  0
  144.0289  131.6132  148.9205 H   0  0  0  0  0  0  0  0  0  0  0  0
  143.4018  134.9684  150.4257 H   0  0  0  0  0  0  0  0  0  0  0  0
  145.0646  135.1229  149.9199 H   0  0  0  0  0  0  0  0  0  0  0  0
  144.2085  134.5416  152.6599 H   0  0  0  0  0  0  0  0  0  0  0  0
  1  2  1  0  0  0  0
  1 21  1  0  0  0  0
  1 22  1  0  0  0  0
  1 23  1  0  0  0  0
  2 20  1  0  0  0  0
  2  3  2  0  0  0  0
  3  4  1  0  0  0  0
  3 24  1  0  0  0  0
  4  5  1  0  0  0  0
  4 19  2  0  0  0  0
  5  6  1  0  0  0  0
  5 25  1  0  0  0  0
  6  7  2  0  0  0  0
  6  8  1  0  0  0  0
  8  9  1  0  0  0  0
  8 26  1  0  0  0  0
  9 10  1  0  0  0  0
  9 27  1  0  0  0  0
  9 28  1  0  0  0  0
 10 11  1  0  0  0  0
 10 12  1  0  0  0  0
 10 29  1  0  0  0  0
 11 30  1  0  0  0  0
 11 31  1  0  0  0  0
 11 32  1  0  0  0  0
 12 18  1  0  0  0  0
 12 13  1  0  0  0  0
 12 45  1  0  0  0  0
 13 14  1  0  0  0  0
 13 33  1  0  0  0  0
 13 34  1  0  0  0  0
 14 15  1  0  0  0  0
 14 35  1  0  0  0  0
 14 36  1  0  0  0  0
 15 16  1  0  0  0  0
 15 37  1  0  0  0  0
 15 38  1  0  0  0  0
 16 17  1  0  0  0  0
 16 18  1  0  0  0  0
 16 39  1  0  0  0  0
 17 40  1  0  0  0  0
 17 41  1  0  0  0  0
 17 42  1  0  0  0  0
 18 43  1  0  0  0  0
 18 44  1  0  0  0  0
 19 20  1  0  0  0  0
M  CHG  1  12   1
M  END
> <s_m_source_file>
AV-unprocessed.smi

> <i_m_source_file_index>
2083

> <i_lp_mmshare_version>
43012

> <i_f3d_flags>
0

> <s_epik_input>
W0NIM11jMVtjSF1jKG5vMSlbTkhdQyg9TylbTkhdW0NIMl1bQ0BIXShbQ0gzXSlOMltDSDJdW0NIMl1bQ0gyXVtDQEBIXShbQ0gzXSlbQ0gyXTI=

> <s_epik_cmdline>
J2VwaWtfcHl0aG9uJywgJy1waCcsICc3LjAnLCAnLXRuJywgJzgnLCAnLW1hJywgJzIwMCcsICctbWV0YWxfYmluZGluZycsICctaW1hZScsICc8aW5maWxlLm1hZT4nLCAnLW9tYWUnLCAnPG91dGZpbGUubWFlPic=

> <r_epik_Ionization_Penalty>
0.00216453

> <r_epik_Ionization_Penalty_Charging>
0.00212879

> <r_epik_Ionization_Penalty_Neutral>
3.57418e-05

> <r_epik_State_Penalty>
0.00146033

> <r_epik_Charging_Adjusted_Penalty>
0.00358912

> <i_epik_Tot_Q>
1

> <i_epik_Tot_abs_Q>
1

> <r_epik_Metal_State_Penalty>
0.0215827

> <b_epik_Metal_Only>
0

> <s_lp_Force_Field>
OPLS_2005

> <r_lp_Energy>
18.748

> <b_lp_Chiralities_Consistent>
1

> <s_lp_Variant>
AV-unprocessed.smi:2083-7

> <Gold.Version>
5.8.1

> <Gold.Id.Protein>
6NUR|6NUR_protein|mol2

> <Gold.PLP.Fitness>
36.9052

> <Gold.PLP.PLP>
-32.0283

> <Gold.PLP.part.hbond>
-4.0000

> <Gold.PLP.part.metal>
0.0000

> <Gold.PLP.part.buried>
2.6146

> <Gold.PLP.part.nonpolar>
-31.5420

> <Gold.PLP.part.repulsive>
1.8411

> <Gold.PLP.ligand.clash>
0.0000

> <Gold.PLP.ligand.torsion>
0.5688

> <Gold.PLP.Chemscore.Hbond>
1.9840

> <Gold.PLP.Chemscore.CHOScore>
0.0000

> <Gold.PLP.Chemscore.Metal>
0.0000

> <Gold.Chemscore.Hbonds>
donor molecule, donor type, donor heavy atom, donor atom, acceptor molecule, acceptor atom, score
      L1  H     5    25       P1  7948  0.99
      L1  H     8    26       P1  7948  0.98

> <Gold.PLP.Chemscore.Internal.Correction>
0.0623

> <Gold.Rescore>
     Score         DG    S(hbond)    S(metal)    S(lipo)     H(rot)  DE(clash)    DE(int)     intcor
     14.19     -16.34       1.90        0.00      72.31       1.55       1.43       0.72       ----

> <Gold.Chemscore.Fitness>
14.1868

> <Gold.Chemscore.DG>
-16.3401

> <Gold.Chemscore.ZeroCoef>
-5.4800

> <Gold.Chemscore.Hbond>
1.9046

> <Gold.Chemscore.Metal>
0.0000

> <Gold.Chemscore.Lipo>
72.3069

> <Gold.Chemscore.Internal_Hbond>
0.0000

> <Gold.Chemscore.DEClash>
1.4298

> <Gold.Chemscore.DEInternal>
0.7235

> <Gold.Chemscore.Rot>
1.5474

> <Gold.Chemscore.Internal.Correction>
   9.000000E+99

> <Gold.Chemscore.Hbonds>
donor molecule, donor type, donor heavy atom, donor atom, acceptor molecule, acceptor atom, score
      L1  H     5    25       P1  7948  0.93
      L1  H     8    26       P1  7948  0.93

> <Gold.Chemscore.Hbond.Weighted>
-6.3614

> <Gold.Chemscore.Metal.Weighted>
-0.0000

> <Gold.Chemscore.Lipo.Weighted>
-8.4599

> <Gold.Chemscore.Internal_Hbond.Weighted>
0.0000

> <Gold.Chemscore.DEClash.Weighted>
1.4298

> <Gold.Chemscore.DEInternal.Weighted>
0.7235

> <Gold.Chemscore.Rot.Weighted>
3.9612

> <Gold.Chemscore.Internal.Correction.Weighted>
   9.000000E+99

> <Gold.Protein.RotatedTorsions>
[ 6907 6896 6895 6894 ] final -109.68 input  -60.11 | X-H torsion
[ 7974 7965 7964 7962 ] final  -34.99 input  175.53 | X-H torsion
[ 8008 7997 7996 7995 ] final  -10.63 input   59.86 | X-H torsion
[ 10167 10162 10161 10158 ] final  -77.24 input  -65.29 | X-H torsion
[ 10718 10713 10712 10709 ] final   20.35 input   66.30 | X-H torsion
[ 10763 10752 10751 10750 ] final  105.77 input  -60.55 | X-H torsion
[ 11005 11000 10999 10996 ] final  178.57 input  -57.11 | X-H torsion

> <Gold.Protein.ActiveResidues>
 VAL166  LYS551  ARG553  GLY616  TRP617  ASP618  TYR619  PRO620  LYS621  CYS622 
 ASP623  PHE694  ASN695  SER759  ASP760  ASP761  ALA762  ILE779  LEU786  VAL792 
 PHE793  MET794  SER795  GLU796  ALA797  LYS798  CYS799  TRP800  GLU811  SER814 

> <Gold.Protein.RotatedAtoms>
  150.7577  133.9493  159.3480 H   0  0  0  0  0  0  0  0  0  0  0  0  # atno 6907 bound_to 6896
  151.7408  135.0852  160.0325 H   0  0  0  0  0  0  0  0  0  0  0  0  # atno 6908 bound_to 6896
  152.3529  133.6165  159.5994 H   0  0  0  0  0  0  0  0  0  0  0  0  # atno 6909 bound_to 6896
  146.0784  140.6105  142.8920 H   0  0  0  0  0  0  0  0  0  0  0  0  # atno 7974 bound_to 7965
  154.5537  140.2324  155.8444 H   0  0  0  0  0  0  0  0  0  0  0  0  # atno 8008 bound_to 7997
  156.1969  140.3062  155.9407 H   0  0  0  0  0  0  0  0  0  0  0  0  # atno 8009 bound_to 7997
  155.3021  140.0431  157.3020 H   0  0  0  0  0  0  0  0  0  0  0  0  # atno 8010 bound_to 7997
  140.4787  143.2407  151.8092 H   0  0  0  0  0  0  0  0  0  0  0  0  # atno 10167 bound_to 10162
  157.1233  130.6559  149.5930 H   0  0  0  0  0  0  0  0  0  0  0  0  # atno 10718 bound_to 10713
  153.3838  135.3899  155.1876 H   0  0  0  0  0  0  0  0  0  0  0  0  # atno 10763 bound_to 10752
  154.8711  135.3732  154.4823 H   0  0  0  0  0  0  0  0  0  0  0  0  # atno 10764 bound_to 10752
  153.5303  135.7086  153.5748 H   0  0  0  0  0  0  0  0  0  0  0  0  # atno 10765 bound_to 10752
  140.3966  134.6815  157.4538 H   0  0  0  0  0  0  0  0  0  0  0  0  # atno 11005 bound_to 11000
  144.7277  140.4575  143.6961 LP  0  0  0  0  0  0  0  0  0  0  0  0  # atno 17320 bound_to 7965
  145.6264  139.1530  143.2994 LP  0  0  0  0  0  0  0  0  0  0  0  0  # atno 17321 bound_to 7965
  139.4830  144.4800  151.9318 LP  0  0  0  0  0  0  0  0  0  0  0  0  # atno 17342 bound_to 10162
  140.3885  144.2645  150.5902 LP  0  0  0  0  0  0  0  0  0  0  0  0  # atno 17343 bound_to 10162
  155.9824  130.4837  150.6877 LP  0  0  0  0  0  0  0  0  0  0  0  0  # atno 17370 bound_to 10713
  157.4457  131.0866  151.0898 LP  0  0  0  0  0  0  0  0  0  0  0  0  # atno 17371 bound_to 10713
  140.0367  134.6326  155.9034 LP  0  0  0  0  0  0  0  0  0  0  0  0  # atno 17394 bound_to 11000
  141.1872  133.6559  156.5271 LP  0  0  0  0  0  0  0  0  0  0  0  0  # atno 17395 bound_to 11000

$$$$
