AV-unprocessed.smi:940|AV-procd|sdf|4219|dock4
  -GOLD-   22720 2133D 1   1.00000     0.00000
 Structure written by MMmdl.
 36 36  0  0  0  0  0  0  0  0  1 V2000
  147.9945  141.9491  154.7342 C   0  0  0  0  0  0  0  0  0  0  0  0
  148.4996  141.8175  156.1768 C   0  0  0  0  0  0  0  0  0  0  0  0
  149.4731  142.8536  156.5001 N   0  0  0  0  0  0  0  0  0  0  0  0
  150.7079  142.6305  156.9780 C   0  0  0  0  0  0  0  0  0  0  0  0
  151.1602  141.5059  157.1905 O   0  0  0  0  0  0  0  0  0  0  0  0
  151.5679  143.8651  157.2544 C   0  0  0  0  0  0  0  0  0  0  0  0
  152.1667  143.8042  158.5758 N   0  0  0  0  0  0  0  0  0  0  0  0
  152.2250  144.7943  159.5362 C   0  0  0  0  0  0  0  0  0  0  0  0
  152.8752  144.2783  160.6205 C   0  0  0  0  0  0  0  0  0  0  0  0
  153.1755  142.9425  160.2163 C   0  0  0  0  0  0  0  0  0  0  0  0
  153.8622  141.9698  160.9877 N   0  0  0  0  0  0  0  0  0  0  0  0
  154.4251  140.8192  160.5767 C   0  0  0  0  0  0  0  0  0  0  0  0
  154.4475  140.4255  159.4110 O   0  0  0  0  0  0  0  0  0  0  0  0
  155.0806  139.9719  161.6664 C   0  0  0  0  0  0  0  0  0  0  0  0
  154.2905  138.8129  161.8768 O   0  0  0  0  0  0  0  0  0  0  0  0
  154.7115  138.0579  162.9998 C   0  0  0  0  0  0  0  0  0  0  0  0
  153.5729  137.1283  163.4256 C   0  0  0  0  0  0  0  0  0  0  0  0
  152.7581  142.6632  158.9936 N   0  0  0  0  0  0  0  0  0  0  0  0
  147.2489  141.1848  154.5143 H   0  0  0  0  0  0  0  0  0  0  0  0
  148.8073  141.8337  154.0166 H   0  0  0  0  0  0  0  0  0  0  0  0
  147.5325  142.9222  154.5654 H   0  0  0  0  0  0  0  0  0  0  0  0
  147.6624  141.9094  156.8690 H   0  0  0  0  0  0  0  0  0  0  0  0
  148.9298  140.8280  156.3405 H   0  0  0  0  0  0  0  0  0  0  0  0
  149.1862  143.8103  156.3535 H   0  0  0  0  0  0  0  0  0  0  0  0
  152.3563  143.9492  156.5046 H   0  0  0  0  0  0  0  0  0  0  0  0
  150.9596  144.7675  157.1822 H   0  0  0  0  0  0  0  0  0  0  0  0
  151.8024  145.7741  159.3697 H   0  0  0  0  0  0  0  0  0  0  0  0
  153.0935  144.7900  161.5456 H   0  0  0  0  0  0  0  0  0  0  0  0
  153.9450  142.1797  161.9718 H   0  0  0  0  0  0  0  0  0  0  0  0
  156.0859  139.6962  161.3440 H   0  0  0  0  0  0  0  0  0  0  0  0
  155.1703  140.5407  162.5937 H   0  0  0  0  0  0  0  0  0  0  0  0
  155.5964  137.4716  162.7480 H   0  0  0  0  0  0  0  0  0  0  0  0
  154.9776  138.7225  163.8230 H   0  0  0  0  0  0  0  0  0  0  0  0
  153.8614  136.5288  164.2890 H   0  0  0  0  0  0  0  0  0  0  0  0
  153.3031  136.4459  162.6190 H   0  0  0  0  0  0  0  0  0  0  0  0
  152.6829  137.6974  163.6949 H   0  0  0  0  0  0  0  0  0  0  0  0
  1  2  1  0  0  0  0
  1 19  1  0  0  0  0
  1 20  1  0  0  0  0
  1 21  1  0  0  0  0
  2  3  1  0  0  0  0
  2 22  1  0  0  0  0
  2 23  1  0  0  0  0
  3  4  1  0  0  0  0
  3 24  1  0  0  0  0
  4  5  2  0  0  0  0
  4  6  1  0  0  0  0
  6  7  1  0  0  0  0
  6 25  1  0  0  0  0
  6 26  1  0  0  0  0
  7 18  1  0  0  0  0
  7  8  1  0  0  0  0
  8  9  2  0  0  0  0
  8 27  1  0  0  0  0
  9 10  1  0  0  0  0
  9 28  1  0  0  0  0
 10 11  1  0  0  0  0
 10 18  2  0  0  0  0
 11 12  1  0  0  0  0
 11 29  1  0  0  0  0
 12 13  2  0  0  0  0
 12 14  1  0  0  0  0
 14 15  1  0  0  0  0
 14 30  1  0  0  0  0
 14 31  1  0  0  0  0
 15 16  1  0  0  0  0
 16 17  1  0  0  0  0
 16 32  1  0  0  0  0
 16 33  1  0  0  0  0
 17 34  1  0  0  0  0
 17 35  1  0  0  0  0
 17 36  1  0  0  0  0
M  END
> <s_m_source_file>
AV-unprocessed.smi

> <i_m_source_file_index>
940

> <i_lp_mmshare_version>
43012

> <i_f3d_flags>
0

> <s_epik_input>
W0NIM11bQ0gyXVtOSF1DKD1PKVtDSDJdbjFbY0hdW2NIXWMobjEpW05IXUMoPU8pW0NIMl1PW0NIMl1bQ0gzXQ==

> <s_epik_cmdline>
J2VwaWtfcHl0aG9uJywgJy1waCcsICc3LjAnLCAnLXRuJywgJzgnLCAnLW1hJywgJzIwMCcsICctbWV0YWxfYmluZGluZycsICctaW1hZScsICc8aW5maWxlLm1hZT4nLCAnLW9tYWUnLCAnPG91dGZpbGUubWFlPic=

> <r_lp_tautomer_probability>
1

> <r_epik_Ionization_Penalty>
3.22351e-06

> <r_epik_Ionization_Penalty_Charging>
0

> <r_epik_Ionization_Penalty_Neutral>
3.22351e-06

> <r_epik_State_Penalty>
-0

> <r_epik_Charging_Adjusted_Penalty>
0

> <i_epik_Tot_Q>
0

> <i_epik_Tot_abs_Q>
0

> <r_epik_Metal_State_Penalty>
-0

> <b_epik_Metal_Only>
0

> <s_lp_Force_Field>
OPLS_2005

> <r_lp_Energy>
6.8138

> <b_lp_Chiralities_Consistent>
1

> <s_lp_Variant>
AV-unprocessed.smi:940-1

> <Gold.Version>
5.8.1

> <Gold.Id.Protein>
6NUR|6NUR_protein|mol2

> <Gold.PLP.Fitness>
42.4034

> <Gold.PLP.PLP>
-39.1915

> <Gold.PLP.part.hbond>
-1.8748

> <Gold.PLP.part.metal>
0.0000

> <Gold.PLP.part.buried>
-4.5907

> <Gold.PLP.part.nonpolar>
-31.5336

> <Gold.PLP.part.repulsive>
0.1428

> <Gold.PLP.ligand.clash>
0.0000

> <Gold.PLP.ligand.torsion>
0.5489

> <Gold.PLP.Chemscore.Hbond>
1.4160

> <Gold.PLP.Chemscore.CHOScore>
0.0000

> <Gold.PLP.Chemscore.Metal>
0.0000

> <Gold.Chemscore.Hbonds>
donor molecule, donor type, donor heavy atom, donor atom, acceptor molecule, acceptor atom, score
      L1  H     3    24       P1  8028  0.11
      P1  H  7997  8008       L1    13  0.42

> <Gold.PLP.Chemscore.Internal.Correction>
0.0617

> <Gold.Rescore>
     Score         DG    S(hbond)    S(metal)    S(lipo)     H(rot)  DE(clash)    DE(int)     intcor
      9.82     -13.64       1.86        0.00      67.76       2.34       0.99       2.83       ----

> <Gold.Chemscore.Fitness>
9.8211

> <Gold.Chemscore.DG>
-13.6380

> <Gold.Chemscore.ZeroCoef>
-5.4800

> <Gold.Chemscore.Hbond>
1.8602

> <Gold.Chemscore.Metal>
0.0000

> <Gold.Chemscore.Lipo>
67.7630

> <Gold.Chemscore.Internal_Hbond>
0.0000

> <Gold.Chemscore.DEClash>
0.9856

> <Gold.Chemscore.DEInternal>
2.8313

> <Gold.Chemscore.Rot>
2.3372

> <Gold.Chemscore.Internal.Correction>
   9.000000E+99

> <Gold.Chemscore.Hbonds>
donor molecule, donor type, donor heavy atom, donor atom, acceptor molecule, acceptor atom, score
      L1  H     3    24       P1  8028  0.14
      P1  H  7997  8008       L1    13  0.43

> <Gold.Chemscore.Hbond.Weighted>
-6.2130

> <Gold.Chemscore.Metal.Weighted>
-0.0000

> <Gold.Chemscore.Lipo.Weighted>
-7.9283

> <Gold.Chemscore.Internal_Hbond.Weighted>
0.0000

> <Gold.Chemscore.DEClash.Weighted>
0.9856

> <Gold.Chemscore.DEInternal.Weighted>
2.8313

> <Gold.Chemscore.Rot.Weighted>
5.9833

> <Gold.Chemscore.Internal.Correction.Weighted>
   9.000000E+99

> <Gold.Protein.RotatedTorsions>
[ 6907 6896 6895 6894 ] final  -59.44 input  -60.11 | X-H torsion
[ 7974 7965 7964 7962 ] final   12.51 input  175.53 | X-H torsion
[ 8008 7997 7996 7995 ] final -126.44 input   59.86 | X-H torsion
[ 10167 10162 10161 10158 ] final   56.84 input  -65.29 | X-H torsion
[ 10718 10713 10712 10709 ] final  -37.70 input   66.30 | X-H torsion
[ 10763 10752 10751 10750 ] final -125.61 input  -60.55 | X-H torsion
[ 11005 11000 10999 10996 ] final -169.18 input  -57.11 | X-H torsion

> <Gold.Protein.ActiveResidues>
 VAL166  LYS551  ARG553  GLY616  TRP617  ASP618  TYR619  PRO620  LYS621  CYS622 
 ASP623  PHE694  ASN695  SER759  ASP760  ASP761  ALA762  ILE779  LEU786  VAL792 
 PHE793  MET794  SER795  GLU796  ALA797  LYS798  CYS799  TRP800  GLU811  SER814 

> <Gold.Protein.RotatedAtoms>
  150.7930  134.6969  159.6527 H   0  0  0  0  0  0  0  0  0  0  0  0  # atno 6907 bound_to 6896
  152.4039  134.6237  160.0067 H   0  0  0  0  0  0  0  0  0  0  0  0  # atno 6908 bound_to 6896
  151.6500  133.3284  159.3186 H   0  0  0  0  0  0  0  0  0  0  0  0  # atno 6909 bound_to 6896
  146.2349  139.9325  142.8494 H   0  0  0  0  0  0  0  0  0  0  0  0  # atno 7974 bound_to 7965
  155.2298  140.0425  157.2960 H   0  0  0  0  0  0  0  0  0  0  0  0  # atno 8008 bound_to 7997
  154.5896  140.2423  155.7910 H   0  0  0  0  0  0  0  0  0  0  0  0  # atno 8009 bound_to 7997
  156.2250  140.2957  156.0053 H   0  0  0  0  0  0  0  0  0  0  0  0  # atno 8010 bound_to 7997
  140.2044  144.3955  150.6515 H   0  0  0  0  0  0  0  0  0  0  0  0  # atno 10167 bound_to 10162
  156.3121  130.4254  149.8040 H   0  0  0  0  0  0  0  0  0  0  0  0  # atno 10718 bound_to 10713
  154.8737  135.4024  154.3295 H   0  0  0  0  0  0  0  0  0  0  0  0  # atno 10763 bound_to 10752
  153.4111  135.7021  153.6364 H   0  0  0  0  0  0  0  0  0  0  0  0  # atno 10764 bound_to 10752
  153.5066  135.3716  155.2536 H   0  0  0  0  0  0  0  0  0  0  0  0  # atno 10765 bound_to 10752
  140.5337  134.5591  157.5081 H   0  0  0  0  0  0  0  0  0  0  0  0  # atno 11005 bound_to 11000
  145.2030  140.9863  143.4145 LP  0  0  0  0  0  0  0  0  0  0  0  0  # atno 17320 bound_to 7965
  144.9757  139.3834  143.6287 LP  0  0  0  0  0  0  0  0  0  0  0  0  # atno 17321 bound_to 7965
  140.6368  143.2196  151.6377 LP  0  0  0  0  0  0  0  0  0  0  0  0  # atno 17342 bound_to 10162
  139.5204  144.3223  152.0900 LP  0  0  0  0  0  0  0  0  0  0  0  0  # atno 17343 bound_to 10162
  156.5379  130.8287  151.3259 LP  0  0  0  0  0  0  0  0  0  0  0  0  # atno 17370 bound_to 10713
  157.7393  130.9830  150.2307 LP  0  0  0  0  0  0  0  0  0  0  0  0  # atno 17371 bound_to 10713
  139.9541  134.7566  156.0382 LP  0  0  0  0  0  0  0  0  0  0  0  0  # atno 17394 bound_to 11000
  141.1267  133.6597  156.3355 LP  0  0  0  0  0  0  0  0  0  0  0  0  # atno 17395 bound_to 11000

$$$$
