AV-unprocessed.smi:1|AV-procd|sdf|24|dock5
  -GOLD-   2262015133D 1   1.00000     0.00000
 Structure written by MMmdl.
 56 61  0  0  0  0  0  0  0  0  2 V2000
  149.5201  129.4921  155.6034 O   0  0  0  0  0  0  0  0  0  0  0  0
  149.0425  130.1590  154.6829 C   0  0  0  0  0  0  0  0  0  0  0  0
  148.9000  131.5070  154.6164 N   0  5  0  0  0  0  0  0  0  0  0  0
  149.6838  132.3007  155.3617 C   0  0  0  0  0  0  0  0  0  0  0  0
  150.5589  131.7639  156.2499 N   0  0  0  0  0  0  0  0  0  0  0  0
  151.3324  132.5573  156.9999 C   0  0  0  0  0  0  0  0  0  0  0  0
  151.3878  133.8921  157.0295 N   0  0  0  0  0  0  0  0  0  0  0  0
  150.5083  134.4454  156.1436 C   0  0  0  0  0  0  0  0  0  0  0  0
  149.6301  133.7195  155.2870 C   0  0  0  0  0  0  0  0  0  0  0  0
  148.8663  134.5840  154.5167 N   0  0  0  0  0  0  0  0  0  0  0  0
  149.3089  135.7704  154.9261 C   0  0  0  0  0  0  0  0  0  0  0  0
  150.2692  135.7840  155.8713 N   0  0  0  0  0  0  0  0  0  0  0  0
  150.9265  136.9857  156.4703 C   0  0  1  0  0  0  0  0  0  0  0  0
  150.7885  138.0583  155.5922 O   0  0  0  0  0  0  0  0  0  0  0  0
  150.7107  139.2752  156.3244 C   0  0  2  0  0  0  0  0  0  0  0  0
  152.1309  139.7884  156.6110 C   0  0  0  0  0  0  0  0  0  0  0  0
  152.0525  140.9169  157.4658 O   0  0  0  0  0  0  0  0  0  0  0  0
  152.9776  141.1020  158.4273 C   0  0  0  0  0  0  0  0  0  0  0  0
  153.9660  140.3793  158.5714 O   0  0  0  0  0  0  0  0  0  0  0  0
  152.6800  142.2743  159.3000 C   0  0  0  0  0  0  0  0  0  0  0  0
  151.8756  143.3244  158.7995 C   0  0  0  0  0  0  0  0  0  0  0  0
  151.5788  144.4449  159.5997 C   0  0  0  0  0  0  0  0  0  0  0  0
  152.0835  144.5291  160.9103 C   0  0  0  0  0  0  0  0  0  0  0  0
  152.8839  143.4905  161.4206 C   0  0  0  0  0  0  0  0  0  0  0  0
  153.1812  142.3689  160.6220 C   0  0  0  0  0  0  0  0  0  0  0  0
  149.9569  138.8823  157.5958 C   0  0  1  0  0  0  0  0  0  0  0  0
  148.5616  139.0153  157.3917 O   0  0  0  0  0  0  0  0  0  0  0  0
  147.8048  137.6938  158.0733 S   0  0  0  0  0  0  0  0  0  0  0  0
  147.4479  138.0390  159.4580 O   0  0  0  0  0  0  0  0  0  0  0  0
  146.8229  137.1662  157.1145 O   0  0  0  0  0  0  0  0  0  0  0  0
  149.1171  136.6624  158.1215 O   0  0  0  0  0  0  0  0  0  0  0  0
  150.2938  137.3969  157.8119 C   0  0  1  0  0  0  0  0  0  0  0  0
  148.4733  129.4427  153.4876 C   0  0  0  0  0  0  0  0  0  0  0  0
  147.2764  129.9081  152.8962 C   0  0  0  0  0  0  0  0  0  0  0  0
  146.7142  129.2368  151.7928 C   0  0  0  0  0  0  0  0  0  0  0  0
  147.3383  128.0869  151.2740 C   0  0  0  0  0  0  0  0  0  0  0  0
  148.5225  127.6057  151.8630 C   0  0  0  0  0  0  0  0  0  0  0  0
  149.0855  128.2764  152.9664 C   0  0  0  0  0  0  0  0  0  0  0  0
  152.0036  132.0486  157.6755 H   0  0  0  0  0  0  0  0  0  0  0  0
  148.9155  136.6860  154.5097 H   0  0  0  0  0  0  0  0  0  0  0  0
  151.9785  136.7121  156.5649 H   0  0  0  0  0  0  0  0  0  0  0  0
  150.1575  140.0268  155.7594 H   0  0  0  0  0  0  0  0  0  0  0  0
  152.7142  139.0141  157.1110 H   0  0  0  0  0  0  0  0  0  0  0  0
  152.6472  140.0381  155.6829 H   0  0  0  0  0  0  0  0  0  0  0  0
  151.4772  143.2823  157.7958 H   0  0  0  0  0  0  0  0  0  0  0  0
  150.9631  145.2405  159.2067 H   0  0  0  0  0  0  0  0  0  0  0  0
  151.8567  145.3890  161.5234 H   0  0  0  0  0  0  0  0  0  0  0  0
  153.2716  143.5537  162.4267 H   0  0  0  0  0  0  0  0  0  0  0  0
  153.7981  141.5893  161.0450 H   0  0  0  0  0  0  0  0  0  0  0  0
  150.2361  139.4963  158.4528 H   0  0  0  0  0  0  0  0  0  0  0  0
  151.0352  137.2674  158.6009 H   0  0  0  0  0  0  0  0  0  0  0  0
  146.7841  130.7886  153.2833 H   0  0  0  0  0  0  0  0  0  0  0  0
  145.8029  129.6050  151.3454 H   0  0  0  0  0  0  0  0  0  0  0  0
  146.9074  127.5722  150.4282 H   0  0  0  0  0  0  0  0  0  0  0  0
  148.9992  126.7196  151.4706 H   0  0  0  0  0  0  0  0  0  0  0  0
  149.9895  127.8846  153.4099 H   0  0  0  0  0  0  0  0  0  0  0  0
  1  2  2  0  0  0  0
  2  3  1  0  0  0  0
  2 33  1  0  0  0  0
  3  4  1  0  0  0  0
  4  9  1  0  0  0  0
  4  5  2  0  0  0  0
  5  6  1  0  0  0  0
  6  7  2  0  0  0  0
  6 39  1  0  0  0  0
  7  8  1  0  0  0  0
  8 12  1  0  0  0  0
  8  9  2  0  0  0  0
  9 10  1  0  0  0  0
 10 11  2  0  0  0  0
 11 12  1  0  0  0  0
 11 40  1  0  0  0  0
 12 13  1  0  0  0  0
 13 32  1  0  0  0  0
 13 14  1  0  0  0  0
 13 41  1  0  0  0  0
 14 15  1  0  0  0  0
 15 16  1  0  0  0  0
 15 26  1  0  0  0  0
 15 42  1  0  0  0  0
 16 17  1  0  0  0  0
 16 43  1  0  0  0  0
 16 44  1  0  0  0  0
 17 18  1  0  0  0  0
 18 19  2  0  0  0  0
 18 20  1  0  0  0  0
 20 25  1  0  0  0  0
 20 21  2  0  0  0  0
 21 22  1  0  0  0  0
 21 45  1  0  0  0  0
 22 23  2  0  0  0  0
 22 46  1  0  0  0  0
 23 24  1  0  0  0  0
 23 47  1  0  0  0  0
 24 25  2  0  0  0  0
 24 48  1  0  0  0  0
 25 49  1  0  0  0  0
 26 32  1  0  0  0  0
 26 27  1  0  0  0  0
 26 50  1  0  0  0  0
 27 28  1  0  0  0  0
 28 29  2  0  0  0  0
 28 30  2  0  0  0  0
 28 31  1  0  0  0  0
 31 32  1  0  0  0  0
 32 51  1  0  0  0  0
 33 38  1  0  0  0  0
 33 34  2  0  0  0  0
 34 35  1  0  0  0  0
 34 52  1  0  0  0  0
 35 36  2  0  0  0  0
 35 53  1  0  0  0  0
 36 37  1  0  0  0  0
 36 54  1  0  0  0  0
 37 38  2  0  0  0  0
 37 55  1  0  0  0  0
 38 56  1  0  0  0  0
M  CHG  1   3  -1
M  END
> <s_m_source_file>
AV-unprocessed.smi

> <i_m_source_file_index>
1

> <i_lp_mmshare_version>
43012

> <i_f3d_flags>
0

> <s_epik_input>
W2NIXTFbY0hdW2NIXVtjSF1bY0hdYzFDKD1PKVtOSF1jKG5bY0hdbjIpYyhjMjMpbltjSF1uM1tDQEBIXShbQ0BIXShbQ0BIXTQ1KU9TKE81KSg9Tyk9TylPW0NASF00W0NIMl1PQyg9TyljNltjSF1bY0hdW2NIXVtjSF1bY0hdNg==

> <s_epik_cmdline>
J2VwaWtfcHl0aG9uJywgJy1waCcsICc3LjAnLCAnLXRuJywgJzgnLCAnLW1hJywgJzIwMCcsICctbWV0YWxfYmluZGluZycsICctaW1hZScsICc8aW5maWxlLm1hZT4nLCAnLW9tYWUnLCAnPG91dGZpbGUubWFlPic=

> <r_lp_tautomer_probability>
1

> <r_epik_Ionization_Penalty>
4.39121

> <r_epik_Ionization_Penalty_Charging>
3.39398

> <r_epik_Ionization_Penalty_Neutral>
0.997232

> <r_epik_State_Penalty>
3.39839

> <r_epik_Charging_Adjusted_Penalty>
6.79237

> <i_epik_Tot_Q>
-1

> <i_epik_Tot_abs_Q>
1

> <r_epik_Metal_State_Penalty>
0.497663

> <b_epik_Metal_Only>
1

> <s_epik_Chemistry_Notes>
This compound has an ester and may undergo hydrolysis at high or low pH. This compound contains an acetal/aminal-like group ( X-CH(R)-Y where X, Y are N, S, or O) that may be acid/base labile, releasing an aldehyde.

> <s_lp_Force_Field>
OPLS_2005

> <r_lp_Energy>
44.7553

> <b_lp_Chiralities_Consistent>
1

> <s_lp_Variant>
AV-unprocessed.smi:1-24

> <Gold.Version>
5.8.1

> <Gold.Id.Protein>
6NUR|6NUR_protein|mol2

> <Gold.PLP.Fitness>
66.1132

> <Gold.PLP.PLP>
-62.2152

> <Gold.PLP.part.hbond>
-4.0551

> <Gold.PLP.part.metal>
0.0000

> <Gold.PLP.part.buried>
-9.3025

> <Gold.PLP.part.nonpolar>
-49.9303

> <Gold.PLP.part.repulsive>
0.1589

> <Gold.PLP.ligand.clash>
0.0000

> <Gold.PLP.ligand.torsion>
1.8718

> <Gold.PLP.Chemscore.Hbond>
2.3778

> <Gold.PLP.Chemscore.CHOScore>
0.0000

> <Gold.PLP.Chemscore.Metal>
0.0000

> <Gold.Chemscore.Hbonds>
donor molecule, donor type, donor heavy atom, donor atom, acceptor molecule, acceptor atom, score
      P1  H  6934  6947       L1    29  0.54
      P1  H  7997  8009       L1    19  0.78
      L1  C    11    40       P1  7948  0.30

> <Gold.PLP.Chemscore.Internal.Correction>
0.5082

> <Gold.Rescore>
     Score         DG    S(hbond)    S(metal)    S(lipo)     H(rot)  DE(clash)    DE(int)     intcor
     18.78     -22.51       2.15        0.00     130.30       2.11       0.09       3.63       ----

> <Gold.Chemscore.Fitness>
18.7824

> <Gold.Chemscore.DG>
-22.5056

> <Gold.Chemscore.ZeroCoef>
-5.4800

> <Gold.Chemscore.Hbond>
2.1532

> <Gold.Chemscore.Metal>
0.0000

> <Gold.Chemscore.Lipo>
130.2973

> <Gold.Chemscore.Internal_Hbond>
0.0000

> <Gold.Chemscore.DEClash>
0.0934

> <Gold.Chemscore.DEInternal>
3.6298

> <Gold.Chemscore.Rot>
2.1136

> <Gold.Chemscore.Internal.Correction>
   9.000000E+99

> <Gold.Chemscore.Hbonds>
donor molecule, donor type, donor heavy atom, donor atom, acceptor molecule, acceptor atom, score
      P1  H  6934  6947       L1    29  0.54
      P1  H  7997  8009       L1    19  0.75

> <Gold.Chemscore.Hbond.Weighted>
-7.1916

> <Gold.Chemscore.Metal.Weighted>
-0.0000

> <Gold.Chemscore.Lipo.Weighted>
-15.2448

> <Gold.Chemscore.Internal_Hbond.Weighted>
0.0000

> <Gold.Chemscore.DEClash.Weighted>
0.0934

> <Gold.Chemscore.DEInternal.Weighted>
3.6298

> <Gold.Chemscore.Rot.Weighted>
5.4107

> <Gold.Chemscore.Internal.Correction.Weighted>
   9.000000E+99

> <Gold.Protein.RotatedTorsions>
[ 6907 6896 6895 6894 ] final -157.32 input  -60.11 | X-H torsion
[ 7974 7965 7964 7962 ] final  178.17 input  175.53 | X-H torsion
[ 8008 7997 7996 7995 ] final  132.50 input   59.86 | X-H torsion
[ 10167 10162 10161 10158 ] final   21.11 input  -65.29 | X-H torsion
[ 10718 10713 10712 10709 ] final  -34.37 input   66.30 | X-H torsion
[ 10763 10752 10751 10750 ] final   50.92 input  -60.55 | X-H torsion
[ 11005 11000 10999 10996 ] final    2.16 input  -57.11 | X-H torsion

> <Gold.Protein.ActiveResidues>
 VAL166  LYS551  ARG553  GLY616  TRP617  ASP618  TYR619  PRO620  LYS621  CYS622 
 ASP623  PHE694  ASN695  SER759  ASP760  ASP761  ALA762  ILE779  LEU786  VAL792 
 PHE793  MET794  SER795  GLU796  ALA797  LYS798  CYS799  TRP800  GLU811  SER814 

> <Gold.Protein.RotatedAtoms>
  151.3011  133.4122  159.2639 H   0  0  0  0  0  0  0  0  0  0  0  0  # atno 6907 bound_to 6896
  151.0194  134.9458  159.8061 H   0  0  0  0  0  0  0  0  0  0  0  0  # atno 6908 bound_to 6896
  152.5320  134.2975  159.9118 H   0  0  0  0  0  0  0  0  0  0  0  0  # atno 6909 bound_to 6896
  144.7159  140.0357  143.6438 H   0  0  0  0  0  0  0  0  0  0  0  0  # atno 7974 bound_to 7965
  156.2983  140.2545  156.3100 H   0  0  0  0  0  0  0  0  0  0  0  0  # atno 8008 bound_to 7997
  154.9335  140.0398  157.2079 H   0  0  0  0  0  0  0  0  0  0  0  0  # atno 8009 bound_to 7997
  154.8195  140.2857  155.5801 H   0  0  0  0  0  0  0  0  0  0  0  0  # atno 8010 bound_to 7997
  140.5452  143.9608  150.6543 H   0  0  0  0  0  0  0  0  0  0  0  0  # atno 10167 bound_to 10162
  156.3514  130.4309  149.7701 H   0  0  0  0  0  0  0  0  0  0  0  0  # atno 10718 bound_to 10713
  152.9784  135.5863  154.4332 H   0  0  0  0  0  0  0  0  0  0  0  0  # atno 10763 bound_to 10752
  154.3942  135.2768  155.2138 H   0  0  0  0  0  0  0  0  0  0  0  0  # atno 10764 bound_to 10752
  154.3997  135.6106  153.5944 H   0  0  0  0  0  0  0  0  0  0  0  0  # atno 10765 bound_to 10752
  140.6074  133.9779  155.8161 H   0  0  0  0  0  0  0  0  0  0  0  0  # atno 11005 bound_to 11000
  146.0065  139.3134  143.0896 LP  0  0  0  0  0  0  0  0  0  0  0  0  # atno 17320 bound_to 7965
  145.8732  140.9408  143.0640 LP  0  0  0  0  0  0  0  0  0  0  0  0  # atno 17321 bound_to 7965
  140.3019  143.3255  152.0963 LP  0  0  0  0  0  0  0  0  0  0  0  0  # atno 17342 bound_to 10162
  139.5004  144.6691  151.6285 LP  0  0  0  0  0  0  0  0  0  0  0  0  # atno 17343 bound_to 10162
  156.4900  130.8080  151.3091 LP  0  0  0  0  0  0  0  0  0  0  0  0  # atno 17370 bound_to 10713
  157.7461  130.9978  150.2830 LP  0  0  0  0  0  0  0  0  0  0  0  0  # atno 17371 bound_to 10713
  141.0831  134.0032  157.3355 LP  0  0  0  0  0  0  0  0  0  0  0  0  # atno 17394 bound_to 11000
  139.9206  135.0200  156.8050 LP  0  0  0  0  0  0  0  0  0  0  0  0  # atno 17395 bound_to 11000

$$$$
