AV-unprocessed.smi:1740|AV-procd|sdf|7013|dock6
  -GOLD-   22720 8233D 1   1.00000     0.00000
 Structure written by MMmdl.
 51 53  0  0  0  0  0  0  0  0  3 V2000
  142.6530  141.2790  155.0002 N   0  5  0  0  0  0  0  0  0  0  0  0
  143.4025  140.8295  156.0267 C   0  0  0  0  0  0  0  0  0  0  0  0
  143.2834  141.0928  157.2210 O   0  0  0  0  0  0  0  0  0  0  0  0
  144.5161  139.8827  155.5660 C   0  0  0  0  0  0  0  0  0  0  0  0
  145.5232  140.6051  154.7467 N   0  3  2  0  0  0  0  0  0  0  0  0
  146.7951  139.8486  154.6236 C   0  0  0  0  0  0  0  0  0  0  0  0
  147.7724  140.5490  153.6622 C   0  0  0  0  0  0  0  0  0  0  0  0
  148.0452  142.0065  154.0806 C   0  0  2  0  0  0  0  0  0  0  0  0
  148.8263  142.0724  155.3150 N   0  0  0  0  0  0  0  0  0  0  0  0
  149.8348  141.2530  155.6440 C   0  0  0  0  0  0  0  0  0  0  0  0
  150.2421  140.3500  154.9141 O   0  0  0  0  0  0  0  0  0  0  0  0
  150.3265  141.5628  156.8551 N   0  0  0  0  0  0  0  0  0  0  0  0
  151.4096  140.9695  157.5662 C   0  0  0  0  0  0  0  0  0  0  0  0
  151.8944  139.6727  157.2630 C   0  0  0  0  0  0  0  0  0  0  0  0
  152.9233  139.1202  158.0451 C   0  0  0  0  0  0  0  0  0  0  0  0
  153.4235  139.8765  159.1174 C   0  0  0  0  0  0  0  0  0  0  0  0
  152.9654  141.1053  159.4277 N   0  0  0  0  0  0  0  0  0  0  0  0
  151.9842  141.6581  158.6731 C   0  0  0  0  0  0  0  0  0  0  0  0
  151.5534  142.9553  159.0342 N   0  0  0  0  0  0  0  0  0  0  0  0
  151.7255  144.0233  158.0534 C   0  0  0  0  0  0  0  0  0  0  0  0
  152.0931  145.2836  158.8439 C   0  0  0  0  0  0  0  0  0  0  0  0
  151.5952  144.9842  160.2545 C   0  0  0  0  0  0  0  0  0  0  0  0
  151.8257  143.4802  160.3681 C   0  0  0  0  0  0  0  0  0  0  0  0
  146.7093  142.7496  154.2503 C   0  0  0  0  0  0  0  0  0  0  0  0
  145.7517  142.0044  155.1981 C   0  0  0  0  0  0  0  0  0  0  0  0
  142.8302  140.9031  154.0607 H   0  0  0  0  0  0  0  0  0  0  0  0
  144.9948  139.4058  156.4228 H   0  0  0  0  0  0  0  0  0  0  0  0
  144.0547  139.0832  154.9836 H   0  0  0  0  0  0  0  0  0  0  0  0
  147.2478  139.7327  155.6096 H   0  0  0  0  0  0  0  0  0  0  0  0
  146.5891  138.8446  154.2511 H   0  0  0  0  0  0  0  0  0  0  0  0
  148.7047  139.9864  153.6006 H   0  0  0  0  0  0  0  0  0  0  0  0
  147.3489  140.5397  152.6570 H   0  0  0  0  0  0  0  0  0  0  0  0
  148.6115  142.5025  153.2899 H   0  0  0  0  0  0  0  0  0  0  0  0
  148.5721  142.7929  155.9747 H   0  0  0  0  0  0  0  0  0  0  0  0
  149.9282  142.3792  157.2954 H   0  0  0  0  0  0  0  0  0  0  0  0
  151.4839  139.0788  156.4619 H   0  0  0  0  0  0  0  0  0  0  0  0
  153.3102  138.1342  157.8350 H   0  0  0  0  0  0  0  0  0  0  0  0
  154.2076  139.4829  159.7470 H   0  0  0  0  0  0  0  0  0  0  0  0
  152.4880  143.7815  157.3117 H   0  0  0  0  0  0  0  0  0  0  0  0
  150.7813  144.1762  157.5303 H   0  0  0  0  0  0  0  0  0  0  0  0
  153.1771  145.4042  158.8575 H   0  0  0  0  0  0  0  0  0  0  0  0
  151.6599  146.1907  158.4221 H   0  0  0  0  0  0  0  0  0  0  0  0
  152.1177  145.5535  161.0236 H   0  0  0  0  0  0  0  0  0  0  0  0
  150.5297  145.2063  160.3295 H   0  0  0  0  0  0  0  0  0  0  0  0
  151.1737  143.0256  161.1145 H   0  0  0  0  0  0  0  0  0  0  0  0
  152.8608  143.2941  160.6575 H   0  0  0  0  0  0  0  0  0  0  0  0
  146.8834  143.7632  154.6134 H   0  0  0  0  0  0  0  0  0  0  0  0
  146.2320  142.8557  153.2750 H   0  0  0  0  0  0  0  0  0  0  0  0
  144.8056  142.5449  155.2393 H   0  0  0  0  0  0  0  0  0  0  0  0
  146.1518  141.9990  156.2132 H   0  0  0  0  0  0  0  0  0  0  0  0
  145.1267  140.6534  153.8181 H   0  0  0  0  0  0  0  0  0  0  0  0
  1  2  1  0  0  0  0
  1 26  1  0  0  0  0
  2  3  2  0  0  0  0
  2  4  1  0  0  0  0
  4  5  1  0  0  0  0
  4 27  1  0  0  0  0
  4 28  1  0  0  0  0
  5 25  1  0  0  0  0
  5  6  1  0  0  0  0
  5 51  1  0  0  0  0
  6  7  1  0  0  0  0
  6 29  1  0  0  0  0
  6 30  1  0  0  0  0
  7  8  1  0  0  0  0
  7 31  1  0  0  0  0
  7 32  1  0  0  0  0
  8  9  1  0  0  0  0
  8 24  1  0  0  0  0
  8 33  1  0  0  0  0
  9 10  1  0  0  0  0
  9 34  1  0  0  0  0
 10 11  2  0  0  0  0
 10 12  1  0  0  0  0
 12 13  1  0  0  0  0
 12 35  1  0  0  0  0
 13 18  1  0  0  0  0
 13 14  2  0  0  0  0
 14 15  1  0  0  0  0
 14 36  1  0  0  0  0
 15 16  2  0  0  0  0
 15 37  1  0  0  0  0
 16 17  1  0  0  0  0
 16 38  1  0  0  0  0
 17 18  2  0  0  0  0
 18 19  1  0  0  0  0
 19 23  1  0  0  0  0
 19 20  1  0  0  0  0
 20 21  1  0  0  0  0
 20 39  1  0  0  0  0
 20 40  1  0  0  0  0
 21 22  1  0  0  0  0
 21 41  1  0  0  0  0
 21 42  1  0  0  0  0
 22 23  1  0  0  0  0
 22 43  1  0  0  0  0
 22 44  1  0  0  0  0
 23 45  1  0  0  0  0
 23 46  1  0  0  0  0
 24 25  1  0  0  0  0
 24 47  1  0  0  0  0
 24 48  1  0  0  0  0
 25 49  1  0  0  0  0
 25 50  1  0  0  0  0
M  CHG  1   1  -1
M  CHG  1   5   1
M  END
> <s_m_source_file>
AV-unprocessed.smi

> <i_m_source_file_index>
1740

> <i_lp_mmshare_version>
43012

> <i_f3d_flags>
0

> <s_epik_input>
W05IMl1DKD1PKVtDSDJdTjFbQ0gyXVtDSDJdW0NIXShbQ0gyXVtDSDJdMSlbTkhdQyg9TylbTkhdYzJbY0hdW2NIXVtjSF1uYzJOM1tDSDJdW0NIMl1bQ0gyXVtDSDJdMw==

> <s_epik_cmdline>
J2VwaWtfcHl0aG9uJywgJy1waCcsICc3LjAnLCAnLXRuJywgJzgnLCAnLW1hJywgJzIwMCcsICctbWV0YWxfYmluZGluZycsICctaW1hZScsICc8aW5maWxlLm1hZT4nLCAnLW9tYWUnLCAnPG91dGZpbGUubWFlPic=

> <r_lp_tautomer_probability>
1

> <r_epik_Ionization_Penalty>
5.80652

> <r_epik_Ionization_Penalty_Charging>
5.7288

> <r_epik_Ionization_Penalty_Neutral>
0.0777157

> <r_epik_State_Penalty>
6.60246

> <r_epik_Charging_Adjusted_Penalty>
12.3313

> <i_epik_Tot_Q>
0

> <i_epik_Tot_abs_Q>
2

> <r_epik_Metal_State_Penalty>
2.64988

> <b_epik_Metal_Only>
1

> <s_lp_Force_Field>
OPLS_2005

> <r_lp_Energy>
35.9305

> <b_lp_Chiralities_Consistent>
1

> <s_lp_Variant>
AV-unprocessed.smi:1740-8

> <Gold.Version>
5.8.1

> <Gold.Id.Protein>
6NUR|6NUR_protein|mol2

> <Gold.PLP.Fitness>
56.2127

> <Gold.PLP.PLP>
-44.1893

> <Gold.PLP.part.hbond>
-4.9034

> <Gold.PLP.part.metal>
0.0000

> <Gold.PLP.part.buried>
-3.0455

> <Gold.PLP.part.nonpolar>
-35.2657

> <Gold.PLP.part.repulsive>
0.3026

> <Gold.PLP.ligand.clash>
0.0000

> <Gold.PLP.ligand.torsion>
0.8794

> <Gold.PLP.Chemscore.Hbond>
4.4865

> <Gold.PLP.Chemscore.CHOScore>
0.0000

> <Gold.PLP.Chemscore.Metal>
0.0000

> <Gold.Chemscore.Hbonds>
donor molecule, donor type, donor heavy atom, donor atom, acceptor molecule, acceptor atom, score
      L1  H     1    26       P1 10175  1.00
      L1  H     5    51       P1 10175  2.00
      L1  H     9    34       P1  8028  0.48
      P1  H  7989  7998       L1    11  0.96

> <Gold.PLP.Chemscore.Internal.Correction>
0.3228

> <Gold.Rescore>
     Score         DG    S(hbond)    S(metal)    S(lipo)     H(rot)  DE(clash)    DE(int)     intcor
     18.66     -22.45       3.15        0.00     102.17       2.16       0.29       3.50       ----

> <Gold.Chemscore.Fitness>
18.6591

> <Gold.Chemscore.DG>
-22.4498

> <Gold.Chemscore.ZeroCoef>
-5.4800

> <Gold.Chemscore.Hbond>
3.1543

> <Gold.Chemscore.Metal>
0.0000

> <Gold.Chemscore.Lipo>
102.1715

> <Gold.Chemscore.Internal_Hbond>
0.0000

> <Gold.Chemscore.DEClash>
0.2866

> <Gold.Chemscore.DEInternal>
3.5041

> <Gold.Chemscore.Rot>
2.1562

> <Gold.Chemscore.Internal.Correction>
   9.000000E+99

> <Gold.Chemscore.Hbonds>
donor molecule, donor type, donor heavy atom, donor atom, acceptor molecule, acceptor atom, score
      L1  H     1    26       P1 10175  0.45
      L1  H     5    51       P1 10175  0.94
      L1  H     9    34       P1  8028  0.47
      P1  H  7989  7998       L1    11  0.81

> <Gold.Chemscore.Hbond.Weighted>
-10.5355

> <Gold.Chemscore.Metal.Weighted>
-0.0000

> <Gold.Chemscore.Lipo.Weighted>
-11.9541

> <Gold.Chemscore.Internal_Hbond.Weighted>
0.0000

> <Gold.Chemscore.DEClash.Weighted>
0.2866

> <Gold.Chemscore.DEInternal.Weighted>
3.5041

> <Gold.Chemscore.Rot.Weighted>
5.5198

> <Gold.Chemscore.Internal.Correction.Weighted>
   9.000000E+99

> <Gold.Protein.RotatedTorsions>
[ 6907 6896 6895 6894 ] final  -16.08 input  -60.11 | X-H torsion
[ 7974 7965 7964 7962 ] final  138.79 input  175.53 | X-H torsion
[ 8008 7997 7996 7995 ] final   82.11 input   59.86 | X-H torsion
[ 10167 10162 10161 10158 ] final  144.28 input  -65.29 | X-H torsion
[ 10718 10713 10712 10709 ] final  -90.34 input   66.30 | X-H torsion
[ 10763 10752 10751 10750 ] final  -40.02 input  -60.55 | X-H torsion
[ 11005 11000 10999 10996 ] final   81.59 input  -57.11 | X-H torsion

> <Gold.Protein.ActiveResidues>
 VAL166  LYS551  ARG553  GLY616  TRP617  ASP618  TYR619  PRO620  LYS621  CYS622 
 ASP623  PHE694  ASN695  SER759  ASP760  ASP761  ALA762  ILE779  LEU786  VAL792 
 PHE793  MET794  SER795  GLU796  ALA797  LYS798  CYS799  TRP800  GLU811  SER814 

> <Gold.Protein.RotatedAtoms>
  151.3141  135.0802  159.9282 H   0  0  0  0  0  0  0  0  0  0  0  0  # atno 6907 bound_to 6896
  152.5271  133.9706  159.7770 H   0  0  0  0  0  0  0  0  0  0  0  0  # atno 6908 bound_to 6896
  151.0015  133.6000  159.2724 H   0  0  0  0  0  0  0  0  0  0  0  0  # atno 6909 bound_to 6896
  144.9340  139.5012  143.5604 H   0  0  0  0  0  0  0  0  0  0  0  0  # atno 7974 bound_to 7965
  155.9062  140.3430  155.6063 H   0  0  0  0  0  0  0  0  0  0  0  0  # atno 8008 bound_to 7997
  155.7442  140.0811  157.2250 H   0  0  0  0  0  0  0  0  0  0  0  0  # atno 8009 bound_to 7997
  154.4050  140.1565  156.2638 H   0  0  0  0  0  0  0  0  0  0  0  0  # atno 8010 bound_to 7997
  139.4950  144.5983  151.6536 H   0  0  0  0  0  0  0  0  0  0  0  0  # atno 10167 bound_to 10162
  155.9987  130.4906  150.5307 H   0  0  0  0  0  0  0  0  0  0  0  0  # atno 10718 bound_to 10713
  153.9390  135.6763  153.4744 H   0  0  0  0  0  0  0  0  0  0  0  0  # atno 10763 bound_to 10752
  153.0941  135.4860  154.8743 H   0  0  0  0  0  0  0  0  0  0  0  0  # atno 10764 bound_to 10752
  154.7387  135.3155  154.8724 H   0  0  0  0  0  0  0  0  0  0  0  0  # atno 10765 bound_to 10752
  139.9093  134.8008  156.2061 H   0  0  0  0  0  0  0  0  0  0  0  0  # atno 11005 bound_to 11000
  146.3259  139.8310  142.8908 LP  0  0  0  0  0  0  0  0  0  0  0  0  # atno 17320 bound_to 7965
  145.3097  141.0216  143.3561 LP  0  0  0  0  0  0  0  0  0  0  0  0  # atno 17321 bound_to 7965
  140.5626  144.0243  150.6177 LP  0  0  0  0  0  0  0  0  0  0  0  0  # atno 17342 bound_to 10162
  140.3334  143.3064  152.0664 LP  0  0  0  0  0  0  0  0  0  0  0  0  # atno 17343 bound_to 10162
  157.3257  131.0690  151.1899 LP  0  0  0  0  0  0  0  0  0  0  0  0  # atno 17370 bound_to 10713
  157.2797  130.6744  149.6060 LP  0  0  0  0  0  0  0  0  0  0  0  0  # atno 17371 bound_to 10713
  141.0494  133.6896  156.1744 LP  0  0  0  0  0  0  0  0  0  0  0  0  # atno 17394 bound_to 11000
  140.6833  134.4744  157.5589 LP  0  0  0  0  0  0  0  0  0  0  0  0  # atno 17395 bound_to 11000

$$$$
