AV-unprocessed.smi:141|AV-procd|sdf|1187|dock8
  -GOLD-   2262018343D 1   1.00000     0.00000
 Structure written by MMmdl.
 56 59  0  0  0  0  0  0  0  0  1 V2000
  151.1533  136.4947  153.7313 O   0  0  0  0  0  0  0  0  0  0  0  0
  151.2054  136.2243  154.9328 C   0  0  0  0  0  0  0  0  0  0  0  0
  150.5248  134.9357  155.4414 C   0  0  0  0  0  0  0  0  0  0  0  0
  150.0167  134.0619  154.3599 N   0  0  0  0  0  0  0  0  0  0  0  0
  150.6655  132.8242  154.1238 C   0  0  0  0  0  0  0  0  0  0  0  0
  151.6432  132.4780  154.7883 O   0  0  0  0  0  0  0  0  0  0  0  0
  150.0902  132.0041  153.0639 C   0  0  0  0  0  0  0  0  0  0  0  0
  150.6312  130.8073  152.7795 F   0  0  0  0  0  0  0  0  0  0  0  0
  149.0168  132.4261  152.3648 C   0  0  0  0  0  0  0  0  0  0  0  0
  148.4052  133.6435  152.5911 N   0  0  0  0  0  0  0  0  0  0  0  0
  147.1745  134.0099  151.7944 C   0  0  2  0  0  0  0  0  0  0  0  0
  145.9672  134.4030  152.6668 C   0  0  0  0  0  0  0  0  0  0  0  0
  144.9006  133.4083  152.2387 C   0  0  0  0  0  0  0  0  0  0  0  0
  145.3905  132.9548  150.8681 C   0  0  0  0  0  0  0  0  0  0  0  0
  146.8001  132.9099  151.0237 O   0  0  0  0  0  0  0  0  0  0  0  0
  148.8801  134.4810  153.6270 C   0  0  0  0  0  0  0  0  0  0  0  0
  148.3166  135.5442  153.8925 O   0  0  0  0  0  0  0  0  0  0  0  0
  151.8468  137.0211  155.8222 N   0  0  0  0  0  0  0  0  0  0  0  0
  152.4987  138.2994  155.5105 C   0  0  0  0  0  0  0  0  0  0  0  0
  151.6507  139.4387  156.1029 C   0  0  0  0  0  0  0  0  0  0  0  0
  151.4661  139.2600  157.6267 C   0  0  0  0  0  0  0  0  0  0  0  0
  150.5459  140.3456  158.2280 C   0  0  0  0  0  0  0  0  0  0  0  0
  151.2673  141.6607  158.4555 C   0  0  0  0  0  0  0  0  0  0  0  0
  152.3837  141.7175  159.3160 C   0  0  0  0  0  0  0  0  0  0  0  0
  153.0566  142.9378  159.5212 C   0  0  0  0  0  0  0  0  0  0  0  0
  152.6155  144.1045  158.8669 C   0  0  0  0  0  0  0  0  0  0  0  0
  151.5032  144.0502  158.0046 C   0  0  0  0  0  0  0  0  0  0  0  0
  150.8303  142.8301  157.7986 C   0  0  0  0  0  0  0  0  0  0  0  0
  150.9690  137.8331  157.9530 C   0  0  0  0  0  0  0  0  0  0  0  0
  151.8399  136.7638  157.2674 C   0  0  0  0  0  0  0  0  0  0  0  0
  151.2304  134.3850  156.0654 H   0  0  0  0  0  0  0  0  0  0  0  0
  149.7180  135.2124  156.1217 H   0  0  0  0  0  0  0  0  0  0  0  0
  148.6263  131.7776  151.5941 H   0  0  0  0  0  0  0  0  0  0  0  0
  147.4751  134.8239  151.1333 H   0  0  0  0  0  0  0  0  0  0  0  0
  146.1877  134.3593  153.7339 H   0  0  0  0  0  0  0  0  0  0  0  0
  145.6761  135.4235  152.4162 H   0  0  0  0  0  0  0  0  0  0  0  0
  144.8793  132.5613  152.9246 H   0  0  0  0  0  0  0  0  0  0  0  0
  143.9009  133.8424  152.2088 H   0  0  0  0  0  0  0  0  0  0  0  0
  144.9862  131.9857  150.5747 H   0  0  0  0  0  0  0  0  0  0  0  0
  145.1307  133.6849  150.0998 H   0  0  0  0  0  0  0  0  0  0  0  0
  153.4958  138.3104  155.9534 H   0  0  0  0  0  0  0  0  0  0  0  0
  152.6579  138.4667  154.4467 H   0  0  0  0  0  0  0  0  0  0  0  0
  152.1250  140.3987  155.8958 H   0  0  0  0  0  0  0  0  0  0  0  0
  150.6780  139.4598  155.6089 H   0  0  0  0  0  0  0  0  0  0  0  0
  152.4574  139.3589  158.0732 H   0  0  0  0  0  0  0  0  0  0  0  0
  149.6905  140.5305  157.5767 H   0  0  0  0  0  0  0  0  0  0  0  0
  150.1182  140.0119  159.1745 H   0  0  0  0  0  0  0  0  0  0  0  0
  152.7279  140.8251  159.8185 H   0  0  0  0  0  0  0  0  0  0  0  0
  153.9115  142.9780  160.1799 H   0  0  0  0  0  0  0  0  0  0  0  0
  153.1314  145.0402  159.0249 H   0  0  0  0  0  0  0  0  0  0  0  0
  151.1660  144.9439  157.5002 H   0  0  0  0  0  0  0  0  0  0  0  0
  149.9797  142.7933  157.1335 H   0  0  0  0  0  0  0  0  0  0  0  0
  150.9709  137.6757  159.0321 H   0  0  0  0  0  0  0  0  0  0  0  0
  149.9350  137.7165  157.6245 H   0  0  0  0  0  0  0  0  0  0  0  0
  151.4720  135.7686  157.5204 H   0  0  0  0  0  0  0  0  0  0  0  0
  152.8609  136.8069  157.6491 H   0  0  0  0  0  0  0  0  0  0  0  0
  1  2  2  0  0  0  0
  2  3  1  0  0  0  0
  2 18  1  0  0  0  0
  3  4  1  0  0  0  0
  3 31  1  0  0  0  0
  3 32  1  0  0  0  0
  4 16  1  0  0  0  0
  4  5  1  0  0  0  0
  5  6  2  0  0  0  0
  5  7  1  0  0  0  0
  7  8  1  0  0  0  0
  7  9  2  0  0  0  0
  9 10  1  0  0  0  0
  9 33  1  0  0  0  0
 10 11  1  0  0  0  0
 10 16  1  0  0  0  0
 11 15  1  0  0  0  0
 11 12  1  0  0  0  0
 11 34  1  0  0  0  0
 12 13  1  0  0  0  0
 12 35  1  0  0  0  0
 12 36  1  0  0  0  0
 13 14  1  0  0  0  0
 13 37  1  0  0  0  0
 13 38  1  0  0  0  0
 14 15  1  0  0  0  0
 14 39  1  0  0  0  0
 14 40  1  0  0  0  0
 16 17  2  0  0  0  0
 18 30  1  0  0  0  0
 18 19  1  0  0  0  0
 19 20  1  0  0  0  0
 19 41  1  0  0  0  0
 19 42  1  0  0  0  0
 20 21  1  0  0  0  0
 20 43  1  0  0  0  0
 20 44  1  0  0  0  0
 21 22  1  0  0  0  0
 21 29  1  0  0  0  0
 21 45  1  0  0  0  0
 22 23  1  0  0  0  0
 22 46  1  0  0  0  0
 22 47  1  0  0  0  0
 23 28  1  0  0  0  0
 23 24  2  0  0  0  0
 24 25  1  0  0  0  0
 24 48  1  0  0  0  0
 25 26  2  0  0  0  0
 25 49  1  0  0  0  0
 26 27  1  0  0  0  0
 26 50  1  0  0  0  0
 27 28  2  0  0  0  0
 27 51  1  0  0  0  0
 28 52  1  0  0  0  0
 29 30  1  0  0  0  0
 29 53  1  0  0  0  0
 29 54  1  0  0  0  0
 30 55  1  0  0  0  0
 30 56  1  0  0  0  0
M  END
> <s_m_source_file>
AV-unprocessed.smi

> <i_m_source_file_index>
141

> <i_lp_mmshare_version>
43012

> <i_f3d_flags>
0

> <s_epik_input>
W2NIXTFbY0hdW2NIXVtjSF1bY0hdYzFbQ0gyXVtDSF0oW0NIMl1bQ0gyXTIpW0NIMl1bQ0gyXU4yQyg9TylbQ0gyXW4zYyg9TyljKEYpW2NIXW4oYzM9TylbQ0BASF00W0NIMl1bQ0gyXVtDSDJdTzQ=

> <s_epik_cmdline>
J2VwaWtfcHl0aG9uJywgJy1waCcsICc3LjAnLCAnLXRuJywgJzgnLCAnLW1hJywgJzIwMCcsICctbWV0YWxfYmluZGluZycsICctaW1hZScsICc8aW5maWxlLm1hZT4nLCAnLW9tYWUnLCAnPG91dGZpbGUubWFlPic=

> <r_lp_tautomer_probability>
1

> <r_epik_Ionization_Penalty>
3.78313e-08

> <r_epik_Ionization_Penalty_Charging>
4.95074e-09

> <r_epik_Ionization_Penalty_Neutral>
3.28806e-08

> <r_epik_State_Penalty>
-0

> <r_epik_Charging_Adjusted_Penalty>
4.95074e-09

> <i_epik_Tot_Q>
0

> <i_epik_Tot_abs_Q>
0

> <r_epik_Metal_State_Penalty>
-0

> <b_epik_Metal_Only>
0

> <s_epik_Chemistry_Notes>
This compound contains an acetal/aminal-like group ( X-CH(R)-Y where X, Y are N, S, or O) that may be acid/base labile, releasing an aldehyde.

> <s_lp_Force_Field>
OPLS_2005

> <r_lp_Energy>
44.5211

> <b_lp_Chiralities_Consistent>
1

> <s_lp_Variant>
AV-unprocessed.smi:141-1

> <Gold.Version>
5.8.1

> <Gold.Id.Protein>
6NUR|6NUR_protein|mol2

> <Gold.PLP.Fitness>
55.4144

> <Gold.PLP.PLP>
-50.7074

> <Gold.PLP.part.hbond>
-1.0000

> <Gold.PLP.part.metal>
0.0000

> <Gold.PLP.part.buried>
-4.3467

> <Gold.PLP.part.nonpolar>
-48.9507

> <Gold.PLP.part.repulsive>
4.3551

> <Gold.PLP.ligand.clash>
0.0000

> <Gold.PLP.ligand.torsion>
0.5331

> <Gold.PLP.Chemscore.Hbond>
1.0000

> <Gold.PLP.Chemscore.CHOScore>
0.8938

> <Gold.PLP.Chemscore.Metal>
0.0000

> <Gold.PLP.Chemscore.Internal.Correction>
0.0920

> <Gold.Rescore>
     Score         DG    S(hbond)    S(metal)    S(lipo)     H(rot)  DE(clash)    DE(int)     intcor
     17.17     -21.71       1.84        0.00     126.48       1.85       0.87       3.66       ----

> <Gold.Chemscore.Fitness>
17.1704

> <Gold.Chemscore.DG>
-21.7075

> <Gold.Chemscore.ZeroCoef>
-5.4800

> <Gold.Chemscore.Hbond>
1.8428

> <Gold.Chemscore.Metal>
0.0000

> <Gold.Chemscore.Lipo>
126.4821

> <Gold.Chemscore.Internal_Hbond>
0.0000

> <Gold.Chemscore.DEClash>
0.8724

> <Gold.Chemscore.DEInternal>
3.6647

> <Gold.Chemscore.Rot>
1.8461

> <Gold.Chemscore.Internal.Correction>
   9.000000E+99

> <Gold.Chemscore.Hbond.Weighted>
-6.1551

> <Gold.Chemscore.Metal.Weighted>
-0.0000

> <Gold.Chemscore.Lipo.Weighted>
-14.7984

> <Gold.Chemscore.Internal_Hbond.Weighted>
0.0000

> <Gold.Chemscore.DEClash.Weighted>
0.8724

> <Gold.Chemscore.DEInternal.Weighted>
3.6647

> <Gold.Chemscore.Rot.Weighted>
4.7260

> <Gold.Chemscore.Internal.Correction.Weighted>
   9.000000E+99

> <Gold.Protein.RotatedTorsions>
[ 6907 6896 6895 6894 ] final   44.17 input  -60.11 | X-H torsion
[ 7974 7965 7964 7962 ] final -129.43 input  175.53 | X-H torsion
[ 8008 7997 7996 7995 ] final -107.54 input   59.86 | X-H torsion
[ 10167 10162 10161 10158 ] final   70.44 input  -65.29 | X-H torsion
[ 10718 10713 10712 10709 ] final  -93.86 input   66.30 | X-H torsion
[ 10763 10752 10751 10750 ] final  -72.92 input  -60.55 | X-H torsion
[ 11005 11000 10999 10996 ] final  126.92 input  -57.11 | X-H torsion

> <Gold.Protein.ActiveResidues>
 VAL166  LYS551  ARG553  GLY616  TRP617  ASP618  TYR619  PRO620  LYS621  CYS622 
 ASP623  PHE694  ASN695  SER759  ASP760  ASP761  ALA762  ILE779  LEU786  VAL792 
 PHE793  MET794  SER795  GLU796  ALA797  LYS798  CYS799  TRP800  GLU811  SER814 

> <Gold.Protein.RotatedAtoms>
  152.2292  134.8338  160.0475 H   0  0  0  0  0  0  0  0  0  0  0  0  # atno 6907 bound_to 6896
  151.9093  133.3552  159.3866 H   0  0  0  0  0  0  0  0  0  0  0  0  # atno 6908 bound_to 6896
  150.7021  134.4674  159.5453 H   0  0  0  0  0  0  0  0  0  0  0  0  # atno 6909 bound_to 6896
  144.9573  140.7409  143.4751 H   0  0  0  0  0  0  0  0  0  0  0  0  # atno 7974 bound_to 7965
  154.9309  140.0405  157.2047 H   0  0  0  0  0  0  0  0  0  0  0  0  # atno 8008 bound_to 7997
  154.8161  140.2876  155.5797 H   0  0  0  0  0  0  0  0  0  0  0  0  # atno 8009 bound_to 7997
  156.2976  140.2527  156.3059 H   0  0  0  0  0  0  0  0  0  0  0  0  # atno 8010 bound_to 7997
  140.0569  144.5265  150.7322 H   0  0  0  0  0  0  0  0  0  0  0  0  # atno 10167 bound_to 10162
  156.0019  130.5044  150.5840 H   0  0  0  0  0  0  0  0  0  0  0  0  # atno 10718 bound_to 10713
  154.4523  135.5914  153.6200 H   0  0  0  0  0  0  0  0  0  0  0  0  # atno 10763 bound_to 10752
  152.9815  135.6024  154.3589 H   0  0  0  0  0  0  0  0  0  0  0  0  # atno 10764 bound_to 10752
  154.3452  135.2841  155.2380 H   0  0  0  0  0  0  0  0  0  0  0  0  # atno 10765 bound_to 10752
  139.9481  134.9626  156.8778 H   0  0  0  0  0  0  0  0  0  0  0  0  # atno 11005 bound_to 11000
  145.2754  139.1938  143.4819 LP  0  0  0  0  0  0  0  0  0  0  0  0  # atno 17320 bound_to 7965
  146.3341  140.2707  142.8606 LP  0  0  0  0  0  0  0  0  0  0  0  0  # atno 17321 bound_to 7965
  140.7190  143.2571  151.4340 LP  0  0  0  0  0  0  0  0  0  0  0  0  # atno 17342 bound_to 10162
  139.5918  144.1483  152.2097 LP  0  0  0  0  0  0  0  0  0  0  0  0  # atno 17343 bound_to 10162
  157.3715  131.0766  151.1553 LP  0  0  0  0  0  0  0  0  0  0  0  0  # atno 17370 bound_to 10713
  157.2305  130.6523  149.5848 LP  0  0  0  0  0  0  0  0  0  0  0  0  # atno 17371 bound_to 10713
  140.5786  134.0374  155.7456 LP  0  0  0  0  0  0  0  0  0  0  0  0  # atno 17394 bound_to 11000
  141.1136  133.9576  157.2864 LP  0  0  0  0  0  0  0  0  0  0  0  0  # atno 17395 bound_to 11000

$$$$
