AV-unprocessed.smi:1399|AV-procd|sdf|5684|dock9
  -GOLD-   22720 5313D 1   1.00000     0.00000
 Structure written by MMmdl.
 37 38  0  0  0  0  0  0  0  0  3 V2000
  142.8706  132.3753  148.4927 N   0  5  0  0  0  0  0  0  0  0  0  0
  143.9114  132.4549  149.3435 C   0  0  0  0  0  0  0  0  0  0  0  0
  145.1076  132.3320  149.0879 O   0  0  0  0  0  0  0  0  0  0  0  0
  143.4724  132.7600  150.7796 C   0  0  0  0  0  0  0  0  0  0  0  0
  143.7787  134.1720  151.1189 N   0  3  2  0  0  0  0  0  0  0  0  0
  145.2386  134.4233  151.2231 C   0  0  0  0  0  0  0  0  0  0  0  0
  145.5325  135.9187  151.4319 C   0  0  0  0  0  0  0  0  0  0  0  0
  144.8039  136.4598  152.6723 C   0  0  1  0  0  0  0  0  0  0  0  0
  145.0327  137.8963  152.7985 N   0  0  0  0  0  0  0  0  0  0  0  0
  146.1611  138.4592  153.2548 C   0  0  0  0  0  0  0  0  0  0  0  0
  147.1451  137.8136  153.6155 O   0  0  0  0  0  0  0  0  0  0  0  0
  146.0681  139.7988  153.2699 N   0  0  0  0  0  0  0  0  0  0  0  0
  147.0613  140.7215  153.6842 C   0  0  0  0  0  0  0  0  0  0  0  0
  148.4785  140.5670  153.7202 C   0  0  0  0  0  0  0  0  0  0  0  0
  149.0692  141.6648  154.1706 N   0  0  0  0  0  0  0  0  0  0  0  0
  148.0483  142.5151  154.4206 N   0  0  0  0  0  0  0  0  0  0  0  0
  146.8101  141.9822  154.1371 C   0  0  0  0  0  0  0  0  0  0  0  0
  143.2995  136.1544  152.5583 C   0  0  0  0  0  0  0  0  0  0  0  0
  143.0527  134.6551  152.3245 C   0  0  0  0  0  0  0  0  0  0  0  0
  148.2113  143.4447  154.7809 H   0  0  0  0  0  0  0  0  0  0  0  0
  142.1282  131.6919  148.6845 H   0  0  0  0  0  0  0  0  0  0  0  0
  142.4161  132.5441  150.9550 H   0  0  0  0  0  0  0  0  0  0  0  0
  144.0364  132.0894  151.4292 H   0  0  0  0  0  0  0  0  0  0  0  0
  145.6511  133.8382  152.0465 H   0  0  0  0  0  0  0  0  0  0  0  0
  145.7360  134.0862  150.3129 H   0  0  0  0  0  0  0  0  0  0  0  0
  146.6076  136.0712  151.5332 H   0  0  0  0  0  0  0  0  0  0  0  0
  145.2228  136.4747  150.5455 H   0  0  0  0  0  0  0  0  0  0  0  0
  145.2051  135.9530  153.5523 H   0  0  0  0  0  0  0  0  0  0  0  0
  144.2753  138.5049  152.5242 H   0  0  0  0  0  0  0  0  0  0  0  0
  145.1959  140.2008  152.9592 H   0  0  0  0  0  0  0  0  0  0  0  0
  149.0918  139.7227  153.4431 H   0  0  0  0  0  0  0  0  0  0  0  0
  145.8902  142.5296  154.2801 H   0  0  0  0  0  0  0  0  0  0  0  0
  142.7798  136.4729  153.4627 H   0  0  0  0  0  0  0  0  0  0  0  0
  142.8653  136.7247  151.7356 H   0  0  0  0  0  0  0  0  0  0  0  0
  141.9814  134.4858  152.2136 H   0  0  0  0  0  0  0  0  0  0  0  0
  143.3723  134.0826  153.1967 H   0  0  0  0  0  0  0  0  0  0  0  0
  143.4488  134.7190  150.3365 H   0  0  0  0  0  0  0  0  0  0  0  0
  1  2  1  0  0  0  0
  1 21  1  0  0  0  0
  2  3  2  0  0  0  0
  2  4  1  0  0  0  0
  4  5  1  0  0  0  0
  4 22  1  0  0  0  0
  4 23  1  0  0  0  0
  5 19  1  0  0  0  0
  5  6  1  0  0  0  0
  5 37  1  0  0  0  0
  6  7  1  0  0  0  0
  6 24  1  0  0  0  0
  6 25  1  0  0  0  0
  7  8  1  0  0  0  0
  7 26  1  0  0  0  0
  7 27  1  0  0  0  0
  8  9  1  0  0  0  0
  8 18  1  0  0  0  0
  8 28  1  0  0  0  0
  9 10  1  0  0  0  0
  9 29  1  0  0  0  0
 10 11  2  0  0  0  0
 10 12  1  0  0  0  0
 12 13  1  0  0  0  0
 12 30  1  0  0  0  0
 13 17  2  0  0  0  0
 13 14  1  0  0  0  0
 14 15  2  0  0  0  0
 14 31  1  0  0  0  0
 15 16  1  0  0  0  0
 16 20  1  0  0  0  0
 16 17  1  0  0  0  0
 17 32  1  0  0  0  0
 18 19  1  0  0  0  0
 18 33  1  0  0  0  0
 18 34  1  0  0  0  0
 19 35  1  0  0  0  0
 19 36  1  0  0  0  0
M  CHG  1   1  -1
M  CHG  1   5   1
M  END
> <s_m_source_file>
AV-unprocessed.smi

> <i_m_source_file_index>
1399

> <i_lp_mmshare_version>
43012

> <i_f3d_flags>
0

> <s_epik_input>
W05IMl1DKD1PKVtDSDJdTjFbQ0gyXVtDSDJdW0NIXShbQ0gyXVtDSDJdMSlbTkhdQyg9TylbTkhdYzJbY0hdbltuSF1bY0hdMg==

> <s_epik_cmdline>
J2VwaWtfcHl0aG9uJywgJy1waCcsICc3LjAnLCAnLXRuJywgJzgnLCAnLW1hJywgJzIwMCcsICctbWV0YWxfYmluZGluZycsICctaW1hZScsICc8aW5maWxlLm1hZT4nLCAnLW9tYWUnLCAnPG91dGZpbGUubWFlPic=

> <r_lp_tautomer_probability>
0.5

> <r_epik_Ionization_Penalty>
5.72885

> <r_epik_Ionization_Penalty_Charging>
5.7288

> <r_epik_Ionization_Penalty_Neutral>
4.21226e-05

> <r_epik_State_Penalty>
6.54882

> <r_epik_Charging_Adjusted_Penalty>
12.2776

> <i_epik_Tot_Q>
0

> <i_epik_Tot_abs_Q>
2

> <r_epik_Metal_State_Penalty>
2.51297

> <b_epik_Metal_Only>
1

> <s_lp_Force_Field>
OPLS_2005

> <r_lp_Energy>
11.0753

> <b_lp_Chiralities_Consistent>
1

> <s_lp_Variant>
AV-unprocessed.smi:1399-4

> <Gold.Version>
5.8.1

> <Gold.Id.Protein>
6NUR|6NUR_protein|mol2

> <Gold.PLP.Fitness>
49.7727

> <Gold.PLP.PLP>
-35.9991

> <Gold.PLP.part.hbond>
-7.9859

> <Gold.PLP.part.metal>
0.0000

> <Gold.PLP.part.buried>
-6.1989

> <Gold.PLP.part.nonpolar>
-25.1708

> <Gold.PLP.part.repulsive>
2.7487

> <Gold.PLP.ligand.clash>
0.0000

> <Gold.PLP.ligand.torsion>
0.6269

> <Gold.PLP.Chemscore.Hbond>
4.4720

> <Gold.PLP.Chemscore.CHOScore>
0.5312

> <Gold.PLP.Chemscore.Metal>
0.0000

> <Gold.Chemscore.Hbonds>
donor molecule, donor type, donor heavy atom, donor atom, acceptor molecule, acceptor atom, score
      L1  H     1    21       P1 10952  0.93
      L1  H     9    29       P1 10175  0.89
      L1  H    12    30       P1 10175  1.00
      L1  H    16    20       P1  8028  1.00
      P1  H  8011  8017       L1    15  0.42
      L1  C    14    31       P1  7957  0.51

> <Gold.PLP.Chemscore.Internal.Correction>
0.0177

> <Gold.Rescore>
     Score         DG    S(hbond)    S(metal)    S(lipo)     H(rot)  DE(clash)    DE(int)     intcor
     16.17     -19.11       3.87        0.00      51.16       2.06       1.18       1.75       ----

> <Gold.Chemscore.Fitness>
16.1726

> <Gold.Chemscore.DG>
-19.1067

> <Gold.Chemscore.ZeroCoef>
-5.4800

> <Gold.Chemscore.Hbond>
3.8655

> <Gold.Chemscore.Metal>
0.0000

> <Gold.Chemscore.Lipo>
51.1568

> <Gold.Chemscore.Internal_Hbond>
0.0000

> <Gold.Chemscore.DEClash>
1.1825

> <Gold.Chemscore.DEInternal>
1.7515

> <Gold.Chemscore.Rot>
2.0584

> <Gold.Chemscore.Internal.Correction>
   9.000000E+99

> <Gold.Chemscore.Hbonds>
donor molecule, donor type, donor heavy atom, donor atom, acceptor molecule, acceptor atom, score
      L1  H     1    21       P1 10952  0.89
      L1  H     9    29       P1 10175  0.81
      L1  H    12    30       P1 10175  0.98
      L1  H    16    20       P1  8028  0.94
      P1  H  8011  8017       L1    15  0.03

> <Gold.Chemscore.Hbond.Weighted>
-12.9108

> <Gold.Chemscore.Metal.Weighted>
-0.0000

> <Gold.Chemscore.Lipo.Weighted>
-5.9853

> <Gold.Chemscore.Internal_Hbond.Weighted>
0.0000

> <Gold.Chemscore.DEClash.Weighted>
1.1825

> <Gold.Chemscore.DEInternal.Weighted>
1.7515

> <Gold.Chemscore.Rot.Weighted>
5.2695

> <Gold.Chemscore.Internal.Correction.Weighted>
   9.000000E+99

> <Gold.Protein.RotatedTorsions>
[ 6907 6896 6895 6894 ] final  -32.96 input  -60.11 | X-H torsion
[ 7974 7965 7964 7962 ] final -100.43 input  175.53 | X-H torsion
[ 8008 7997 7996 7995 ] final  -58.75 input   59.86 | X-H torsion
[ 10167 10162 10161 10158 ] final  -91.30 input  -65.29 | X-H torsion
[ 10718 10713 10712 10709 ] final  117.87 input   66.30 | X-H torsion
[ 10763 10752 10751 10750 ] final   42.67 input  -60.55 | X-H torsion
[ 11005 11000 10999 10996 ] final   21.09 input  -57.11 | X-H torsion

> <Gold.Protein.ActiveResidues>
 VAL166  LYS551  ARG553  GLY616  TRP617  ASP618  TYR619  PRO620  LYS621  CYS622 
 ASP623  PHE694  ASN695  SER759  ASP760  ASP761  ALA762  ILE779  LEU786  VAL792 
 PHE793  MET794  SER795  GLU796  ALA797  LYS798  CYS799  TRP800  GLU811  SER814 

> <Gold.Protein.RotatedAtoms>
  151.0719  134.9803  159.8312 H   0  0  0  0  0  0  0  0  0  0  0  0  # atno 6907 bound_to 6896
  152.5409  134.2289  159.8827 H   0  0  0  0  0  0  0  0  0  0  0  0  # atno 6908 bound_to 6896
  151.2314  133.4405  159.2637 H   0  0  0  0  0  0  0  0  0  0  0  0  # atno 6909 bound_to 6896
  145.2947  140.9362  143.2857 H   0  0  0  0  0  0  0  0  0  0  0  0  # atno 7974 bound_to 7965
  154.4322  140.1077  156.6006 H   0  0  0  0  0  0  0  0  0  0  0  0  # atno 8008 bound_to 7997
  155.5915  140.3492  155.4549 H   0  0  0  0  0  0  0  0  0  0  0  0  # atno 8009 bound_to 7997
  156.0243  140.1246  157.0314 H   0  0  0  0  0  0  0  0  0  0  0  0  # atno 8010 bound_to 7997
  140.3462  143.2915  151.9778 H   0  0  0  0  0  0  0  0  0  0  0  0  # atno 10167 bound_to 10162
  157.6068  131.1042  150.7676 H   0  0  0  0  0  0  0  0  0  0  0  0  # atno 10718 bound_to 10713
  152.9877  135.6124  154.2988 H   0  0  0  0  0  0  0  0  0  0  0  0  # atno 10763 bound_to 10752
  154.2709  135.2779  155.2740 H   0  0  0  0  0  0  0  0  0  0  0  0  # atno 10764 bound_to 10752
  154.5123  135.5837  153.6671 H   0  0  0  0  0  0  0  0  0  0  0  0  # atno 10765 bound_to 10752
  140.3954  134.1774  155.7663 H   0  0  0  0  0  0  0  0  0  0  0  0  # atno 11005 bound_to 11000
  144.9143  139.4489  143.6572 LP  0  0  0  0  0  0  0  0  0  0  0  0  # atno 17320 bound_to 7965
  146.3173  139.7969  142.8973 LP  0  0  0  0  0  0  0  0  0  0  0  0  # atno 17321 bound_to 7965
  139.4833  144.6115  151.7425 LP  0  0  0  0  0  0  0  0  0  0  0  0  # atno 17342 bound_to 10162
  140.5262  144.0802  150.6038 LP  0  0  0  0  0  0  0  0  0  0  0  0  # atno 17343 bound_to 10162
  156.8063  130.4937  149.5362 LP  0  0  0  0  0  0  0  0  0  0  0  0  # atno 17370 bound_to 10713
  156.1157  130.6073  151.0116 LP  0  0  0  0  0  0  0  0  0  0  0  0  # atno 17371 bound_to 10713
  141.1876  133.8278  157.1027 LP  0  0  0  0  0  0  0  0  0  0  0  0  # atno 17394 bound_to 11000
  140.0375  134.9871  157.0899 LP  0  0  0  0  0  0  0  0  0  0  0  0  # atno 17395 bound_to 11000

$$$$
