AV-unprocessed.smi:2761|AV-procd|sdf|10633|dock4
  -GOLD-   2272015 83D 1   1.00000     0.00000
 Structure written by MMmdl.
 27 28  0  0  0  0  0  0  0  0  1 V2000
  150.2280  136.7321  160.0523 O   0  0  0  0  0  0  0  0  0  0  0  0
  149.1557  136.9554  159.4861 C   0  0  0  0  0  0  0  0  0  0  0  0
  149.0204  137.6147  158.3147 N   0  0  0  0  0  0  0  0  0  0  0  0
  150.0197  138.1880  157.5206 C   0  0  0  0  0  0  0  0  0  0  0  0
  149.5700  138.3892  156.1640 C   0  0  0  0  0  0  0  0  0  0  0  0
  150.4405  138.9388  155.2897 C   0  0  0  0  0  0  0  0  0  0  0  0
  151.7900  139.3187  155.7062 C   0  0  0  0  0  0  0  0  0  0  0  0
  152.6324  139.8238  154.9683 O   0  0  0  0  0  0  0  0  0  0  0  0
  152.0412  139.0589  157.0166 N   0  0  0  0  0  0  0  0  0  0  0  0
  151.2011  138.4971  157.9708 N   0  0  0  0  0  0  0  0  0  0  0  0
  147.8439  136.4486  160.1041 C   0  0  1  0  0  0  0  0  0  0  0  0
  147.8067  134.9123  160.2795 C   0  0  0  0  0  0  0  0  0  0  0  0
  146.5797  134.5392  160.8931 O   0  0  0  0  0  0  0  0  0  0  0  0
  146.4332  135.1473  162.1685 C   0  0  0  0  0  0  0  0  0  0  0  0
  146.4557  136.6747  161.9974 C   0  0  0  0  0  0  0  0  0  0  0  0
  147.6808  137.0540  161.3847 O   0  0  0  0  0  0  0  0  0  0  0  0
  148.0713  137.7021  157.9816 H   0  0  0  0  0  0  0  0  0  0  0  0
  148.5806  138.1218  155.8216 H   0  0  0  0  0  0  0  0  0  0  0  0
  150.1375  139.1020  154.2659 H   0  0  0  0  0  0  0  0  0  0  0  0
  152.9540  139.2947  157.3791 H   0  0  0  0  0  0  0  0  0  0  0  0
  147.0282  136.7633  159.4507 H   0  0  0  0  0  0  0  0  0  0  0  0
  147.8717  134.4115  159.3130 H   0  0  0  0  0  0  0  0  0  0  0  0
  148.6465  134.5610  160.8820 H   0  0  0  0  0  0  0  0  0  0  0  0
  145.4885  134.8287  162.6091 H   0  0  0  0  0  0  0  0  0  0  0  0
  147.2290  134.8177  162.8384 H   0  0  0  0  0  0  0  0  0  0  0  0
  145.6115  137.0123  161.3942 H   0  0  0  0  0  0  0  0  0  0  0  0
  146.3756  137.1661  162.9671 H   0  0  0  0  0  0  0  0  0  0  0  0
  1  2  2  0  0  0  0
  2  3  1  0  0  0  0
  2 11  1  0  0  0  0
  3 17  1  0  0  0  0
  3  4  1  0  0  0  0
  4  5  1  0  0  0  0
  4 10  2  0  0  0  0
  5  6  2  0  0  0  0
  5 18  1  0  0  0  0
  6  7  1  0  0  0  0
  6 19  1  0  0  0  0
  7  8  2  0  0  0  0
  7  9  1  0  0  0  0
  9 10  1  0  0  0  0
  9 20  1  0  0  0  0
 11 16  1  0  0  0  0
 11 12  1  0  0  0  0
 11 21  1  0  0  0  0
 12 13  1  0  0  0  0
 12 22  1  0  0  0  0
 12 23  1  0  0  0  0
 13 14  1  0  0  0  0
 14 15  1  0  0  0  0
 14 24  1  0  0  0  0
 14 25  1  0  0  0  0
 15 16  1  0  0  0  0
 15 26  1  0  0  0  0
 15 27  1  0  0  0  0
M  END
> <s_m_source_file>
AV-unprocessed.smi

> <i_m_source_file_index>
2761

> <i_lp_mmshare_version>
43012

> <i_f3d_flags>
0

> <s_epik_input>
TzFbQ0gyXVtDSDJdT1tDSDJdW0NASF0xQyg9TylbTkhdYzJbY0hdW2NIXWMoW09IXSlubjI=

> <s_epik_cmdline>
J2VwaWtfcHl0aG9uJywgJy1waCcsICc3LjAnLCAnLXRuJywgJzgnLCAnLW1hJywgJzIwMCcsICctbWV0YWxfYmluZGluZycsICctaW1hZScsICc8aW5maWxlLm1hZT4nLCAnLW9tYWUnLCAnPG91dGZpbGUubWFlPic=

> <r_lp_tautomer_probability>
1

> <r_epik_Ionization_Penalty>
0.000593199

> <r_epik_Ionization_Penalty_Charging>
0.000590119

> <r_epik_Ionization_Penalty_Neutral>
3.08036e-06

> <r_epik_State_Penalty>
-0

> <r_epik_Charging_Adjusted_Penalty>
0.000590119

> <i_epik_Tot_Q>
0

> <i_epik_Tot_abs_Q>
0

> <r_epik_Metal_State_Penalty>
0.240077

> <b_epik_Metal_Only>
0

> <s_lp_Force_Field>
OPLS_2005

> <r_lp_Energy>
26.3126

> <b_lp_Chiralities_Consistent>
1

> <s_lp_Variant>
AV-unprocessed.smi:2761-2

> <Gold.Version>
5.8.1

> <Gold.Id.Protein>
6NUR|6NUR_protein|mol2

> <Gold.PLP.Fitness>
34.0758

> <Gold.PLP.PLP>
-21.4384

> <Gold.PLP.part.hbond>
-5.8457

> <Gold.PLP.part.metal>
0.0000

> <Gold.PLP.part.buried>
-2.8971

> <Gold.PLP.part.nonpolar>
-14.1344

> <Gold.PLP.part.repulsive>
0.2368

> <Gold.PLP.ligand.clash>
0.0000

> <Gold.PLP.ligand.torsion>
0.0890

> <Gold.PLP.Chemscore.Hbond>
4.2714

> <Gold.PLP.Chemscore.CHOScore>
0.0000

> <Gold.PLP.Chemscore.Metal>
0.0000

> <Gold.Chemscore.Hbonds>
donor molecule, donor type, donor heavy atom, donor atom, acceptor molecule, acceptor atom, score
      P1  H  6896  6908       L1     1  1.00
      P1  H  6931  6943       L1    16  1.00
      P1  H  6934  6947       L1    16  0.67
      P1  H  7989  7998       L1     8  0.54
      P1  H  7997  8009       L1     8  0.78

> <Gold.PLP.Chemscore.Internal.Correction>
0.0012

> <Gold.Rescore>
     Score         DG    S(hbond)    S(metal)    S(lipo)     H(rot)  DE(clash)    DE(int)     intcor
     15.93     -17.34       3.11        0.00      34.50       1.00       0.05       1.36       ----

> <Gold.Chemscore.Fitness>
15.9316

> <Gold.Chemscore.DG>
-17.3356

> <Gold.Chemscore.ZeroCoef>
-5.4800

> <Gold.Chemscore.Hbond>
3.1075

> <Gold.Chemscore.Metal>
0.0000

> <Gold.Chemscore.Lipo>
34.5014

> <Gold.Chemscore.Internal_Hbond>
0.0000

> <Gold.Chemscore.DEClash>
0.0480

> <Gold.Chemscore.DEInternal>
1.3560

> <Gold.Chemscore.Rot>
1.0000

> <Gold.Chemscore.Internal.Correction>
   9.000000E+99

> <Gold.Chemscore.Hbonds>
donor molecule, donor type, donor heavy atom, donor atom, acceptor molecule, acceptor atom, score
      P1  H  6896  6908       L1     1  0.96
      P1  H  6931  6943       L1    16  0.89
      P1  H  6934  6947       L1    16  0.06
      P1  H  7989  7998       L1     8  0.35
      P1  H  7997  8009       L1     8  0.74

> <Gold.Chemscore.Hbond.Weighted>
-10.3789

> <Gold.Chemscore.Metal.Weighted>
-0.0000

> <Gold.Chemscore.Lipo.Weighted>
-4.0367

> <Gold.Chemscore.Internal_Hbond.Weighted>
0.0000

> <Gold.Chemscore.DEClash.Weighted>
0.0480

> <Gold.Chemscore.DEInternal.Weighted>
1.3560

> <Gold.Chemscore.Rot.Weighted>
2.5600

> <Gold.Chemscore.Internal.Correction.Weighted>
   9.000000E+99

> <Gold.Protein.RotatedTorsions>
[ 6907 6896 6895 6894 ] final -155.39 input  -60.11 | X-H torsion
[ 7974 7965 7964 7962 ] final   95.06 input  175.53 | X-H torsion
[ 8008 7997 7996 7995 ] final -121.72 input   59.86 | X-H torsion
[ 10167 10162 10161 10158 ] final    5.21 input  -65.29 | X-H torsion
[ 10718 10713 10712 10709 ] final  160.86 input   66.30 | X-H torsion
[ 10763 10752 10751 10750 ] final  -49.91 input  -60.55 | X-H torsion
[ 11005 11000 10999 10996 ] final  -53.75 input  -57.11 | X-H torsion

> <Gold.Protein.ActiveResidues>
 VAL166  LYS551  ARG553  GLY616  TRP617  ASP618  TYR619  PRO620  LYS621  CYS622 
 ASP623  PHE694  ASN695  SER759  ASP760  ASP761  ALA762  ILE779  LEU786  VAL792 
 PHE793  MET794  SER795  GLU796  ALA797  LYS798  CYS799  TRP800  GLU811  SER814 

> <Gold.Protein.RotatedAtoms>
  151.2718  133.4251  159.2621 H   0  0  0  0  0  0  0  0  0  0  0  0  # atno 6907 bound_to 6896
  151.0438  134.9626  159.8186 H   0  0  0  0  0  0  0  0  0  0  0  0  # atno 6908 bound_to 6896
  152.5370  134.2675  159.9011 H   0  0  0  0  0  0  0  0  0  0  0  0  # atno 6909 bound_to 6896
  145.4572  139.2289  143.3007 H   0  0  0  0  0  0  0  0  0  0  0  0  # atno 7974 bound_to 7965
  155.1526  140.0404  157.2824 H   0  0  0  0  0  0  0  0  0  0  0  0  # atno 8008 bound_to 7997
  154.6393  140.2543  155.7314 H   0  0  0  0  0  0  0  0  0  0  0  0  # atno 8009 bound_to 7997
  156.2524  140.2859  156.0780 H   0  0  0  0  0  0  0  0  0  0  0  0  # atno 8010 bound_to 7997
  140.6494  143.7582  150.7551 H   0  0  0  0  0  0  0  0  0  0  0  0  # atno 10167 bound_to 10162
  157.1446  131.0549  151.2310 H   0  0  0  0  0  0  0  0  0  0  0  0  # atno 10718 bound_to 10713
  154.1017  135.6562  153.4869 H   0  0  0  0  0  0  0  0  0  0  0  0  # atno 10763 bound_to 10752
  153.0286  135.5226  154.7280 H   0  0  0  0  0  0  0  0  0  0  0  0  # atno 10764 bound_to 10752
  154.6434  135.2991  155.0045 H   0  0  0  0  0  0  0  0  0  0  0  0  # atno 10765 bound_to 10752
  141.0991  133.6620  156.4218 H   0  0  0  0  0  0  0  0  0  0  0  0  # atno 11005 bound_to 11000
  146.2471  140.5337  142.8909 LP  0  0  0  0  0  0  0  0  0  0  0  0  # atno 17320 bound_to 7965
  144.8025  140.6239  143.6469 LP  0  0  0  0  0  0  0  0  0  0  0  0  # atno 17321 bound_to 7965
  140.1229  143.4595  152.2302 LP  0  0  0  0  0  0  0  0  0  0  0  0  # atno 17342 bound_to 10162
  139.5708  144.7461  151.3897 LP  0  0  0  0  0  0  0  0  0  0  0  0  # atno 17343 bound_to 10162
  157.4276  130.7472  149.6964 LP  0  0  0  0  0  0  0  0  0  0  0  0  # atno 17370 bound_to 10713
  155.9782  130.4054  150.3664 LP  0  0  0  0  0  0  0  0  0  0  0  0  # atno 17371 bound_to 10713
  140.5065  134.6435  157.5268 LP  0  0  0  0  0  0  0  0  0  0  0  0  # atno 17394 bound_to 11000
  139.9837  134.7095  155.9812 LP  0  0  0  0  0  0  0  0  0  0  0  0  # atno 17395 bound_to 11000

$$$$
