AV-unprocessed.smi:1641|AV-procd|sdf|6562|dock3
  -GOLD-   22720 7243D 1   1.00000     0.00000
 Structure written by MMmdl.
 42 43  0  0  0  0  0  0  0  0  2 V2000
  151.9273  140.2162  158.2037 C   0  0  0  0  0  0  0  0  0  0  0  0
  151.4590  139.9605  156.8120 C   0  0  0  0  0  0  0  0  0  0  0  0
  152.2959  139.8756  155.7707 N   0  0  0  0  0  0  0  0  0  0  0  0
  151.6295  139.6273  154.5788 N   0  0  0  0  0  0  0  0  0  0  0  0
  150.3050  139.5302  154.7578 C   0  0  0  0  0  0  0  0  0  0  0  0
  149.3834  139.2780  153.7070 N   0  0  0  0  0  0  0  0  0  0  0  0
  148.1171  138.8350  153.7985 C   0  0  0  0  0  0  0  0  0  0  0  0
  147.5279  138.5688  154.8464 O   0  0  0  0  0  0  0  0  0  0  0  0
  147.5526  138.7165  152.5878 N   0  0  0  0  0  0  0  0  0  0  0  0
  146.1909  138.2529  152.3455 C   0  0  0  0  0  0  0  0  0  0  0  0
  146.1467  137.1734  151.2468 C   0  0  0  0  0  0  0  0  0  0  0  0
  146.2096  135.7960  151.8039 N   0  3  1  0  0  0  0  0  0  0  0  0
  145.3855  135.6116  153.0237 C   0  0  0  0  0  0  0  0  0  0  0  0
  143.8904  135.4687  152.6733 C   0  0  2  0  0  0  0  0  0  0  0  0
  143.0311  135.1932  153.9118 C   0  0  0  0  0  0  0  0  0  0  0  0
  143.7318  134.3769  151.7737 O   0  0  0  0  0  0  0  0  0  0  0  0
  144.4231  134.5681  150.5438 C   0  0  2  0  0  0  0  0  0  0  0  0
  144.1187  133.3707  149.6372 C   0  0  0  0  0  0  0  0  0  0  0  0
  145.9345  134.7118  150.8263 C   0  0  0  0  0  0  0  0  0  0  0  0
  149.7598  139.7375  156.4136 S   0  0  0  0  0  0  0  0  0  0  0  0
  152.8760  140.7540  158.1952 H   0  0  0  0  0  0  0  0  0  0  0  0
  152.0641  139.2709  158.7287 H   0  0  0  0  0  0  0  0  0  0  0  0
  151.1933  140.8145  158.7437 H   0  0  0  0  0  0  0  0  0  0  0  0
  149.7313  139.4562  152.7764 H   0  0  0  0  0  0  0  0  0  0  0  0
  148.1064  138.9532  151.7773 H   0  0  0  0  0  0  0  0  0  0  0  0
  145.8110  137.8635  153.2892 H   0  0  0  0  0  0  0  0  0  0  0  0
  145.5529  139.0971  152.0781 H   0  0  0  0  0  0  0  0  0  0  0  0
  145.2099  137.2831  150.6989 H   0  0  0  0  0  0  0  0  0  0  0  0
  146.9428  137.3343  150.5201 H   0  0  0  0  0  0  0  0  0  0  0  0
  145.7279  134.7090  153.5323 H   0  0  0  0  0  0  0  0  0  0  0  0
  145.5464  136.4332  153.7227 H   0  0  0  0  0  0  0  0  0  0  0  0
  143.5262  136.3821  152.2000 H   0  0  0  0  0  0  0  0  0  0  0  0
  143.1094  136.0073  154.6328 H   0  0  0  0  0  0  0  0  0  0  0  0
  143.3380  134.2731  154.4099 H   0  0  0  0  0  0  0  0  0  0  0  0
  141.9799  135.0901  153.6412 H   0  0  0  0  0  0  0  0  0  0  0  0
  144.0425  135.4666  150.0564 H   0  0  0  0  0  0  0  0  0  0  0  0
  144.6166  133.4714  148.6726 H   0  0  0  0  0  0  0  0  0  0  0  0
  143.0478  133.2863  149.4506 H   0  0  0  0  0  0  0  0  0  0  0  0
  144.4516  132.4363  150.0900 H   0  0  0  0  0  0  0  0  0  0  0  0
  146.4867  134.8667  149.9004 H   0  0  0  0  0  0  0  0  0  0  0  0
  146.3113  133.7790  151.2487 H   0  0  0  0  0  0  0  0  0  0  0  0
  147.1680  135.6801  152.1020 H   0  0  0  0  0  0  0  0  0  0  0  0
  1  2  1  0  0  0  0
  1 21  1  0  0  0  0
  1 22  1  0  0  0  0
  1 23  1  0  0  0  0
  2 20  1  0  0  0  0
  2  3  2  0  0  0  0
  3  4  1  0  0  0  0
  4  5  2  0  0  0  0
  5  6  1  0  0  0  0
  5 20  1  0  0  0  0
  6  7  1  0  0  0  0
  6 24  1  0  0  0  0
  7  8  2  0  0  0  0
  7  9  1  0  0  0  0
  9 10  1  0  0  0  0
  9 25  1  0  0  0  0
 10 11  1  0  0  0  0
 10 26  1  0  0  0  0
 10 27  1  0  0  0  0
 11 12  1  0  0  0  0
 11 28  1  0  0  0  0
 11 29  1  0  0  0  0
 12 19  1  0  0  0  0
 12 13  1  0  0  0  0
 12 42  1  0  0  0  0
 13 14  1  0  0  0  0
 13 30  1  0  0  0  0
 13 31  1  0  0  0  0
 14 15  1  0  0  0  0
 14 16  1  0  0  0  0
 14 32  1  0  0  0  0
 15 33  1  0  0  0  0
 15 34  1  0  0  0  0
 15 35  1  0  0  0  0
 16 17  1  0  0  0  0
 17 18  1  0  0  0  0
 17 19  1  0  0  0  0
 17 36  1  0  0  0  0
 18 37  1  0  0  0  0
 18 38  1  0  0  0  0
 18 39  1  0  0  0  0
 19 40  1  0  0  0  0
 19 41  1  0  0  0  0
M  CHG  1  12   1
M  END
> <s_m_source_file>
AV-unprocessed.smi

> <i_m_source_file_index>
1641

> <i_lp_mmshare_version>
43012

> <i_f3d_flags>
0

> <s_epik_input>
W0NIM11jMW5uYyhzMSlbTkhdQyg9TylbTkhdW0NIMl1bQ0gyXU4yW0NIMl1bQ0BASF0oW0NIM10pT1tDQEBIXShbQ0gzXSlbQ0gyXTI=

> <s_epik_cmdline>
J2VwaWtfcHl0aG9uJywgJy1waCcsICc3LjAnLCAnLXRuJywgJzgnLCAnLW1hJywgJzIwMCcsICctbWV0YWxfYmluZGluZycsICctaW1hZScsICc8aW5maWxlLm1hZT4nLCAnLW9tYWUnLCAnPG91dGZpbGUubWFlPic=

> <r_lp_tautomer_probability>
1

> <r_epik_Ionization_Penalty>
0.700114

> <r_epik_Ionization_Penalty_Charging>
0.695697

> <r_epik_Ionization_Penalty_Neutral>
0.00441638

> <r_epik_State_Penalty>
0.717972

> <r_epik_Charging_Adjusted_Penalty>
1.41367

> <i_epik_Tot_Q>
1

> <i_epik_Tot_abs_Q>
1

> <r_epik_Metal_State_Penalty>
1.06958

> <b_epik_Metal_Only>
0

> <s_lp_Force_Field>
OPLS_2005

> <r_lp_Energy>
15.6889

> <b_lp_Chiralities_Consistent>
1

> <s_lp_Variant>
AV-unprocessed.smi:1641-7

> <Gold.Version>
5.8.1

> <Gold.Id.Protein>
6NUR|6NUR_protein|mol2

> <Gold.PLP.Fitness>
45.6681

> <Gold.PLP.PLP>
-30.0276

> <Gold.PLP.part.hbond>
-5.7321

> <Gold.PLP.part.metal>
0.0000

> <Gold.PLP.part.buried>
-1.0099

> <Gold.PLP.part.nonpolar>
-23.6243

> <Gold.PLP.part.repulsive>
0.5474

> <Gold.PLP.ligand.clash>
0.0000

> <Gold.PLP.ligand.torsion>
0.4645

> <Gold.PLP.Chemscore.Hbond>
5.5160

> <Gold.PLP.Chemscore.CHOScore>
0.0000

> <Gold.PLP.Chemscore.Metal>
0.0000

> <Gold.Chemscore.Hbonds>
donor molecule, donor type, donor heavy atom, donor atom, acceptor molecule, acceptor atom, score
      L1  H     6    24       P1  7957  1.00
      L1  H     9    25       P1  7957  0.91
      L1  H    12    42       P1  7948  1.82
      P1  H  7989  7998       L1     4  0.95
      P1  H  7997  8008       L1     3  0.80

> <Gold.PLP.Chemscore.Internal.Correction>
0.0215

> <Gold.Rescore>
     Score         DG    S(hbond)    S(metal)    S(lipo)     H(rot)  DE(clash)    DE(int)     intcor
     19.67     -22.21       4.12        0.00      61.20       1.64       0.92       1.62       ----

> <Gold.Chemscore.Fitness>
19.6713

> <Gold.Chemscore.DG>
-22.2121

> <Gold.Chemscore.ZeroCoef>
-5.4800

> <Gold.Chemscore.Hbond>
4.1195

> <Gold.Chemscore.Metal>
0.0000

> <Gold.Chemscore.Lipo>
61.2043

> <Gold.Chemscore.Internal_Hbond>
0.0000

> <Gold.Chemscore.DEClash>
0.9223

> <Gold.Chemscore.DEInternal>
1.6186

> <Gold.Chemscore.Rot>
1.6358

> <Gold.Chemscore.Internal.Correction>
   9.000000E+99

> <Gold.Chemscore.Hbonds>
donor molecule, donor type, donor heavy atom, donor atom, acceptor molecule, acceptor atom, score
      L1  H     6    24       P1  7957  0.98
      L1  H     9    25       P1  7957  0.81
      L1  H    12    42       P1  7948  0.88
      P1  H  7989  7998       L1     4  0.19
      P1  H  7997  8008       L1     3  0.73

> <Gold.Chemscore.Hbond.Weighted>
-13.7590

> <Gold.Chemscore.Metal.Weighted>
-0.0000

> <Gold.Chemscore.Lipo.Weighted>
-7.1609

> <Gold.Chemscore.Internal_Hbond.Weighted>
0.0000

> <Gold.Chemscore.DEClash.Weighted>
0.9223

> <Gold.Chemscore.DEInternal.Weighted>
1.6186

> <Gold.Chemscore.Rot.Weighted>
4.1878

> <Gold.Chemscore.Internal.Correction.Weighted>
   9.000000E+99

> <Gold.Protein.RotatedTorsions>
[ 6907 6896 6895 6894 ] final -113.60 input  -60.11 | X-H torsion
[ 7974 7965 7964 7962 ] final -117.45 input  175.53 | X-H torsion
[ 8008 7997 7996 7995 ] final  -34.07 input   59.86 | X-H torsion
[ 10167 10162 10161 10158 ] final  162.21 input  -65.29 | X-H torsion
[ 10718 10713 10712 10709 ] final   69.86 input   66.30 | X-H torsion
[ 10763 10752 10751 10750 ] final  -30.90 input  -60.55 | X-H torsion
[ 11005 11000 10999 10996 ] final  173.81 input  -57.11 | X-H torsion

> <Gold.Protein.ActiveResidues>
 VAL166  LYS551  ARG553  GLY616  TRP617  ASP618  TYR619  PRO620  LYS621  CYS622 
 ASP623  PHE694  ASN695  SER759  ASP760  ASP761  ALA762  ILE779  LEU786  VAL792 
 PHE793  MET794  SER795  GLU796  ALA797  LYS798  CYS799  TRP800  GLU811  SER814 

> <Gold.Protein.RotatedAtoms>
  150.7841  133.8921  159.3316 H   0  0  0  0  0  0  0  0  0  0  0  0  # atno 6907 bound_to 6896
  151.6776  135.0965  160.0219 H   0  0  0  0  0  0  0  0  0  0  0  0  # atno 6908 bound_to 6896
  152.3900  133.6627  159.6265 H   0  0  0  0  0  0  0  0  0  0  0  0  # atno 6909 bound_to 6896
  145.0851  140.8452  143.4016 H   0  0  0  0  0  0  0  0  0  0  0  0  # atno 7974 bound_to 7965
  154.4131  140.1693  156.1991 H   0  0  0  0  0  0  0  0  0  0  0  0  # atno 8008 bound_to 7997
  155.9539  140.3399  155.6408 H   0  0  0  0  0  0  0  0  0  0  0  0  # atno 8009 bound_to 7997
  155.6834  140.0725  157.2466 H   0  0  0  0  0  0  0  0  0  0  0  0  # atno 8010 bound_to 7997
  139.4858  144.4460  151.8891 H   0  0  0  0  0  0  0  0  0  0  0  0  # atno 10167 bound_to 10162
  157.6369  130.9447  150.0572 H   0  0  0  0  0  0  0  0  0  0  0  0  # atno 10718 bound_to 10713
  153.7885  135.6899  153.4875 H   0  0  0  0  0  0  0  0  0  0  0  0  # atno 10763 bound_to 10752
  153.1765  135.4523  154.9970 H   0  0  0  0  0  0  0  0  0  0  0  0  # atno 10764 bound_to 10752
  154.8054  135.3354  154.7383 H   0  0  0  0  0  0  0  0  0  0  0  0  # atno 10765 bound_to 10752
  140.3445  134.7248  157.4225 H   0  0  0  0  0  0  0  0  0  0  0  0  # atno 11005 bound_to 11000
  145.1132  139.2743  143.5626 LP  0  0  0  0  0  0  0  0  0  0  0  0  # atno 17320 bound_to 7965
  146.3531  140.0734  142.8622 LP  0  0  0  0  0  0  0  0  0  0  0  0  # atno 17321 bound_to 7965
  140.3914  144.2610  150.5899 LP  0  0  0  0  0  0  0  0  0  0  0  0  # atno 17342 bound_to 10162
  140.5142  143.2282  151.8488 LP  0  0  0  0  0  0  0  0  0  0  0  0  # atno 17343 bound_to 10162
  156.1615  130.3644  149.9292 LP  0  0  0  0  0  0  0  0  0  0  0  0  # atno 17370 bound_to 10713
  156.7289  130.9035  151.3624 LP  0  0  0  0  0  0  0  0  0  0  0  0  # atno 17371 bound_to 10713
  140.0753  134.5805  155.8597 LP  0  0  0  0  0  0  0  0  0  0  0  0  # atno 17394 bound_to 11000
  141.2029  133.6628  156.6034 LP  0  0  0  0  0  0  0  0  0  0  0  0  # atno 17395 bound_to 11000

$$$$
