AV-unprocessed.smi:1522|AV-procd|sdf|6134|dock7
  -GOLD-   22720 6273D 1   1.00000     0.00000
 Structure written by MMmdl.
 35 36  0  0  0  0  0  0  0  0  2 V2000
  146.8361  139.2375  151.5351 C   0  0  0  0  0  0  0  0  0  0  0  0
  147.0720  139.3643  153.0569 C   0  0  2  0  0  0  0  0  0  0  0  0
  146.5896  138.0880  153.7953 C   0  0  0  0  0  0  0  0  0  0  0  0
  146.8124  136.8668  153.0268 N   0  0  0  0  0  0  0  0  0  0  0  0
  145.8478  136.0178  152.6443 C   0  0  0  0  0  0  0  0  0  0  0  0
  144.6567  136.1905  152.9020 O   0  0  0  0  0  0  0  0  0  0  0  0
  146.3548  134.9787  151.9617 N   0  0  0  0  0  0  0  0  0  0  0  0
  145.6599  133.8639  151.4295 C   0  0  0  0  0  0  0  0  0  0  0  0
  144.4068  133.6480  151.8456 N   0  0  0  0  0  0  0  0  0  0  0  0
  143.8433  132.5303  151.2424 N   0  0  0  0  0  0  0  0  0  0  0  0
  144.6944  131.9469  150.3931 C   0  0  0  0  0  0  0  0  0  0  0  0
  146.2702  132.7043  150.2451 S   0  0  0  0  0  0  0  0  0  0  0  0
  146.4044  140.5773  153.6116 N   0  3  0  0  0  0  0  0  0  0  0  0
  146.4795  140.7185  155.0885 C   0  0  0  0  0  0  0  0  0  0  0  0
  146.6521  142.2123  155.3973 C   0  0  0  0  0  0  0  0  0  0  0  0
  146.4176  142.9170  154.0665 C   0  0  0  0  0  0  0  0  0  0  0  0
  146.8446  141.8706  153.0439 C   0  0  0  0  0  0  0  0  0  0  0  0
  147.3140  138.3471  151.1265 H   0  0  0  0  0  0  0  0  0  0  0  0
  147.2505  140.0818  150.9844 H   0  0  0  0  0  0  0  0  0  0  0  0
  145.7722  139.1754  151.3036 H   0  0  0  0  0  0  0  0  0  0  0  0
  148.1448  139.4815  153.2188 H   0  0  0  0  0  0  0  0  0  0  0  0
  147.0782  137.9752  154.7638 H   0  0  0  0  0  0  0  0  0  0  0  0
  145.5216  138.1626  154.0030 H   0  0  0  0  0  0  0  0  0  0  0  0
  147.7661  136.6536  152.7721 H   0  0  0  0  0  0  0  0  0  0  0  0
  147.3536  134.9754  151.8164 H   0  0  0  0  0  0  0  0  0  0  0  0
  144.3914  131.0643  149.8492 H   0  0  0  0  0  0  0  0  0  0  0  0
  145.5659  140.3240  155.5344 H   0  0  0  0  0  0  0  0  0  0  0  0
  147.3202  140.1604  155.5043 H   0  0  0  0  0  0  0  0  0  0  0  0
  145.9733  142.5609  156.1762 H   0  0  0  0  0  0  0  0  0  0  0  0
  147.6711  142.4008  155.7379 H   0  0  0  0  0  0  0  0  0  0  0  0
  145.3569  143.1415  153.9462 H   0  0  0  0  0  0  0  0  0  0  0  0
  146.9727  143.8513  153.9764 H   0  0  0  0  0  0  0  0  0  0  0  0
  147.9312  141.8786  152.9421 H   0  0  0  0  0  0  0  0  0  0  0  0
  146.4067  142.0582  152.0630 H   0  0  0  0  0  0  0  0  0  0  0  0
  145.4220  140.5023  153.3891 H   0  0  0  0  0  0  0  0  0  0  0  0
  1  2  1  0  0  0  0
  1 18  1  0  0  0  0
  1 19  1  0  0  0  0
  1 20  1  0  0  0  0
  2  3  1  0  0  0  0
  2 13  1  0  0  0  0
  2 21  1  0  0  0  0
  3  4  1  0  0  0  0
  3 22  1  0  0  0  0
  3 23  1  0  0  0  0
  4  5  1  0  0  0  0
  4 24  1  0  0  0  0
  5  6  2  0  0  0  0
  5  7  1  0  0  0  0
  7  8  1  0  0  0  0
  7 25  1  0  0  0  0
  8 12  1  0  0  0  0
  8  9  2  0  0  0  0
  9 10  1  0  0  0  0
 10 11  2  0  0  0  0
 11 12  1  0  0  0  0
 11 26  1  0  0  0  0
 13 17  1  0  0  0  0
 13 14  1  0  0  0  0
 13 35  1  0  0  0  0
 14 15  1  0  0  0  0
 14 27  1  0  0  0  0
 14 28  1  0  0  0  0
 15 16  1  0  0  0  0
 15 29  1  0  0  0  0
 15 30  1  0  0  0  0
 16 17  1  0  0  0  0
 16 31  1  0  0  0  0
 16 32  1  0  0  0  0
 17 33  1  0  0  0  0
 17 34  1  0  0  0  0
M  CHG  1  13   1
M  END
> <s_m_source_file>
AV-unprocessed.smi

> <i_m_source_file_index>
1522

> <i_lp_mmshare_version>
43012

> <i_f3d_flags>
0

> <s_epik_input>
W0NIMl0xW0NIMl1bQ0gyXVtDSDJdTjFbQ0BIXShbQ0gzXSlbQ0gyXVtOSF1DKD1PKVtOSF1jMm5uW2NIXXMy

> <s_epik_cmdline>
J2VwaWtfcHl0aG9uJywgJy1waCcsICc3LjAnLCAnLXRuJywgJzgnLCAnLW1hJywgJzIwMCcsICctbWV0YWxfYmluZGluZycsICctaW1hZScsICc8aW5maWxlLm1hZT4nLCAnLW9tYWUnLCAnPG91dGZpbGUubWFlPic=

> <r_lp_tautomer_probability>
1

> <r_epik_Ionization_Penalty>
0.00457064

> <r_epik_Ionization_Penalty_Charging>
0.000848324

> <r_epik_Ionization_Penalty_Neutral>
0.00372231

> <r_epik_State_Penalty>
-0

> <r_epik_Charging_Adjusted_Penalty>
0.000848324

> <i_epik_Tot_Q>
1

> <i_epik_Tot_abs_Q>
1

> <r_epik_Metal_State_Penalty>
0.370178

> <b_epik_Metal_Only>
0

> <s_lp_Force_Field>
OPLS_2005

> <r_lp_Energy>
27.0536

> <b_lp_Chiralities_Consistent>
1

> <s_lp_Variant>
AV-unprocessed.smi:1522-1

> <Gold.Version>
5.8.1

> <Gold.Id.Protein>
6NUR|6NUR_protein|mol2

> <Gold.PLP.Fitness>
38.0043

> <Gold.PLP.PLP>
-27.0629

> <Gold.PLP.part.hbond>
-3.0000

> <Gold.PLP.part.metal>
0.0000

> <Gold.PLP.part.buried>
-3.2669

> <Gold.PLP.part.nonpolar>
-20.9996

> <Gold.PLP.part.repulsive>
0.4759

> <Gold.PLP.ligand.clash>
0.0000

> <Gold.PLP.ligand.torsion>
0.3097

> <Gold.PLP.Chemscore.Hbond>
3.8406

> <Gold.PLP.Chemscore.CHOScore>
0.0000

> <Gold.PLP.Chemscore.Metal>
0.0000

> <Gold.Chemscore.Hbonds>
donor molecule, donor type, donor heavy atom, donor atom, acceptor molecule, acceptor atom, score
      L1  H     4    24       P1  7948  1.00
      L1  H     7    25       P1  7948  0.85
      L1  H    13    35       P1 10175  2.00

> <Gold.PLP.Chemscore.Internal.Correction>
0.0391

> <Gold.Rescore>
     Score         DG    S(hbond)    S(metal)    S(lipo)     H(rot)  DE(clash)    DE(int)     intcor
     14.79     -16.75       2.57        0.00      60.15       1.70       0.23       1.73       ----

> <Gold.Chemscore.Fitness>
14.7893

> <Gold.Chemscore.DG>
-16.7531

> <Gold.Chemscore.ZeroCoef>
-5.4800

> <Gold.Chemscore.Hbond>
2.5734

> <Gold.Chemscore.Metal>
0.0000

> <Gold.Chemscore.Lipo>
60.1451

> <Gold.Chemscore.Internal_Hbond>
0.0000

> <Gold.Chemscore.DEClash>
0.2321

> <Gold.Chemscore.DEInternal>
1.7316

> <Gold.Chemscore.Rot>
1.7028

> <Gold.Chemscore.Internal.Correction>
   9.000000E+99

> <Gold.Chemscore.Hbonds>
donor molecule, donor type, donor heavy atom, donor atom, acceptor molecule, acceptor atom, score
      L1  H     4    24       P1  7948  0.94
      L1  H     7    25       P1  7948  0.71
      L1  H    13    35       P1 10175  0.95

> <Gold.Chemscore.Hbond.Weighted>
-8.5953

> <Gold.Chemscore.Metal.Weighted>
-0.0000

> <Gold.Chemscore.Lipo.Weighted>
-7.0370

> <Gold.Chemscore.Internal_Hbond.Weighted>
0.0000

> <Gold.Chemscore.DEClash.Weighted>
0.2321

> <Gold.Chemscore.DEInternal.Weighted>
1.7316

> <Gold.Chemscore.Rot.Weighted>
4.3592

> <Gold.Chemscore.Internal.Correction.Weighted>
   9.000000E+99

> <Gold.Protein.RotatedTorsions>
[ 6907 6896 6895 6894 ] final  -95.01 input  -60.11 | X-H torsion
[ 7974 7965 7964 7962 ] final   88.32 input  175.53 | X-H torsion
[ 8008 7997 7996 7995 ] final -131.11 input   59.86 | X-H torsion
[ 10167 10162 10161 10158 ] final -134.71 input  -65.29 | X-H torsion
[ 10718 10713 10712 10709 ] final   72.18 input   66.30 | X-H torsion
[ 10763 10752 10751 10750 ] final  -33.76 input  -60.55 | X-H torsion
[ 11005 11000 10999 10996 ] final -121.30 input  -57.11 | X-H torsion

> <Gold.Protein.ActiveResidues>
 VAL166  LYS551  ARG553  GLY616  TRP617  ASP618  TYR619  PRO620  LYS621  CYS622 
 ASP623  PHE694  ASN695  SER759  ASP760  ASP761  ALA762  ILE779  LEU786  VAL792 
 PHE793  MET794  SER795  GLU796  ALA797  LYS798  CYS799  TRP800  GLU811  SER814 

> <Gold.Protein.RotatedAtoms>
  150.6954  134.1723  159.4216 H   0  0  0  0  0  0  0  0  0  0  0  0  # atno 6907 bound_to 6896
  151.9700  135.0079  160.0561 H   0  0  0  0  0  0  0  0  0  0  0  0  # atno 6908 bound_to 6896
  152.1850  133.4698  159.5014 H   0  0  0  0  0  0  0  0  0  0  0  0  # atno 6909 bound_to 6896
  145.5473  139.2293  143.2532 H   0  0  0  0  0  0  0  0  0  0  0  0  # atno 7974 bound_to 7965
  155.3070  140.0455  157.3033 H   0  0  0  0  0  0  0  0  0  0  0  0  # atno 8008 bound_to 7997
  154.5454  140.2301  155.8538 H   0  0  0  0  0  0  0  0  0  0  0  0  # atno 8009 bound_to 7997
  156.1919  140.3048  155.9357 H   0  0  0  0  0  0  0  0  0  0  0  0  # atno 8010 bound_to 7997
  139.8853  143.6789  152.2621 H   0  0  0  0  0  0  0  0  0  0  0  0  # atno 10167 bound_to 10162
  157.6488  130.9566  150.0892 H   0  0  0  0  0  0  0  0  0  0  0  0  # atno 10718 bound_to 10713
  153.8355  135.6862  153.4809 H   0  0  0  0  0  0  0  0  0  0  0  0  # atno 10763 bound_to 10752
  153.1485  135.4628  154.9600 H   0  0  0  0  0  0  0  0  0  0  0  0  # atno 10764 bound_to 10752
  154.7868  135.3287  154.7814 H   0  0  0  0  0  0  0  0  0  0  0  0  # atno 10765 bound_to 10752
  141.0080  134.0306  157.3452 H   0  0  0  0  0  0  0  0  0  0  0  0  # atno 11005 bound_to 11000
  146.1941  140.6294  142.9132 LP  0  0  0  0  0  0  0  0  0  0  0  0  # atno 17320 bound_to 7965
  144.7547  140.5278  143.6777 LP  0  0  0  0  0  0  0  0  0  0  0  0  # atno 17321 bound_to 7965
  139.7159  144.7612  151.1035 LP  0  0  0  0  0  0  0  0  0  0  0  0  # atno 17342 bound_to 10162
  140.7737  143.5270  150.9468 LP  0  0  0  0  0  0  0  0  0  0  0  0  # atno 17343 bound_to 10162
  156.1846  130.3651  149.8989 LP  0  0  0  0  0  0  0  0  0  0  0  0  # atno 17370 bound_to 10713
  156.6933  130.8904  151.3591 LP  0  0  0  0  0  0  0  0  0  0  0  0  # atno 17371 bound_to 10713
  139.9074  135.0183  156.7545 LP  0  0  0  0  0  0  0  0  0  0  0  0  # atno 17394 bound_to 11000
  140.6781  133.9499  155.7894 LP  0  0  0  0  0  0  0  0  0  0  0  0  # atno 17395 bound_to 11000

$$$$
