AV-unprocessed.smi:334|AV-procd|sdf|2365|dock10
  -GOLD-   2262022283D 1   1.00000     0.00000
 Structure written by MMmdl.
 44 46  0  0  0  0  0  0  0  0  3 V2000
  154.3877  141.5359  161.0001 C   0  0  0  0  0  0  0  0  0  0  0  0
  153.4881  141.7746  159.7755 C   0  0  1  0  0  0  0  0  0  0  0  0
  153.0996  140.5005  159.1821 N   0  0  0  0  0  0  0  0  0  0  0  0
  153.9323  139.5338  158.7608 C   0  0  0  0  0  0  0  0  0  0  0  0
  155.1489  139.5744  158.9397 O   0  0  0  0  0  0  0  0  0  0  0  0
  153.3261  138.3519  157.9841 C   0  0  0  0  0  0  0  0  0  0  0  0
  151.8526  138.3585  157.9279 N   0  0  0  0  0  0  0  0  0  0  0  0
  151.1892  137.4082  158.7295 C   0  0  0  0  0  0  0  0  0  0  0  0
  149.8487  137.2778  158.7256 C   0  0  0  0  0  0  0  0  0  0  0  0
  149.1906  136.2644  159.5196 N   0  3  0  0  0  0  0  0  0  0  0  0
  148.1277  136.5429  160.0649 O   0  0  0  0  0  0  0  0  0  0  0  0
  149.7100  135.1568  159.6195 O   0  5  0  0  0  0  0  0  0  0  0  0
  149.0876  138.1714  157.8745 C   0  0  0  0  0  0  0  0  0  0  0  0
  149.7161  139.0795  157.1020 C   0  0  0  0  0  0  0  0  0  0  0  0
  151.1776  139.2017  157.0883 C   0  0  0  0  0  0  0  0  0  0  0  0
  151.7575  140.0056  156.3591 O   0  0  0  0  0  0  0  0  0  0  0  0
  152.2153  142.5766  160.1380 C   0  0  1  0  0  0  0  0  0  0  0  0
  152.4818  143.9273  160.8389 C   0  0  0  0  0  0  0  0  0  0  0  0
  151.6350  144.9168  160.0159 C   0  0  1  0  0  0  0  0  0  0  0  0
  152.3142  145.1524  158.6536 C   0  0  0  0  0  0  0  0  0  0  0  0
  152.0539  143.8286  157.9119 C   0  0  0  0  0  0  0  0  0  0  0  0
  151.2937  142.9946  158.9625 C   0  0  2  0  0  0  0  0  0  0  0  0
  150.4330  144.0650  159.6245 C   0  0  0  0  0  0  0  0  0  0  0  0
  154.6974  142.4782  161.4525 H   0  0  0  0  0  0  0  0  0  0  0  0
  155.2934  140.9944  160.7259 H   0  0  0  0  0  0  0  0  0  0  0  0
  153.8717  140.9544  161.7649 H   0  0  0  0  0  0  0  0  0  0  0  0
  154.0601  142.3417  159.0393 H   0  0  0  0  0  0  0  0  0  0  0  0
  152.1140  140.3752  159.0034 H   0  0  0  0  0  0  0  0  0  0  0  0
  153.7223  138.3742  156.9678 H   0  0  0  0  0  0  0  0  0  0  0  0
  153.7076  137.4245  158.4137 H   0  0  0  0  0  0  0  0  0  0  0  0
  151.8479  136.7834  159.3161 H   0  0  0  0  0  0  0  0  0  0  0  0
  148.0090  138.1191  157.8508 H   0  0  0  0  0  0  0  0  0  0  0  0
  149.1296  139.7348  156.4749 H   0  0  0  0  0  0  0  0  0  0  0  0
  151.6144  141.9589  160.8083 H   0  0  0  0  0  0  0  0  0  0  0  0
  152.1452  143.8917  161.8759 H   0  0  0  0  0  0  0  0  0  0  0  0
  153.5362  144.2069  160.8443 H   0  0  0  0  0  0  0  0  0  0  0  0
  151.3960  145.8369  160.5498 H   0  0  0  0  0  0  0  0  0  0  0  0
  151.8500  145.9854  158.1240 H   0  0  0  0  0  0  0  0  0  0  0  0
  153.3782  145.3702  158.7541 H   0  0  0  0  0  0  0  0  0  0  0  0
  151.4247  144.0019  157.0379 H   0  0  0  0  0  0  0  0  0  0  0  0
  152.9693  143.3533  157.5610 H   0  0  0  0  0  0  0  0  0  0  0  0
  150.7272  142.1674  158.5343 H   0  0  0  0  0  0  0  0  0  0  0  0
  149.8636  143.6985  160.4807 H   0  0  0  0  0  0  0  0  0  0  0  0
  149.7543  144.5662  158.9318 H   0  0  0  0  0  0  0  0  0  0  0  0
  1  2  1  0  0  0  0
  1 24  1  0  0  0  0
  1 25  1  0  0  0  0
  1 26  1  0  0  0  0
  2  3  1  0  0  0  0
  2 17  1  0  0  0  0
  2 27  1  0  0  0  0
  3  4  1  0  0  0  0
  3 28  1  0  0  0  0
  4  5  2  0  0  0  0
  4  6  1  0  0  0  0
  6  7  1  0  0  0  0
  6 29  1  0  0  0  0
  6 30  1  0  0  0  0
  7 15  1  0  0  0  0
  7  8  1  0  0  0  0
  8  9  2  0  0  0  0
  8 31  1  0  0  0  0
  9 10  1  0  0  0  0
  9 13  1  0  0  0  0
 10 11  2  0  0  0  0
 10 12  1  0  0  0  0
 13 14  2  0  0  0  0
 13 32  1  0  0  0  0
 14 15  1  0  0  0  0
 14 33  1  0  0  0  0
 15 16  2  0  0  0  0
 17 22  1  0  0  0  0
 17 18  1  0  0  0  0
 17 34  1  0  0  0  0
 18 19  1  0  0  0  0
 18 35  1  0  0  0  0
 18 36  1  0  0  0  0
 19 23  1  0  0  0  0
 19 20  1  0  0  0  0
 19 37  1  0  0  0  0
 20 21  1  0  0  0  0
 20 38  1  0  0  0  0
 20 39  1  0  0  0  0
 21 22  1  0  0  0  0
 21 40  1  0  0  0  0
 21 41  1  0  0  0  0
 22 23  1  0  0  0  0
 22 42  1  0  0  0  0
 23 43  1  0  0  0  0
 23 44  1  0  0  0  0
M  CHG  1  10   1
M  CHG  1  12  -1
M  END
> <s_m_source_file>
AV-unprocessed.smi

> <i_m_source_file_index>
334

> <i_lp_mmshare_version>
43012

> <i_f3d_flags>
0

> <s_epik_input>
W0NIMl0xW0NIMl1bQ0BIXShbQ0gyXTIpW0NAQEhdKFtDSDJdW0NAQEhdMTIpW0NASF0oW0NIM10pW05IXUMoPU8pW0NIMl1uM1tjSF1jKFtOK10oPU8pW08tXSlbY0hdW2NIXWMzPU8=

> <s_epik_cmdline>
J2VwaWtfcHl0aG9uJywgJy1waCcsICc3LjAnLCAnLXRuJywgJzgnLCAnLW1hJywgJzIwMCcsICctbWV0YWxfYmluZGluZycsICctaW1hZScsICc8aW5maWxlLm1hZT4nLCAnLW9tYWUnLCAnPG91dGZpbGUubWFlPic=

> <r_lp_tautomer_probability>
1

> <r_epik_Ionization_Penalty>
2.17081e-08

> <r_epik_Ionization_Penalty_Charging>
8.1195e-11

> <r_epik_Ionization_Penalty_Neutral>
2.16269e-08

> <r_epik_State_Penalty>
-0

> <r_epik_Charging_Adjusted_Penalty>
8.1195e-11

> <i_epik_Tot_Q>
0

> <i_epik_Tot_abs_Q>
2

> <r_epik_Metal_State_Penalty>
-0

> <b_epik_Metal_Only>
0

> <s_lp_Force_Field>
OPLS_2005

> <r_lp_Energy>
61.6475

> <b_lp_Chiralities_Consistent>
1

> <s_lp_Variant>
AV-unprocessed.smi:334-4

> <Gold.Version>
5.8.1

> <Gold.Id.Protein>
6NUR|6NUR_protein|mol2

> <Gold.PLP.Fitness>
51.4437

> <Gold.PLP.PLP>
-44.8232

> <Gold.PLP.part.hbond>
-3.0000

> <Gold.PLP.part.metal>
0.0000

> <Gold.PLP.part.buried>
-6.3191

> <Gold.PLP.part.nonpolar>
-35.1199

> <Gold.PLP.part.repulsive>
0.1212

> <Gold.PLP.ligand.clash>
0.0000

> <Gold.PLP.ligand.torsion>
0.8412

> <Gold.PLP.Chemscore.Hbond>
2.7596

> <Gold.PLP.Chemscore.CHOScore>
0.0000

> <Gold.PLP.Chemscore.Metal>
0.0000

> <Gold.Chemscore.Hbonds>
donor molecule, donor type, donor heavy atom, donor atom, acceptor molecule, acceptor atom, score
      P1  H  7997  8009       L1     5  0.80

> <Gold.PLP.Chemscore.Internal.Correction>
0.0239

> <Gold.Rescore>
     Score         DG    S(hbond)    S(metal)    S(lipo)     H(rot)  DE(clash)    DE(int)     intcor
     20.03     -22.46       2.53        0.00     111.14       1.75       0.10       2.32       ----

> <Gold.Chemscore.Fitness>
20.0307

> <Gold.Chemscore.DG>
-22.4567

> <Gold.Chemscore.ZeroCoef>
-5.4800

> <Gold.Chemscore.Hbond>
2.5289

> <Gold.Chemscore.Metal>
0.0000

> <Gold.Chemscore.Lipo>
111.1396

> <Gold.Chemscore.Internal_Hbond>
0.0000

> <Gold.Chemscore.DEClash>
0.1036

> <Gold.Chemscore.DEInternal>
2.3224

> <Gold.Chemscore.Rot>
1.7474

> <Gold.Chemscore.Internal.Correction>
   9.000000E+99

> <Gold.Chemscore.Hbonds>
donor molecule, donor type, donor heavy atom, donor atom, acceptor molecule, acceptor atom, score
      P1  H  6896  6909       L1    12  0.04
      P1  H  7997  8009       L1     5  0.11

> <Gold.Chemscore.Hbond.Weighted>
-8.4467

> <Gold.Chemscore.Metal.Weighted>
-0.0000

> <Gold.Chemscore.Lipo.Weighted>
-13.0033

> <Gold.Chemscore.Internal_Hbond.Weighted>
0.0000

> <Gold.Chemscore.DEClash.Weighted>
0.1036

> <Gold.Chemscore.DEInternal.Weighted>
2.3224

> <Gold.Chemscore.Rot.Weighted>
4.4733

> <Gold.Chemscore.Internal.Correction.Weighted>
   9.000000E+99

> <Gold.Protein.RotatedTorsions>
[ 6907 6896 6895 6894 ] final   59.06 input  -60.11 | X-H torsion
[ 7974 7965 7964 7962 ] final  176.63 input  175.53 | X-H torsion
[ 8008 7997 7996 7995 ] final   94.51 input   59.86 | X-H torsion
[ 10167 10162 10161 10158 ] final   41.98 input  -65.29 | X-H torsion
[ 10718 10713 10712 10709 ] final  -54.42 input   66.30 | X-H torsion
[ 10763 10752 10751 10750 ] final  -65.84 input  -60.55 | X-H torsion
[ 11005 11000 10999 10996 ] final   13.67 input  -57.11 | X-H torsion

> <Gold.Protein.ActiveResidues>
 VAL166  LYS551  ARG553  GLY616  TRP617  ASP618  TYR619  PRO620  LYS621  CYS622 
 ASP623  PHE694  ASN695  SER759  ASP760  ASP761  ALA762  ILE779  LEU786  VAL792 
 PHE793  MET794  SER795  GLU796  ALA797  LYS798  CYS799  TRP800  GLU811  SER814 

> <Gold.Protein.RotatedAtoms>
  152.3881  134.6485  160.0117 H   0  0  0  0  0  0  0  0  0  0  0  0  # atno 6907 bound_to 6896
  151.6728  133.3308  159.3208 H   0  0  0  0  0  0  0  0  0  0  0  0  # atno 6908 bound_to 6896
  150.7803  134.6785  159.6475 H   0  0  0  0  0  0  0  0  0  0  0  0  # atno 6909 bound_to 6896
  144.7181  140.0125  143.6440 H   0  0  0  0  0  0  0  0  0  0  0  0  # atno 7974 bound_to 7965
  156.0587  140.3299  155.7436 H   0  0  0  0  0  0  0  0  0  0  0  0  # atno 8008 bound_to 7997
  155.5489  140.0608  157.2872 H   0  0  0  0  0  0  0  0  0  0  0  0  # atno 8009 bound_to 7997
  154.4470  140.1897  156.0654 H   0  0  0  0  0  0  0  0  0  0  0  0  # atno 8010 bound_to 7997
  140.3589  144.2254  150.6139 H   0  0  0  0  0  0  0  0  0  0  0  0  # atno 10167 bound_to 10162
  156.1452  130.4153  150.0035 H   0  0  0  0  0  0  0  0  0  0  0  0  # atno 10718 bound_to 10713
  154.3510  135.6136  153.5643 H   0  0  0  0  0  0  0  0  0  0  0  0  # atno 10763 bound_to 10752
  152.9798  135.5792  154.4743 H   0  0  0  0  0  0  0  0  0  0  0  0  # atno 10764 bound_to 10752
  154.4464  135.2851  155.1789 H   0  0  0  0  0  0  0  0  0  0  0  0  # atno 10765 bound_to 10752
  140.4781  134.0963  155.7745 H   0  0  0  0  0  0  0  0  0  0  0  0  # atno 11005 bound_to 11000
  146.0247  139.3281  143.0792 LP  0  0  0  0  0  0  0  0  0  0  0  0  # atno 17320 bound_to 7965
  145.8526  140.9520  143.0742 LP  0  0  0  0  0  0  0  0  0  0  0  0  # atno 17321 bound_to 7965
  140.5146  143.2281  151.8482 LP  0  0  0  0  0  0  0  0  0  0  0  0  # atno 17342 bound_to 10162
  139.4816  144.4909  151.9186 LP  0  0  0  0  0  0  0  0  0  0  0  0  # atno 17343 bound_to 10162
  156.7909  130.9256  151.3646 LP  0  0  0  0  0  0  0  0  0  0  0  0  # atno 17370 bound_to 10713
  157.6611  130.8966  149.9831 LP  0  0  0  0  0  0  0  0  0  0  0  0  # atno 17371 bound_to 10713
  141.1544  133.8909  157.2015 LP  0  0  0  0  0  0  0  0  0  0  0  0  # atno 17394 bound_to 11000
  139.9843  135.0087  156.9825 LP  0  0  0  0  0  0  0  0  0  0  0  0  # atno 17395 bound_to 11000

$$$$
