AV-unprocessed.smi:3196|AV-procd|sdf|12223|dock2
  -GOLD-   2272018 53D 1   1.00000     0.00000
 Structure written by MMmdl.
 33 34  0  0  0  0  0  0  0  0  1 V2000
  148.2580  145.0031  160.9285 C   0  0  0  0  0  0  0  0  0  0  0  0
  149.7272  144.6051  160.7520 C   0  0  0  0  0  0  0  0  0  0  0  0
  150.2530  144.9074  159.3423 C   0  0  0  0  0  0  0  0  0  0  0  0
  151.6352  144.3252  159.1041 C   0  0  2  0  0  0  0  0  0  0  0  0
  152.5000  144.8203  157.9757 C   0  0  0  0  0  0  0  0  0  0  0  0
  151.9393  143.4131  157.9315 C   0  0  2  0  0  0  0  0  0  0  0  0
  150.9137  143.1496  156.9655 N   0  0  0  0  0  0  0  0  0  0  0  0
  150.5785  141.9671  156.4195 C   0  0  0  0  0  0  0  0  0  0  0  0
  151.1968  140.9443  156.7050 O   0  0  0  0  0  0  0  0  0  0  0  0
  149.5644  142.0377  155.5339 N   0  0  0  0  0  0  0  0  0  0  0  0
  148.9497  141.0125  154.7618 C   0  0  0  0  0  0  0  0  0  0  0  0
  149.4553  139.6976  154.6102 C   0  0  0  0  0  0  0  0  0  0  0  0
  148.7341  138.7840  153.8152 C   0  0  0  0  0  0  0  0  0  0  0  0
  147.5785  139.0909  153.1891 N   0  0  0  0  0  0  0  0  0  0  0  0
  147.0961  140.3421  153.3401 C   0  0  0  0  0  0  0  0  0  0  0  0
  147.7389  141.3316  154.1106 C   0  0  0  0  0  0  0  0  0  0  0  0
  147.1976  142.5692  154.2204 F   0  0  0  0  0  0  0  0  0  0  0  0
  147.9128  144.7766  161.9373 H   0  0  0  0  0  0  0  0  0  0  0  0
  147.6178  144.4654  160.2288 H   0  0  0  0  0  0  0  0  0  0  0  0
  148.1168  146.0710  160.7600 H   0  0  0  0  0  0  0  0  0  0  0  0
  150.3337  145.1326  161.4889 H   0  0  0  0  0  0  0  0  0  0  0  0
  149.8388  143.5412  160.9642 H   0  0  0  0  0  0  0  0  0  0  0  0
  149.5731  144.4971  158.5949 H   0  0  0  0  0  0  0  0  0  0  0  0
  150.2788  145.9865  159.1862 H   0  0  0  0  0  0  0  0  0  0  0  0
  152.1562  144.0740  160.0261 H   0  0  0  0  0  0  0  0  0  0  0  0
  152.0745  145.5599  157.2998 H   0  0  0  0  0  0  0  0  0  0  0  0
  153.5641  144.9318  158.1736 H   0  0  0  0  0  0  0  0  0  0  0  0
  152.6743  142.6283  158.1035 H   0  0  0  0  0  0  0  0  0  0  0  0
  150.4262  143.9607  156.6133 H   0  0  0  0  0  0  0  0  0  0  0  0
  149.1889  142.9625  155.3809 H   0  0  0  0  0  0  0  0  0  0  0  0
  150.3658  139.3640  155.0807 H   0  0  0  0  0  0  0  0  0  0  0  0
  149.0961  137.7754  153.6808 H   0  0  0  0  0  0  0  0  0  0  0  0
  146.1686  140.5614  152.8324 H   0  0  0  0  0  0  0  0  0  0  0  0
  1  2  1  0  0  0  0
  1 18  1  0  0  0  0
  1 19  1  0  0  0  0
  1 20  1  0  0  0  0
  2  3  1  0  0  0  0
  2 21  1  0  0  0  0
  2 22  1  0  0  0  0
  3  4  1  0  0  0  0
  3 23  1  0  0  0  0
  3 24  1  0  0  0  0
  4  6  1  0  0  0  0
  4  5  1  0  0  0  0
  4 25  1  0  0  0  0
  5  6  1  0  0  0  0
  5 26  1  0  0  0  0
  5 27  1  0  0  0  0
  6  7  1  0  0  0  0
  6 28  1  0  0  0  0
  7  8  1  0  0  0  0
  7 29  1  0  0  0  0
  8  9  2  0  0  0  0
  8 10  1  0  0  0  0
 10 11  1  0  0  0  0
 10 30  1  0  0  0  0
 11 16  1  0  0  0  0
 11 12  2  0  0  0  0
 12 13  1  0  0  0  0
 12 31  1  0  0  0  0
 13 14  2  0  0  0  0
 13 32  1  0  0  0  0
 14 15  1  0  0  0  0
 15 16  2  0  0  0  0
 15 33  1  0  0  0  0
 16 17  1  0  0  0  0
M  END
> <s_m_source_file>
AV-unprocessed.smi

> <i_m_source_file_index>
3196

> <i_lp_mmshare_version>
43012

> <i_f3d_flags>
0

> <s_epik_input>
W0NIM11bQ0gyXVtDSDJdW0NAQEhdMVtDSDJdW0NASF0xW05IXUMoPU8pW05IXWMyW2NIXVtjSF1uW2NIXWMyRg==

> <s_epik_cmdline>
J2VwaWtfcHl0aG9uJywgJy1waCcsICc3LjAnLCAnLXRuJywgJzgnLCAnLW1hJywgJzIwMCcsICctbWV0YWxfYmluZGluZycsICctaW1hZScsICc8aW5maWxlLm1hZT4nLCAnLW9tYWUnLCAnPG91dGZpbGUubWFlPic=

> <r_epik_Ionization_Penalty>
0.00341997

> <r_epik_Ionization_Penalty_Charging>
0

> <r_epik_Ionization_Penalty_Neutral>
0.00341997

> <r_epik_State_Penalty>
0.00239198

> <r_epik_Charging_Adjusted_Penalty>
0.00239198

> <i_epik_Tot_Q>
0

> <i_epik_Tot_abs_Q>
0

> <r_epik_Metal_State_Penalty>
-0

> <b_epik_Metal_Only>
0

> <s_lp_Force_Field>
OPLS_2005

> <r_lp_Energy>
35.1312

> <b_lp_Chiralities_Consistent>
1

> <s_lp_Variant>
AV-unprocessed.smi:3196-3

> <Gold.Version>
5.8.1

> <Gold.Id.Protein>
6NUR|6NUR_protein|mol2

> <Gold.PLP.Fitness>
49.4692

> <Gold.PLP.PLP>
-38.4593

> <Gold.PLP.part.hbond>
-2.0000

> <Gold.PLP.part.metal>
0.0000

> <Gold.PLP.part.buried>
-4.6520

> <Gold.PLP.part.nonpolar>
-33.4085

> <Gold.PLP.part.repulsive>
0.9444

> <Gold.PLP.ligand.clash>
0.0000

> <Gold.PLP.ligand.torsion>
0.7644

> <Gold.PLP.Chemscore.Hbond>
1.9920

> <Gold.PLP.Chemscore.CHOScore>
2.0000

> <Gold.PLP.Chemscore.Metal>
0.0000

> <Gold.Chemscore.Hbonds>
donor molecule, donor type, donor heavy atom, donor atom, acceptor molecule, acceptor atom, score
      L1  H     7    29       P1  8028  1.00
      L1  H    10    30       P1  8028  1.00
      L1  C    13    32       P1  7948  1.00
      L1  C    15    33       P1 10175  1.00

> <Gold.PLP.Chemscore.Internal.Correction>
0.5628

> <Gold.Rescore>
     Score         DG    S(hbond)    S(metal)    S(lipo)     H(rot)  DE(clash)    DE(int)     intcor
     16.80     -18.40       1.87        0.00      87.41       1.39       0.01       1.59       ----

> <Gold.Chemscore.Fitness>
16.7975

> <Gold.Chemscore.DG>
-18.3968

> <Gold.Chemscore.ZeroCoef>
-5.4800

> <Gold.Chemscore.Hbond>
1.8669

> <Gold.Chemscore.Metal>
0.0000

> <Gold.Chemscore.Lipo>
87.4139

> <Gold.Chemscore.Internal_Hbond>
0.0000

> <Gold.Chemscore.DEClash>
0.0123

> <Gold.Chemscore.DEInternal>
1.5870

> <Gold.Chemscore.Rot>
1.3852

> <Gold.Chemscore.Internal.Correction>
   9.000000E+99

> <Gold.Chemscore.Hbonds>
donor molecule, donor type, donor heavy atom, donor atom, acceptor molecule, acceptor atom, score
      L1  H     7    29       P1  8028  0.95
      L1  H    10    30       P1  8028  0.99

> <Gold.Chemscore.Hbond.Weighted>
-6.2354

> <Gold.Chemscore.Metal.Weighted>
-0.0000

> <Gold.Chemscore.Lipo.Weighted>
-10.2274

> <Gold.Chemscore.Internal_Hbond.Weighted>
0.0000

> <Gold.Chemscore.DEClash.Weighted>
0.0123

> <Gold.Chemscore.DEInternal.Weighted>
1.5870

> <Gold.Chemscore.Rot.Weighted>
3.5460

> <Gold.Chemscore.Internal.Correction.Weighted>
   9.000000E+99

> <Gold.Protein.RotatedTorsions>
[ 6907 6896 6895 6894 ] final   29.97 input  -60.11 | X-H torsion
[ 7974 7965 7964 7962 ] final   48.22 input  175.53 | X-H torsion
[ 8008 7997 7996 7995 ] final  -84.88 input   59.86 | X-H torsion
[ 10167 10162 10161 10158 ] final   -4.63 input  -65.29 | X-H torsion
[ 10718 10713 10712 10709 ] final   34.58 input   66.30 | X-H torsion
[ 10763 10752 10751 10750 ] final -118.39 input  -60.55 | X-H torsion
[ 11005 11000 10999 10996 ] final   28.92 input  -57.11 | X-H torsion

> <Gold.Protein.ActiveResidues>
 VAL166  LYS551  ARG553  GLY616  TRP617  ASP618  TYR619  PRO620  LYS621  CYS622 
 ASP623  PHE694  ASN695  SER759  ASP760  ASP761  ALA762  ILE779  LEU786  VAL792 
 PHE793  MET794  SER795  GLU796  ALA797  LYS798  CYS799  TRP800  GLU811  SER814 

> <Gold.Protein.RotatedAtoms>
  152.0392  134.9721  160.0573 H   0  0  0  0  0  0  0  0  0  0  0  0  # atno 6907 bound_to 6896
  152.1166  133.4325  159.4664 H   0  0  0  0  0  0  0  0  0  0  0  0  # atno 6908 bound_to 6896
  150.6846  134.2503  159.4551 H   0  0  0  0  0  0  0  0  0  0  0  0  # atno 6909 bound_to 6896
  146.0224  139.4667  142.9888 H   0  0  0  0  0  0  0  0  0  0  0  0  # atno 7974 bound_to 7965
  154.6346  140.0599  156.9773 H   0  0  0  0  0  0  0  0  0  0  0  0  # atno 8008 bound_to 7997
  155.1612  140.3283  155.4392 H   0  0  0  0  0  0  0  0  0  0  0  0  # atno 8009 bound_to 7997
  156.2500  140.1930  156.6719 H   0  0  0  0  0  0  0  0  0  0  0  0  # atno 8010 bound_to 7997
  140.6934  143.6401  150.8443 H   0  0  0  0  0  0  0  0  0  0  0  0  # atno 10167 bound_to 10162
  157.3120  130.7404  149.6731 H   0  0  0  0  0  0  0  0  0  0  0  0  # atno 10718 bound_to 10713
  154.8586  135.4275  154.2132 H   0  0  0  0  0  0  0  0  0  0  0  0  # atno 10763 bound_to 10752
  153.3153  135.6978  153.7084 H   0  0  0  0  0  0  0  0  0  0  0  0  # atno 10764 bound_to 10752
  153.6161  135.3510  155.2969 H   0  0  0  0  0  0  0  0  0  0  0  0  # atno 10765 bound_to 10752
  140.3104  134.2656  155.7735 H   0  0  0  0  0  0  0  0  0  0  0  0  # atno 11005 bound_to 11000
  145.7171  141.0087  143.1422 LP  0  0  0  0  0  0  0  0  0  0  0  0  # atno 17320 bound_to 7965
  144.6995  139.8826  143.7448 LP  0  0  0  0  0  0  0  0  0  0  0  0  # atno 17321 bound_to 7965
  140.0116  143.5636  152.2836 LP  0  0  0  0  0  0  0  0  0  0  0  0  # atno 17342 bound_to 10162
  139.6362  144.7650  151.2433 LP  0  0  0  0  0  0  0  0  0  0  0  0  # atno 17343 bound_to 10162
  155.9678  130.4248  150.4626 LP  0  0  0  0  0  0  0  0  0  0  0  0  # atno 17370 bound_to 10713
  157.2626  131.0570  151.2310 LP  0  0  0  0  0  0  0  0  0  0  0  0  # atno 17371 bound_to 10713
  141.2109  133.7704  156.9899 LP  0  0  0  0  0  0  0  0  0  0  0  0  # atno 17394 bound_to 11000
  140.1030  134.9524  157.1951 LP  0  0  0  0  0  0  0  0  0  0  0  0  # atno 17395 bound_to 11000

$$$$
