AV-unprocessed.smi:1748|AV-procd|sdf|7039|dock1
  -GOLD-   22720 8253D 1   1.00000     0.00000
 Structure written by MMmdl.
 40 41  0  0  0  0  0  0  0  0  2 V2000
  146.9127  139.2584  152.7933 C   0  0  0  0  0  0  0  0  0  0  0  0
  147.8089  138.3316  153.5176 N   0  3  2  0  0  0  0  0  0  0  0  0
  147.0737  137.4698  154.4770 C   0  0  0  0  0  0  0  0  0  0  0  0
  148.0120  136.4364  155.1225 C   0  0  0  0  0  0  0  0  0  0  0  0
  149.2080  137.1224  155.7973 C   0  0  0  0  0  0  0  0  0  0  0  0
  149.9353  138.0275  154.7899 C   0  0  2  0  0  0  0  0  0  0  0  0
  151.0370  138.7225  155.4494 N   0  0  0  0  0  0  0  0  0  0  0  0
  150.9228  139.4746  156.5536 C   0  0  0  0  0  0  0  0  0  0  0  0
  149.8553  139.6474  157.1417 O   0  0  0  0  0  0  0  0  0  0  0  0
  152.1161  139.9759  156.9216 N   0  0  0  0  0  0  0  0  0  0  0  0
  152.4270  140.8259  157.9965 C   0  0  0  0  0  0  0  0  0  0  0  0
  151.8684  142.0466  158.2064 C   0  0  0  0  0  0  0  0  0  0  0  0
  152.2468  142.8851  159.3313 C   0  0  0  0  0  0  0  0  0  0  0  0
  151.5583  144.2157  159.5926 C   0  0  0  0  0  0  0  0  0  0  0  0
  151.8523  144.6880  160.8048 F   0  0  0  0  0  0  0  0  0  0  0  0
  151.9512  145.1132  158.6895 F   0  0  0  0  0  0  0  0  0  0  0  0
  150.2342  144.0898  159.5015 F   0  0  0  0  0  0  0  0  0  0  0  0
  153.1781  142.3864  160.1653 C   0  0  0  0  0  0  0  0  0  0  0  0
  153.7724  141.1416  159.9448 N   0  0  0  0  0  0  0  0  0  0  0  0
  153.4636  140.3239  158.9135 C   0  0  0  0  0  0  0  0  0  0  0  0
  154.0330  139.2403  158.7868 O   0  0  0  0  0  0  0  0  0  0  0  0
  148.9486  139.0334  154.1595 C   0  0  0  0  0  0  0  0  0  0  0  0
  154.4749  140.8449  160.6068 H   0  0  0  0  0  0  0  0  0  0  0  0
  146.4409  139.9630  153.4796 H   0  0  0  0  0  0  0  0  0  0  0  0
  146.1273  138.7081  152.2743 H   0  0  0  0  0  0  0  0  0  0  0  0
  147.4680  139.8271  152.0467 H   0  0  0  0  0  0  0  0  0  0  0  0
  146.6120  138.0905  155.2466 H   0  0  0  0  0  0  0  0  0  0  0  0
  146.2649  136.9530  153.9588 H   0  0  0  0  0  0  0  0  0  0  0  0
  147.4642  135.8397  155.8524 H   0  0  0  0  0  0  0  0  0  0  0  0
  148.3706  135.7416  154.3617 H   0  0  0  0  0  0  0  0  0  0  0  0
  148.8595  137.7118  156.6470 H   0  0  0  0  0  0  0  0  0  0  0  0
  149.8909  136.3714  156.1962 H   0  0  0  0  0  0  0  0  0  0  0  0
  150.3451  137.3932  154.0009 H   0  0  0  0  0  0  0  0  0  0  0  0
  151.9517  138.6282  155.0315 H   0  0  0  0  0  0  0  0  0  0  0  0
  152.9149  139.6807  156.3790 H   0  0  0  0  0  0  0  0  0  0  0  0
  151.1357  142.4473  157.5249 H   0  0  0  0  0  0  0  0  0  0  0  0
  153.5330  142.8887  161.0532 H   0  0  0  0  0  0  0  0  0  0  0  0
  149.4625  139.6367  153.4098 H   0  0  0  0  0  0  0  0  0  0  0  0
  148.5717  139.7230  154.9170 H   0  0  0  0  0  0  0  0  0  0  0  0
  148.2063  137.7161  152.8222 H   0  0  0  0  0  0  0  0  0  0  0  0
  1  2  1  0  0  0  0
  1 24  1  0  0  0  0
  1 25  1  0  0  0  0
  1 26  1  0  0  0  0
  2 22  1  0  0  0  0
  2  3  1  0  0  0  0
  2 40  1  0  0  0  0
  3  4  1  0  0  0  0
  3 27  1  0  0  0  0
  3 28  1  0  0  0  0
  4  5  1  0  0  0  0
  4 29  1  0  0  0  0
  4 30  1  0  0  0  0
  5  6  1  0  0  0  0
  5 31  1  0  0  0  0
  5 32  1  0  0  0  0
  6  7  1  0  0  0  0
  6 22  1  0  0  0  0
  6 33  1  0  0  0  0
  7  8  1  0  0  0  0
  7 34  1  0  0  0  0
  8  9  2  0  0  0  0
  8 10  1  0  0  0  0
 10 11  1  0  0  0  0
 10 35  1  0  0  0  0
 11 20  1  0  0  0  0
 11 12  2  0  0  0  0
 12 13  1  0  0  0  0
 12 36  1  0  0  0  0
 13 14  1  0  0  0  0
 13 18  2  0  0  0  0
 14 15  1  0  0  0  0
 14 16  1  0  0  0  0
 14 17  1  0  0  0  0
 18 19  1  0  0  0  0
 18 37  1  0  0  0  0
 19 23  1  0  0  0  0
 19 20  1  0  0  0  0
 20 21  2  0  0  0  0
 22 38  1  0  0  0  0
 22 39  1  0  0  0  0
M  CHG  1   2   1
M  END
> <s_m_source_file>
AV-unprocessed.smi

> <i_m_source_file_index>
1748

> <i_lp_mmshare_version>
43012

> <i_f3d_flags>
0

> <s_epik_input>
W0NIM11OMVtDSDJdW0NIMl1bQ0gyXVtDQEhdKFtDSDJdMSlbTkhdQyg9TylbTkhdYzJbY0hdYyhDKEYpKEYpRilbY0hdW25IXWMyPU8=

> <s_epik_cmdline>
J2VwaWtfcHl0aG9uJywgJy1waCcsICc3LjAnLCAnLXRuJywgJzgnLCAnLW1hJywgJzIwMCcsICctbWV0YWxfYmluZGluZycsICctaW1hZScsICc8aW5maWxlLm1hZT4nLCAnLW9tYWUnLCAnPG91dGZpbGUubWFlPic=

> <r_lp_tautomer_probability>
1

> <r_epik_Ionization_Penalty>
0.00746315

> <r_epik_Ionization_Penalty_Charging>
0.00744398

> <r_epik_Ionization_Penalty_Neutral>
1.91704e-05

> <r_epik_State_Penalty>
-0

> <r_epik_Charging_Adjusted_Penalty>
0.00744398

> <i_epik_Tot_Q>
1

> <i_epik_Tot_abs_Q>
1

> <r_epik_Metal_State_Penalty>
0.379332

> <b_epik_Metal_Only>
0

> <s_lp_Force_Field>
OPLS_2005

> <r_lp_Energy>
25.4307

> <b_lp_Chiralities_Consistent>
1

> <s_lp_Variant>
AV-unprocessed.smi:1748-4

> <Gold.Version>
5.8.1

> <Gold.Id.Protein>
6NUR|6NUR_protein|mol2

> <Gold.PLP.Fitness>
41.2276

> <Gold.PLP.PLP>
-36.5544

> <Gold.PLP.part.hbond>
-1.9786

> <Gold.PLP.part.metal>
0.0000

> <Gold.PLP.part.buried>
-4.9178

> <Gold.PLP.part.nonpolar>
-30.2665

> <Gold.PLP.part.repulsive>
0.2790

> <Gold.PLP.ligand.clash>
0.6526

> <Gold.PLP.ligand.torsion>
0.9125

> <Gold.PLP.Chemscore.Hbond>
2.3705

> <Gold.PLP.Chemscore.CHOScore>
0.0000

> <Gold.PLP.Chemscore.Metal>
0.0000

> <Gold.Chemscore.Hbonds>
donor molecule, donor type, donor heavy atom, donor atom, acceptor molecule, acceptor atom, score
      L1  H     2    40       P1  7948  2.00
      P1  H  7997  8010       L1    21  0.40

> <Gold.PLP.Chemscore.Internal.Correction>
0.0392

> <Gold.Rescore>
     Score         DG    S(hbond)    S(metal)    S(lipo)     H(rot)  DE(clash)    DE(int)     intcor
     14.15     -17.23       1.81        0.00      70.77       1.00       0.23       2.85       ----

> <Gold.Chemscore.Fitness>
14.1531

> <Gold.Chemscore.DG>
-17.2294

> <Gold.Chemscore.ZeroCoef>
-5.4800

> <Gold.Chemscore.Hbond>
1.8053

> <Gold.Chemscore.Metal>
0.0000

> <Gold.Chemscore.Lipo>
70.7679

> <Gold.Chemscore.Internal_Hbond>
0.0000

> <Gold.Chemscore.DEClash>
0.2308

> <Gold.Chemscore.DEInternal>
2.8455

> <Gold.Chemscore.Rot>
1.0000

> <Gold.Chemscore.Internal.Correction>
   9.000000E+99

> <Gold.Chemscore.Hbonds>
donor molecule, donor type, donor heavy atom, donor atom, acceptor molecule, acceptor atom, score
      L1  H     2    40       P1  7948  1.00
      P1  H  7997  8010       L1    21  0.01

> <Gold.Chemscore.Hbond.Weighted>
-6.0296

> <Gold.Chemscore.Metal.Weighted>
-0.0000

> <Gold.Chemscore.Lipo.Weighted>
-8.2798

> <Gold.Chemscore.Internal_Hbond.Weighted>
0.0000

> <Gold.Chemscore.DEClash.Weighted>
0.2308

> <Gold.Chemscore.DEInternal.Weighted>
2.8455

> <Gold.Chemscore.Rot.Weighted>
2.5600

> <Gold.Chemscore.Internal.Correction.Weighted>
   9.000000E+99

> <Gold.Protein.RotatedTorsions>
[ 6907 6896 6895 6894 ] final    0.20 input  -60.11 | X-H torsion
[ 7974 7965 7964 7962 ] final  -42.52 input  175.53 | X-H torsion
[ 8008 7997 7996 7995 ] final    4.60 input   59.86 | X-H torsion
[ 10167 10162 10161 10158 ] final  149.98 input  -65.29 | X-H torsion
[ 10718 10713 10712 10709 ] final   84.25 input   66.30 | X-H torsion
[ 10763 10752 10751 10750 ] final -174.81 input  -60.55 | X-H torsion
[ 11005 11000 10999 10996 ] final  168.84 input  -57.11 | X-H torsion

> <Gold.Protein.ActiveResidues>
 VAL166  LYS551  ARG553  GLY616  TRP617  ASP618  TYR619  PRO620  LYS621  CYS622 
 ASP623  PHE694  ASN695  SER759  ASP760  ASP761  ALA762  ILE779  LEU786  VAL792 
 PHE793  MET794  SER795  GLU796  ALA797  LYS798  CYS799  TRP800  GLU811  SER814 

> <Gold.Protein.RotatedAtoms>
  151.5726  135.1062  159.9998 H   0  0  0  0  0  0  0  0  0  0  0  0  # atno 6907 bound_to 6896
  152.4393  133.7415  159.6654 H   0  0  0  0  0  0  0  0  0  0  0  0  # atno 6908 bound_to 6896
  150.8296  133.8044  159.3127 H   0  0  0  0  0  0  0  0  0  0  0  0  # atno 6909 bound_to 6896
  146.0108  140.6966  142.9225 H   0  0  0  0  0  0  0  0  0  0  0  0  # atno 7974 bound_to 7965
  154.7179  140.2706  155.6568 H   0  0  0  0  0  0  0  0  0  0  0  0  # atno 8008 bound_to 7997
  156.2815  140.2740  156.1766 H   0  0  0  0  0  0  0  0  0  0  0  0  # atno 8009 bound_to 7997
  155.0546  140.0371  157.2545 H   0  0  0  0  0  0  0  0  0  0  0  0  # atno 8010 bound_to 7997
  139.4855  144.5559  151.7319 H   0  0  0  0  0  0  0  0  0  0  0  0  # atno 10167 bound_to 10162
  157.6894  131.0125  150.2644 H   0  0  0  0  0  0  0  0  0  0  0  0  # atno 10718 bound_to 10713
  154.5919  135.2846  155.0627 H   0  0  0  0  0  0  0  0  0  0  0  0  # atno 10763 bound_to 10752
  154.1924  135.6438  153.5067 H   0  0  0  0  0  0  0  0  0  0  0  0  # atno 10764 bound_to 10752
  153.0124  135.5449  154.6607 H   0  0  0  0  0  0  0  0  0  0  0  0  # atno 10765 bound_to 10752
  140.2915  134.7669  157.3842 H   0  0  0  0  0  0  0  0  0  0  0  0  # atno 11005 bound_to 11000
  144.6952  140.3395  143.7201 LP  0  0  0  0  0  0  0  0  0  0  0  0  # atno 17320 bound_to 7965
  145.7345  139.1746  143.2411 LP  0  0  0  0  0  0  0  0  0  0  0  0  # atno 17321 bound_to 7965
  140.5120  144.1010  150.5998 LP  0  0  0  0  0  0  0  0  0  0  0  0  # atno 17342 bound_to 10162
  140.3939  143.2738  152.0028 LP  0  0  0  0  0  0  0  0  0  0  0  0  # atno 17343 bound_to 10162
  156.3218  130.3787  149.7568 LP  0  0  0  0  0  0  0  0  0  0  0  0  # atno 17370 bound_to 10713
  156.5136  130.8183  151.3178 LP  0  0  0  0  0  0  0  0  0  0  0  0  # atno 17371 bound_to 10713
  140.1191  134.5243  155.8199 LP  0  0  0  0  0  0  0  0  0  0  0  0  # atno 17394 bound_to 11000
  141.2145  133.6750  156.6832 LP  0  0  0  0  0  0  0  0  0  0  0  0  # atno 17395 bound_to 11000

$$$$
