AV-unprocessed.smi:3298|AV-procd|sdf|12642|dock7
  -GOLD-   2272018573D 1   1.00000     0.00000
 Structure written by MMmdl.
 35 36  0  0  0  0  0  0  0  0  1 V2000
  153.9243  140.9318  160.2479 C   0  0  0  0  0  0  0  0  0  0  0  0
  153.0264  142.0310  159.7190 C   0  0  0  0  0  0  0  0  0  0  0  0
  152.2054  141.8148  158.5916 C   0  0  0  0  0  0  0  0  0  0  0  0
  151.3804  142.8739  158.1392 C   0  0  0  0  0  0  0  0  0  0  0  0
  150.5105  142.8029  157.0153 N   0  0  0  0  0  0  0  0  0  0  0  0
  150.3482  141.8146  156.1173 C   0  0  0  0  0  0  0  0  0  0  0  0
  150.9465  140.7392  156.1151 O   0  0  0  0  0  0  0  0  0  0  0  0
  149.4253  142.1437  155.2016 N   0  0  0  0  0  0  0  0  0  0  0  0
  149.0108  141.2984  154.0861 C   0  0  2  0  0  0  0  0  0  0  0  0
  147.6929  141.7488  153.5131 C   0  0  0  0  0  0  0  0  0  0  0  0
  146.7522  140.8106  153.5908 C   0  0  0  0  0  0  0  0  0  0  0  0
  147.2372  139.5478  154.2540 C   0  0  1  0  0  0  0  0  0  0  0  0
  147.0008  138.3070  153.3770 C   0  0  0  0  0  0  0  0  0  0  0  0
  147.4716  138.5387  152.0662 O   0  0  0  0  0  0  0  0  0  0  0  0
  148.7341  139.8430  154.5380 C   0  0  0  0  0  0  0  0  0  0  0  0
  151.4362  144.0987  158.8364 C   0  0  0  0  0  0  0  0  0  0  0  0
  152.2912  144.2110  159.9503 C   0  0  0  0  0  0  0  0  0  0  0  0
  153.0717  143.2021  160.3899 N   0  0  0  0  0  0  0  0  0  0  0  0
  149.7661  141.3082  153.2982 H   0  0  0  0  0  0  0  0  0  0  0  0
  146.6932  139.4435  155.1938 H   0  0  0  0  0  0  0  0  0  0  0  0
  153.8511  140.0313  159.6374 H   0  0  0  0  0  0  0  0  0  0  0  0
  153.6446  140.6733  161.2695 H   0  0  0  0  0  0  0  0  0  0  0  0
  154.9648  141.2579  160.2483 H   0  0  0  0  0  0  0  0  0  0  0  0
  152.2327  140.8544  158.1022 H   0  0  0  0  0  0  0  0  0  0  0  0
  149.9090  143.6042  156.8934 H   0  0  0  0  0  0  0  0  0  0  0  0
  148.9789  143.0460  155.2773 H   0  0  0  0  0  0  0  0  0  0  0  0
  147.5587  142.7297  153.0810 H   0  0  0  0  0  0  0  0  0  0  0  0
  145.7366  140.9214  153.2404 H   0  0  0  0  0  0  0  0  0  0  0  0
  147.5306  137.4458  153.7855 H   0  0  0  0  0  0  0  0  0  0  0  0
  145.9417  138.0485  153.3416 H   0  0  0  0  0  0  0  0  0  0  0  0
  148.2251  139.1073  152.1129 H   0  0  0  0  0  0  0  0  0  0  0  0
  149.3794  139.1602  153.9835 H   0  0  0  0  0  0  0  0  0  0  0  0
  148.9600  139.6916  155.5945 H   0  0  0  0  0  0  0  0  0  0  0  0
  150.8338  144.9406  158.5283 H   0  0  0  0  0  0  0  0  0  0  0  0
  152.3499  145.1370  160.5028 H   0  0  0  0  0  0  0  0  0  0  0  0
  1  2  1  0  0  0  0
  1 21  1  0  0  0  0
  1 22  1  0  0  0  0
  1 23  1  0  0  0  0
  2 18  1  0  0  0  0
  2  3  2  0  0  0  0
  3  4  1  0  0  0  0
  3 24  1  0  0  0  0
  4  5  1  0  0  0  0
  4 16  2  0  0  0  0
  5  6  1  0  0  0  0
  5 25  1  0  0  0  0
  6  7  2  0  0  0  0
  6  8  1  0  0  0  0
  8  9  1  0  0  0  0
  8 26  1  0  0  0  0
  9 19  1  0  0  0  0
  9 15  1  0  0  0  0
  9 10  1  0  0  0  0
 10 11  2  0  0  0  0
 10 27  1  0  0  0  0
 11 12  1  0  0  0  0
 11 28  1  0  0  0  0
 12 20  1  0  0  0  0
 12 13  1  0  0  0  0
 12 15  1  0  0  0  0
 13 14  1  0  0  0  0
 13 29  1  0  0  0  0
 13 30  1  0  0  0  0
 14 31  1  0  0  0  0
 15 32  1  0  0  0  0
 15 33  1  0  0  0  0
 16 17  1  0  0  0  0
 16 34  1  0  0  0  0
 17 18  2  0  0  0  0
 17 35  1  0  0  0  0
M  END
> <s_m_source_file>
AV-unprocessed.smi

> <i_m_source_file_index>
3298

> <i_lp_mmshare_version>
43012

> <i_f3d_flags>
0

> <s_epik_input>
W0NIM11jMVtjSF1jKFtjSF1bY0hdbjEpW05IXUMoPU8pW05IXVtDQEBIXTJbQ0hdPVtDSF1bQ0BASF0oW0NIMl0yKVtDSDJdW09IXQ==

> <s_epik_cmdline>
J2VwaWtfcHl0aG9uJywgJy1waCcsICc3LjAnLCAnLXRuJywgJzgnLCAnLW1hJywgJzIwMCcsICctbWV0YWxfYmluZGluZycsICctaW1hZScsICc8aW5maWxlLm1hZT4nLCAnLW9tYWUnLCAnPG91dGZpbGUubWFlPic=

> <r_epik_Ionization_Penalty>
0.379275

> <r_epik_Ionization_Penalty_Charging>
0

> <r_epik_Ionization_Penalty_Neutral>
0.379275

> <r_epik_State_Penalty>
0.377195

> <r_epik_Charging_Adjusted_Penalty>
0.377195

> <i_epik_Tot_Q>
0

> <i_epik_Tot_abs_Q>
0

> <r_epik_Metal_State_Penalty>
0.22815

> <b_epik_Metal_Only>
0

> <s_lp_Force_Field>
OPLS_2005

> <r_lp_Energy>
21.788

> <b_lp_Chiralities_Consistent>
1

> <s_lp_Variant>
AV-unprocessed.smi:3298-3

> <Gold.Version>
5.8.1

> <Gold.Id.Protein>
6NUR|6NUR_protein|mol2

> <Gold.PLP.Fitness>
45.7716

> <Gold.PLP.PLP>
-37.3540

> <Gold.PLP.part.hbond>
-4.1396

> <Gold.PLP.part.metal>
0.0000

> <Gold.PLP.part.buried>
-3.5028

> <Gold.PLP.part.nonpolar>
-29.3716

> <Gold.PLP.part.repulsive>
0.2443

> <Gold.PLP.ligand.clash>
0.0000

> <Gold.PLP.ligand.torsion>
0.2507

> <Gold.PLP.Chemscore.Hbond>
2.9684

> <Gold.PLP.Chemscore.CHOScore>
0.0000

> <Gold.PLP.Chemscore.Metal>
0.0000

> <Gold.Chemscore.Hbonds>
donor molecule, donor type, donor heavy atom, donor atom, acceptor molecule, acceptor atom, score
      L1  H     5    25       P1  8028  0.96
      L1  H     8    26       P1  8028  1.00
      L1  H    14    31       P1  7957  0.91
      P1  H  7954  7966       L1    14  0.07

> <Gold.PLP.Chemscore.Internal.Correction>
0.0136

> <Gold.Rescore>
     Score         DG    S(hbond)    S(metal)    S(lipo)     H(rot)  DE(clash)    DE(int)     intcor
     18.62     -21.63       2.77        0.00      98.04       1.78       0.41       2.60       ----

> <Gold.Chemscore.Fitness>
18.6151

> <Gold.Chemscore.DG>
-21.6307

> <Gold.Chemscore.ZeroCoef>
-5.4800

> <Gold.Chemscore.Hbond>
2.7653

> <Gold.Chemscore.Metal>
0.0000

> <Gold.Chemscore.Lipo>
98.0396

> <Gold.Chemscore.Internal_Hbond>
0.0000

> <Gold.Chemscore.DEClash>
0.4149

> <Gold.Chemscore.DEInternal>
2.6007

> <Gold.Chemscore.Rot>
1.7796

> <Gold.Chemscore.Internal.Correction>
   9.000000E+99

> <Gold.Chemscore.Hbonds>
donor molecule, donor type, donor heavy atom, donor atom, acceptor molecule, acceptor atom, score
      L1  H     5    25       P1  8028  0.91
      L1  H     8    26       P1  8028  0.98
      L1  H    14    31       P1  7957  0.89

> <Gold.Chemscore.Hbond.Weighted>
-9.2360

> <Gold.Chemscore.Metal.Weighted>
-0.0000

> <Gold.Chemscore.Lipo.Weighted>
-11.4706

> <Gold.Chemscore.Internal_Hbond.Weighted>
0.0000

> <Gold.Chemscore.DEClash.Weighted>
0.4149

> <Gold.Chemscore.DEInternal.Weighted>
2.6007

> <Gold.Chemscore.Rot.Weighted>
4.5558

> <Gold.Chemscore.Internal.Correction.Weighted>
   9.000000E+99

> <Gold.Protein.RotatedTorsions>
[ 6907 6896 6895 6894 ] final   90.17 input  -60.11 | X-H torsion
[ 7974 7965 7964 7962 ] final  -73.18 input  175.53 | X-H torsion
[ 8008 7997 7996 7995 ] final  -85.06 input   59.86 | X-H torsion
[ 10167 10162 10161 10158 ] final   75.94 input  -65.29 | X-H torsion
[ 10718 10713 10712 10709 ] final -129.13 input   66.30 | X-H torsion
[ 10763 10752 10751 10750 ] final  121.85 input  -60.55 | X-H torsion
[ 11005 11000 10999 10996 ] final  144.78 input  -57.11 | X-H torsion

> <Gold.Protein.ActiveResidues>
 VAL166  LYS551  ARG553  GLY616  TRP617  ASP618  TYR619  PRO620  LYS621  CYS622 
 ASP623  PHE694  ASN695  SER759  ASP760  ASP761  ALA762  ILE779  LEU786  VAL792 
 PHE793  MET794  SER795  GLU796  ALA797  LYS798  CYS799  TRP800  GLU811  SER814 

> <Gold.Protein.RotatedAtoms>
  152.5442  134.1854  159.8651 H   0  0  0  0  0  0  0  0  0  0  0  0  # atno 6907 bound_to 6896
  151.1853  133.4693  159.2602 H   0  0  0  0  0  0  0  0  0  0  0  0  # atno 6908 bound_to 6896
  151.1137  135.0053  159.8561 H   0  0  0  0  0  0  0  0  0  0  0  0  # atno 6909 bound_to 6896
  145.6555  140.9269  143.0961 H   0  0  0  0  0  0  0  0  0  0  0  0  # atno 7974 bound_to 7965
  154.6365  140.0596  156.9795 H   0  0  0  0  0  0  0  0  0  0  0  0  # atno 8008 bound_to 7997
  155.1583  140.3280  155.4398 H   0  0  0  0  0  0  0  0  0  0  0  0  # atno 8009 bound_to 7997
  156.2510  140.1935  156.6691 H   0  0  0  0  0  0  0  0  0  0  0  0  # atno 8010 bound_to 7997
  139.9976  144.5711  150.7765 H   0  0  0  0  0  0  0  0  0  0  0  0  # atno 10167 bound_to 10162
  156.2017  130.6862  151.0547 H   0  0  0  0  0  0  0  0  0  0  0  0  # atno 10718 bound_to 10713
  153.6205  135.3414  155.3009 H   0  0  0  0  0  0  0  0  0  0  0  0  # atno 10763 bound_to 10752
  154.8601  135.4272  154.2212 H   0  0  0  0  0  0  0  0  0  0  0  0  # atno 10764 bound_to 10752
  153.3084  135.7030  153.7211 H   0  0  0  0  0  0  0  0  0  0  0  0  # atno 10765 bound_to 10752
  140.0660  134.9178  157.1264 H   0  0  0  0  0  0  0  0  0  0  0  0  # atno 11005 bound_to 11000
  144.7107  139.8382  143.7415 LP  0  0  0  0  0  0  0  0  0  0  0  0  # atno 17320 bound_to 7965
  146.1168  139.4180  143.0253 LP  0  0  0  0  0  0  0  0  0  0  0  0  # atno 17321 bound_to 7965
  140.7431  143.2842  151.3512 LP  0  0  0  0  0  0  0  0  0  0  0  0  # atno 17342 bound_to 10162
  139.6295  144.0749  152.2464 LP  0  0  0  0  0  0  0  0  0  0  0  0  # atno 17343 bound_to 10162
  157.6989  131.0783  150.6881 LP  0  0  0  0  0  0  0  0  0  0  0  0  # atno 17370 bound_to 10713
  156.6939  130.4603  149.5592 LP  0  0  0  0  0  0  0  0  0  0  0  0  # atno 17371 bound_to 10713
  140.3699  134.2402  155.7179 LP  0  0  0  0  0  0  0  0  0  0  0  0  # atno 17394 bound_to 11000
  141.1993  133.8016  157.0544 LP  0  0  0  0  0  0  0  0  0  0  0  0  # atno 17395 bound_to 11000

$$$$
