AV-unprocessed.smi:1404|AV-procd|sdf|5706|dock2
  -GOLD-   22720 5333D 1   1.00000     0.00000
 Structure written by MMmdl.
 48 49  0  0  0  0  0  0  0  0  2 V2000
  145.1648  130.1168  151.6081 C   0  0  0  0  0  0  0  0  0  0  0  0
  145.2003  131.5645  151.5882 N   0  0  0  0  0  0  0  0  0  0  0  0
  144.4243  132.2608  150.6299 C   0  0  0  0  0  0  0  0  0  0  0  0
  143.7090  131.6862  149.8087 O   0  0  0  0  0  0  0  0  0  0  0  0
  144.5481  133.7124  150.6938 C   0  0  0  0  0  0  0  0  0  0  0  0
  145.3531  134.3018  151.6046 C   0  0  0  0  0  0  0  0  0  0  0  0
  146.1063  133.5967  152.5255 N   0  0  0  0  0  0  0  0  0  0  0  0
  146.9674  134.3179  153.4707 C   0  0  0  0  0  0  0  0  0  0  0  0
  146.2873  135.5695  154.0378 C   0  0  0  0  0  0  0  0  0  0  0  0
  145.4446  135.4709  154.9303 O   0  0  0  0  0  0  0  0  0  0  0  0
  146.6675  136.7421  153.5082 N   0  0  0  0  0  0  0  0  0  0  0  0
  146.1195  138.0530  153.8547 C   0  0  0  0  0  0  0  0  0  0  0  0
  146.8794  139.2524  153.2058 C   0  0  0  0  0  0  0  0  0  0  0  0
  148.3780  139.1210  153.5871 C   0  0  0  0  0  0  0  0  0  0  0  0
  146.7830  139.2008  151.6605 C   0  0  0  0  0  0  0  0  0  0  0  0
  146.2909  140.5356  153.7425 N   0  3  0  0  0  0  0  0  0  0  0  0
  146.0309  140.5819  155.2105 C   0  0  0  0  0  0  0  0  0  0  0  0
  145.3009  141.8800  155.5994 C   0  0  0  0  0  0  0  0  0  0  0  0
  146.0472  143.0102  155.1731 O   0  0  0  0  0  0  0  0  0  0  0  0
  146.2080  143.0270  153.7627 C   0  0  0  0  0  0  0  0  0  0  0  0
  146.9974  141.7826  153.3287 C   0  0  0  0  0  0  0  0  0  0  0  0
  146.0452  132.1863  152.5334 C   0  0  0  0  0  0  0  0  0  0  0  0
  146.7137  131.5311  153.3376 O   0  0  0  0  0  0  0  0  0  0  0  0
  144.3899  129.7311  150.9467 H   0  0  0  0  0  0  0  0  0  0  0  0
  144.9466  129.8054  152.6313 H   0  0  0  0  0  0  0  0  0  0  0  0
  146.1481  129.7694  151.2865 H   0  0  0  0  0  0  0  0  0  0  0  0
  143.9893  134.3236  150.0003 H   0  0  0  0  0  0  0  0  0  0  0  0
  145.4127  135.3806  151.6075 H   0  0  0  0  0  0  0  0  0  0  0  0
  147.2383  133.6696  154.3051 H   0  0  0  0  0  0  0  0  0  0  0  0
  147.9083  134.5844  152.9849 H   0  0  0  0  0  0  0  0  0  0  0  0
  147.3720  136.7222  152.7846 H   0  0  0  0  0  0  0  0  0  0  0  0
  145.0596  138.0601  153.6058 H   0  0  0  0  0  0  0  0  0  0  0  0
  146.1630  138.1418  154.9409 H   0  0  0  0  0  0  0  0  0  0  0  0
  148.7931  138.1574  153.2913 H   0  0  0  0  0  0  0  0  0  0  0  0
  148.5281  139.2208  154.6625 H   0  0  0  0  0  0  0  0  0  0  0  0
  148.9977  139.8651  153.0865 H   0  0  0  0  0  0  0  0  0  0  0  0
  147.3284  138.3489  151.2540 H   0  0  0  0  0  0  0  0  0  0  0  0
  147.2084  140.0917  151.1987 H   0  0  0  0  0  0  0  0  0  0  0  0
  145.7530  139.1060  151.3165 H   0  0  0  0  0  0  0  0  0  0  0  0
  145.3961  139.7585  155.5324 H   0  0  0  0  0  0  0  0  0  0  0  0
  146.9704  140.5034  155.7587 H   0  0  0  0  0  0  0  0  0  0  0  0
  144.3004  141.9070  155.1644 H   0  0  0  0  0  0  0  0  0  0  0  0
  145.1761  141.9297  156.6813 H   0  0  0  0  0  0  0  0  0  0  0  0
  145.2366  143.0698  153.2676 H   0  0  0  0  0  0  0  0  0  0  0  0
  146.7491  143.9310  153.4822 H   0  0  0  0  0  0  0  0  0  0  0  0
  147.9883  141.8219  153.7824 H   0  0  0  0  0  0  0  0  0  0  0  0
  147.1402  141.8280  152.2515 H   0  0  0  0  0  0  0  0  0  0  0  0
  145.3750  140.5907  153.3203 H   0  0  0  0  0  0  0  0  0  0  0  0
  1  2  1  0  0  0  0
  1 24  1  0  0  0  0
  1 25  1  0  0  0  0
  1 26  1  0  0  0  0
  2 22  1  0  0  0  0
  2  3  1  0  0  0  0
  3  4  2  0  0  0  0
  3  5  1  0  0  0  0
  5  6  2  0  0  0  0
  5 27  1  0  0  0  0
  6  7  1  0  0  0  0
  6 28  1  0  0  0  0
  7  8  1  0  0  0  0
  7 22  1  0  0  0  0
  8  9  1  0  0  0  0
  8 29  1  0  0  0  0
  8 30  1  0  0  0  0
  9 10  2  0  0  0  0
  9 11  1  0  0  0  0
 11 12  1  0  0  0  0
 11 31  1  0  0  0  0
 12 13  1  0  0  0  0
 12 32  1  0  0  0  0
 12 33  1  0  0  0  0
 13 14  1  0  0  0  0
 13 15  1  0  0  0  0
 13 16  1  0  0  0  0
 14 34  1  0  0  0  0
 14 35  1  0  0  0  0
 14 36  1  0  0  0  0
 15 37  1  0  0  0  0
 15 38  1  0  0  0  0
 15 39  1  0  0  0  0
 16 21  1  0  0  0  0
 16 17  1  0  0  0  0
 16 48  1  0  0  0  0
 17 18  1  0  0  0  0
 17 40  1  0  0  0  0
 17 41  1  0  0  0  0
 18 19  1  0  0  0  0
 18 42  1  0  0  0  0
 18 43  1  0  0  0  0
 19 20  1  0  0  0  0
 20 21  1  0  0  0  0
 20 44  1  0  0  0  0
 20 45  1  0  0  0  0
 21 46  1  0  0  0  0
 21 47  1  0  0  0  0
 22 23  2  0  0  0  0
M  CHG  1  16   1
M  END
> <s_m_source_file>
AV-unprocessed.smi

> <i_m_source_file_index>
1404

> <i_lp_mmshare_version>
43012

> <i_f3d_flags>
0

> <s_epik_input>
W0NIM11uMWMoPU8pW2NIXVtjSF1uKGMxPU8pW0NIMl1DKD1PKVtOSF1bQ0gyXUMoW0NIM10pKFtDSDNdKU4yW0NIMl1bQ0gyXU9bQ0gyXVtDSDJdMg==

> <s_epik_cmdline>
J2VwaWtfcHl0aG9uJywgJy1waCcsICc3LjAnLCAnLXRuJywgJzgnLCAnLW1hJywgJzIwMCcsICctbWV0YWxfYmluZGluZycsICctaW1hZScsICc8aW5maWxlLm1hZT4nLCAnLW9tYWUnLCAnPG91dGZpbGUubWFlPic=

> <r_lp_tautomer_probability>
1

> <r_epik_Ionization_Penalty>
0.656654

> <r_epik_Ionization_Penalty_Charging>
0.656653

> <r_epik_Ionization_Penalty_Neutral>
9.12373e-08

> <r_epik_State_Penalty>
0.675641

> <r_epik_Charging_Adjusted_Penalty>
1.33229

> <i_epik_Tot_Q>
1

> <i_epik_Tot_abs_Q>
1

> <r_epik_Metal_State_Penalty>
0.675694

> <b_epik_Metal_Only>
0

> <s_lp_Force_Field>
OPLS_2005

> <r_lp_Energy>
33.2005

> <b_lp_Chiralities_Consistent>
1

> <s_lp_Variant>
AV-unprocessed.smi:1404-2

> <Gold.Version>
5.8.1

> <Gold.Id.Protein>
6NUR|6NUR_protein|mol2

> <Gold.PLP.Fitness>
45.5045

> <Gold.PLP.PLP>
-35.2527

> <Gold.PLP.part.hbond>
-3.0000

> <Gold.PLP.part.metal>
0.0000

> <Gold.PLP.part.buried>
-4.4888

> <Gold.PLP.part.nonpolar>
-28.1349

> <Gold.PLP.part.repulsive>
0.5498

> <Gold.PLP.ligand.clash>
0.0000

> <Gold.PLP.ligand.torsion>
0.7172

> <Gold.PLP.Chemscore.Hbond>
3.8480

> <Gold.PLP.Chemscore.CHOScore>
0.0000

> <Gold.PLP.Chemscore.Metal>
0.0000

> <Gold.Chemscore.Hbonds>
donor molecule, donor type, donor heavy atom, donor atom, acceptor molecule, acceptor atom, score
      L1  H    11    31       P1  7948  1.00
      L1  H    16    48       P1 10175  2.00
      P1  H 10785 10796       L1     4  0.88

> <Gold.PLP.Chemscore.Internal.Correction>
0.1422

> <Gold.Rescore>
     Score         DG    S(hbond)    S(metal)    S(lipo)     H(rot)  DE(clash)    DE(int)     intcor
     16.14     -17.30       2.82        0.00      67.24       2.14       0.70       0.46       ----

> <Gold.Chemscore.Fitness>
16.1446

> <Gold.Chemscore.DG>
-17.3032

> <Gold.Chemscore.ZeroCoef>
-5.4800

> <Gold.Chemscore.Hbond>
2.8233

> <Gold.Chemscore.Metal>
0.0000

> <Gold.Chemscore.Lipo>
67.2376

> <Gold.Chemscore.Internal_Hbond>
0.0000

> <Gold.Chemscore.DEClash>
0.6956

> <Gold.Chemscore.DEInternal>
0.4629

> <Gold.Chemscore.Rot>
2.1381

> <Gold.Chemscore.Internal.Correction>
   9.000000E+99

> <Gold.Chemscore.Hbonds>
donor molecule, donor type, donor heavy atom, donor atom, acceptor molecule, acceptor atom, score
      L1  H    11    31       P1  7948  0.99
      L1  H    16    48       P1 10175  0.93
      P1  H 10785 10796       L1     4  0.86

> <Gold.Chemscore.Hbond.Weighted>
-9.4298

> <Gold.Chemscore.Metal.Weighted>
-0.0000

> <Gold.Chemscore.Lipo.Weighted>
-7.8668

> <Gold.Chemscore.Internal_Hbond.Weighted>
0.0000

> <Gold.Chemscore.DEClash.Weighted>
0.6956

> <Gold.Chemscore.DEInternal.Weighted>
0.4629

> <Gold.Chemscore.Rot.Weighted>
5.4735

> <Gold.Chemscore.Internal.Correction.Weighted>
   9.000000E+99

> <Gold.Protein.RotatedTorsions>
[ 6907 6896 6895 6894 ] final   -6.85 input  -60.11 | X-H torsion
[ 7974 7965 7964 7962 ] final  -75.74 input  175.53 | X-H torsion
[ 8008 7997 7996 7995 ] final   51.70 input   59.86 | X-H torsion
[ 10167 10162 10161 10158 ] final   88.82 input  -65.29 | X-H torsion
[ 10718 10713 10712 10709 ] final  158.03 input   66.30 | X-H torsion
[ 10763 10752 10751 10750 ] final   55.91 input  -60.55 | X-H torsion
[ 11005 11000 10999 10996 ] final -114.05 input  -57.11 | X-H torsion

> <Gold.Protein.ActiveResidues>
 VAL166  LYS551  ARG553  GLY616  TRP617  ASP618  TYR619  PRO620  LYS621  CYS622 
 ASP623  PHE694  ASN695  SER759  ASP760  ASP761  ALA762  ILE779  LEU786  VAL792 
 PHE793  MET794  SER795  GLU796  ALA797  LYS798  CYS799  TRP800  GLU811  SER814 

> <Gold.Protein.RotatedAtoms>
  151.4589  135.1036  159.9718 H   0  0  0  0  0  0  0  0  0  0  0  0  # atno 6907 bound_to 6896
  152.4860  133.8371  159.7143 H   0  0  0  0  0  0  0  0  0  0  0  0  # atno 6908 bound_to 6896
  150.8970  133.7107  159.2916 H   0  0  0  0  0  0  0  0  0  0  0  0  # atno 6909 bound_to 6896
  145.6220  140.9360  143.1133 H   0  0  0  0  0  0  0  0  0  0  0  0  # atno 7974 bound_to 7965
  155.4397  140.3454  155.4288 H   0  0  0  0  0  0  0  0  0  0  0  0  # atno 8008 bound_to 7997
  156.1286  140.1507  156.9129 H   0  0  0  0  0  0  0  0  0  0  0  0  # atno 8009 bound_to 7997
  154.4877  140.0850  156.7504 H   0  0  0  0  0  0  0  0  0  0  0  0  # atno 8010 bound_to 7997
  139.8635  144.6531  150.9031 H   0  0  0  0  0  0  0  0  0  0  0  0  # atno 10167 bound_to 10162
  157.1834  131.0638  151.2119 H   0  0  0  0  0  0  0  0  0  0  0  0  # atno 10718 bound_to 10713
  152.9824  135.5694  154.5143 H   0  0  0  0  0  0  0  0  0  0  0  0  # atno 10763 bound_to 10752
  154.4641  135.2782  155.1693 H   0  0  0  0  0  0  0  0  0  0  0  0  # atno 10764 bound_to 10752
  154.3268  135.6257  153.5586 H   0  0  0  0  0  0  0  0  0  0  0  0  # atno 10765 bound_to 10752
  141.0576  133.9587  157.2725 H   0  0  0  0  0  0  0  0  0  0  0  0  # atno 11005 bound_to 11000
  144.7227  139.7976  143.7376 LP  0  0  0  0  0  0  0  0  0  0  0  0  # atno 17320 bound_to 7965
  146.1423  139.4484  143.0101 LP  0  0  0  0  0  0  0  0  0  0  0  0  # atno 17321 bound_to 7965
  140.7771  143.3724  151.1624 LP  0  0  0  0  0  0  0  0  0  0  0  0  # atno 17342 bound_to 10162
  139.7351  143.9011  152.3032 LP  0  0  0  0  0  0  0  0  0  0  0  0  # atno 17343 bound_to 10162
  157.3930  130.7292  149.6711 LP  0  0  0  0  0  0  0  0  0  0  0  0  # atno 17370 bound_to 10713
  155.9721  130.4141  150.4116 LP  0  0  0  0  0  0  0  0  0  0  0  0  # atno 17371 bound_to 10713
  139.9404  135.0192  156.8690 LP  0  0  0  0  0  0  0  0  0  0  0  0  # atno 17394 bound_to 11000
  140.5933  134.0241  155.7508 LP  0  0  0  0  0  0  0  0  0  0  0  0  # atno 17395 bound_to 11000

$$$$
