AV-unprocessed.smi:1965|AV-procd|sdf|7933|dock1
  -GOLD-   2272010103D 1   1.00000     0.00000
 Structure written by MMmdl.
 37 39  0  0  0  0  0  0  0  0  2 V2000
  152.4466  140.4661  157.8154 O   0  0  0  0  0  0  0  0  0  0  0  0
  151.5706  141.3278  157.8639 C   0  0  0  0  0  0  0  0  0  0  0  0
  151.4447  142.1402  158.9342 N   0  0  0  0  0  0  0  0  0  0  0  0
  152.1910  142.2142  160.1461 C   0  0  0  0  0  0  0  0  0  0  0  0
  151.9234  143.0413  161.1652 N   0  0  0  0  0  0  0  0  0  0  0  0
  152.8437  142.9087  162.2080 C   0  0  0  0  0  0  0  0  0  0  0  0
  153.8196  141.9759  161.9623 C   0  0  0  0  0  0  0  0  0  0  0  0
  153.6210  141.2243  160.4021 S   0  0  0  0  0  0  0  0  0  0  0  0
  150.6899  141.5218  156.8686 N   0  0  0  0  0  0  0  0  0  0  0  0
  150.6921  140.8111  155.5943 C   0  0  1  0  0  0  0  0  0  0  0  0
  150.6423  139.2965  155.7481 C   0  0  0  0  0  0  0  0  0  0  0  0
  150.1646  138.8268  154.3703 C   0  0  0  0  0  0  0  0  0  0  0  0
  149.3698  139.9372  153.7897 N   0  3  1  0  0  0  0  0  0  0  0  0
  147.9872  139.5510  153.3998 C   0  0  0  0  0  0  0  0  0  0  0  0
  147.1102  140.7930  153.1826 C   0  0  0  0  0  0  0  0  0  0  0  0
  146.9749  141.6210  154.4743 C   0  0  0  0  0  0  0  0  0  0  0  0
  148.1446  141.3879  155.4494 C   0  0  0  0  0  0  0  0  0  0  0  0
  149.4733  141.1119  154.7016 C   0  0  1  0  0  0  0  0  0  0  0  0
  150.6366  142.7452  158.9079 H   0  0  0  0  0  0  0  0  0  0  0  0
  152.7303  143.5209  163.0905 H   0  0  0  0  0  0  0  0  0  0  0  0
  154.6417  141.6885  162.6008 H   0  0  0  0  0  0  0  0  0  0  0  0
  149.9973  142.2476  156.9891 H   0  0  0  0  0  0  0  0  0  0  0  0
  151.6032  141.0588  155.0449 H   0  0  0  0  0  0  0  0  0  0  0  0
  151.6034  138.8656  156.0307 H   0  0  0  0  0  0  0  0  0  0  0  0
  149.9113  139.0166  156.5084 H   0  0  0  0  0  0  0  0  0  0  0  0
  151.0210  138.6537  153.7176 H   0  0  0  0  0  0  0  0  0  0  0  0
  149.6118  137.8886  154.4351 H   0  0  0  0  0  0  0  0  0  0  0  0
  148.0294  138.9468  152.4932 H   0  0  0  0  0  0  0  0  0  0  0  0
  147.5378  138.9270  154.1742 H   0  0  0  0  0  0  0  0  0  0  0  0
  147.5553  141.4081  152.3992 H   0  0  0  0  0  0  0  0  0  0  0  0
  146.1228  140.5064  152.8194 H   0  0  0  0  0  0  0  0  0  0  0  0
  146.9110  142.6780  154.2131 H   0  0  0  0  0  0  0  0  0  0  0  0
  146.0400  141.3770  154.9801 H   0  0  0  0  0  0  0  0  0  0  0  0
  148.2334  142.2533  156.1069 H   0  0  0  0  0  0  0  0  0  0  0  0
  147.9124  140.5407  156.0964 H   0  0  0  0  0  0  0  0  0  0  0  0
  149.6942  141.9904  154.0933 H   0  0  0  0  0  0  0  0  0  0  0  0
  149.8435  140.2087  152.9399 H   0  0  0  0  0  0  0  0  0  0  0  0
  1  2  2  0  0  0  0
  2  3  1  0  0  0  0
  2  9  1  0  0  0  0
  3  4  1  0  0  0  0
  3 19  1  0  0  0  0
  4  8  1  0  0  0  0
  4  5  2  0  0  0  0
  5  6  1  0  0  0  0
  6  7  2  0  0  0  0
  6 20  1  0  0  0  0
  7  8  1  0  0  0  0
  7 21  1  0  0  0  0
  9 10  1  0  0  0  0
  9 22  1  0  0  0  0
 10 18  1  0  0  0  0
 10 11  1  0  0  0  0
 10 23  1  0  0  0  0
 11 12  1  0  0  0  0
 11 24  1  0  0  0  0
 11 25  1  0  0  0  0
 12 13  1  0  0  0  0
 12 26  1  0  0  0  0
 12 27  1  0  0  0  0
 13 18  1  0  0  0  0
 13 14  1  0  0  0  0
 13 37  1  0  0  0  0
 14 15  1  0  0  0  0
 14 28  1  0  0  0  0
 14 29  1  0  0  0  0
 15 16  1  0  0  0  0
 15 30  1  0  0  0  0
 15 31  1  0  0  0  0
 16 17  1  0  0  0  0
 16 32  1  0  0  0  0
 16 33  1  0  0  0  0
 17 18  1  0  0  0  0
 17 34  1  0  0  0  0
 17 35  1  0  0  0  0
 18 36  1  0  0  0  0
M  CHG  1  13   1
M  END
> <s_m_source_file>
AV-unprocessed.smi

> <i_m_source_file_index>
1965

> <i_lp_mmshare_version>
43012

> <i_f3d_flags>
0

> <s_epik_input>
czFbY0hdW2NIXW5jMVtOSF1DKD1PKVtOSF1bQ0BIXShbQ0gyXVtDSDJdMilbQ0BASF0oTjIzKVtDSDJdW0NIMl1bQ0gyXVtDSDJdMw==

> <s_epik_cmdline>
J2VwaWtfcHl0aG9uJywgJy1waCcsICc3LjAnLCAnLXRuJywgJzgnLCAnLW1hJywgJzIwMCcsICctbWV0YWxfYmluZGluZycsICctaW1hZScsICc8aW5maWxlLm1hZT4nLCAnLW9tYWUnLCAnPG91dGZpbGUubWFlPic=

> <r_lp_tautomer_probability>
1

> <r_epik_Ionization_Penalty>
0.00125962

> <r_epik_Ionization_Penalty_Charging>
0.00107044

> <r_epik_Ionization_Penalty_Neutral>
0.000189176

> <r_epik_State_Penalty>
-0

> <r_epik_Charging_Adjusted_Penalty>
0.00107044

> <i_epik_Tot_Q>
1

> <i_epik_Tot_abs_Q>
1

> <r_epik_Metal_State_Penalty>
0.0179285

> <b_epik_Metal_Only>
0

> <s_lp_Force_Field>
OPLS_2005

> <r_lp_Energy>
41.2924

> <b_lp_Chiralities_Consistent>
1

> <s_lp_Variant>
AV-unprocessed.smi:1965-2

> <Gold.Version>
5.8.1

> <Gold.Id.Protein>
6NUR|6NUR_protein|mol2

> <Gold.PLP.Fitness>
41.8245

> <Gold.PLP.PLP>
-38.4497

> <Gold.PLP.part.hbond>
-2.0453

> <Gold.PLP.part.metal>
0.0000

> <Gold.PLP.part.buried>
-1.6955

> <Gold.PLP.part.nonpolar>
-33.5067

> <Gold.PLP.part.repulsive>
0.4020

> <Gold.PLP.ligand.clash>
0.0000

> <Gold.PLP.ligand.torsion>
0.0363

> <Gold.PLP.Chemscore.Hbond>
1.1480

> <Gold.PLP.Chemscore.CHOScore>
0.0000

> <Gold.PLP.Chemscore.Metal>
0.0000

> <Gold.Chemscore.Hbonds>
donor molecule, donor type, donor heavy atom, donor atom, acceptor molecule, acceptor atom, score
      L1  H    13    37       P1  7957  0.78
      P1  H  7997  8008       L1     1  0.38

> <Gold.PLP.Chemscore.Internal.Correction>
0.0034

> <Gold.Rescore>
     Score         DG    S(hbond)    S(metal)    S(lipo)     H(rot)  DE(clash)    DE(int)     intcor
     15.42     -19.05       1.81        0.00      86.06       1.00       1.28       2.35       ----

> <Gold.Chemscore.Fitness>
15.4182

> <Gold.Chemscore.DG>
-19.0473

> <Gold.Chemscore.ZeroCoef>
-5.4800

> <Gold.Chemscore.Hbond>
1.8138

> <Gold.Chemscore.Metal>
0.0000

> <Gold.Chemscore.Lipo>
86.0617

> <Gold.Chemscore.Internal_Hbond>
0.0000

> <Gold.Chemscore.DEClash>
1.2820

> <Gold.Chemscore.DEInternal>
2.3471

> <Gold.Chemscore.Rot>
1.0000

> <Gold.Chemscore.Internal.Correction>
   9.000000E+99

> <Gold.Chemscore.Hbonds>
donor molecule, donor type, donor heavy atom, donor atom, acceptor molecule, acceptor atom, score
      L1  H    13    37       P1  7957  0.78
      P1  H  7997  8008       L1     1  0.36

> <Gold.Chemscore.Hbond.Weighted>
-6.0581

> <Gold.Chemscore.Metal.Weighted>
-0.0000

> <Gold.Chemscore.Lipo.Weighted>
-10.0692

> <Gold.Chemscore.Internal_Hbond.Weighted>
0.0000

> <Gold.Chemscore.DEClash.Weighted>
1.2820

> <Gold.Chemscore.DEInternal.Weighted>
2.3471

> <Gold.Chemscore.Rot.Weighted>
2.5600

> <Gold.Chemscore.Internal.Correction.Weighted>
   9.000000E+99

> <Gold.Protein.RotatedTorsions>
[ 6907 6896 6895 6894 ] final   70.75 input  -60.11 | X-H torsion
[ 7974 7965 7964 7962 ] final  -47.58 input  175.53 | X-H torsion
[ 8008 7997 7996 7995 ] final  -70.06 input   59.86 | X-H torsion
[ 10167 10162 10161 10158 ] final   63.38 input  -65.29 | X-H torsion
[ 10718 10713 10712 10709 ] final  -22.59 input   66.30 | X-H torsion
[ 10763 10752 10751 10750 ] final -144.29 input  -60.55 | X-H torsion
[ 11005 11000 10999 10996 ] final   10.80 input  -57.11 | X-H torsion

> <Gold.Protein.ActiveResidues>
 VAL166  LYS551  ARG553  GLY616  TRP617  ASP618  TYR619  PRO620  LYS621  CYS622 
 ASP623  PHE694  ASN695  SER759  ASP760  ASP761  ALA762  ILE779  LEU786  VAL792 
 PHE793  MET794  SER795  GLU796  ALA797  LYS798  CYS799  TRP800  GLU811  SER814 

> <Gold.Protein.RotatedAtoms>
  152.4769  134.4821  159.9668 H   0  0  0  0  0  0  0  0  0  0  0  0  # atno 6907 bound_to 6896
  151.4836  133.3535  159.2850 H   0  0  0  0  0  0  0  0  0  0  0  0  # atno 6908 bound_to 6896
  150.8813  134.8231  159.7288 H   0  0  0  0  0  0  0  0  0  0  0  0  # atno 6909 bound_to 6896
  145.9601  140.7488  142.9462 H   0  0  0  0  0  0  0  0  0  0  0  0  # atno 7974 bound_to 7965
  154.4984  140.0841  156.7745 H   0  0  0  0  0  0  0  0  0  0  0  0  # atno 8008 bound_to 7997
  155.4062  140.3439  155.4242 H   0  0  0  0  0  0  0  0  0  0  0  0  # atno 8009 bound_to 7997
  156.1424  140.1533  156.8888 H   0  0  0  0  0  0  0  0  0  0  0  0  # atno 8010 bound_to 7997
  140.1337  144.4619  150.6850 H   0  0  0  0  0  0  0  0  0  0  0  0  # atno 10167 bound_to 10162
  156.5025  130.4591  149.6693 H   0  0  0  0  0  0  0  0  0  0  0  0  # atno 10718 bound_to 10713
  154.8434  135.3444  154.6322 H   0  0  0  0  0  0  0  0  0  0  0  0  # atno 10763 bound_to 10752
  153.6932  135.6974  153.5088 H   0  0  0  0  0  0  0  0  0  0  0  0  # atno 10764 bound_to 10752
  153.2579  135.4332  155.0819 H   0  0  0  0  0  0  0  0  0  0  0  0  # atno 10765 bound_to 10752
  140.5104  134.0658  155.7816 H   0  0  0  0  0  0  0  0  0  0  0  0  # atno 11005 bound_to 11000
  144.6813  140.2576  143.7323 LP  0  0  0  0  0  0  0  0  0  0  0  0  # atno 17320 bound_to 7965
  145.8052  139.1980  143.2025 LP  0  0  0  0  0  0  0  0  0  0  0  0  # atno 17321 bound_to 7965
  140.6802  143.2323  151.5405 LP  0  0  0  0  0  0  0  0  0  0  0  0  # atno 17342 bound_to 10162
  139.5506  144.2404  152.1524 LP  0  0  0  0  0  0  0  0  0  0  0  0  # atno 17343 bound_to 10162
  156.3319  130.7336  151.2266 LP  0  0  0  0  0  0  0  0  0  0  0  0  # atno 17370 bound_to 10713
  157.7461  131.0427  150.4710 LP  0  0  0  0  0  0  0  0  0  0  0  0  # atno 17371 bound_to 10713
  141.1388  133.9174  157.2372 LP  0  0  0  0  0  0  0  0  0  0  0  0  # atno 17394 bound_to 11000
  139.9662  135.0141  156.9393 LP  0  0  0  0  0  0  0  0  0  0  0  0  # atno 17395 bound_to 11000

$$$$
