AV-unprocessed.smi:1794|AV-procd|sdf|7236|dock4
  -GOLD-   22720 8483D 1   1.00000     0.00000
 Structure written by MMmdl.
 55 57  0  0  0  0  0  0  0  0  4 V2000
  153.0418  137.4578  160.2749 C   0  0  0  0  0  0  0  0  0  0  0  0
  154.5443  137.5093  160.6800 C   0  0  0  0  0  0  0  0  0  0  0  0
  155.1852  136.1726  160.1872 C   0  0  0  0  0  0  0  0  0  0  0  0
  155.2920  138.7136  160.0002 C   0  0  0  0  0  0  0  0  0  0  0  0
  154.3935  139.5345  159.1849 N   0  5  0  0  0  0  0  0  0  0  0  0
  153.7929  140.6767  159.6098 C   0  0  0  0  0  0  0  0  0  0  0  0
  153.8487  141.1889  160.7336 O   0  0  0  0  0  0  0  0  0  0  0  0
  153.0546  141.2445  158.6413 N   0  0  0  0  0  0  0  0  0  0  0  0
  152.2425  142.4106  158.7075 C   0  0  0  0  0  0  0  0  0  0  0  0
  152.4474  143.3872  159.7148 C   0  0  0  0  0  0  0  0  0  0  0  0
  151.6203  144.5248  159.7691 C   0  0  0  0  0  0  0  0  0  0  0  0
  150.6038  144.6718  158.8100 C   0  0  0  0  0  0  0  0  0  0  0  0
  150.4491  143.7364  157.8502 N   0  3  0  0  0  0  0  0  0  0  0  0
  151.2223  142.6270  157.7359 C   0  0  0  0  0  0  0  0  0  0  0  0
  150.9471  141.7416  156.6680 N   0  0  0  0  0  0  0  0  0  0  0  0
  150.7851  140.3134  156.9128 C   0  0  0  0  0  0  0  0  0  0  0  0
  150.1884  139.7563  155.6233 C   0  0  0  0  0  0  0  0  0  0  0  0
  149.2922  140.8991  155.1552 C   0  0  0  0  0  0  0  0  0  0  0  0
  150.0480  142.1571  155.5959 C   0  0  0  0  0  0  0  0  0  0  0  0
  154.6884  137.6787  162.1816 N   0  3  0  0  0  0  0  0  0  0  0  0
  154.1763  136.5541  163.0263 C   0  0  0  0  0  0  0  0  0  0  0  0
  154.1530  136.9538  164.5086 C   0  0  0  0  0  0  0  0  0  0  0  0
  155.4699  137.2897  164.9188 O   0  0  0  0  0  0  0  0  0  0  0  0
  155.9709  138.4060  164.1986 C   0  0  0  0  0  0  0  0  0  0  0  0
  156.0283  138.0915  162.6926 C   0  0  0  0  0  0  0  0  0  0  0  0
  152.9098  137.2173  159.2182 H   0  0  0  0  0  0  0  0  0  0  0  0
  152.5094  138.3946  160.4503 H   0  0  0  0  0  0  0  0  0  0  0  0
  152.5181  136.6797  160.8312 H   0  0  0  0  0  0  0  0  0  0  0  0
  155.1117  136.0410  159.1056 H   0  0  0  0  0  0  0  0  0  0  0  0
  154.6736  135.3053  160.6055 H   0  0  0  0  0  0  0  0  0  0  0  0
  156.2425  136.0870  160.4466 H   0  0  0  0  0  0  0  0  0  0  0  0
  155.7698  139.3134  160.7753 H   0  0  0  0  0  0  0  0  0  0  0  0
  156.1136  138.3190  159.4009 H   0  0  0  0  0  0  0  0  0  0  0  0
  152.9788  140.7075  157.7901 H   0  0  0  0  0  0  0  0  0  0  0  0
  153.2346  143.2801  160.4462 H   0  0  0  0  0  0  0  0  0  0  0  0
  151.7644  145.2713  160.5365 H   0  0  0  0  0  0  0  0  0  0  0  0
  149.9200  145.5074  158.7748 H   0  0  0  0  0  0  0  0  0  0  0  0
  151.7369  139.8399  157.1561 H   0  0  0  0  0  0  0  0  0  0  0  0
  150.0939  140.1460  157.7401 H   0  0  0  0  0  0  0  0  0  0  0  0
  150.9785  139.5798  154.8918 H   0  0  0  0  0  0  0  0  0  0  0  0
  149.6484  138.8207  155.7732 H   0  0  0  0  0  0  0  0  0  0  0  0
  149.0972  140.8764  154.0826 H   0  0  0  0  0  0  0  0  0  0  0  0
  148.3330  140.8473  155.6723 H   0  0  0  0  0  0  0  0  0  0  0  0
  149.3597  142.9407  155.9161 H   0  0  0  0  0  0  0  0  0  0  0  0
  150.6442  142.5430  154.7680 H   0  0  0  0  0  0  0  0  0  0  0  0
  153.1702  136.2565  162.7323 H   0  0  0  0  0  0  0  0  0  0  0  0
  154.8131  135.6762  162.9099 H   0  0  0  0  0  0  0  0  0  0  0  0
  153.4720  137.7890  164.6804 H   0  0  0  0  0  0  0  0  0  0  0  0
  153.7977  136.1213  165.1161 H   0  0  0  0  0  0  0  0  0  0  0  0
  155.3478  139.2818  164.3871 H   0  0  0  0  0  0  0  0  0  0  0  0
  156.9684  138.6433  164.5690 H   0  0  0  0  0  0  0  0  0  0  0  0
  156.7550  137.3015  162.4977 H   0  0  0  0  0  0  0  0  0  0  0  0
  156.3861  138.9958  162.2033 H   0  0  0  0  0  0  0  0  0  0  0  0
  154.0896  138.4652  162.3896 H   0  0  0  0  0  0  0  0  0  0  0  0
  149.7094  143.8764  157.1623 H   0  0  0  0  0  0  0  0  0  0  0  0
  1  2  1  0  0  0  0
  1 26  1  0  0  0  0
  1 27  1  0  0  0  0
  1 28  1  0  0  0  0
  2  3  1  0  0  0  0
  2  4  1  0  0  0  0
  2 20  1  0  0  0  0
  3 29  1  0  0  0  0
  3 30  1  0  0  0  0
  3 31  1  0  0  0  0
  4  5  1  0  0  0  0
  4 32  1  0  0  0  0
  4 33  1  0  0  0  0
  5  6  1  0  0  0  0
  6  7  2  0  0  0  0
  6  8  1  0  0  0  0
  8  9  1  0  0  0  0
  8 34  1  0  0  0  0
  9 14  1  0  0  0  0
  9 10  2  0  0  0  0
 10 11  1  0  0  0  0
 10 35  1  0  0  0  0
 11 12  2  0  0  0  0
 11 36  1  0  0  0  0
 12 13  1  0  0  0  0
 12 37  1  0  0  0  0
 13 14  2  0  0  0  0
 13 55  1  0  0  0  0
 14 15  1  0  0  0  0
 15 19  1  0  0  0  0
 15 16  1  0  0  0  0
 16 17  1  0  0  0  0
 16 38  1  0  0  0  0
 16 39  1  0  0  0  0
 17 18  1  0  0  0  0
 17 40  1  0  0  0  0
 17 41  1  0  0  0  0
 18 19  1  0  0  0  0
 18 42  1  0  0  0  0
 18 43  1  0  0  0  0
 19 44  1  0  0  0  0
 19 45  1  0  0  0  0
 20 25  1  0  0  0  0
 20 21  1  0  0  0  0
 20 54  1  0  0  0  0
 21 22  1  0  0  0  0
 21 46  1  0  0  0  0
 21 47  1  0  0  0  0
 22 23  1  0  0  0  0
 22 48  1  0  0  0  0
 22 49  1  0  0  0  0
 23 24  1  0  0  0  0
 24 25  1  0  0  0  0
 24 50  1  0  0  0  0
 24 51  1  0  0  0  0
 25 52  1  0  0  0  0
 25 53  1  0  0  0  0
M  CHG  1   5  -1
M  CHG  1  13   1
M  CHG  1  20   1
M  END
> <s_m_source_file>
AV-unprocessed.smi

> <i_m_source_file_index>
1794

> <i_lp_mmshare_version>
43012

> <i_f3d_flags>
0

> <s_epik_input>
W0NIMl0xW0NIMl1PW0NIMl1bQ0gyXU4xQyhbQ0gzXSkoW0NIM10pW0NIMl1bTkhdQyg9TylbTkhdYzJbY0hdW2NIXVtjSF1uYzJOM1tDSDJdW0NIMl1bQ0gyXVtDSDJdMw==

> <s_epik_cmdline>
J2VwaWtfcHl0aG9uJywgJy1waCcsICc3LjAnLCAnLXRuJywgJzgnLCAnLW1hJywgJzIwMCcsICctbWV0YWxfYmluZGluZycsICctaW1hZScsICc8aW5maWxlLm1hZT4nLCAnLW9tYWUnLCAnPG91dGZpbGUubWFlPic=

> <r_lp_tautomer_probability>
0.999994

> <r_epik_Ionization_Penalty>
8.57565

> <r_epik_Ionization_Penalty_Charging>
8.57565

> <r_epik_Ionization_Penalty_Neutral>
3.55275e-06

> <r_epik_State_Penalty>
8.56988

> <r_epik_Charging_Adjusted_Penalty>
17.1455

> <i_epik_Tot_Q>
1

> <i_epik_Tot_abs_Q>
3

> <r_epik_Metal_State_Penalty>
4.56715

> <b_epik_Metal_Only>
1

> <s_lp_Force_Field>
OPLS_2005

> <r_lp_Energy>
59.2957

> <b_lp_Chiralities_Consistent>
1

> <s_lp_Variant>
AV-unprocessed.smi:1794-5

> <Gold.Version>
5.8.1

> <Gold.Id.Protein>
6NUR|6NUR_protein|mol2

> <Gold.PLP.Fitness>
47.6667

> <Gold.PLP.PLP>
-40.2362

> <Gold.PLP.part.hbond>
-2.0000

> <Gold.PLP.part.metal>
0.0000

> <Gold.PLP.part.buried>
-2.5674

> <Gold.PLP.part.nonpolar>
-35.6727

> <Gold.PLP.part.repulsive>
0.2774

> <Gold.PLP.ligand.clash>
1.5536

> <Gold.PLP.ligand.torsion>
1.8167

> <Gold.PLP.Chemscore.Hbond>
4.0000

> <Gold.PLP.Chemscore.CHOScore>
0.0000

> <Gold.PLP.Chemscore.Metal>
0.0000

> <Gold.Chemscore.Hbonds>
donor molecule, donor type, donor heavy atom, donor atom, acceptor molecule, acceptor atom, score
      L1  H    13    55       P1  8028  2.00
      P1  H  7997  8009       L1     5  1.95

> <Gold.PLP.Chemscore.Internal.Correction>
0.6174

> <Gold.Rescore>
     Score         DG    S(hbond)    S(metal)    S(lipo)     H(rot)  DE(clash)    DE(int)     intcor
     13.64     -17.78       1.01        0.00     111.56       1.60       0.36       3.79       ----

> <Gold.Chemscore.Fitness>
13.6385

> <Gold.Chemscore.DG>
-17.7819

> <Gold.Chemscore.ZeroCoef>
-5.4800

> <Gold.Chemscore.Hbond>
1.0051

> <Gold.Chemscore.Metal>
0.0000

> <Gold.Chemscore.Lipo>
111.5565

> <Gold.Chemscore.Internal_Hbond>
0.0000

> <Gold.Chemscore.DEClash>
0.3557

> <Gold.Chemscore.DEInternal>
3.7877

> <Gold.Chemscore.Rot>
1.6044

> <Gold.Chemscore.Internal.Correction>
   9.000000E+99

> <Gold.Chemscore.Hbonds>
donor molecule, donor type, donor heavy atom, donor atom, acceptor molecule, acceptor atom, score
      L1  H    13    55       P1  8028  0.76
      P1  H  7997  8009       L1     5  0.31

> <Gold.Chemscore.Hbond.Weighted>
-3.3570

> <Gold.Chemscore.Metal.Weighted>
-0.0000

> <Gold.Chemscore.Lipo.Weighted>
-13.0521

> <Gold.Chemscore.Internal_Hbond.Weighted>
0.0000

> <Gold.Chemscore.DEClash.Weighted>
0.3557

> <Gold.Chemscore.DEInternal.Weighted>
3.7877

> <Gold.Chemscore.Rot.Weighted>
4.1072

> <Gold.Chemscore.Internal.Correction.Weighted>
   9.000000E+99

> <Gold.Protein.RotatedTorsions>
[ 6907 6896 6895 6894 ] final   -4.18 input  -60.11 | X-H torsion
[ 7974 7965 7964 7962 ] final  -42.72 input  175.53 | X-H torsion
[ 8008 7997 7996 7995 ] final  131.10 input   59.86 | X-H torsion
[ 10167 10162 10161 10158 ] final  -97.12 input  -65.29 | X-H torsion
[ 10718 10713 10712 10709 ] final  123.74 input   66.30 | X-H torsion
[ 10763 10752 10751 10750 ] final   78.79 input  -60.55 | X-H torsion
[ 11005 11000 10999 10996 ] final  177.24 input  -57.11 | X-H torsion

> <Gold.Protein.ActiveResidues>
 VAL166  LYS551  ARG553  GLY616  TRP617  ASP618  TYR619  PRO620  LYS621  CYS622 
 ASP623  PHE694  ASN695  SER759  ASP760  ASP761  ALA762  ILE779  LEU786  VAL792 
 PHE793  MET794  SER795  GLU796  ALA797  LYS798  CYS799  TRP800  GLU811  SER814 

> <Gold.Protein.RotatedAtoms>
  151.5019  135.1062  159.9830 H   0  0  0  0  0  0  0  0  0  0  0  0  # atno 6907 bound_to 6896
  152.4698  133.8000  159.6958 H   0  0  0  0  0  0  0  0  0  0  0  0  # atno 6908 bound_to 6896
  150.8701  133.7455  159.2990 H   0  0  0  0  0  0  0  0  0  0  0  0  # atno 6909 bound_to 6896
  146.0088  140.6988  142.9234 H   0  0  0  0  0  0  0  0  0  0  0  0  # atno 7974 bound_to 7965
  156.2965  140.2579  156.2871 H   0  0  0  0  0  0  0  0  0  0  0  0  # atno 8008 bound_to 7997
  154.9545  140.0393  157.2179 H   0  0  0  0  0  0  0  0  0  0  0  0  # atno 8009 bound_to 7997
  154.8004  140.2827  155.5930 H   0  0  0  0  0  0  0  0  0  0  0  0  # atno 8010 bound_to 7997
  140.2867  143.3247  152.0387 H   0  0  0  0  0  0  0  0  0  0  0  0  # atno 10167 bound_to 10162
  157.5641  131.1088  150.8486 H   0  0  0  0  0  0  0  0  0  0  0  0  # atno 10718 bound_to 10713
  153.0901  135.4864  154.8674 H   0  0  0  0  0  0  0  0  0  0  0  0  # atno 10763 bound_to 10752
  154.7259  135.3049  154.8974 H   0  0  0  0  0  0  0  0  0  0  0  0  # atno 10764 bound_to 10752
  153.9624  135.6811  153.4798 H   0  0  0  0  0  0  0  0  0  0  0  0  # atno 10765 bound_to 10752
  140.3820  134.6938  157.4456 H   0  0  0  0  0  0  0  0  0  0  0  0  # atno 11005 bound_to 11000
  144.6945  140.3362  143.7207 LP  0  0  0  0  0  0  0  0  0  0  0  0  # atno 17320 bound_to 7965
  145.7374  139.1754  143.2396 LP  0  0  0  0  0  0  0  0  0  0  0  0  # atno 17321 bound_to 7965
  139.4948  144.6554  151.6584 LP  0  0  0  0  0  0  0  0  0  0  0  0  # atno 17342 bound_to 10162
  140.5767  144.0017  150.6245 LP  0  0  0  0  0  0  0  0  0  0  0  0  # atno 17343 bound_to 10162
  156.8975  130.5235  149.5284 LP  0  0  0  0  0  0  0  0  0  0  0  0  # atno 17370 bound_to 10713
  156.0691  130.5728  150.9347 LP  0  0  0  0  0  0  0  0  0  0  0  0  # atno 17371 bound_to 10713
  140.0471  134.6183  155.8907 LP  0  0  0  0  0  0  0  0  0  0  0  0  # atno 17394 bound_to 11000
  141.1920  133.6574  156.5483 LP  0  0  0  0  0  0  0  0  0  0  0  0  # atno 17395 bound_to 11000

$$$$
