AV-unprocessed.smi:2702|AV-procd|sdf|10435|dock2
  -GOLD-   2272014473D 1   1.00000     0.00000
 Structure written by MMmdl.
 47 48  0  0  0  0  0  0  0  0  1 V2000
  147.5885  136.4490  162.8135 C   0  0  0  0  0  0  0  0  0  0  0  0
  147.7909  137.0518  161.5475 O   0  0  0  0  0  0  0  0  0  0  0  0
  148.1358  136.1093  160.5456 C   0  0  0  0  0  0  0  0  0  0  0  0
  148.8243  136.7905  159.3791 C   0  0  0  0  0  0  0  0  0  0  0  0
  148.2269  137.7765  158.6698 C   0  0  0  0  0  0  0  0  0  0  0  0
  148.9203  138.4174  157.5523 C   0  0  0  0  0  0  0  0  0  0  0  0
  148.4093  139.3146  156.8814 O   0  0  0  0  0  0  0  0  0  0  0  0
  150.1781  137.9440  157.3081 N   0  0  0  0  0  0  0  0  0  0  0  0
  151.0022  138.4926  156.2152 C   0  0  0  0  0  0  0  0  0  0  0  0
  151.4049  139.9582  156.4360 C   0  0  0  0  0  0  0  0  0  0  0  0
  151.3542  140.7714  155.5124 O   0  0  0  0  0  0  0  0  0  0  0  0
  151.7862  140.2807  157.6812 N   0  0  0  0  0  0  0  0  0  0  0  0
  152.2283  141.6042  158.1176 C   0  0  1  0  0  0  0  0  0  0  0  0
  151.2328  142.6662  157.6131 C   0  0  0  0  0  0  0  0  0  0  0  0
  151.6340  144.0691  158.0772 C   0  0  0  0  0  0  0  0  0  0  0  0
  151.7438  144.1197  159.6046 C   0  0  0  0  0  0  0  0  0  0  0  0
  152.7475  143.0810  160.1450 C   0  0  1  0  0  0  0  0  0  0  0  0
  152.8321  143.2013  161.6779 C   0  0  0  0  0  0  0  0  0  0  0  0
  152.3868  141.6467  159.6621 C   0  0  2  0  0  0  0  0  0  0  0  0
  153.4167  140.5997  160.1414 C   0  0  0  0  0  0  0  0  0  0  0  0
  150.7560  136.9188  158.0830 C   0  0  0  0  0  0  0  0  0  0  0  0
  150.1188  136.3640  159.0645 N   0  0  0  0  0  0  0  0  0  0  0  0
  147.3283  137.2133  163.5455 H   0  0  0  0  0  0  0  0  0  0  0  0
  148.4920  135.9451  163.1594 H   0  0  0  0  0  0  0  0  0  0  0  0
  146.7741  135.7243  162.7796 H   0  0  0  0  0  0  0  0  0  0  0  0
  148.8110  135.3562  160.9549 H   0  0  0  0  0  0  0  0  0  0  0  0
  147.2396  135.5909  160.2002 H   0  0  0  0  0  0  0  0  0  0  0  0
  147.2281  138.1003  158.9243 H   0  0  0  0  0  0  0  0  0  0  0  0
  151.9137  137.9102  156.0679 H   0  0  0  0  0  0  0  0  0  0  0  0
  150.4590  138.4073  155.2718 H   0  0  0  0  0  0  0  0  0  0  0  0
  151.7898  139.5498  158.3778 H   0  0  0  0  0  0  0  0  0  0  0  0
  153.2058  141.8133  157.6780 H   0  0  0  0  0  0  0  0  0  0  0  0
  151.1798  142.6472  156.5238 H   0  0  0  0  0  0  0  0  0  0  0  0
  150.2294  142.4368  157.9750 H   0  0  0  0  0  0  0  0  0  0  0  0
  152.5874  144.3489  157.6276 H   0  0  0  0  0  0  0  0  0  0  0  0
  150.9014  144.7992  157.7321 H   0  0  0  0  0  0  0  0  0  0  0  0
  152.0447  145.1230  159.9085 H   0  0  0  0  0  0  0  0  0  0  0  0
  150.7607  143.9475  160.0450 H   0  0  0  0  0  0  0  0  0  0  0  0
  153.7298  143.3341  159.7429 H   0  0  0  0  0  0  0  0  0  0  0  0
  151.9036  142.8823  162.1524 H   0  0  0  0  0  0  0  0  0  0  0  0
  153.0182  144.2328  161.9787 H   0  0  0  0  0  0  0  0  0  0  0  0
  153.6447  142.6050  162.0917 H   0  0  0  0  0  0  0  0  0  0  0  0
  151.4234  141.3822  160.1013 H   0  0  0  0  0  0  0  0  0  0  0  0
  154.4158  140.8333  159.7726 H   0  0  0  0  0  0  0  0  0  0  0  0
  153.1668  139.5955  159.7993 H   0  0  0  0  0  0  0  0  0  0  0  0
  153.4652  140.5446  161.2279 H   0  0  0  0  0  0  0  0  0  0  0  0
  151.7703  136.6314  157.8011 H   0  0  0  0  0  0  0  0  0  0  0  0
  1  2  1  0  0  0  0
  1 23  1  0  0  0  0
  1 24  1  0  0  0  0
  1 25  1  0  0  0  0
  2  3  1  0  0  0  0
  3  4  1  0  0  0  0
  3 26  1  0  0  0  0
  3 27  1  0  0  0  0
  4 22  1  0  0  0  0
  4  5  2  0  0  0  0
  5  6  1  0  0  0  0
  5 28  1  0  0  0  0
  6  7  2  0  0  0  0
  6  8  1  0  0  0  0
  8  9  1  0  0  0  0
  8 21  1  0  0  0  0
  9 10  1  0  0  0  0
  9 29  1  0  0  0  0
  9 30  1  0  0  0  0
 10 11  2  0  0  0  0
 10 12  1  0  0  0  0
 12 13  1  0  0  0  0
 12 31  1  0  0  0  0
 13 19  1  0  0  0  0
 13 14  1  0  0  0  0
 13 32  1  0  0  0  0
 14 15  1  0  0  0  0
 14 33  1  0  0  0  0
 14 34  1  0  0  0  0
 15 16  1  0  0  0  0
 15 35  1  0  0  0  0
 15 36  1  0  0  0  0
 16 17  1  0  0  0  0
 16 37  1  0  0  0  0
 16 38  1  0  0  0  0
 17 18  1  0  0  0  0
 17 19  1  0  0  0  0
 17 39  1  0  0  0  0
 18 40  1  0  0  0  0
 18 41  1  0  0  0  0
 18 42  1  0  0  0  0
 19 20  1  0  0  0  0
 19 43  1  0  0  0  0
 20 44  1  0  0  0  0
 20 45  1  0  0  0  0
 20 46  1  0  0  0  0
 21 22  2  0  0  0  0
 21 47  1  0  0  0  0
M  END
> <s_m_source_file>
AV-unprocessed.smi

> <i_m_source_file_index>
2702

> <i_lp_mmshare_version>
43012

> <i_f3d_flags>
0

> <s_epik_input>
W0NIM11PW0NIMl1jMVtjSF1jKD1PKW4oW2NIXW4xKVtDSDJdQyg9TylbTkhdW0NAQEhdMltDSDJdW0NIMl1bQ0gyXVtDQEBIXShbQ0gzXSlbQ0BIXTJbQ0gzXQ==

> <s_epik_cmdline>
J2VwaWtfcHl0aG9uJywgJy1waCcsICc3LjAnLCAnLXRuJywgJzgnLCAnLW1hJywgJzIwMCcsICctbWV0YWxfYmluZGluZycsICctaW1hZScsICc8aW5maWxlLm1hZT4nLCAnLW9tYWUnLCAnPG91dGZpbGUubWFlPic=

> <r_lp_tautomer_probability>
1

> <r_epik_Ionization_Penalty>
1.22164e-06

> <r_epik_Ionization_Penalty_Charging>
3.17988e-07

> <r_epik_Ionization_Penalty_Neutral>
9.03656e-07

> <r_epik_State_Penalty>
-0

> <r_epik_Charging_Adjusted_Penalty>
3.17988e-07

> <i_epik_Tot_Q>
0

> <i_epik_Tot_abs_Q>
0

> <r_epik_Metal_State_Penalty>
-0

> <b_epik_Metal_Only>
0

> <s_lp_Force_Field>
OPLS_2005

> <r_lp_Energy>
18.0847

> <b_lp_Chiralities_Consistent>
1

> <s_lp_Variant>
AV-unprocessed.smi:2702-6

> <Gold.Version>
5.8.1

> <Gold.Id.Protein>
6NUR|6NUR_protein|mol2

> <Gold.PLP.Fitness>
53.0581

> <Gold.PLP.PLP>
-43.3609

> <Gold.PLP.part.hbond>
-4.0000

> <Gold.PLP.part.metal>
0.0000

> <Gold.PLP.part.buried>
-5.3083

> <Gold.PLP.part.nonpolar>
-33.3045

> <Gold.PLP.part.repulsive>
0.0921

> <Gold.PLP.ligand.clash>
0.0000

> <Gold.PLP.ligand.torsion>
0.4705

> <Gold.PLP.Chemscore.Hbond>
3.5360

> <Gold.PLP.Chemscore.CHOScore>
0.0000

> <Gold.PLP.Chemscore.Metal>
0.0000

> <Gold.Chemscore.Hbonds>
donor molecule, donor type, donor heavy atom, donor atom, acceptor molecule, acceptor atom, score
      P1  H  6896  6908       L1    22  0.96
      P1  H  6931  6943       L1     2  1.00
      P1  H  6934  6947       L1     2  0.54
      P1  H  7989  7998       L1    11  0.74

> <Gold.PLP.Chemscore.Internal.Correction>
0.0301

> <Gold.Rescore>
     Score         DG    S(hbond)    S(metal)    S(lipo)     H(rot)  DE(clash)    DE(int)     intcor
     20.67     -23.16       3.04        0.00     106.45       1.93       0.15       2.35       ----

> <Gold.Chemscore.Fitness>
20.6689

> <Gold.Chemscore.DG>
-23.1603

> <Gold.Chemscore.ZeroCoef>
-5.4800

> <Gold.Chemscore.Hbond>
3.0427

> <Gold.Chemscore.Metal>
0.0000

> <Gold.Chemscore.Lipo>
106.4494

> <Gold.Chemscore.Internal_Hbond>
0.0000

> <Gold.Chemscore.DEClash>
0.1461

> <Gold.Chemscore.DEInternal>
2.3453

> <Gold.Chemscore.Rot>
1.9284

> <Gold.Chemscore.Internal.Correction>
   9.000000E+99

> <Gold.Chemscore.Hbonds>
donor molecule, donor type, donor heavy atom, donor atom, acceptor molecule, acceptor atom, score
      P1  H  6896  6908       L1    22  0.84
      P1  H  6931  6943       L1     2  0.31
      P1  H  6934  6947       L1     2  0.51
      P1  H  7989  7998       L1    11  0.69

> <Gold.Chemscore.Hbond.Weighted>
-10.1625

> <Gold.Chemscore.Metal.Weighted>
-0.0000

> <Gold.Chemscore.Lipo.Weighted>
-12.4546

> <Gold.Chemscore.Internal_Hbond.Weighted>
0.0000

> <Gold.Chemscore.DEClash.Weighted>
0.1461

> <Gold.Chemscore.DEInternal.Weighted>
2.3453

> <Gold.Chemscore.Rot.Weighted>
4.9368

> <Gold.Chemscore.Internal.Correction.Weighted>
   9.000000E+99

> <Gold.Protein.RotatedTorsions>
[ 6907 6896 6895 6894 ] final  177.15 input  -60.11 | X-H torsion
[ 7974 7965 7964 7962 ] final   69.32 input  175.53 | X-H torsion
[ 8008 7997 7996 7995 ] final  -46.60 input   59.86 | X-H torsion
[ 10167 10162 10161 10158 ] final  -58.10 input  -65.29 | X-H torsion
[ 10718 10713 10712 10709 ] final -139.72 input   66.30 | X-H torsion
[ 10763 10752 10751 10750 ] final -111.61 input  -60.55 | X-H torsion
[ 11005 11000 10999 10996 ] final   62.00 input  -57.11 | X-H torsion

> <Gold.Protein.ActiveResidues>
 VAL166  LYS551  ARG553  GLY616  TRP617  ASP618  TYR619  PRO620  LYS621  CYS622 
 ASP623  PHE694  ASN695  SER759  ASP760  ASP761  ALA762  ILE779  LEU786  VAL792 
 PHE793  MET794  SER795  GLU796  ALA797  LYS798  CYS799  TRP800  GLU811  SER814 

> <Gold.Protein.RotatedAtoms>
  151.7087  133.3312  159.3284 H   0  0  0  0  0  0  0  0  0  0  0  0  # atno 6907 bound_to 6896
  150.7703  134.6551  159.6319 H   0  0  0  0  0  0  0  0  0  0  0  0  # atno 6908 bound_to 6896
  152.3725  134.6716  160.0223 H   0  0  0  0  0  0  0  0  0  0  0  0  # atno 6909 bound_to 6896
  145.7919  139.2938  143.1205 H   0  0  0  0  0  0  0  0  0  0  0  0  # atno 7974 bound_to 7965
  154.4009  140.1367  156.4039 H   0  0  0  0  0  0  0  0  0  0  0  0  # atno 8008 bound_to 7997
  155.7798  140.3482  155.5271 H   0  0  0  0  0  0  0  0  0  0  0  0  # atno 8009 bound_to 7997
  155.8685  140.0968  157.1557 H   0  0  0  0  0  0  0  0  0  0  0  0  # atno 8010 bound_to 7997
  140.6218  143.2422  151.5462 H   0  0  0  0  0  0  0  0  0  0  0  0  # atno 10167 bound_to 10162
  156.3139  130.7497  151.1579 H   0  0  0  0  0  0  0  0  0  0  0  0  # atno 10718 bound_to 10713
  154.8308  135.4521  154.1065 H   0  0  0  0  0  0  0  0  0  0  0  0  # atno 10763 bound_to 10752
  153.2339  135.6909  153.7865 H   0  0  0  0  0  0  0  0  0  0  0  0  # atno 10764 bound_to 10752
  153.7237  135.3337  155.3248 H   0  0  0  0  0  0  0  0  0  0  0  0  # atno 10765 bound_to 10752
  140.0122  134.6279  155.9763 H   0  0  0  0  0  0  0  0  0  0  0  0  # atno 11005 bound_to 11000
  145.9968  140.8555  143.0038 LP  0  0  0  0  0  0  0  0  0  0  0  0  # atno 17320 bound_to 7965
  144.6780  140.2295  143.7357 LP  0  0  0  0  0  0  0  0  0  0  0  0  # atno 17321 bound_to 7965
  139.5445  144.2558  152.1415 LP  0  0  0  0  0  0  0  0  0  0  0  0  # atno 17342 bound_to 10162
  140.1780  144.4872  150.6543 LP  0  0  0  0  0  0  0  0  0  0  0  0  # atno 17343 bound_to 10162
  157.7397  131.0526  150.5213 LP  0  0  0  0  0  0  0  0  0  0  0  0  # atno 17370 bound_to 10713
  156.5356  130.4195  149.6179 LP  0  0  0  0  0  0  0  0  0  0  0  0  # atno 17371 bound_to 10713
  141.1718  133.6538  156.4682 LP  0  0  0  0  0  0  0  0  0  0  0  0  # atno 17394 bound_to 11000
  140.4534  134.6907  157.5051 LP  0  0  0  0  0  0  0  0  0  0  0  0  # atno 17395 bound_to 11000

$$$$
