AV-unprocessed.smi:2134|AV-procd|sdf|8697|dock1
  -GOLD-   2272011453D 1   1.00000     0.00000
 Structure written by MMmdl.
 35 36  0  0  0  0  0  0  0  0  3 V2000
  153.4156  142.0094  162.2153 C   0  0  0  0  0  0  0  0  0  0  0  0
  152.8819  142.1754  160.8638 N   0  0  0  0  0  0  0  0  0  0  0  0
  153.0738  141.0732  160.0576 N   0  0  0  0  0  0  0  0  0  0  0  0
  152.4742  140.9327  158.9162 C   0  0  0  0  0  0  0  0  0  0  0  0
  152.7025  139.6952  158.1128 C   0  0  0  0  0  0  0  0  0  0  0  0
  153.7707  139.1115  158.3320 O   0  0  0  0  0  0  0  0  0  0  0  0
  151.7469  139.3185  157.2118 N   0  5  0  0  0  0  0  0  0  0  0  0
  151.7005  139.7233  155.8067 C   0  0  0  0  0  0  0  0  0  0  0  0
  150.6334  140.8234  155.6160 C   0  0  0  0  0  0  0  0  0  0  0  0
  149.4911  140.4352  154.6821 C   0  0  0  0  0  0  0  0  0  0  0  0
  148.4619  141.3544  154.3733 C   0  0  0  0  0  0  0  0  0  0  0  0
  147.4154  140.9611  153.5134 C   0  0  0  0  0  0  0  0  0  0  0  0
  147.4202  139.6570  152.9777 C   0  0  0  0  0  0  0  0  0  0  0  0
  148.4220  138.8059  153.2883 N   0  3  0  0  0  0  0  0  0  0  0  0
  149.4432  139.1452  154.1042 C   0  0  0  0  0  0  0  0  0  0  0  0
  151.5128  141.9973  158.4213 C   0  0  0  0  0  0  0  0  0  0  0  0
  151.8435  143.3883  158.9962 C   0  0  0  0  0  0  0  0  0  0  0  0
  152.2771  143.3228  160.4632 C   0  0  0  0  0  0  0  0  0  0  0  0
  152.0858  144.2946  161.1943 O   0  0  0  0  0  0  0  0  0  0  0  0
  153.3182  142.8976  162.8408 H   0  0  0  0  0  0  0  0  0  0  0  0
  154.4760  141.7580  162.1721 H   0  0  0  0  0  0  0  0  0  0  0  0
  152.8987  141.1934  162.7217 H   0  0  0  0  0  0  0  0  0  0  0  0
  152.6607  140.1042  155.4559 H   0  0  0  0  0  0  0  0  0  0  0  0
  151.4572  138.8808  155.1589 H   0  0  0  0  0  0  0  0  0  0  0  0
  150.2120  141.0846  156.5872 H   0  0  0  0  0  0  0  0  0  0  0  0
  151.1026  141.7344  155.2415 H   0  0  0  0  0  0  0  0  0  0  0  0
  148.4703  142.3478  154.7980 H   0  0  0  0  0  0  0  0  0  0  0  0
  146.6184  141.6490  153.2729 H   0  0  0  0  0  0  0  0  0  0  0  0
  146.6579  139.2714  152.3167 H   0  0  0  0  0  0  0  0  0  0  0  0
  150.1788  138.3751  154.2869 H   0  0  0  0  0  0  0  0  0  0  0  0
  151.5384  142.0651  157.3333 H   0  0  0  0  0  0  0  0  0  0  0  0
  150.4942  141.7148  158.6895 H   0  0  0  0  0  0  0  0  0  0  0  0
  152.6640  143.8327  158.4318 H   0  0  0  0  0  0  0  0  0  0  0  0
  150.9886  144.0564  158.8865 H   0  0  0  0  0  0  0  0  0  0  0  0
  148.4057  137.8653  152.8939 H   0  0  0  0  0  0  0  0  0  0  0  0
  1  2  1  0  0  0  0
  1 20  1  0  0  0  0
  1 21  1  0  0  0  0
  1 22  1  0  0  0  0
  2 18  1  0  0  0  0
  2  3  1  0  0  0  0
  3  4  2  0  0  0  0
  4  5  1  0  0  0  0
  4 16  1  0  0  0  0
  5  6  2  0  0  0  0
  5  7  1  0  0  0  0
  7  8  1  0  0  0  0
  8  9  1  0  0  0  0
  8 23  1  0  0  0  0
  8 24  1  0  0  0  0
  9 10  1  0  0  0  0
  9 25  1  0  0  0  0
  9 26  1  0  0  0  0
 10 15  1  0  0  0  0
 10 11  2  0  0  0  0
 11 12  1  0  0  0  0
 11 27  1  0  0  0  0
 12 13  2  0  0  0  0
 12 28  1  0  0  0  0
 13 14  1  0  0  0  0
 13 29  1  0  0  0  0
 14 15  2  0  0  0  0
 14 35  1  0  0  0  0
 15 30  1  0  0  0  0
 16 17  1  0  0  0  0
 16 31  1  0  0  0  0
 16 32  1  0  0  0  0
 17 18  1  0  0  0  0
 17 33  1  0  0  0  0
 17 34  1  0  0  0  0
 18 19  2  0  0  0  0
M  CHG  1   7  -1
M  CHG  1  14   1
M  END
> <s_m_source_file>
AV-unprocessed.smi

> <i_m_source_file_index>
2134

> <i_lp_mmshare_version>
43012

> <i_f3d_flags>
0

> <s_epik_input>
Tz1DMVtDSDJdW0NIMl1DKD1OTjFbQ0gzXSlDKD1PKVtOSF1bQ0gyXVtDSDJdYzJbY0hdW2NIXVtjSF1uW2NIXTI=

> <s_epik_cmdline>
J2VwaWtfcHl0aG9uJywgJy1waCcsICc3LjAnLCAnLXRuJywgJzgnLCAnLW1hJywgJzIwMCcsICctbWV0YWxfYmluZGluZycsICctaW1hZScsICc8aW5maWxlLm1hZT4nLCAnLW9tYWUnLCAnPG91dGZpbGUubWFlPic=

> <r_epik_Ionization_Penalty>
7.05425

> <r_epik_Ionization_Penalty_Charging>
7.05425

> <r_epik_Ionization_Penalty_Neutral>
3.33049e-09

> <r_epik_State_Penalty>
7.67337

> <r_epik_Charging_Adjusted_Penalty>
14.7276

> <i_epik_Tot_Q>
0

> <i_epik_Tot_abs_Q>
2

> <r_epik_Metal_State_Penalty>
3.75463

> <b_epik_Metal_Only>
1

> <s_epik_Chemistry_Notes>
This compound has an imine and may undergo hydrolysis.

> <s_lp_Force_Field>
OPLS_2005

> <r_lp_Energy>
23.3893

> <b_lp_Chiralities_Consistent>
1

> <s_lp_Variant>
AV-unprocessed.smi:2134-4

> <Gold.Version>
5.8.1

> <Gold.Id.Protein>
6NUR|6NUR_protein|mol2

> <Gold.PLP.Fitness>
48.6512

> <Gold.PLP.PLP>
-42.4344

> <Gold.PLP.part.hbond>
-3.0000

> <Gold.PLP.part.metal>
0.0000

> <Gold.PLP.part.buried>
-0.6357

> <Gold.PLP.part.nonpolar>
-37.8643

> <Gold.PLP.part.repulsive>
0.1993

> <Gold.PLP.ligand.clash>
0.0000

> <Gold.PLP.ligand.torsion>
1.4760

> <Gold.PLP.Chemscore.Hbond>
3.0000

> <Gold.PLP.Chemscore.CHOScore>
0.0000

> <Gold.PLP.Chemscore.Metal>
0.0000

> <Gold.Chemscore.Hbonds>
donor molecule, donor type, donor heavy atom, donor atom, acceptor molecule, acceptor atom, score
      L1  H    14    35       P1  7948  2.00
      P1  H  7997  8008       L1     6  1.00

> <Gold.PLP.Chemscore.Internal.Correction>
0.1688

> <Gold.Rescore>
     Score         DG    S(hbond)    S(metal)    S(lipo)     H(rot)  DE(clash)    DE(int)     intcor
     16.42     -17.83       1.85        0.00      85.15       1.49       0.03       1.38       ----

> <Gold.Chemscore.Fitness>
16.4241

> <Gold.Chemscore.DG>
-17.8327

> <Gold.Chemscore.ZeroCoef>
-5.4800

> <Gold.Chemscore.Hbond>
1.8542

> <Gold.Chemscore.Metal>
0.0000

> <Gold.Chemscore.Lipo>
85.1477

> <Gold.Chemscore.Internal_Hbond>
0.0000

> <Gold.Chemscore.DEClash>
0.0285

> <Gold.Chemscore.DEInternal>
1.3801

> <Gold.Chemscore.Rot>
1.4854

> <Gold.Chemscore.Internal.Correction>
   9.000000E+99

> <Gold.Chemscore.Hbonds>
donor molecule, donor type, donor heavy atom, donor atom, acceptor molecule, acceptor atom, score
      L1  H    14    35       P1  7948  0.96
      P1  H  7997  8008       L1     6  0.35

> <Gold.Chemscore.Hbond.Weighted>
-6.1930

> <Gold.Chemscore.Metal.Weighted>
-0.0000

> <Gold.Chemscore.Lipo.Weighted>
-9.9623

> <Gold.Chemscore.Internal_Hbond.Weighted>
0.0000

> <Gold.Chemscore.DEClash.Weighted>
0.0285

> <Gold.Chemscore.DEInternal.Weighted>
1.3801

> <Gold.Chemscore.Rot.Weighted>
3.8026

> <Gold.Chemscore.Internal.Correction.Weighted>
   9.000000E+99

> <Gold.Protein.RotatedTorsions>
[ 6907 6896 6895 6894 ] final -130.38 input  -60.11 | X-H torsion
[ 7974 7965 7964 7962 ] final  -51.68 input  175.53 | X-H torsion
[ 8008 7997 7996 7995 ] final -109.77 input   59.86 | X-H torsion
[ 10167 10162 10161 10158 ] final  130.43 input  -65.29 | X-H torsion
[ 10718 10713 10712 10709 ] final  105.76 input   66.30 | X-H torsion
[ 10763 10752 10751 10750 ] final   52.70 input  -60.55 | X-H torsion
[ 11005 11000 10999 10996 ] final   79.27 input  -57.11 | X-H torsion

> <Gold.Protein.ActiveResidues>
 VAL166  LYS551  ARG553  GLY616  TRP617  ASP618  TYR619  PRO620  LYS621  CYS622 
 ASP623  PHE694  ASN695  SER759  ASP760  ASP761  ALA762  ILE779  LEU786  VAL792 
 PHE793  MET794  SER795  GLU796  ALA797  LYS798  CYS799  TRP800  GLU811  SER814 

> <Gold.Protein.RotatedAtoms>
  150.9391  133.6677  159.2794 H   0  0  0  0  0  0  0  0  0  0  0  0  # atno 6907 bound_to 6896
  151.4072  135.0978  159.9583 H   0  0  0  0  0  0  0  0  0  0  0  0  # atno 6908 bound_to 6896
  152.5061  133.8872  159.7431 H   0  0  0  0  0  0  0  0  0  0  0  0  # atno 6909 bound_to 6896
  145.9163  140.7872  142.9670 H   0  0  0  0  0  0  0  0  0  0  0  0  # atno 7974 bound_to 7965
  154.9643  140.0398  157.2205 H   0  0  0  0  0  0  0  0  0  0  0  0  # atno 8008 bound_to 7997
  154.7859  140.2827  155.6005 H   0  0  0  0  0  0  0  0  0  0  0  0  # atno 8009 bound_to 7997
  156.2943  140.2582  156.2696 H   0  0  0  0  0  0  0  0  0  0  0  0  # atno 8010 bound_to 7997
  139.5430  144.6748  151.4562 H   0  0  0  0  0  0  0  0  0  0  0  0  # atno 10167 bound_to 10162
  157.6694  131.0835  150.5904 H   0  0  0  0  0  0  0  0  0  0  0  0  # atno 10718 bound_to 10713
  152.9790  135.5804  154.4621 H   0  0  0  0  0  0  0  0  0  0  0  0  # atno 10763 bound_to 10752
  154.4195  135.2771  155.1986 H   0  0  0  0  0  0  0  0  0  0  0  0  # atno 10764 bound_to 10752
  154.3741  135.6161  153.5810 H   0  0  0  0  0  0  0  0  0  0  0  0  # atno 10765 bound_to 10752
  139.9179  134.7829  156.1757 H   0  0  0  0  0  0  0  0  0  0  0  0  # atno 11005 bound_to 11000
  144.6748  140.1905  143.7397 LP  0  0  0  0  0  0  0  0  0  0  0  0  # atno 17320 bound_to 7965
  145.8607  139.2221  143.1718 LP  0  0  0  0  0  0  0  0  0  0  0  0  # atno 17321 bound_to 7965
  140.6668  143.8381  150.6951 LP  0  0  0  0  0  0  0  0  0  0  0  0  # atno 17342 bound_to 10162
  140.1792  143.4129  152.1945 LP  0  0  0  0  0  0  0  0  0  0  0  0  # atno 17343 bound_to 10162
  156.6205  130.4404  149.5824 LP  0  0  0  0  0  0  0  0  0  0  0  0  # atno 17370 bound_to 10713
  156.2359  130.6822  151.1509 LP  0  0  0  0  0  0  0  0  0  0  0  0  # atno 17371 bound_to 10713
  141.0673  133.6813  156.2070 LP  0  0  0  0  0  0  0  0  0  0  0  0  # atno 17394 bound_to 11000
  140.6564  134.5013  157.5581 LP  0  0  0  0  0  0  0  0  0  0  0  0  # atno 17395 bound_to 11000

$$$$
