AV-unprocessed.smi:671|AV-procd|sdf|3276|dock10
  -GOLD-   22720 0233D 1   1.00000     0.00000
 Structure written by MMmdl.
 49 50  0  0  0  0  0  0  0  0  1 V2000
  150.5663  138.3103  154.1266 C   0  0  0  0  0  0  0  0  0  0  0  0
  149.1609  138.8398  154.1140 C   0  0  0  0  0  0  0  0  0  0  0  0
  148.1620  138.0262  153.8131 N   0  0  0  0  0  0  0  0  0  0  0  0
  147.0564  138.7938  153.8909 N   0  0  0  0  0  0  0  0  0  0  0  0
  145.7597  138.2049  153.6186 C   0  0  0  0  0  0  0  0  0  0  0  0
  147.3582  140.0956  154.2399 C   0  0  0  0  0  0  0  0  0  0  0  0
  146.3090  141.1485  154.3925 C   0  0  0  0  0  0  0  0  0  0  0  0
  148.7157  140.1638  154.3994 C   0  0  0  0  0  0  0  0  0  0  0  0
  149.5525  141.3557  154.7867 C   0  0  0  0  0  0  0  0  0  0  0  0
  149.5525  141.6055  156.3107 C   0  0  1  0  0  0  0  0  0  0  0  0
  149.6961  140.3065  157.1196 C   0  0  0  0  0  0  0  0  0  0  0  0
  150.6432  142.5122  156.6759 N   0  0  0  0  0  0  0  0  0  0  0  0
  151.0041  142.9341  157.9017 C   0  0  0  0  0  0  0  0  0  0  0  0
  150.4040  142.5739  158.9125 O   0  0  0  0  0  0  0  0  0  0  0  0
  152.0559  143.7716  157.9215 N   0  0  0  0  0  0  0  0  0  0  0  0
  152.6635  144.3545  159.1185 C   0  0  1  0  0  0  0  0  0  0  0  0
  151.6401  145.2504  159.8294 C   0  0  0  0  0  0  0  0  0  0  0  0
  151.0283  144.3683  160.9134 C   0  0  0  0  0  0  0  0  0  0  0  0
  152.1894  143.5020  161.3939 C   0  0  0  0  0  0  0  0  0  0  0  0
  153.1100  143.3050  160.1754 C   0  0  1  0  0  0  0  0  0  0  0  0
  153.1549  141.8382  159.7055 C   0  0  0  0  0  0  0  0  0  0  0  0
  151.1998  138.8719  153.4400 H   0  0  0  0  0  0  0  0  0  0  0  0
  150.6077  137.2612  153.8307 H   0  0  0  0  0  0  0  0  0  0  0  0
  151.0030  138.3906  155.1222 H   0  0  0  0  0  0  0  0  0  0  0  0
  145.2962  138.7136  152.7731 H   0  0  0  0  0  0  0  0  0  0  0  0
  145.1185  138.3108  154.4939 H   0  0  0  0  0  0  0  0  0  0  0  0
  145.8594  137.1449  153.3801 H   0  0  0  0  0  0  0  0  0  0  0  0
  146.7586  142.1373  154.4732 H   0  0  0  0  0  0  0  0  0  0  0  0
  145.7144  140.9754  155.2896 H   0  0  0  0  0  0  0  0  0  0  0  0
  145.6363  141.1600  153.5348 H   0  0  0  0  0  0  0  0  0  0  0  0
  150.5806  141.2350  154.4433 H   0  0  0  0  0  0  0  0  0  0  0  0
  149.1844  142.2425  154.2702 H   0  0  0  0  0  0  0  0  0  0  0  0
  148.6031  142.0597  156.5995 H   0  0  0  0  0  0  0  0  0  0  0  0
  148.8652  139.6258  156.9325 H   0  0  0  0  0  0  0  0  0  0  0  0
  149.7102  140.5114  158.1906 H   0  0  0  0  0  0  0  0  0  0  0  0
  150.6185  139.7818  156.8688 H   0  0  0  0  0  0  0  0  0  0  0  0
  151.1873  142.8703  155.9041 H   0  0  0  0  0  0  0  0  0  0  0  0
  152.4773  144.0158  157.0373 H   0  0  0  0  0  0  0  0  0  0  0  0
  153.5159  144.9682  158.8216 H   0  0  0  0  0  0  0  0  0  0  0  0
  152.1579  146.0872  160.3001 H   0  0  0  0  0  0  0  0  0  0  0  0
  150.8906  145.6714  159.1575 H   0  0  0  0  0  0  0  0  0  0  0  0
  150.5733  144.9457  161.7186 H   0  0  0  0  0  0  0  0  0  0  0  0
  150.2549  143.7329  160.4815 H   0  0  0  0  0  0  0  0  0  0  0  0
  152.7338  144.0324  162.1763 H   0  0  0  0  0  0  0  0  0  0  0  0
  151.8427  142.5626  161.8263 H   0  0  0  0  0  0  0  0  0  0  0  0
  154.1223  143.5635  160.4894 H   0  0  0  0  0  0  0  0  0  0  0  0
  152.1697  141.4807  159.4039 H   0  0  0  0  0  0  0  0  0  0  0  0
  153.5092  141.1864  160.5043 H   0  0  0  0  0  0  0  0  0  0  0  0
  153.8345  141.7143  158.8621 H   0  0  0  0  0  0  0  0  0  0  0  0
  1  2  1  0  0  0  0
  1 22  1  0  0  0  0
  1 23  1  0  0  0  0
  1 24  1  0  0  0  0
  2  8  1  0  0  0  0
  2  3  2  0  0  0  0
  3  4  1  0  0  0  0
  4  5  1  0  0  0  0
  4  6  1  0  0  0  0
  5 25  1  0  0  0  0
  5 26  1  0  0  0  0
  5 27  1  0  0  0  0
  6  7  1  0  0  0  0
  6  8  2  0  0  0  0
  7 28  1  0  0  0  0
  7 29  1  0  0  0  0
  7 30  1  0  0  0  0
  8  9  1  0  0  0  0
  9 10  1  0  0  0  0
  9 31  1  0  0  0  0
  9 32  1  0  0  0  0
 10 11  1  0  0  0  0
 10 12  1  0  0  0  0
 10 33  1  0  0  0  0
 11 34  1  0  0  0  0
 11 35  1  0  0  0  0
 11 36  1  0  0  0  0
 12 13  1  0  0  0  0
 12 37  1  0  0  0  0
 13 14  2  0  0  0  0
 13 15  1  0  0  0  0
 15 16  1  0  0  0  0
 15 38  1  0  0  0  0
 16 20  1  0  0  0  0
 16 17  1  0  0  0  0
 16 39  1  0  0  0  0
 17 18  1  0  0  0  0
 17 40  1  0  0  0  0
 17 41  1  0  0  0  0
 18 19  1  0  0  0  0
 18 42  1  0  0  0  0
 18 43  1  0  0  0  0
 19 20  1  0  0  0  0
 19 44  1  0  0  0  0
 19 45  1  0  0  0  0
 20 21  1  0  0  0  0
 20 46  1  0  0  0  0
 21 47  1  0  0  0  0
 21 48  1  0  0  0  0
 21 49  1  0  0  0  0
M  END
> <s_m_source_file>
AV-unprocessed.smi

> <i_m_source_file_index>
671

> <i_lp_mmshare_version>
43012

> <i_f3d_flags>
0

> <s_epik_input>
W0NIM11jMW5uKFtDSDNdKWMoW0NIM10pYzFbQ0gyXVtDQEhdKFtDSDNdKVtOSF1DKD1PKVtOSF1bQ0BASF0yW0NIMl1bQ0gyXVtDSDJdW0NASF0yW0NIM10=

> <s_epik_cmdline>
J2VwaWtfcHl0aG9uJywgJy1waCcsICc3LjAnLCAnLXRuJywgJzgnLCAnLW1hJywgJzIwMCcsICctbWV0YWxfYmluZGluZycsICctaW1hZScsICc8aW5maWxlLm1hZT4nLCAnLW9tYWUnLCAnPG91dGZpbGUubWFlPic=

> <r_lp_tautomer_probability>
1

> <r_epik_Ionization_Penalty>
0.0126855

> <r_epik_Ionization_Penalty_Charging>
0

> <r_epik_Ionization_Penalty_Neutral>
0.0126855

> <r_epik_State_Penalty>
0.00977547

> <r_epik_Charging_Adjusted_Penalty>
0.00977547

> <i_epik_Tot_Q>
0

> <i_epik_Tot_abs_Q>
0

> <r_epik_Metal_State_Penalty>
0.00957132

> <b_epik_Metal_Only>
0

> <s_lp_Force_Field>
OPLS_2005

> <r_lp_Energy>
24.0852

> <b_lp_Chiralities_Consistent>
1

> <s_lp_Variant>
AV-unprocessed.smi:671-4

> <Gold.Version>
5.8.1

> <Gold.Id.Protein>
6NUR|6NUR_protein|mol2

> <Gold.PLP.Fitness>
40.1948

> <Gold.PLP.PLP>
-41.1189

> <Gold.PLP.part.hbond>
-1.2923

> <Gold.PLP.part.metal>
0.0000

> <Gold.PLP.part.buried>
-3.4785

> <Gold.PLP.part.nonpolar>
-38.0512

> <Gold.PLP.part.repulsive>
2.0283

> <Gold.PLP.ligand.clash>
0.0000

> <Gold.PLP.ligand.torsion>
0.4693

> <Gold.PLP.Chemscore.Hbond>
0.0000

> <Gold.PLP.Chemscore.CHOScore>
0.0000

> <Gold.PLP.Chemscore.Metal>
0.0000

> <Gold.PLP.Chemscore.Internal.Correction>
0.0146

> <Gold.Rescore>
     Score         DG    S(hbond)    S(metal)    S(lipo)     H(rot)  DE(clash)    DE(int)     intcor
     10.79     -16.30       0.00        0.00     124.20       1.45       1.17       4.34       ----

> <Gold.Chemscore.Fitness>
10.7922

> <Gold.Chemscore.DG>
-16.3000

> <Gold.Chemscore.ZeroCoef>
-5.4800

> <Gold.Chemscore.Hbond>
0.0000

> <Gold.Chemscore.Metal>
0.0000

> <Gold.Chemscore.Lipo>
124.2034

> <Gold.Chemscore.Internal_Hbond>
0.0000

> <Gold.Chemscore.DEClash>
1.1697

> <Gold.Chemscore.DEInternal>
4.3380

> <Gold.Chemscore.Rot>
1.4499

> <Gold.Chemscore.Internal.Correction>
   9.000000E+99

> <Gold.Chemscore.Hbond.Weighted>
-0.0000

> <Gold.Chemscore.Metal.Weighted>
-0.0000

> <Gold.Chemscore.Lipo.Weighted>
-14.5318

> <Gold.Chemscore.Internal_Hbond.Weighted>
0.0000

> <Gold.Chemscore.DEClash.Weighted>
1.1697

> <Gold.Chemscore.DEInternal.Weighted>
4.3380

> <Gold.Chemscore.Rot.Weighted>
3.7118

> <Gold.Chemscore.Internal.Correction.Weighted>
   9.000000E+99

> <Gold.Protein.RotatedTorsions>
[ 6907 6896 6895 6894 ] final -155.14 input  -60.11 | X-H torsion
[ 7974 7965 7964 7962 ] final   83.16 input  175.53 | X-H torsion
[ 8008 7997 7996 7995 ] final -150.58 input   59.86 | X-H torsion
[ 10167 10162 10161 10158 ] final  -95.67 input  -65.29 | X-H torsion
[ 10718 10713 10712 10709 ] final  110.12 input   66.30 | X-H torsion
[ 10763 10752 10751 10750 ] final  -87.12 input  -60.55 | X-H torsion
[ 11005 11000 10999 10996 ] final  133.95 input  -57.11 | X-H torsion

> <Gold.Protein.ActiveResidues>
 VAL166  LYS551  ARG553  GLY616  TRP617  ASP618  TYR619  PRO620  LYS621  CYS622 
 ASP623  PHE694  ASN695  SER759  ASP760  ASP761  ALA762  ILE779  LEU786  VAL792 
 PHE793  MET794  SER795  GLU796  ALA797  LYS798  CYS799  TRP800  GLU811  SER814 

> <Gold.Protein.RotatedAtoms>
  151.2681  133.4269  159.2619 H   0  0  0  0  0  0  0  0  0  0  0  0  # atno 6907 bound_to 6896
  151.0470  134.9647  159.8202 H   0  0  0  0  0  0  0  0  0  0  0  0  # atno 6908 bound_to 6896
  152.5376  134.2637  159.8997 H   0  0  0  0  0  0  0  0  0  0  0  0  # atno 6909 bound_to 6896
  145.6156  139.2376  143.2167 H   0  0  0  0  0  0  0  0  0  0  0  0  # atno 7974 bound_to 7965
  155.6258  140.0686  157.2664 H   0  0  0  0  0  0  0  0  0  0  0  0  # atno 8008 bound_to 7997
  154.4218  140.1776  156.1469 H   0  0  0  0  0  0  0  0  0  0  0  0  # atno 8009 bound_to 7997
  155.9973  140.3339  155.6814 H   0  0  0  0  0  0  0  0  0  0  0  0  # atno 8010 bound_to 7997
  140.3017  143.3158  152.0241 H   0  0  0  0  0  0  0  0  0  0  0  0  # atno 10167 bound_to 10162
  157.6509  131.0926  150.6554 H   0  0  0  0  0  0  0  0  0  0  0  0  # atno 10718 bound_to 10713
  154.6301  135.5424  153.7671 H   0  0  0  0  0  0  0  0  0  0  0  0  # atno 10763 bound_to 10752
  153.0280  135.6434  154.1313 H   0  0  0  0  0  0  0  0  0  0  0  0  # atno 10764 bound_to 10752
  154.1244  135.2918  155.3180 H   0  0  0  0  0  0  0  0  0  0  0  0  # atno 10765 bound_to 10752
  139.9884  134.9524  156.9797 H   0  0  0  0  0  0  0  0  0  0  0  0  # atno 11005 bound_to 11000
  146.1471  140.6978  142.9340 LP  0  0  0  0  0  0  0  0  0  0  0  0  # atno 17320 bound_to 7965
  144.7252  140.4501  143.6978 LP  0  0  0  0  0  0  0  0  0  0  0  0  # atno 17321 bound_to 7965
  139.4913  144.6450  151.6796 LP  0  0  0  0  0  0  0  0  0  0  0  0  # atno 17342 bound_to 10162
  140.5645  144.0213  150.6185 LP  0  0  0  0  0  0  0  0  0  0  0  0  # atno 17343 bound_to 10162
  156.6866  130.4582  149.5612 LP  0  0  0  0  0  0  0  0  0  0  0  0  # atno 17370 bound_to 10713
  156.1891  130.6548  151.1041 LP  0  0  0  0  0  0  0  0  0  0  0  0  # atno 17371 bound_to 10713
  140.4957  134.1148  155.7241 LP  0  0  0  0  0  0  0  0  0  0  0  0  # atno 17394 bound_to 11000
  141.1544  133.8909  157.2014 LP  0  0  0  0  0  0  0  0  0  0  0  0  # atno 17395 bound_to 11000

$$$$
