AV-unprocessed.smi:21|AV-procd|sdf|139|dock7
  -GOLD-   2262015343D 1   1.00000     0.00000
 Structure written by MMmdl.
 62 65  0  0  0  0  0  0  0  0  2 V2000
  145.4673  131.3408  150.5258 C   0  0  0  0  0  0  0  0  0  0  0  0
  145.0343  132.2998  151.4778 O   0  0  0  0  0  0  0  0  0  0  0  0
  145.5650  133.6010  151.2615 C   0  0  1  0  0  0  0  0  0  0  0  0
  145.1505  134.4882  152.4283 C   0  0  0  0  0  0  0  0  0  0  0  0
  146.2013  134.1904  153.5021 C   0  0  2  0  0  0  0  0  0  0  0  0
  146.3616  135.3108  154.5512 C   0  0  0  0  0  0  0  0  0  0  0  0
  147.3301  134.9720  155.5959 N   0  0  0  0  0  0  0  0  0  0  0  0
  146.8548  134.2306  156.7570 C   0  0  0  0  0  0  0  0  0  0  0  0
  148.4958  135.6721  155.6735 C   0  0  0  0  0  0  0  0  0  0  0  0
  149.4700  135.3864  154.7697 N   0  0  0  0  0  0  0  0  0  0  0  0
  150.6314  136.0442  154.7863 C   0  0  0  0  0  0  0  0  0  0  0  0
  151.0216  137.0213  155.6037 N   0  0  0  0  0  0  0  0  0  0  0  0
  150.0515  137.3278  156.5102 C   0  0  0  0  0  0  0  0  0  0  0  0
  148.7749  136.7025  156.6231 C   0  0  0  0  0  0  0  0  0  0  0  0
  148.0664  137.2874  157.6676 N   0  0  0  0  0  0  0  0  0  0  0  0
  148.8745  138.1930  158.1442 C   0  0  0  0  0  0  0  0  0  0  0  0
  150.0814  138.3031  157.4933 N   0  0  0  0  0  0  0  0  0  0  0  0
  151.1508  139.2411  157.8066 C   0  0  0  0  0  0  0  0  0  0  0  0
  150.8324  140.7199  157.4482 C   0  0  2  0  0  0  0  0  0  0  0  0
  150.6036  140.9255  155.9314 C   0  0  0  0  0  0  0  0  0  0  0  0
  151.5607  140.2159  155.1724 O   0  0  0  0  0  0  0  0  0  0  0  0
  151.9054  141.6988  157.9929 C   0  0  2  0  0  0  0  0  0  0  0  0
  152.1065  141.6417  159.4985 C   0  0  0  0  0  0  0  0  0  0  0  0
  152.8339  142.9517  159.7772 C   0  0  0  0  0  0  0  0  0  0  0  0
  152.3422  143.8749  158.8124 O   0  0  0  0  0  0  0  0  0  0  0  0
  151.5757  143.1867  157.8294 C   0  0  0  0  0  0  0  0  0  0  0  0
  147.4553  133.9675  152.7462 N   0  3  1  0  0  0  0  0  0  0  0  0
  148.3975  133.0304  153.3970 C   0  0  0  0  0  0  0  0  0  0  0  0
  147.0990  133.5850  151.3581 C   0  0  0  0  0  0  0  0  0  0  0  0
  145.2085  134.0122  150.3154 H   0  0  0  0  0  0  0  0  0  0  0  0
  145.9282  133.2552  153.9948 H   0  0  0  0  0  0  0  0  0  0  0  0
  145.0365  130.3691  150.7670 H   0  0  0  0  0  0  0  0  0  0  0  0
  146.5522  131.2332  150.5214 H   0  0  0  0  0  0  0  0  0  0  0  0
  145.1397  131.6109  149.5212 H   0  0  0  0  0  0  0  0  0  0  0  0
  145.2110  135.5346  152.1250 H   0  0  0  0  0  0  0  0  0  0  0  0
  144.1301  134.2983  152.7634 H   0  0  0  0  0  0  0  0  0  0  0  0
  146.7177  136.2164  154.0596 H   0  0  0  0  0  0  0  0  0  0  0  0
  145.3915  135.5790  154.9703 H   0  0  0  0  0  0  0  0  0  0  0  0
  147.6642  133.6606  157.2146 H   0  0  0  0  0  0  0  0  0  0  0  0
  146.0775  133.5228  156.4683 H   0  0  0  0  0  0  0  0  0  0  0  0
  146.4334  134.9063  157.5018 H   0  0  0  0  0  0  0  0  0  0  0  0
  151.3496  135.7479  154.0358 H   0  0  0  0  0  0  0  0  0  0  0  0
  148.6036  138.8208  158.9809 H   0  0  0  0  0  0  0  0  0  0  0  0
  151.3604  139.1598  158.8736 H   0  0  0  0  0  0  0  0  0  0  0  0
  152.0615  138.9075  157.3099 H   0  0  0  0  0  0  0  0  0  0  0  0
  149.8941  140.9693  157.9462 H   0  0  0  0  0  0  0  0  0  0  0  0
  149.6243  140.5537  155.6319 H   0  0  0  0  0  0  0  0  0  0  0  0
  150.6322  141.9815  155.6629 H   0  0  0  0  0  0  0  0  0  0  0  0
  152.2216  139.8811  155.7595 H   0  0  0  0  0  0  0  0  0  0  0  0
  152.8601  141.5119  157.4996 H   0  0  0  0  0  0  0  0  0  0  0  0
  151.1433  141.6353  160.0111 H   0  0  0  0  0  0  0  0  0  0  0  0
  152.6724  140.7749  159.8369 H   0  0  0  0  0  0  0  0  0  0  0  0
  152.6719  143.3105  160.7938 H   0  0  0  0  0  0  0  0  0  0  0  0
  153.9072  142.8294  159.6266 H   0  0  0  0  0  0  0  0  0  0  0  0
  151.8041  143.5589  156.8304 H   0  0  0  0  0  0  0  0  0  0  0  0
  150.5190  143.3732  158.0270 H   0  0  0  0  0  0  0  0  0  0  0  0
  147.9636  132.0330  153.4822 H   0  0  0  0  0  0  0  0  0  0  0  0
  148.6600  133.3764  154.3970 H   0  0  0  0  0  0  0  0  0  0  0  0
  149.3181  132.9541  152.8178 H   0  0  0  0  0  0  0  0  0  0  0  0
  147.5227  132.6228  151.0671 H   0  0  0  0  0  0  0  0  0  0  0  0
  147.5228  134.3362  150.6908 H   0  0  0  0  0  0  0  0  0  0  0  0
  147.9164  134.8639  152.6812 H   0  0  0  0  0  0  0  0  0  0  0  0
  1  2  1  0  0  0  0
  1 32  1  0  0  0  0
  1 33  1  0  0  0  0
  1 34  1  0  0  0  0
  2  3  1  0  0  0  0
  3 30  1  0  0  0  0
  3 29  1  0  0  0  0
  3  4  1  0  0  0  0
  4  5  1  0  0  0  0
  4 35  1  0  0  0  0
  4 36  1  0  0  0  0
  5 31  1  0  0  0  0
  5  6  1  0  0  0  0
  5 27  1  0  0  0  0
  6  7  1  0  0  0  0
  6 37  1  0  0  0  0
  6 38  1  0  0  0  0
  7  8  1  0  0  0  0
  7  9  1  0  0  0  0
  8 39  1  0  0  0  0
  8 40  1  0  0  0  0
  8 41  1  0  0  0  0
  9 14  1  0  0  0  0
  9 10  2  0  0  0  0
 10 11  1  0  0  0  0
 11 12  2  0  0  0  0
 11 42  1  0  0  0  0
 12 13  1  0  0  0  0
 13 17  1  0  0  0  0
 13 14  2  0  0  0  0
 14 15  1  0  0  0  0
 15 16  2  0  0  0  0
 16 17  1  0  0  0  0
 16 43  1  0  0  0  0
 17 18  1  0  0  0  0
 18 19  1  0  0  0  0
 18 44  1  0  0  0  0
 18 45  1  0  0  0  0
 19 20  1  0  0  0  0
 19 22  1  0  0  0  0
 19 46  1  0  0  0  0
 20 21  1  0  0  0  0
 20 47  1  0  0  0  0
 20 48  1  0  0  0  0
 21 49  1  0  0  0  0
 22 26  1  0  0  0  0
 22 23  1  0  0  0  0
 22 50  1  0  0  0  0
 23 24  1  0  0  0  0
 23 51  1  0  0  0  0
 23 52  1  0  0  0  0
 24 25  1  0  0  0  0
 24 53  1  0  0  0  0
 24 54  1  0  0  0  0
 25 26  1  0  0  0  0
 26 55  1  0  0  0  0
 26 56  1  0  0  0  0
 27 28  1  0  0  0  0
 27 29  1  0  0  0  0
 27 62  1  0  0  0  0
 28 57  1  0  0  0  0
 28 58  1  0  0  0  0
 28 59  1  0  0  0  0
 29 60  1  0  0  0  0
 29 61  1  0  0  0  0
M  CHG  1  27   1
M  END
> <s_m_source_file>
AV-unprocessed.smi

> <i_m_source_file_index>
21

> <i_lp_mmshare_version>
43012

> <i_f3d_flags>
0

> <s_epik_input>
W0NIM11PW0NASF0xW0NIMl1bQ0BIXShOKFtDSDNdKVtDSDJdMSlbQ0gyXU4oW0NIM10pYyhuW2NIXW4yKWMoYzIzKW5bY0hdbjNbQ0gyXVtDQEhdKFtDSDJdW09IXSlbQ0BASF00W0NIMl1bQ0gyXU9bQ0gyXTQ=

> <s_epik_cmdline>
J2VwaWtfcHl0aG9uJywgJy1waCcsICc3LjAnLCAnLXRuJywgJzgnLCAnLW1hJywgJzIwMCcsICctbWV0YWxfYmluZGluZycsICctaW1hZScsICc8aW5maWxlLm1hZT4nLCAnLW9tYWUnLCAnPG91dGZpbGUubWFlPic=

> <r_lp_tautomer_probability>
1

> <r_epik_Ionization_Penalty>
0.0157465

> <r_epik_Ionization_Penalty_Charging>
0.015354

> <r_epik_Ionization_Penalty_Neutral>
0.000392529

> <r_epik_State_Penalty>
0.0120612

> <r_epik_Charging_Adjusted_Penalty>
0.0274152

> <i_epik_Tot_Q>
1

> <i_epik_Tot_abs_Q>
1

> <r_epik_Metal_State_Penalty>
0.0121253

> <b_epik_Metal_Only>
0

> <s_lp_Force_Field>
OPLS_2005

> <r_lp_Energy>
57.752

> <b_lp_Chiralities_Consistent>
1

> <s_lp_Variant>
AV-unprocessed.smi:21-19

> <Gold.Version>
5.8.1

> <Gold.Id.Protein>
6NUR|6NUR_protein|mol2

> <Gold.PLP.Fitness>
45.1009

> <Gold.PLP.PLP>
-36.1816

> <Gold.PLP.part.hbond>
-2.0000

> <Gold.PLP.part.metal>
0.0000

> <Gold.PLP.part.buried>
-8.2209

> <Gold.PLP.part.nonpolar>
-26.0852

> <Gold.PLP.part.repulsive>
0.9605

> <Gold.PLP.ligand.clash>
0.0000

> <Gold.PLP.ligand.torsion>
1.7976

> <Gold.PLP.Chemscore.Hbond>
2.9920

> <Gold.PLP.Chemscore.CHOScore>
0.9986

> <Gold.PLP.Chemscore.Metal>
0.0000

> <Gold.Chemscore.Hbonds>
donor molecule, donor type, donor heavy atom, donor atom, acceptor molecule, acceptor atom, score
      L1  H    27    62       P1  7948  2.00
      P1  H  7989  7998       L1    21  0.98
      L1  C    11    42       P1  7949  0.92

> <Gold.PLP.Chemscore.Internal.Correction>
0.5427

> <Gold.Rescore>
     Score         DG    S(hbond)    S(metal)    S(lipo)     H(rot)  DE(clash)    DE(int)     intcor
     11.93     -13.98       1.79        0.00      88.90       3.08       0.34       1.72       ----

> <Gold.Chemscore.Fitness>
11.9272

> <Gold.Chemscore.DG>
-13.9849

> <Gold.Chemscore.ZeroCoef>
-5.4800

> <Gold.Chemscore.Hbond>
1.7896

> <Gold.Chemscore.Metal>
0.0000

> <Gold.Chemscore.Lipo>
88.9038

> <Gold.Chemscore.Internal_Hbond>
0.0000

> <Gold.Chemscore.DEClash>
0.3359

> <Gold.Chemscore.DEInternal>
1.7219

> <Gold.Chemscore.Rot>
3.0758

> <Gold.Chemscore.Internal.Correction>
   9.000000E+99

> <Gold.Chemscore.Hbonds>
donor molecule, donor type, donor heavy atom, donor atom, acceptor molecule, acceptor atom, score
      L1  H    27    62       P1  7948  0.86
      P1  H  7989  7998       L1    21  0.69

> <Gold.Chemscore.Hbond.Weighted>
-5.9773

> <Gold.Chemscore.Metal.Weighted>
-0.0000

> <Gold.Chemscore.Lipo.Weighted>
-10.4017

> <Gold.Chemscore.Internal_Hbond.Weighted>
0.0000

> <Gold.Chemscore.DEClash.Weighted>
0.3359

> <Gold.Chemscore.DEInternal.Weighted>
1.7219

> <Gold.Chemscore.Rot.Weighted>
7.8741

> <Gold.Chemscore.Internal.Correction.Weighted>
   9.000000E+99

> <Gold.Protein.RotatedTorsions>
[ 6907 6896 6895 6894 ] final    7.24 input  -60.11 | X-H torsion
[ 7974 7965 7964 7962 ] final  155.32 input  175.53 | X-H torsion
[ 8008 7997 7996 7995 ] final   78.87 input   59.86 | X-H torsion
[ 10167 10162 10161 10158 ] final -178.72 input  -65.29 | X-H torsion
[ 10718 10713 10712 10709 ] final   23.56 input   66.30 | X-H torsion
[ 10763 10752 10751 10750 ] final -100.36 input  -60.55 | X-H torsion
[ 11005 11000 10999 10996 ] final -161.36 input  -57.11 | X-H torsion

> <Gold.Protein.ActiveResidues>
 VAL166  LYS551  ARG553  GLY616  TRP617  ASP618  TYR619  PRO620  LYS621  CYS622 
 ASP623  PHE694  ASN695  SER759  ASP760  ASP761  ALA762  ILE779  LEU786  VAL792 
 PHE793  MET794  SER795  GLU796  ALA797  LYS798  CYS799  TRP800  GLU811  SER814 

> <Gold.Protein.RotatedAtoms>
  151.6867  135.0953  160.0225 H   0  0  0  0  0  0  0  0  0  0  0  0  # atno 6907 bound_to 6896
  152.3803  133.6532  159.6164 H   0  0  0  0  0  0  0  0  0  0  0  0  # atno 6908 bound_to 6896
  150.7741  133.9042  159.3391 H   0  0  0  0  0  0  0  0  0  0  0  0  # atno 6909 bound_to 6896
  144.8032  139.7052  143.6173 H   0  0  0  0  0  0  0  0  0  0  0  0  # atno 7974 bound_to 7965
  155.8617  140.3453  155.5761 H   0  0  0  0  0  0  0  0  0  0  0  0  # atno 8008 bound_to 7997
  155.7925  140.0874  157.2020 H   0  0  0  0  0  0  0  0  0  0  0  0  # atno 8009 bound_to 7997
  154.4012  140.1480  156.3167 H   0  0  0  0  0  0  0  0  0  0  0  0  # atno 8010 bound_to 7997
  139.5419  144.2340  152.0912 H   0  0  0  0  0  0  0  0  0  0  0  0  # atno 10167 bound_to 10162
  157.1677  130.6745  149.6067 H   0  0  0  0  0  0  0  0  0  0  0  0  # atno 10718 bound_to 10713
  154.7572  135.4938  153.9397 H   0  0  0  0  0  0  0  0  0  0  0  0  # atno 10763 bound_to 10752
  153.1210  135.6731  153.9344 H   0  0  0  0  0  0  0  0  0  0  0  0  # atno 10764 bound_to 10752
  153.9076  135.3102  155.3427 H   0  0  0  0  0  0  0  0  0  0  0  0  # atno 10765 bound_to 10752
  140.6213  134.4748  157.5223 H   0  0  0  0  0  0  0  0  0  0  0  0  # atno 11005 bound_to 11000
  146.2318  139.5829  142.9550 LP  0  0  0  0  0  0  0  0  0  0  0  0  # atno 17320 bound_to 7965
  145.5501  141.0414  143.2283 LP  0  0  0  0  0  0  0  0  0  0  0  0  # atno 17321 bound_to 7965
  140.1820  144.4835  150.6523 LP  0  0  0  0  0  0  0  0  0  0  0  0  # atno 17342 bound_to 10162
  140.6652  143.2265  151.5759 LP  0  0  0  0  0  0  0  0  0  0  0  0  # atno 17343 bound_to 10162
  155.9743  130.4689  150.6378 LP  0  0  0  0  0  0  0  0  0  0  0  0  # atno 17370 bound_to 10713
  157.4072  131.0818  151.1254 LP  0  0  0  0  0  0  0  0  0  0  0  0  # atno 17371 bound_to 10713
  139.9152  134.8261  156.1390 LP  0  0  0  0  0  0  0  0  0  0  0  0  # atno 17394 bound_to 11000
  141.0740  133.6784  156.2199 LP  0  0  0  0  0  0  0  0  0  0  0  0  # atno 17395 bound_to 11000

$$$$
