AV-unprocessed.smi:73|AV-procd|sdf|759|dock5
  -GOLD-   2262017 93D 1   1.00000     0.00000
 Structure written by MMmdl.
 35 36  0  0  0  0  0  0  0  0  2 V2000
  153.0381  138.9073  154.7655 C   0  0  0  0  0  0  0  0  0  0  0  0
  152.3865  138.7422  156.1462 C   0  0  0  0  0  0  0  0  0  0  0  0
  151.8252  139.9436  156.8063 N   0  0  0  0  0  0  0  0  0  0  0  0
  150.8946  139.4955  157.8594 C   0  0  0  0  0  0  0  0  0  0  0  0
  151.5049  138.5756  158.8698 C   0  0  0  0  0  0  0  0  0  0  0  0
  151.1077  137.3405  159.1855 N   0  0  0  0  0  0  0  0  0  0  0  0
  151.9710  136.9104  160.1687 N   0  0  0  0  0  0  0  0  0  0  0  0
  152.8236  137.9180  160.3702 C   0  0  0  0  0  0  0  0  0  0  0  0
  153.9595  137.9649  161.3337 C   0  0  0  0  0  0  0  0  0  0  0  0
  152.5844  138.9956  159.5790 O   0  0  0  0  0  0  0  0  0  0  0  0
  151.1521  140.8500  155.8415 C   0  0  2  0  0  0  0  0  0  0  0  0
  150.5341  142.1208  156.4878 C   0  0  0  0  0  0  0  0  0  0  0  0
  149.1166  142.2059  156.1012 N   0  3  0  0  0  0  0  0  0  0  0  0
  148.9518  141.3932  154.8986 C   0  0  0  0  0  0  0  0  0  0  0  0
  149.9353  140.2446  155.0915 C   0  0  1  0  0  0  0  0  0  0  0  0
  150.2969  139.7350  153.8230 O   0  0  0  0  0  0  0  0  0  0  0  0
  149.4504  139.4717  155.6903 H   0  0  0  0  0  0  0  0  0  0  0  0
  153.6206  138.0193  154.5192 H   0  0  0  0  0  0  0  0  0  0  0  0
  153.7207  139.7574  154.7452 H   0  0  0  0  0  0  0  0  0  0  0  0
  152.3034  139.0212  153.9702 H   0  0  0  0  0  0  0  0  0  0  0  0
  151.6260  137.9617  156.0927 H   0  0  0  0  0  0  0  0  0  0  0  0
  153.1763  138.3237  156.7691 H   0  0  0  0  0  0  0  0  0  0  0  0
  150.5168  140.3368  158.4359 H   0  0  0  0  0  0  0  0  0  0  0  0
  150.0239  139.0116  157.4141 H   0  0  0  0  0  0  0  0  0  0  0  0
  153.7922  137.2610  162.1492 H   0  0  0  0  0  0  0  0  0  0  0  0
  154.0579  138.9669  161.7519 H   0  0  0  0  0  0  0  0  0  0  0  0
  154.8880  137.7022  160.8271 H   0  0  0  0  0  0  0  0  0  0  0  0
  151.8775  141.1772  155.0943 H   0  0  0  0  0  0  0  0  0  0  0  0
  150.5483  142.1008  157.5759 H   0  0  0  0  0  0  0  0  0  0  0  0
  151.0581  143.0161  156.1520 H   0  0  0  0  0  0  0  0  0  0  0  0
  148.5633  141.7925  156.8385 H   0  0  0  0  0  0  0  0  0  0  0  0
  147.9223  141.0582  154.7688 H   0  0  0  0  0  0  0  0  0  0  0  0
  149.2256  142.0028  154.0354 H   0  0  0  0  0  0  0  0  0  0  0  0
  149.6803  140.0536  153.1814 H   0  0  0  0  0  0  0  0  0  0  0  0
  148.8272  143.1617  155.9498 H   0  0  0  0  0  0  0  0  0  0  0  0
  1  2  1  0  0  0  0
  1 18  1  0  0  0  0
  1 19  1  0  0  0  0
  1 20  1  0  0  0  0
  2  3  1  0  0  0  0
  2 21  1  0  0  0  0
  2 22  1  0  0  0  0
  3  4  1  0  0  0  0
  3 11  1  0  0  0  0
  4  5  1  0  0  0  0
  4 23  1  0  0  0  0
  4 24  1  0  0  0  0
  5 10  1  0  0  0  0
  5  6  2  0  0  0  0
  6  7  1  0  0  0  0
  7  8  2  0  0  0  0
  8  9  1  0  0  0  0
  8 10  1  0  0  0  0
  9 25  1  0  0  0  0
  9 26  1  0  0  0  0
  9 27  1  0  0  0  0
 11 15  1  0  0  0  0
 11 12  1  0  0  0  0
 11 28  1  0  0  0  0
 12 13  1  0  0  0  0
 12 29  1  0  0  0  0
 12 30  1  0  0  0  0
 13 14  1  0  0  0  0
 13 31  1  0  0  0  0
 13 35  1  0  0  0  0
 14 15  1  0  0  0  0
 14 32  1  0  0  0  0
 14 33  1  0  0  0  0
 15 17  1  0  0  0  0
 15 16  1  0  0  0  0
 16 34  1  0  0  0  0
M  CHG  1  13   1
M  END
> <s_m_source_file>
AV-unprocessed.smi

> <i_m_source_file_index>
73

> <i_lp_mmshare_version>
43012

> <i_f3d_flags>
0

> <s_epik_input>
W09IXVtDQEBIXTFbQ0gyXVtOSF1bQ0gyXVtDQEhdMU4oW0NIMl1bQ0gzXSlbQ0gyXWMybm5jKG8yKVtDSDNd

> <s_epik_cmdline>
J2VwaWtfcHl0aG9uJywgJy1waCcsICc3LjAnLCAnLXRuJywgJzgnLCAnLW1hJywgJzIwMCcsICctbWV0YWxfYmluZGluZycsICctaW1hZScsICc8aW5maWxlLm1hZT4nLCAnLW9tYWUnLCAnPG91dGZpbGUubWFlPic=

> <r_lp_tautomer_probability>
1

> <r_epik_Ionization_Penalty>
0.00160433

> <r_epik_Ionization_Penalty_Charging>
0.000122314

> <r_epik_Ionization_Penalty_Neutral>
0.00148202

> <r_epik_State_Penalty>
-0

> <r_epik_Charging_Adjusted_Penalty>
0.000122314

> <i_epik_Tot_Q>
1

> <i_epik_Tot_abs_Q>
1

> <r_epik_Metal_State_Penalty>
-0

> <b_epik_Metal_Only>
0

> <s_lp_Force_Field>
OPLS_2005

> <r_lp_Energy>
42.0904

> <b_lp_Chiralities_Consistent>
1

> <s_lp_Variant>
AV-unprocessed.smi:73-1

> <Gold.Version>
5.8.1

> <Gold.Id.Protein>
6NUR|6NUR_protein|mol2

> <Gold.PLP.Fitness>
39.5429

> <Gold.PLP.PLP>
-26.5990

> <Gold.PLP.part.hbond>
-4.3054

> <Gold.PLP.part.metal>
0.0000

> <Gold.PLP.part.buried>
-1.5791

> <Gold.PLP.part.nonpolar>
-20.4776

> <Gold.PLP.part.repulsive>
0.0794

> <Gold.PLP.ligand.clash>
0.0000

> <Gold.PLP.ligand.torsion>
0.1932

> <Gold.PLP.Chemscore.Hbond>
4.4384

> <Gold.PLP.Chemscore.CHOScore>
0.0000

> <Gold.PLP.Chemscore.Metal>
0.0000

> <Gold.Chemscore.Hbonds>
donor molecule, donor type, donor heavy atom, donor atom, acceptor molecule, acceptor atom, score
      L1  H    13    35       P1  8028  2.00
      L1  H    16    34       P1  7957  0.67
      P1  H  6896  6908       L1     7  1.00
      P1  H  7989  7998       L1    16  0.78

> <Gold.PLP.Chemscore.Internal.Correction>
0.0152

> <Gold.Rescore>
     Score         DG    S(hbond)    S(metal)    S(lipo)     H(rot)  DE(clash)    DE(int)     intcor
     13.75     -14.34       2.63        0.00      55.59       2.51       0.33       0.26       ----

> <Gold.Chemscore.Fitness>
13.7523

> <Gold.Chemscore.DG>
-14.3426

> <Gold.Chemscore.ZeroCoef>
-5.4800

> <Gold.Chemscore.Hbond>
2.6264

> <Gold.Chemscore.Metal>
0.0000

> <Gold.Chemscore.Lipo>
55.5862

> <Gold.Chemscore.Internal_Hbond>
0.0000

> <Gold.Chemscore.DEClash>
0.3278

> <Gold.Chemscore.DEInternal>
0.2626

> <Gold.Chemscore.Rot>
2.5051

> <Gold.Chemscore.Internal.Correction>
   9.000000E+99

> <Gold.Chemscore.Hbonds>
donor molecule, donor type, donor heavy atom, donor atom, acceptor molecule, acceptor atom, score
      L1  H    13    35       P1  8028  0.98
      L1  H    16    34       P1  7957  0.64
      P1  H  6896  6908       L1     7  0.49
      P1  H  7989  7998       L1    16  0.03

> <Gold.Chemscore.Hbond.Weighted>
-8.7721

> <Gold.Chemscore.Metal.Weighted>
-0.0000

> <Gold.Chemscore.Lipo.Weighted>
-6.5036

> <Gold.Chemscore.Internal_Hbond.Weighted>
0.0000

> <Gold.Chemscore.DEClash.Weighted>
0.3278

> <Gold.Chemscore.DEInternal.Weighted>
0.2626

> <Gold.Chemscore.Rot.Weighted>
6.4131

> <Gold.Chemscore.Internal.Correction.Weighted>
   9.000000E+99

> <Gold.Protein.RotatedTorsions>
[ 6907 6896 6895 6894 ] final  -96.57 input  -60.11 | X-H torsion
[ 7974 7965 7964 7962 ] final  149.68 input  175.53 | X-H torsion
[ 8008 7997 7996 7995 ] final   78.52 input   59.86 | X-H torsion
[ 10167 10162 10161 10158 ] final -127.21 input  -65.29 | X-H torsion
[ 10718 10713 10712 10709 ] final   21.14 input   66.30 | X-H torsion
[ 10763 10752 10751 10750 ] final   -9.91 input  -60.55 | X-H torsion
[ 11005 11000 10999 10996 ] final -114.77 input  -57.11 | X-H torsion

> <Gold.Protein.ActiveResidues>
 VAL166  LYS551  ARG553  GLY616  TRP617  ASP618  TYR619  PRO620  LYS621  CYS622 
 ASP623  PHE694  ASN695  SER759  ASP760  ASP761  ALA762  ILE779  LEU786  VAL792 
 PHE793  MET794  SER795  GLU796  ALA797  LYS798  CYS799  TRP800  GLU811  SER814 

> <Gold.Protein.RotatedAtoms>
  150.6992  134.1483  159.4130 H   0  0  0  0  0  0  0  0  0  0  0  0  # atno 6907 bound_to 6896
  151.9466  135.0186  160.0548 H   0  0  0  0  0  0  0  0  0  0  0  0  # atno 6908 bound_to 6896
  152.2048  133.4832  159.5114 H   0  0  0  0  0  0  0  0  0  0  0  0  # atno 6909 bound_to 6896
  144.8420  139.6311  143.6012 H   0  0  0  0  0  0  0  0  0  0  0  0  # atno 7974 bound_to 7965
  155.8569  140.3455  155.5730 H   0  0  0  0  0  0  0  0  0  0  0  0  # atno 8008 bound_to 7997
  155.7976  140.0880  157.1994 H   0  0  0  0  0  0  0  0  0  0  0  0  # atno 8009 bound_to 7997
  154.4010  140.1471  156.3223 H   0  0  0  0  0  0  0  0  0  0  0  0  # atno 8010 bound_to 7997
  139.9633  143.5926  152.2438 H   0  0  0  0  0  0  0  0  0  0  0  0  # atno 10167 bound_to 10162
  157.1342  130.6604  149.5961 H   0  0  0  0  0  0  0  0  0  0  0  0  # atno 10718 bound_to 10713
  153.4616  135.7016  153.6047 H   0  0  0  0  0  0  0  0  0  0  0  0  # atno 10763 bound_to 10752
  153.4339  135.3796  155.2187 H   0  0  0  0  0  0  0  0  0  0  0  0  # atno 10764 bound_to 10752
  154.8727  135.3957  154.4042 H   0  0  0  0  0  0  0  0  0  0  0  0  # atno 10765 bound_to 10752
  141.0531  133.9656  157.2802 H   0  0  0  0  0  0  0  0  0  0  0  0  # atno 11005 bound_to 11000
  146.2711  139.6638  142.9295 LP  0  0  0  0  0  0  0  0  0  0  0  0  # atno 17320 bound_to 7965
  145.4674  141.0435  143.2718 LP  0  0  0  0  0  0  0  0  0  0  0  0  # atno 17321 bound_to 7965
  139.6537  144.7661  151.2097 LP  0  0  0  0  0  0  0  0  0  0  0  0  # atno 17342 bound_to 10162
  140.7546  143.6119  150.8597 LP  0  0  0  0  0  0  0  0  0  0  0  0  # atno 17343 bound_to 10162
  155.9801  130.4800  150.6756 LP  0  0  0  0  0  0  0  0  0  0  0  0  # atno 17370 bound_to 10713
  157.4365  131.0856  151.0987 LP  0  0  0  0  0  0  0  0  0  0  0  0  # atno 17371 bound_to 10713
  139.9367  135.0196  156.8577 LP  0  0  0  0  0  0  0  0  0  0  0  0  # atno 17394 bound_to 11000
  140.6017  134.0165  155.7540 LP  0  0  0  0  0  0  0  0  0  0  0  0  # atno 17395 bound_to 11000

$$$$
