AV-unprocessed.smi:1597|AV-procd|sdf|6420|dock5
  -GOLD-   22720 7 53D 1   1.00000     0.00000
 Structure written by MMmdl.
 53 54  0  0  0  0  0  0  0  0  2 V2000
  140.7755  138.6395  153.3859 C   0  0  0  0  0  0  0  0  0  0  0  0
  142.1270  138.7458  153.9988 N   0  3  0  0  0  0  0  0  0  0  0  0
  142.0205  139.3552  155.3543 C   0  0  0  0  0  0  0  0  0  0  0  0
  143.0006  137.5142  153.8875 C   0  0  0  0  0  0  0  0  0  0  0  0
  144.2352  137.7091  154.8305 C   0  0  0  0  0  0  0  0  0  0  0  0
  145.2439  138.6103  154.2776 N   0  0  0  0  0  0  0  0  0  0  0  0
  146.5363  138.3354  154.0381 C   0  0  0  0  0  0  0  0  0  0  0  0
  147.0363  137.2334  154.2552 O   0  0  0  0  0  0  0  0  0  0  0  0
  147.4216  139.4701  153.4941 C   0  0  0  0  0  0  0  0  0  0  0  0
  148.7397  139.5760  154.1405 N   0  0  0  0  0  0  0  0  0  0  0  0
  149.6120  138.5039  154.0851 C   0  0  0  0  0  0  0  0  0  0  0  0
  150.8280  138.5012  154.6730 C   0  0  0  0  0  0  0  0  0  0  0  0
  151.2983  139.6608  155.4196 C   0  0  0  0  0  0  0  0  0  0  0  0
  152.3986  139.7116  155.9707 O   0  0  0  0  0  0  0  0  0  0  0  0
  150.3878  140.7410  155.4653 N   0  0  0  0  0  0  0  0  0  0  0  0
  150.8181  141.9155  156.1951 C   0  0  0  0  0  0  0  0  0  0  0  0
  149.1184  140.7425  154.8413 C   0  0  0  0  0  0  0  0  0  0  0  0
  148.3521  141.7062  154.9015 O   0  0  0  0  0  0  0  0  0  0  0  0
  142.1894  136.2605  154.3616 C   0  0  0  0  0  0  0  0  0  0  0  0
  142.3820  134.9109  153.6432 C   0  0  0  0  0  0  0  0  0  0  0  0
  143.8267  134.4349  153.4481 C   0  0  0  0  0  0  0  0  0  0  0  0
  144.4379  134.9523  152.1408 C   0  0  0  0  0  0  0  0  0  0  0  0
  144.7217  136.4581  152.1201 C   0  0  0  0  0  0  0  0  0  0  0  0
  143.5052  137.3716  152.4054 C   0  0  0  0  0  0  0  0  0  0  0  0
  140.2046  137.8136  153.8106 H   0  0  0  0  0  0  0  0  0  0  0  0
  140.8192  138.5104  152.3054 H   0  0  0  0  0  0  0  0  0  0  0  0
  140.2057  139.5541  153.5528 H   0  0  0  0  0  0  0  0  0  0  0  0
  141.3986  138.7607  156.0231 H   0  0  0  0  0  0  0  0  0  0  0  0
  141.5577  140.3395  155.2779 H   0  0  0  0  0  0  0  0  0  0  0  0
  142.9800  139.5110  155.8403 H   0  0  0  0  0  0  0  0  0  0  0  0
  143.9537  138.0335  155.8309 H   0  0  0  0  0  0  0  0  0  0  0  0
  144.7316  136.7584  155.0114 H   0  0  0  0  0  0  0  0  0  0  0  0
  144.9283  139.5445  154.0578 H   0  0  0  0  0  0  0  0  0  0  0  0
  147.5570  139.3104  152.4234 H   0  0  0  0  0  0  0  0  0  0  0  0
  146.8764  140.4116  153.5772 H   0  0  0  0  0  0  0  0  0  0  0  0
  149.3056  137.6185  153.5470 H   0  0  0  0  0  0  0  0  0  0  0  0
  151.4609  137.6297  154.5909 H   0  0  0  0  0  0  0  0  0  0  0  0
  150.0131  142.6436  156.2862 H   0  0  0  0  0  0  0  0  0  0  0  0
  151.6570  142.3435  155.6440 H   0  0  0  0  0  0  0  0  0  0  0  0
  151.1209  141.5912  157.1925 H   0  0  0  0  0  0  0  0  0  0  0  0
  142.3536  136.1102  155.4295 H   0  0  0  0  0  0  0  0  0  0  0  0
  141.1210  136.4548  154.2785 H   0  0  0  0  0  0  0  0  0  0  0  0
  141.8541  134.1571  154.2285 H   0  0  0  0  0  0  0  0  0  0  0  0
  141.8668  134.9277  152.6820 H   0  0  0  0  0  0  0  0  0  0  0  0
  144.4484  134.6751  154.3097 H   0  0  0  0  0  0  0  0  0  0  0  0
  143.8157  133.3457  153.3923 H   0  0  0  0  0  0  0  0  0  0  0  0
  145.3738  134.4233  151.9575 H   0  0  0  0  0  0  0  0  0  0  0  0
  143.7863  134.6932  151.3055 H   0  0  0  0  0  0  0  0  0  0  0  0
  145.5649  136.6857  152.7694 H   0  0  0  0  0  0  0  0  0  0  0  0
  145.0845  136.6988  151.1201 H   0  0  0  0  0  0  0  0  0  0  0  0
  142.6872  137.0634  151.7531 H   0  0  0  0  0  0  0  0  0  0  0  0
  143.7965  138.3619  152.0514 H   0  0  0  0  0  0  0  0  0  0  0  0
  142.6053  139.4415  153.4438 H   0  0  0  0  0  0  0  0  0  0  0  0
  1  2  1  0  0  0  0
  1 25  1  0  0  0  0
  1 26  1  0  0  0  0
  1 27  1  0  0  0  0
  2  3  1  0  0  0  0
  2  4  1  0  0  0  0
  2 53  1  0  0  0  0
  3 28  1  0  0  0  0
  3 29  1  0  0  0  0
  3 30  1  0  0  0  0
  4 24  1  0  0  0  0
  4  5  1  0  0  0  0
  4 19  1  0  0  0  0
  5  6  1  0  0  0  0
  5 31  1  0  0  0  0
  5 32  1  0  0  0  0
  6  7  1  0  0  0  0
  6 33  1  0  0  0  0
  7  8  2  0  0  0  0
  7  9  1  0  0  0  0
  9 10  1  0  0  0  0
  9 34  1  0  0  0  0
  9 35  1  0  0  0  0
 10 17  1  0  0  0  0
 10 11  1  0  0  0  0
 11 12  2  0  0  0  0
 11 36  1  0  0  0  0
 12 13  1  0  0  0  0
 12 37  1  0  0  0  0
 13 14  2  0  0  0  0
 13 15  1  0  0  0  0
 15 16  1  0  0  0  0
 15 17  1  0  0  0  0
 16 38  1  0  0  0  0
 16 39  1  0  0  0  0
 16 40  1  0  0  0  0
 17 18  2  0  0  0  0
 19 20  1  0  0  0  0
 19 41  1  0  0  0  0
 19 42  1  0  0  0  0
 20 21  1  0  0  0  0
 20 43  1  0  0  0  0
 20 44  1  0  0  0  0
 21 22  1  0  0  0  0
 21 45  1  0  0  0  0
 21 46  1  0  0  0  0
 22 23  1  0  0  0  0
 22 47  1  0  0  0  0
 22 48  1  0  0  0  0
 23 24  1  0  0  0  0
 23 49  1  0  0  0  0
 23 50  1  0  0  0  0
 24 51  1  0  0  0  0
 24 52  1  0  0  0  0
M  CHG  1   2   1
M  END
> <s_m_source_file>
AV-unprocessed.smi

> <i_m_source_file_index>
1597

> <i_lp_mmshare_version>
43012

> <i_f3d_flags>
0

> <s_epik_input>
W0NIMl0xW0NIMl1bQ0gyXVtDSDJdW0NIMl1bQ0gyXUMxKE4oW0NIM10pW0NIM10pW0NIMl1bTkhdQyg9TylbQ0gyXW4yW2NIXVtjSF1jKD1PKW4oW0NIM10pYzI9Tw==

> <s_epik_cmdline>
J2VwaWtfcHl0aG9uJywgJy1waCcsICc3LjAnLCAnLXRuJywgJzgnLCAnLW1hJywgJzIwMCcsICctbWV0YWxfYmluZGluZycsICctaW1hZScsICc8aW5maWxlLm1hZT4nLCAnLW9tYWUnLCAnPG91dGZpbGUubWFlPic=

> <r_lp_tautomer_probability>
1

> <r_epik_Ionization_Penalty>
0.00225783

> <r_epik_Ionization_Penalty_Charging>
0.00225776

> <r_epik_Ionization_Penalty_Neutral>
7.38919e-08

> <r_epik_State_Penalty>
0.00155497

> <r_epik_Charging_Adjusted_Penalty>
0.00381272

> <i_epik_Tot_Q>
1

> <i_epik_Tot_abs_Q>
1

> <r_epik_Metal_State_Penalty>
-0

> <b_epik_Metal_Only>
0

> <s_lp_Force_Field>
OPLS_2005

> <r_lp_Energy>
50.4542

> <b_lp_Chiralities_Consistent>
1

> <s_lp_Variant>
AV-unprocessed.smi:1597-1

> <Gold.Version>
5.8.1

> <Gold.Id.Protein>
6NUR|6NUR_protein|mol2

> <Gold.PLP.Fitness>
46.1244

> <Gold.PLP.PLP>
-34.2434

> <Gold.PLP.part.hbond>
-3.0000

> <Gold.PLP.part.metal>
0.0000

> <Gold.PLP.part.buried>
3.1216

> <Gold.PLP.part.nonpolar>
-34.8942

> <Gold.PLP.part.repulsive>
0.4897

> <Gold.PLP.ligand.clash>
0.0000

> <Gold.PLP.ligand.torsion>
0.8763

> <Gold.PLP.Chemscore.Hbond>
3.4992

> <Gold.PLP.Chemscore.CHOScore>
1.0000

> <Gold.PLP.Chemscore.Metal>
0.0000

> <Gold.Chemscore.Hbonds>
donor molecule, donor type, donor heavy atom, donor atom, acceptor molecule, acceptor atom, score
      L1  H     2    53       P1 10175  2.00
      L1  H     6    33       P1 10175  0.39
      P1  H  7997  8010       L1    14  1.00
      L1  C    11    36       P1  7948  1.00

> <Gold.PLP.Chemscore.Internal.Correction>
0.1360

> <Gold.Rescore>
     Score         DG    S(hbond)    S(metal)    S(lipo)     H(rot)  DE(clash)    DE(int)     intcor
     11.75     -15.09       2.08        0.00      67.11       2.02       1.41       1.93       ----

> <Gold.Chemscore.Fitness>
11.7487

> <Gold.Chemscore.DG>
-15.0880

> <Gold.Chemscore.ZeroCoef>
-5.4800

> <Gold.Chemscore.Hbond>
2.0767

> <Gold.Chemscore.Metal>
0.0000

> <Gold.Chemscore.Lipo>
67.1119

> <Gold.Chemscore.Internal_Hbond>
0.0000

> <Gold.Chemscore.DEClash>
1.4064

> <Gold.Chemscore.DEInternal>
1.9328

> <Gold.Chemscore.Rot>
2.0236

> <Gold.Chemscore.Internal.Correction>
   9.000000E+99

> <Gold.Chemscore.Hbonds>
donor molecule, donor type, donor heavy atom, donor atom, acceptor molecule, acceptor atom, score
      L1  H     2    53       P1 10175  1.00
      L1  H     6    33       P1 10175  0.39
      P1  H  7997  8010       L1    14  0.95

> <Gold.Chemscore.Hbond.Weighted>
-6.9362

> <Gold.Chemscore.Metal.Weighted>
-0.0000

> <Gold.Chemscore.Lipo.Weighted>
-7.8521

> <Gold.Chemscore.Internal_Hbond.Weighted>
0.0000

> <Gold.Chemscore.DEClash.Weighted>
1.4064

> <Gold.Chemscore.DEInternal.Weighted>
1.9328

> <Gold.Chemscore.Rot.Weighted>
5.1803

> <Gold.Chemscore.Internal.Correction.Weighted>
   9.000000E+99

> <Gold.Protein.RotatedTorsions>
[ 6907 6896 6895 6894 ] final  -87.62 input  -60.11 | X-H torsion
[ 7974 7965 7964 7962 ] final  169.98 input  175.53 | X-H torsion
[ 8008 7997 7996 7995 ] final   81.77 input   59.86 | X-H torsion
[ 10167 10162 10161 10158 ] final   92.53 input  -65.29 | X-H torsion
[ 10718 10713 10712 10709 ] final  -17.50 input   66.30 | X-H torsion
[ 10763 10752 10751 10750 ] final   17.09 input  -60.55 | X-H torsion
[ 11005 11000 10999 10996 ] final   91.70 input  -57.11 | X-H torsion

> <Gold.Protein.ActiveResidues>
 VAL166  LYS551  ARG553  GLY616  TRP617  ASP618  TYR619  PRO620  LYS621  CYS622 
 ASP623  PHE694  ASN695  SER759  ASP760  ASP761  ALA762  ILE779  LEU786  VAL792 
 PHE793  MET794  SER795  GLU796  ALA797  LYS798  CYS799  TRP800  GLU811  SER814 

> <Gold.Protein.RotatedAtoms>
  150.6867  134.2868  159.4649 H   0  0  0  0  0  0  0  0  0  0  0  0  # atno 6907 bound_to 6896
  152.0777  134.9489  160.0583 H   0  0  0  0  0  0  0  0  0  0  0  0  # atno 6908 bound_to 6896
  152.0855  133.4139  159.4557 H   0  0  0  0  0  0  0  0  0  0  0  0  # atno 6909 bound_to 6896
  144.7338  139.9134  143.6416 H   0  0  0  0  0  0  0  0  0  0  0  0  # atno 7974 bound_to 7965
  155.9016  140.3433  155.6031 H   0  0  0  0  0  0  0  0  0  0  0  0  # atno 8008 bound_to 7997
  155.7493  140.0818  157.2228 H   0  0  0  0  0  0  0  0  0  0  0  0  # atno 8009 bound_to 7997
  154.4044  140.1556  156.2693 H   0  0  0  0  0  0  0  0  0  0  0  0  # atno 8010 bound_to 7997
  139.8268  144.6706  150.9450 H   0  0  0  0  0  0  0  0  0  0  0  0  # atno 10167 bound_to 10162
  156.5726  130.4753  149.6356 H   0  0  0  0  0  0  0  0  0  0  0  0  # atno 10718 bound_to 10713
  153.1370  135.6752  153.9087 H   0  0  0  0  0  0  0  0  0  0  0  0  # atno 10763 bound_to 10752
  153.8555  135.3088  155.3436 H   0  0  0  0  0  0  0  0  0  0  0  0  # atno 10764 bound_to 10752
  154.7756  135.4916  153.9820 H   0  0  0  0  0  0  0  0  0  0  0  0  # atno 10765 bound_to 10752
  139.8834  134.8690  156.3466 H   0  0  0  0  0  0  0  0  0  0  0  0  # atno 11005 bound_to 11000
  146.0984  139.3978  143.0362 LP  0  0  0  0  0  0  0  0  0  0  0  0  # atno 17320 bound_to 7965
  145.7613  140.9934  143.1198 LP  0  0  0  0  0  0  0  0  0  0  0  0  # atno 17321 bound_to 7965
  140.7809  143.4039  151.1103 LP  0  0  0  0  0  0  0  0  0  0  0  0  # atno 17342 bound_to 10162
  139.7695  143.8515  152.3117 LP  0  0  0  0  0  0  0  0  0  0  0  0  # atno 17343 bound_to 10162
  156.2701  130.7012  151.1807 LP  0  0  0  0  0  0  0  0  0  0  0  0  # atno 17370 bound_to 10713
  157.7344  131.0581  150.5523 LP  0  0  0  0  0  0  0  0  0  0  0  0  # atno 17371 bound_to 10713
  140.9622  133.7381  156.0417 LP  0  0  0  0  0  0  0  0  0  0  0  0  # atno 17394 bound_to 11000
  140.7975  134.3547  157.5448 LP  0  0  0  0  0  0  0  0  0  0  0  0  # atno 17395 bound_to 11000

$$$$
