AV-unprocessed.smi:2718|AV-procd|sdf|10488|dock5
  -GOLD-   2272014533D 1   1.00000     0.00000
 Structure written by MMmdl.
 47 48  0  0  0  0  0  0  0  0  1 V2000
  145.5337  131.5586  151.4145 C   0  0  0  0  0  0  0  0  0  0  0  0
  144.5444  132.6911  151.2222 C   0  0  0  0  0  0  0  0  0  0  0  0
  143.8853  132.7321  149.8542 C   0  0  0  0  0  0  0  0  0  0  0  0
  144.2809  133.5734  152.2052 C   0  0  0  0  0  0  0  0  0  0  0  0
  143.3135  134.7072  152.1397 C   0  0  2  0  0  0  0  0  0  0  0  0
  143.7173  136.1725  152.2298 C   0  0  2  0  0  0  0  0  0  0  0  0
  145.1510  136.5684  152.4499 C   0  0  0  0  0  0  0  0  0  0  0  0
  146.0771  135.7740  152.6129 O   0  0  0  0  0  0  0  0  0  0  0  0
  145.3350  137.8974  152.4513 N   0  0  0  0  0  0  0  0  0  0  0  0
  146.5992  138.5903  152.6904 C   0  0  0  0  0  0  0  0  0  0  0  0
  147.0683  138.5569  154.1637 C   0  0  2  0  0  0  0  0  0  0  0  0
  145.8869  138.6676  155.1379 C   0  0  0  0  0  0  0  0  0  0  0  0
  148.1332  139.5759  154.4694 C   0  0  0  0  0  0  0  0  0  0  0  0
  149.3872  139.2574  154.8176 N   0  0  0  0  0  0  0  0  0  0  0  0
  150.0414  140.4590  154.9995 N   0  0  0  0  0  0  0  0  0  0  0  0
  149.1228  141.3845  154.7277 C   0  0  0  0  0  0  0  0  0  0  0  0
  147.9182  140.9056  154.3844 N   0  0  0  0  0  0  0  0  0  0  0  0
  146.7255  141.6430  154.0192 C   0  0  0  0  0  0  0  0  0  0  0  0
  142.8980  135.5326  153.3490 C   0  0  0  0  0  0  0  0  0  0  0  0
  141.4453  135.9584  153.4808 C   0  0  0  0  0  0  0  0  0  0  0  0
  143.4529  135.2530  154.7451 C   0  0  0  0  0  0  0  0  0  0  0  0
  145.0343  130.5973  151.2924 H   0  0  0  0  0  0  0  0  0  0  0  0
  145.9845  131.5826  152.4072 H   0  0  0  0  0  0  0  0  0  0  0  0
  146.3345  131.6240  150.6782 H   0  0  0  0  0  0  0  0  0  0  0  0
  144.6431  132.7301  149.0714 H   0  0  0  0  0  0  0  0  0  0  0  0
  143.2683  133.6187  149.7113 H   0  0  0  0  0  0  0  0  0  0  0  0
  143.2550  131.8536  149.7154 H   0  0  0  0  0  0  0  0  0  0  0  0
  144.8061  133.4552  153.1405 H   0  0  0  0  0  0  0  0  0  0  0  0
  142.5241  134.4876  151.4232 H   0  0  0  0  0  0  0  0  0  0  0  0
  143.1674  136.8407  151.5681 H   0  0  0  0  0  0  0  0  0  0  0  0
  144.5258  138.4812  152.2964 H   0  0  0  0  0  0  0  0  0  0  0  0
  147.3448  138.1005  152.0638 H   0  0  0  0  0  0  0  0  0  0  0  0
  146.5294  139.6194  152.3348 H   0  0  0  0  0  0  0  0  0  0  0  0
  147.4966  137.5685  154.3249 H   0  0  0  0  0  0  0  0  0  0  0  0
  146.2193  138.5517  156.1700 H   0  0  0  0  0  0  0  0  0  0  0  0
  145.1428  137.8952  154.9419 H   0  0  0  0  0  0  0  0  0  0  0  0
  145.3922  139.6356  155.0542 H   0  0  0  0  0  0  0  0  0  0  0  0
  149.3374  142.4420  154.7763 H   0  0  0  0  0  0  0  0  0  0  0  0
  146.9301  142.7139  154.0212 H   0  0  0  0  0  0  0  0  0  0  0  0
  145.9297  141.4324  154.7337 H   0  0  0  0  0  0  0  0  0  0  0  0
  146.4009  141.3476  153.0213 H   0  0  0  0  0  0  0  0  0  0  0  0
  141.3673  136.8602  154.0887 H   0  0  0  0  0  0  0  0  0  0  0  0
  140.8572  135.1689  153.9497 H   0  0  0  0  0  0  0  0  0  0  0  0
  141.0116  136.1680  152.5025 H   0  0  0  0  0  0  0  0  0  0  0  0
  143.4978  136.1773  155.3219 H   0  0  0  0  0  0  0  0  0  0  0  0
  144.4498  134.8192  154.7261 H   0  0  0  0  0  0  0  0  0  0  0  0
  142.8069  134.5512  155.2734 H   0  0  0  0  0  0  0  0  0  0  0  0
  1  2  1  0  0  0  0
  1 22  1  0  0  0  0
  1 23  1  0  0  0  0
  1 24  1  0  0  0  0
  2  3  1  0  0  0  0
  2  4  2  0  0  0  0
  3 25  1  0  0  0  0
  3 26  1  0  0  0  0
  3 27  1  0  0  0  0
  4  5  1  0  0  0  0
  4 28  1  0  0  0  0
  5 19  1  0  0  0  0
  5  6  1  0  0  0  0
  5 29  1  0  0  0  0
  6  7  1  0  0  0  0
  6 19  1  0  0  0  0
  6 30  1  0  0  0  0
  7  8  2  0  0  0  0
  7  9  1  0  0  0  0
  9 10  1  0  0  0  0
  9 31  1  0  0  0  0
 10 11  1  0  0  0  0
 10 32  1  0  0  0  0
 10 33  1  0  0  0  0
 11 12  1  0  0  0  0
 11 13  1  0  0  0  0
 11 34  1  0  0  0  0
 12 35  1  0  0  0  0
 12 36  1  0  0  0  0
 12 37  1  0  0  0  0
 13 17  1  0  0  0  0
 13 14  2  0  0  0  0
 14 15  1  0  0  0  0
 15 16  2  0  0  0  0
 16 17  1  0  0  0  0
 16 38  1  0  0  0  0
 17 18  1  0  0  0  0
 18 39  1  0  0  0  0
 18 40  1  0  0  0  0
 18 41  1  0  0  0  0
 19 20  1  0  0  0  0
 19 21  1  0  0  0  0
 20 42  1  0  0  0  0
 20 43  1  0  0  0  0
 20 44  1  0  0  0  0
 21 45  1  0  0  0  0
 21 46  1  0  0  0  0
 21 47  1  0  0  0  0
M  END
> <s_m_source_file>
AV-unprocessed.smi

> <i_m_source_file_index>
2718

> <i_lp_mmshare_version>
43012

> <i_f3d_flags>
0

> <s_epik_input>
W0NIM11DKFtDSDNdKT1bQ0hdW0NAQEhdKEMxKFtDSDNdKVtDSDNdKVtDQEhdMUMoPU8pW05IXVtDSDJdW0NASF0oW0NIM10pYzJubltjSF1uMltDSDNd

> <s_epik_cmdline>
J2VwaWtfcHl0aG9uJywgJy1waCcsICc3LjAnLCAnLXRuJywgJzgnLCAnLW1hJywgJzIwMCcsICctbWV0YWxfYmluZGluZycsICctaW1hZScsICc8aW5maWxlLm1hZT4nLCAnLW9tYWUnLCAnPG91dGZpbGUubWFlPic=

> <r_lp_tautomer_probability>
1

> <r_epik_Ionization_Penalty>
0.000449586

> <r_epik_Ionization_Penalty_Charging>
0

> <r_epik_Ionization_Penalty_Neutral>
0.000449586

> <r_epik_State_Penalty>
0.000243372

> <r_epik_Charging_Adjusted_Penalty>
0.000243372

> <i_epik_Tot_Q>
0

> <i_epik_Tot_abs_Q>
0

> <r_epik_Metal_State_Penalty>
-0

> <b_epik_Metal_Only>
0

> <s_lp_Force_Field>
OPLS_2005

> <r_lp_Energy>
15.3261

> <b_lp_Chiralities_Consistent>
1

> <s_lp_Variant>
AV-unprocessed.smi:2718-3

> <Gold.Version>
5.8.1

> <Gold.Id.Protein>
6NUR|6NUR_protein|mol2

> <Gold.PLP.Fitness>
45.5785

> <Gold.PLP.PLP>
-37.8393

> <Gold.PLP.part.hbond>
-3.0000

> <Gold.PLP.part.metal>
0.0000

> <Gold.PLP.part.buried>
-5.4885

> <Gold.PLP.part.nonpolar>
-31.5348

> <Gold.PLP.part.repulsive>
2.3486

> <Gold.PLP.ligand.clash>
0.0000

> <Gold.PLP.ligand.torsion>
0.4199

> <Gold.PLP.Chemscore.Hbond>
1.7557

> <Gold.PLP.Chemscore.CHOScore>
0.9957

> <Gold.PLP.Chemscore.Metal>
0.0000

> <Gold.Chemscore.Hbonds>
donor molecule, donor type, donor heavy atom, donor atom, acceptor molecule, acceptor atom, score
      L1  H     9    31       P1 10175  0.67
      P1  H  7989  7998       L1    15  0.50
      L1  C    16    38       P1  8028  1.00

> <Gold.PLP.Chemscore.Internal.Correction>
0.3249

> <Gold.Rescore>
     Score         DG    S(hbond)    S(metal)    S(lipo)     H(rot)  DE(clash)    DE(int)     intcor
     12.12     -14.54       1.63        0.00      73.76       1.95       0.48       1.94       ----

> <Gold.Chemscore.Fitness>
12.1236

> <Gold.Chemscore.DG>
-14.5379

> <Gold.Chemscore.ZeroCoef>
-5.4800

> <Gold.Chemscore.Hbond>
1.6252

> <Gold.Chemscore.Metal>
0.0000

> <Gold.Chemscore.Lipo>
73.7622

> <Gold.Chemscore.Internal_Hbond>
0.0000

> <Gold.Chemscore.DEClash>
0.4754

> <Gold.Chemscore.DEInternal>
1.9388

> <Gold.Chemscore.Rot>
1.9533

> <Gold.Chemscore.Internal.Correction>
   9.000000E+99

> <Gold.Chemscore.Hbonds>
donor molecule, donor type, donor heavy atom, donor atom, acceptor molecule, acceptor atom, score
      L1  H     9    31       P1 10175  0.64
      P1  H  7989  7998       L1    15  0.15

> <Gold.Chemscore.Hbond.Weighted>
-5.4282

> <Gold.Chemscore.Metal.Weighted>
-0.0000

> <Gold.Chemscore.Lipo.Weighted>
-8.6302

> <Gold.Chemscore.Internal_Hbond.Weighted>
0.0000

> <Gold.Chemscore.DEClash.Weighted>
0.4754

> <Gold.Chemscore.DEInternal.Weighted>
1.9388

> <Gold.Chemscore.Rot.Weighted>
5.0005

> <Gold.Chemscore.Internal.Correction.Weighted>
   9.000000E+99

> <Gold.Protein.RotatedTorsions>
[ 6907 6896 6895 6894 ] final   32.04 input  -60.11 | X-H torsion
[ 7974 7965 7964 7962 ] final   -4.89 input  175.53 | X-H torsion
[ 8008 7997 7996 7995 ] final  110.55 input   59.86 | X-H torsion
[ 10167 10162 10161 10158 ] final  120.80 input  -65.29 | X-H torsion
[ 10718 10713 10712 10709 ] final   52.76 input   66.30 | X-H torsion
[ 10763 10752 10751 10750 ] final    9.00 input  -60.55 | X-H torsion
[ 11005 11000 10999 10996 ] final  -52.47 input  -57.11 | X-H torsion

> <Gold.Protein.ActiveResidues>
 VAL166  LYS551  ARG553  GLY616  TRP617  ASP618  TYR619  PRO620  LYS621  CYS622 
 ASP623  PHE694  ASN695  SER759  ASP760  ASP761  ALA762  ILE779  LEU786  VAL792 
 PHE793  MET794  SER795  GLU796  ALA797  LYS798  CYS799  TRP800  GLU811  SER814 

> <Gold.Protein.RotatedAtoms>
  152.0688  134.9547  160.0574 H   0  0  0  0  0  0  0  0  0  0  0  0  # atno 6907 bound_to 6896
  152.0881  133.4182  159.4540 H   0  0  0  0  0  0  0  0  0  0  0  0  # atno 6908 bound_to 6896
  150.6836  134.2823  159.4676 H   0  0  0  0  0  0  0  0  0  0  0  0  # atno 6909 bound_to 6896
  146.2364  140.1939  142.8333 H   0  0  0  0  0  0  0  0  0  0  0  0  # atno 7974 bound_to 7965
  156.2061  140.3036  155.9630 H   0  0  0  0  0  0  0  0  0  0  0  0  # atno 8008 bound_to 7997
  155.2838  140.0439  157.3034 H   0  0  0  0  0  0  0  0  0  0  0  0  # atno 8009 bound_to 7997
  154.5635  140.2327  155.8308 H   0  0  0  0  0  0  0  0  0  0  0  0  # atno 8010 bound_to 7997
  139.5959  144.7041  151.3177 H   0  0  0  0  0  0  0  0  0  0  0  0  # atno 10167 bound_to 10162
  157.5105  130.8497  149.8429 H   0  0  0  0  0  0  0  0  0  0  0  0  # atno 10718 bound_to 10713
  153.2189  135.6878  153.8024 H   0  0  0  0  0  0  0  0  0  0  0  0  # atno 10763 bound_to 10752
  153.7230  135.3264  155.3271 H   0  0  0  0  0  0  0  0  0  0  0  0  # atno 10764 bound_to 10752
  154.8259  135.4617  154.1028 H   0  0  0  0  0  0  0  0  0  0  0  0  # atno 10765 bound_to 10752
  141.0926  133.6630  156.4029 H   0  0  0  0  0  0  0  0  0  0  0  0  # atno 11005 bound_to 11000
  144.9836  140.8482  143.5382 LP  0  0  0  0  0  0  0  0  0  0  0  0  # atno 17320 bound_to 7965
  145.1935  139.2288  143.5230 LP  0  0  0  0  0  0  0  0  0  0  0  0  # atno 17321 bound_to 7965
  140.7211  143.7132  150.7753 LP  0  0  0  0  0  0  0  0  0  0  0  0  # atno 17342 bound_to 10162
  140.0698  143.5072  152.2585 LP  0  0  0  0  0  0  0  0  0  0  0  0  # atno 17343 bound_to 10162
  156.0286  130.3771  150.1752 LP  0  0  0  0  0  0  0  0  0  0  0  0  # atno 17370 bound_to 10713
  156.9942  130.9902  151.3407 LP  0  0  0  0  0  0  0  0  0  0  0  0  # atno 17371 bound_to 10713
  140.5216  134.6298  157.5320 LP  0  0  0  0  0  0  0  0  0  0  0  0  # atno 17394 bound_to 11000
  139.9755  134.7222  155.9958 LP  0  0  0  0  0  0  0  0  0  0  0  0  # atno 17395 bound_to 11000

$$$$
