AV-unprocessed.smi:748|AV-procd|sdf|3583|dock2
  -GOLD-   22720 0573D 1   1.00000     0.00000
 Structure written by MMmdl.
 50 51  0  0  0  0  0  0  0  0  1 V2000
  143.5194  136.0340  151.3165 C   0  0  0  0  0  0  0  0  0  0  0  0
  143.8198  137.2296  152.2338 C   0  0  0  0  0  0  0  0  0  0  0  0
  142.5669  138.0782  152.4883 C   0  0  0  0  0  0  0  0  0  0  0  0
  144.8640  138.0674  151.6508 N   0  0  0  0  0  0  0  0  0  0  0  0
  146.1044  138.2212  152.1403 C   0  0  0  0  0  0  0  0  0  0  0  0
  146.5004  137.6643  153.1649 O   0  0  0  0  0  0  0  0  0  0  0  0
  147.0295  139.1472  151.3448 C   0  0  0  0  0  0  0  0  0  0  0  0
  147.3218  140.4791  152.0636 C   0  0  0  0  0  0  0  0  0  0  0  0
  148.4132  140.3393  153.0204 N   0  0  0  0  0  0  0  0  0  0  0  0
  148.7611  141.2611  153.9328 C   0  0  0  0  0  0  0  0  0  0  0  0
  148.1736  142.3346  154.0723 O   0  0  0  0  0  0  0  0  0  0  0  0
  149.8887  140.8754  154.8467 C   0  0  0  0  0  0  0  0  0  0  0  0
  150.6748  139.7269  154.6055 C   0  0  0  0  0  0  0  0  0  0  0  0
  151.7228  139.4330  155.4966 C   0  0  0  0  0  0  0  0  0  0  0  0
  152.0226  140.1981  156.5660 N   0  0  0  0  0  0  0  0  0  0  0  0
  151.2892  141.3141  156.7996 C   0  0  0  0  0  0  0  0  0  0  0  0
  151.6208  142.1130  157.9150 N   0  0  0  0  0  0  0  0  0  0  0  0
  151.9348  143.5081  157.6187 C   0  0  0  0  0  0  0  0  0  0  0  0
  151.9741  144.3340  158.9155 C   0  0  0  0  0  0  0  0  0  0  0  0
  152.8825  143.7413  159.8383 O   0  0  0  0  0  0  0  0  0  0  0  0
  152.4927  142.4198  160.2015 C   0  0  2  0  0  0  0  0  0  0  0  0
  153.4695  141.9022  161.2623 C   0  0  0  0  0  0  0  0  0  0  0  0
  152.4830  141.5326  158.9422 C   0  0  0  0  0  0  0  0  0  0  0  0
  150.2120  141.6825  155.9594 C   0  0  0  0  0  0  0  0  0  0  0  0
  142.7470  135.3959  151.7465 H   0  0  0  0  0  0  0  0  0  0  0  0
  144.4062  135.4175  151.1657 H   0  0  0  0  0  0  0  0  0  0  0  0
  143.1719  136.3624  150.3363 H   0  0  0  0  0  0  0  0  0  0  0  0
  144.1630  136.8498  153.1978 H   0  0  0  0  0  0  0  0  0  0  0  0
  141.7782  137.4827  152.9489 H   0  0  0  0  0  0  0  0  0  0  0  0
  142.1713  138.4932  151.5607 H   0  0  0  0  0  0  0  0  0  0  0  0
  142.7849  138.9093  153.1599 H   0  0  0  0  0  0  0  0  0  0  0  0
  144.6257  138.5646  150.8048 H   0  0  0  0  0  0  0  0  0  0  0  0
  147.9649  138.6194  151.1535 H   0  0  0  0  0  0  0  0  0  0  0  0
  146.5742  139.3402  150.3728 H   0  0  0  0  0  0  0  0  0  0  0  0
  147.6089  141.2427  151.3398 H   0  0  0  0  0  0  0  0  0  0  0  0
  146.4288  140.8511  152.5697 H   0  0  0  0  0  0  0  0  0  0  0  0
  148.9390  139.4777  152.9942 H   0  0  0  0  0  0  0  0  0  0  0  0
  150.4903  139.0793  153.7606 H   0  0  0  0  0  0  0  0  0  0  0  0
  152.3405  138.5601  155.3446 H   0  0  0  0  0  0  0  0  0  0  0  0
  152.9041  143.5514  157.1203 H   0  0  0  0  0  0  0  0  0  0  0  0
  151.2092  143.9508  156.9378 H   0  0  0  0  0  0  0  0  0  0  0  0
  152.2999  145.3518  158.7014 H   0  0  0  0  0  0  0  0  0  0  0  0
  150.9807  144.4054  159.3611 H   0  0  0  0  0  0  0  0  0  0  0  0
  151.4922  142.4496  160.6373 H   0  0  0  0  0  0  0  0  0  0  0  0
  153.2015  140.8952  161.5832 H   0  0  0  0  0  0  0  0  0  0  0  0
  153.4638  142.5440  162.1434 H   0  0  0  0  0  0  0  0  0  0  0  0
  154.4897  141.8718  160.8786 H   0  0  0  0  0  0  0  0  0  0  0  0
  152.1327  140.5335  159.2053 H   0  0  0  0  0  0  0  0  0  0  0  0
  153.4944  141.4306  158.5461 H   0  0  0  0  0  0  0  0  0  0  0  0
  149.6257  142.5648  156.1717 H   0  0  0  0  0  0  0  0  0  0  0  0
  1  2  1  0  0  0  0
  1 25  1  0  0  0  0
  1 26  1  0  0  0  0
  1 27  1  0  0  0  0
  2  3  1  0  0  0  0
  2  4  1  0  0  0  0
  2 28  1  0  0  0  0
  3 29  1  0  0  0  0
  3 30  1  0  0  0  0
  3 31  1  0  0  0  0
  4  5  1  0  0  0  0
  4 32  1  0  0  0  0
  5  6  2  0  0  0  0
  5  7  1  0  0  0  0
  7  8  1  0  0  0  0
  7 33  1  0  0  0  0
  7 34  1  0  0  0  0
  8  9  1  0  0  0  0
  8 35  1  0  0  0  0
  8 36  1  0  0  0  0
  9 10  1  0  0  0  0
  9 37  1  0  0  0  0
 10 11  2  0  0  0  0
 10 12  1  0  0  0  0
 12 24  1  0  0  0  0
 12 13  2  0  0  0  0
 13 14  1  0  0  0  0
 13 38  1  0  0  0  0
 14 15  2  0  0  0  0
 14 39  1  0  0  0  0
 15 16  1  0  0  0  0
 16 17  1  0  0  0  0
 16 24  2  0  0  0  0
 17 23  1  0  0  0  0
 17 18  1  0  0  0  0
 18 19  1  0  0  0  0
 18 40  1  0  0  0  0
 18 41  1  0  0  0  0
 19 20  1  0  0  0  0
 19 42  1  0  0  0  0
 19 43  1  0  0  0  0
 20 21  1  0  0  0  0
 21 22  1  0  0  0  0
 21 23  1  0  0  0  0
 21 44  1  0  0  0  0
 22 45  1  0  0  0  0
 22 46  1  0  0  0  0
 22 47  1  0  0  0  0
 23 48  1  0  0  0  0
 23 49  1  0  0  0  0
 24 50  1  0  0  0  0
M  END
> <s_m_source_file>
AV-unprocessed.smi

> <i_m_source_file_index>
748

> <i_lp_mmshare_version>
43012

> <i_f3d_flags>
0

> <s_epik_input>
W0NIM11bQ0hdKFtDSDNdKVtOSF1DKD1PKVtDSDJdW0NIMl1bTkhdQyg9TyljMVtjSF1bY0hdbmMoW2NIXTEpTjJbQ0gyXVtDSDJdT1tDQEBIXShbQ0gzXSlbQ0gyXTI=

> <s_epik_cmdline>
J2VwaWtfcHl0aG9uJywgJy1waCcsICc3LjAnLCAnLXRuJywgJzgnLCAnLW1hJywgJzIwMCcsICctbWV0YWxfYmluZGluZycsICctaW1hZScsICc8aW5maWxlLm1hZT4nLCAnLW9tYWUnLCAnPG91dGZpbGUubWFlPic=

> <r_lp_tautomer_probability>
1

> <r_epik_Ionization_Penalty>
1.38678e-05

> <r_epik_Ionization_Penalty_Charging>
0

> <r_epik_Ionization_Penalty_Neutral>
1.38678e-05

> <r_epik_State_Penalty>
-0

> <r_epik_Charging_Adjusted_Penalty>
0

> <i_epik_Tot_Q>
0

> <i_epik_Tot_abs_Q>
0

> <r_epik_Metal_State_Penalty>
-0

> <b_epik_Metal_Only>
0

> <s_lp_Force_Field>
OPLS_2005

> <r_lp_Energy>
15.3694

> <b_lp_Chiralities_Consistent>
1

> <s_lp_Variant>
AV-unprocessed.smi:748-2

> <Gold.Version>
5.8.1

> <Gold.Id.Protein>
6NUR|6NUR_protein|mol2

> <Gold.PLP.Fitness>
55.1246

> <Gold.PLP.PLP>
-51.8431

> <Gold.PLP.part.hbond>
-3.3239

> <Gold.PLP.part.metal>
0.0000

> <Gold.PLP.part.buried>
-1.3750

> <Gold.PLP.part.nonpolar>
-47.5668

> <Gold.PLP.part.repulsive>
0.9200

> <Gold.PLP.ligand.clash>
0.0000

> <Gold.PLP.ligand.torsion>
0.5742

> <Gold.PLP.Chemscore.Hbond>
1.3575

> <Gold.PLP.Chemscore.CHOScore>
0.0000

> <Gold.PLP.Chemscore.Metal>
0.0000

> <Gold.Chemscore.Hbonds>
donor molecule, donor type, donor heavy atom, donor atom, acceptor molecule, acceptor atom, score
      L1  H     4    32       P1 10171  0.26
      P1  H  7997  8008       L1    15  0.28

> <Gold.PLP.Chemscore.Internal.Correction>
0.3575

> <Gold.Rescore>
     Score         DG    S(hbond)    S(metal)    S(lipo)     H(rot)  DE(clash)    DE(int)     intcor
     16.56     -17.60       0.99        0.00     116.27       1.87       0.37       0.67       ----

> <Gold.Chemscore.Fitness>
16.5623

> <Gold.Chemscore.DG>
-17.5954

> <Gold.Chemscore.ZeroCoef>
-5.4800

> <Gold.Chemscore.Hbond>
0.9872

> <Gold.Chemscore.Metal>
0.0000

> <Gold.Chemscore.Lipo>
116.2663

> <Gold.Chemscore.Internal_Hbond>
0.0000

> <Gold.Chemscore.DEClash>
0.3679

> <Gold.Chemscore.DEInternal>
0.6651

> <Gold.Chemscore.Rot>
1.8692

> <Gold.Chemscore.Internal.Correction>
   9.000000E+99

> <Gold.Chemscore.Hbonds>
donor molecule, donor type, donor heavy atom, donor atom, acceptor molecule, acceptor atom, score
      L1  H     4    32       P1 10171  0.24
      P1  H  7997  8008       L1    15  0.07
      P1  H  8022  8030       L1    11  0.02

> <Gold.Chemscore.Hbond.Weighted>
-3.2974

> <Gold.Chemscore.Metal.Weighted>
-0.0000

> <Gold.Chemscore.Lipo.Weighted>
-13.6032

> <Gold.Chemscore.Internal_Hbond.Weighted>
0.0000

> <Gold.Chemscore.DEClash.Weighted>
0.3679

> <Gold.Chemscore.DEInternal.Weighted>
0.6651

> <Gold.Chemscore.Rot.Weighted>
4.7852

> <Gold.Chemscore.Internal.Correction.Weighted>
   9.000000E+99

> <Gold.Protein.RotatedTorsions>
[ 6907 6896 6895 6894 ] final  -47.83 input  -60.11 | X-H torsion
[ 7974 7965 7964 7962 ] final   34.52 input  175.53 | X-H torsion
[ 8008 7997 7996 7995 ] final  -50.84 input   59.86 | X-H torsion
[ 10167 10162 10161 10158 ] final  176.03 input  -65.29 | X-H torsion
[ 10718 10713 10712 10709 ] final  -93.37 input   66.30 | X-H torsion
[ 10763 10752 10751 10750 ] final  -63.07 input  -60.55 | X-H torsion
[ 11005 11000 10999 10996 ] final   92.87 input  -57.11 | X-H torsion

> <Gold.Protein.ActiveResidues>
 VAL166  LYS551  ARG553  GLY616  TRP617  ASP618  TYR619  PRO620  LYS621  CYS622 
 ASP623  PHE694  ASN695  SER759  ASP760  ASP761  ALA762  ILE779  LEU786  VAL792 
 PHE793  MET794  SER795  GLU796  ALA797  LYS798  CYS799  TRP800  GLU811  SER814 

> <Gold.Protein.RotatedAtoms>
  150.8967  134.8376  159.7331 H   0  0  0  0  0  0  0  0  0  0  0  0  # atno 6907 bound_to 6896
  152.4869  134.4565  159.9601 H   0  0  0  0  0  0  0  0  0  0  0  0  # atno 6908 bound_to 6896
  151.4621  133.3551  159.2846 H   0  0  0  0  0  0  0  0  0  0  0  0  # atno 6909 bound_to 6896
  146.1347  139.6259  142.9203 H   0  0  0  0  0  0  0  0  0  0  0  0  # atno 7974 bound_to 7965
  154.4070  140.1262  156.4731 H   0  0  0  0  0  0  0  0  0  0  0  0  # atno 8008 bound_to 7997
  155.7159  140.3493  155.4975 H   0  0  0  0  0  0  0  0  0  0  0  0  # atno 8009 bound_to 7997
  155.9258  140.1061  157.1161 H   0  0  0  0  0  0  0  0  0  0  0  0  # atno 8010 bound_to 7997
  139.5199  144.2962  152.0419 H   0  0  0  0  0  0  0  0  0  0  0  0  # atno 10167 bound_to 10162
  156.0012  130.5024  150.5766 H   0  0  0  0  0  0  0  0  0  0  0  0  # atno 10718 bound_to 10713
  154.3095  135.6218  153.5459 H   0  0  0  0  0  0  0  0  0  0  0  0  # atno 10763 bound_to 10752
  152.9831  135.5698  154.5193 H   0  0  0  0  0  0  0  0  0  0  0  0  # atno 10764 bound_to 10752
  154.4840  135.2864  155.1525 H   0  0  0  0  0  0  0  0  0  0  0  0  # atno 10765 bound_to 10752
  139.8817  134.8757  156.3635 H   0  0  0  0  0  0  0  0  0  0  0  0  # atno 11005 bound_to 11000
  145.5182  141.0433  143.2450 LP  0  0  0  0  0  0  0  0  0  0  0  0  # atno 17320 bound_to 7965
  144.7727  139.6698  143.7188 LP  0  0  0  0  0  0  0  0  0  0  0  0  # atno 17321 bound_to 7965
  140.2411  144.4268  150.6259 LP  0  0  0  0  0  0  0  0  0  0  0  0  # atno 17342 bound_to 10162
  140.6290  143.2185  151.6536 LP  0  0  0  0  0  0  0  0  0  0  0  0  # atno 17343 bound_to 10162
  157.3653  131.0756  151.1603 LP  0  0  0  0  0  0  0  0  0  0  0  0  # atno 17370 bound_to 10713
  157.2374  130.6553  149.5875 LP  0  0  0  0  0  0  0  0  0  0  0  0  # atno 17371 bound_to 10713
  140.9513  133.7449  156.0276 LP  0  0  0  0  0  0  0  0  0  0  0  0  # atno 17394 bound_to 11000
  140.8102  134.3408  157.5414 LP  0  0  0  0  0  0  0  0  0  0  0  0  # atno 17395 bound_to 11000

$$$$
