AV-unprocessed.smi:381|AV-procd|sdf|2462|dock10
  -GOLD-   2262022403D 1   1.00000     0.00000
 Structure written by MMmdl.
 46 47  0  0  0  0  0  0  0  0  2 V2000
  150.6410  140.7945  155.0662 O   0  0  0  0  0  0  0  0  0  0  0  0
  149.9594  141.7832  155.3302 C   0  0  0  0  0  0  0  0  0  0  0  0
  148.7580  142.0176  154.7782 N   0  0  0  0  0  0  0  0  0  0  0  0
  148.1081  141.1337  153.8211 C   0  0  0  0  0  0  0  0  0  0  0  0
  148.0173  139.7053  154.3740 C   0  0  0  0  0  0  0  0  0  0  0  0
  147.2382  138.7872  153.4522 C   0  0  0  0  0  0  0  0  0  0  0  0
  146.9323  137.4658  153.8473 C   0  0  0  0  0  0  0  0  0  0  0  0
  146.1972  136.6356  152.9756 C   0  0  0  0  0  0  0  0  0  0  0  0
  145.7859  137.1448  151.7269 C   0  0  0  0  0  0  0  0  0  0  0  0
  146.0980  138.4137  151.3825 N   0  3  0  0  0  0  0  0  0  0  0  0
  146.7986  139.2407  152.1896 C   0  0  0  0  0  0  0  0  0  0  0  0
  150.3715  142.7147  156.2092 N   0  0  0  0  0  0  0  0  0  0  0  0
  151.6170  142.7647  156.9811 C   0  0  0  0  0  0  0  0  0  0  0  0
  151.6699  141.5148  157.8905 C   0  0  0  0  0  0  0  0  0  0  0  0
  152.8366  141.4449  158.8935 C   0  0  0  0  0  0  0  0  0  0  0  0
  152.5227  141.9765  160.3107 C   0  0  0  0  0  0  0  0  0  0  0  0
  152.7838  143.4784  160.5289 C   0  0  0  0  0  0  0  0  0  0  0  0
  151.5914  144.4269  160.2821 C   0  0  0  0  0  0  0  0  0  0  0  0
  150.8371  144.2686  158.9496 C   0  0  0  0  0  0  0  0  0  0  0  0
  151.7445  144.1207  157.7126 C   0  0  0  0  0  0  0  0  0  0  0  0
  148.2615  142.8536  155.0499 H   0  0  0  0  0  0  0  0  0  0  0  0
  147.1088  141.5093  153.5943 H   0  0  0  0  0  0  0  0  0  0  0  0
  148.6756  141.1423  152.8894 H   0  0  0  0  0  0  0  0  0  0  0  0
  149.0180  139.2982  154.5261 H   0  0  0  0  0  0  0  0  0  0  0  0
  147.5354  139.7122  155.3527 H   0  0  0  0  0  0  0  0  0  0  0  0
  147.2531  137.0931  154.8094 H   0  0  0  0  0  0  0  0  0  0  0  0
  145.9512  135.6234  153.2621 H   0  0  0  0  0  0  0  0  0  0  0  0
  145.2201  136.5810  150.9999 H   0  0  0  0  0  0  0  0  0  0  0  0
  146.9818  140.2329  151.8036 H   0  0  0  0  0  0  0  0  0  0  0  0
  149.7411  143.4894  156.3594 H   0  0  0  0  0  0  0  0  0  0  0  0
  152.4596  142.6843  156.2924 H   0  0  0  0  0  0  0  0  0  0  0  0
  150.7262  141.3694  158.4170 H   0  0  0  0  0  0  0  0  0  0  0  0
  151.7494  140.6481  157.2327 H   0  0  0  0  0  0  0  0  0  0  0  0
  153.0865  140.3892  159.0070 H   0  0  0  0  0  0  0  0  0  0  0  0
  153.7361  141.9059  158.4844 H   0  0  0  0  0  0  0  0  0  0  0  0
  151.5132  141.7066  160.6224 H   0  0  0  0  0  0  0  0  0  0  0  0
  153.1826  141.4427  160.9960 H   0  0  0  0  0  0  0  0  0  0  0  0
  153.0831  143.6177  161.5685 H   0  0  0  0  0  0  0  0  0  0  0  0
  153.6545  143.7917  159.9530 H   0  0  0  0  0  0  0  0  0  0  0  0
  150.8735  144.3149  161.0955 H   0  0  0  0  0  0  0  0  0  0  0  0
  151.9574  145.4515  160.3560 H   0  0  0  0  0  0  0  0  0  0  0  0
  150.1400  143.4355  159.0256 H   0  0  0  0  0  0  0  0  0  0  0  0
  150.1983  145.1420  158.8144 H   0  0  0  0  0  0  0  0  0  0  0  0
  152.7876  144.2899  157.9731 H   0  0  0  0  0  0  0  0  0  0  0  0
  151.5187  144.9291  157.0165 H   0  0  0  0  0  0  0  0  0  0  0  0
  145.7899  138.7629  150.4747 H   0  0  0  0  0  0  0  0  0  0  0  0
  1  2  2  0  0  0  0
  2  3  1  0  0  0  0
  2 12  1  0  0  0  0
  3  4  1  0  0  0  0
  3 21  1  0  0  0  0
  4  5  1  0  0  0  0
  4 22  1  0  0  0  0
  4 23  1  0  0  0  0
  5  6  1  0  0  0  0
  5 24  1  0  0  0  0
  5 25  1  0  0  0  0
  6 11  1  0  0  0  0
  6  7  2  0  0  0  0
  7  8  1  0  0  0  0
  7 26  1  0  0  0  0
  8  9  2  0  0  0  0
  8 27  1  0  0  0  0
  9 10  1  0  0  0  0
  9 28  1  0  0  0  0
 10 11  2  0  0  0  0
 10 46  1  0  0  0  0
 11 29  1  0  0  0  0
 12 13  1  0  0  0  0
 12 30  1  0  0  0  0
 13 20  1  0  0  0  0
 13 14  1  0  0  0  0
 13 31  1  0  0  0  0
 14 15  1  0  0  0  0
 14 32  1  0  0  0  0
 14 33  1  0  0  0  0
 15 16  1  0  0  0  0
 15 34  1  0  0  0  0
 15 35  1  0  0  0  0
 16 17  1  0  0  0  0
 16 36  1  0  0  0  0
 16 37  1  0  0  0  0
 17 18  1  0  0  0  0
 17 38  1  0  0  0  0
 17 39  1  0  0  0  0
 18 19  1  0  0  0  0
 18 40  1  0  0  0  0
 18 41  1  0  0  0  0
 19 20  1  0  0  0  0
 19 42  1  0  0  0  0
 19 43  1  0  0  0  0
 20 44  1  0  0  0  0
 20 45  1  0  0  0  0
M  CHG  1  10   1
M  END
> <s_m_source_file>
AV-unprocessed.smi

> <i_m_source_file_index>
381

> <i_lp_mmshare_version>
43012

> <i_f3d_flags>
0

> <s_epik_input>
W0NIMl0xW0NIMl1bQ0gyXVtDSDJdW0NIMl1bQ0gyXVtDSDJdW0NIXTFbTkhdQyg9TylbTkhdW0NIMl1bQ0gyXWMyW2NIXVtjSF1bY0hdbltjSF0y

> <s_epik_cmdline>
J2VwaWtfcHl0aG9uJywgJy1waCcsICc3LjAnLCAnLXRuJywgJzgnLCAnLW1hJywgJzIwMCcsICctbWV0YWxfYmluZGluZycsICctaW1hZScsICc8aW5maWxlLm1hZT4nLCAnLW9tYWUnLCAnPG91dGZpbGUubWFlPic=

> <r_epik_Ionization_Penalty>
2.21063

> <r_epik_Ionization_Penalty_Charging>
2.21057

> <r_epik_Ionization_Penalty_Neutral>
5.85974e-05

> <r_epik_State_Penalty>
2.35476

> <r_epik_Charging_Adjusted_Penalty>
4.56533

> <i_epik_Tot_Q>
1

> <i_epik_Tot_abs_Q>
1

> <r_epik_Metal_State_Penalty>
2.36886

> <b_epik_Metal_Only>
0

> <s_lp_Force_Field>
OPLS_2005

> <r_lp_Energy>
36.9097

> <b_lp_Chiralities_Consistent>
1

> <s_lp_Variant>
AV-unprocessed.smi:381-2

> <Gold.Version>
5.8.1

> <Gold.Id.Protein>
6NUR|6NUR_protein|mol2

> <Gold.PLP.Fitness>
50.8707

> <Gold.PLP.PLP>
-41.3255

> <Gold.PLP.part.hbond>
-4.2670

> <Gold.PLP.part.metal>
0.0000

> <Gold.PLP.part.buried>
-5.5145

> <Gold.PLP.part.nonpolar>
-31.8701

> <Gold.PLP.part.repulsive>
0.4534

> <Gold.PLP.ligand.clash>
0.0000

> <Gold.PLP.ligand.torsion>
0.0934

> <Gold.PLP.Chemscore.Hbond>
3.2337

> <Gold.PLP.Chemscore.CHOScore>
0.0000

> <Gold.PLP.Chemscore.Metal>
0.0000

> <Gold.Chemscore.Hbonds>
donor molecule, donor type, donor heavy atom, donor atom, acceptor molecule, acceptor atom, score
      L1  H     3    21       P1  8028  0.66
      L1  H    10    46       P1 10171  0.48
      L1  H    12    30       P1  8028  0.93
      P1  H  7989  7998       L1     1  0.85

> <Gold.PLP.Chemscore.Internal.Correction>
0.0309

> <Gold.Rescore>
     Score         DG    S(hbond)    S(metal)    S(lipo)     H(rot)  DE(clash)    DE(int)     intcor
     22.35     -26.11       3.15        0.00     119.38       1.51       1.67       2.08       ----

> <Gold.Chemscore.Fitness>
22.3536

> <Gold.Chemscore.DG>
-26.1099

> <Gold.Chemscore.ZeroCoef>
-5.4800

> <Gold.Chemscore.Hbond>
3.1509

> <Gold.Chemscore.Metal>
0.0000

> <Gold.Chemscore.Lipo>
119.3827

> <Gold.Chemscore.Internal_Hbond>
0.0000

> <Gold.Chemscore.DEClash>
1.6718

> <Gold.Chemscore.DEInternal>
2.0845

> <Gold.Chemscore.Rot>
1.5085

> <Gold.Chemscore.Internal.Correction>
   9.000000E+99

> <Gold.Chemscore.Hbonds>
donor molecule, donor type, donor heavy atom, donor atom, acceptor molecule, acceptor atom, score
      L1  H     3    21       P1  8028  0.62
      L1  H    10    46       P1 10171  0.46
      L1  H    12    30       P1  8028  0.89
      P1  H  7989  7998       L1     1  0.77

> <Gold.Chemscore.Hbond.Weighted>
-10.5239

> <Gold.Chemscore.Metal.Weighted>
-0.0000

> <Gold.Chemscore.Lipo.Weighted>
-13.9678

> <Gold.Chemscore.Internal_Hbond.Weighted>
0.0000

> <Gold.Chemscore.DEClash.Weighted>
1.6718

> <Gold.Chemscore.DEInternal.Weighted>
2.0845

> <Gold.Chemscore.Rot.Weighted>
3.8617

> <Gold.Chemscore.Internal.Correction.Weighted>
   9.000000E+99

> <Gold.Protein.RotatedTorsions>
[ 6907 6896 6895 6894 ] final -162.77 input  -60.11 | X-H torsion
[ 7974 7965 7964 7962 ] final  -72.78 input  175.53 | X-H torsion
[ 8008 7997 7996 7995 ] final -158.93 input   59.86 | X-H torsion
[ 10167 10162 10161 10158 ] final  146.90 input  -65.29 | X-H torsion
[ 10718 10713 10712 10709 ] final -100.08 input   66.30 | X-H torsion
[ 10763 10752 10751 10750 ] final -147.81 input  -60.55 | X-H torsion
[ 11005 11000 10999 10996 ] final  -49.75 input  -57.11 | X-H torsion

> <Gold.Protein.ActiveResidues>
 VAL166  LYS551  ARG553  GLY616  TRP617  ASP618  TYR619  PRO620  LYS621  CYS622 
 ASP623  PHE694  ASN695  SER759  ASP760  ASP761  ALA762  ILE779  LEU786  VAL792 
 PHE793  MET794  SER795  GLU796  ALA797  LYS798  CYS799  TRP800  GLU811  SER814 

> <Gold.Protein.RotatedAtoms>
  151.3855  133.3807  159.2714 H   0  0  0  0  0  0  0  0  0  0  0  0  # atno 6907 bound_to 6896
  150.9545  134.8942  159.7703 H   0  0  0  0  0  0  0  0  0  0  0  0  # atno 6908 bound_to 6896
  152.5125  134.3811  159.9404 H   0  0  0  0  0  0  0  0  0  0  0  0  # atno 6909 bound_to 6896
  145.6607  140.9253  143.0935 H   0  0  0  0  0  0  0  0  0  0  0  0  # atno 7974 bound_to 7965
  155.7550  140.0831  157.2183 H   0  0  0  0  0  0  0  0  0  0  0  0  # atno 8008 bound_to 7997
  154.4008  140.1553  156.2823 H   0  0  0  0  0  0  0  0  0  0  0  0  # atno 8009 bound_to 7997
  155.8894  140.3416  155.5948 H   0  0  0  0  0  0  0  0  0  0  0  0  # atno 8010 bound_to 7997
  139.4899  144.5795  151.6899 H   0  0  0  0  0  0  0  0  0  0  0  0  # atno 10167 bound_to 10162
  156.0152  130.5311  150.6764 H   0  0  0  0  0  0  0  0  0  0  0  0  # atno 10718 bound_to 10713
  154.8266  135.3350  154.6877 H   0  0  0  0  0  0  0  0  0  0  0  0  # atno 10763 bound_to 10752
  153.7502  135.6940  153.4952 H   0  0  0  0  0  0  0  0  0  0  0  0  # atno 10764 bound_to 10752
  153.2182  135.4458  155.0409 H   0  0  0  0  0  0  0  0  0  0  0  0  # atno 10765 bound_to 10752
  141.0777  133.6661  156.3631 H   0  0  0  0  0  0  0  0  0  0  0  0  # atno 11005 bound_to 11000
  144.7090  139.8445  143.7421 LP  0  0  0  0  0  0  0  0  0  0  0  0  # atno 17320 bound_to 7965
  146.1127  139.4134  143.0277 LP  0  0  0  0  0  0  0  0  0  0  0  0  # atno 17321 bound_to 7965
  140.5399  144.0597  150.6084 LP  0  0  0  0  0  0  0  0  0  0  0  0  # atno 17342 bound_to 10162
  140.3615  143.2905  152.0378 LP  0  0  0  0  0  0  0  0  0  0  0  0  # atno 17343 bound_to 10162
  157.4476  131.0869  151.0879 LP  0  0  0  0  0  0  0  0  0  0  0  0  # atno 17370 bound_to 10713
  157.1405  130.6141  149.5554 LP  0  0  0  0  0  0  0  0  0  0  0  0  # atno 17371 bound_to 10713
  140.5537  134.6002  157.5415 LP  0  0  0  0  0  0  0  0  0  0  0  0  # atno 17394 bound_to 11000
  139.9590  134.7486  156.0279 LP  0  0  0  0  0  0  0  0  0  0  0  0  # atno 17395 bound_to 11000

$$$$
