AV-unprocessed.smi:1748|AV-procd|sdf|7041|dock5
  -GOLD-   22720 8263D 1   1.00000     0.00000
 Structure written by MMmdl.
 39 40  0  0  0  0  0  0  0  0  3 V2000
  150.3376  138.8541  154.2197 C   0  0  0  0  0  0  0  0  0  0  0  0
  148.9772  138.4462  153.8092 N   0  3  2  0  0  0  0  0  0  0  0  0
  148.2241  139.5500  153.1622 C   0  0  0  0  0  0  0  0  0  0  0  0
  146.8641  139.0604  152.6342 C   0  0  0  0  0  0  0  0  0  0  0  0
  146.0454  138.3758  153.7429 C   0  0  0  0  0  0  0  0  0  0  0  0
  146.8626  137.2633  154.4250 C   0  0  1  0  0  0  0  0  0  0  0  0
  147.0613  136.1526  153.4940 N   0  0  0  0  0  0  0  0  0  0  0  0
  146.2462  135.0977  153.3562 C   0  0  0  0  0  0  0  0  0  0  0  0
  145.2081  134.9597  154.0029 O   0  0  0  0  0  0  0  0  0  0  0  0
  146.7426  134.2253  152.4618 N   0  0  0  0  0  0  0  0  0  0  0  0
  146.2185  132.9900  152.0482 C   0  0  0  0  0  0  0  0  0  0  0  0
  146.8191  131.7862  152.2572 C   0  0  0  0  0  0  0  0  0  0  0  0
  146.2253  130.5315  151.8130 C   0  0  0  0  0  0  0  0  0  0  0  0
  146.8281  129.1678  152.1019 C   0  0  0  0  0  0  0  0  0  0  0  0
  147.9890  129.2808  152.7479 F   0  0  0  0  0  0  0  0  0  0  0  0
  145.9964  128.4559  152.8613 F   0  0  0  0  0  0  0  0  0  0  0  0
  147.0398  128.4924  150.9725 F   0  0  0  0  0  0  0  0  0  0  0  0
  145.0010  130.7189  151.2006 C   0  0  0  0  0  0  0  0  0  0  0  0
  144.3439  131.8725  150.9477 N   0  5  0  0  0  0  0  0  0  0  0  0
  144.9104  133.0399  151.3639 C   0  0  0  0  0  0  0  0  0  0  0  0
  144.3605  134.1265  151.1797 O   0  0  0  0  0  0  0  0  0  0  0  0
  148.2085  137.8361  154.9231 C   0  0  0  0  0  0  0  0  0  0  0  0
  150.2998  139.6250  154.9904 H   0  0  0  0  0  0  0  0  0  0  0  0
  150.8948  139.2470  153.3688 H   0  0  0  0  0  0  0  0  0  0  0  0
  150.8916  138.0016  154.6144 H   0  0  0  0  0  0  0  0  0  0  0  0
  148.0784  140.3605  153.8781 H   0  0  0  0  0  0  0  0  0  0  0  0
  148.8087  139.9576  152.3363 H   0  0  0  0  0  0  0  0  0  0  0  0
  146.3020  139.8987  152.2220 H   0  0  0  0  0  0  0  0  0  0  0  0
  147.0228  138.3653  151.8087 H   0  0  0  0  0  0  0  0  0  0  0  0
  145.7565  139.1191  154.4873 H   0  0  0  0  0  0  0  0  0  0  0  0
  145.1166  137.9746  153.3353 H   0  0  0  0  0  0  0  0  0  0  0  0
  146.2944  136.8930  155.2800 H   0  0  0  0  0  0  0  0  0  0  0  0
  147.8881  136.1862  152.9153 H   0  0  0  0  0  0  0  0  0  0  0  0
  147.6463  134.4442  152.0684 H   0  0  0  0  0  0  0  0  0  0  0  0
  147.7587  131.7234  152.7815 H   0  0  0  0  0  0  0  0  0  0  0  0
  144.4653  129.8038  150.8693 H   0  0  0  0  0  0  0  0  0  0  0  0
  148.8032  137.0508  155.3918 H   0  0  0  0  0  0  0  0  0  0  0  0
  148.0313  138.5875  155.6942 H   0  0  0  0  0  0  0  0  0  0  0  0
  149.0933  137.7244  153.1121 H   0  0  0  0  0  0  0  0  0  0  0  0
  1  2  1  0  0  0  0
  1 23  1  0  0  0  0
  1 24  1  0  0  0  0
  1 25  1  0  0  0  0
  2 22  1  0  0  0  0
  2  3  1  0  0  0  0
  2 39  1  0  0  0  0
  3  4  1  0  0  0  0
  3 26  1  0  0  0  0
  3 27  1  0  0  0  0
  4  5  1  0  0  0  0
  4 28  1  0  0  0  0
  4 29  1  0  0  0  0
  5  6  1  0  0  0  0
  5 30  1  0  0  0  0
  5 31  1  0  0  0  0
  6  7  1  0  0  0  0
  6 22  1  0  0  0  0
  6 32  1  0  0  0  0
  7  8  1  0  0  0  0
  7 33  1  0  0  0  0
  8  9  2  0  0  0  0
  8 10  1  0  0  0  0
 10 11  1  0  0  0  0
 10 34  1  0  0  0  0
 11 20  1  0  0  0  0
 11 12  2  0  0  0  0
 12 13  1  0  0  0  0
 12 35  1  0  0  0  0
 13 14  1  0  0  0  0
 13 18  2  0  0  0  0
 14 15  1  0  0  0  0
 14 16  1  0  0  0  0
 14 17  1  0  0  0  0
 18 19  1  0  0  0  0
 18 36  1  0  0  0  0
 19 20  1  0  0  0  0
 20 21  2  0  0  0  0
 22 37  1  0  0  0  0
 22 38  1  0  0  0  0
M  CHG  1   2   1
M  CHG  1  19  -1
M  END
> <s_m_source_file>
AV-unprocessed.smi

> <i_m_source_file_index>
1748

> <i_lp_mmshare_version>
43012

> <i_f3d_flags>
0

> <s_epik_input>
W0NIM11OMVtDSDJdW0NIMl1bQ0gyXVtDQEhdKFtDSDJdMSlbTkhdQyg9TylbTkhdYzJbY0hdYyhDKEYpKEYpRilbY0hdW25IXWMyPU8=

> <s_epik_cmdline>
J2VwaWtfcHl0aG9uJywgJy1waCcsICc3LjAnLCAnLXRuJywgJzgnLCAnLW1hJywgJzIwMCcsICctbWV0YWxfYmluZGluZycsICctaW1hZScsICc8aW5maWxlLm1hZT4nLCAnLW9tYWUnLCAnPG91dGZpbGUubWFlPic=

> <r_lp_tautomer_probability>
1

> <r_epik_Ionization_Penalty>
3.00907

> <r_epik_Ionization_Penalty_Charging>
0.148702

> <r_epik_Ionization_Penalty_Neutral>
2.86036

> <r_epik_State_Penalty>
2.85557

> <r_epik_Charging_Adjusted_Penalty>
3.00428

> <i_epik_Tot_Q>
0

> <i_epik_Tot_abs_Q>
2

> <r_epik_Metal_State_Penalty>
0.443779

> <b_epik_Metal_Only>
1

> <s_lp_Force_Field>
OPLS_2005

> <r_lp_Energy>
32.6678

> <b_lp_Chiralities_Consistent>
1

> <s_lp_Variant>
AV-unprocessed.smi:1748-6

> <Gold.Version>
5.8.1

> <Gold.Id.Protein>
6NUR|6NUR_protein|mol2

> <Gold.PLP.Fitness>
39.8026

> <Gold.PLP.PLP>
-31.4128

> <Gold.PLP.part.hbond>
-3.7219

> <Gold.PLP.part.metal>
0.0000

> <Gold.PLP.part.buried>
2.7328

> <Gold.PLP.part.nonpolar>
-30.1851

> <Gold.PLP.part.repulsive>
0.4196

> <Gold.PLP.ligand.clash>
0.0000

> <Gold.PLP.ligand.torsion>
1.0014

> <Gold.PLP.Chemscore.Hbond>
3.4463

> <Gold.PLP.Chemscore.CHOScore>
0.0000

> <Gold.PLP.Chemscore.Metal>
0.0000

> <Gold.Chemscore.Hbonds>
donor molecule, donor type, donor heavy atom, donor atom, acceptor molecule, acceptor atom, score
      L1  H     2    39       P1  7948  2.00
      L1  H     7    33       P1  7948  0.91
      L1  H    10    34       P1  7948  0.51

> <Gold.PLP.Chemscore.Internal.Correction>
0.0539

> <Gold.Rescore>
     Score         DG    S(hbond)    S(metal)    S(lipo)     H(rot)  DE(clash)    DE(int)     intcor
     15.39     -16.94       1.99        0.00      63.00       1.00       0.50       1.05       ----

> <Gold.Chemscore.Fitness>
15.3896

> <Gold.Chemscore.DG>
-16.9373

> <Gold.Chemscore.ZeroCoef>
-5.4800

> <Gold.Chemscore.Hbond>
1.9898

> <Gold.Chemscore.Metal>
0.0000

> <Gold.Chemscore.Lipo>
63.0032

> <Gold.Chemscore.Internal_Hbond>
0.0000

> <Gold.Chemscore.DEClash>
0.5013

> <Gold.Chemscore.DEInternal>
1.0464

> <Gold.Chemscore.Rot>
1.0000

> <Gold.Chemscore.Internal.Correction>
   9.000000E+99

> <Gold.Chemscore.Hbonds>
donor molecule, donor type, donor heavy atom, donor atom, acceptor molecule, acceptor atom, score
      L1  H     2    39       P1  7948  0.99
      L1  H     7    33       P1  7948  0.89
      L1  H    10    34       P1  7948  0.22

> <Gold.Chemscore.Hbond.Weighted>
-6.6459

> <Gold.Chemscore.Metal.Weighted>
-0.0000

> <Gold.Chemscore.Lipo.Weighted>
-7.3714

> <Gold.Chemscore.Internal_Hbond.Weighted>
0.0000

> <Gold.Chemscore.DEClash.Weighted>
0.5013

> <Gold.Chemscore.DEInternal.Weighted>
1.0464

> <Gold.Chemscore.Rot.Weighted>
2.5600

> <Gold.Chemscore.Internal.Correction.Weighted>
   9.000000E+99

> <Gold.Protein.RotatedTorsions>
[ 6907 6896 6895 6894 ] final  -25.11 input  -60.11 | X-H torsion
[ 7974 7965 7964 7962 ] final  -68.47 input  175.53 | X-H torsion
[ 8008 7997 7996 7995 ] final  119.30 input   59.86 | X-H torsion
[ 10167 10162 10161 10158 ] final  -80.37 input  -65.29 | X-H torsion
[ 10718 10713 10712 10709 ] final  166.07 input   66.30 | X-H torsion
[ 10763 10752 10751 10750 ] final -168.12 input  -60.55 | X-H torsion
[ 11005 11000 10999 10996 ] final   63.70 input  -57.11 | X-H torsion

> <Gold.Protein.ActiveResidues>
 VAL166  LYS551  ARG553  GLY616  TRP617  ASP618  TYR619  PRO620  LYS621  CYS622 
 ASP623  PHE694  ASN695  SER759  ASP760  ASP761  ALA762  ILE779  LEU786  VAL792 
 PHE793  MET794  SER795  GLU796  ALA797  LYS798  CYS799  TRP800  GLU811  SER814 

> <Gold.Protein.RotatedAtoms>
  151.1798  135.0356  159.8787 H   0  0  0  0  0  0  0  0  0  0  0  0  # atno 6907 bound_to 6896
  152.5445  134.1076  159.8354 H   0  0  0  0  0  0  0  0  0  0  0  0  # atno 6908 bound_to 6896
  151.1191  133.5070  159.2635 H   0  0  0  0  0  0  0  0  0  0  0  0  # atno 6909 bound_to 6896
  145.7161  140.9058  143.0655 H   0  0  0  0  0  0  0  0  0  0  0  0  # atno 7974 bound_to 7965
  156.2589  140.2856  156.0970 H   0  0  0  0  0  0  0  0  0  0  0  0  # atno 8008 bound_to 7997
  155.1401  140.0395  157.2814 H   0  0  0  0  0  0  0  0  0  0  0  0  # atno 8009 bound_to 7997
  154.6536  140.2550  155.7193 H   0  0  0  0  0  0  0  0  0  0  0  0  # atno 8010 bound_to 7997
  140.4509  143.2483  151.8490 H   0  0  0  0  0  0  0  0  0  0  0  0  # atno 10167 bound_to 10162
  157.0711  131.0366  151.2611 H   0  0  0  0  0  0  0  0  0  0  0  0  # atno 10718 bound_to 10713
  154.6662  135.2932  154.9802 H   0  0  0  0  0  0  0  0  0  0  0  0  # atno 10763 bound_to 10752
  154.0845  135.6599  153.4847 H   0  0  0  0  0  0  0  0  0  0  0  0  # atno 10764 bound_to 10752
  153.0459  135.5205  154.7636 H   0  0  0  0  0  0  0  0  0  0  0  0  # atno 10765 bound_to 10752
  140.0007  134.6446  155.9935 H   0  0  0  0  0  0  0  0  0  0  0  0  # atno 11005 bound_to 11000
  144.6929  139.9140  143.7465 LP  0  0  0  0  0  0  0  0  0  0  0  0  # atno 17320 bound_to 7965
  146.0668  139.3658  143.0547 LP  0  0  0  0  0  0  0  0  0  0  0  0  # atno 17321 bound_to 7965
  139.4796  144.5121  151.8919 LP  0  0  0  0  0  0  0  0  0  0  0  0  # atno 17342 bound_to 10162
  140.4208  144.2246  150.5887 LP  0  0  0  0  0  0  0  0  0  0  0  0  # atno 17343 bound_to 10162
  157.4877  130.7803  149.7476 LP  0  0  0  0  0  0  0  0  0  0  0  0  # atno 17370 bound_to 10713
  155.9950  130.3914  150.2836 LP  0  0  0  0  0  0  0  0  0  0  0  0  # atno 17371 bound_to 10713
  141.1640  133.6537  156.4414 LP  0  0  0  0  0  0  0  0  0  0  0  0  # atno 17394 bound_to 11000
  140.4733  134.6733  157.5139 LP  0  0  0  0  0  0  0  0  0  0  0  0  # atno 17395 bound_to 11000

$$$$
