AV-unprocessed.smi:560|AV-procd|sdf|2934|dock2
  -GOLD-   2262023433D 1   1.00000     0.00000
 Structure written by MMmdl.
 41 42  0  0  0  0  0  0  0  0  3 V2000
  152.2712  138.2894  154.9037 C   0  0  0  0  0  0  0  0  0  0  0  0
  150.9553  137.8468  154.2323 C   0  0  2  0  0  0  0  0  0  0  0  0
  149.8501  138.9118  154.3220 C   0  0  0  0  0  0  0  0  0  0  0  0
  149.9900  139.9096  155.0300 O   0  0  0  0  0  0  0  0  0  0  0  0
  148.7500  138.6861  153.5860 N   0  0  0  0  0  0  0  0  0  0  0  0
  147.5757  139.5547  153.5273 C   0  0  2  0  0  0  0  0  0  0  0  0
  146.3917  138.9054  154.2639 C   0  0  0  0  0  0  0  0  0  0  0  0
  145.8261  137.6964  153.4963 C   0  0  0  0  0  0  0  0  0  0  0  0
  145.4458  138.0657  152.1092 N   0  3  2  0  0  0  0  0  0  0  0  0
  144.7770  136.9499  151.3948 C   0  0  0  0  0  0  0  0  0  0  0  0
  143.4077  136.6653  152.0208 C   0  0  0  0  0  0  0  0  0  0  0  0
  142.6357  137.7663  152.0951 N   0  5  0  0  0  0  0  0  0  0  0  0
  143.1392  135.5269  152.4001 O   0  0  0  0  0  0  0  0  0  0  0  0
  146.5955  138.6371  151.3571 C   0  0  0  0  0  0  0  0  0  0  0  0
  147.1699  139.8710  152.0746 C   0  0  0  0  0  0  0  0  0  0  0  0
  150.4783  136.5696  154.7511 N   0  0  0  0  0  0  0  0  0  0  0  0
  149.2533  136.2897  155.3224 C   0  0  0  0  0  0  0  0  0  0  0  0
  149.2613  134.9742  155.6882 C   0  0  0  0  0  0  0  0  0  0  0  0
  150.5553  134.5248  155.3047 C   0  0  0  0  0  0  0  0  0  0  0  0
  151.2832  135.4814  154.7525 N   0  0  0  0  0  0  0  0  0  0  0  0
  152.6445  139.2157  154.4657 H   0  0  0  0  0  0  0  0  0  0  0  0
  153.0458  137.5329  154.7746 H   0  0  0  0  0  0  0  0  0  0  0  0
  152.1495  138.4564  155.9747 H   0  0  0  0  0  0  0  0  0  0  0  0
  151.1707  137.7015  153.1724 H   0  0  0  0  0  0  0  0  0  0  0  0
  148.7195  137.8398  153.0364 H   0  0  0  0  0  0  0  0  0  0  0  0
  147.8209  140.4879  154.0376 H   0  0  0  0  0  0  0  0  0  0  0  0
  146.6896  138.6058  155.2697 H   0  0  0  0  0  0  0  0  0  0  0  0
  145.6008  139.6462  154.3909 H   0  0  0  0  0  0  0  0  0  0  0  0
  146.5562  136.8859  153.4701 H   0  0  0  0  0  0  0  0  0  0  0  0
  144.9523  137.3165  154.0270 H   0  0  0  0  0  0  0  0  0  0  0  0
  144.7190  137.1632  150.3249 H   0  0  0  0  0  0  0  0  0  0  0  0
  145.3646  136.0365  151.4969 H   0  0  0  0  0  0  0  0  0  0  0  0
  143.0809  138.6908  152.0526 H   0  0  0  0  0  0  0  0  0  0  0  0
  147.3682  137.8765  151.2346 H   0  0  0  0  0  0  0  0  0  0  0  0
  146.2834  138.9278  150.3538 H   0  0  0  0  0  0  0  0  0  0  0  0
  146.4179  140.6611  152.0781 H   0  0  0  0  0  0  0  0  0  0  0  0
  148.0176  140.2679  151.5149 H   0  0  0  0  0  0  0  0  0  0  0  0
  148.4847  137.0421  155.4196 H   0  0  0  0  0  0  0  0  0  0  0  0
  148.4652  134.4176  156.1599 H   0  0  0  0  0  0  0  0  0  0  0  0
  150.9856  133.5401  155.4138 H   0  0  0  0  0  0  0  0  0  0  0  0
  144.7524  138.7964  152.1872 H   0  0  0  0  0  0  0  0  0  0  0  0
  1  2  1  0  0  0  0
  1 21  1  0  0  0  0
  1 22  1  0  0  0  0
  1 23  1  0  0  0  0
  2  3  1  0  0  0  0
  2 16  1  0  0  0  0
  2 24  1  0  0  0  0
  3  4  2  0  0  0  0
  3  5  1  0  0  0  0
  5  6  1  0  0  0  0
  5 25  1  0  0  0  0
  6 15  1  0  0  0  0
  6  7  1  0  0  0  0
  6 26  1  0  0  0  0
  7  8  1  0  0  0  0
  7 27  1  0  0  0  0
  7 28  1  0  0  0  0
  8  9  1  0  0  0  0
  8 29  1  0  0  0  0
  8 30  1  0  0  0  0
  9 10  1  0  0  0  0
  9 14  1  0  0  0  0
  9 41  1  0  0  0  0
 10 11  1  0  0  0  0
 10 31  1  0  0  0  0
 10 32  1  0  0  0  0
 11 12  1  0  0  0  0
 11 13  2  0  0  0  0
 12 33  1  0  0  0  0
 14 15  1  0  0  0  0
 14 34  1  0  0  0  0
 14 35  1  0  0  0  0
 15 36  1  0  0  0  0
 15 37  1  0  0  0  0
 16 20  1  0  0  0  0
 16 17  1  0  0  0  0
 17 18  2  0  0  0  0
 17 38  1  0  0  0  0
 18 19  1  0  0  0  0
 18 39  1  0  0  0  0
 19 20  2  0  0  0  0
 19 40  1  0  0  0  0
M  CHG  1   9   1
M  CHG  1  12  -1
M  END
> <s_m_source_file>
AV-unprocessed.smi

> <i_m_source_file_index>
560

> <i_lp_mmshare_version>
43012

> <i_f3d_flags>
0

> <s_epik_input>
bjFbY0hdW2NIXVtjSF1uMVtDQEhdKFtDSDNdKUMoPU8pW05IXVtDSF0yW0NIMl1bQ0gyXU4oW0NIMl1bQ0gyXTIpW0NIMl1DKD1PKVtOSDJd

> <s_epik_cmdline>
J2VwaWtfcHl0aG9uJywgJy1waCcsICc3LjAnLCAnLXRuJywgJzgnLCAnLW1hJywgJzIwMCcsICctbWV0YWxfYmluZGluZycsICctaW1hZScsICc8aW5maWxlLm1hZT4nLCAnLW9tYWUnLCAnPG91dGZpbGUubWFlPic=

> <r_lp_tautomer_probability>
1

> <r_epik_Ionization_Penalty>
5.71084

> <r_epik_Ionization_Penalty_Charging>
5.71081

> <r_epik_Ionization_Penalty_Neutral>
3.04611e-05

> <r_epik_State_Penalty>
6.71277

> <r_epik_Charging_Adjusted_Penalty>
12.4236

> <i_epik_Tot_Q>
0

> <i_epik_Tot_abs_Q>
2

> <r_epik_Metal_State_Penalty>
2.67562

> <b_epik_Metal_Only>
1

> <s_lp_Force_Field>
OPLS_2005

> <r_lp_Energy>
9.92131

> <b_lp_Chiralities_Consistent>
1

> <s_lp_Variant>
AV-unprocessed.smi:560-9

> <Gold.Version>
5.8.1

> <Gold.Id.Protein>
6NUR|6NUR_protein|mol2

> <Gold.PLP.Fitness>
48.5719

> <Gold.PLP.PLP>
-31.0977

> <Gold.PLP.part.hbond>
-6.5532

> <Gold.PLP.part.metal>
0.0000

> <Gold.PLP.part.buried>
3.5118

> <Gold.PLP.part.nonpolar>
-28.2839

> <Gold.PLP.part.repulsive>
0.3435

> <Gold.PLP.ligand.clash>
0.0000

> <Gold.PLP.ligand.torsion>
0.3467

> <Gold.PLP.Chemscore.Hbond>
6.0000

> <Gold.PLP.Chemscore.CHOScore>
0.0000

> <Gold.PLP.Chemscore.Metal>
0.0000

> <Gold.Chemscore.Hbonds>
donor molecule, donor type, donor heavy atom, donor atom, acceptor molecule, acceptor atom, score
      L1  H     5    25       P1  7948  1.00
      L1  H     9    41       P1 10175  2.00
      L1  H    12    33       P1 10175  1.00
      P1  H 10752 10763       L1    20  1.00

> <Gold.PLP.Chemscore.Internal.Correction>
0.1676

> <Gold.Rescore>
     Score         DG    S(hbond)    S(metal)    S(lipo)     H(rot)  DE(clash)    DE(int)     intcor
     18.30     -21.26       4.43        0.00      62.39       2.47       2.16       0.80       ----

> <Gold.Chemscore.Fitness>
18.3026

> <Gold.Chemscore.DG>
-21.2570

> <Gold.Chemscore.ZeroCoef>
-5.4800

> <Gold.Chemscore.Hbond>
4.4339

> <Gold.Chemscore.Metal>
0.0000

> <Gold.Chemscore.Lipo>
62.3906

> <Gold.Chemscore.Internal_Hbond>
0.0000

> <Gold.Chemscore.DEClash>
2.1588

> <Gold.Chemscore.DEInternal>
0.7957

> <Gold.Chemscore.Rot>
2.4734

> <Gold.Chemscore.Internal.Correction>
   9.000000E+99

> <Gold.Chemscore.Hbonds>
donor molecule, donor type, donor heavy atom, donor atom, acceptor molecule, acceptor atom, score
      L1  H     5    25       P1  7948  0.97
      L1  H     9    41       P1 10175  0.97
      L1  H    12    33       P1 10175  0.99
      P1  H 10752 10763       L1    20  0.96

> <Gold.Chemscore.Hbond.Weighted>
-14.8091

> <Gold.Chemscore.Metal.Weighted>
-0.0000

> <Gold.Chemscore.Lipo.Weighted>
-7.2997

> <Gold.Chemscore.Internal_Hbond.Weighted>
0.0000

> <Gold.Chemscore.DEClash.Weighted>
2.1588

> <Gold.Chemscore.DEInternal.Weighted>
0.7957

> <Gold.Chemscore.Rot.Weighted>
6.3318

> <Gold.Chemscore.Internal.Correction.Weighted>
   9.000000E+99

> <Gold.Protein.RotatedTorsions>
[ 6907 6896 6895 6894 ] final  176.58 input  -60.11 | X-H torsion
[ 7974 7965 7964 7962 ] final   54.16 input  175.53 | X-H torsion
[ 8008 7997 7996 7995 ] final   38.21 input   59.86 | X-H torsion
[ 10167 10162 10161 10158 ] final -177.22 input  -65.29 | X-H torsion
[ 10718 10713 10712 10709 ] final   34.44 input   66.30 | X-H torsion
[ 10763 10752 10751 10750 ] final   56.57 input  -60.55 | X-H torsion
[ 11005 11000 10999 10996 ] final -122.80 input  -57.11 | X-H torsion

> <Gold.Protein.ActiveResidues>
 VAL166  LYS551  ARG553  GLY616  TRP617  ASP618  TYR619  PRO620  LYS621  CYS622 
 ASP623  PHE694  ASN695  SER759  ASP760  ASP761  ALA762  ILE779  LEU786  VAL792 
 PHE793  MET794  SER795  GLU796  ALA797  LYS798  CYS799  TRP800  GLU811  SER814 

> <Gold.Protein.RotatedAtoms>
  151.7178  133.3313  159.3307 H   0  0  0  0  0  0  0  0  0  0  0  0  # atno 6907 bound_to 6896
  150.7666  134.6475  159.6279 H   0  0  0  0  0  0  0  0  0  0  0  0  # atno 6908 bound_to 6896
  152.3671  134.6791  160.0240 H   0  0  0  0  0  0  0  0  0  0  0  0  # atno 6909 bound_to 6896
  145.9637  139.4083  143.0232 H   0  0  0  0  0  0  0  0  0  0  0  0  # atno 7974 bound_to 7965
  155.2164  140.3327  155.4321 H   0  0  0  0  0  0  0  0  0  0  0  0  # atno 8008 bound_to 7997
  156.2350  140.1868  156.7190 H   0  0  0  0  0  0  0  0  0  0  0  0  # atno 8009 bound_to 7997
  154.6044  140.0618  156.9397 H   0  0  0  0  0  0  0  0  0  0  0  0  # atno 8010 bound_to 7997
  139.5491  144.2157  152.1044 H   0  0  0  0  0  0  0  0  0  0  0  0  # atno 10167 bound_to 10162
  157.3104  130.7396  149.6721 H   0  0  0  0  0  0  0  0  0  0  0  0  # atno 10718 bound_to 10713
  152.9834  135.5672  154.5250 H   0  0  0  0  0  0  0  0  0  0  0  0  # atno 10763 bound_to 10752
  154.4731  135.2785  155.1629 H   0  0  0  0  0  0  0  0  0  0  0  0  # atno 10764 bound_to 10752
  154.3169  135.6277  153.5543 H   0  0  0  0  0  0  0  0  0  0  0  0  # atno 10765 bound_to 10752
  140.9968  134.0461  157.3588 H   0  0  0  0  0  0  0  0  0  0  0  0  # atno 11005 bound_to 11000
  145.8004  140.9773  143.1002 LP  0  0  0  0  0  0  0  0  0  0  0  0  # atno 17320 bound_to 7965
  144.6821  139.9794  143.7483 LP  0  0  0  0  0  0  0  0  0  0  0  0  # atno 17321 bound_to 7965
  140.1649  144.4991  150.6612 LP  0  0  0  0  0  0  0  0  0  0  0  0  # atno 17342 bound_to 10162
  140.6748  143.2300  151.5534 LP  0  0  0  0  0  0  0  0  0  0  0  0  # atno 17343 bound_to 10162
  155.9677  130.4253  150.4647 LP  0  0  0  0  0  0  0  0  0  0  0  0  # atno 17370 bound_to 10713
  157.2645  131.0574  151.2299 LP  0  0  0  0  0  0  0  0  0  0  0  0  # atno 17371 bound_to 10713
  139.9018  135.0167  156.7306 LP  0  0  0  0  0  0  0  0  0  0  0  0  # atno 17394 bound_to 11000
  140.6953  133.9353  155.7991 LP  0  0  0  0  0  0  0  0  0  0  0  0  # atno 17395 bound_to 11000

$$$$
