AV-unprocessed.smi:1240|AV-procd|sdf|5198|dock4
  -GOLD-   22720 4283D 1   1.00000     0.00000
 Structure written by MMmdl.
 47 49  0  0  0  0  0  0  0  0  1 V2000
  144.6101  136.8685  152.2769 O   0  0  0  0  0  0  0  0  0  0  0  0
  145.8181  136.6430  152.2072 C   0  0  0  0  0  0  0  0  0  0  0  0
  146.7543  137.5061  152.6261 N   0  0  0  0  0  0  0  0  0  0  0  0
  146.4827  138.7976  153.2499 C   0  0  0  0  0  0  0  0  0  0  0  0
  146.8687  138.8310  154.7567 C   0  0  1  0  0  0  0  0  0  0  0  0
  146.3047  137.6108  155.5464 C   0  0  1  0  0  0  0  0  0  0  0  0
  146.4586  137.6039  157.0694 C   0  0  0  0  0  0  0  0  0  0  0  0
  145.1032  137.1058  157.5759 C   0  0  0  0  0  0  0  0  0  0  0  0
  144.5093  136.4774  156.4501 O   0  0  0  0  0  0  0  0  0  0  0  0
  144.8251  137.2775  155.3230 C   0  0  0  0  0  0  0  0  0  0  0  0
  148.2841  139.1488  155.0289 N   0  0  0  0  0  0  0  0  0  0  0  0
  149.2604  138.2310  154.4458 C   0  0  0  0  0  0  0  0  0  0  0  0
  150.6989  138.5894  154.8597 C   0  0  0  0  0  0  0  0  0  0  0  0
  150.9804  139.9429  154.5201 O   0  0  0  0  0  0  0  0  0  0  0  0
  150.0794  140.8597  155.1320 C   0  0  0  0  0  0  0  0  0  0  0  0
  148.6425  140.5264  154.6992 C   0  0  0  0  0  0  0  0  0  0  0  0
  146.3754  135.5134  151.7380 N   0  0  0  0  0  0  0  0  0  0  0  0
  145.7312  134.3458  151.2469 C   0  0  0  0  0  0  0  0  0  0  0  0
  146.5450  133.2674  150.8423 C   0  0  0  0  0  0  0  0  0  0  0  0
  145.9296  132.1038  150.3396 C   0  0  0  0  0  0  0  0  0  0  0  0
  144.5928  131.9674  150.2134 N   0  0  0  0  0  0  0  0  0  0  0  0
  143.8163  133.0066  150.5863 C   0  0  0  0  0  0  0  0  0  0  0  0
  144.3292  134.2135  151.1021 C   0  0  0  0  0  0  0  0  0  0  0  0
  147.7241  137.2421  152.5320 H   0  0  0  0  0  0  0  0  0  0  0  0
  147.0353  139.5531  152.6925 H   0  0  0  0  0  0  0  0  0  0  0  0
  145.4278  139.0308  153.1054 H   0  0  0  0  0  0  0  0  0  0  0  0
  146.3122  139.6717  155.1737 H   0  0  0  0  0  0  0  0  0  0  0  0
  146.8491  136.7323  155.1961 H   0  0  0  0  0  0  0  0  0  0  0  0
  147.2526  136.9140  157.3577 H   0  0  0  0  0  0  0  0  0  0  0  0
  146.7077  138.5726  157.4991 H   0  0  0  0  0  0  0  0  0  0  0  0
  145.1951  136.4181  158.4168 H   0  0  0  0  0  0  0  0  0  0  0  0
  144.4784  137.9440  157.8879 H   0  0  0  0  0  0  0  0  0  0  0  0
  144.1882  138.1628  155.3336 H   0  0  0  0  0  0  0  0  0  0  0  0
  144.6517  136.7424  154.3892 H   0  0  0  0  0  0  0  0  0  0  0  0
  149.0652  137.2123  154.7721 H   0  0  0  0  0  0  0  0  0  0  0  0
  149.1858  138.2424  153.3583 H   0  0  0  0  0  0  0  0  0  0  0  0
  150.8369  138.4429  155.9321 H   0  0  0  0  0  0  0  0  0  0  0  0
  151.4118  137.9384  154.3540 H   0  0  0  0  0  0  0  0  0  0  0  0
  150.1788  140.8127  156.2175 H   0  0  0  0  0  0  0  0  0  0  0  0
  150.3414  141.8734  154.8292 H   0  0  0  0  0  0  0  0  0  0  0  0
  148.5593  140.6932  153.6257 H   0  0  0  0  0  0  0  0  0  0  0  0
  147.9505  141.2180  155.1811 H   0  0  0  0  0  0  0  0  0  0  0  0
  147.3797  135.4509  151.8160 H   0  0  0  0  0  0  0  0  0  0  0  0
  147.6210  133.3231  150.9202 H   0  0  0  0  0  0  0  0  0  0  0  0
  146.5284  131.2603  150.0290 H   0  0  0  0  0  0  0  0  0  0  0  0
  142.7512  132.8753  150.4641 H   0  0  0  0  0  0  0  0  0  0  0  0
  143.6455  135.0069  151.3617 H   0  0  0  0  0  0  0  0  0  0  0  0
  1  2  2  0  0  0  0
  2  3  1  0  0  0  0
  2 17  1  0  0  0  0
  3  4  1  0  0  0  0
  3 24  1  0  0  0  0
  4  5  1  0  0  0  0
  4 25  1  0  0  0  0
  4 26  1  0  0  0  0
  5  6  1  0  0  0  0
  5 11  1  0  0  0  0
  5 27  1  0  0  0  0
  6 10  1  0  0  0  0
  6  7  1  0  0  0  0
  6 28  1  0  0  0  0
  7  8  1  0  0  0  0
  7 29  1  0  0  0  0
  7 30  1  0  0  0  0
  8  9  1  0  0  0  0
  8 31  1  0  0  0  0
  8 32  1  0  0  0  0
  9 10  1  0  0  0  0
 10 33  1  0  0  0  0
 10 34  1  0  0  0  0
 11 16  1  0  0  0  0
 11 12  1  0  0  0  0
 12 13  1  0  0  0  0
 12 35  1  0  0  0  0
 12 36  1  0  0  0  0
 13 14  1  0  0  0  0
 13 37  1  0  0  0  0
 13 38  1  0  0  0  0
 14 15  1  0  0  0  0
 15 16  1  0  0  0  0
 15 39  1  0  0  0  0
 15 40  1  0  0  0  0
 16 41  1  0  0  0  0
 16 42  1  0  0  0  0
 17 18  1  0  0  0  0
 17 43  1  0  0  0  0
 18 23  1  0  0  0  0
 18 19  2  0  0  0  0
 19 20  1  0  0  0  0
 19 44  1  0  0  0  0
 20 21  2  0  0  0  0
 20 45  1  0  0  0  0
 21 22  1  0  0  0  0
 22 23  2  0  0  0  0
 22 46  1  0  0  0  0
 23 47  1  0  0  0  0
M  END
> <s_m_source_file>
AV-unprocessed.smi

> <i_m_source_file_index>
1240

> <i_lp_mmshare_version>
43012

> <i_f3d_flags>
0

> <s_epik_input>
W2NIXTFbY0hdbltjSF1bY0hdYzFbTkhdQyg9TylbTkhdW0NIMl1bQ0BIXShbQ0BASF0yW0NIMl1bQ0gyXU9bQ0gyXTIpTjNbQ0gyXVtDSDJdT1tDSDJdW0NIMl0z

> <s_epik_cmdline>
J2VwaWtfcHl0aG9uJywgJy1waCcsICc3LjAnLCAnLXRuJywgJzgnLCAnLW1hJywgJzIwMCcsICctbWV0YWxfYmluZGluZycsICctaW1hZScsICc8aW5maWxlLm1hZT4nLCAnLW9tYWUnLCAnPG91dGZpbGUubWFlPic=

> <r_epik_Ionization_Penalty>
0.238664

> <r_epik_Ionization_Penalty_Charging>
0

> <r_epik_Ionization_Penalty_Neutral>
0.238664

> <r_epik_State_Penalty>
0.217087

> <r_epik_Charging_Adjusted_Penalty>
0.217087

> <i_epik_Tot_Q>
0

> <i_epik_Tot_abs_Q>
0

> <r_epik_Metal_State_Penalty>
0.199194

> <b_epik_Metal_Only>
0

> <s_lp_Force_Field>
OPLS_2005

> <r_lp_Energy>
57.1619

> <b_lp_Chiralities_Consistent>
1

> <s_lp_Variant>
AV-unprocessed.smi:1240-4

> <Gold.Version>
5.8.1

> <Gold.Id.Protein>
6NUR|6NUR_protein|mol2

> <Gold.PLP.Fitness>
43.4417

> <Gold.PLP.PLP>
-29.0203

> <Gold.PLP.part.hbond>
-3.0000

> <Gold.PLP.part.metal>
0.0000

> <Gold.PLP.part.buried>
-4.9675

> <Gold.PLP.part.nonpolar>
-22.7222

> <Gold.PLP.part.repulsive>
0.8446

> <Gold.PLP.ligand.clash>
0.0000

> <Gold.PLP.ligand.torsion>
0.4478

> <Gold.PLP.Chemscore.Hbond>
2.9913

> <Gold.PLP.Chemscore.CHOScore>
2.0000

> <Gold.PLP.Chemscore.Metal>
0.0000

> <Gold.Chemscore.Hbonds>
donor molecule, donor type, donor heavy atom, donor atom, acceptor molecule, acceptor atom, score
      L1  H     3    24       P1  7948  1.00
      L1  H    17    43       P1  7948  1.00
      P1  H  7989  7998       L1    14  0.99
      L1  C    20    45       P1 10747  1.00
      L1  C    22    46       P1 10186  1.00

> <Gold.PLP.Chemscore.Internal.Correction>
0.3434

> <Gold.Rescore>
     Score         DG    S(hbond)    S(metal)    S(lipo)     H(rot)  DE(clash)    DE(int)     intcor
     17.61     -19.42       2.94        0.00      71.50       1.65       0.03       1.78       ----

> <Gold.Chemscore.Fitness>
17.6133

> <Gold.Chemscore.DG>
-19.4230

> <Gold.Chemscore.ZeroCoef>
-5.4800

> <Gold.Chemscore.Hbond>
2.9352

> <Gold.Chemscore.Metal>
0.0000

> <Gold.Chemscore.Lipo>
71.5006

> <Gold.Chemscore.Internal_Hbond>
0.0000

> <Gold.Chemscore.DEClash>
0.0306

> <Gold.Chemscore.DEInternal>
1.7792

> <Gold.Chemscore.Rot>
1.6508

> <Gold.Chemscore.Internal.Correction>
   9.000000E+99

> <Gold.Chemscore.Hbonds>
donor molecule, donor type, donor heavy atom, donor atom, acceptor molecule, acceptor atom, score
      L1  H     3    24       P1  7948  0.95
      L1  H    17    43       P1  7948  0.95
      P1  H  7989  7998       L1    14  0.24

> <Gold.Chemscore.Hbond.Weighted>
-9.8036

> <Gold.Chemscore.Metal.Weighted>
-0.0000

> <Gold.Chemscore.Lipo.Weighted>
-8.3656

> <Gold.Chemscore.Internal_Hbond.Weighted>
0.0000

> <Gold.Chemscore.DEClash.Weighted>
0.0306

> <Gold.Chemscore.DEInternal.Weighted>
1.7792

> <Gold.Chemscore.Rot.Weighted>
4.2262

> <Gold.Chemscore.Internal.Correction.Weighted>
   9.000000E+99

> <Gold.Protein.RotatedTorsions>
[ 6907 6896 6895 6894 ] final  -46.56 input  -60.11 | X-H torsion
[ 7974 7965 7964 7962 ] final   -5.44 input  175.53 | X-H torsion
[ 8008 7997 7996 7995 ] final   25.17 input   59.86 | X-H torsion
[ 10167 10162 10161 10158 ] final  -56.63 input  -65.29 | X-H torsion
[ 10718 10713 10712 10709 ] final  131.14 input   66.30 | X-H torsion
[ 10763 10752 10751 10750 ] final -175.24 input  -60.55 | X-H torsion
[ 11005 11000 10999 10996 ] final  -12.05 input  -57.11 | X-H torsion

> <Gold.Protein.ActiveResidues>
 VAL166  LYS551  ARG553  GLY616  TRP617  ASP618  TYR619  PRO620  LYS621  CYS622 
 ASP623  PHE694  ASN695  SER759  ASP760  ASP761  ALA762  ILE779  LEU786  VAL792 
 PHE793  MET794  SER795  GLU796  ALA797  LYS798  CYS799  TRP800  GLU811  SER814 

> <Gold.Protein.RotatedAtoms>
  150.9099  134.8516  159.7418 H   0  0  0  0  0  0  0  0  0  0  0  0  # atno 6907 bound_to 6896
  152.4939  134.4374  159.9542 H   0  0  0  0  0  0  0  0  0  0  0  0  # atno 6908 bound_to 6896
  151.4418  133.3602  159.2818 H   0  0  0  0  0  0  0  0  0  0  0  0  # atno 6909 bound_to 6896
  146.2353  140.2021  142.8334 H   0  0  0  0  0  0  0  0  0  0  0  0  # atno 7974 bound_to 7965
  155.0075  140.3132  155.4843 H   0  0  0  0  0  0  0  0  0  0  0  0  # atno 8008 bound_to 7997
  156.2915  140.2220  156.5129 H   0  0  0  0  0  0  0  0  0  0  0  0  # atno 8009 bound_to 7997
  154.7564  140.0462  157.0924 H   0  0  0  0  0  0  0  0  0  0  0  0  # atno 8010 bound_to 7997
  140.6305  143.2457  151.5252 H   0  0  0  0  0  0  0  0  0  0  0  0  # atno 10167 bound_to 10162
  157.4996  131.1093  150.9445 H   0  0  0  0  0  0  0  0  0  0  0  0  # atno 10718 bound_to 10713
  154.5867  135.2841  155.0678 H   0  0  0  0  0  0  0  0  0  0  0  0  # atno 10763 bound_to 10752
  154.1993  135.6427  153.5086 H   0  0  0  0  0  0  0  0  0  0  0  0  # atno 10764 bound_to 10752
  153.0107  135.5465  154.6539 H   0  0  0  0  0  0  0  0  0  0  0  0  # atno 10765 bound_to 10752
  140.7617  133.8510  155.9130 H   0  0  0  0  0  0  0  0  0  0  0  0  # atno 11005 bound_to 11000
  144.9774  140.8427  143.5418 LP  0  0  0  0  0  0  0  0  0  0  0  0  # atno 17320 bound_to 7965
  145.2010  139.2252  143.5193 LP  0  0  0  0  0  0  0  0  0  0  0  0  # atno 17321 bound_to 7965
  139.5520  144.2371  152.1547 LP  0  0  0  0  0  0  0  0  0  0  0  0  # atno 17342 bound_to 10162
  140.1613  144.5023  150.6631 LP  0  0  0  0  0  0  0  0  0  0  0  0  # atno 17343 bound_to 10162
  157.0120  130.5640  149.5322 LP  0  0  0  0  0  0  0  0  0  0  0  0  # atno 17370 bound_to 10713
  156.0221  130.5316  150.8305 LP  0  0  0  0  0  0  0  0  0  0  0  0  # atno 17371 bound_to 10713
  140.9657  134.1597  157.4618 LP  0  0  0  0  0  0  0  0  0  0  0  0  # atno 17394 bound_to 11000
  139.8770  134.9961  156.5776 LP  0  0  0  0  0  0  0  0  0  0  0  0  # atno 17395 bound_to 11000

$$$$
