AV-unprocessed.smi:2036|AV-procd|sdf|8274|dock2
  -GOLD-   2272010543D 1   1.00000     0.00000
 Structure written by MMmdl.
 41 42  0  0  0  0  0  0  0  0  1 V2000
  145.5766  136.6943  151.3978 C   0  0  0  0  0  0  0  0  0  0  0  0
  145.6723  137.6149  152.4701 O   0  0  0  0  0  0  0  0  0  0  0  0
  146.4062  138.7790  152.1233 C   0  0  0  0  0  0  0  0  0  0  0  0
  146.9889  139.4074  153.3905 C   0  0  0  0  0  0  0  0  0  0  0  0
  146.2346  139.7935  154.2829 O   0  0  0  0  0  0  0  0  0  0  0  0
  148.3314  139.5002  153.4255 N   0  0  0  0  0  0  0  0  0  0  0  0
  149.1681  140.0230  154.4498 C   0  0  0  0  0  0  0  0  0  0  0  0
  150.4196  139.4789  154.8226 C   0  0  0  0  0  0  0  0  0  0  0  0
  151.1592  140.1059  155.8438 C   0  0  0  0  0  0  0  0  0  0  0  0
  150.6398  141.2662  156.4642 C   0  0  0  0  0  0  0  0  0  0  0  0
  151.3708  141.9093  157.4858 N   0  0  0  0  0  0  0  0  0  0  0  0
  150.8149  143.1769  157.9514 C   0  0  0  0  0  0  0  0  0  0  0  0
  151.8337  143.9455  158.8157 C   0  0  2  0  0  0  0  0  0  0  0  0
  152.9535  144.6108  157.9959 C   0  0  0  0  0  0  0  0  0  0  0  0
  152.3483  143.0989  159.8461 O   0  0  0  0  0  0  0  0  0  0  0  0
  152.9422  141.8872  159.3822 C   0  0  1  0  0  0  0  0  0  0  0  0
  153.4362  141.1032  160.6024 C   0  0  0  0  0  0  0  0  0  0  0  0
  151.9111  141.0880  158.5656 C   0  0  0  0  0  0  0  0  0  0  0  0
  149.4426  141.7880  156.1012 N   0  0  0  0  0  0  0  0  0  0  0  0
  148.7376  141.1846  155.1216 C   0  0  0  0  0  0  0  0  0  0  0  0
  145.0038  135.8224  151.7137 H   0  0  0  0  0  0  0  0  0  0  0  0
  146.5635  136.3526  151.0827 H   0  0  0  0  0  0  0  0  0  0  0  0
  145.0690  137.1383  150.5406 H   0  0  0  0  0  0  0  0  0  0  0  0
  147.2236  138.5269  151.4463 H   0  0  0  0  0  0  0  0  0  0  0  0
  145.7562  139.4935  151.6146 H   0  0  0  0  0  0  0  0  0  0  0  0
  148.8120  139.2019  152.5891 H   0  0  0  0  0  0  0  0  0  0  0  0
  150.8346  138.6057  154.3453 H   0  0  0  0  0  0  0  0  0  0  0  0
  152.1080  139.6867  156.1443 H   0  0  0  0  0  0  0  0  0  0  0  0
  150.4906  143.8095  157.1260 H   0  0  0  0  0  0  0  0  0  0  0  0
  149.9250  142.9588  158.5435 H   0  0  0  0  0  0  0  0  0  0  0  0
  151.2977  144.7481  159.3230 H   0  0  0  0  0  0  0  0  0  0  0  0
  152.5414  145.3533  157.3122 H   0  0  0  0  0  0  0  0  0  0  0  0
  153.5092  143.8924  157.3939 H   0  0  0  0  0  0  0  0  0  0  0  0
  153.6620  145.1211  158.6485 H   0  0  0  0  0  0  0  0  0  0  0  0
  153.8059  142.1164  158.7577 H   0  0  0  0  0  0  0  0  0  0  0  0
  153.9167  140.1719  160.3017 H   0  0  0  0  0  0  0  0  0  0  0  0
  152.6124  140.8543  161.2719 H   0  0  0  0  0  0  0  0  0  0  0  0
  154.1635  141.6843  161.1700 H   0  0  0  0  0  0  0  0  0  0  0  0
  151.0941  140.7581  159.2089 H   0  0  0  0  0  0  0  0  0  0  0  0
  152.3869  140.1950  158.1580 H   0  0  0  0  0  0  0  0  0  0  0  0
  147.7944  141.6466  154.8682 H   0  0  0  0  0  0  0  0  0  0  0  0
  1  2  1  0  0  0  0
  1 21  1  0  0  0  0
  1 22  1  0  0  0  0
  1 23  1  0  0  0  0
  2  3  1  0  0  0  0
  3  4  1  0  0  0  0
  3 24  1  0  0  0  0
  3 25  1  0  0  0  0
  4  5  2  0  0  0  0
  4  6  1  0  0  0  0
  6  7  1  0  0  0  0
  6 26  1  0  0  0  0
  7 20  1  0  0  0  0
  7  8  2  0  0  0  0
  8  9  1  0  0  0  0
  8 27  1  0  0  0  0
  9 10  2  0  0  0  0
  9 28  1  0  0  0  0
 10 11  1  0  0  0  0
 10 19  1  0  0  0  0
 11 18  1  0  0  0  0
 11 12  1  0  0  0  0
 12 13  1  0  0  0  0
 12 29  1  0  0  0  0
 12 30  1  0  0  0  0
 13 14  1  0  0  0  0
 13 15  1  0  0  0  0
 13 31  1  0  0  0  0
 14 32  1  0  0  0  0
 14 33  1  0  0  0  0
 14 34  1  0  0  0  0
 15 16  1  0  0  0  0
 16 17  1  0  0  0  0
 16 18  1  0  0  0  0
 16 35  1  0  0  0  0
 17 36  1  0  0  0  0
 17 37  1  0  0  0  0
 17 38  1  0  0  0  0
 18 39  1  0  0  0  0
 18 40  1  0  0  0  0
 19 20  2  0  0  0  0
 20 41  1  0  0  0  0
M  END
> <s_m_source_file>
AV-unprocessed.smi

> <i_m_source_file_index>
2036

> <i_lp_mmshare_version>
43012

> <i_f3d_flags>
0

> <s_epik_input>
W0NIM11PW0NIMl1DKD1PKVtOSF1jMVtjSF1bY0hdYyhuW2NIXTEpTjJbQ0gyXVtDQEBIXShbQ0gzXSlPW0NAQEhdKFtDSDNdKVtDSDJdMg==

> <s_epik_cmdline>
J2VwaWtfcHl0aG9uJywgJy1waCcsICc3LjAnLCAnLXRuJywgJzgnLCAnLW1hJywgJzIwMCcsICctbWV0YWxfYmluZGluZycsICctaW1hZScsICc8aW5maWxlLm1hZT4nLCAnLW9tYWUnLCAnPG91dGZpbGUubWFlPic=

> <r_lp_tautomer_probability>
1

> <r_epik_Ionization_Penalty>
0.000662619

> <r_epik_Ionization_Penalty_Charging>
0

> <r_epik_Ionization_Penalty_Neutral>
0.000662619

> <r_epik_State_Penalty>
0.000419321

> <r_epik_Charging_Adjusted_Penalty>
0.000419321

> <i_epik_Tot_Q>
0

> <i_epik_Tot_abs_Q>
0

> <r_epik_Metal_State_Penalty>
-0

> <b_epik_Metal_Only>
0

> <s_lp_Force_Field>
OPLS_2005

> <r_lp_Energy>
27.1062

> <b_lp_Chiralities_Consistent>
1

> <s_lp_Variant>
AV-unprocessed.smi:2036-2

> <Gold.Version>
5.8.1

> <Gold.Id.Protein>
6NUR|6NUR_protein|mol2

> <Gold.PLP.Fitness>
44.2621

> <Gold.PLP.PLP>
-42.6771

> <Gold.PLP.part.hbond>
-0.9513

> <Gold.PLP.part.metal>
0.0000

> <Gold.PLP.part.buried>
-3.2067

> <Gold.PLP.part.nonpolar>
-40.0111

> <Gold.PLP.part.repulsive>
0.9485

> <Gold.PLP.ligand.clash>
0.0000

> <Gold.PLP.ligand.torsion>
0.5950

> <Gold.PLP.Chemscore.Hbond>
0.8160

> <Gold.PLP.Chemscore.CHOScore>
0.0000

> <Gold.PLP.Chemscore.Metal>
0.0000

> <Gold.Chemscore.Hbonds>
donor molecule, donor type, donor heavy atom, donor atom, acceptor molecule, acceptor atom, score
      L1  H     6    26       P1  7957  0.74

> <Gold.PLP.Chemscore.Internal.Correction>
0.3270

> <Gold.Rescore>
     Score         DG    S(hbond)    S(metal)    S(lipo)     H(rot)  DE(clash)    DE(int)     intcor
     15.41     -17.69       0.87        0.00     110.46       1.41       0.57       1.71       ----

> <Gold.Chemscore.Fitness>
15.4129

> <Gold.Chemscore.DG>
-17.6892

> <Gold.Chemscore.ZeroCoef>
-5.4800

> <Gold.Chemscore.Hbond>
0.8650

> <Gold.Chemscore.Metal>
0.0000

> <Gold.Chemscore.Lipo>
110.4574

> <Gold.Chemscore.Internal_Hbond>
0.0000

> <Gold.Chemscore.DEClash>
0.5662

> <Gold.Chemscore.DEInternal>
1.7101

> <Gold.Chemscore.Rot>
1.4077

> <Gold.Chemscore.Internal.Correction>
   9.000000E+99

> <Gold.Chemscore.Hbonds>
donor molecule, donor type, donor heavy atom, donor atom, acceptor molecule, acceptor atom, score
      L1  H     6    26       P1  7957  0.74

> <Gold.Chemscore.Hbond.Weighted>
-2.8893

> <Gold.Chemscore.Metal.Weighted>
-0.0000

> <Gold.Chemscore.Lipo.Weighted>
-12.9235

> <Gold.Chemscore.Internal_Hbond.Weighted>
0.0000

> <Gold.Chemscore.DEClash.Weighted>
0.5662

> <Gold.Chemscore.DEInternal.Weighted>
1.7101

> <Gold.Chemscore.Rot.Weighted>
3.6036

> <Gold.Chemscore.Internal.Correction.Weighted>
   9.000000E+99

> <Gold.Protein.RotatedTorsions>
[ 6907 6896 6895 6894 ] final  155.92 input  -60.11 | X-H torsion
[ 7974 7965 7964 7962 ] final  -50.71 input  175.53 | X-H torsion
[ 8008 7997 7996 7995 ] final   32.32 input   59.86 | X-H torsion
[ 10167 10162 10161 10158 ] final  154.76 input  -65.29 | X-H torsion
[ 10718 10713 10712 10709 ] final -161.53 input   66.30 | X-H torsion
[ 10763 10752 10751 10750 ] final  -81.57 input  -60.55 | X-H torsion
[ 11005 11000 10999 10996 ] final  175.39 input  -57.11 | X-H torsion

> <Gold.Protein.ActiveResidues>
 VAL166  LYS551  ARG553  GLY616  TRP617  ASP618  TYR619  PRO620  LYS621  CYS622 
 ASP623  PHE694  ASN695  SER759  ASP760  ASP761  ALA762  ILE779  LEU786  VAL792 
 PHE793  MET794  SER795  GLU796  ALA797  LYS798  CYS799  TRP800  GLU811  SER814 

> <Gold.Protein.RotatedAtoms>
  152.0372  133.3962  159.4321 H   0  0  0  0  0  0  0  0  0  0  0  0  # atno 6907 bound_to 6896
  150.6878  134.3455  159.4895 H   0  0  0  0  0  0  0  0  0  0  0  0  # atno 6908 bound_to 6896
  152.1248  134.9178  160.0612 H   0  0  0  0  0  0  0  0  0  0  0  0  # atno 6909 bound_to 6896
  145.9269  140.7784  142.9619 H   0  0  0  0  0  0  0  0  0  0  0  0  # atno 7974 bound_to 7965
  155.1206  140.3248  155.4498 H   0  0  0  0  0  0  0  0  0  0  0  0  # atno 8008 bound_to 7997
  156.2664  140.2028  156.6276 H   0  0  0  0  0  0  0  0  0  0  0  0  # atno 8009 bound_to 7997
  154.6687  140.0539  157.0128 H   0  0  0  0  0  0  0  0  0  0  0  0  # atno 8010 bound_to 7997
  139.4822  144.5159  151.7953 H   0  0  0  0  0  0  0  0  0  0  0  0  # atno 10167 bound_to 10162
  156.5975  130.8796  151.2905 H   0  0  0  0  0  0  0  0  0  0  0  0  # atno 10718 bound_to 10713
  154.5652  135.5621  153.7044 H   0  0  0  0  0  0  0  0  0  0  0  0  # atno 10763 bound_to 10752
  153.0030  135.6283  154.2190 H   0  0  0  0  0  0  0  0  0  0  0  0  # atno 10764 bound_to 10752
  154.2129  135.2873  155.2932 H   0  0  0  0  0  0  0  0  0  0  0  0  # atno 10765 bound_to 10752
  140.3617  134.7107  157.4335 H   0  0  0  0  0  0  0  0  0  0  0  0  # atno 11005 bound_to 11000
  144.6760  140.2065  143.7381 LP  0  0  0  0  0  0  0  0  0  0  0  0  # atno 17320 bound_to 7965
  145.8477  139.2160  143.1790 LP  0  0  0  0  0  0  0  0  0  0  0  0  # atno 17321 bound_to 7965
  140.4667  144.1645  150.5912 LP  0  0  0  0  0  0  0  0  0  0  0  0  # atno 17342 bound_to 10162
  140.4426  143.2520  151.9452 LP  0  0  0  0  0  0  0  0  0  0  0  0  # atno 17343 bound_to 10162
  157.7288  130.9662  150.1758 LP  0  0  0  0  0  0  0  0  0  0  0  0  # atno 17370 bound_to 10713
  156.2497  130.3699  149.8246 LP  0  0  0  0  0  0  0  0  0  0  0  0  # atno 17371 bound_to 10713
  140.0621  134.5981  155.8737 LP  0  0  0  0  0  0  0  0  0  0  0  0  # atno 17394 bound_to 11000
  141.1982  133.6600  156.5779 LP  0  0  0  0  0  0  0  0  0  0  0  0  # atno 17395 bound_to 11000

$$$$
