AV-unprocessed.smi:2059|AV-procd|sdf|8351|dock3
  -GOLD-   2272011 23D 1   1.00000     0.00000
 Structure written by MMmdl.
 29 30  0  0  0  0  0  0  0  0  2 V2000
  145.2309  134.7472  162.6464 C   0  0  0  0  0  0  0  0  0  0  0  0
  146.3151  135.3659  161.8320 C   0  0  0  0  0  0  0  0  0  0  0  0
  147.3181  134.8381  161.0697 C   0  0  0  0  0  0  0  0  0  0  0  0
  147.9871  135.9885  160.5704 C   0  0  0  0  0  0  0  0  0  0  0  0
  149.0626  135.9841  159.7632 N   0  5  0  0  0  0  0  0  0  0  0  0
  149.3632  137.0154  158.9298 C   0  0  0  0  0  0  0  0  0  0  0  0
  148.9683  138.1665  159.1110 O   0  0  0  0  0  0  0  0  0  0  0  0
  150.1303  136.7526  157.8540 N   0  0  0  0  0  0  0  0  0  0  0  0
  150.5689  137.7179  156.8514 C   0  0  1  0  0  0  0  0  0  0  0  0
  151.2355  137.0053  155.6604 C   0  0  0  0  0  0  0  0  0  0  0  0
  151.3511  137.9967  154.4966 C   0  0  0  0  0  0  0  0  0  0  0  0
  149.9151  139.1257  154.6482 S   0  0  0  0  0  0  0  0  0  0  0  0
  150.4050  140.5098  154.7360 O   0  0  0  0  0  0  0  0  0  0  0  0
  148.8870  138.7484  153.6664 O   0  0  0  0  0  0  0  0  0  0  0  0
  149.3968  138.5520  156.3090 C   0  0  0  0  0  0  0  0  0  0  0  0
  147.4457  137.1155  161.0018 N   0  0  0  0  0  0  0  0  0  0  0  0
  146.3691  136.7249  161.8070 O   0  0  0  0  0  0  0  0  0  0  0  0
  145.6428  134.2695  163.5352 H   0  0  0  0  0  0  0  0  0  0  0  0
  144.6997  133.9896  162.0703 H   0  0  0  0  0  0  0  0  0  0  0  0
  144.5061  135.4947  162.9695 H   0  0  0  0  0  0  0  0  0  0  0  0
  147.5389  133.7958  160.8950 H   0  0  0  0  0  0  0  0  0  0  0  0
  150.4344  135.7982  157.7274 H   0  0  0  0  0  0  0  0  0  0  0  0
  151.3056  138.3920  157.2924 H   0  0  0  0  0  0  0  0  0  0  0  0
  152.2063  136.5873  155.9290 H   0  0  0  0  0  0  0  0  0  0  0  0
  150.6070  136.1713  155.3448 H   0  0  0  0  0  0  0  0  0  0  0  0
  152.2582  138.5942  154.5883 H   0  0  0  0  0  0  0  0  0  0  0  0
  151.3499  137.5107  153.5209 H   0  0  0  0  0  0  0  0  0  0  0  0
  148.5015  137.9415  156.1873 H   0  0  0  0  0  0  0  0  0  0  0  0
  149.1529  139.4041  156.9436 H   0  0  0  0  0  0  0  0  0  0  0  0
  1  2  1  0  0  0  0
  1 18  1  0  0  0  0
  1 19  1  0  0  0  0
  1 20  1  0  0  0  0
  2 17  1  0  0  0  0
  2  3  2  0  0  0  0
  3  4  1  0  0  0  0
  3 21  1  0  0  0  0
  4  5  1  0  0  0  0
  4 16  2  0  0  0  0
  5  6  1  0  0  0  0
  6  7  2  0  0  0  0
  6  8  1  0  0  0  0
  8  9  1  0  0  0  0
  8 22  1  0  0  0  0
  9 15  1  0  0  0  0
  9 10  1  0  0  0  0
  9 23  1  0  0  0  0
 10 11  1  0  0  0  0
 10 24  1  0  0  0  0
 10 25  1  0  0  0  0
 11 12  1  0  0  0  0
 11 26  1  0  0  0  0
 11 27  1  0  0  0  0
 12 13  2  0  0  0  0
 12 14  2  0  0  0  0
 12 15  1  0  0  0  0
 15 28  1  0  0  0  0
 15 29  1  0  0  0  0
 16 17  1  0  0  0  0
M  CHG  1   5  -1
M  END
> <s_m_source_file>
AV-unprocessed.smi

> <i_m_source_file_index>
2059

> <i_lp_mmshare_version>
43012

> <i_f3d_flags>
0

> <s_epik_input>
W0NIM11jMVtjSF1jKG5vMSlbTkhdQyg9TylbTkhdW0NAQEhdKFtDSDJdMilbQ0gyXVtDSDJdUzIoPU8pPU8=

> <s_epik_cmdline>
J2VwaWtfcHl0aG9uJywgJy1waCcsICc3LjAnLCAnLXRuJywgJzgnLCAnLW1hJywgJzIwMCcsICctbWV0YWxfYmluZGluZycsICctaW1hZScsICc8aW5maWxlLm1hZT4nLCAnLW9tYWUnLCAnPG91dGZpbGUubWFlPic=

> <r_lp_tautomer_probability>
1

> <r_epik_Ionization_Penalty>
6.15571

> <r_epik_Ionization_Penalty_Charging>
6.1556

> <r_epik_Ionization_Penalty_Neutral>
0.000110918

> <r_epik_State_Penalty>
6.15558

> <r_epik_Charging_Adjusted_Penalty>
12.3112

> <i_epik_Tot_Q>
-1

> <i_epik_Tot_abs_Q>
1

> <r_epik_Metal_State_Penalty>
2.1059

> <b_epik_Metal_Only>
1

> <s_lp_Force_Field>
OPLS_2005

> <r_lp_Energy>
-1.66836

> <b_lp_Chiralities_Consistent>
1

> <s_lp_Variant>
AV-unprocessed.smi:2059-4

> <Gold.Version>
5.8.1

> <Gold.Id.Protein>
6NUR|6NUR_protein|mol2

> <Gold.PLP.Fitness>
38.3768

> <Gold.PLP.PLP>
-24.5565

> <Gold.PLP.part.hbond>
-5.9295

> <Gold.PLP.part.metal>
0.0000

> <Gold.PLP.part.buried>
-4.8230

> <Gold.PLP.part.nonpolar>
-16.1252

> <Gold.PLP.part.repulsive>
1.3286

> <Gold.PLP.ligand.clash>
0.0000

> <Gold.PLP.ligand.torsion>
0.3418

> <Gold.PLP.Chemscore.Hbond>
4.8336

> <Gold.PLP.Chemscore.CHOScore>
0.0000

> <Gold.PLP.Chemscore.Metal>
0.0000

> <Gold.Chemscore.Hbonds>
donor molecule, donor type, donor heavy atom, donor atom, acceptor molecule, acceptor atom, score
      P1  H  6896  6908       L1     5  1.62
      P1  H  6931  6943       L1    16  0.63
      P1  H  6934  6947       L1    16  1.00
      P1  H  7989  7998       L1    13  0.99

> <Gold.PLP.Chemscore.Internal.Correction>
0.0031

> <Gold.Rescore>
     Score         DG    S(hbond)    S(metal)    S(lipo)     H(rot)  DE(clash)    DE(int)     intcor
     12.99     -16.30       2.52        0.00      42.31       1.00       0.07       3.23       ----

> <Gold.Chemscore.Fitness>
12.9906

> <Gold.Chemscore.DG>
-16.2955

> <Gold.Chemscore.ZeroCoef>
-5.4800

> <Gold.Chemscore.Hbond>
2.5225

> <Gold.Chemscore.Metal>
0.0000

> <Gold.Chemscore.Lipo>
42.3099

> <Gold.Chemscore.Internal_Hbond>
0.0000

> <Gold.Chemscore.DEClash>
0.0711

> <Gold.Chemscore.DEInternal>
3.2339

> <Gold.Chemscore.Rot>
1.0000

> <Gold.Chemscore.Internal.Correction>
   9.000000E+99

> <Gold.Chemscore.Hbonds>
donor molecule, donor type, donor heavy atom, donor atom, acceptor molecule, acceptor atom, score
      P1  H  6896  6908       L1     5  0.40
      P1  H  6931  6943       L1    16  0.35
      P1  H  6934  6947       L1    16  0.29
      P1  H  7989  7998       L1    13  0.80

> <Gold.Chemscore.Hbond.Weighted>
-8.4253

> <Gold.Chemscore.Metal.Weighted>
-0.0000

> <Gold.Chemscore.Lipo.Weighted>
-4.9503

> <Gold.Chemscore.Internal_Hbond.Weighted>
0.0000

> <Gold.Chemscore.DEClash.Weighted>
0.0711

> <Gold.Chemscore.DEInternal.Weighted>
3.2339

> <Gold.Chemscore.Rot.Weighted>
2.5600

> <Gold.Chemscore.Internal.Correction.Weighted>
   9.000000E+99

> <Gold.Protein.RotatedTorsions>
[ 6907 6896 6895 6894 ] final  175.95 input  -60.11 | X-H torsion
[ 7974 7965 7964 7962 ] final   65.63 input  175.53 | X-H torsion
[ 8008 7997 7996 7995 ] final -107.50 input   59.86 | X-H torsion
[ 10167 10162 10161 10158 ] final   40.51 input  -65.29 | X-H torsion
[ 10718 10713 10712 10709 ] final -176.37 input   66.30 | X-H torsion
[ 10763 10752 10751 10750 ] final  -67.33 input  -60.55 | X-H torsion
[ 11005 11000 10999 10996 ] final  -80.86 input  -57.11 | X-H torsion

> <Gold.Protein.ActiveResidues>
 VAL166  LYS551  ARG553  GLY616  TRP617  ASP618  TYR619  PRO620  LYS621  CYS622 
 ASP623  PHE694  ASN695  SER759  ASP760  ASP761  ALA762  ILE779  LEU786  VAL792 
 PHE793  MET794  SER795  GLU796  ALA797  LYS798  CYS799  TRP800  GLU811  SER814 

> <Gold.Protein.RotatedAtoms>
  151.7280  133.3316  159.3332 H   0  0  0  0  0  0  0  0  0  0  0  0  # atno 6907 bound_to 6896
  150.7624  134.6388  159.6235 H   0  0  0  0  0  0  0  0  0  0  0  0  # atno 6908 bound_to 6896
  152.3610  134.6875  160.0259 H   0  0  0  0  0  0  0  0  0  0  0  0  # atno 6909 bound_to 6896
  145.8362  139.3168  143.0958 H   0  0  0  0  0  0  0  0  0  0  0  0  # atno 7974 bound_to 7965
  154.9302  140.0405  157.2044 H   0  0  0  0  0  0  0  0  0  0  0  0  # atno 8008 bound_to 7997
  154.8168  140.2877  155.5793 H   0  0  0  0  0  0  0  0  0  0  0  0  # atno 8009 bound_to 7997
  156.2976  140.2526  156.3067 H   0  0  0  0  0  0  0  0  0  0  0  0  # atno 8010 bound_to 7997
  140.3734  144.2075  150.6132 H   0  0  0  0  0  0  0  0  0  0  0  0  # atno 10167 bound_to 10162
  156.8137  130.9595  151.3115 H   0  0  0  0  0  0  0  0  0  0  0  0  # atno 10718 bound_to 10713
  154.3729  135.6091  153.5750 H   0  0  0  0  0  0  0  0  0  0  0  0  # atno 10763 bound_to 10752
  152.9790  135.5842  154.4500 H   0  0  0  0  0  0  0  0  0  0  0  0  # atno 10764 bound_to 10752
  154.4257  135.2847  155.1923 H   0  0  0  0  0  0  0  0  0  0  0  0  # atno 10765 bound_to 10752
  141.1667  133.7170  156.8336 H   0  0  0  0  0  0  0  0  0  0  0  0  # atno 11005 bound_to 11000
  145.9516  140.8904  143.0256 LP  0  0  0  0  0  0  0  0  0  0  0  0  # atno 17320 bound_to 7965
  144.6736  140.1688  143.7416 LP  0  0  0  0  0  0  0  0  0  0  0  0  # atno 17321 bound_to 7965
  140.5010  143.2318  151.8678 LP  0  0  0  0  0  0  0  0  0  0  0  0  # atno 17342 bound_to 10162
  139.4801  144.5059  151.8998 LP  0  0  0  0  0  0  0  0  0  0  0  0  # atno 17343 bound_to 10162
  157.6493  130.8870  149.9600 LP  0  0  0  0  0  0  0  0  0  0  0  0  # atno 17370 bound_to 10713
  156.1029  130.3654  150.0185 LP  0  0  0  0  0  0  0  0  0  0  0  0  # atno 17371 bound_to 10713
  140.2033  134.8881  157.3193 LP  0  0  0  0  0  0  0  0  0  0  0  0  # atno 17394 bound_to 11000
  140.2164  134.4076  155.7587 LP  0  0  0  0  0  0  0  0  0  0  0  0  # atno 17395 bound_to 11000

$$$$
