AV-unprocessed.smi:3154|AV-procd|sdf|12024|dock9
  -GOLD-   2272017443D 1   1.00000     0.00000
 Structure written by MMmdl.
 34 35  0  0  0  0  0  0  0  0  1 V2000
  151.2265  138.6415  154.3488 C   0  0  0  0  0  0  0  0  0  0  0  0
  150.2968  139.8301  154.6493 C   0  0  1  0  0  0  0  0  0  0  0  0
  148.8035  139.4241  154.6967 C   0  0  0  0  0  0  0  0  0  0  0  0
  147.9049  140.5648  154.6891 N   0  0  0  0  0  0  0  0  0  0  0  0
  147.7723  141.5463  153.7295 C   0  0  0  0  0  0  0  0  0  0  0  0
  146.7959  142.4012  154.1545 C   0  0  0  0  0  0  0  0  0  0  0  0
  146.3802  141.8477  155.3976 C   0  0  0  0  0  0  0  0  0  0  0  0
  147.0422  140.7462  155.7127 N   0  0  0  0  0  0  0  0  0  0  0  0
  150.7246  140.3998  155.9234 N   0  0  0  0  0  0  0  0  0  0  0  0
  149.8920  141.5321  156.3496 C   0  0  0  0  0  0  0  0  0  0  0  0
  150.3760  142.1003  157.6815 C   0  0  0  0  0  0  0  0  0  0  0  0
  150.5546  141.3515  158.6418 O   0  0  0  0  0  0  0  0  0  0  0  0
  150.5853  143.4247  157.7209 N   0  0  0  0  0  0  0  0  0  0  0  0
  151.0398  144.1595  158.8564 C   0  0  0  0  0  0  0  0  0  0  0  0
  152.3360  144.9288  158.7227 C   0  0  0  0  0  0  0  0  0  0  0  0
  152.2942  143.6739  159.5504 C   0  0  0  0  0  0  0  0  0  0  0  0
  151.0266  138.2165  153.3650 H   0  0  0  0  0  0  0  0  0  0  0  0
  151.1054  137.8458  155.0849 H   0  0  0  0  0  0  0  0  0  0  0  0
  152.2734  138.9470  154.3571 H   0  0  0  0  0  0  0  0  0  0  0  0
  150.4489  140.5702  153.8619 H   0  0  0  0  0  0  0  0  0  0  0  0
  148.5594  138.7929  153.8410 H   0  0  0  0  0  0  0  0  0  0  0  0
  148.5807  138.8383  155.5882 H   0  0  0  0  0  0  0  0  0  0  0  0
  148.3786  141.5563  152.8358 H   0  0  0  0  0  0  0  0  0  0  0  0
  146.4323  143.2861  153.6531 H   0  0  0  0  0  0  0  0  0  0  0  0
  145.6211  142.2100  156.0752 H   0  0  0  0  0  0  0  0  0  0  0  0
  151.6896  140.6835  155.8341 H   0  0  0  0  0  0  0  0  0  0  0  0
  149.9135  142.3184  155.5932 H   0  0  0  0  0  0  0  0  0  0  0  0
  148.8537  141.2224  156.4647 H   0  0  0  0  0  0  0  0  0  0  0  0
  150.4088  143.9535  156.8790 H   0  0  0  0  0  0  0  0  0  0  0  0
  150.2825  144.6081  159.4978 H   0  0  0  0  0  0  0  0  0  0  0  0
  152.8593  144.8843  157.7693 H   0  0  0  0  0  0  0  0  0  0  0  0
  152.4125  145.8768  159.2512 H   0  0  0  0  0  0  0  0  0  0  0  0
  152.3433  143.7836  160.6319 H   0  0  0  0  0  0  0  0  0  0  0  0
  152.7894  142.7915  159.1495 H   0  0  0  0  0  0  0  0  0  0  0  0
  1  2  1  0  0  0  0
  1 17  1  0  0  0  0
  1 18  1  0  0  0  0
  1 19  1  0  0  0  0
  2  3  1  0  0  0  0
  2  9  1  0  0  0  0
  2 20  1  0  0  0  0
  3  4  1  0  0  0  0
  3 21  1  0  0  0  0
  3 22  1  0  0  0  0
  4  8  1  0  0  0  0
  4  5  1  0  0  0  0
  5  6  2  0  0  0  0
  5 23  1  0  0  0  0
  6  7  1  0  0  0  0
  6 24  1  0  0  0  0
  7  8  2  0  0  0  0
  7 25  1  0  0  0  0
  9 10  1  0  0  0  0
  9 26  1  0  0  0  0
 10 11  1  0  0  0  0
 10 27  1  0  0  0  0
 10 28  1  0  0  0  0
 11 12  2  0  0  0  0
 11 13  1  0  0  0  0
 13 14  1  0  0  0  0
 13 29  1  0  0  0  0
 14 16  1  0  0  0  0
 14 15  1  0  0  0  0
 14 30  1  0  0  0  0
 15 16  1  0  0  0  0
 15 31  1  0  0  0  0
 15 32  1  0  0  0  0
 16 33  1  0  0  0  0
 16 34  1  0  0  0  0
M  END
> <s_m_source_file>
AV-unprocessed.smi

> <i_m_source_file_index>
3154

> <i_lp_mmshare_version>
43012

> <i_f3d_flags>
0

> <s_epik_input>
bjFbY0hdW2NIXVtjSF1uMVtDSDJdW0NAQEhdKFtDSDNdKVtOSF1bQ0gyXUMoPU8pW05IXVtDSF0yW0NIMl1bQ0gyXTI=

> <s_epik_cmdline>
J2VwaWtfcHl0aG9uJywgJy1waCcsICc3LjAnLCAnLXRuJywgJzgnLCAnLW1hJywgJzIwMCcsICctbWV0YWxfYmluZGluZycsICctaW1hZScsICc8aW5maWxlLm1hZT4nLCAnLW9tYWUnLCAnPG91dGZpbGUubWFlPic=

> <r_lp_tautomer_probability>
1

> <r_epik_Ionization_Penalty>
1.00229

> <r_epik_Ionization_Penalty_Charging>
0

> <r_epik_Ionization_Penalty_Neutral>
1.00229

> <r_epik_State_Penalty>
1.0509

> <r_epik_Charging_Adjusted_Penalty>
1.0509

> <i_epik_Tot_Q>
0

> <i_epik_Tot_abs_Q>
0

> <r_epik_Metal_State_Penalty>
1.05084

> <b_epik_Metal_Only>
0

> <s_lp_Force_Field>
OPLS_2005

> <r_lp_Energy>
18.1237

> <b_lp_Chiralities_Consistent>
1

> <s_lp_Variant>
AV-unprocessed.smi:3154-4

> <Gold.Version>
5.8.1

> <Gold.Id.Protein>
6NUR|6NUR_protein|mol2

> <Gold.PLP.Fitness>
39.5603

> <Gold.PLP.PLP>
-34.4732

> <Gold.PLP.part.hbond>
-1.0000

> <Gold.PLP.part.metal>
0.0000

> <Gold.PLP.part.buried>
-5.1986

> <Gold.PLP.part.nonpolar>
-28.9200

> <Gold.PLP.part.repulsive>
0.0682

> <Gold.PLP.ligand.clash>
0.0000

> <Gold.PLP.ligand.torsion>
0.1868

> <Gold.PLP.Chemscore.Hbond>
0.8000

> <Gold.PLP.Chemscore.CHOScore>
1.0000

> <Gold.PLP.Chemscore.Metal>
0.0000

> <Gold.Chemscore.Hbonds>
donor molecule, donor type, donor heavy atom, donor atom, acceptor molecule, acceptor atom, score
      L1  H    13    29       P1  8028  0.77
      L1  C     5    23       P1  7957  0.94

> <Gold.PLP.Chemscore.Internal.Correction>
0.0606

> <Gold.Rescore>
     Score         DG    S(hbond)    S(metal)    S(lipo)     H(rot)  DE(clash)    DE(int)     intcor
     11.42     -13.08       0.93        0.00      84.91       2.12       0.08       1.58       ----

> <Gold.Chemscore.Fitness>
11.4196

> <Gold.Chemscore.DG>
-13.0754

> <Gold.Chemscore.ZeroCoef>
-5.4800

> <Gold.Chemscore.Hbond>
0.9265

> <Gold.Chemscore.Metal>
0.0000

> <Gold.Chemscore.Lipo>
84.9125

> <Gold.Chemscore.Internal_Hbond>
0.0000

> <Gold.Chemscore.DEClash>
0.0801

> <Gold.Chemscore.DEInternal>
1.5758

> <Gold.Chemscore.Rot>
2.1225

> <Gold.Chemscore.Internal.Correction>
   9.000000E+99

> <Gold.Chemscore.Hbonds>
donor molecule, donor type, donor heavy atom, donor atom, acceptor molecule, acceptor atom, score
      L1  H    13    29       P1  8028  0.74

> <Gold.Chemscore.Hbond.Weighted>
-3.0944

> <Gold.Chemscore.Metal.Weighted>
-0.0000

> <Gold.Chemscore.Lipo.Weighted>
-9.9348

> <Gold.Chemscore.Internal_Hbond.Weighted>
0.0000

> <Gold.Chemscore.DEClash.Weighted>
0.0801

> <Gold.Chemscore.DEInternal.Weighted>
1.5758

> <Gold.Chemscore.Rot.Weighted>
5.4337

> <Gold.Chemscore.Internal.Correction.Weighted>
   9.000000E+99

> <Gold.Protein.RotatedTorsions>
[ 6907 6896 6895 6894 ] final   25.82 input  -60.11 | X-H torsion
[ 7974 7965 7964 7962 ] final   56.02 input  175.53 | X-H torsion
[ 8008 7997 7996 7995 ] final  156.19 input   59.86 | X-H torsion
[ 10167 10162 10161 10158 ] final  123.28 input  -65.29 | X-H torsion
[ 10718 10713 10712 10709 ] final -155.52 input   66.30 | X-H torsion
[ 10763 10752 10751 10750 ] final  -22.85 input  -60.55 | X-H torsion
[ 11005 11000 10999 10996 ] final -130.43 input  -57.11 | X-H torsion

> <Gold.Protein.ActiveResidues>
 VAL166  LYS551  ARG553  GLY616  TRP617  ASP618  TYR619  PRO620  LYS621  CYS622 
 ASP623  PHE694  ASN695  SER759  ASP760  ASP761  ALA762  ILE779  LEU786  VAL792 
 PHE793  MET794  SER795  GLU796  ALA797  LYS798  CYS799  TRP800  GLU811  SER814 

> <Gold.Protein.RotatedAtoms>
  151.9782  135.0042  160.0555 H   0  0  0  0  0  0  0  0  0  0  0  0  # atno 6907 bound_to 6896
  152.1721  133.4646  159.4922 H   0  0  0  0  0  0  0  0  0  0  0  0  # atno 6908 bound_to 6896
  150.6903  134.1858  159.4309 H   0  0  0  0  0  0  0  0  0  0  0  0  # atno 6909 bound_to 6896
  145.9443  139.3915  143.0345 H   0  0  0  0  0  0  0  0  0  0  0  0  # atno 7974 bound_to 7965
  156.2436  140.1919  156.6918 H   0  0  0  0  0  0  0  0  0  0  0  0  # atno 8008 bound_to 7997
  154.6246  140.0604  156.9684 H   0  0  0  0  0  0  0  0  0  0  0  0  # atno 8009 bound_to 7997
  155.1807  140.3276  155.4378 H   0  0  0  0  0  0  0  0  0  0  0  0  # atno 8010 bound_to 7997
  139.5809  144.6985  151.3532 H   0  0  0  0  0  0  0  0  0  0  0  0  # atno 10167 bound_to 10162
  156.5139  130.8447  151.2657 H   0  0  0  0  0  0  0  0  0  0  0  0  # atno 10718 bound_to 10713
  153.6585  135.6977  153.5185 H   0  0  0  0  0  0  0  0  0  0  0  0  # atno 10763 bound_to 10752
  153.2650  135.4232  155.0931 H   0  0  0  0  0  0  0  0  0  0  0  0  # atno 10764 bound_to 10752
  154.8458  135.3564  154.6129 H   0  0  0  0  0  0  0  0  0  0  0  0  # atno 10765 bound_to 10752
  140.9346  134.1274  157.4205 H   0  0  0  0  0  0  0  0  0  0  0  0  # atno 11005 bound_to 11000
  145.8258  140.9656  143.0875 LP  0  0  0  0  0  0  0  0  0  0  0  0  # atno 17320 bound_to 7965
  144.6784  140.0099  143.7484 LP  0  0  0  0  0  0  0  0  0  0  0  0  # atno 17321 bound_to 7965
  140.7087  143.7447  150.7528 LP  0  0  0  0  0  0  0  0  0  0  0  0  # atno 17342 bound_to 10162
  140.0979  143.4815  152.2442 LP  0  0  0  0  0  0  0  0  0  0  0  0  # atno 17343 bound_to 10162
  157.7446  130.9940  150.2692 LP  0  0  0  0  0  0  0  0  0  0  0  0  # atno 17370 bound_to 10713
  156.3213  130.3786  149.7572 LP  0  0  0  0  0  0  0  0  0  0  0  0  # atno 17371 bound_to 10713
  139.8805  135.0016  156.6080 LP  0  0  0  0  0  0  0  0  0  0  0  0  # atno 17394 bound_to 11000
  140.7816  133.8655  155.8572 LP  0  0  0  0  0  0  0  0  0  0  0  0  # atno 17395 bound_to 11000

$$$$
