AV-unprocessed.smi:1464|AV-procd|sdf|5939|dock7
  -GOLD-   22720 6 23D 1   1.00000     0.00000
 Structure written by MMmdl.
 40 41  0  0  0  0  0  0  0  0  2 V2000
  152.6380  142.0369  160.0026 C   0  0  0  0  0  0  0  0  0  0  0  0
  152.5020  142.8758  158.7151 C   0  0  2  0  0  0  0  0  0  0  0  0
  152.7971  144.3671  158.9747 C   0  0  0  0  0  0  0  0  0  0  0  0
  151.6642  145.0576  159.7502 C   0  0  0  0  0  0  0  0  0  0  0  0
  150.3189  144.8914  159.0300 C   0  0  0  0  0  0  0  0  0  0  0  0
  149.9889  143.4108  158.7583 C   0  0  1  0  0  0  0  0  0  0  0  0
  148.7421  143.3401  157.9971 N   0  0  0  0  0  0  0  0  0  0  0  0
  147.5573  142.9081  158.4572 C   0  0  0  0  0  0  0  0  0  0  0  0
  147.3841  142.5085  159.6099 O   0  0  0  0  0  0  0  0  0  0  0  0
  146.4061  142.9363  157.4391 C   0  0  0  0  0  0  0  0  0  0  0  0
  146.7135  142.2788  156.1604 N   0  0  0  0  0  0  0  0  0  0  0  0
  147.6253  141.1446  156.2847 N   0  5  0  0  0  0  0  0  0  0  0  0
  147.9578  140.4369  155.1725 C   0  0  0  0  0  0  0  0  0  0  0  0
  148.7007  139.4587  155.2024 O   0  0  0  0  0  0  0  0  0  0  0  0
  147.4088  140.8683  153.8976 C   0  0  0  0  0  0  0  0  0  0  0  0
  146.5925  141.9367  153.8085 C   0  0  0  0  0  0  0  0  0  0  0  0
  146.2029  142.7195  154.9751 C   0  0  0  0  0  0  0  0  0  0  0  0
  145.4641  143.7016  154.8995 O   0  0  0  0  0  0  0  0  0  0  0  0
  151.1396  142.7108  157.9891 C   0  0  2  0  0  0  0  0  0  0  0  0
  150.8294  141.2395  157.6483 C   0  0  0  0  0  0  0  0  0  0  0  0
  151.8727  142.2822  160.7383 H   0  0  0  0  0  0  0  0  0  0  0  0
  153.6076  142.2024  160.4728 H   0  0  0  0  0  0  0  0  0  0  0  0
  152.5664  140.9695  159.7953 H   0  0  0  0  0  0  0  0  0  0  0  0
  153.2767  142.5167  158.0360 H   0  0  0  0  0  0  0  0  0  0  0  0
  153.7390  144.4785  159.5129 H   0  0  0  0  0  0  0  0  0  0  0  0
  152.9340  144.8769  158.0201 H   0  0  0  0  0  0  0  0  0  0  0  0
  151.5958  144.6477  160.7582 H   0  0  0  0  0  0  0  0  0  0  0  0
  151.8902  146.1178  159.8678 H   0  0  0  0  0  0  0  0  0  0  0  0
  149.5264  145.3470  159.6253 H   0  0  0  0  0  0  0  0  0  0  0  0
  150.3494  145.4403  158.0875 H   0  0  0  0  0  0  0  0  0  0  0  0
  149.8656  142.9107  159.7199 H   0  0  0  0  0  0  0  0  0  0  0  0
  148.7844  143.6422  157.0347 H   0  0  0  0  0  0  0  0  0  0  0  0
  145.5283  142.4701  157.8897 H   0  0  0  0  0  0  0  0  0  0  0  0
  146.1276  143.9781  157.2696 H   0  0  0  0  0  0  0  0  0  0  0  0
  147.6635  140.3212  153.0017 H   0  0  0  0  0  0  0  0  0  0  0  0
  146.2093  142.2224  152.8404 H   0  0  0  0  0  0  0  0  0  0  0  0
  151.2401  143.2261  157.0322 H   0  0  0  0  0  0  0  0  0  0  0  0
  150.5817  140.6643  158.5406 H   0  0  0  0  0  0  0  0  0  0  0  0
  151.6804  140.7593  157.1648 H   0  0  0  0  0  0  0  0  0  0  0  0
  149.9842  141.1576  156.9646 H   0  0  0  0  0  0  0  0  0  0  0  0
  1  2  1  0  0  0  0
  1 21  1  0  0  0  0
  1 22  1  0  0  0  0
  1 23  1  0  0  0  0
  2 19  1  0  0  0  0
  2  3  1  0  0  0  0
  2 24  1  0  0  0  0
  3  4  1  0  0  0  0
  3 25  1  0  0  0  0
  3 26  1  0  0  0  0
  4  5  1  0  0  0  0
  4 27  1  0  0  0  0
  4 28  1  0  0  0  0
  5  6  1  0  0  0  0
  5 29  1  0  0  0  0
  5 30  1  0  0  0  0
  6  7  1  0  0  0  0
  6 19  1  0  0  0  0
  6 31  1  0  0  0  0
  7  8  1  0  0  0  0
  7 32  1  0  0  0  0
  8  9  2  0  0  0  0
  8 10  1  0  0  0  0
 10 33  1  0  0  0  0
 10 34  1  0  0  0  0
 10 11  1  0  0  0  0
 11 12  1  0  0  0  0
 11 17  1  0  0  0  0
 12 13  1  0  0  0  0
 13 14  2  0  0  0  0
 13 15  1  0  0  0  0
 15 35  1  0  0  0  0
 15 16  2  0  0  0  0
 16 36  1  0  0  0  0
 16 17  1  0  0  0  0
 17 18  2  0  0  0  0
 19 20  1  0  0  0  0
 19 37  1  0  0  0  0
 20 38  1  0  0  0  0
 20 39  1  0  0  0  0
 20 40  1  0  0  0  0
M  CHG  1  12  -1
M  END
> <s_m_source_file>
AV-unprocessed.smi

> <i_m_source_file_index>
1464

> <i_lp_mmshare_version>
43012

> <i_f3d_flags>
0

> <s_epik_input>
W0NIM11bQ0BASF0xW0NIMl1bQ0gyXVtDSDJdW0NASF0oW0NASF0xW0NIM10pW05IXUMoPU8pW0NIMl1uMltuSF1jKD1PKVtjSF1bY0hdYzI9Tw==

> <s_epik_cmdline>
J2VwaWtfcHl0aG9uJywgJy1waCcsICc3LjAnLCAnLXRuJywgJzgnLCAnLW1hJywgJzIwMCcsICctbWV0YWxfYmluZGluZycsICctaW1hZScsICc8aW5maWxlLm1hZT4nLCAnLW9tYWUnLCAnPG91dGZpbGUubWFlPic=

> <r_lp_tautomer_probability>
1

> <r_epik_Ionization_Penalty>
0.101366

> <r_epik_Ionization_Penalty_Charging>
0.101366

> <r_epik_Ionization_Penalty_Neutral>
1.90469e-08

> <r_epik_State_Penalty>
0.035861

> <r_epik_Charging_Adjusted_Penalty>
0.137227

> <i_epik_Tot_Q>
-1

> <i_epik_Tot_abs_Q>
1

> <r_epik_Metal_State_Penalty>
0.035861

> <b_epik_Metal_Only>
0

> <s_lp_Force_Field>
OPLS_2005

> <r_lp_Energy>
29.8831

> <b_lp_Chiralities_Consistent>
1

> <s_lp_Variant>
AV-unprocessed.smi:1464-5

> <Gold.Version>
5.8.1

> <Gold.Id.Protein>
6NUR|6NUR_protein|mol2

> <Gold.PLP.Fitness>
41.4304

> <Gold.PLP.PLP>
-36.3317

> <Gold.PLP.part.hbond>
-4.0000

> <Gold.PLP.part.metal>
0.0000

> <Gold.PLP.part.buried>
-1.5901

> <Gold.PLP.part.nonpolar>
-30.9842

> <Gold.PLP.part.repulsive>
0.4450

> <Gold.PLP.ligand.clash>
0.0009

> <Gold.PLP.ligand.torsion>
0.5305

> <Gold.PLP.Chemscore.Hbond>
2.0517

> <Gold.PLP.Chemscore.CHOScore>
0.0000

> <Gold.PLP.Chemscore.Metal>
0.0000

> <Gold.Chemscore.Hbonds>
donor molecule, donor type, donor heavy atom, donor atom, acceptor molecule, acceptor atom, score
      L1  H     7    32       P1  8028  1.00
      P1  H  6933  6944       L1     9  0.43
      P1  H  6934  6946       L1     9  0.64

> <Gold.PLP.Chemscore.Internal.Correction>
0.0054

> <Gold.Rescore>
     Score         DG    S(hbond)    S(metal)    S(lipo)     H(rot)  DE(clash)    DE(int)     intcor
     16.02     -16.50       1.38        0.00      90.66       1.64       0.13       0.35       ----

> <Gold.Chemscore.Fitness>
16.0174

> <Gold.Chemscore.DG>
-16.4992

> <Gold.Chemscore.ZeroCoef>
-5.4800

> <Gold.Chemscore.Hbond>
1.3834

> <Gold.Chemscore.Metal>
0.0000

> <Gold.Chemscore.Lipo>
90.6553

> <Gold.Chemscore.Internal_Hbond>
0.0000

> <Gold.Chemscore.DEClash>
0.1339

> <Gold.Chemscore.DEInternal>
0.3478

> <Gold.Chemscore.Rot>
1.6438

> <Gold.Chemscore.Internal.Correction>
   9.000000E+99

> <Gold.Chemscore.Hbonds>
donor molecule, donor type, donor heavy atom, donor atom, acceptor molecule, acceptor atom, score
      L1  H     7    32       P1  8028  0.25
      P1  H  6933  6944       L1     9  0.43
      P1  H  6934  6946       L1     9  0.60

> <Gold.Chemscore.Hbond.Weighted>
-4.6205

> <Gold.Chemscore.Metal.Weighted>
-0.0000

> <Gold.Chemscore.Lipo.Weighted>
-10.6067

> <Gold.Chemscore.Internal_Hbond.Weighted>
0.0000

> <Gold.Chemscore.DEClash.Weighted>
0.1339

> <Gold.Chemscore.DEInternal.Weighted>
0.3478

> <Gold.Chemscore.Rot.Weighted>
4.2080

> <Gold.Chemscore.Internal.Correction.Weighted>
   9.000000E+99

> <Gold.Protein.RotatedTorsions>
[ 6907 6896 6895 6894 ] final -122.93 input  -60.11 | X-H torsion
[ 7974 7965 7964 7962 ] final  -91.32 input  175.53 | X-H torsion
[ 8008 7997 7996 7995 ] final  143.97 input   59.86 | X-H torsion
[ 10167 10162 10161 10158 ] final -159.87 input  -65.29 | X-H torsion
[ 10718 10713 10712 10709 ] final -134.72 input   66.30 | X-H torsion
[ 10763 10752 10751 10750 ] final  -63.55 input  -60.55 | X-H torsion
[ 11005 11000 10999 10996 ] final  -29.63 input  -57.11 | X-H torsion

> <Gold.Protein.ActiveResidues>
 VAL166  LYS551  ARG553  GLY616  TRP617  ASP618  TYR619  PRO620  LYS621  CYS622 
 ASP623  PHE694  ASN695  SER759  ASP760  ASP761  ALA762  ILE779  LEU786  VAL792 
 PHE793  MET794  SER795  GLU796  ALA797  LYS798  CYS799  TRP800  GLU811  SER814 

> <Gold.Protein.RotatedAtoms>
  150.8622  133.7627  159.2988 H   0  0  0  0  0  0  0  0  0  0  0  0  # atno 6907 bound_to 6896
  151.5265  135.1066  159.9901 H   0  0  0  0  0  0  0  0  0  0  0  0  # atno 6908 bound_to 6896
  152.4635  133.7828  159.6915 H   0  0  0  0  0  0  0  0  0  0  0  0  # atno 6909 bound_to 6896
  145.4148  140.9547  143.2214 H   0  0  0  0  0  0  0  0  0  0  0  0  # atno 7974 bound_to 7965
  156.2918  140.2248  156.4977 H   0  0  0  0  0  0  0  0  0  0  0  0  # atno 8008 bound_to 7997
  154.7716  140.0466  157.1077 H   0  0  0  0  0  0  0  0  0  0  0  0  # atno 8009 bound_to 7997
  154.9867  140.3085  155.4927 H   0  0  0  0  0  0  0  0  0  0  0  0  # atno 8010 bound_to 7997
  139.6582  143.9960  152.2208 H   0  0  0  0  0  0  0  0  0  0  0  0  # atno 10167 bound_to 10162
  156.2585  130.7195  151.1121 H   0  0  0  0  0  0  0  0  0  0  0  0  # atno 10718 bound_to 10713
  154.3167  135.6204  153.5489 H   0  0  0  0  0  0  0  0  0  0  0  0  # atno 10763 bound_to 10752
  152.9824  135.5714  154.5116 H   0  0  0  0  0  0  0  0  0  0  0  0  # atno 10764 bound_to 10752
  154.4776  135.2862  155.1572 H   0  0  0  0  0  0  0  0  0  0  0  0  # atno 10765 bound_to 10752
  140.9313  133.7336  156.0940 H   0  0  0  0  0  0  0  0  0  0  0  0  # atno 11005 bound_to 11000
  144.8285  139.5669  143.6954 LP  0  0  0  0  0  0  0  0  0  0  0  0  # atno 17320 bound_to 7965
  146.2687  139.6581  142.9311 LP  0  0  0  0  0  0  0  0  0  0  0  0  # atno 17321 bound_to 7965
  139.9692  144.6505  150.8005 LP  0  0  0  0  0  0  0  0  0  0  0  0  # atno 17342 bound_to 10162
  140.7568  143.3074  151.2928 LP  0  0  0  0  0  0  0  0  0  0  0  0  # atno 17343 bound_to 10162
  157.7242  131.0661  150.6007 LP  0  0  0  0  0  0  0  0  0  0  0  0  # atno 17370 bound_to 10713
  156.6092  130.4375  149.5865 LP  0  0  0  0  0  0  0  0  0  0  0  0  # atno 17371 bound_to 10713
  140.7859  134.3673  157.5476 LP  0  0  0  0  0  0  0  0  0  0  0  0  # atno 17394 bound_to 11000
  139.8797  134.9110  156.3027 LP  0  0  0  0  0  0  0  0  0  0  0  0  # atno 17395 bound_to 11000

$$$$
