AV-unprocessed.smi:2074|AV-procd|sdf|8452|dock3
  -GOLD-   2272011143D 1   1.00000     0.00000
 Structure written by MMmdl.
 43 44  0  0  0  0  0  0  0  0  1 V2000
  145.3393  130.7184  151.4495 C   0  0  0  0  0  0  0  0  0  0  0  0
  145.0874  132.1679  151.1497 C   0  0  0  0  0  0  0  0  0  0  0  0
  143.9374  132.5293  150.6062 N   0  0  0  0  0  0  0  0  0  0  0  0
  144.0120  133.9153  150.4392 O   0  0  0  0  0  0  0  0  0  0  0  0
  145.2196  134.3383  150.8918 C   0  0  0  0  0  0  0  0  0  0  0  0
  145.4975  135.7996  150.7908 C   0  0  0  0  0  0  0  0  0  0  0  0
  145.9508  133.2820  151.3609 C   0  0  0  0  0  0  0  0  0  0  0  0
  147.3390  133.2881  151.9518 C   0  0  0  0  0  0  0  0  0  0  0  0
  147.2844  133.6818  153.4302 C   0  0  0  0  0  0  0  0  0  0  0  0
  146.6194  133.0172  154.2256 O   0  0  0  0  0  0  0  0  0  0  0  0
  147.9774  134.7753  153.7834 N   0  0  0  0  0  0  0  0  0  0  0  0
  147.9898  135.3628  155.1204 C   0  0  0  0  0  0  0  0  0  0  0  0
  149.4298  135.5690  155.6736 C   0  0  2  0  0  0  0  0  0  0  0  0
  150.0756  134.1786  155.9021 C   0  0  0  0  0  0  0  0  0  0  0  0
  149.4842  136.4262  156.8805 N   0  0  0  0  0  0  0  0  0  0  0  0
  150.8502  136.6123  157.3841 C   0  0  0  0  0  0  0  0  0  0  0  0
  150.9047  137.4740  158.6576 C   0  0  0  0  0  0  0  0  0  0  0  0
  150.0897  136.8925  159.6658 O   0  0  0  0  0  0  0  0  0  0  0  0
  148.7377  136.7634  159.2491 C   0  0  0  0  0  0  0  0  0  0  0  0
  148.6678  135.8971  157.9798 C   0  0  0  0  0  0  0  0  0  0  0  0
  145.9297  130.6023  152.3583 H   0  0  0  0  0  0  0  0  0  0  0  0
  145.8867  130.2446  150.6343 H   0  0  0  0  0  0  0  0  0  0  0  0
  144.4081  130.1684  151.5892 H   0  0  0  0  0  0  0  0  0  0  0  0
  146.5271  135.9763  150.4796 H   0  0  0  0  0  0  0  0  0  0  0  0
  145.3457  136.2880  151.7533 H   0  0  0  0  0  0  0  0  0  0  0  0
  144.8401  136.2745  150.0621 H   0  0  0  0  0  0  0  0  0  0  0  0
  147.8088  132.3071  151.8773 H   0  0  0  0  0  0  0  0  0  0  0  0
  147.9883  133.9754  151.4075 H   0  0  0  0  0  0  0  0  0  0  0  0
  148.5030  135.2573  153.0687 H   0  0  0  0  0  0  0  0  0  0  0  0
  147.4293  136.2943  155.0624 H   0  0  0  0  0  0  0  0  0  0  0  0
  147.4262  134.7090  155.7866 H   0  0  0  0  0  0  0  0  0  0  0  0
  150.0058  136.0626  154.8890 H   0  0  0  0  0  0  0  0  0  0  0  0
  149.9566  133.5150  155.0470 H   0  0  0  0  0  0  0  0  0  0  0  0
  149.6360  133.6772  156.7651 H   0  0  0  0  0  0  0  0  0  0  0  0
  151.1509  134.2471  156.0622 H   0  0  0  0  0  0  0  0  0  0  0  0
  151.3068  135.6416  157.5838 H   0  0  0  0  0  0  0  0  0  0  0  0
  151.4723  137.1098  156.6434 H   0  0  0  0  0  0  0  0  0  0  0  0
  151.9288  137.5427  159.0243 H   0  0  0  0  0  0  0  0  0  0  0  0
  150.5703  138.4916  158.4494 H   0  0  0  0  0  0  0  0  0  0  0  0
  148.1613  136.3043  160.0524 H   0  0  0  0  0  0  0  0  0  0  0  0
  148.3068  137.7496  159.0692 H   0  0  0  0  0  0  0  0  0  0  0  0
  147.6203  135.8429  157.6887 H   0  0  0  0  0  0  0  0  0  0  0  0
  148.9835  134.8802  158.2182 H   0  0  0  0  0  0  0  0  0  0  0  0
  1  2  1  0  0  0  0
  1 21  1  0  0  0  0
  1 22  1  0  0  0  0
  1 23  1  0  0  0  0
  2  7  1  0  0  0  0
  2  3  2  0  0  0  0
  3  4  1  0  0  0  0
  4  5  1  0  0  0  0
  5  6  1  0  0  0  0
  5  7  2  0  0  0  0
  6 24  1  0  0  0  0
  6 25  1  0  0  0  0
  6 26  1  0  0  0  0
  7  8  1  0  0  0  0
  8  9  1  0  0  0  0
  8 27  1  0  0  0  0
  8 28  1  0  0  0  0
  9 10  2  0  0  0  0
  9 11  1  0  0  0  0
 11 12  1  0  0  0  0
 11 29  1  0  0  0  0
 12 13  1  0  0  0  0
 12 30  1  0  0  0  0
 12 31  1  0  0  0  0
 13 14  1  0  0  0  0
 13 15  1  0  0  0  0
 13 32  1  0  0  0  0
 14 33  1  0  0  0  0
 14 34  1  0  0  0  0
 14 35  1  0  0  0  0
 15 20  1  0  0  0  0
 15 16  1  0  0  0  0
 16 17  1  0  0  0  0
 16 36  1  0  0  0  0
 16 37  1  0  0  0  0
 17 18  1  0  0  0  0
 17 38  1  0  0  0  0
 17 39  1  0  0  0  0
 18 19  1  0  0  0  0
 19 20  1  0  0  0  0
 19 40  1  0  0  0  0
 19 41  1  0  0  0  0
 20 42  1  0  0  0  0
 20 43  1  0  0  0  0
M  END
> <s_m_source_file>
AV-unprocessed.smi

> <i_m_source_file_index>
2074

> <i_lp_mmshare_version>
43012

> <i_f3d_flags>
0

> <s_epik_input>
W0NIM11jMW5vYyhbQ0gzXSljMVtDSDJdQyg9TylbTkhdW0NIMl1bQ0BIXShbQ0gzXSlOMltDSDJdW0NIMl1PW0NIMl1bQ0gyXTI=

> <s_epik_cmdline>
J2VwaWtfcHl0aG9uJywgJy1waCcsICc3LjAnLCAnLXRuJywgJzgnLCAnLW1hJywgJzIwMCcsICctbWV0YWxfYmluZGluZycsICctaW1hZScsICc8aW5maWxlLm1hZT4nLCAnLW9tYWUnLCAnPG91dGZpbGUubWFlPic=

> <r_epik_Ionization_Penalty>
0.234179

> <r_epik_Ionization_Penalty_Charging>
0

> <r_epik_Ionization_Penalty_Neutral>
0.234179

> <r_epik_State_Penalty>
0.224936

> <r_epik_Charging_Adjusted_Penalty>
0.224936

> <i_epik_Tot_Q>
0

> <i_epik_Tot_abs_Q>
0

> <r_epik_Metal_State_Penalty>
0.224936

> <b_epik_Metal_Only>
0

> <s_lp_Force_Field>
OPLS_2005

> <r_lp_Energy>
22.7236

> <b_lp_Chiralities_Consistent>
1

> <s_lp_Variant>
AV-unprocessed.smi:2074-1

> <Gold.Version>
5.8.1

> <Gold.Id.Protein>
6NUR|6NUR_protein|mol2

> <Gold.PLP.Fitness>
33.6909

> <Gold.PLP.PLP>
-28.4477

> <Gold.PLP.part.hbond>
-2.0000

> <Gold.PLP.part.metal>
0.0000

> <Gold.PLP.part.buried>
-6.2497

> <Gold.PLP.part.nonpolar>
-21.0519

> <Gold.PLP.part.repulsive>
0.4094

> <Gold.PLP.ligand.clash>
0.0000

> <Gold.PLP.ligand.torsion>
0.4046

> <Gold.PLP.Chemscore.Hbond>
2.0000

> <Gold.PLP.Chemscore.CHOScore>
0.0000

> <Gold.PLP.Chemscore.Metal>
0.0000

> <Gold.Chemscore.Hbonds>
donor molecule, donor type, donor heavy atom, donor atom, acceptor molecule, acceptor atom, score
      L1  H    11    29       P1  7948  1.00
      P1  H  6896  6907       L1    18  0.61

> <Gold.PLP.Chemscore.Internal.Correction>
0.0523

> <Gold.Rescore>
     Score         DG    S(hbond)    S(metal)    S(lipo)     H(rot)  DE(clash)    DE(int)     intcor
     14.86     -15.28       1.79        0.00      70.15       1.72       0.04       0.38       ----

> <Gold.Chemscore.Fitness>
14.8578

> <Gold.Chemscore.DG>
-15.2783

> <Gold.Chemscore.ZeroCoef>
-5.4800

> <Gold.Chemscore.Hbond>
1.7942

> <Gold.Chemscore.Metal>
0.0000

> <Gold.Chemscore.Lipo>
70.1478

> <Gold.Chemscore.Internal_Hbond>
0.0000

> <Gold.Chemscore.DEClash>
0.0371

> <Gold.Chemscore.DEInternal>
0.3834

> <Gold.Chemscore.Rot>
1.7195

> <Gold.Chemscore.Internal.Correction>
   9.000000E+99

> <Gold.Chemscore.Hbonds>
donor molecule, donor type, donor heavy atom, donor atom, acceptor molecule, acceptor atom, score
      L1  H    11    29       P1  7948  0.86
      P1  H  6896  6907       L1    18  0.09

> <Gold.Chemscore.Hbond.Weighted>
-5.9928

> <Gold.Chemscore.Metal.Weighted>
-0.0000

> <Gold.Chemscore.Lipo.Weighted>
-8.2073

> <Gold.Chemscore.Internal_Hbond.Weighted>
0.0000

> <Gold.Chemscore.DEClash.Weighted>
0.0371

> <Gold.Chemscore.DEInternal.Weighted>
0.3834

> <Gold.Chemscore.Rot.Weighted>
4.4018

> <Gold.Chemscore.Internal.Correction.Weighted>
   9.000000E+99

> <Gold.Protein.RotatedTorsions>
[ 6907 6896 6895 6894 ] final  -18.01 input  -60.11 | X-H torsion
[ 7974 7965 7964 7962 ] final  160.39 input  175.53 | X-H torsion
[ 8008 7997 7996 7995 ] final  -36.97 input   59.86 | X-H torsion
[ 10167 10162 10161 10158 ] final -164.65 input  -65.29 | X-H torsion
[ 10718 10713 10712 10709 ] final  149.08 input   66.30 | X-H torsion
[ 10763 10752 10751 10750 ] final -109.31 input  -60.55 | X-H torsion
[ 11005 11000 10999 10996 ] final   59.33 input  -57.11 | X-H torsion

> <Gold.Protein.ActiveResidues>
 VAL166  LYS551  ARG553  GLY616  TRP617  ASP618  TYR619  PRO620  LYS621  CYS622 
 ASP623  PHE694  ASN695  SER759  ASP760  ASP761  ALA762  ILE779  LEU786  VAL792 
 PHE793  MET794  SER795  GLU796  ALA797  LYS798  CYS799  TRP800  GLU811  SER814 

> <Gold.Protein.RotatedAtoms>
  151.2846  135.0724  159.9181 H   0  0  0  0  0  0  0  0  0  0  0  0  # atno 6907 bound_to 6896
  152.5328  133.9995  159.7898 H   0  0  0  0  0  0  0  0  0  0  0  0  # atno 6908 bound_to 6896
  151.0254  133.5787  159.2697 H   0  0  0  0  0  0  0  0  0  0  0  0  # atno 6909 bound_to 6896
  144.7739  139.7751  143.6286 H   0  0  0  0  0  0  0  0  0  0  0  0  # atno 7974 bound_to 7965
  154.4062  140.1616  156.2460 H   0  0  0  0  0  0  0  0  0  0  0  0  # atno 8008 bound_to 7997
  155.9160  140.3424  155.6113 H   0  0  0  0  0  0  0  0  0  0  0  0  # atno 8009 bound_to 7997
  155.7279  140.0776  157.2292 H   0  0  0  0  0  0  0  0  0  0  0  0  # atno 8010 bound_to 7997
  139.6236  144.0576  152.1955 H   0  0  0  0  0  0  0  0  0  0  0  0  # atno 10167 bound_to 10162
  157.3006  131.0870  151.1393 H   0  0  0  0  0  0  0  0  0  0  0  0  # atno 10718 bound_to 10713
  154.8186  135.4606  154.0713 H   0  0  0  0  0  0  0  0  0  0  0  0  # atno 10763 bound_to 10752
  153.2085  135.6878  153.8149 H   0  0  0  0  0  0  0  0  0  0  0  0  # atno 10764 bound_to 10752
  153.7608  135.3284  155.3313 H   0  0  0  0  0  0  0  0  0  0  0  0  # atno 10765 bound_to 10752
  140.0311  134.6010  155.9505 H   0  0  0  0  0  0  0  0  0  0  0  0  # atno 11005 bound_to 11000
  146.1906  139.5144  142.9808 LP  0  0  0  0  0  0  0  0  0  0  0  0  # atno 17320 bound_to 7965
  145.6242  141.0317  143.1898 LP  0  0  0  0  0  0  0  0  0  0  0  0  # atno 17321 bound_to 7965
  140.0224  144.6143  150.7556 LP  0  0  0  0  0  0  0  0  0  0  0  0  # atno 17342 bound_to 10162
  140.7397  143.2795  151.3641 LP  0  0  0  0  0  0  0  0  0  0  0  0  # atno 17343 bound_to 10162
  157.2753  130.6724  149.6039 LP  0  0  0  0  0  0  0  0  0  0  0  0  # atno 17370 bound_to 10713
  155.9671  130.4466  150.5549 LP  0  0  0  0  0  0  0  0  0  0  0  0  # atno 17371 bound_to 10713
  141.1831  133.6550  156.5105 LP  0  0  0  0  0  0  0  0  0  0  0  0  # atno 17394 bound_to 11000
  140.4223  134.7176  157.4897 LP  0  0  0  0  0  0  0  0  0  0  0  0  # atno 17395 bound_to 11000

$$$$
