AV-unprocessed.smi:288|AV-procd|sdf|2212|dock8
  -GOLD-   2262022 43D 1   1.00000     0.00000
 Structure written by MMmdl.
 33 34  0  0  0  0  0  0  0  0  1 V2000
  152.8552  139.6613  157.2122 O   0  0  0  0  0  0  0  0  0  0  0  0
  151.8763  139.8517  156.4884 C   0  0  0  0  0  0  0  0  0  0  0  0
  151.6695  139.1587  155.2211 C   0  0  0  0  0  0  0  0  0  0  0  0
  152.5894  138.2805  154.7870 F   0  0  0  0  0  0  0  0  0  0  0  0
  150.5665  139.3827  154.4743 C   0  0  0  0  0  0  0  0  0  0  0  0
  149.5680  140.2677  154.8480 N   0  0  0  0  0  0  0  0  0  0  0  0
  148.3352  140.4944  153.9991 C   0  0  1  0  0  0  0  0  0  0  0  0
  147.0591  140.3343  154.8459 C   0  0  0  0  0  0  0  0  0  0  0  0
  146.2830  141.5941  154.5193 C   0  0  0  0  0  0  0  0  0  0  0  0
  147.4007  142.5843  154.2291 C   0  0  0  0  0  0  0  0  0  0  0  0
  148.3356  141.8013  153.4983 O   0  0  0  0  0  0  0  0  0  0  0  0
  149.6848  140.9816  156.0603 C   0  0  0  0  0  0  0  0  0  0  0  0
  148.7982  141.7586  156.4230 O   0  0  0  0  0  0  0  0  0  0  0  0
  150.8480  140.7614  156.8353 N   0  0  0  0  0  0  0  0  0  0  0  0
  150.9752  141.4900  158.0868 C   0  0  0  0  0  0  0  0  0  0  0  0
  151.1602  143.0121  157.8924 C   0  0  1  0  0  0  0  0  0  0  0  0
  149.8876  143.6294  157.9243 O   0  0  0  0  0  0  0  0  0  0  0  0
  152.0220  143.6457  159.0022 C   0  0  0  0  0  0  0  0  0  0  0  0
  151.2802  143.8784  160.0855 F   0  0  0  0  0  0  0  0  0  0  0  0
  153.0467  142.8545  159.3230 F   0  0  0  0  0  0  0  0  0  0  0  0
  152.5032  144.8143  158.5777 F   0  0  0  0  0  0  0  0  0  0  0  0
  150.4775  138.8334  153.5498 H   0  0  0  0  0  0  0  0  0  0  0  0
  148.4115  139.7919  153.1673 H   0  0  0  0  0  0  0  0  0  0  0  0
  146.5277  139.4186  154.5852 H   0  0  0  0  0  0  0  0  0  0  0  0
  147.3115  140.3093  155.9074 H   0  0  0  0  0  0  0  0  0  0  0  0
  145.6770  141.4412  153.6253 H   0  0  0  0  0  0  0  0  0  0  0  0
  145.6271  141.9150  155.3289 H   0  0  0  0  0  0  0  0  0  0  0  0
  147.0632  143.4468  153.6543 H   0  0  0  0  0  0  0  0  0  0  0  0
  147.8515  142.9420  155.1559 H   0  0  0  0  0  0  0  0  0  0  0  0
  150.1227  141.2505  158.7247 H   0  0  0  0  0  0  0  0  0  0  0  0
  151.8256  141.0512  158.6110 H   0  0  0  0  0  0  0  0  0  0  0  0
  151.6241  143.2220  156.9277 H   0  0  0  0  0  0  0  0  0  0  0  0
  149.8317  144.2412  157.2061 H   0  0  0  0  0  0  0  0  0  0  0  0
  1  2  2  0  0  0  0
  2 14  1  0  0  0  0
  2  3  1  0  0  0  0
  3  4  1  0  0  0  0
  3  5  2  0  0  0  0
  5  6  1  0  0  0  0
  5 22  1  0  0  0  0
  6  7  1  0  0  0  0
  6 12  1  0  0  0  0
  7 11  1  0  0  0  0
  7  8  1  0  0  0  0
  7 23  1  0  0  0  0
  8  9  1  0  0  0  0
  8 24  1  0  0  0  0
  8 25  1  0  0  0  0
  9 10  1  0  0  0  0
  9 26  1  0  0  0  0
  9 27  1  0  0  0  0
 10 11  1  0  0  0  0
 10 28  1  0  0  0  0
 10 29  1  0  0  0  0
 12 13  2  0  0  0  0
 12 14  1  0  0  0  0
 14 15  1  0  0  0  0
 15 16  1  0  0  0  0
 15 30  1  0  0  0  0
 15 31  1  0  0  0  0
 16 17  1  0  0  0  0
 16 18  1  0  0  0  0
 16 32  1  0  0  0  0
 17 33  1  0  0  0  0
 18 19  1  0  0  0  0
 18 20  1  0  0  0  0
 18 21  1  0  0  0  0
M  END
> <s_m_source_file>
AV-unprocessed.smi

> <i_m_source_file_index>
288

> <i_lp_mmshare_version>
43012

> <i_f3d_flags>
0

> <s_epik_input>
TzFbQ0gyXVtDSDJdW0NIMl1bQ0BIXTFuKFtjSF1jKEYpYzI9TyljKD1PKW4yW0NIMl1bQ0BIXShbT0hdKUMoRikoRilG

> <s_epik_cmdline>
J2VwaWtfcHl0aG9uJywgJy1waCcsICc3LjAnLCAnLXRuJywgJzgnLCAnLW1hJywgJzIwMCcsICctbWV0YWxfYmluZGluZycsICctaW1hZScsICc8aW5maWxlLm1hZT4nLCAnLW9tYWUnLCAnPG91dGZpbGUubWFlPic=

> <r_lp_tautomer_probability>
1

> <r_epik_Ionization_Penalty>
0.000551119

> <r_epik_Ionization_Penalty_Charging>
2.51184e-08

> <r_epik_Ionization_Penalty_Neutral>
0.000551094

> <r_epik_State_Penalty>
0.000345115

> <r_epik_Charging_Adjusted_Penalty>
0.00034514

> <i_epik_Tot_Q>
0

> <i_epik_Tot_abs_Q>
0

> <r_epik_Metal_State_Penalty>
-0

> <b_epik_Metal_Only>
0

> <s_epik_Chemistry_Notes>
This compound contains an acetal/aminal-like group ( X-CH(R)-Y where X, Y are N, S, or O) that may be acid/base labile, releasing an aldehyde.

> <s_lp_Force_Field>
OPLS_2005

> <r_lp_Energy>
35.613

> <b_lp_Chiralities_Consistent>
1

> <s_lp_Variant>
AV-unprocessed.smi:288-4

> <Gold.Version>
5.8.1

> <Gold.Id.Protein>
6NUR|6NUR_protein|mol2

> <Gold.PLP.Fitness>
51.1066

> <Gold.PLP.PLP>
-44.7565

> <Gold.PLP.part.hbond>
-3.6153

> <Gold.PLP.part.metal>
0.0000

> <Gold.PLP.part.buried>
2.0116

> <Gold.PLP.part.nonpolar>
-42.9835

> <Gold.PLP.part.repulsive>
0.5810

> <Gold.PLP.ligand.clash>
0.9025

> <Gold.PLP.ligand.torsion>
1.1631

> <Gold.PLP.Chemscore.Hbond>
2.4434

> <Gold.PLP.Chemscore.CHOScore>
0.7440

> <Gold.PLP.Chemscore.Metal>
0.0000

> <Gold.Chemscore.Hbonds>
donor molecule, donor type, donor heavy atom, donor atom, acceptor molecule, acceptor atom, score
      L1  H    17    33       P1  8028  0.93
      P1  H  7997  8008       L1     1  0.99
      P1  H  8011  8017       L1    11  0.54
      L1  C     5    22       P1  7957  0.28

> <Gold.PLP.Chemscore.Internal.Correction>
0.0168

> <Gold.Rescore>
     Score         DG    S(hbond)    S(metal)    S(lipo)     H(rot)  DE(clash)    DE(int)     intcor
      7.09     -12.32       2.02        0.00      56.87       2.57       0.54       4.70       ----

> <Gold.Chemscore.Fitness>
7.0901

> <Gold.Chemscore.DG>
-12.3248

> <Gold.Chemscore.ZeroCoef>
-5.4800

> <Gold.Chemscore.Hbond>
2.0236

> <Gold.Chemscore.Metal>
0.0000

> <Gold.Chemscore.Lipo>
56.8709

> <Gold.Chemscore.Internal_Hbond>
0.0000

> <Gold.Chemscore.DEClash>
0.5393

> <Gold.Chemscore.DEInternal>
4.6953

> <Gold.Chemscore.Rot>
2.5656

> <Gold.Chemscore.Internal.Correction>
   9.000000E+99

> <Gold.Chemscore.Hbonds>
donor molecule, donor type, donor heavy atom, donor atom, acceptor molecule, acceptor atom, score
      L1  H    17    33       P1  8028  0.49
      P1  H  7997  8008       L1     1  0.74
      P1  H  8011  8017       L1    11  0.52

> <Gold.Chemscore.Hbond.Weighted>
-6.7587

> <Gold.Chemscore.Metal.Weighted>
-0.0000

> <Gold.Chemscore.Lipo.Weighted>
-6.6539

> <Gold.Chemscore.Internal_Hbond.Weighted>
0.0000

> <Gold.Chemscore.DEClash.Weighted>
0.5393

> <Gold.Chemscore.DEInternal.Weighted>
4.6953

> <Gold.Chemscore.Rot.Weighted>
6.5679

> <Gold.Chemscore.Internal.Correction.Weighted>
   9.000000E+99

> <Gold.Protein.RotatedTorsions>
[ 6907 6896 6895 6894 ] final   26.15 input  -60.11 | X-H torsion
[ 7974 7965 7964 7962 ] final  -28.32 input  175.53 | X-H torsion
[ 8008 7997 7996 7995 ] final  -44.91 input   59.86 | X-H torsion
[ 10167 10162 10161 10158 ] final -176.67 input  -65.29 | X-H torsion
[ 10718 10713 10712 10709 ] final  -18.08 input   66.30 | X-H torsion
[ 10763 10752 10751 10750 ] final -158.21 input  -60.55 | X-H torsion
[ 11005 11000 10999 10996 ] final   -9.08 input  -57.11 | X-H torsion

> <Gold.Protein.ActiveResidues>
 VAL166  LYS551  ARG553  GLY616  TRP617  ASP618  TYR619  PRO620  LYS621  CYS622 
 ASP623  PHE694  ASN695  SER759  ASP760  ASP761  ALA762  ILE779  LEU786  VAL792 
 PHE793  MET794  SER795  GLU796  ALA797  LYS798  CYS799  TRP800  GLU811  SER814 

> <Gold.Protein.RotatedAtoms>
  151.9831  135.0018  160.0558 H   0  0  0  0  0  0  0  0  0  0  0  0  # atno 6907 bound_to 6896
  152.1678  133.4619  159.4902 H   0  0  0  0  0  0  0  0  0  0  0  0  # atno 6908 bound_to 6896
  150.6897  134.1909  159.4328 H   0  0  0  0  0  0  0  0  0  0  0  0  # atno 6909 bound_to 6896
  146.1296  140.5267  142.8699 H   0  0  0  0  0  0  0  0  0  0  0  0  # atno 7974 bound_to 7965
  154.3999  140.1410  156.3761 H   0  0  0  0  0  0  0  0  0  0  0  0  # atno 8008 bound_to 7997
  155.8047  140.3475  155.5402 H   0  0  0  0  0  0  0  0  0  0  0  0  # atno 8009 bound_to 7997
  155.8447  140.0932  157.1703 H   0  0  0  0  0  0  0  0  0  0  0  0  # atno 8010 bound_to 7997
  139.5518  144.2089  152.1091 H   0  0  0  0  0  0  0  0  0  0  0  0  # atno 10167 bound_to 10162
  156.5646  130.4734  149.6391 H   0  0  0  0  0  0  0  0  0  0  0  0  # atno 10718 bound_to 10713
  154.7575  135.3108  154.8443 H   0  0  0  0  0  0  0  0  0  0  0  0  # atno 10763 bound_to 10752
  153.9213  135.6795  153.4752 H   0  0  0  0  0  0  0  0  0  0  0  0  # atno 10764 bound_to 10752
  153.1173  135.4839  154.9067 H   0  0  0  0  0  0  0  0  0  0  0  0  # atno 10765 bound_to 10752
  140.7304  133.8754  155.8888 H   0  0  0  0  0  0  0  0  0  0  0  0  # atno 11005 bound_to 11000
  144.7677  140.5568  143.6691 LP  0  0  0  0  0  0  0  0  0  0  0  0  # atno 17320 bound_to 7965
  145.5289  139.1475  143.3511 LP  0  0  0  0  0  0  0  0  0  0  0  0  # atno 17321 bound_to 7965
  140.1586  144.5047  150.6645 LP  0  0  0  0  0  0  0  0  0  0  0  0  # atno 17342 bound_to 10162
  140.6782  143.2315  151.5451 LP  0  0  0  0  0  0  0  0  0  0  0  0  # atno 17343 bound_to 10162
  156.2768  130.7048  151.1862 LP  0  0  0  0  0  0  0  0  0  0  0  0  # atno 17370 bound_to 10713
  157.7361  131.0565  150.5431 LP  0  0  0  0  0  0  0  0  0  0  0  0  # atno 17371 bound_to 10713
  140.9926  134.1258  157.4394 LP  0  0  0  0  0  0  0  0  0  0  0  0  # atno 17394 bound_to 11000
  139.8827  135.0045  156.6252 LP  0  0  0  0  0  0  0  0  0  0  0  0  # atno 17395 bound_to 11000

$$$$
