AV-unprocessed.smi:536|AV-procd|sdf|2863|dock7
  -GOLD-   2262023353D 1   1.00000     0.00000
 Structure written by MMmdl.
 45 47  0  0  0  0  0  0  0  0  2 V2000
  151.9053  138.3713  157.0663 C   0  0  0  0  0  0  0  0  0  0  0  0
  153.2939  138.6408  157.1277 O   0  0  0  0  0  0  0  0  0  0  0  0
  153.8583  138.3284  158.3902 C   0  0  0  0  0  0  0  0  0  0  0  0
  153.0840  139.0190  159.5269 C   0  0  0  0  0  0  0  0  0  0  0  0
  153.7717  138.9753  160.8167 N   0  0  0  0  0  0  0  0  0  0  0  0
  154.1534  140.0214  161.5977 C   0  0  0  0  0  0  0  0  0  0  0  0
  153.8859  141.3451  161.2468 N   0  0  0  0  0  0  0  0  0  0  0  0
  153.6817  142.4207  162.2116 C   0  0  0  0  0  0  0  0  0  0  0  0
  152.3752  143.2138  162.0172 C   0  0  0  0  0  0  0  0  0  0  0  0
  152.4272  144.1729  160.8185 C   0  0  0  0  0  0  0  0  0  0  0  0
  152.1261  143.5296  159.4528 C   0  0  0  0  0  0  0  0  0  0  0  0
  152.7194  142.1300  159.2040 C   0  0  0  0  0  0  0  0  0  0  0  0
  154.0666  141.8528  159.8898 C   0  0  0  0  0  0  0  0  0  0  0  0
  154.8261  139.6817  162.6984 N   0  0  0  0  0  0  0  0  0  0  0  0
  154.8610  138.2978  162.6253 C   0  0  0  0  0  0  0  0  0  0  0  0
  154.2430  137.8476  161.5001 C   0  0  0  0  0  0  0  0  0  0  0  0
  154.1488  136.4156  161.1331 C   0  0  0  0  0  0  0  0  0  0  0  0
  153.5994  136.0587  160.0929 O   0  0  0  0  0  0  0  0  0  0  0  0
  154.7340  135.6019  162.0681 N   0  5  0  0  0  0  0  0  0  0  0  0
  155.3631  136.0153  163.2222 C   0  0  0  0  0  0  0  0  0  0  0  0
  155.8652  135.2141  164.0119 O   0  0  0  0  0  0  0  0  0  0  0  0
  155.4415  137.3517  163.5135 N   0  0  0  0  0  0  0  0  0  0  0  0
  156.1107  137.8203  164.7304 C   0  0  0  0  0  0  0  0  0  0  0  0
  151.5262  138.6316  156.0780 H   0  0  0  0  0  0  0  0  0  0  0  0
  151.3565  138.9589  157.8033 H   0  0  0  0  0  0  0  0  0  0  0  0
  151.7013  137.3136  157.2375 H   0  0  0  0  0  0  0  0  0  0  0  0
  153.8423  137.2491  158.5474 H   0  0  0  0  0  0  0  0  0  0  0  0
  154.9038  138.6302  158.4026 H   0  0  0  0  0  0  0  0  0  0  0  0
  152.8917  140.0588  159.2683 H   0  0  0  0  0  0  0  0  0  0  0  0
  152.0954  138.5753  159.6327 H   0  0  0  0  0  0  0  0  0  0  0  0
  153.7019  141.9898  163.2118 H   0  0  0  0  0  0  0  0  0  0  0  0
  154.5371  143.0965  162.1774 H   0  0  0  0  0  0  0  0  0  0  0  0
  151.5083  142.5569  161.9531 H   0  0  0  0  0  0  0  0  0  0  0  0
  152.2243  143.8138  162.9150 H   0  0  0  0  0  0  0  0  0  0  0  0
  151.7103  144.9793  160.9766 H   0  0  0  0  0  0  0  0  0  0  0  0
  153.4038  144.6577  160.7888 H   0  0  0  0  0  0  0  0  0  0  0  0
  151.0461  143.4703  159.3141 H   0  0  0  0  0  0  0  0  0  0  0  0
  152.4812  144.2090  158.6771 H   0  0  0  0  0  0  0  0  0  0  0  0
  151.9995  141.3656  159.5002 H   0  0  0  0  0  0  0  0  0  0  0  0
  152.8401  142.0051  158.1276 H   0  0  0  0  0  0  0  0  0  0  0  0
  154.7053  142.7367  159.8796 H   0  0  0  0  0  0  0  0  0  0  0  0
  154.5991  141.0942  159.3151 H   0  0  0  0  0  0  0  0  0  0  0  0
  157.1492  137.4870  164.7484 H   0  0  0  0  0  0  0  0  0  0  0  0
  155.6100  137.4269  165.6163 H   0  0  0  0  0  0  0  0  0  0  0  0
  156.1179  138.9068  164.8156 H   0  0  0  0  0  0  0  0  0  0  0  0
  1  2  1  0  0  0  0
  1 24  1  0  0  0  0
  1 25  1  0  0  0  0
  1 26  1  0  0  0  0
  2  3  1  0  0  0  0
  3  4  1  0  0  0  0
  3 27  1  0  0  0  0
  3 28  1  0  0  0  0
  4  5  1  0  0  0  0
  4 29  1  0  0  0  0
  4 30  1  0  0  0  0
  5 16  1  0  0  0  0
  5  6  1  0  0  0  0
  6  7  1  0  0  0  0
  6 14  2  0  0  0  0
  7 13  1  0  0  0  0
  7  8  1  0  0  0  0
  8  9  1  0  0  0  0
  8 31  1  0  0  0  0
  8 32  1  0  0  0  0
  9 10  1  0  0  0  0
  9 33  1  0  0  0  0
  9 34  1  0  0  0  0
 10 11  1  0  0  0  0
 10 35  1  0  0  0  0
 10 36  1  0  0  0  0
 11 12  1  0  0  0  0
 11 37  1  0  0  0  0
 11 38  1  0  0  0  0
 12 13  1  0  0  0  0
 12 39  1  0  0  0  0
 12 40  1  0  0  0  0
 13 41  1  0  0  0  0
 13 42  1  0  0  0  0
 14 15  1  0  0  0  0
 15 22  1  0  0  0  0
 15 16  2  0  0  0  0
 16 17  1  0  0  0  0
 17 18  2  0  0  0  0
 17 19  1  0  0  0  0
 19 20  1  0  0  0  0
 20 21  2  0  0  0  0
 20 22  1  0  0  0  0
 22 23  1  0  0  0  0
 23 43  1  0  0  0  0
 23 44  1  0  0  0  0
 23 45  1  0  0  0  0
M  CHG  1  19  -1
M  END
> <s_m_source_file>
AV-unprocessed.smi

> <i_m_source_file_index>
536

> <i_lp_mmshare_version>
43012

> <i_f3d_flags>
0

> <s_epik_input>
W0NIM11uMWMoPU8pW25IXWMoPU8pYyhjMTIpbihbQ0gyXVtDSDJdT1tDSDNdKWMobjIpTjNbQ0gyXVtDSDJdW0NIMl1bQ0gyXVtDSDJdW0NIMl0z

> <s_epik_cmdline>
J2VwaWtfcHl0aG9uJywgJy1waCcsICc3LjAnLCAnLXRuJywgJzgnLCAnLW1hJywgJzIwMCcsICctbWV0YWxfYmluZGluZycsICctaW1hZScsICc8aW5maWxlLm1hZT4nLCAnLW9tYWUnLCAnPG91dGZpbGUubWFlPic=

> <r_lp_tautomer_probability>
1

> <r_epik_Ionization_Penalty>
6.16859

> <r_epik_Ionization_Penalty_Charging>
0.0798692

> <r_epik_Ionization_Penalty_Neutral>
6.08873

> <r_epik_State_Penalty>
6.08498

> <r_epik_Charging_Adjusted_Penalty>
6.16485

> <i_epik_Tot_Q>
-1

> <i_epik_Tot_abs_Q>
1

> <r_epik_Metal_State_Penalty>
2.03194

> <b_epik_Metal_Only>
1

> <s_lp_Force_Field>
OPLS_2005

> <r_lp_Energy>
48.7455

> <b_lp_Chiralities_Consistent>
1

> <s_lp_Variant>
AV-unprocessed.smi:536-2

> <Gold.Version>
5.8.1

> <Gold.Id.Protein>
6NUR|6NUR_protein|mol2

> <Gold.PLP.Fitness>
45.3328

> <Gold.PLP.PLP>
-40.0867

> <Gold.PLP.part.hbond>
-2.0000

> <Gold.PLP.part.metal>
0.0000

> <Gold.PLP.part.buried>
-3.0678

> <Gold.PLP.part.nonpolar>
-33.7998

> <Gold.PLP.part.repulsive>
0.0510

> <Gold.PLP.ligand.clash>
0.0000

> <Gold.PLP.ligand.torsion>
0.6233

> <Gold.PLP.Chemscore.Hbond>
1.8960

> <Gold.PLP.Chemscore.CHOScore>
0.0000

> <Gold.PLP.Chemscore.Metal>
0.0000

> <Gold.Chemscore.Hbonds>
donor molecule, donor type, donor heavy atom, donor atom, acceptor molecule, acceptor atom, score
      P1  H  6896  6908       L1    18  1.00
      P1  H  7997  8010       L1     2  1.00

> <Gold.PLP.Chemscore.Internal.Correction>
0.8046

> <Gold.Rescore>
     Score         DG    S(hbond)    S(metal)    S(lipo)     H(rot)  DE(clash)    DE(int)     intcor
     18.06     -19.02       1.81        0.00      95.40       1.44       0.00       0.96       ----

> <Gold.Chemscore.Fitness>
18.0584

> <Gold.Chemscore.DG>
-19.0185

> <Gold.Chemscore.ZeroCoef>
-5.4800

> <Gold.Chemscore.Hbond>
1.8133

> <Gold.Chemscore.Metal>
0.0000

> <Gold.Chemscore.Lipo>
95.3982

> <Gold.Chemscore.Internal_Hbond>
0.0000

> <Gold.Chemscore.DEClash>
0.0038

> <Gold.Chemscore.DEInternal>
0.9564

> <Gold.Chemscore.Rot>
1.4372

> <Gold.Chemscore.Internal.Correction>
   9.000000E+99

> <Gold.Chemscore.Hbonds>
donor molecule, donor type, donor heavy atom, donor atom, acceptor molecule, acceptor atom, score
      P1  H  6896  6908       L1    18  0.99
      P1  H  7997  8010       L1     2  0.25

> <Gold.Chemscore.Hbond.Weighted>
-6.0563

> <Gold.Chemscore.Metal.Weighted>
-0.0000

> <Gold.Chemscore.Lipo.Weighted>
-11.1616

> <Gold.Chemscore.Internal_Hbond.Weighted>
0.0000

> <Gold.Chemscore.DEClash.Weighted>
0.0038

> <Gold.Chemscore.DEInternal.Weighted>
0.9564

> <Gold.Chemscore.Rot.Weighted>
3.6793

> <Gold.Chemscore.Internal.Correction.Weighted>
   9.000000E+99

> <Gold.Protein.RotatedTorsions>
[ 6907 6896 6895 6894 ] final  -72.01 input  -60.11 | X-H torsion
[ 7974 7965 7964 7962 ] final   77.26 input  175.53 | X-H torsion
[ 8008 7997 7996 7995 ] final   61.76 input   59.86 | X-H torsion
[ 10167 10162 10161 10158 ] final  -23.20 input  -65.29 | X-H torsion
[ 10718 10713 10712 10709 ] final  -96.41 input   66.30 | X-H torsion
[ 10763 10752 10751 10750 ] final  -85.74 input  -60.55 | X-H torsion
[ 11005 11000 10999 10996 ] final -165.30 input  -57.11 | X-H torsion

> <Gold.Protein.ActiveResidues>
 VAL166  LYS551  ARG553  GLY616  TRP617  ASP618  TYR619  PRO620  LYS621  CYS622 
 ASP623  PHE694  ASN695  SER759  ASP760  ASP761  ALA762  ILE779  LEU786  VAL792 
 PHE793  MET794  SER795  GLU796  ALA797  LYS798  CYS799  TRP800  GLU811  SER814 

> <Gold.Protein.RotatedAtoms>
  150.7187  134.5224  159.5660 H   0  0  0  0  0  0  0  0  0  0  0  0  # atno 6907 bound_to 6896
  152.2776  134.7861  160.0411 H   0  0  0  0  0  0  0  0  0  0  0  0  # atno 6908 bound_to 6896
  151.8519  133.3406  159.3712 H   0  0  0  0  0  0  0  0  0  0  0  0  # atno 6909 bound_to 6896
  145.6922  139.2556  143.1753 H   0  0  0  0  0  0  0  0  0  0  0  0  # atno 7974 bound_to 7965
  155.6035  140.3494  155.4601 H   0  0  0  0  0  0  0  0  0  0  0  0  # atno 8008 bound_to 7997
  156.0210  140.1253  157.0382 H   0  0  0  0  0  0  0  0  0  0  0  0  # atno 8009 bound_to 7997
  154.4315  140.1062  156.5949 H   0  0  0  0  0  0  0  0  0  0  0  0  # atno 8010 bound_to 7997
  140.7287  143.4465  151.0580 H   0  0  0  0  0  0  0  0  0  0  0  0  # atno 10167 bound_to 10162
  156.0061  130.5150  150.6221 H   0  0  0  0  0  0  0  0  0  0  0  0  # atno 10718 bound_to 10713
  154.6145  135.5474  153.7508 H   0  0  0  0  0  0  0  0  0  0  0  0  # atno 10763 bound_to 10752
  153.0210  135.6397  154.1530 H   0  0  0  0  0  0  0  0  0  0  0  0  # atno 10764 bound_to 10752
  154.1467  135.2905  155.3126 H   0  0  0  0  0  0  0  0  0  0  0  0  # atno 10765 bound_to 10752
  140.5773  134.5177  157.5172 H   0  0  0  0  0  0  0  0  0  0  0  0  # atno 11005 bound_to 11000
  146.0871  140.7698  142.9613 LP  0  0  0  0  0  0  0  0  0  0  0  0  # atno 17320 bound_to 7965
  144.6993  140.3579  143.7169 LP  0  0  0  0  0  0  0  0  0  0  0  0  # atno 17321 bound_to 7965
  139.8137  143.7916  152.3173 LP  0  0  0  0  0  0  0  0  0  0  0  0  # atno 17342 bound_to 10162
  139.7974  144.7387  150.9871 LP  0  0  0  0  0  0  0  0  0  0  0  0  # atno 17343 bound_to 10162
  157.4035  131.0813  151.1287 LP  0  0  0  0  0  0  0  0  0  0  0  0  # atno 17370 bound_to 10713
  157.1941  130.6365  149.5715 LP  0  0  0  0  0  0  0  0  0  0  0  0  # atno 17371 bound_to 10713
  139.9334  134.7921  156.0869 LP  0  0  0  0  0  0  0  0  0  0  0  0  # atno 17394 bound_to 11000
  141.1018  133.6674  156.2773 LP  0  0  0  0  0  0  0  0  0  0  0  0  # atno 17395 bound_to 11000

$$$$
