AV-unprocessed.smi:2313|AV-procd|sdf|9264|dock4
  -GOLD-   2272012483D 1   1.00000     0.00000
 Structure written by MMmdl.
 37 38  0  0  0  0  0  0  0  0  1 V2000
  152.3640  143.3474  161.6666 C   0  0  0  0  0  0  0  0  0  0  0  0
  152.1038  142.7333  160.3036 C   0  0  0  0  0  0  0  0  0  0  0  0
  151.0880  143.2941  159.4370 C   0  0  0  0  0  0  0  0  0  0  0  0
  150.8761  142.7438  158.2321 C   0  0  0  0  0  0  0  0  0  0  0  0
  151.6106  141.6326  157.7827 N   0  0  0  0  0  0  0  0  0  0  0  0
  151.2859  141.1101  156.4449 C   0  0  0  0  0  0  0  0  0  0  0  0
  149.8222  140.6680  156.3096 C   0  0  0  0  0  0  0  0  0  0  0  0
  149.4161  139.6638  156.8945 O   0  0  0  0  0  0  0  0  0  0  0  0
  149.0423  141.4569  155.5510 N   0  0  0  0  0  0  0  0  0  0  0  0
  147.6160  141.3003  155.2353 C   0  0  1  0  0  0  0  0  0  0  0  0
  147.2280  142.5327  154.4018 C   0  0  0  0  0  0  0  0  0  0  0  0
  147.3656  140.1043  154.4065 C   0  0  0  0  0  0  0  0  0  0  0  0
  147.1665  139.1677  153.7562 N   0  0  0  0  0  0  0  0  0  0  0  0
  146.6863  141.2234  156.4485 C   0  0  0  0  0  0  0  0  0  0  0  0
  145.2159  141.5656  156.3621 C   0  0  0  0  0  0  0  0  0  0  0  0
  146.1462  142.4310  157.1827 C   0  0  0  0  0  0  0  0  0  0  0  0
  152.5772  141.0451  158.5502 C   0  0  0  0  0  0  0  0  0  0  0  0
  153.2105  140.0647  158.1537 O   0  0  0  0  0  0  0  0  0  0  0  0
  152.8061  141.6603  159.8675 C   0  0  0  0  0  0  0  0  0  0  0  0
  153.8240  141.0541  160.6642 C   0  0  0  0  0  0  0  0  0  0  0  0
  154.6477  140.5798  161.3251 N   0  0  0  0  0  0  0  0  0  0  0  0
  151.6819  144.1750  161.8629 H   0  0  0  0  0  0  0  0  0  0  0  0
  153.3839  143.7287  161.7235 H   0  0  0  0  0  0  0  0  0  0  0  0
  152.2282  142.6046  162.4533 H   0  0  0  0  0  0  0  0  0  0  0  0
  150.5018  144.1442  159.7543 H   0  0  0  0  0  0  0  0  0  0  0  0
  150.1288  143.1113  157.5438 H   0  0  0  0  0  0  0  0  0  0  0  0
  151.4822  141.8644  155.6820 H   0  0  0  0  0  0  0  0  0  0  0  0
  151.9456  140.2762  156.1969 H   0  0  0  0  0  0  0  0  0  0  0  0
  149.4901  142.2581  155.1308 H   0  0  0  0  0  0  0  0  0  0  0  0
  146.1840  142.4869  154.0891 H   0  0  0  0  0  0  0  0  0  0  0  0
  147.8347  142.6073  153.4983 H   0  0  0  0  0  0  0  0  0  0  0  0
  147.3609  143.4553  154.9680 H   0  0  0  0  0  0  0  0  0  0  0  0
  146.9237  140.3805  157.0956 H   0  0  0  0  0  0  0  0  0  0  0  0
  144.8362  141.9824  155.4316 H   0  0  0  0  0  0  0  0  0  0  0  0
  144.5212  140.9234  156.8994 H   0  0  0  0  0  0  0  0  0  0  0  0
  146.0682  142.3613  158.2657 H   0  0  0  0  0  0  0  0  0  0  0  0
  146.3614  143.4254  156.8022 H   0  0  0  0  0  0  0  0  0  0  0  0
  1  2  1  0  0  0  0
  1 22  1  0  0  0  0
  1 23  1  0  0  0  0
  1 24  1  0  0  0  0
  2 19  2  0  0  0  0
  2  3  1  0  0  0  0
  3  4  2  0  0  0  0
  3 25  1  0  0  0  0
  4  5  1  0  0  0  0
  4 26  1  0  0  0  0
  5  6  1  0  0  0  0
  5 17  1  0  0  0  0
  6  7  1  0  0  0  0
  6 27  1  0  0  0  0
  6 28  1  0  0  0  0
  7  8  2  0  0  0  0
  7  9  1  0  0  0  0
  9 10  1  0  0  0  0
  9 29  1  0  0  0  0
 10 11  1  0  0  0  0
 10 12  1  0  0  0  0
 10 14  1  0  0  0  0
 11 30  1  0  0  0  0
 11 31  1  0  0  0  0
 11 32  1  0  0  0  0
 12 13  3  0  0  0  0
 14 16  1  0  0  0  0
 14 15  1  0  0  0  0
 14 33  1  0  0  0  0
 15 16  1  0  0  0  0
 15 34  1  0  0  0  0
 15 35  1  0  0  0  0
 16 36  1  0  0  0  0
 16 37  1  0  0  0  0
 17 18  2  0  0  0  0
 17 19  1  0  0  0  0
 19 20  1  0  0  0  0
 20 21  3  0  0  0  0
M  END
> <s_m_source_file>
AV-unprocessed.smi

> <i_m_source_file_index>
2313

> <i_lp_mmshare_version>
43012

> <i_f3d_flags>
0

> <s_epik_input>
W0NIM11jMVtjSF1bY0hdbihjKD1PKWMxQyNOKVtDSDJdQyg9TylbTkhdW0NAQF0oW0NIM10pKEMjTilbQ0hdMltDSDJdW0NIMl0y

> <s_epik_cmdline>
J2VwaWtfcHl0aG9uJywgJy1waCcsICc3LjAnLCAnLXRuJywgJzgnLCAnLW1hJywgJzIwMCcsICctbWV0YWxfYmluZGluZycsICctaW1hZScsICc8aW5maWxlLm1hZT4nLCAnLW9tYWUnLCAnPG91dGZpbGUubWFlPic=

> <r_lp_tautomer_probability>
1

> <r_epik_Ionization_Penalty>
4.65501e-07

> <r_epik_Ionization_Penalty_Charging>
2.39086e-10

> <r_epik_Ionization_Penalty_Neutral>
4.65262e-07

> <r_epik_State_Penalty>
-0

> <r_epik_Charging_Adjusted_Penalty>
2.39086e-10

> <i_epik_Tot_Q>
0

> <i_epik_Tot_abs_Q>
0

> <r_epik_Metal_State_Penalty>
-0

> <b_epik_Metal_Only>
0

> <s_lp_Force_Field>
OPLS_2005

> <r_lp_Energy>
24.9024

> <b_lp_Chiralities_Consistent>
1

> <s_lp_Variant>
AV-unprocessed.smi:2313-1

> <Gold.Version>
5.8.1

> <Gold.Id.Protein>
6NUR|6NUR_protein|mol2

> <Gold.PLP.Fitness>
42.5660

> <Gold.PLP.PLP>
-37.0583

> <Gold.PLP.part.hbond>
-1.8641

> <Gold.PLP.part.metal>
0.0000

> <Gold.PLP.part.buried>
-5.8712

> <Gold.PLP.part.nonpolar>
-29.1462

> <Gold.PLP.part.repulsive>
0.2966

> <Gold.PLP.ligand.clash>
0.0000

> <Gold.PLP.ligand.torsion>
0.8863

> <Gold.PLP.Chemscore.Hbond>
0.9280

> <Gold.PLP.Chemscore.CHOScore>
1.0000

> <Gold.PLP.Chemscore.Metal>
0.0000

> <Gold.Chemscore.Hbonds>
donor molecule, donor type, donor heavy atom, donor atom, acceptor molecule, acceptor atom, score
      P1  H  7997  8008       L1    18  1.00
      L1  C     4    26       P1  8028  0.42

> <Gold.PLP.Chemscore.Internal.Correction>
1.4964

> <Gold.Rescore>
     Score         DG    S(hbond)    S(metal)    S(lipo)     H(rot)  DE(clash)    DE(int)     intcor
     12.02     -12.87       0.92        0.00      76.20       1.80       0.05       0.81       ----

> <Gold.Chemscore.Fitness>
12.0160

> <Gold.Chemscore.DG>
-12.8674

> <Gold.Chemscore.ZeroCoef>
-5.4800

> <Gold.Chemscore.Hbond>
0.9187

> <Gold.Chemscore.Metal>
0.0000

> <Gold.Chemscore.Lipo>
76.1991

> <Gold.Chemscore.Internal_Hbond>
0.0000

> <Gold.Chemscore.DEClash>
0.0455

> <Gold.Chemscore.DEInternal>
0.8059

> <Gold.Chemscore.Rot>
1.7955

> <Gold.Chemscore.Internal.Correction>
   9.000000E+99

> <Gold.Chemscore.Hbonds>
donor molecule, donor type, donor heavy atom, donor atom, acceptor molecule, acceptor atom, score
      P1  H  7997  8008       L1    18  0.96

> <Gold.Chemscore.Hbond.Weighted>
-3.0686

> <Gold.Chemscore.Metal.Weighted>
-0.0000

> <Gold.Chemscore.Lipo.Weighted>
-8.9153

> <Gold.Chemscore.Internal_Hbond.Weighted>
0.0000

> <Gold.Chemscore.DEClash.Weighted>
0.0455

> <Gold.Chemscore.DEInternal.Weighted>
0.8059

> <Gold.Chemscore.Rot.Weighted>
4.5965

> <Gold.Chemscore.Internal.Correction.Weighted>
   9.000000E+99

> <Gold.Protein.RotatedTorsions>
[ 6907 6896 6895 6894 ] final -124.58 input  -60.11 | X-H torsion
[ 7974 7965 7964 7962 ] final   97.71 input  175.53 | X-H torsion
[ 8008 7997 7996 7995 ] final  -81.88 input   59.86 | X-H torsion
[ 10167 10162 10161 10158 ] final  -54.73 input  -65.29 | X-H torsion
[ 10718 10713 10712 10709 ] final -115.99 input   66.30 | X-H torsion
[ 10763 10752 10751 10750 ] final -133.58 input  -60.55 | X-H torsion
[ 11005 11000 10999 10996 ] final   83.29 input  -57.11 | X-H torsion

> <Gold.Protein.ActiveResidues>
 VAL166  LYS551  ARG553  GLY616  TRP617  ASP618  TYR619  PRO620  LYS621  CYS622 
 ASP623  PHE694  ASN695  SER759  ASP760  ASP761  ALA762  ILE779  LEU786  VAL792 
 PHE793  MET794  SER795  GLU796  ALA797  LYS798  CYS799  TRP800  GLU811  SER814 

> <Gold.Protein.RotatedAtoms>
  150.8782  133.7409  159.2939 H   0  0  0  0  0  0  0  0  0  0  0  0  # atno 6907 bound_to 6896
  151.4999  135.1060  159.9836 H   0  0  0  0  0  0  0  0  0  0  0  0  # atno 6908 bound_to 6896
  152.4742  133.8053  159.7030 H   0  0  0  0  0  0  0  0  0  0  0  0  # atno 6909 bound_to 6896
  145.4218  139.2320  143.3192 H   0  0  0  0  0  0  0  0  0  0  0  0  # atno 7974 bound_to 7965
  154.6028  140.0641  156.9392 H   0  0  0  0  0  0  0  0  0  0  0  0  # atno 8008 bound_to 7997
  155.2103  140.3322  155.4311 H   0  0  0  0  0  0  0  0  0  0  0  0  # atno 8009 bound_to 7997
  156.2329  140.1849  156.7179 H   0  0  0  0  0  0  0  0  0  0  0  0  # atno 8010 bound_to 7997
  140.6414  143.2510  151.4979 H   0  0  0  0  0  0  0  0  0  0  0  0  # atno 10167 bound_to 10162
  156.0933  130.6111  150.8978 H   0  0  0  0  0  0  0  0  0  0  0  0  # atno 10718 bound_to 10713
  154.8731  135.3761  154.4596 H   0  0  0  0  0  0  0  0  0  0  0  0  # atno 10763 bound_to 10752
  153.5265  135.7028  153.5709 H   0  0  0  0  0  0  0  0  0  0  0  0  # atno 10764 bound_to 10752
  153.3933  135.3967  155.1903 H   0  0  0  0  0  0  0  0  0  0  0  0  # atno 10765 bound_to 10752
  139.9036  134.8133  156.2289 H   0  0  0  0  0  0  0  0  0  0  0  0  # atno 11005 bound_to 11000
  146.2652  140.4944  142.8837 LP  0  0  0  0  0  0  0  0  0  0  0  0  # atno 17320 bound_to 7965
  144.8240  140.6598  143.6334 LP  0  0  0  0  0  0  0  0  0  0  0  0  # atno 17321 bound_to 7965
  139.5623  144.2126  152.1711 LP  0  0  0  0  0  0  0  0  0  0  0  0  # atno 17342 bound_to 10162
  140.1397  144.5213  150.6751 LP  0  0  0  0  0  0  0  0  0  0  0  0  # atno 17343 bound_to 10162
  157.6088  131.0937  150.8832 LP  0  0  0  0  0  0  0  0  0  0  0  0  # atno 17370 bound_to 10713
  156.8975  130.5235  149.5284 LP  0  0  0  0  0  0  0  0  0  0  0  0  # atno 17371 bound_to 10713
  141.0358  133.6964  156.1510 LP  0  0  0  0  0  0  0  0  0  0  0  0  # atno 17394 bound_to 11000
  140.7029  134.4545  157.5585 LP  0  0  0  0  0  0  0  0  0  0  0  0  # atno 17395 bound_to 11000

$$$$
