AV-unprocessed.smi:1634|AV-procd|sdf|6537|dock5
  -GOLD-   22720 7223D 1   1.00000     0.00000
 Structure written by MMmdl.
 38 38  0  0  0  0  0  0  0  0  1 V2000
  147.9232  136.3043  162.5278 C   0  0  0  0  0  0  0  0  0  0  0  0
  147.4161  135.9204  161.1287 C   0  0  0  0  0  0  0  0  0  0  0  0
  147.6079  134.4183  160.8729 C   0  0  0  0  0  0  0  0  0  0  0  0
  148.0962  136.7575  160.0334 C   0  0  0  0  0  0  0  0  0  0  0  0
  147.4451  136.5204  158.7895 O   0  0  0  0  0  0  0  0  0  0  0  0
  148.0707  137.1013  157.6484 C   0  0  1  0  0  0  0  0  0  0  0  0
  147.1769  136.8157  156.4323 C   0  0  0  0  0  0  0  0  0  0  0  0
  148.2644  138.6119  157.8581 C   0  0  0  0  0  0  0  0  0  0  0  0
  147.2827  139.3218  158.0745 O   0  0  0  0  0  0  0  0  0  0  0  0
  149.5423  139.0384  157.8163 N   0  0  0  0  0  0  0  0  0  0  0  0
  150.0683  140.3313  157.9816 C   0  0  0  0  0  0  0  0  0  0  0  0
  151.0718  140.6668  158.8346 C   0  0  0  0  0  0  0  0  0  0  0  0
  151.5628  142.0297  158.9509 C   0  0  0  0  0  0  0  0  0  0  0  0
  152.6474  142.4016  159.9502 C   0  0  0  0  0  0  0  0  0  0  0  0
  152.1668  143.1805  160.9202 F   0  0  0  0  0  0  0  0  0  0  0  0
  153.1747  141.3128  160.5105 F   0  0  0  0  0  0  0  0  0  0  0  0
  153.6243  143.0636  159.3318 F   0  0  0  0  0  0  0  0  0  0  0  0
  150.9530  142.9549  158.1874 C   0  0  0  0  0  0  0  0  0  0  0  0
  149.9230  142.6188  157.3063 N   0  0  0  0  0  0  0  0  0  0  0  0
  149.4347  141.3682  157.1498 C   0  0  0  0  0  0  0  0  0  0  0  0
  148.5208  141.1540  156.3540 O   0  0  0  0  0  0  0  0  0  0  0  0
  149.5237  143.3682  156.7597 H   0  0  0  0  0  0  0  0  0  0  0  0
  148.9953  136.1284  162.6231 H   0  0  0  0  0  0  0  0  0  0  0  0
  147.4203  135.7231  163.3012 H   0  0  0  0  0  0  0  0  0  0  0  0
  147.7395  137.3578  162.7404 H   0  0  0  0  0  0  0  0  0  0  0  0
  146.3455  136.1254  161.0907 H   0  0  0  0  0  0  0  0  0  0  0  0
  148.6632  134.1440  160.8942 H   0  0  0  0  0  0  0  0  0  0  0  0
  147.2088  134.1307  159.8998 H   0  0  0  0  0  0  0  0  0  0  0  0
  147.0937  133.8224  161.6274 H   0  0  0  0  0  0  0  0  0  0  0  0
  148.0662  137.8131  160.3058 H   0  0  0  0  0  0  0  0  0  0  0  0
  149.1465  136.4752  159.9467 H   0  0  0  0  0  0  0  0  0  0  0  0
  149.0369  136.6209  157.4820 H   0  0  0  0  0  0  0  0  0  0  0  0
  147.5893  137.2592  155.5253 H   0  0  0  0  0  0  0  0  0  0  0  0
  146.1698  137.2106  156.5716 H   0  0  0  0  0  0  0  0  0  0  0  0
  147.0879  135.7426  156.2622 H   0  0  0  0  0  0  0  0  0  0  0  0
  150.2402  138.3216  157.6777 H   0  0  0  0  0  0  0  0  0  0  0  0
  151.5395  139.9300  159.4655 H   0  0  0  0  0  0  0  0  0  0  0  0
  151.1980  144.0069  158.1932 H   0  0  0  0  0  0  0  0  0  0  0  0
  1  2  1  0  0  0  0
  1 23  1  0  0  0  0
  1 24  1  0  0  0  0
  1 25  1  0  0  0  0
  2  3  1  0  0  0  0
  2  4  1  0  0  0  0
  2 26  1  0  0  0  0
  3 27  1  0  0  0  0
  3 28  1  0  0  0  0
  3 29  1  0  0  0  0
  4  5  1  0  0  0  0
  4 30  1  0  0  0  0
  4 31  1  0  0  0  0
  5  6  1  0  0  0  0
  6  7  1  0  0  0  0
  6  8  1  0  0  0  0
  6 32  1  0  0  0  0
  7 33  1  0  0  0  0
  7 34  1  0  0  0  0
  7 35  1  0  0  0  0
  8  9  2  0  0  0  0
  8 10  1  0  0  0  0
 10 11  1  0  0  0  0
 10 36  1  0  0  0  0
 11 20  1  0  0  0  0
 11 12  2  0  0  0  0
 12 13  1  0  0  0  0
 12 37  1  0  0  0  0
 13 14  1  0  0  0  0
 13 18  2  0  0  0  0
 14 15  1  0  0  0  0
 14 16  1  0  0  0  0
 14 17  1  0  0  0  0
 18 19  1  0  0  0  0
 18 38  1  0  0  0  0
 19 22  1  0  0  0  0
 19 20  1  0  0  0  0
 20 21  2  0  0  0  0
M  END
> <s_m_source_file>
AV-unprocessed.smi

> <i_m_source_file_index>
1634

> <i_lp_mmshare_version>
43012

> <i_f3d_flags>
0

> <s_epik_input>
W0NIM11bQ0hdKFtDSDNdKVtDSDJdT1tDQEhdKFtDSDNdKUMoPU8pW05IXWMxW2NIXWMoQyhGKShGKUYpW2NIXVtuSF1jMT1P

> <s_epik_cmdline>
J2VwaWtfcHl0aG9uJywgJy1waCcsICc3LjAnLCAnLXRuJywgJzgnLCAnLW1hJywgJzIwMCcsICctbWV0YWxfYmluZGluZycsICctaW1hZScsICc8aW5maWxlLm1hZT4nLCAnLW9tYWUnLCAnPG91dGZpbGUubWFlPic=

> <r_lp_tautomer_probability>
0.999

> <r_epik_Ionization_Penalty>
0.00884964

> <r_epik_Ionization_Penalty_Charging>
0.00884955

> <r_epik_Ionization_Penalty_Neutral>
9.33956e-08

> <r_epik_State_Penalty>
0.00669049

> <r_epik_Charging_Adjusted_Penalty>
0.01554

> <i_epik_Tot_Q>
0

> <i_epik_Tot_abs_Q>
0

> <r_epik_Metal_State_Penalty>
0.320763

> <b_epik_Metal_Only>
0

> <s_lp_Force_Field>
OPLS_2005

> <r_lp_Energy>
19.8034

> <b_lp_Chiralities_Consistent>
1

> <s_lp_Variant>
AV-unprocessed.smi:1634-2

> <Gold.Version>
5.8.1

> <Gold.Id.Protein>
6NUR|6NUR_protein|mol2

> <Gold.PLP.Fitness>
37.1021

> <Gold.PLP.PLP>
-35.2519

> <Gold.PLP.part.hbond>
-2.0000

> <Gold.PLP.part.metal>
0.0000

> <Gold.PLP.part.buried>
-4.9135

> <Gold.PLP.part.nonpolar>
-27.9435

> <Gold.PLP.part.repulsive>
0.2002

> <Gold.PLP.ligand.clash>
0.0000

> <Gold.PLP.ligand.torsion>
0.6497

> <Gold.PLP.Chemscore.Hbond>
1.0000

> <Gold.PLP.Chemscore.CHOScore>
0.0000

> <Gold.PLP.Chemscore.Metal>
0.0000

> <Gold.Chemscore.Hbonds>
donor molecule, donor type, donor heavy atom, donor atom, acceptor molecule, acceptor atom, score
      L1  H    19    22       P1  8028  1.00

> <Gold.PLP.Chemscore.Internal.Correction>
0.1496

> <Gold.Rescore>
     Score         DG    S(hbond)    S(metal)    S(lipo)     H(rot)  DE(clash)    DE(int)     intcor
     11.37     -12.08       0.99        0.00      67.31       1.79       0.02       0.69       ----

> <Gold.Chemscore.Fitness>
11.3662

> <Gold.Chemscore.DG>
-12.0822

> <Gold.Chemscore.ZeroCoef>
-5.4800

> <Gold.Chemscore.Hbond>
0.9886

> <Gold.Chemscore.Metal>
0.0000

> <Gold.Chemscore.Lipo>
67.3148

> <Gold.Chemscore.Internal_Hbond>
0.0000

> <Gold.Chemscore.DEClash>
0.0249

> <Gold.Chemscore.DEInternal>
0.6911

> <Gold.Chemscore.Rot>
1.7873

> <Gold.Chemscore.Internal.Correction>
   9.000000E+99

> <Gold.Chemscore.Hbonds>
donor molecule, donor type, donor heavy atom, donor atom, acceptor molecule, acceptor atom, score
      L1  H    19    22       P1  8028  1.00

> <Gold.Chemscore.Hbond.Weighted>
-3.3018

> <Gold.Chemscore.Metal.Weighted>
-0.0000

> <Gold.Chemscore.Lipo.Weighted>
-7.8758

> <Gold.Chemscore.Internal_Hbond.Weighted>
0.0000

> <Gold.Chemscore.DEClash.Weighted>
0.0249

> <Gold.Chemscore.DEInternal.Weighted>
0.6911

> <Gold.Chemscore.Rot.Weighted>
4.5755

> <Gold.Chemscore.Internal.Correction.Weighted>
   9.000000E+99

> <Gold.Protein.RotatedTorsions>
[ 6907 6896 6895 6894 ] final  -51.29 input  -60.11 | X-H torsion
[ 7974 7965 7964 7962 ] final  -22.09 input  175.53 | X-H torsion
[ 8008 7997 7996 7995 ] final  153.22 input   59.86 | X-H torsion
[ 10167 10162 10161 10158 ] final  100.51 input  -65.29 | X-H torsion
[ 10718 10713 10712 10709 ] final  146.74 input   66.30 | X-H torsion
[ 10763 10752 10751 10750 ] final   27.45 input  -60.55 | X-H torsion
[ 11005 11000 10999 10996 ] final  -33.38 input  -57.11 | X-H torsion

> <Gold.Protein.ActiveResidues>
 VAL166  LYS551  ARG553  GLY616  TRP617  ASP618  TYR619  PRO620  LYS621  CYS622 
 ASP623  PHE694  ASN695  SER759  ASP760  ASP761  ALA762  ILE779  LEU786  VAL792 
 PHE793  MET794  SER795  GLU796  ALA797  LYS798  CYS799  TRP800  GLU811  SER814 

> <Gold.Protein.RotatedAtoms>
  150.8626  134.7981  159.7093 H   0  0  0  0  0  0  0  0  0  0  0  0  # atno 6907 bound_to 6896
  152.4658  134.5076  159.9753 H   0  0  0  0  0  0  0  0  0  0  0  0  # atno 6908 bound_to 6896
  151.5177  133.3434  159.2931 H   0  0  0  0  0  0  0  0  0  0  0  0  # atno 6909 bound_to 6896
  146.1696  140.4430  142.8538 H   0  0  0  0  0  0  0  0  0  0  0  0  # atno 7974 bound_to 7965
  156.2592  140.1999  156.6456 H   0  0  0  0  0  0  0  0  0  0  0  0  # atno 8008 bound_to 7997
  154.6576  140.0564  157.0051 H   0  0  0  0  0  0  0  0  0  0  0  0  # atno 8009 bound_to 7997
  155.1324  140.3235  155.4474 H   0  0  0  0  0  0  0  0  0  0  0  0  # atno 8010 bound_to 7997
  139.7520  144.6981  151.0418 H   0  0  0  0  0  0  0  0  0  0  0  0  # atno 10167 bound_to 10162
  157.3295  131.0918  151.1174 H   0  0  0  0  0  0  0  0  0  0  0  0  # atno 10718 bound_to 10713
  153.0555  135.6536  154.0588 H   0  0  0  0  0  0  0  0  0  0  0  0  # atno 10763 bound_to 10752
  154.0267  135.2915  155.3375 H   0  0  0  0  0  0  0  0  0  0  0  0  # atno 10764 bound_to 10752
  154.6868  135.5298  153.8404 H   0  0  0  0  0  0  0  0  0  0  0  0  # atno 10765 bound_to 10752
  140.9630  133.7153  156.1400 H   0  0  0  0  0  0  0  0  0  0  0  0  # atno 11005 bound_to 11000
  144.8143  140.6440  143.6395 LP  0  0  0  0  0  0  0  0  0  0  0  0  # atno 17320 bound_to 7965
  145.4376  139.1540  143.3988 LP  0  0  0  0  0  0  0  0  0  0  0  0  # atno 17321 bound_to 7965
  140.7799  143.4797  151.0034 LP  0  0  0  0  0  0  0  0  0  0  0  0  # atno 17342 bound_to 10162
  139.8485  143.7470  152.3178 LP  0  0  0  0  0  0  0  0  0  0  0  0  # atno 17343 bound_to 10162
  157.2428  130.6577  149.5897 LP  0  0  0  0  0  0  0  0  0  0  0  0  # atno 17370 bound_to 10713
  155.9694  130.4563  150.5920 LP  0  0  0  0  0  0  0  0  0  0  0  0  # atno 17371 bound_to 10713
  140.7440  134.4119  157.5551 LP  0  0  0  0  0  0  0  0  0  0  0  0  # atno 17394 bound_to 11000
  139.8884  134.8856  156.2473 LP  0  0  0  0  0  0  0  0  0  0  0  0  # atno 17395 bound_to 11000

$$$$
