AV-unprocessed.smi:82|AV-procd|sdf|797|dock5
  -GOLD-   2262017173D 1   1.00000     0.00000
 Structure written by MMmdl.
 59 62  0  0  0  0  0  0  0  0  2 V2000
  152.4199  142.8887  159.5381 C   0  0  0  0  0  0  0  0  0  0  0  0
  151.0400  142.6246  159.3521 O   0  0  0  0  0  0  0  0  0  0  0  0
  150.7162  142.3464  157.9999 C   0  0  0  0  0  0  0  0  0  0  0  0
  149.1998  142.1192  157.8892 C   0  0  0  0  0  0  0  0  0  0  0  0
  148.7578  141.8665  156.4874 N   0  3  1  0  0  0  0  0  0  0  0  0
  149.5156  140.7375  155.8750 C   0  0  0  0  0  0  0  0  0  0  0  0
  149.1265  140.5000  154.4071 C   0  0  0  0  0  0  0  0  0  0  0  0
  147.6872  140.3647  154.2501 N   0  0  0  0  0  0  0  0  0  0  0  0
  147.1872  139.1145  154.3618 C   0  0  0  0  0  0  0  0  0  0  0  0
  147.2018  138.4786  155.5614 N   0  0  0  0  0  0  0  0  0  0  0  0
  146.7075  137.2414  155.6651 C   0  0  0  0  0  0  0  0  0  0  0  0
  146.1631  136.4786  154.7147 N   0  0  0  0  0  0  0  0  0  0  0  0
  146.1456  137.1171  153.5085 C   0  0  0  0  0  0  0  0  0  0  0  0
  146.6348  138.4280  153.2497 C   0  0  0  0  0  0  0  0  0  0  0  0
  146.4536  138.7524  151.9125 N   0  0  0  0  0  0  0  0  0  0  0  0
  145.8876  137.6909  151.4055 C   0  0  0  0  0  0  0  0  0  0  0  0
  145.6650  136.6592  152.2916 N   0  0  0  0  0  0  0  0  0  0  0  0
  145.0633  135.3907  151.9876 C   0  0  0  0  0  0  0  0  0  0  0  0
  145.8594  134.0869  152.0721 C   0  0  0  0  0  0  0  0  0  0  0  0
  145.0230  133.5103  150.9060 C   0  0  0  0  0  0  0  0  0  0  0  0
  145.8397  132.7097  149.8764 C   0  0  0  0  0  0  0  0  0  0  0  0
  145.1035  132.4531  148.6983 O   0  0  0  0  0  0  0  0  0  0  0  0
  143.8150  132.6673  151.3661 C   0  0  0  0  0  0  0  0  0  0  0  0
  142.9188  132.3906  150.3094 O   0  0  0  0  0  0  0  0  0  0  0  0
  144.7366  134.9881  150.5494 C   0  0  0  0  0  0  0  0  0  0  0  0
  146.8985  141.4298  154.8517 C   0  0  0  0  0  0  0  0  0  0  0  0
  147.2757  141.7061  156.3275 C   0  0  2  0  0  0  0  0  0  0  0  0
  146.4787  142.9398  156.7988 C   0  0  0  0  0  0  0  0  0  0  0  0
  152.6156  143.0889  160.5916 H   0  0  0  0  0  0  0  0  0  0  0  0
  152.7355  143.7621  158.9656 H   0  0  0  0  0  0  0  0  0  0  0  0
  153.0290  142.0346  159.2389 H   0  0  0  0  0  0  0  0  0  0  0  0
  151.0579  143.1492  157.3470 H   0  0  0  0  0  0  0  0  0  0  0  0
  151.2376  141.4419  157.6832 H   0  0  0  0  0  0  0  0  0  0  0  0
  148.8936  141.2870  158.5244 H   0  0  0  0  0  0  0  0  0  0  0  0
  148.7257  143.0021  158.3096 H   0  0  0  0  0  0  0  0  0  0  0  0
  150.5868  140.9267  155.9131 H   0  0  0  0  0  0  0  0  0  0  0  0
  149.3437  139.8319  156.4574 H   0  0  0  0  0  0  0  0  0  0  0  0
  149.4573  141.3407  153.7962 H   0  0  0  0  0  0  0  0  0  0  0  0
  149.6343  139.6158  154.0187 H   0  0  0  0  0  0  0  0  0  0  0  0
  146.7545  136.7989  156.6492 H   0  0  0  0  0  0  0  0  0  0  0  0
  145.6161  137.6331  150.3612 H   0  0  0  0  0  0  0  0  0  0  0  0
  144.1651  135.3183  152.6039 H   0  0  0  0  0  0  0  0  0  0  0  0
  146.9132  134.2161  151.8221 H   0  0  0  0  0  0  0  0  0  0  0  0
  145.7521  133.5573  153.0193 H   0  0  0  0  0  0  0  0  0  0  0  0
  146.7359  133.2579  149.5840 H   0  0  0  0  0  0  0  0  0  0  0  0
  146.1835  131.7624  150.2928 H   0  0  0  0  0  0  0  0  0  0  0  0
  145.1634  133.2092  148.1347 H   0  0  0  0  0  0  0  0  0  0  0  0
  144.1396  131.7231  151.8048 H   0  0  0  0  0  0  0  0  0  0  0  0
  143.2513  133.1819  152.1445 H   0  0  0  0  0  0  0  0  0  0  0  0
  142.3435  133.1319  150.2000 H   0  0  0  0  0  0  0  0  0  0  0  0
  143.7109  135.2001  150.2467 H   0  0  0  0  0  0  0  0  0  0  0  0
  145.4439  135.3901  149.8222 H   0  0  0  0  0  0  0  0  0  0  0  0
  147.0555  142.3301  154.2566 H   0  0  0  0  0  0  0  0  0  0  0  0
  145.8364  141.1920  154.7705 H   0  0  0  0  0  0  0  0  0  0  0  0
  146.9659  140.8523  156.9313 H   0  0  0  0  0  0  0  0  0  0  0  0
  145.4333  142.8619  156.4983 H   0  0  0  0  0  0  0  0  0  0  0  0
  146.8752  143.8588  156.3658 H   0  0  0  0  0  0  0  0  0  0  0  0
  146.4694  143.0483  157.8821 H   0  0  0  0  0  0  0  0  0  0  0  0
  148.9990  142.6951  155.9624 H   0  0  0  0  0  0  0  0  0  0  0  0
  1  2  1  0  0  0  0
  1 29  1  0  0  0  0
  1 30  1  0  0  0  0
  1 31  1  0  0  0  0
  2  3  1  0  0  0  0
  3  4  1  0  0  0  0
  3 32  1  0  0  0  0
  3 33  1  0  0  0  0
  4  5  1  0  0  0  0
  4 34  1  0  0  0  0
  4 35  1  0  0  0  0
  5 27  1  0  0  0  0
  5  6  1  0  0  0  0
  5 59  1  0  0  0  0
  6  7  1  0  0  0  0
  6 36  1  0  0  0  0
  6 37  1  0  0  0  0
  7  8  1  0  0  0  0
  7 38  1  0  0  0  0
  7 39  1  0  0  0  0
  8  9  1  0  0  0  0
  8 26  1  0  0  0  0
  9 14  1  0  0  0  0
  9 10  2  0  0  0  0
 10 11  1  0  0  0  0
 11 12  2  0  0  0  0
 11 40  1  0  0  0  0
 12 13  1  0  0  0  0
 13 17  1  0  0  0  0
 13 14  2  0  0  0  0
 14 15  1  0  0  0  0
 15 16  2  0  0  0  0
 16 17  1  0  0  0  0
 16 41  1  0  0  0  0
 17 18  1  0  0  0  0
 18 25  1  0  0  0  0
 18 19  1  0  0  0  0
 18 42  1  0  0  0  0
 19 20  1  0  0  0  0
 19 43  1  0  0  0  0
 19 44  1  0  0  0  0
 20 21  1  0  0  0  0
 20 23  1  0  0  0  0
 20 25  1  0  0  0  0
 21 22  1  0  0  0  0
 21 45  1  0  0  0  0
 21 46  1  0  0  0  0
 22 47  1  0  0  0  0
 23 24  1  0  0  0  0
 23 48  1  0  0  0  0
 23 49  1  0  0  0  0
 24 50  1  0  0  0  0
 25 51  1  0  0  0  0
 25 52  1  0  0  0  0
 26 27  1  0  0  0  0
 26 53  1  0  0  0  0
 26 54  1  0  0  0  0
 27 28  1  0  0  0  0
 27 55  1  0  0  0  0
 28 56  1  0  0  0  0
 28 57  1  0  0  0  0
 28 58  1  0  0  0  0
M  CHG  1   5   1
M  END
> <s_m_source_file>
AV-unprocessed.smi

> <i_m_source_file_index>
82

> <i_lp_mmshare_version>
43012

> <i_f3d_flags>
0

> <s_epik_input>
W0NIM11PW0NIMl1bQ0gyXU4xW0NIMl1bQ0gyXU4oW0NIMl1bQ0BIXTFbQ0gzXSljKG5bY0hdbjIpYyhjMjMpbltjSF1uM1tDSF0oW0NIMl00KVtDSDJdQzQoW0NIMl1bT0hdKVtDSDJdW09IXQ==

> <s_epik_cmdline>
J2VwaWtfcHl0aG9uJywgJy1waCcsICc3LjAnLCAnLXRuJywgJzgnLCAnLW1hJywgJzIwMCcsICctbWV0YWxfYmluZGluZycsICctaW1hZScsICc8aW5maWxlLm1hZT4nLCAnLW9tYWUnLCAnPG91dGZpbGUubWFlPic=

> <r_lp_tautomer_probability>
1

> <r_epik_Ionization_Penalty>
0.304275

> <r_epik_Ionization_Penalty_Charging>
0.304214

> <r_epik_Ionization_Penalty_Neutral>
6.13137e-05

> <r_epik_State_Penalty>
0.300354

> <r_epik_Charging_Adjusted_Penalty>
0.604567

> <i_epik_Tot_Q>
1

> <i_epik_Tot_abs_Q>
1

> <r_epik_Metal_State_Penalty>
0.301147

> <b_epik_Metal_Only>
0

> <s_lp_Force_Field>
OPLS_2005

> <r_lp_Energy>
60.5055

> <b_lp_Chiralities_Consistent>
1

> <s_lp_Variant>
AV-unprocessed.smi:82-4

> <Gold.Version>
5.8.1

> <Gold.Id.Protein>
6NUR|6NUR_protein|mol2

> <Gold.PLP.Fitness>
53.8611

> <Gold.PLP.PLP>
-39.7486

> <Gold.PLP.part.hbond>
-5.4528

> <Gold.PLP.part.metal>
0.0000

> <Gold.PLP.part.buried>
-2.7306

> <Gold.PLP.part.nonpolar>
-31.2807

> <Gold.PLP.part.repulsive>
0.5379

> <Gold.PLP.ligand.clash>
0.0000

> <Gold.PLP.ligand.torsion>
0.4372

> <Gold.PLP.Chemscore.Hbond>
3.9745

> <Gold.PLP.Chemscore.CHOScore>
0.7362

> <Gold.PLP.Chemscore.Metal>
0.0000

> <Gold.Chemscore.Hbonds>
donor molecule, donor type, donor heavy atom, donor atom, acceptor molecule, acceptor atom, score
      L1  H     5    59       P1  8028  1.92
      L1  H    22    47       P1  7921  0.98
      L1  H    24    50       P1 10186  1.00
      L1  C    16    41       P1 10171  0.75

> <Gold.PLP.Chemscore.Internal.Correction>
0.8548

> <Gold.Rescore>
     Score         DG    S(hbond)    S(metal)    S(lipo)     H(rot)  DE(clash)    DE(int)     intcor
     12.07     -14.16       2.46        0.00      89.31       3.91       1.64       0.45       ----

> <Gold.Chemscore.Fitness>
12.0691

> <Gold.Chemscore.DG>
-14.1622

> <Gold.Chemscore.ZeroCoef>
-5.4800

> <Gold.Chemscore.Hbond>
2.4645

> <Gold.Chemscore.Metal>
0.0000

> <Gold.Chemscore.Lipo>
89.3050

> <Gold.Chemscore.Internal_Hbond>
0.0000

> <Gold.Chemscore.DEClash>
1.6383

> <Gold.Chemscore.DEInternal>
0.4548

> <Gold.Chemscore.Rot>
3.9055

> <Gold.Chemscore.Internal.Correction>
   9.000000E+99

> <Gold.Chemscore.Hbonds>
donor molecule, donor type, donor heavy atom, donor atom, acceptor molecule, acceptor atom, score
      L1  H     5    59       P1  8028  0.87
      L1  H    22    47       P1  7921  0.24
      L1  H    24    50       P1 10186  0.98

> <Gold.Chemscore.Hbond.Weighted>
-8.2315

> <Gold.Chemscore.Metal.Weighted>
-0.0000

> <Gold.Chemscore.Lipo.Weighted>
-10.4487

> <Gold.Chemscore.Internal_Hbond.Weighted>
0.0000

> <Gold.Chemscore.DEClash.Weighted>
1.6383

> <Gold.Chemscore.DEInternal.Weighted>
0.4548

> <Gold.Chemscore.Rot.Weighted>
9.9980

> <Gold.Chemscore.Internal.Correction.Weighted>
   9.000000E+99

> <Gold.Protein.RotatedTorsions>
[ 6907 6896 6895 6894 ] final -143.22 input  -60.11 | X-H torsion
[ 7974 7965 7964 7962 ] final   -0.75 input  175.53 | X-H torsion
[ 8008 7997 7996 7995 ] final  -43.53 input   59.86 | X-H torsion
[ 10167 10162 10161 10158 ] final   78.04 input  -65.29 | X-H torsion
[ 10718 10713 10712 10709 ] final  -23.03 input   66.30 | X-H torsion
[ 10763 10752 10751 10750 ] final -106.25 input  -60.55 | X-H torsion
[ 11005 11000 10999 10996 ] final  117.93 input  -57.11 | X-H torsion

> <Gold.Protein.ActiveResidues>
 VAL166  LYS551  ARG553  GLY616  TRP617  ASP618  TYR619  PRO620  LYS621  CYS622 
 ASP623  PHE694  ASN695  SER759  ASP760  ASP761  ALA762  ILE779  LEU786  VAL792 
 PHE793  MET794  SER795  GLU796  ALA797  LYS798  CYS799  TRP800  GLU811  SER814 

> <Gold.Protein.RotatedAtoms>
  151.0975  133.5268  159.2611 H   0  0  0  0  0  0  0  0  0  0  0  0  # atno 6907 bound_to 6896
  151.2112  135.0481  159.8922 H   0  0  0  0  0  0  0  0  0  0  0  0  # atno 6908 bound_to 6896
  152.5440  134.0791  159.8281 H   0  0  0  0  0  0  0  0  0  0  0  0  # atno 6909 bound_to 6896
  146.2424  140.1316  142.8337 H   0  0  0  0  0  0  0  0  0  0  0  0  # atno 7974 bound_to 7965
  154.3997  140.1445  156.3535 H   0  0  0  0  0  0  0  0  0  0  0  0  # atno 8008 bound_to 7997
  155.8247  140.3468  155.5515 H   0  0  0  0  0  0  0  0  0  0  0  0  # atno 8009 bound_to 7997
  155.8251  140.0904  157.1816 H   0  0  0  0  0  0  0  0  0  0  0  0  # atno 8010 bound_to 7997
  139.9751  144.5866  150.7950 H   0  0  0  0  0  0  0  0  0  0  0  0  # atno 10167 bound_to 10162
  156.4965  130.4578  149.6725 H   0  0  0  0  0  0  0  0  0  0  0  0  # atno 10718 bound_to 10713
  154.8000  135.4719  154.0253 H   0  0  0  0  0  0  0  0  0  0  0  0  # atno 10763 bound_to 10752
  153.1766  135.6834  153.8542 H   0  0  0  0  0  0  0  0  0  0  0  0  # atno 10764 bound_to 10752
  153.8106  135.3217  155.3378 H   0  0  0  0  0  0  0  0  0  0  0  0  # atno 10765 bound_to 10752
  139.9091  134.9615  156.7425 H   0  0  0  0  0  0  0  0  0  0  0  0  # atno 11005 bound_to 11000
  145.0321  140.8879  143.5103 LP  0  0  0  0  0  0  0  0  0  0  0  0  # atno 17320 bound_to 7965
  145.1382  139.2589  143.5504 LP  0  0  0  0  0  0  0  0  0  0  0  0  # atno 17321 bound_to 7965
  140.7508  143.2962  151.3198 LP  0  0  0  0  0  0  0  0  0  0  0  0  # atno 17342 bound_to 10162
  139.6451  144.0466  152.2585 LP  0  0  0  0  0  0  0  0  0  0  0  0  # atno 17343 bound_to 10162
  156.3375  130.7364  151.2304 LP  0  0  0  0  0  0  0  0  0  0  0  0  # atno 17370 bound_to 10713
  157.7468  131.0413  150.4639 LP  0  0  0  0  0  0  0  0  0  0  0  0  # atno 17371 bound_to 10713
  140.6838  133.9451  155.7925 LP  0  0  0  0  0  0  0  0  0  0  0  0  # atno 17394 bound_to 11000
  141.0491  134.0510  157.3806 LP  0  0  0  0  0  0  0  0  0  0  0  0  # atno 17395 bound_to 11000

$$$$
