AV-unprocessed.smi:326|AV-procd|sdf|2345|dock1
  -GOLD-   2262022253D 1   1.00000     0.00000
 Structure written by MMmdl.
 44 45  0  0  0  0  0  0  0  0  1 V2000
  153.1564  143.0632  162.3312 C   0  0  0  0  0  0  0  0  0  0  0  0
  153.0338  142.0094  161.3926 O   0  0  0  0  0  0  0  0  0  0  0  0
  153.9341  142.1425  160.3044 C   0  0  0  0  0  0  0  0  0  0  0  0
  153.5837  143.4066  159.5032 C   0  0  0  0  0  0  0  0  0  0  0  0
  152.1450  143.4983  159.2313 N   0  0  0  0  0  0  0  0  0  0  0  0
  151.6481  142.4490  158.4773 N   0  0  0  0  0  0  0  0  0  0  0  0
  150.3937  142.4103  158.1626 C   0  0  0  0  0  0  0  0  0  0  0  0
  149.8229  141.2982  157.3542 C   0  0  0  0  0  0  0  0  0  0  0  0
  150.2075  140.1347  157.4825 O   0  0  0  0  0  0  0  0  0  0  0  0
  148.8720  141.6619  156.4757 N   0  0  0  0  0  0  0  0  0  0  0  0
  148.1922  140.7776  155.5322 C   0  0  2  0  0  0  0  0  0  0  0  0
  148.2755  141.3366  154.0970 C   0  0  0  0  0  0  0  0  0  0  0  0
  147.4341  142.6139  153.9221 C   0  0  0  0  0  0  0  0  0  0  0  0
  145.9663  142.3893  154.3343 C   0  0  2  0  0  0  0  0  0  0  0  0
  145.1323  143.6667  154.1642 C   0  0  0  0  0  0  0  0  0  0  0  0
  145.8864  141.8547  155.7770 C   0  0  0  0  0  0  0  0  0  0  0  0
  146.7250  140.5763  155.9562 C   0  0  0  0  0  0  0  0  0  0  0  0
  149.4856  143.4593  158.5945 C   0  0  0  0  0  0  0  0  0  0  0  0
  149.9863  144.4804  159.3238 C   0  0  0  0  0  0  0  0  0  0  0  0
  151.4027  144.5522  159.6864 C   0  0  0  0  0  0  0  0  0  0  0  0
  151.8845  145.4774  160.3395 O   0  0  0  0  0  0  0  0  0  0  0  0
  152.4455  142.9139  163.1439 H   0  0  0  0  0  0  0  0  0  0  0  0
  152.9436  144.0285  161.8701 H   0  0  0  0  0  0  0  0  0  0  0  0
  154.1583  143.0937  162.7618 H   0  0  0  0  0  0  0  0  0  0  0  0
  154.9533  142.2243  160.6845 H   0  0  0  0  0  0  0  0  0  0  0  0
  153.8970  141.2585  159.6656 H   0  0  0  0  0  0  0  0  0  0  0  0
  153.9245  144.2903  160.0460 H   0  0  0  0  0  0  0  0  0  0  0  0
  154.1414  143.4133  158.5652 H   0  0  0  0  0  0  0  0  0  0  0  0
  148.6160  142.6384  156.4427 H   0  0  0  0  0  0  0  0  0  0  0  0
  148.6817  139.8023  155.5562 H   0  0  0  0  0  0  0  0  0  0  0  0
  149.3135  141.5331  153.8253 H   0  0  0  0  0  0  0  0  0  0  0  0
  147.9200  140.5785  153.3980 H   0  0  0  0  0  0  0  0  0  0  0  0
  147.8656  143.4209  154.5160 H   0  0  0  0  0  0  0  0  0  0  0  0
  147.4828  142.9404  152.8827 H   0  0  0  0  0  0  0  0  0  0  0  0
  145.5445  141.6318  153.6720 H   0  0  0  0  0  0  0  0  0  0  0  0
  145.5014  144.4695  154.8031 H   0  0  0  0  0  0  0  0  0  0  0  0
  144.0876  143.4901  154.4217 H   0  0  0  0  0  0  0  0  0  0  0  0
  145.1616  144.0208  153.1334 H   0  0  0  0  0  0  0  0  0  0  0  0
  146.2297  142.6203  156.4743 H   0  0  0  0  0  0  0  0  0  0  0  0
  144.8486  141.6469  156.0393 H   0  0  0  0  0  0  0  0  0  0  0  0
  146.2867  139.7779  155.3562 H   0  0  0  0  0  0  0  0  0  0  0  0
  146.6744  140.2384  156.9921 H   0  0  0  0  0  0  0  0  0  0  0  0
  148.4358  143.4317  158.3404 H   0  0  0  0  0  0  0  0  0  0  0  0
  149.3232  145.2683  159.6498 H   0  0  0  0  0  0  0  0  0  0  0  0
  1  2  1  0  0  0  0
  1 22  1  0  0  0  0
  1 23  1  0  0  0  0
  1 24  1  0  0  0  0
  2  3  1  0  0  0  0
  3  4  1  0  0  0  0
  3 25  1  0  0  0  0
  3 26  1  0  0  0  0
  4  5  1  0  0  0  0
  4 27  1  0  0  0  0
  4 28  1  0  0  0  0
  5 20  1  0  0  0  0
  5  6  1  0  0  0  0
  6  7  2  0  0  0  0
  7  8  1  0  0  0  0
  7 18  1  0  0  0  0
  8  9  2  0  0  0  0
  8 10  1  0  0  0  0
 10 11  1  0  0  0  0
 10 29  1  0  0  0  0
 11 17  1  0  0  0  0
 11 12  1  0  0  0  0
 11 30  1  0  0  0  0
 12 13  1  0  0  0  0
 12 31  1  0  0  0  0
 12 32  1  0  0  0  0
 13 14  1  0  0  0  0
 13 33  1  0  0  0  0
 13 34  1  0  0  0  0
 14 15  1  0  0  0  0
 14 16  1  0  0  0  0
 14 35  1  0  0  0  0
 15 36  1  0  0  0  0
 15 37  1  0  0  0  0
 15 38  1  0  0  0  0
 16 17  1  0  0  0  0
 16 39  1  0  0  0  0
 16 40  1  0  0  0  0
 17 41  1  0  0  0  0
 17 42  1  0  0  0  0
 18 19  2  0  0  0  0
 18 43  1  0  0  0  0
 19 20  1  0  0  0  0
 19 44  1  0  0  0  0
 20 21  2  0  0  0  0
M  END
> <s_m_source_file>
AV-unprocessed.smi

> <i_m_source_file_index>
326

> <i_lp_mmshare_version>
43012

> <i_f3d_flags>
0

> <s_epik_input>
W0NIM11PW0NIMl1bQ0gyXW4xbmMoW2NIXVtjSF1jMT1PKUMoPU8pW05IXVtDQEBIXTJbQ0gyXVtDSDJdW0NAQEhdKFtDSDNdKVtDSDJdW0NIMl0y

> <s_epik_cmdline>
J2VwaWtfcHl0aG9uJywgJy1waCcsICc3LjAnLCAnLXRuJywgJzgnLCAnLW1hJywgJzIwMCcsICctbWV0YWxfYmluZGluZycsICctaW1hZScsICc8aW5maWxlLm1hZT4nLCAnLW9tYWUnLCAnPG91dGZpbGUubWFlPic=

> <r_lp_tautomer_probability>
1

> <r_epik_Ionization_Penalty>
6.47102e-07

> <r_epik_Ionization_Penalty_Charging>
6.8576e-09

> <r_epik_Ionization_Penalty_Neutral>
6.40245e-07

> <r_epik_State_Penalty>
-0

> <r_epik_Charging_Adjusted_Penalty>
6.8576e-09

> <i_epik_Tot_Q>
0

> <i_epik_Tot_abs_Q>
0

> <r_epik_Metal_State_Penalty>
-0

> <b_epik_Metal_Only>
0

> <s_lp_Force_Field>
OPLS_2005

> <r_lp_Energy>
28.5252

> <b_lp_Chiralities_Consistent>
1

> <s_lp_Variant>
AV-unprocessed.smi:326-2

> <Gold.Version>
5.8.1

> <Gold.Id.Protein>
6NUR|6NUR_protein|mol2

> <Gold.PLP.Fitness>
38.8881

> <Gold.PLP.PLP>
-38.8247

> <Gold.PLP.part.hbond>
-0.4574

> <Gold.PLP.part.metal>
0.0000

> <Gold.PLP.part.buried>
-4.4532

> <Gold.PLP.part.nonpolar>
-32.8834

> <Gold.PLP.part.repulsive>
0.2278

> <Gold.PLP.ligand.clash>
0.0000

> <Gold.PLP.ligand.torsion>
0.6701

> <Gold.PLP.Chemscore.Hbond>
0.4225

> <Gold.PLP.Chemscore.CHOScore>
0.0000

> <Gold.PLP.Chemscore.Metal>
0.0000

> <Gold.Chemscore.Hbonds>
donor molecule, donor type, donor heavy atom, donor atom, acceptor molecule, acceptor atom, score
      L1  H    10    29       P1  8028  0.49

> <Gold.PLP.Chemscore.Internal.Correction>
0.1362

> <Gold.Rescore>
     Score         DG    S(hbond)    S(metal)    S(lipo)     H(rot)  DE(clash)    DE(int)     intcor
     12.47     -13.20       0.41        0.00      88.15       1.55       0.29       0.44       ----

> <Gold.Chemscore.Fitness>
12.4712

> <Gold.Chemscore.DG>
-13.2041

> <Gold.Chemscore.ZeroCoef>
-5.4800

> <Gold.Chemscore.Hbond>
0.4112

> <Gold.Chemscore.Metal>
0.0000

> <Gold.Chemscore.Lipo>
88.1454

> <Gold.Chemscore.Internal_Hbond>
0.0000

> <Gold.Chemscore.DEClash>
0.2899

> <Gold.Chemscore.DEInternal>
0.4429

> <Gold.Chemscore.Rot>
1.5478

> <Gold.Chemscore.Internal.Correction>
   9.000000E+99

> <Gold.Chemscore.Hbonds>
donor molecule, donor type, donor heavy atom, donor atom, acceptor molecule, acceptor atom, score
      L1  H    10    29       P1  8028  0.46

> <Gold.Chemscore.Hbond.Weighted>
-1.3733

> <Gold.Chemscore.Metal.Weighted>
-0.0000

> <Gold.Chemscore.Lipo.Weighted>
-10.3130

> <Gold.Chemscore.Internal_Hbond.Weighted>
0.0000

> <Gold.Chemscore.DEClash.Weighted>
0.2899

> <Gold.Chemscore.DEInternal.Weighted>
0.4429

> <Gold.Chemscore.Rot.Weighted>
3.9623

> <Gold.Chemscore.Internal.Correction.Weighted>
   9.000000E+99

> <Gold.Protein.RotatedTorsions>
[ 6907 6896 6895 6894 ] final -105.35 input  -60.11 | X-H torsion
[ 7974 7965 7964 7962 ] final   15.66 input  175.53 | X-H torsion
[ 8008 7997 7996 7995 ] final  174.43 input   59.86 | X-H torsion
[ 10167 10162 10161 10158 ] final -114.80 input  -65.29 | X-H torsion
[ 10718 10713 10712 10709 ] final  -18.49 input   66.30 | X-H torsion
[ 10763 10752 10751 10750 ] final   74.57 input  -60.55 | X-H torsion
[ 11005 11000 10999 10996 ] final   18.22 input  -57.11 | X-H torsion

> <Gold.Protein.ActiveResidues>
 VAL166  LYS551  ARG553  GLY616  TRP617  ASP618  TYR619  PRO620  LYS621  CYS622 
 ASP623  PHE694  ASN695  SER759  ASP760  ASP761  ALA762  ILE779  LEU786  VAL792 
 PHE793  MET794  SER795  GLU796  ALA797  LYS798  CYS799  TRP800  GLU811  SER814 

> <Gold.Protein.RotatedAtoms>
  150.7332  134.0140  159.3678 H   0  0  0  0  0  0  0  0  0  0  0  0  # atno 6907 bound_to 6896
  151.8101  135.0681  160.0421 H   0  0  0  0  0  0  0  0  0  0  0  0  # atno 6908 bound_to 6896
  152.3078  133.5685  159.5697 H   0  0  0  0  0  0  0  0  0  0  0  0  # atno 6909 bound_to 6896
  146.2272  139.8862  142.8562 H   0  0  0  0  0  0  0  0  0  0  0  0  # atno 7974 bound_to 7965
  156.0975  140.1434  156.9512 H   0  0  0  0  0  0  0  0  0  0  0  0  # atno 8008 bound_to 7997
  154.4681  140.0919  156.7118 H   0  0  0  0  0  0  0  0  0  0  0  0  # atno 8009 bound_to 7997
  155.4816  140.3445  155.4343 H   0  0  0  0  0  0  0  0  0  0  0  0  # atno 8010 bound_to 7997
  140.0970  143.4647  152.1835 H   0  0  0  0  0  0  0  0  0  0  0  0  # atno 10167 bound_to 10162
  156.5589  130.4720  149.6416 H   0  0  0  0  0  0  0  0  0  0  0  0  # atno 10718 bound_to 10713
  153.0595  135.5021  154.8061 H   0  0  0  0  0  0  0  0  0  0  0  0  # atno 10763 bound_to 10752
  154.6861  135.2976  154.9548 H   0  0  0  0  0  0  0  0  0  0  0  0  # atno 10764 bound_to 10752
  154.0318  135.6728  153.4834 H   0  0  0  0  0  0  0  0  0  0  0  0  # atno 10765 bound_to 10752
  140.4272  134.1457  155.7677 H   0  0  0  0  0  0  0  0  0  0  0  0  # atno 11005 bound_to 11000
  145.2463  141.0028  143.3907 LP  0  0  0  0  0  0  0  0  0  0  0  0  # atno 17320 bound_to 7965
  144.9411  139.4188  143.6448 LP  0  0  0  0  0  0  0  0  0  0  0  0  # atno 17321 bound_to 7965
  139.5692  144.7453  151.3937 LP  0  0  0  0  0  0  0  0  0  0  0  0  # atno 17342 bound_to 10162
  140.6998  143.7660  150.7385 LP  0  0  0  0  0  0  0  0  0  0  0  0  # atno 17343 bound_to 10162
  156.2817  130.7074  151.1900 LP  0  0  0  0  0  0  0  0  0  0  0  0  # atno 17370 bound_to 10713
  157.7372  131.0554  150.5366 LP  0  0  0  0  0  0  0  0  0  0  0  0  # atno 17371 bound_to 10713
  141.1760  133.8512  157.1419 LP  0  0  0  0  0  0  0  0  0  0  0  0  # atno 17394 bound_to 11000
  140.0159  134.9967  157.0492 LP  0  0  0  0  0  0  0  0  0  0  0  0  # atno 17395 bound_to 11000

$$$$
