AV-unprocessed.smi:1066|AV-procd|sdf|4671|dock9
  -GOLD-   22720 3183D 1   1.00000     0.00000
 Structure written by MMmdl.
 38 40  0  0  0  0  0  0  0  0  2 V2000
  150.3081  130.6506  154.6564 C   0  0  0  0  0  0  0  0  0  0  0  0
  150.1473  131.7160  155.7023 C   0  0  0  0  0  0  0  0  0  0  0  0
  150.3018  131.4025  156.9822 N   0  0  0  0  0  0  0  0  0  0  0  0
  150.0926  132.5823  157.7057 O   0  0  0  0  0  0  0  0  0  0  0  0
  149.8225  133.5554  156.8061 C   0  0  0  0  0  0  0  0  0  0  0  0
  149.4877  135.1750  157.2763 Cl  0  0  0  0  0  0  0  0  0  0  0  0
  149.8361  133.0954  155.5205 C   0  0  0  0  0  0  0  0  0  0  0  0
  149.5850  133.8358  154.2316 C   0  0  0  0  0  0  0  0  0  0  0  0
  148.2866  133.3356  153.5996 C   0  0  0  0  0  0  0  0  0  0  0  0
  147.7844  132.2772  153.9758 O   0  0  0  0  0  0  0  0  0  0  0  0
  147.7480  134.1117  152.6472 N   0  0  0  0  0  0  0  0  0  0  0  0
  146.4960  133.8343  151.9541 C   0  0  1  0  0  0  0  0  0  0  0  0
  145.6051  135.0542  151.7397 C   0  0  0  0  0  0  0  0  0  0  0  0
  144.6987  134.6063  150.5879 C   0  0  0  0  0  0  0  0  0  0  0  0
  145.4695  133.6126  149.7993 N   0  3  2  0  0  0  0  0  0  0  0  0
  144.7068  132.3837  149.4884 C   0  0  0  0  0  0  0  0  0  0  0  0
  143.2635  132.6441  149.1283 C   0  0  0  0  0  0  0  0  0  0  0  0
  143.6162  132.0804  150.4877 C   0  0  0  0  0  0  0  0  0  0  0  0
  146.7347  133.3566  150.5225 C   0  0  0  0  0  0  0  0  0  0  0  0
  149.6230  130.8103  153.8234 H   0  0  0  0  0  0  0  0  0  0  0  0
  150.1069  129.6578  155.0606 H   0  0  0  0  0  0  0  0  0  0  0  0
  151.3219  130.6483  154.2561 H   0  0  0  0  0  0  0  0  0  0  0  0
  149.5148  134.9122  154.3937 H   0  0  0  0  0  0  0  0  0  0  0  0
  150.4039  133.6910  153.5258 H   0  0  0  0  0  0  0  0  0  0  0  0
  148.2325  134.9632  152.4015 H   0  0  0  0  0  0  0  0  0  0  0  0
  145.9391  133.0669  152.4963 H   0  0  0  0  0  0  0  0  0  0  0  0
  145.0450  135.3369  152.6316 H   0  0  0  0  0  0  0  0  0  0  0  0
  146.2046  135.9122  151.4307 H   0  0  0  0  0  0  0  0  0  0  0  0
  143.7968  134.1459  150.9951 H   0  0  0  0  0  0  0  0  0  0  0  0
  144.3856  135.4436  149.9639 H   0  0  0  0  0  0  0  0  0  0  0  0
  145.2597  131.5768  149.0099 H   0  0  0  0  0  0  0  0  0  0  0  0
  142.9213  133.6768  149.0852 H   0  0  0  0  0  0  0  0  0  0  0  0
  142.7938  131.9690  148.4157 H   0  0  0  0  0  0  0  0  0  0  0  0
  143.3786  131.0341  150.6697 H   0  0  0  0  0  0  0  0  0  0  0  0
  143.5078  132.7381  151.3485 H   0  0  0  0  0  0  0  0  0  0  0  0
  147.5161  133.9526  150.0481 H   0  0  0  0  0  0  0  0  0  0  0  0
  147.0461  132.3119  150.4774 H   0  0  0  0  0  0  0  0  0  0  0  0
  145.7152  134.0409  148.9179 H   0  0  0  0  0  0  0  0  0  0  0  0
  1  2  1  0  0  0  0
  1 20  1  0  0  0  0
  1 21  1  0  0  0  0
  1 22  1  0  0  0  0
  2  7  1  0  0  0  0
  2  3  2  0  0  0  0
  3  4  1  0  0  0  0
  4  5  1  0  0  0  0
  5  6  1  0  0  0  0
  5  7  2  0  0  0  0
  7  8  1  0  0  0  0
  8  9  1  0  0  0  0
  8 23  1  0  0  0  0
  8 24  1  0  0  0  0
  9 10  2  0  0  0  0
  9 11  1  0  0  0  0
 11 12  1  0  0  0  0
 11 25  1  0  0  0  0
 12 19  1  0  0  0  0
 12 13  1  0  0  0  0
 12 26  1  0  0  0  0
 13 14  1  0  0  0  0
 13 27  1  0  0  0  0
 13 28  1  0  0  0  0
 14 15  1  0  0  0  0
 14 29  1  0  0  0  0
 14 30  1  0  0  0  0
 15 16  1  0  0  0  0
 15 19  1  0  0  0  0
 15 38  1  0  0  0  0
 16 18  1  0  0  0  0
 16 17  1  0  0  0  0
 16 31  1  0  0  0  0
 17 18  1  0  0  0  0
 17 32  1  0  0  0  0
 17 33  1  0  0  0  0
 18 34  1  0  0  0  0
 18 35  1  0  0  0  0
 19 36  1  0  0  0  0
 19 37  1  0  0  0  0
M  CHG  1  15   1
M  END
> <s_m_source_file>
AV-unprocessed.smi

> <i_m_source_file_index>
1066

> <i_lp_mmshare_version>
43012

> <i_f3d_flags>
0

> <s_epik_input>
W0NIM11jMW5vYyhDbCljMVtDSDJdQyg9TylbTkhdW0NAQEhdMltDSDJdW0NIMl1OKFtDSDJdMilbQ0hdM1tDSDJdW0NIMl0z

> <s_epik_cmdline>
J2VwaWtfcHl0aG9uJywgJy1waCcsICc3LjAnLCAnLXRuJywgJzgnLCAnLW1hJywgJzIwMCcsICctbWV0YWxfYmluZGluZycsICctaW1hZScsICc8aW5maWxlLm1hZT4nLCAnLW9tYWUnLCAnPG91dGZpbGUubWFlPic=

> <r_epik_Ionization_Penalty>
0.00108138

> <r_epik_Ionization_Penalty_Charging>
0.00108128

> <r_epik_Ionization_Penalty_Neutral>
9.66632e-08

> <r_epik_State_Penalty>
0.000708577

> <r_epik_Charging_Adjusted_Penalty>
0.00178986

> <i_epik_Tot_Q>
1

> <i_epik_Tot_abs_Q>
1

> <r_epik_Metal_State_Penalty>
-0

> <b_epik_Metal_Only>
0

> <s_lp_Force_Field>
OPLS_2005

> <r_lp_Energy>
31.8821

> <b_lp_Chiralities_Consistent>
1

> <s_lp_Variant>
AV-unprocessed.smi:1066-4

> <Gold.Version>
5.8.1

> <Gold.Id.Protein>
6NUR|6NUR_protein|mol2

> <Gold.PLP.Fitness>
40.5413

> <Gold.PLP.PLP>
-32.5044

> <Gold.PLP.part.hbond>
-3.0000

> <Gold.PLP.part.metal>
0.0000

> <Gold.PLP.part.buried>
0.1582

> <Gold.PLP.part.nonpolar>
-29.2797

> <Gold.PLP.part.repulsive>
0.1975

> <Gold.PLP.ligand.clash>
0.0031

> <Gold.PLP.ligand.torsion>
1.1132

> <Gold.PLP.Chemscore.Hbond>
3.0000

> <Gold.PLP.Chemscore.CHOScore>
0.0000

> <Gold.PLP.Chemscore.Metal>
0.0000

> <Gold.Chemscore.Hbonds>
donor molecule, donor type, donor heavy atom, donor atom, acceptor molecule, acceptor atom, score
      L1  H    11    25       P1  7948  0.96
      L1  H    15    38       P1  7921  1.00
      P1  H  6896  6909       L1     4  1.00

> <Gold.PLP.Chemscore.Internal.Correction>
1.2664

> <Gold.Rescore>
     Score         DG    S(hbond)    S(metal)    S(lipo)     H(rot)  DE(clash)    DE(int)     intcor
     18.47     -20.90       2.76        0.00      87.44       1.57       0.32       2.12       ----

> <Gold.Chemscore.Fitness>
18.4675

> <Gold.Chemscore.DG>
-20.9037

> <Gold.Chemscore.ZeroCoef>
-5.4800

> <Gold.Chemscore.Hbond>
2.7591

> <Gold.Chemscore.Metal>
0.0000

> <Gold.Chemscore.Lipo>
87.4387

> <Gold.Chemscore.Internal_Hbond>
0.0000

> <Gold.Chemscore.DEClash>
0.3188

> <Gold.Chemscore.DEInternal>
2.1173

> <Gold.Chemscore.Rot>
1.5711

> <Gold.Chemscore.Internal.Correction>
   9.000000E+99

> <Gold.Chemscore.Hbonds>
donor molecule, donor type, donor heavy atom, donor atom, acceptor molecule, acceptor atom, score
      L1  H    11    25       P1  7948  0.50
      L1  H    15    38       P1  7921  0.48
      P1  H  6896  6909       L1     4  0.56

> <Gold.Chemscore.Hbond.Weighted>
-9.2154

> <Gold.Chemscore.Metal.Weighted>
-0.0000

> <Gold.Chemscore.Lipo.Weighted>
-10.2303

> <Gold.Chemscore.Internal_Hbond.Weighted>
0.0000

> <Gold.Chemscore.DEClash.Weighted>
0.3188

> <Gold.Chemscore.DEInternal.Weighted>
2.1173

> <Gold.Chemscore.Rot.Weighted>
4.0221

> <Gold.Chemscore.Internal.Correction.Weighted>
   9.000000E+99

> <Gold.Protein.RotatedTorsions>
[ 6907 6896 6895 6894 ] final  -30.00 input  -60.11 | X-H torsion
[ 7974 7965 7964 7962 ] final -109.07 input  175.53 | X-H torsion
[ 8008 7997 7996 7995 ] final   22.36 input   59.86 | X-H torsion
[ 10167 10162 10161 10158 ] final  -49.36 input  -65.29 | X-H torsion
[ 10718 10713 10712 10709 ] final  171.98 input   66.30 | X-H torsion
[ 10763 10752 10751 10750 ] final   20.88 input  -60.55 | X-H torsion
[ 11005 11000 10999 10996 ] final  122.45 input  -57.11 | X-H torsion

> <Gold.Protein.ActiveResidues>
 VAL166  LYS551  ARG553  GLY616  TRP617  ASP618  TYR619  PRO620  LYS621  CYS622 
 ASP623  PHE694  ASN695  SER759  ASP760  ASP761  ALA762  ILE779  LEU786  VAL792 
 PHE793  MET794  SER795  GLU796  ALA797  LYS798  CYS799  TRP800  GLU811  SER814 

> <Gold.Protein.RotatedAtoms>
  151.1115  135.0029  159.8495 H   0  0  0  0  0  0  0  0  0  0  0  0  # atno 6907 bound_to 6896
  152.5443  134.1830  159.8653 H   0  0  0  0  0  0  0  0  0  0  0  0  # atno 6908 bound_to 6896
  151.1881  133.4639  159.2628 H   0  0  0  0  0  0  0  0  0  0  0  0  # atno 6909 bound_to 6896
  145.1850  140.8989  143.3458 H   0  0  0  0  0  0  0  0  0  0  0  0  # atno 7974 bound_to 7965
  154.9646  140.3082  155.5015 H   0  0  0  0  0  0  0  0  0  0  0  0  # atno 8008 bound_to 7997
  156.2973  140.2295  156.4673 H   0  0  0  0  0  0  0  0  0  0  0  0  # atno 8009 bound_to 7997
  154.7933  140.0438  157.1206 H   0  0  0  0  0  0  0  0  0  0  0  0  # atno 8010 bound_to 7997
  140.6688  143.2701  151.4204 H   0  0  0  0  0  0  0  0  0  0  0  0  # atno 10167 bound_to 10162
  156.9856  131.0132  151.2870 H   0  0  0  0  0  0  0  0  0  0  0  0  # atno 10718 bound_to 10713
  153.1041  135.6680  153.9619 H   0  0  0  0  0  0  0  0  0  0  0  0  # atno 10763 bound_to 10752
  153.9182  135.3017  155.3449 H   0  0  0  0  0  0  0  0  0  0  0  0  # atno 10764 bound_to 10752
  154.7462  135.5056  153.9283 H   0  0  0  0  0  0  0  0  0  0  0  0  # atno 10765 bound_to 10752
  139.9269  134.9641  156.8111 H   0  0  0  0  0  0  0  0  0  0  0  0  # atno 11005 bound_to 11000
  145.0098  139.3521  143.6126 LP  0  0  0  0  0  0  0  0  0  0  0  0  # atno 17320 bound_to 7965
  146.3446  139.9355  142.8748 LP  0  0  0  0  0  0  0  0  0  0  0  0  # atno 17321 bound_to 7965
  139.5948  144.1421  152.2131 LP  0  0  0  0  0  0  0  0  0  0  0  0  # atno 17342 bound_to 10162
  140.0787  144.5719  150.7138 LP  0  0  0  0  0  0  0  0  0  0  0  0  # atno 17343 bound_to 10162
  157.5495  130.8173  149.8128 LP  0  0  0  0  0  0  0  0  0  0  0  0  # atno 17370 bound_to 10713
  156.0227  130.3790  150.1913 LP  0  0  0  0  0  0  0  0  0  0  0  0  # atno 17371 bound_to 10713
  140.6311  133.9904  155.7662 LP  0  0  0  0  0  0  0  0  0  0  0  0  # atno 17394 bound_to 11000
  141.0832  134.0030  157.3354 LP  0  0  0  0  0  0  0  0  0  0  0  0  # atno 17395 bound_to 11000

$$$$
