AV-unprocessed.smi:1098|AV-procd|sdf|4753|dock3
  -GOLD-   22720 3293D 1   1.00000     0.00000
 Structure written by MMmdl.
 43 44  0  0  0  0  0  0  0  0  2 V2000
  152.3347  142.6361  159.3493 C   0  0  0  0  0  0  0  0  0  0  0  0
  151.3684  141.6085  158.7539 C   0  0  0  0  0  0  0  0  0  0  0  0
  151.2900  141.7402  156.9457 S   0  0  0  0  0  0  0  0  0  0  0  0
  150.7014  140.1984  156.3104 C   0  0  0  0  0  0  0  0  0  0  0  0
  150.4315  139.0889  157.1387 C   0  0  0  0  0  0  0  0  0  0  0  0
  149.9705  137.9035  156.5342 C   0  0  0  0  0  0  0  0  0  0  0  0
  149.7894  137.8742  155.1295 C   0  0  0  0  0  0  0  0  0  0  0  0
  149.3507  136.7370  154.3974 N   0  0  0  0  0  0  0  0  0  0  0  0
  148.9044  135.5567  154.8606 C   0  0  0  0  0  0  0  0  0  0  0  0
  148.7527  135.2652  156.0466 O   0  0  0  0  0  0  0  0  0  0  0  0
  148.6177  134.7185  153.8540 N   0  0  0  0  0  0  0  0  0  0  0  0
  148.1193  133.3551  154.0133 C   0  0  2  0  0  0  0  0  0  0  0  0
  149.2724  132.3524  153.8447 C   0  0  0  0  0  0  0  0  0  0  0  0
  148.7644  130.9031  153.9307 C   0  0  0  0  0  0  0  0  0  0  0  0
  147.6980  130.6505  152.9297 N   0  3  1  0  0  0  0  0  0  0  0  0
  147.2707  129.2351  152.9082 C   0  0  0  0  0  0  0  0  0  0  0  0
  146.5543  131.5831  153.0878 C   0  0  0  0  0  0  0  0  0  0  0  0
  147.0143  133.0472  152.9852 C   0  0  0  0  0  0  0  0  0  0  0  0
  150.1019  139.0426  154.4024 C   0  0  0  0  0  0  0  0  0  0  0  0
  150.5448  140.1838  154.9708 N   0  0  0  0  0  0  0  0  0  0  0  0
  152.3644  142.5571  160.4360 H   0  0  0  0  0  0  0  0  0  0  0  0
  152.0318  143.6527  159.0973 H   0  0  0  0  0  0  0  0  0  0  0  0
  153.3479  142.4849  158.9766 H   0  0  0  0  0  0  0  0  0  0  0  0
  151.6869  140.6018  159.0251 H   0  0  0  0  0  0  0  0  0  0  0  0
  150.3693  141.7577  159.1639 H   0  0  0  0  0  0  0  0  0  0  0  0
  150.5744  139.1245  158.2073 H   0  0  0  0  0  0  0  0  0  0  0  0
  149.7819  137.0443  157.1581 H   0  0  0  0  0  0  0  0  0  0  0  0
  149.3445  136.8499  153.3942 H   0  0  0  0  0  0  0  0  0  0  0  0
  148.7658  135.0434  152.9096 H   0  0  0  0  0  0  0  0  0  0  0  0
  147.7120  133.2406  155.0200 H   0  0  0  0  0  0  0  0  0  0  0  0
  149.7629  132.5076  152.8823 H   0  0  0  0  0  0  0  0  0  0  0  0
  150.0310  132.5218  154.6097 H   0  0  0  0  0  0  0  0  0  0  0  0
  149.5946  130.2164  153.7614 H   0  0  0  0  0  0  0  0  0  0  0  0
  148.3819  130.6982  154.9321 H   0  0  0  0  0  0  0  0  0  0  0  0
  146.8169  128.9485  153.8580 H   0  0  0  0  0  0  0  0  0  0  0  0
  148.1215  128.5783  152.7232 H   0  0  0  0  0  0  0  0  0  0  0  0
  146.5416  129.0650  152.1153 H   0  0  0  0  0  0  0  0  0  0  0  0
  145.8091  131.3816  152.3171 H   0  0  0  0  0  0  0  0  0  0  0  0
  146.0706  131.4087  154.0506 H   0  0  0  0  0  0  0  0  0  0  0  0
  146.1606  133.7090  153.1369 H   0  0  0  0  0  0  0  0  0  0  0  0
  147.3805  133.2423  151.9761 H   0  0  0  0  0  0  0  0  0  0  0  0
  149.9914  139.0649  153.3280 H   0  0  0  0  0  0  0  0  0  0  0  0
  148.1021  130.8403  152.0237 H   0  0  0  0  0  0  0  0  0  0  0  0
  1  2  1  0  0  0  0
  1 21  1  0  0  0  0
  1 22  1  0  0  0  0
  1 23  1  0  0  0  0
  2  3  1  0  0  0  0
  2 24  1  0  0  0  0
  2 25  1  0  0  0  0
  3  4  1  0  0  0  0
  4 20  1  0  0  0  0
  4  5  2  0  0  0  0
  5  6  1  0  0  0  0
  5 26  1  0  0  0  0
  6  7  2  0  0  0  0
  6 27  1  0  0  0  0
  7  8  1  0  0  0  0
  7 19  1  0  0  0  0
  8  9  1  0  0  0  0
  8 28  1  0  0  0  0
  9 10  2  0  0  0  0
  9 11  1  0  0  0  0
 11 12  1  0  0  0  0
 11 29  1  0  0  0  0
 12 18  1  0  0  0  0
 12 13  1  0  0  0  0
 12 30  1  0  0  0  0
 13 14  1  0  0  0  0
 13 31  1  0  0  0  0
 13 32  1  0  0  0  0
 14 15  1  0  0  0  0
 14 33  1  0  0  0  0
 14 34  1  0  0  0  0
 15 16  1  0  0  0  0
 15 17  1  0  0  0  0
 15 43  1  0  0  0  0
 16 35  1  0  0  0  0
 16 36  1  0  0  0  0
 16 37  1  0  0  0  0
 17 18  1  0  0  0  0
 17 38  1  0  0  0  0
 17 39  1  0  0  0  0
 18 40  1  0  0  0  0
 18 41  1  0  0  0  0
 19 20  2  0  0  0  0
 19 42  1  0  0  0  0
M  CHG  1  15   1
M  END
> <s_m_source_file>
AV-unprocessed.smi

> <i_m_source_file_index>
1098

> <i_lp_mmshare_version>
43012

> <i_f3d_flags>
0

> <s_epik_input>
W0NIM11bQ0gyXVNjMVtjSF1bY0hdYyhbY0hdbjEpW05IXUMoPU8pW05IXVtDSF0yW0NIMl1bQ0gyXU4oW0NIM10pW0NIMl1bQ0gyXTI=

> <s_epik_cmdline>
J2VwaWtfcHl0aG9uJywgJy1waCcsICc3LjAnLCAnLXRuJywgJzgnLCAnLW1hJywgJzIwMCcsICctbWV0YWxfYmluZGluZycsICctaW1hZScsICc8aW5maWxlLm1hZT4nLCAnLW9tYWUnLCAnPG91dGZpbGUubWFlPic=

> <r_lp_tautomer_probability>
1

> <r_epik_Ionization_Penalty>
0.00403107

> <r_epik_Ionization_Penalty_Charging>
0.00366825

> <r_epik_Ionization_Penalty_Neutral>
0.000362818

> <r_epik_State_Penalty>
-0

> <r_epik_Charging_Adjusted_Penalty>
0.00366825

> <i_epik_Tot_Q>
1

> <i_epik_Tot_abs_Q>
1

> <r_epik_Metal_State_Penalty>
-0

> <b_epik_Metal_Only>
0

> <s_lp_Force_Field>
OPLS_2005

> <r_lp_Energy>
18.4607

> <b_lp_Chiralities_Consistent>
1

> <s_lp_Variant>
AV-unprocessed.smi:1098-1

> <Gold.Version>
5.8.1

> <Gold.Id.Protein>
6NUR|6NUR_protein|mol2

> <Gold.PLP.Fitness>
43.7805

> <Gold.PLP.PLP>
-29.5859

> <Gold.PLP.part.hbond>
-3.8838

> <Gold.PLP.part.metal>
0.0000

> <Gold.PLP.part.buried>
-3.0473

> <Gold.PLP.part.nonpolar>
-22.5948

> <Gold.PLP.part.repulsive>
0.1064

> <Gold.PLP.ligand.clash>
0.0000

> <Gold.PLP.ligand.torsion>
0.3952

> <Gold.PLP.Chemscore.Hbond>
3.9920

> <Gold.PLP.Chemscore.CHOScore>
1.0000

> <Gold.PLP.Chemscore.Metal>
0.0000

> <Gold.Chemscore.Hbonds>
donor molecule, donor type, donor heavy atom, donor atom, acceptor molecule, acceptor atom, score
      L1  H     8    28       P1  7948  0.99
      L1  H    11    29       P1  7948  1.00
      L1  H    15    43       P1 10747  1.00
      P1  H  7989  7998       L1    20  1.00
      L1  C    19    42       P1  7957  1.00

> <Gold.PLP.Chemscore.Internal.Correction>
0.0091

> <Gold.Rescore>
     Score         DG    S(hbond)    S(metal)    S(lipo)     H(rot)  DE(clash)    DE(int)     intcor
     19.39     -21.52       3.02        0.00      79.53       1.30       0.47       1.67       ----

> <Gold.Chemscore.Fitness>
19.3876

> <Gold.Chemscore.DG>
-21.5228

> <Gold.Chemscore.ZeroCoef>
-5.4800

> <Gold.Chemscore.Hbond>
3.0165

> <Gold.Chemscore.Metal>
0.0000

> <Gold.Chemscore.Lipo>
79.5349

> <Gold.Chemscore.Internal_Hbond>
0.0000

> <Gold.Chemscore.DEClash>
0.4659

> <Gold.Chemscore.DEInternal>
1.6693

> <Gold.Chemscore.Rot>
1.3038

> <Gold.Chemscore.Internal.Correction>
   9.000000E+99

> <Gold.Chemscore.Hbonds>
donor molecule, donor type, donor heavy atom, donor atom, acceptor molecule, acceptor atom, score
      L1  H     8    28       P1  7948  0.89
      L1  H    11    29       P1  7948  0.28
      L1  H    15    43       P1 10747  0.99
      P1  H  7989  7998       L1    20  0.25

> <Gold.Chemscore.Hbond.Weighted>
-10.0750

> <Gold.Chemscore.Metal.Weighted>
-0.0000

> <Gold.Chemscore.Lipo.Weighted>
-9.3056

> <Gold.Chemscore.Internal_Hbond.Weighted>
0.0000

> <Gold.Chemscore.DEClash.Weighted>
0.4659

> <Gold.Chemscore.DEInternal.Weighted>
1.6693

> <Gold.Chemscore.Rot.Weighted>
3.3378

> <Gold.Chemscore.Internal.Correction.Weighted>
   9.000000E+99

> <Gold.Protein.RotatedTorsions>
[ 6907 6896 6895 6894 ] final -133.93 input  -60.11 | X-H torsion
[ 7974 7965 7964 7962 ] final  136.35 input  175.53 | X-H torsion
[ 8008 7997 7996 7995 ] final  -26.02 input   59.86 | X-H torsion
[ 10167 10162 10161 10158 ] final -174.78 input  -65.29 | X-H torsion
[ 10718 10713 10712 10709 ] final  121.22 input   66.30 | X-H torsion
[ 10763 10752 10751 10750 ] final -157.58 input  -60.55 | X-H torsion
[ 11005 11000 10999 10996 ] final   14.36 input  -57.11 | X-H torsion

> <Gold.Protein.ActiveResidues>
 VAL166  LYS551  ARG553  GLY616  TRP617  ASP618  TYR619  PRO620  LYS621  CYS622 
 ASP623  PHE694  ASN695  SER759  ASP760  ASP761  ALA762  ILE779  LEU786  VAL792 
 PHE793  MET794  SER795  GLU796  ALA797  LYS798  CYS799  TRP800  GLU811  SER814 

> <Gold.Protein.RotatedAtoms>
  150.9799  133.6256  159.2724 H   0  0  0  0  0  0  0  0  0  0  0  0  # atno 6907 bound_to 6896
  151.3515  135.0884  159.9414 H   0  0  0  0  0  0  0  0  0  0  0  0  # atno 6908 bound_to 6896
  152.5212  133.9390  159.7672 H   0  0  0  0  0  0  0  0  0  0  0  0  # atno 6909 bound_to 6896
  144.9574  139.4749  143.5496 H   0  0  0  0  0  0  0  0  0  0  0  0  # atno 7974 bound_to 7965
  154.4446  140.1911  156.0709 H   0  0  0  0  0  0  0  0  0  0  0  0  # atno 8008 bound_to 7997
  156.0511  140.3308  155.7326 H   0  0  0  0  0  0  0  0  0  0  0  0  # atno 8009 bound_to 7997
  155.5555  140.0599  157.2831 H   0  0  0  0  0  0  0  0  0  0  0  0  # atno 8010 bound_to 7997
  139.5615  144.1857  152.1246 H   0  0  0  0  0  0  0  0  0  0  0  0  # atno 10167 bound_to 10162
  157.5834  131.1072  150.8143 H   0  0  0  0  0  0  0  0  0  0  0  0  # atno 10718 bound_to 10713
  154.7624  135.3121  154.8351 H   0  0  0  0  0  0  0  0  0  0  0  0  # atno 10763 bound_to 10752
  153.9109  135.6806  153.4755 H   0  0  0  0  0  0  0  0  0  0  0  0  # atno 10764 bound_to 10752
  153.1227  135.4815  154.9153 H   0  0  0  0  0  0  0  0  0  0  0  0  # atno 10765 bound_to 10752
  140.4704  134.1037  155.7731 H   0  0  0  0  0  0  0  0  0  0  0  0  # atno 11005 bound_to 11000
  146.3342  139.8700  142.8841 LP  0  0  0  0  0  0  0  0  0  0  0  0  # atno 17320 bound_to 7965
  145.2752  141.0121  143.3749 LP  0  0  0  0  0  0  0  0  0  0  0  0  # atno 17321 bound_to 7965
  140.1372  144.5235  150.6766 LP  0  0  0  0  0  0  0  0  0  0  0  0  # atno 17342 bound_to 10162
  140.6895  143.2368  151.5168 LP  0  0  0  0  0  0  0  0  0  0  0  0  # atno 17343 bound_to 10162
  156.8584  130.5104  149.5306 LP  0  0  0  0  0  0  0  0  0  0  0  0  # atno 17370 bound_to 10713
  156.0881  130.5874  150.9684 LP  0  0  0  0  0  0  0  0  0  0  0  0  # atno 17371 bound_to 10713
  141.1580  133.8847  157.1926 LP  0  0  0  0  0  0  0  0  0  0  0  0  # atno 17394 bound_to 11000
  139.9889  135.0072  156.9928 LP  0  0  0  0  0  0  0  0  0  0  0  0  # atno 17395 bound_to 11000

$$$$
