AV-unprocessed.smi:2104|AV-procd|sdf|8583|dock7
  -GOLD-   2272011313D 1   1.00000     0.00000
 Structure written by MMmdl.
 43 44  0  0  0  0  0  0  0  0  1 V2000
  146.7356  133.9393  162.5765 C   0  0  0  0  0  0  0  0  0  0  0  0
  147.3778  134.9573  161.6976 C   0  0  0  0  0  0  0  0  0  0  0  0
  147.9779  134.8830  160.4721 C   0  0  0  0  0  0  0  0  0  0  0  0
  148.3671  136.2264  160.2246 C   0  0  0  0  0  0  0  0  0  0  0  0
  149.0397  136.5802  159.0271 N   0  0  0  0  0  0  0  0  0  0  0  0
  149.9532  137.5508  158.8567 C   0  0  0  0  0  0  0  0  0  0  0  0
  150.3361  138.3257  159.7337 O   0  0  0  0  0  0  0  0  0  0  0  0
  150.4077  137.5734  157.5951 N   0  0  0  0  0  0  0  0  0  0  0  0
  151.4365  138.4750  157.0870 C   0  0  0  0  0  0  0  0  0  0  0  0
  152.5919  138.6291  158.0864 C   0  0  0  0  0  0  0  0  0  0  0  0
  153.1296  139.9378  157.9746 O   0  0  0  0  0  0  0  0  0  0  0  0
  152.4765  140.9188  158.7676 C   0  0  2  0  0  0  0  0  0  0  0  0
  151.6282  141.8240  157.8492 C   0  0  0  0  0  0  0  0  0  0  0  0
  151.0152  142.9997  158.6239 C   0  0  0  0  0  0  0  0  0  0  0  0
  152.1034  143.8146  159.3365 C   0  0  0  0  0  0  0  0  0  0  0  0
  152.9421  142.9204  160.2620 C   0  0  0  0  0  0  0  0  0  0  0  0
  153.5663  141.7343  159.4997 C   0  0  1  0  0  0  0  0  0  0  0  0
  154.3929  140.8531  160.4505 C   0  0  0  0  0  0  0  0  0  0  0  0
  148.0356  137.0462  161.2104 N   0  0  0  0  0  0  0  0  0  0  0  0
  147.3996  136.2369  162.1593 O   0  0  0  0  0  0  0  0  0  0  0  0
  146.7496  132.9551  162.1082 H   0  0  0  0  0  0  0  0  0  0  0  0
  145.6974  134.2030  162.7782 H   0  0  0  0  0  0  0  0  0  0  0  0
  147.2585  133.8675  163.5304 H   0  0  0  0  0  0  0  0  0  0  0  0
  148.1146  134.0073  159.8551 H   0  0  0  0  0  0  0  0  0  0  0  0
  148.8116  136.0246  158.2162 H   0  0  0  0  0  0  0  0  0  0  0  0
  150.0316  136.9021  156.9420 H   0  0  0  0  0  0  0  0  0  0  0  0
  151.8164  138.0466  156.1594 H   0  0  0  0  0  0  0  0  0  0  0  0
  151.0153  139.4477  156.8280 H   0  0  0  0  0  0  0  0  0  0  0  0
  152.2417  138.4227  159.0982 H   0  0  0  0  0  0  0  0  0  0  0  0
  153.3749  137.9041  157.8604 H   0  0  0  0  0  0  0  0  0  0  0  0
  151.8368  140.4419  159.5131 H   0  0  0  0  0  0  0  0  0  0  0  0
  152.2520  142.2089  157.0412 H   0  0  0  0  0  0  0  0  0  0  0  0
  150.8320  141.2517  157.3740 H   0  0  0  0  0  0  0  0  0  0  0  0
  150.4546  143.6417  157.9438 H   0  0  0  0  0  0  0  0  0  0  0  0
  150.2999  142.6233  159.3563 H   0  0  0  0  0  0  0  0  0  0  0  0
  152.7512  144.2872  158.5971 H   0  0  0  0  0  0  0  0  0  0  0  0
  151.6483  144.6219  159.9109 H   0  0  0  0  0  0  0  0  0  0  0  0
  153.7263  143.5167  160.7299 H   0  0  0  0  0  0  0  0  0  0  0  0
  152.3131  142.5482  161.0720 H   0  0  0  0  0  0  0  0  0  0  0  0
  154.2464  142.1406  158.7491 H   0  0  0  0  0  0  0  0  0  0  0  0
  153.7650  140.4031  161.2199 H   0  0  0  0  0  0  0  0  0  0  0  0
  155.1674  141.4347  160.9508 H   0  0  0  0  0  0  0  0  0  0  0  0
  154.8894  140.0452  159.9123 H   0  0  0  0  0  0  0  0  0  0  0  0
  1  2  1  0  0  0  0
  1 21  1  0  0  0  0
  1 22  1  0  0  0  0
  1 23  1  0  0  0  0
  2 20  1  0  0  0  0
  2  3  2  0  0  0  0
  3  4  1  0  0  0  0
  3 24  1  0  0  0  0
  4  5  1  0  0  0  0
  4 19  2  0  0  0  0
  5  6  1  0  0  0  0
  5 25  1  0  0  0  0
  6  7  2  0  0  0  0
  6  8  1  0  0  0  0
  8  9  1  0  0  0  0
  8 26  1  0  0  0  0
  9 10  1  0  0  0  0
  9 27  1  0  0  0  0
  9 28  1  0  0  0  0
 10 11  1  0  0  0  0
 10 29  1  0  0  0  0
 10 30  1  0  0  0  0
 11 12  1  0  0  0  0
 12 17  1  0  0  0  0
 12 13  1  0  0  0  0
 12 31  1  0  0  0  0
 13 14  1  0  0  0  0
 13 32  1  0  0  0  0
 13 33  1  0  0  0  0
 14 15  1  0  0  0  0
 14 34  1  0  0  0  0
 14 35  1  0  0  0  0
 15 16  1  0  0  0  0
 15 36  1  0  0  0  0
 15 37  1  0  0  0  0
 16 17  1  0  0  0  0
 16 38  1  0  0  0  0
 16 39  1  0  0  0  0
 17 18  1  0  0  0  0
 17 40  1  0  0  0  0
 18 41  1  0  0  0  0
 18 42  1  0  0  0  0
 18 43  1  0  0  0  0
 19 20  1  0  0  0  0
M  END
> <s_m_source_file>
AV-unprocessed.smi

> <i_m_source_file_index>
2104

> <i_lp_mmshare_version>
43012

> <i_f3d_flags>
0

> <s_epik_input>
W0NIM11jMVtjSF1jKG5vMSlbTkhdQyg9TylbTkhdW0NIMl1bQ0gyXU9bQ0BASF0yW0NIMl1bQ0gyXVtDSDJdW0NIMl1bQ0BIXTJbQ0gzXQ==

> <s_epik_cmdline>
J2VwaWtfcHl0aG9uJywgJy1waCcsICc3LjAnLCAnLXRuJywgJzgnLCAnLW1hJywgJzIwMCcsICctbWV0YWxfYmluZGluZycsICctaW1hZScsICc8aW5maWxlLm1hZT4nLCAnLW9tYWUnLCAnPG91dGZpbGUubWFlPic=

> <r_lp_tautomer_probability>
1

> <r_epik_Ionization_Penalty>
2.94418e-05

> <r_epik_Ionization_Penalty_Charging>
0

> <r_epik_Ionization_Penalty_Neutral>
2.94418e-05

> <r_epik_State_Penalty>
-0

> <r_epik_Charging_Adjusted_Penalty>
0

> <i_epik_Tot_Q>
0

> <i_epik_Tot_abs_Q>
0

> <r_epik_Metal_State_Penalty>
0.0104148

> <b_epik_Metal_Only>
0

> <s_lp_Force_Field>
OPLS_2005

> <r_lp_Energy>
8.87971

> <b_lp_Chiralities_Consistent>
1

> <s_lp_Variant>
AV-unprocessed.smi:2104-1

> <Gold.Version>
5.8.1

> <Gold.Id.Protein>
6NUR|6NUR_protein|mol2

> <Gold.PLP.Fitness>
41.5607

> <Gold.PLP.PLP>
-35.8230

> <Gold.PLP.part.hbond>
-4.0000

> <Gold.PLP.part.metal>
0.0000

> <Gold.PLP.part.buried>
-2.6530

> <Gold.PLP.part.nonpolar>
-28.9442

> <Gold.PLP.part.repulsive>
0.2045

> <Gold.PLP.ligand.clash>
0.0000

> <Gold.PLP.ligand.torsion>
1.3574

> <Gold.PLP.Chemscore.Hbond>
2.8080

> <Gold.PLP.Chemscore.CHOScore>
0.0000

> <Gold.PLP.Chemscore.Metal>
0.0000

> <Gold.Chemscore.Hbonds>
donor molecule, donor type, donor heavy atom, donor atom, acceptor molecule, acceptor atom, score
      P1  H  6931  6943       L1    19  1.00
      P1  H  6934  6947       L1    19  0.48
      P1  H  7997  8009       L1    11  1.00

> <Gold.PLP.Chemscore.Internal.Correction>
0.0284

> <Gold.Rescore>
     Score         DG    S(hbond)    S(metal)    S(lipo)     H(rot)  DE(clash)    DE(int)     intcor
     16.62     -20.65       2.32        0.00     101.79       1.75       0.09       3.94       ----

> <Gold.Chemscore.Fitness>
16.6198

> <Gold.Chemscore.DG>
-20.6501

> <Gold.Chemscore.ZeroCoef>
-5.4800

> <Gold.Chemscore.Hbond>
2.3194

> <Gold.Chemscore.Metal>
0.0000

> <Gold.Chemscore.Lipo>
101.7905

> <Gold.Chemscore.Internal_Hbond>
0.0000

> <Gold.Chemscore.DEClash>
0.0945

> <Gold.Chemscore.DEInternal>
3.9358

> <Gold.Chemscore.Rot>
1.7524

> <Gold.Chemscore.Internal.Correction>
   9.000000E+99

> <Gold.Chemscore.Hbonds>
donor molecule, donor type, donor heavy atom, donor atom, acceptor molecule, acceptor atom, score
      P1  H  6931  6943       L1    19  0.86
      P1  H  6934  6947       L1    19  0.44
      P1  H  7997  8009       L1    11  0.90

> <Gold.Chemscore.Hbond.Weighted>
-7.7467

> <Gold.Chemscore.Metal.Weighted>
-0.0000

> <Gold.Chemscore.Lipo.Weighted>
-11.9095

> <Gold.Chemscore.Internal_Hbond.Weighted>
0.0000

> <Gold.Chemscore.DEClash.Weighted>
0.0945

> <Gold.Chemscore.DEInternal.Weighted>
3.9358

> <Gold.Chemscore.Rot.Weighted>
4.4861

> <Gold.Chemscore.Internal.Correction.Weighted>
   9.000000E+99

> <Gold.Protein.RotatedTorsions>
[ 6907 6896 6895 6894 ] final  148.32 input  -60.11 | X-H torsion
[ 7974 7965 7964 7962 ] final -174.25 input  175.53 | X-H torsion
[ 8008 7997 7996 7995 ] final  160.20 input   59.86 | X-H torsion
[ 10167 10162 10161 10158 ] final   76.49 input  -65.29 | X-H torsion
[ 10718 10713 10712 10709 ] final    5.89 input   66.30 | X-H torsion
[ 10763 10752 10751 10750 ] final  -87.11 input  -60.55 | X-H torsion
[ 11005 11000 10999 10996 ] final   91.18 input  -57.11 | X-H torsion

> <Gold.Protein.ActiveResidues>
 VAL166  LYS551  ARG553  GLY616  TRP617  ASP618  TYR619  PRO620  LYS621  CYS622 
 ASP623  PHE694  ASN695  SER759  ASP760  ASP761  ALA762  ILE779  LEU786  VAL792 
 PHE793  MET794  SER795  GLU796  ALA797  LYS798  CYS799  TRP800  GLU811  SER814 

> <Gold.Protein.RotatedAtoms>
  152.1430  133.4475  159.4775 H   0  0  0  0  0  0  0  0  0  0  0  0  # atno 6907 bound_to 6896
  150.6888  134.2282  159.4433 H   0  0  0  0  0  0  0  0  0  0  0  0  # atno 6908 bound_to 6896
  152.0173  134.9842  160.0620 H   0  0  0  0  0  0  0  0  0  0  0  0  # atno 6909 bound_to 6896
  144.7133  140.1499  143.6385 H   0  0  0  0  0  0  0  0  0  0  0  0  # atno 7974 bound_to 7965
  156.2188  140.1810  156.7526 H   0  0  0  0  0  0  0  0  0  0  0  0  # atno 8008 bound_to 7997
  154.5833  140.0662  156.9164 H   0  0  0  0  0  0  0  0  0  0  0  0  # atno 8009 bound_to 7997
  155.2464  140.3326  155.4289 H   0  0  0  0  0  0  0  0  0  0  0  0  # atno 8010 bound_to 7997
  139.9917  144.5752  150.7812 H   0  0  0  0  0  0  0  0  0  0  0  0  # atno 10167 bound_to 10162
  156.9140  130.5766  149.5647 H   0  0  0  0  0  0  0  0  0  0  0  0  # atno 10718 bound_to 10713
  154.6299  135.5425  153.7669 H   0  0  0  0  0  0  0  0  0  0  0  0  # atno 10763 bound_to 10752
  153.0279  135.6433  154.1316 H   0  0  0  0  0  0  0  0  0  0  0  0  # atno 10764 bound_to 10752
  154.1246  135.2918  155.3180 H   0  0  0  0  0  0  0  0  0  0  0  0  # atno 10765 bound_to 10752
  139.8843  134.8658  156.3391 H   0  0  0  0  0  0  0  0  0  0  0  0  # atno 11005 bound_to 11000
  145.9126  139.2496  143.1429 LP  0  0  0  0  0  0  0  0  0  0  0  0  # atno 17320 bound_to 7965
  145.9701  140.8767  143.0167 LP  0  0  0  0  0  0  0  0  0  0  0  0  # atno 17321 bound_to 7965
  140.7452  143.2872  151.3430 LP  0  0  0  0  0  0  0  0  0  0  0  0  # atno 17342 bound_to 10162
  139.6335  144.0675  152.2496 LP  0  0  0  0  0  0  0  0  0  0  0  0  # atno 17343 bound_to 10162
  156.0522  130.5590  150.9014 LP  0  0  0  0  0  0  0  0  0  0  0  0  # atno 17370 bound_to 10713
  157.5949  131.0943  150.9057 LP  0  0  0  0  0  0  0  0  0  0  0  0  # atno 17371 bound_to 10713
  140.9671  133.7351  156.0482 LP  0  0  0  0  0  0  0  0  0  0  0  0  # atno 17394 bound_to 11000
  140.7917  134.3609  157.5463 LP  0  0  0  0  0  0  0  0  0  0  0  0  # atno 17395 bound_to 11000

$$$$
