AV-unprocessed.smi:1726|AV-procd|sdf|6959|dock2
  -GOLD-   22720 8173D 1   1.00000     0.00000
 Structure written by MMmdl.
 43 44  0  0  0  0  0  0  0  0  2 V2000
  145.3409  132.1475  151.7488 C   0  0  0  0  0  0  0  0  0  0  0  0
  146.6779  132.8759  151.9483 C   0  0  0  0  0  0  0  0  0  0  0  0
  146.4969  134.3223  152.2279 N   0  3  1  0  0  0  0  0  0  0  0  0
  145.5840  134.9776  151.2552 C   0  0  0  0  0  0  0  0  0  0  0  0
  145.5346  136.4999  151.4751 C   0  0  0  0  0  0  0  0  0  0  0  0
  145.1611  136.8463  152.9263 C   0  0  0  0  0  0  0  0  0  0  0  0
  146.0846  136.1200  153.9207 C   0  0  2  0  0  0  0  0  0  0  0  0
  147.4335  136.6830  153.8484 N   0  0  0  0  0  0  0  0  0  0  0  0
  147.9731  137.5275  154.7391 C   0  0  0  0  0  0  0  0  0  0  0  0
  147.3774  137.9124  155.7440 O   0  0  0  0  0  0  0  0  0  0  0  0
  149.2246  137.8654  154.3777 N   0  0  0  0  0  0  0  0  0  0  0  0
  150.1496  138.7168  155.0080 C   0  0  0  0  0  0  0  0  0  0  0  0
  149.8343  139.7647  155.8143 C   0  0  0  0  0  0  0  0  0  0  0  0
  150.8531  140.6008  156.4275 C   0  0  0  0  0  0  0  0  0  0  0  0
  150.4891  141.8115  157.2731 C   0  0  0  0  0  0  0  0  0  0  0  0
  151.0106  141.6849  158.4924 F   0  0  0  0  0  0  0  0  0  0  0  0
  150.9606  142.9368  156.7346 F   0  0  0  0  0  0  0  0  0  0  0  0
  149.1669  141.9295  157.3974 F   0  0  0  0  0  0  0  0  0  0  0  0
  152.1319  140.2983  156.1390 C   0  0  0  0  0  0  0  0  0  0  0  0
  152.4655  139.2172  155.3209 N   0  0  0  0  0  0  0  0  0  0  0  0
  151.5618  138.4022  154.7328 C   0  0  0  0  0  0  0  0  0  0  0  0
  151.9365  137.4694  154.0227 O   0  0  0  0  0  0  0  0  0  0  0  0
  146.0784  134.6032  153.6271 C   0  0  0  0  0  0  0  0  0  0  0  0
  153.4484  139.0458  155.1647 H   0  0  0  0  0  0  0  0  0  0  0  0
  145.5029  131.0752  151.6364 H   0  0  0  0  0  0  0  0  0  0  0  0
  144.8148  132.4882  150.8577 H   0  0  0  0  0  0  0  0  0  0  0  0
  144.6818  132.2931  152.6051 H   0  0  0  0  0  0  0  0  0  0  0  0
  147.1862  132.4079  152.7924 H   0  0  0  0  0  0  0  0  0  0  0  0
  147.3270  132.7384  151.0824 H   0  0  0  0  0  0  0  0  0  0  0  0
  145.9203  134.7762  150.2374 H   0  0  0  0  0  0  0  0  0  0  0  0
  144.5841  134.5503  151.3488 H   0  0  0  0  0  0  0  0  0  0  0  0
  146.5042  136.9347  151.2291 H   0  0  0  0  0  0  0  0  0  0  0  0
  144.8162  136.9511  150.7900 H   0  0  0  0  0  0  0  0  0  0  0  0
  145.2017  137.9251  153.0817 H   0  0  0  0  0  0  0  0  0  0  0  0
  144.1279  136.5499  153.1116 H   0  0  0  0  0  0  0  0  0  0  0  0
  145.7019  136.2882  154.9289 H   0  0  0  0  0  0  0  0  0  0  0  0
  147.9900  136.4250  153.0461 H   0  0  0  0  0  0  0  0  0  0  0  0
  149.5675  137.4476  153.5245 H   0  0  0  0  0  0  0  0  0  0  0  0
  148.8107  140.0184  156.0305 H   0  0  0  0  0  0  0  0  0  0  0  0
  152.9850  140.8527  156.5017 H   0  0  0  0  0  0  0  0  0  0  0  0
  145.0788  134.1976  153.7920 H   0  0  0  0  0  0  0  0  0  0  0  0
  146.7317  134.0907  154.3318 H   0  0  0  0  0  0  0  0  0  0  0  0
  147.4023  134.7514  152.0998 H   0  0  0  0  0  0  0  0  0  0  0  0
  1  2  1  0  0  0  0
  1 25  1  0  0  0  0
  1 26  1  0  0  0  0
  1 27  1  0  0  0  0
  2  3  1  0  0  0  0
  2 28  1  0  0  0  0
  2 29  1  0  0  0  0
  3 23  1  0  0  0  0
  3  4  1  0  0  0  0
  3 43  1  0  0  0  0
  4  5  1  0  0  0  0
  4 30  1  0  0  0  0
  4 31  1  0  0  0  0
  5  6  1  0  0  0  0
  5 32  1  0  0  0  0
  5 33  1  0  0  0  0
  6  7  1  0  0  0  0
  6 34  1  0  0  0  0
  6 35  1  0  0  0  0
  7  8  1  0  0  0  0
  7 23  1  0  0  0  0
  7 36  1  0  0  0  0
  8  9  1  0  0  0  0
  8 37  1  0  0  0  0
  9 10  2  0  0  0  0
  9 11  1  0  0  0  0
 11 12  1  0  0  0  0
 11 38  1  0  0  0  0
 12 21  1  0  0  0  0
 12 13  2  0  0  0  0
 13 14  1  0  0  0  0
 13 39  1  0  0  0  0
 14 15  1  0  0  0  0
 14 19  2  0  0  0  0
 15 16  1  0  0  0  0
 15 17  1  0  0  0  0
 15 18  1  0  0  0  0
 19 20  1  0  0  0  0
 19 40  1  0  0  0  0
 20 24  1  0  0  0  0
 20 21  1  0  0  0  0
 21 22  2  0  0  0  0
 23 41  1  0  0  0  0
 23 42  1  0  0  0  0
M  CHG  1   3   1
M  END
> <s_m_source_file>
AV-unprocessed.smi

> <i_m_source_file_index>
1726

> <i_lp_mmshare_version>
43012

> <i_f3d_flags>
0

> <s_epik_input>
W0NIM11bQ0gyXU4xW0NIMl1bQ0gyXVtDSDJdW0NASF0oW0NIMl0xKVtOSF1DKD1PKVtOSF1jMltjSF1jKEMoRikoRilGKVtjSF1bbkhdYzI9Tw==

> <s_epik_cmdline>
J2VwaWtfcHl0aG9uJywgJy1waCcsICc3LjAnLCAnLXRuJywgJzgnLCAnLW1hJywgJzIwMCcsICctbWV0YWxfYmluZGluZycsICctaW1hZScsICc8aW5maWxlLm1hZT4nLCAnLW9tYWUnLCAnPG91dGZpbGUubWFlPic=

> <r_lp_tautomer_probability>
1

> <r_epik_Ionization_Penalty>
0.00745721

> <r_epik_Ionization_Penalty_Charging>
0.00743804

> <r_epik_Ionization_Penalty_Neutral>
1.91703e-05

> <r_epik_State_Penalty>
-0

> <r_epik_Charging_Adjusted_Penalty>
0.00743804

> <i_epik_Tot_Q>
1

> <i_epik_Tot_abs_Q>
1

> <r_epik_Metal_State_Penalty>
0.37929

> <b_epik_Metal_Only>
0

> <s_lp_Force_Field>
OPLS_2005

> <r_lp_Energy>
34.9839

> <b_lp_Chiralities_Consistent>
1

> <s_lp_Variant>
AV-unprocessed.smi:1726-3

> <Gold.Version>
5.8.1

> <Gold.Id.Protein>
6NUR|6NUR_protein|mol2

> <Gold.PLP.Fitness>
44.5621

> <Gold.PLP.PLP>
-31.7709

> <Gold.PLP.part.hbond>
-3.7767

> <Gold.PLP.part.metal>
0.0000

> <Gold.PLP.part.buried>
-2.9461

> <Gold.PLP.part.nonpolar>
-27.6015

> <Gold.PLP.part.repulsive>
1.0316

> <Gold.PLP.ligand.clash>
0.0000

> <Gold.PLP.ligand.torsion>
0.4729

> <Gold.PLP.Chemscore.Hbond>
4.5591

> <Gold.PLP.Chemscore.CHOScore>
0.0000

> <Gold.PLP.Chemscore.Metal>
0.0000

> <Gold.Chemscore.Hbonds>
donor molecule, donor type, donor heavy atom, donor atom, acceptor molecule, acceptor atom, score
      L1  H     3    43       P1  7948  1.59
      L1  H     8    37       P1  7948  1.00
      L1  H    11    38       P1  7948  0.69
      P1  H 10752 10765       L1    22  0.92

> <Gold.PLP.Chemscore.Internal.Correction>
0.0597

> <Gold.Rescore>
     Score         DG    S(hbond)    S(metal)    S(lipo)     H(rot)  DE(clash)    DE(int)     intcor
     18.33     -19.49       3.11        0.00      59.17       1.29       0.18       0.98       ----

> <Gold.Chemscore.Fitness>
18.3277

> <Gold.Chemscore.DG>
-19.4869

> <Gold.Chemscore.ZeroCoef>
-5.4800

> <Gold.Chemscore.Hbond>
3.1084

> <Gold.Chemscore.Metal>
0.0000

> <Gold.Chemscore.Lipo>
59.1727

> <Gold.Chemscore.Internal_Hbond>
0.0000

> <Gold.Chemscore.DEClash>
0.1777

> <Gold.Chemscore.DEInternal>
0.9815

> <Gold.Chemscore.Rot>
1.2884

> <Gold.Chemscore.Internal.Correction>
   9.000000E+99

> <Gold.Chemscore.Hbonds>
donor molecule, donor type, donor heavy atom, donor atom, acceptor molecule, acceptor atom, score
      L1  H     3    43       P1  7948  0.67
      L1  H     8    37       P1  7948  0.94
      L1  H    11    38       P1  7948  0.59
      P1  H 10752 10765       L1    22  0.83

> <Gold.Chemscore.Hbond.Weighted>
-10.3820

> <Gold.Chemscore.Metal.Weighted>
-0.0000

> <Gold.Chemscore.Lipo.Weighted>
-6.9232

> <Gold.Chemscore.Internal_Hbond.Weighted>
0.0000

> <Gold.Chemscore.DEClash.Weighted>
0.1777

> <Gold.Chemscore.DEInternal.Weighted>
0.9815

> <Gold.Chemscore.Rot.Weighted>
3.2983

> <Gold.Chemscore.Internal.Correction.Weighted>
   9.000000E+99

> <Gold.Protein.RotatedTorsions>
[ 6907 6896 6895 6894 ] final  -38.11 input  -60.11 | X-H torsion
[ 7974 7965 7964 7962 ] final  154.39 input  175.53 | X-H torsion
[ 8008 7997 7996 7995 ] final  109.27 input   59.86 | X-H torsion
[ 10167 10162 10161 10158 ] final -150.43 input  -65.29 | X-H torsion
[ 10718 10713 10712 10709 ] final   21.80 input   66.30 | X-H torsion
[ 10763 10752 10751 10750 ] final  153.50 input  -60.55 | X-H torsion
[ 11005 11000 10999 10996 ] final   39.17 input  -57.11 | X-H torsion

> <Gold.Protein.ActiveResidues>
 VAL166  LYS551  ARG553  GLY616  TRP617  ASP618  TYR619  PRO620  LYS621  CYS622 
 ASP623  PHE694  ASN695  SER759  ASP760  ASP761  ALA762  ILE779  LEU786  VAL792 
 PHE793  MET794  SER795  GLU796  ALA797  LYS798  CYS799  TRP800  GLU811  SER814 

> <Gold.Protein.RotatedAtoms>
  151.0064  134.9362  159.7982 H   0  0  0  0  0  0  0  0  0  0  0  0  # atno 6907 bound_to 6896
  152.5291  134.3086  159.9115 H   0  0  0  0  0  0  0  0  0  0  0  0  # atno 6908 bound_to 6896
  151.3092  133.4046  159.2680 H   0  0  0  0  0  0  0  0  0  0  0  0  # atno 6909 bound_to 6896
  144.8092  139.6927  143.6149 H   0  0  0  0  0  0  0  0  0  0  0  0  # atno 7974 bound_to 7965
  156.1967  140.3061  155.9441 H   0  0  0  0  0  0  0  0  0  0  0  0  # atno 8008 bound_to 7997
  155.3050  140.0448  157.3049 H   0  0  0  0  0  0  0  0  0  0  0  0  # atno 8009 bound_to 7997
  154.5518  140.2294  155.8481 H   0  0  0  0  0  0  0  0  0  0  0  0  # atno 8010 bound_to 7997
  139.7355  143.8742  152.2547 H   0  0  0  0  0  0  0  0  0  0  0  0  # atno 10167 bound_to 10162
  157.1434  130.6643  149.5988 H   0  0  0  0  0  0  0  0  0  0  0  0  # atno 10718 bound_to 10713
  154.1372  135.2823  155.3170 H   0  0  0  0  0  0  0  0  0  0  0  0  # atno 10763 bound_to 10752
  154.6313  135.5434  153.7687 H   0  0  0  0  0  0  0  0  0  0  0  0  # atno 10764 bound_to 10752
  153.0262  135.6463  154.1520 H   0  0  0  0  0  0  0  0  0  0  0  0  # atno 10765 bound_to 10752
  140.2054  134.3820  155.8075 H   0  0  0  0  0  0  0  0  0  0  0  0  # atno 11005 bound_to 11000
  146.2388  139.5959  142.9505 LP  0  0  0  0  0  0  0  0  0  0  0  0  # atno 17320 bound_to 7965
  145.5365  141.0424  143.2354 LP  0  0  0  0  0  0  0  0  0  0  0  0  # atno 17321 bound_to 7965
  139.8678  144.7084  150.9023 LP  0  0  0  0  0  0  0  0  0  0  0  0  # atno 17342 bound_to 10162
  140.7778  143.3763  151.1556 LP  0  0  0  0  0  0  0  0  0  0  0  0  # atno 17343 bound_to 10162
  155.9784  130.4769  150.6653 LP  0  0  0  0  0  0  0  0  0  0  0  0  # atno 17370 bound_to 10713
  157.4286  131.0846  151.1061 LP  0  0  0  0  0  0  0  0  0  0  0  0  # atno 17371 bound_to 10713
  141.2227  133.7115  156.8328 LP  0  0  0  0  0  0  0  0  0  0  0  0  # atno 17394 bound_to 11000
  140.2009  134.8898  157.3167 LP  0  0  0  0  0  0  0  0  0  0  0  0  # atno 17395 bound_to 11000

$$$$
