AV-unprocessed.smi:290|AV-procd|sdf|2227|dock4
  -GOLD-   2262022 83D 1   1.00000     0.00000
 Structure written by MMmdl.
 59 62  0  0  0  0  0  0  0  0  2 V2000
  143.1666  132.4848  150.5528 C   0  0  0  0  0  0  0  0  0  0  0  0
  144.5425  133.0571  150.1783 C   0  0  2  0  0  0  0  0  0  0  0  0
  145.5168  132.0475  150.4273 O   0  0  0  0  0  0  0  0  0  0  0  0
  146.7481  132.6735  150.7403 C   0  0  0  0  0  0  0  0  0  0  0  0
  146.3080  133.8219  151.6348 C   0  0  0  0  0  0  0  0  0  0  0  0
  145.0231  134.3085  150.9676 C   0  0  1  0  0  0  0  0  0  0  0  0
  145.3802  135.3048  150.0240 O   0  0  0  0  0  0  0  0  0  0  0  0
  144.0071  134.9281  151.9632 C   0  0  0  0  0  0  0  0  0  0  0  0
  144.4836  136.1538  152.5855 N   0  0  0  0  0  0  0  0  0  0  0  0
  144.4777  137.4149  152.0341 C   0  0  0  0  0  0  0  0  0  0  0  0
  144.9508  138.3590  152.8004 N   0  0  0  0  0  0  0  0  0  0  0  0
  145.3245  137.6984  153.9653 C   0  0  0  0  0  0  0  0  0  0  0  0
  145.8979  138.1135  155.2017 C   0  0  0  0  0  0  0  0  0  0  0  0
  146.2241  139.4060  155.4685 N   0  0  0  0  0  0  0  0  0  0  0  0
  145.7975  140.4143  154.5009 C   0  0  0  0  0  0  0  0  0  0  0  0
  146.9028  141.4746  154.4590 C   0  0  0  0  0  0  0  0  0  0  0  0
  147.6083  141.2864  155.8062 C   0  0  2  0  0  0  0  0  0  0  0  0
  148.9855  141.8486  155.9041 N   0  3  2  0  0  0  0  0  0  0  0  0
  149.9371  141.1485  155.0091 C   0  0  0  0  0  0  0  0  0  0  0  0
  149.5168  142.0188  157.2842 C   0  0  0  0  0  0  0  0  0  0  0  0
  151.0244  142.3155  157.2785 C   0  0  0  0  0  0  0  0  0  0  0  0
  151.2524  143.6459  156.8627 O   0  0  0  0  0  0  0  0  0  0  0  0
  147.5214  139.7711  156.0364 C   0  0  1  0  0  0  0  0  0  0  0  0
  147.6492  139.3845  157.5210 C   0  0  0  0  0  0  0  0  0  0  0  0
  146.1184  137.1525  156.1381 N   0  0  0  0  0  0  0  0  0  0  0  0
  145.8062  135.8775  155.8883 C   0  0  0  0  0  0  0  0  0  0  0  0
  145.2705  135.3508  154.7862 N   0  0  0  0  0  0  0  0  0  0  0  0
  145.0399  136.3085  153.8433 C   0  0  0  0  0  0  0  0  0  0  0  0
  146.9912  141.7638  156.5706 H   0  0  0  0  0  0  0  0  0  0  0  0
  148.2964  139.2582  155.4683 H   0  0  0  0  0  0  0  0  0  0  0  0
  142.3706  133.2066  150.3698 H   0  0  0  0  0  0  0  0  0  0  0  0
  143.1271  132.1889  151.6012 H   0  0  0  0  0  0  0  0  0  0  0  0
  142.9456  131.5990  149.9568 H   0  0  0  0  0  0  0  0  0  0  0  0
  144.5497  133.2596  149.1053 H   0  0  0  0  0  0  0  0  0  0  0  0
  147.4354  131.9891  151.2377 H   0  0  0  0  0  0  0  0  0  0  0  0
  147.2209  133.0417  149.8284 H   0  0  0  0  0  0  0  0  0  0  0  0
  146.0896  133.4257  152.6273 H   0  0  0  0  0  0  0  0  0  0  0  0
  147.0692  134.5955  151.7468 H   0  0  0  0  0  0  0  0  0  0  0  0
  145.5556  134.8852  149.1955 H   0  0  0  0  0  0  0  0  0  0  0  0
  143.0634  135.1453  151.4611 H   0  0  0  0  0  0  0  0  0  0  0  0
  143.7768  134.2228  152.7621 H   0  0  0  0  0  0  0  0  0  0  0  0
  144.1019  137.6158  151.0414 H   0  0  0  0  0  0  0  0  0  0  0  0
  145.6219  139.9933  153.5097 H   0  0  0  0  0  0  0  0  0  0  0  0
  144.8631  140.8549  154.8502 H   0  0  0  0  0  0  0  0  0  0  0  0
  147.5655  141.2579  153.6214 H   0  0  0  0  0  0  0  0  0  0  0  0
  146.5102  142.4823  154.3211 H   0  0  0  0  0  0  0  0  0  0  0  0
  150.0668  140.1089  155.3122 H   0  0  0  0  0  0  0  0  0  0  0  0
  150.9156  141.6280  155.0185 H   0  0  0  0  0  0  0  0  0  0  0  0
  149.5802  141.1605  153.9789 H   0  0  0  0  0  0  0  0  0  0  0  0
  149.0140  142.8265  157.8143 H   0  0  0  0  0  0  0  0  0  0  0  0
  149.3146  141.1164  157.8632 H   0  0  0  0  0  0  0  0  0  0  0  0
  151.4326  142.1960  158.2826 H   0  0  0  0  0  0  0  0  0  0  0  0
  151.5701  141.6306  156.6300 H   0  0  0  0  0  0  0  0  0  0  0  0
  150.4627  143.9795  156.4635 H   0  0  0  0  0  0  0  0  0  0  0  0
  148.6102  139.7043  157.9242 H   0  0  0  0  0  0  0  0  0  0  0  0
  147.5797  138.3070  157.6673 H   0  0  0  0  0  0  0  0  0  0  0  0
  146.8659  139.8493  158.1206 H   0  0  0  0  0  0  0  0  0  0  0  0
  146.0143  135.1795  156.6858 H   0  0  0  0  0  0  0  0  0  0  0  0
  148.9043  142.7856  155.5344 H   0  0  0  0  0  0  0  0  0  0  0  0
  1  2  1  0  0  0  0
  1 31  1  0  0  0  0
  1 32  1  0  0  0  0
  1 33  1  0  0  0  0
  2  6  1  0  0  0  0
  2  3  1  0  0  0  0
  2 34  1  0  0  0  0
  3  4  1  0  0  0  0
  4  5  1  0  0  0  0
  4 35  1  0  0  0  0
  4 36  1  0  0  0  0
  5  6  1  0  0  0  0
  5 37  1  0  0  0  0
  5 38  1  0  0  0  0
  6  7  1  0  0  0  0
  6  8  1  0  0  0  0
  7 39  1  0  0  0  0
  8  9  1  0  0  0  0
  8 40  1  0  0  0  0
  8 41  1  0  0  0  0
  9 28  1  0  0  0  0
  9 10  1  0  0  0  0
 10 11  2  0  0  0  0
 10 42  1  0  0  0  0
 11 12  1  0  0  0  0
 12 28  2  0  0  0  0
 12 13  1  0  0  0  0
 13 14  1  0  0  0  0
 13 25  2  0  0  0  0
 14 23  1  0  0  0  0
 14 15  1  0  0  0  0
 15 16  1  0  0  0  0
 15 43  1  0  0  0  0
 15 44  1  0  0  0  0
 16 17  1  0  0  0  0
 16 45  1  0  0  0  0
 16 46  1  0  0  0  0
 17 29  1  0  0  0  0
 17 18  1  0  0  0  0
 17 23  1  0  0  0  0
 18 19  1  0  0  0  0
 18 20  1  0  0  0  0
 18 59  1  0  0  0  0
 19 47  1  0  0  0  0
 19 48  1  0  0  0  0
 19 49  1  0  0  0  0
 20 21  1  0  0  0  0
 20 50  1  0  0  0  0
 20 51  1  0  0  0  0
 21 22  1  0  0  0  0
 21 52  1  0  0  0  0
 21 53  1  0  0  0  0
 22 54  1  0  0  0  0
 23 30  1  0  0  0  0
 23 24  1  0  0  0  0
 24 55  1  0  0  0  0
 24 56  1  0  0  0  0
 24 57  1  0  0  0  0
 25 26  1  0  0  0  0
 26 27  2  0  0  0  0
 26 58  1  0  0  0  0
 27 28  1  0  0  0  0
M  CHG  1  18   1
M  END
> <s_m_source_file>
AV-unprocessed.smi

> <i_m_source_file_index>
290

> <i_lp_mmshare_version>
43012

> <i_f3d_flags>
0

> <s_epik_input>
W0NIMl0xW0NIMl1PW0NAQEhdKFtDSDNdKVtDQEBdMShbT0hdKVtDSDJdbihbY0hdbjIpYyhjMjMpbltjSF1uYzNONFtDSDJdW0NIMl1bQ0BIXShbQ0BIXTRbQ0gzXSlOKFtDSDNdKVtDSDJdW0NIMl1bT0hd

> <s_epik_cmdline>
J2VwaWtfcHl0aG9uJywgJy1waCcsICc3LjAnLCAnLXRuJywgJzgnLCAnLW1hJywgJzIwMCcsICctbWV0YWxfYmluZGluZycsICctaW1hZScsICc8aW5maWxlLm1hZT4nLCAnLW9tYWUnLCAnPG91dGZpbGUubWFlPic=

> <r_lp_tautomer_probability>
1

> <r_epik_Ionization_Penalty>
0.0036983

> <r_epik_Ionization_Penalty_Charging>
0.0032725

> <r_epik_Ionization_Penalty_Neutral>
0.000425798

> <r_epik_State_Penalty>
-0

> <r_epik_Charging_Adjusted_Penalty>
0.0032725

> <i_epik_Tot_Q>
1

> <i_epik_Tot_abs_Q>
1

> <r_epik_Metal_State_Penalty>
-0

> <b_epik_Metal_Only>
0

> <s_lp_Force_Field>
OPLS_2005

> <r_lp_Energy>
58.7997

> <b_lp_Chiralities_Consistent>
1

> <s_lp_Variant>
AV-unprocessed.smi:290-13

> <Gold.Version>
5.8.1

> <Gold.Id.Protein>
6NUR|6NUR_protein|mol2

> <Gold.PLP.Fitness>
43.4763

> <Gold.PLP.PLP>
-29.5671

> <Gold.PLP.part.hbond>
-3.0000

> <Gold.PLP.part.metal>
0.0000

> <Gold.PLP.part.buried>
-4.4399

> <Gold.PLP.part.nonpolar>
-23.9973

> <Gold.PLP.part.repulsive>
2.9938

> <Gold.PLP.ligand.clash>
0.0000

> <Gold.PLP.ligand.torsion>
0.8718

> <Gold.PLP.Chemscore.Hbond>
4.0000

> <Gold.PLP.Chemscore.CHOScore>
1.0000

> <Gold.PLP.Chemscore.Metal>
0.0000

> <Gold.Chemscore.Hbonds>
donor molecule, donor type, donor heavy atom, donor atom, acceptor molecule, acceptor atom, score
      L1  H     7    39       P1  7921  1.00
      L1  H    18    59       P1  8028  2.00
      L1  H    22    54       P1  8028  1.00

> <Gold.PLP.Chemscore.Internal.Correction>
0.6527

> <Gold.Rescore>
     Score         DG    S(hbond)    S(metal)    S(lipo)     H(rot)  DE(clash)    DE(int)     intcor
      8.48     -14.37       2.93        0.00      72.49       3.67       2.72       3.16       ----

> <Gold.Chemscore.Fitness>
8.4843

> <Gold.Chemscore.DG>
-14.3670

> <Gold.Chemscore.ZeroCoef>
-5.4800

> <Gold.Chemscore.Hbond>
2.9313

> <Gold.Chemscore.Metal>
0.0000

> <Gold.Chemscore.Lipo>
72.4861

> <Gold.Chemscore.Internal_Hbond>
0.0000

> <Gold.Chemscore.DEClash>
2.7237

> <Gold.Chemscore.DEInternal>
3.1591

> <Gold.Chemscore.Rot>
3.6658

> <Gold.Chemscore.Internal.Correction>
   9.000000E+99

> <Gold.Chemscore.Hbonds>
donor molecule, donor type, donor heavy atom, donor atom, acceptor molecule, acceptor atom, score
      L1  H     7    39       P1  7921  0.97
      L1  H    18    59       P1  8028  0.97
      L1  H    22    54       P1  8028  1.00

> <Gold.Chemscore.Hbond.Weighted>
-9.7905

> <Gold.Chemscore.Metal.Weighted>
-0.0000

> <Gold.Chemscore.Lipo.Weighted>
-8.4809

> <Gold.Chemscore.Internal_Hbond.Weighted>
0.0000

> <Gold.Chemscore.DEClash.Weighted>
2.7237

> <Gold.Chemscore.DEInternal.Weighted>
3.1591

> <Gold.Chemscore.Rot.Weighted>
9.3844

> <Gold.Chemscore.Internal.Correction.Weighted>
   9.000000E+99

> <Gold.Protein.RotatedTorsions>
[ 6907 6896 6895 6894 ] final  -76.12 input  -60.11 | X-H torsion
[ 7974 7965 7964 7962 ] final   91.48 input  175.53 | X-H torsion
[ 8008 7997 7996 7995 ] final   71.40 input   59.86 | X-H torsion
[ 10167 10162 10161 10158 ] final -102.76 input  -65.29 | X-H torsion
[ 10718 10713 10712 10709 ] final -111.26 input   66.30 | X-H torsion
[ 10763 10752 10751 10750 ] final  -62.07 input  -60.55 | X-H torsion
[ 11005 11000 10999 10996 ] final  176.80 input  -57.11 | X-H torsion

> <Gold.Protein.ActiveResidues>
 VAL166  LYS551  ARG553  GLY616  TRP617  ASP618  TYR619  PRO620  LYS621  CYS622 
 ASP623  PHE694  ASN695  SER759  ASP760  ASP761  ALA762  ILE779  LEU786  VAL792 
 PHE793  MET794  SER795  GLU796  ALA797  LYS798  CYS799  TRP800  GLU811  SER814 

> <Gold.Protein.RotatedAtoms>
  150.7037  134.4619  159.5384 H   0  0  0  0  0  0  0  0  0  0  0  0  # atno 6907 bound_to 6896
  152.2292  134.8336  160.0485 H   0  0  0  0  0  0  0  0  0  0  0  0  # atno 6908 bound_to 6896
  151.9158  133.3538  159.3916 H   0  0  0  0  0  0  0  0  0  0  0  0  # atno 6909 bound_to 6896
  145.5051  139.2276  143.2756 H   0  0  0  0  0  0  0  0  0  0  0  0  # atno 7974 bound_to 7965
  155.7534  140.3488  155.5161 H   0  0  0  0  0  0  0  0  0  0  0  0  # atno 8008 bound_to 7997
  155.8983  140.1029  157.1389 H   0  0  0  0  0  0  0  0  0  0  0  0  # atno 8009 bound_to 7997
  154.4041  140.1291  156.4391 H   0  0  0  0  0  0  0  0  0  0  0  0  # atno 8010 bound_to 7997
  140.2272  143.3633  152.0918 H   0  0  0  0  0  0  0  0  0  0  0  0  # atno 10167 bound_to 10162
  156.0637  130.5858  150.8349 H   0  0  0  0  0  0  0  0  0  0  0  0  # atno 10718 bound_to 10713
  154.2942  135.6247  153.5398 H   0  0  0  0  0  0  0  0  0  0  0  0  # atno 10763 bound_to 10752
  152.9848  135.5663  154.5356 H   0  0  0  0  0  0  0  0  0  0  0  0  # atno 10764 bound_to 10752
  154.4973  135.2870  155.1425 H   0  0  0  0  0  0  0  0  0  0  0  0  # atno 10765 bound_to 10752
  140.3771  134.6979  157.4428 H   0  0  0  0  0  0  0  0  0  0  0  0  # atno 11005 bound_to 11000
  146.2202  140.5854  142.9021 LP  0  0  0  0  0  0  0  0  0  0  0  0  # atno 17320 bound_to 7965
  144.7758  140.5737  143.6639 LP  0  0  0  0  0  0  0  0  0  0  0  0  # atno 17321 bound_to 7965
  139.5123  144.6914  151.5749 LP  0  0  0  0  0  0  0  0  0  0  0  0  # atno 17342 bound_to 10162
  140.6211  143.9255  150.6527 LP  0  0  0  0  0  0  0  0  0  0  0  0  # atno 17343 bound_to 10162
  157.5664  131.0946  150.9483 LP  0  0  0  0  0  0  0  0  0  0  0  0  # atno 17370 bound_to 10713
  156.9710  130.5491  149.5290 LP  0  0  0  0  0  0  0  0  0  0  0  0  # atno 17371 bound_to 10713
  140.0507  134.6135  155.8865 LP  0  0  0  0  0  0  0  0  0  0  0  0  # atno 17394 bound_to 11000
  141.1936  133.6579  156.5554 LP  0  0  0  0  0  0  0  0  0  0  0  0  # atno 17395 bound_to 11000

$$$$
