AV-unprocessed.smi:1756|AV-procd|sdf|7071|dock9
  -GOLD-   22720 8293D 1   1.00000     0.00000
 Structure written by MMmdl.
 38 39  0  0  0  0  0  0  0  0  1 V2000
  148.2691  138.8689  158.0840 O   0  0  0  0  0  0  0  0  0  0  0  0
  149.3706  138.4585  158.4481 C   0  0  0  0  0  0  0  0  0  0  0  0
  149.5833  137.2070  158.8794 N   0  0  0  0  0  0  0  0  0  0  0  0
  148.5660  136.1666  159.0002 C   0  0  0  0  0  0  0  0  0  0  0  0
  148.1701  135.9051  160.4651 C   0  0  2  0  0  0  0  0  0  0  0  0
  147.2315  134.6920  160.6437 C   0  0  0  0  0  0  0  0  0  0  0  0
  146.7891  134.5581  162.1052 C   0  0  0  0  0  0  0  0  0  0  0  0
  146.2018  135.8860  162.5928 C   0  0  0  0  0  0  0  0  0  0  0  0
  147.1897  137.0317  162.3267 C   0  0  0  0  0  0  0  0  0  0  0  0
  147.5132  137.0785  160.9404 O   0  0  0  0  0  0  0  0  0  0  0  0
  150.5147  139.1673  158.4547 N   0  0  0  0  0  0  0  0  0  0  0  0
  150.7387  140.5080  158.0964 C   0  0  0  0  0  0  0  0  0  0  0  0
  151.4301  141.4103  158.8413 C   0  0  0  0  0  0  0  0  0  0  0  0
  151.6273  142.7827  158.4045 C   0  0  0  0  0  0  0  0  0  0  0  0
  152.4509  143.7679  159.2195 C   0  0  0  0  0  0  0  0  0  0  0  0
  152.5452  144.9466  158.6027 F   0  0  0  0  0  0  0  0  0  0  0  0
  151.8769  143.9647  160.4055 F   0  0  0  0  0  0  0  0  0  0  0  0
  153.6837  143.3047  159.4269 F   0  0  0  0  0  0  0  0  0  0  0  0
  151.1128  143.1105  157.2050 C   0  0  0  0  0  0  0  0  0  0  0  0
  150.3994  142.1904  156.4338 N   0  0  0  0  0  0  0  0  0  0  0  0
  150.1779  140.9065  156.7943 C   0  0  0  0  0  0  0  0  0  0  0  0
  149.5444  140.1547  156.0539 O   0  0  0  0  0  0  0  0  0  0  0  0
  150.0356  142.5166  155.5501 H   0  0  0  0  0  0  0  0  0  0  0  0
  150.5221  136.9526  159.1500 H   0  0  0  0  0  0  0  0  0  0  0  0
  147.6903  136.5062  158.4466 H   0  0  0  0  0  0  0  0  0  0  0  0
  148.8858  135.2406  158.5193 H   0  0  0  0  0  0  0  0  0  0  0  0
  149.0788  135.7536  161.0509 H   0  0  0  0  0  0  0  0  0  0  0  0
  146.3545  134.8099  160.0061 H   0  0  0  0  0  0  0  0  0  0  0  0
  147.7254  133.7728  160.3291 H   0  0  0  0  0  0  0  0  0  0  0  0
  146.0576  133.7565  162.2099 H   0  0  0  0  0  0  0  0  0  0  0  0
  147.6449  134.2857  162.7241 H   0  0  0  0  0  0  0  0  0  0  0  0
  145.2639  136.0859  162.0732 H   0  0  0  0  0  0  0  0  0  0  0  0
  145.9659  135.8282  163.6556 H   0  0  0  0  0  0  0  0  0  0  0  0
  146.7458  137.9838  162.6174 H   0  0  0  0  0  0  0  0  0  0  0  0
  148.0972  136.9097  162.9198 H   0  0  0  0  0  0  0  0  0  0  0  0
  151.3474  138.6650  158.7269 H   0  0  0  0  0  0  0  0  0  0  0  0
  151.8691  141.1335  159.7853 H   0  0  0  0  0  0  0  0  0  0  0  0
  151.2090  144.0841  156.7473 H   0  0  0  0  0  0  0  0  0  0  0  0
  1  2  2  0  0  0  0
  2  3  1  0  0  0  0
  2 11  1  0  0  0  0
  3  4  1  0  0  0  0
  3 24  1  0  0  0  0
  4  5  1  0  0  0  0
  4 25  1  0  0  0  0
  4 26  1  0  0  0  0
  5 10  1  0  0  0  0
  5  6  1  0  0  0  0
  5 27  1  0  0  0  0
  6  7  1  0  0  0  0
  6 28  1  0  0  0  0
  6 29  1  0  0  0  0
  7  8  1  0  0  0  0
  7 30  1  0  0  0  0
  7 31  1  0  0  0  0
  8  9  1  0  0  0  0
  8 32  1  0  0  0  0
  8 33  1  0  0  0  0
  9 10  1  0  0  0  0
  9 34  1  0  0  0  0
  9 35  1  0  0  0  0
 11 12  1  0  0  0  0
 11 36  1  0  0  0  0
 12 21  1  0  0  0  0
 12 13  2  0  0  0  0
 13 14  1  0  0  0  0
 13 37  1  0  0  0  0
 14 15  1  0  0  0  0
 14 19  2  0  0  0  0
 15 16  1  0  0  0  0
 15 17  1  0  0  0  0
 15 18  1  0  0  0  0
 19 20  1  0  0  0  0
 19 38  1  0  0  0  0
 20 23  1  0  0  0  0
 20 21  1  0  0  0  0
 21 22  2  0  0  0  0
M  END
> <s_m_source_file>
AV-unprocessed.smi

> <i_m_source_file_index>
1756

> <i_lp_mmshare_version>
43012

> <i_f3d_flags>
0

> <s_epik_input>
Tz1jMVtuSF1bY0hdYyhDKEYpKEYpRilbY0hdYzFbTkhdQyg9TylbTkhdW0NIMl1bQ0BASF0yW0NIMl1bQ0gyXVtDSDJdW0NIMl1PMg==

> <s_epik_cmdline>
J2VwaWtfcHl0aG9uJywgJy1waCcsICc3LjAnLCAnLXRuJywgJzgnLCAnLW1hJywgJzIwMCcsICctbWV0YWxfYmluZGluZycsICctaW1hZScsICc8aW5maWxlLm1hZT4nLCAnLW9tYWUnLCAnPG91dGZpbGUubWFlPic=

> <r_lp_tautomer_probability>
1

> <r_epik_Ionization_Penalty>
0.00380944

> <r_epik_Ionization_Penalty_Charging>
0.00379057

> <r_epik_Ionization_Penalty_Neutral>
1.88732e-05

> <r_epik_State_Penalty>
-0

> <r_epik_Charging_Adjusted_Penalty>
0.00379057

> <i_epik_Tot_Q>
0

> <i_epik_Tot_abs_Q>
0

> <r_epik_Metal_State_Penalty>
0.371099

> <b_epik_Metal_Only>
0

> <s_lp_Force_Field>
OPLS_2005

> <r_lp_Energy>
19.4174

> <b_lp_Chiralities_Consistent>
1

> <s_lp_Variant>
AV-unprocessed.smi:1756-1

> <Gold.Version>
5.8.1

> <Gold.Id.Protein>
6NUR|6NUR_protein|mol2

> <Gold.PLP.Fitness>
45.5889

> <Gold.PLP.PLP>
-43.0450

> <Gold.PLP.part.hbond>
-3.5469

> <Gold.PLP.part.metal>
0.0000

> <Gold.PLP.part.buried>
-3.8507

> <Gold.PLP.part.nonpolar>
-34.8343

> <Gold.PLP.part.repulsive>
0.3980

> <Gold.PLP.ligand.clash>
1.2276

> <Gold.PLP.ligand.torsion>
0.5539

> <Gold.PLP.Chemscore.Hbond>
0.9797

> <Gold.PLP.Chemscore.CHOScore>
0.6319

> <Gold.PLP.Chemscore.Metal>
0.0000

> <Gold.Chemscore.Hbonds>
donor molecule, donor type, donor heavy atom, donor atom, acceptor molecule, acceptor atom, score
      P1  H  6934  6947       L1    10  0.50
      L1  C    19    38       P1  8028  0.46

> <Gold.PLP.Chemscore.Internal.Correction>
0.0447

> <Gold.Rescore>
     Score         DG    S(hbond)    S(metal)    S(lipo)     H(rot)  DE(clash)    DE(int)     intcor
     13.16     -16.17       1.38        0.00      81.29       1.33       0.04       2.97       ----

> <Gold.Chemscore.Fitness>
13.1629

> <Gold.Chemscore.DG>
-16.1683

> <Gold.Chemscore.ZeroCoef>
-5.4800

> <Gold.Chemscore.Hbond>
1.3754

> <Gold.Chemscore.Metal>
0.0000

> <Gold.Chemscore.Lipo>
81.2850

> <Gold.Chemscore.Internal_Hbond>
0.0000

> <Gold.Chemscore.DEClash>
0.0402

> <Gold.Chemscore.DEInternal>
2.9652

> <Gold.Chemscore.Rot>
1.3344

> <Gold.Chemscore.Internal.Correction>
   9.000000E+99

> <Gold.Chemscore.Hbonds>
donor molecule, donor type, donor heavy atom, donor atom, acceptor molecule, acceptor atom, score
      L1  H    20    23       P1  8028  0.01
      P1  H  6934  6947       L1    10  0.02

> <Gold.Chemscore.Hbond.Weighted>
-4.5939

> <Gold.Chemscore.Metal.Weighted>
-0.0000

> <Gold.Chemscore.Lipo.Weighted>
-9.5103

> <Gold.Chemscore.Internal_Hbond.Weighted>
0.0000

> <Gold.Chemscore.DEClash.Weighted>
0.0402

> <Gold.Chemscore.DEInternal.Weighted>
2.9652

> <Gold.Chemscore.Rot.Weighted>
3.4160

> <Gold.Chemscore.Internal.Correction.Weighted>
   9.000000E+99

> <Gold.Protein.RotatedTorsions>
[ 6907 6896 6895 6894 ] final  145.20 input  -60.11 | X-H torsion
[ 7974 7965 7964 7962 ] final -103.77 input  175.53 | X-H torsion
[ 8008 7997 7996 7995 ] final  -11.42 input   59.86 | X-H torsion
[ 10167 10162 10161 10158 ] final   69.58 input  -65.29 | X-H torsion
[ 10718 10713 10712 10709 ] final  -13.09 input   66.30 | X-H torsion
[ 10763 10752 10751 10750 ] final -118.58 input  -60.55 | X-H torsion
[ 11005 11000 10999 10996 ] final -167.83 input  -57.11 | X-H torsion

> <Gold.Protein.ActiveResidues>
 VAL166  LYS551  ARG553  GLY616  TRP617  ASP618  TYR619  PRO620  LYS621  CYS622 
 ASP623  PHE694  ASN695  SER759  ASP760  ASP761  ALA762  ILE779  LEU786  VAL792 
 PHE793  MET794  SER795  GLU796  ALA797  LYS798  CYS799  TRP800  GLU811  SER814 

> <Gold.Protein.RotatedAtoms>
  152.1840  133.4727  159.4972 H   0  0  0  0  0  0  0  0  0  0  0  0  # atno 6907 bound_to 6896
  150.6939  134.1797  159.4253 H   0  0  0  0  0  0  0  0  0  0  0  0  # atno 6908 bound_to 6896
  151.9710  135.0076  160.0603 H   0  0  0  0  0  0  0  0  0  0  0  0  # atno 6909 bound_to 6896
  145.2516  140.9240  143.3092 H   0  0  0  0  0  0  0  0  0  0  0  0  # atno 7974 bound_to 7965
  154.5466  140.2303  155.8553 H   0  0  0  0  0  0  0  0  0  0  0  0  # atno 8008 bound_to 7997
  156.1908  140.3077  155.9291 H   0  0  0  0  0  0  0  0  0  0  0  0  # atno 8009 bound_to 7997
  155.3152  140.0437  157.3027 H   0  0  0  0  0  0  0  0  0  0  0  0  # atno 8010 bound_to 7997
  140.0662  144.5191  150.7259 H   0  0  0  0  0  0  0  0  0  0  0  0  # atno 10167 bound_to 10162
  156.6353  130.4913  149.6114 H   0  0  0  0  0  0  0  0  0  0  0  0  # atno 10718 bound_to 10713
  154.8592  135.4269  154.2161 H   0  0  0  0  0  0  0  0  0  0  0  0  # atno 10763 bound_to 10752
  153.3176  135.6980  153.7065 H   0  0  0  0  0  0  0  0  0  0  0  0  # atno 10764 bound_to 10752
  153.6132  135.3515  155.2959 H   0  0  0  0  0  0  0  0  0  0  0  0  # atno 10765 bound_to 10752
  140.5488  134.5449  157.5117 H   0  0  0  0  0  0  0  0  0  0  0  0  # atno 11005 bound_to 11000
  144.9498  139.4096  143.6408 LP  0  0  0  0  0  0  0  0  0  0  0  0  # atno 17320 bound_to 7965
  146.3301  139.8499  142.8875 LP  0  0  0  0  0  0  0  0  0  0  0  0  # atno 17321 bound_to 7965
  140.7148  143.2535  151.4469 LP  0  0  0  0  0  0  0  0  0  0  0  0  # atno 17342 bound_to 10162
  139.5863  144.1596  152.2033 LP  0  0  0  0  0  0  0  0  0  0  0  0  # atno 17343 bound_to 10162
  156.2202  130.6732  151.1360 LP  0  0  0  0  0  0  0  0  0  0  0  0  # atno 17370 bound_to 10713
  157.7188  131.0694  150.6222 LP  0  0  0  0  0  0  0  0  0  0  0  0  # atno 17371 bound_to 10713
  139.9466  134.7692  156.0548 LP  0  0  0  0  0  0  0  0  0  0  0  0  # atno 17394 bound_to 11000
  141.1184  133.6620  156.3151 LP  0  0  0  0  0  0  0  0  0  0  0  0  # atno 17395 bound_to 11000

$$$$
