AV-unprocessed.smi:1951|AV-procd|sdf|7882|dock2
  -GOLD-   2272010 33D 1   1.00000     0.00000
 Structure written by MMmdl.
 46 47  0  0  0  0  0  0  0  0  2 V2000
  147.6053  136.4994  162.5784 C   0  0  0  0  0  0  0  0  0  0  0  0
  148.1080  136.8867  161.3041 O   0  0  0  0  0  0  0  0  0  0  0  0
  148.3423  135.9039  160.3612 C   0  0  0  0  0  0  0  0  0  0  0  0
  148.1018  134.6126  160.7014 N   0  0  0  0  0  0  0  0  0  0  0  0
  148.3327  133.6521  159.7829 C   0  0  0  0  0  0  0  0  0  0  0  0
  148.8171  133.9229  158.4901 C   0  0  0  0  0  0  0  0  0  0  0  0
  149.0661  135.2613  158.1343 C   0  0  0  0  0  0  0  0  0  0  0  0
  148.8144  136.2821  159.0826 C   0  0  0  0  0  0  0  0  0  0  0  0
  149.0532  137.6612  158.8313 N   0  0  0  0  0  0  0  0  0  0  0  0
  150.0678  138.2189  158.1496 C   0  0  0  0  0  0  0  0  0  0  0  0
  150.9883  137.6040  157.6112 O   0  0  0  0  0  0  0  0  0  0  0  0
  149.9434  139.5527  158.0979 N   0  0  0  0  0  0  0  0  0  0  0  0
  150.8559  140.4495  157.3977 C   0  0  0  0  0  0  0  0  0  0  0  0
  150.1028  141.6428  156.7783 C   0  0  0  0  0  0  0  0  0  0  0  0
  150.3729  142.9173  157.4899 N   0  3  2  0  0  0  0  0  0  0  0  0
  151.8016  143.3157  157.4006 C   0  0  0  0  0  0  0  0  0  0  0  0
  152.0358  144.7028  158.0251 C   0  0  0  0  0  0  0  0  0  0  0  0
  151.5482  144.7741  159.4833 C   0  0  2  0  0  0  0  0  0  0  0  0
  152.4736  144.0231  160.4571 C   0  0  0  0  0  0  0  0  0  0  0  0
  150.0879  144.2927  159.5560 C   0  0  0  0  0  0  0  0  0  0  0  0
  149.8942  142.9143  158.8981 C   0  0  0  0  0  0  0  0  0  0  0  0
  147.4767  137.3857  163.1996 H   0  0  0  0  0  0  0  0  0  0  0  0
  148.2974  135.8318  163.0938 H   0  0  0  0  0  0  0  0  0  0  0  0
  146.6328  136.0119  162.4926 H   0  0  0  0  0  0  0  0  0  0  0  0
  148.1312  132.6366  160.0905 H   0  0  0  0  0  0  0  0  0  0  0  0
  148.9984  133.1217  157.7892 H   0  0  0  0  0  0  0  0  0  0  0  0
  149.4572  135.4777  157.1524 H   0  0  0  0  0  0  0  0  0  0  0  0
  148.3219  138.2871  159.1362 H   0  0  0  0  0  0  0  0  0  0  0  0
  149.1562  139.9763  158.5679 H   0  0  0  0  0  0  0  0  0  0  0  0
  151.5948  140.8079  158.1148 H   0  0  0  0  0  0  0  0  0  0  0  0
  151.4046  139.8847  156.6433 H   0  0  0  0  0  0  0  0  0  0  0  0
  150.3465  141.7570  155.7209 H   0  0  0  0  0  0  0  0  0  0  0  0
  149.0349  141.4242  156.8243 H   0  0  0  0  0  0  0  0  0  0  0  0
  152.4233  142.5644  157.8894 H   0  0  0  0  0  0  0  0  0  0  0  0
  152.1101  143.3440  156.3549 H   0  0  0  0  0  0  0  0  0  0  0  0
  153.0922  144.9672  157.9663 H   0  0  0  0  0  0  0  0  0  0  0  0
  151.5050  145.4505  157.4340 H   0  0  0  0  0  0  0  0  0  0  0  0
  151.5660  145.8217  159.7871 H   0  0  0  0  0  0  0  0  0  0  0  0
  152.5263  142.9571  160.2377 H   0  0  0  0  0  0  0  0  0  0  0  0
  152.1276  144.1300  161.4856 H   0  0  0  0  0  0  0  0  0  0  0  0
  153.4888  144.4184  160.4131 H   0  0  0  0  0  0  0  0  0  0  0  0
  149.7509  144.2645  160.5929 H   0  0  0  0  0  0  0  0  0  0  0  0
  149.4480  145.0173  159.0507 H   0  0  0  0  0  0  0  0  0  0  0  0
  148.8365  142.6570  158.9366 H   0  0  0  0  0  0  0  0  0  0  0  0
  150.4209  142.1445  159.4638 H   0  0  0  0  0  0  0  0  0  0  0  0
  149.8524  143.6329  157.0028 H   0  0  0  0  0  0  0  0  0  0  0  0
  1  2  1  0  0  0  0
  1 22  1  0  0  0  0
  1 23  1  0  0  0  0
  1 24  1  0  0  0  0
  2  3  1  0  0  0  0
  3  8  1  0  0  0  0
  3  4  2  0  0  0  0
  4  5  1  0  0  0  0
  5  6  2  0  0  0  0
  5 25  1  0  0  0  0
  6  7  1  0  0  0  0
  6 26  1  0  0  0  0
  7  8  2  0  0  0  0
  7 27  1  0  0  0  0
  8  9  1  0  0  0  0
  9 10  1  0  0  0  0
  9 28  1  0  0  0  0
 10 11  2  0  0  0  0
 10 12  1  0  0  0  0
 12 13  1  0  0  0  0
 12 29  1  0  0  0  0
 13 14  1  0  0  0  0
 13 30  1  0  0  0  0
 13 31  1  0  0  0  0
 14 15  1  0  0  0  0
 14 32  1  0  0  0  0
 14 33  1  0  0  0  0
 15 21  1  0  0  0  0
 15 16  1  0  0  0  0
 15 46  1  0  0  0  0
 16 17  1  0  0  0  0
 16 34  1  0  0  0  0
 16 35  1  0  0  0  0
 17 18  1  0  0  0  0
 17 36  1  0  0  0  0
 17 37  1  0  0  0  0
 18 19  1  0  0  0  0
 18 20  1  0  0  0  0
 18 38  1  0  0  0  0
 19 39  1  0  0  0  0
 19 40  1  0  0  0  0
 19 41  1  0  0  0  0
 20 21  1  0  0  0  0
 20 42  1  0  0  0  0
 20 43  1  0  0  0  0
 21 44  1  0  0  0  0
 21 45  1  0  0  0  0
M  CHG  1  15   1
M  END
> <s_m_source_file>
AV-unprocessed.smi

> <i_m_source_file_index>
1951

> <i_lp_mmshare_version>
43012

> <i_f3d_flags>
0

> <s_epik_input>
W0NIM11PYzFuW2NIXVtjSF1bY0hdYzFbTkhdQyg9TylbTkhdW0NIMl1bQ0gyXU4yW0NIMl1bQ0gyXVtDSF0oW0NIM10pW0NIMl1bQ0gyXTI=

> <s_epik_cmdline>
J2VwaWtfcHl0aG9uJywgJy1waCcsICc3LjAnLCAnLXRuJywgJzgnLCAnLW1hJywgJzIwMCcsICctbWV0YWxfYmluZGluZycsICctaW1hZScsICc8aW5maWxlLm1hZT4nLCAnLW9tYWUnLCAnPG91dGZpbGUubWFlPic=

> <r_lp_tautomer_probability>
1

> <r_epik_Ionization_Penalty>
0.00147101

> <r_epik_Ionization_Penalty_Charging>
0.00139388

> <r_epik_Ionization_Penalty_Neutral>
7.71355e-05

> <r_epik_State_Penalty>
0.000929204

> <r_epik_Charging_Adjusted_Penalty>
0.00232308

> <i_epik_Tot_Q>
1

> <i_epik_Tot_abs_Q>
1

> <r_epik_Metal_State_Penalty>
-0

> <b_epik_Metal_Only>
0

> <s_lp_Force_Field>
OPLS_2005

> <r_lp_Energy>
21.3579

> <b_lp_Chiralities_Consistent>
1

> <s_lp_Variant>
AV-unprocessed.smi:1951-2

> <Gold.Version>
5.8.1

> <Gold.Id.Protein>
6NUR|6NUR_protein|mol2

> <Gold.PLP.Fitness>
45.5209

> <Gold.PLP.PLP>
-35.7066

> <Gold.PLP.part.hbond>
-3.0000

> <Gold.PLP.part.metal>
0.0000

> <Gold.PLP.part.buried>
-6.1954

> <Gold.PLP.part.nonpolar>
-26.7312

> <Gold.PLP.part.repulsive>
0.3964

> <Gold.PLP.ligand.clash>
0.0000

> <Gold.PLP.ligand.torsion>
0.8203

> <Gold.PLP.Chemscore.Hbond>
3.8080

> <Gold.PLP.Chemscore.CHOScore>
0.0000

> <Gold.PLP.Chemscore.Metal>
0.0000

> <Gold.Chemscore.Hbonds>
donor molecule, donor type, donor heavy atom, donor atom, acceptor molecule, acceptor atom, score
      L1  H    15    46       P1  8028  2.00
      P1  H  6931  6943       L1     2  0.75
      P1  H  6934  6947       L1     2  0.14

> <Gold.PLP.Chemscore.Internal.Correction>
0.0310

> <Gold.Rescore>
     Score         DG    S(hbond)    S(metal)    S(lipo)     H(rot)  DE(clash)    DE(int)     intcor
     17.38     -18.82       2.15        0.00      90.20       1.71       0.03       1.41       ----

> <Gold.Chemscore.Fitness>
17.3848

> <Gold.Chemscore.DG>
-18.8208

> <Gold.Chemscore.ZeroCoef>
-5.4800

> <Gold.Chemscore.Hbond>
2.1457

> <Gold.Chemscore.Metal>
0.0000

> <Gold.Chemscore.Lipo>
90.2020

> <Gold.Chemscore.Internal_Hbond>
0.0000

> <Gold.Chemscore.DEClash>
0.0306

> <Gold.Chemscore.DEInternal>
1.4054

> <Gold.Chemscore.Rot>
1.7107

> <Gold.Chemscore.Internal.Correction>
   9.000000E+99

> <Gold.Chemscore.Hbonds>
donor molecule, donor type, donor heavy atom, donor atom, acceptor molecule, acceptor atom, score
      L1  H    15    46       P1  8028  0.96
      P1  H  6931  6943       L1     2  0.09
      P1  H  6934  6947       L1     2  0.07

> <Gold.Chemscore.Hbond.Weighted>
-7.1666

> <Gold.Chemscore.Metal.Weighted>
-0.0000

> <Gold.Chemscore.Lipo.Weighted>
-10.5536

> <Gold.Chemscore.Internal_Hbond.Weighted>
0.0000

> <Gold.Chemscore.DEClash.Weighted>
0.0306

> <Gold.Chemscore.DEInternal.Weighted>
1.4054

> <Gold.Chemscore.Rot.Weighted>
4.3794

> <Gold.Chemscore.Internal.Correction.Weighted>
   9.000000E+99

> <Gold.Protein.RotatedTorsions>
[ 6907 6896 6895 6894 ] final   67.68 input  -60.11 | X-H torsion
[ 7974 7965 7964 7962 ] final  149.81 input  175.53 | X-H torsion
[ 8008 7997 7996 7995 ] final -139.90 input   59.86 | X-H torsion
[ 10167 10162 10161 10158 ] final  159.46 input  -65.29 | X-H torsion
[ 10718 10713 10712 10709 ] final  144.38 input   66.30 | X-H torsion
[ 10763 10752 10751 10750 ] final  -70.17 input  -60.55 | X-H torsion
[ 11005 11000 10999 10996 ] final    7.09 input  -57.11 | X-H torsion

> <Gold.Protein.ActiveResidues>
 VAL166  LYS551  ARG553  GLY616  TRP617  ASP618  TYR619  PRO620  LYS621  CYS622 
 ASP623  PHE694  ASN695  SER759  ASP760  ASP761  ALA762  ILE779  LEU786  VAL792 
 PHE793  MET794  SER795  GLU796  ALA797  LYS798  CYS799  TRP800  GLU811  SER814 

> <Gold.Protein.RotatedAtoms>
  152.4568  134.5273  159.9800 H   0  0  0  0  0  0  0  0  0  0  0  0  # atno 6907 bound_to 6896
  151.5332  133.3440  159.2930 H   0  0  0  0  0  0  0  0  0  0  0  0  # atno 6908 bound_to 6896
  150.8516  134.7872  159.7075 H   0  0  0  0  0  0  0  0  0  0  0  0  # atno 6909 bound_to 6896
  144.8410  139.6328  143.6016 H   0  0  0  0  0  0  0  0  0  0  0  0  # atno 7974 bound_to 7965
  155.4524  140.0539  157.2999 H   0  0  0  0  0  0  0  0  0  0  0  0  # atno 8008 bound_to 7997
  154.4771  140.2066  155.9807 H   0  0  0  0  0  0  0  0  0  0  0  0  # atno 8009 bound_to 7997
  156.1149  140.3198  155.8130 H   0  0  0  0  0  0  0  0  0  0  0  0  # atno 8010 bound_to 7997
  139.4832  144.4727  151.8553 H   0  0  0  0  0  0  0  0  0  0  0  0  # atno 10167 bound_to 10162
  157.3579  131.0960  151.0942 H   0  0  0  0  0  0  0  0  0  0  0  0  # atno 10718 bound_to 10713
  154.4139  135.6002  153.5969 H   0  0  0  0  0  0  0  0  0  0  0  0  # atno 10763 bound_to 10752
  152.9791  135.5936  154.4037 H   0  0  0  0  0  0  0  0  0  0  0  0  # atno 10764 bound_to 10752
  154.3853  135.2841  155.2165 H   0  0  0  0  0  0  0  0  0  0  0  0  # atno 10765 bound_to 10752
  140.5521  134.0273  155.7941 H   0  0  0  0  0  0  0  0  0  0  0  0  # atno 11005 bound_to 11000
  146.2703  139.6618  142.9301 LP  0  0  0  0  0  0  0  0  0  0  0  0  # atno 17320 bound_to 7965
  145.4693  141.0435  143.2707 LP  0  0  0  0  0  0  0  0  0  0  0  0  # atno 17321 bound_to 7965
  140.4197  144.2259  150.5887 LP  0  0  0  0  0  0  0  0  0  0  0  0  # atno 17342 bound_to 10162
  140.4885  143.2355  151.8852 LP  0  0  0  0  0  0  0  0  0  0  0  0  # atno 17343 bound_to 10162
  157.2093  130.6430  149.5768 LP  0  0  0  0  0  0  0  0  0  0  0  0  # atno 17370 bound_to 10713
  155.9732  130.4665  150.6292 LP  0  0  0  0  0  0  0  0  0  0  0  0  # atno 17371 bound_to 10713
  141.1165  133.9531  157.2812 LP  0  0  0  0  0  0  0  0  0  0  0  0  # atno 17394 bound_to 11000
  139.9450  135.0185  156.8824 LP  0  0  0  0  0  0  0  0  0  0  0  0  # atno 17395 bound_to 11000

$$$$
