AV-unprocessed.smi:1805|AV-procd|sdf|7297|dock7
  -GOLD-   22720 8553D 1   1.00000     0.00000
 Structure written by MMmdl.
 29 30  0  0  0  0  0  0  0  0  1 V2000
  150.5286  140.5969  155.2328 O   0  0  0  0  0  0  0  0  0  0  0  0
  149.9859  141.6656  155.5141 C   0  0  0  0  0  0  0  0  0  0  0  0
  150.5504  142.6058  156.2847 N   0  0  0  0  0  0  0  0  0  0  0  0
  151.8650  142.5020  156.9080 C   0  0  0  0  0  0  0  0  0  0  0  0
  151.7834  142.6990  158.4305 C   0  0  2  0  0  0  0  0  0  0  0  0
  151.6804  144.1625  158.8577 C   0  0  0  0  0  0  0  0  0  0  0  0
  152.2686  144.1726  160.2610 C   0  0  0  0  0  0  0  0  0  0  0  0
  152.9567  142.8108  160.3888 C   0  0  0  0  0  0  0  0  0  0  0  0
  152.9807  142.2861  159.0697 O   0  0  0  0  0  0  0  0  0  0  0  0
  148.7666  142.0449  155.0977 N   0  0  0  0  0  0  0  0  0  0  0  0
  147.8780  141.3212  154.2630 C   0  0  0  0  0  0  0  0  0  0  0  0
  148.2271  140.1573  153.5257 C   0  0  0  0  0  0  0  0  0  0  0  0
  147.1946  139.6938  152.8359 N   0  0  0  0  0  0  0  0  0  0  0  0
  146.1897  140.5509  153.1259 N   0  0  0  0  0  0  0  0  0  0  0  0
  146.5598  141.5575  153.9904 C   0  0  0  0  0  0  0  0  0  0  0  0
  145.2672  140.4370  152.7307 H   0  0  0  0  0  0  0  0  0  0  0  0
  150.0297  143.4523  156.4609 H   0  0  0  0  0  0  0  0  0  0  0  0
  152.3393  141.5497  156.6645 H   0  0  0  0  0  0  0  0  0  0  0  0
  152.4949  143.2793  156.4747 H   0  0  0  0  0  0  0  0  0  0  0  0
  150.9452  142.1346  158.8442 H   0  0  0  0  0  0  0  0  0  0  0  0
  152.2892  144.7902  158.2053 H   0  0  0  0  0  0  0  0  0  0  0  0
  150.6572  144.5375  158.8235 H   0  0  0  0  0  0  0  0  0  0  0  0
  152.9786  144.9922  160.3756 H   0  0  0  0  0  0  0  0  0  0  0  0
  151.4961  144.2882  161.0221 H   0  0  0  0  0  0  0  0  0  0  0  0
  153.9630  142.8856  160.8018 H   0  0  0  0  0  0  0  0  0  0  0  0
  152.3745  142.1454  161.0279 H   0  0  0  0  0  0  0  0  0  0  0  0
  148.4411  142.9491  155.4069 H   0  0  0  0  0  0  0  0  0  0  0  0
  149.1756  139.6435  153.4694 H   0  0  0  0  0  0  0  0  0  0  0  0
  145.8700  142.3211  154.3182 H   0  0  0  0  0  0  0  0  0  0  0  0
  1  2  2  0  0  0  0
  2  3  1  0  0  0  0
  2 10  1  0  0  0  0
  3  4  1  0  0  0  0
  3 17  1  0  0  0  0
  4  5  1  0  0  0  0
  4 18  1  0  0  0  0
  4 19  1  0  0  0  0
  5  9  1  0  0  0  0
  5  6  1  0  0  0  0
  5 20  1  0  0  0  0
  6  7  1  0  0  0  0
  6 21  1  0  0  0  0
  6 22  1  0  0  0  0
  7  8  1  0  0  0  0
  7 23  1  0  0  0  0
  7 24  1  0  0  0  0
  8  9  1  0  0  0  0
  8 25  1  0  0  0  0
  8 26  1  0  0  0  0
 10 11  1  0  0  0  0
 10 27  1  0  0  0  0
 11 15  2  0  0  0  0
 11 12  1  0  0  0  0
 12 13  2  0  0  0  0
 12 28  1  0  0  0  0
 13 14  1  0  0  0  0
 14 16  1  0  0  0  0
 14 15  1  0  0  0  0
 15 29  1  0  0  0  0
M  END
> <s_m_source_file>
AV-unprocessed.smi

> <i_m_source_file_index>
1805

> <i_lp_mmshare_version>
43012

> <i_f3d_flags>
0

> <s_epik_input>
W2NIXTFbbkhdbltjSF1jMVtOSF1DKD1PKVtOSF1bQ0gyXVtDQEBIXTJbQ0gyXVtDSDJdW0NIMl1PMg==

> <s_epik_cmdline>
J2VwaWtfcHl0aG9uJywgJy1waCcsICc3LjAnLCAnLXRuJywgJzgnLCAnLW1hJywgJzIwMCcsICctbWV0YWxfYmluZGluZycsICctaW1hZScsICc8aW5maWxlLm1hZT4nLCAnLW9tYWUnLCAnPG91dGZpbGUubWFlPic=

> <r_lp_tautomer_probability>
1

> <r_epik_Ionization_Penalty>
4.81496e-05

> <r_epik_Ionization_Penalty_Charging>
0

> <r_epik_Ionization_Penalty_Neutral>
4.81496e-05

> <r_epik_State_Penalty>
-0

> <r_epik_Charging_Adjusted_Penalty>
0

> <i_epik_Tot_Q>
0

> <i_epik_Tot_abs_Q>
0

> <r_epik_Metal_State_Penalty>
-0

> <b_epik_Metal_Only>
0

> <s_lp_Force_Field>
OPLS_2005

> <r_lp_Energy>
19.369

> <b_lp_Chiralities_Consistent>
1

> <s_lp_Variant>
AV-unprocessed.smi:1805-1

> <Gold.Version>
5.8.1

> <Gold.Id.Protein>
6NUR|6NUR_protein|mol2

> <Gold.PLP.Fitness>
38.5230

> <Gold.PLP.PLP>
-27.2143

> <Gold.PLP.part.hbond>
-4.0000

> <Gold.PLP.part.metal>
0.0000

> <Gold.PLP.part.buried>
-3.4041

> <Gold.PLP.part.nonpolar>
-20.8080

> <Gold.PLP.part.repulsive>
1.4473

> <Gold.PLP.ligand.clash>
0.0000

> <Gold.PLP.ligand.torsion>
0.1775

> <Gold.PLP.Chemscore.Hbond>
3.6064

> <Gold.PLP.Chemscore.CHOScore>
0.2791

> <Gold.PLP.Chemscore.Metal>
0.0000

> <Gold.Chemscore.Hbonds>
donor molecule, donor type, donor heavy atom, donor atom, acceptor molecule, acceptor atom, score
      L1  H     3    17       P1  8028  0.88
      L1  H    10    27       P1  8028  0.93
      L1  H    14    16       P1 10175  1.00
      P1  H  7989  7998       L1     1  0.86
      L1  C    12    28       P1  7957  0.35

> <Gold.PLP.Chemscore.Internal.Correction>
0.0072

> <Gold.Rescore>
     Score         DG    S(hbond)    S(metal)    S(lipo)     H(rot)  DE(clash)    DE(int)     intcor
     17.91     -22.01       3.23        0.00      78.13       1.33       2.47       1.64       ----

> <Gold.Chemscore.Fitness>
17.9087

> <Gold.Chemscore.DG>
-22.0112

> <Gold.Chemscore.ZeroCoef>
-5.4800

> <Gold.Chemscore.Hbond>
3.2324

> <Gold.Chemscore.Metal>
0.0000

> <Gold.Chemscore.Lipo>
78.1307

> <Gold.Chemscore.Internal_Hbond>
0.0000

> <Gold.Chemscore.DEClash>
2.4661

> <Gold.Chemscore.DEInternal>
1.6364

> <Gold.Chemscore.Rot>
1.3306

> <Gold.Chemscore.Internal.Correction>
   9.000000E+99

> <Gold.Chemscore.Hbonds>
donor molecule, donor type, donor heavy atom, donor atom, acceptor molecule, acceptor atom, score
      L1  H     3    17       P1  8028  0.86
      L1  H    10    27       P1  8028  0.89
      L1  H    14    16       P1 10175  0.77
      P1  H  7989  7998       L1     1  0.48

> <Gold.Chemscore.Hbond.Weighted>
-10.7962

> <Gold.Chemscore.Metal.Weighted>
-0.0000

> <Gold.Chemscore.Lipo.Weighted>
-9.1413

> <Gold.Chemscore.Internal_Hbond.Weighted>
0.0000

> <Gold.Chemscore.DEClash.Weighted>
2.4661

> <Gold.Chemscore.DEInternal.Weighted>
1.6364

> <Gold.Chemscore.Rot.Weighted>
3.4063

> <Gold.Chemscore.Internal.Correction.Weighted>
   9.000000E+99

> <Gold.Protein.RotatedTorsions>
[ 6907 6896 6895 6894 ] final -128.02 input  -60.11 | X-H torsion
[ 7974 7965 7964 7962 ] final  -82.81 input  175.53 | X-H torsion
[ 8008 7997 7996 7995 ] final  113.71 input   59.86 | X-H torsion
[ 10167 10162 10161 10158 ] final  -56.90 input  -65.29 | X-H torsion
[ 10718 10713 10712 10709 ] final    9.90 input   66.30 | X-H torsion
[ 10763 10752 10751 10750 ] final -140.41 input  -60.55 | X-H torsion
[ 11005 11000 10999 10996 ] final  140.49 input  -57.11 | X-H torsion

> <Gold.Protein.ActiveResidues>
 VAL166  LYS551  ARG553  GLY616  TRP617  ASP618  TYR619  PRO620  LYS621  CYS622 
 ASP623  PHE694  ASN695  SER759  ASP760  ASP761  ALA762  ILE779  LEU786  VAL792 
 PHE793  MET794  SER795  GLU796  ALA797  LYS798  CYS799  TRP800  GLU811  SER814 

> <Gold.Protein.RotatedAtoms>
  150.9134  133.6969  159.2849 H   0  0  0  0  0  0  0  0  0  0  0  0  # atno 6907 bound_to 6896
  151.4448  135.1022  159.9690 H   0  0  0  0  0  0  0  0  0  0  0  0  # atno 6908 bound_to 6896
  152.4942  133.8534  159.7268 H   0  0  0  0  0  0  0  0  0  0  0  0  # atno 6909 bound_to 6896
  145.5283  140.9524  143.1617 H   0  0  0  0  0  0  0  0  0  0  0  0  # atno 7974 bound_to 7965
  156.2275  140.2974  156.0104 H   0  0  0  0  0  0  0  0  0  0  0  0  # atno 8008 bound_to 7997
  155.2316  140.0419  157.2980 H   0  0  0  0  0  0  0  0  0  0  0  0  # atno 8009 bound_to 7997
  154.5940  140.2409  155.7889 H   0  0  0  0  0  0  0  0  0  0  0  0  # atno 8010 bound_to 7997
  140.6290  143.2451  151.5290 H   0  0  0  0  0  0  0  0  0  0  0  0  # atno 10167 bound_to 10162
  156.9731  130.5977  149.5670 H   0  0  0  0  0  0  0  0  0  0  0  0  # atno 10718 bound_to 10713
  154.8579  135.3554  154.5702 H   0  0  0  0  0  0  0  0  0  0  0  0  # atno 10763 bound_to 10752
  153.6315  135.7002  153.5278 H   0  0  0  0  0  0  0  0  0  0  0  0  # atno 10764 bound_to 10752
  153.3045  135.4196  155.1241 H   0  0  0  0  0  0  0  0  0  0  0  0  # atno 10765 bound_to 10752
  140.0331  134.9342  157.0701 H   0  0  0  0  0  0  0  0  0  0  0  0  # atno 11005 bound_to 11000
  144.7639  139.6891  143.7223 LP  0  0  0  0  0  0  0  0  0  0  0  0  # atno 17320 bound_to 7965
  146.2061  139.5385  142.9712 LP  0  0  0  0  0  0  0  0  0  0  0  0  # atno 17321 bound_to 7965
  139.5506  144.2405  152.1524 LP  0  0  0  0  0  0  0  0  0  0  0  0  # atno 17342 bound_to 10162
  140.1643  144.4996  150.6615 LP  0  0  0  0  0  0  0  0  0  0  0  0  # atno 17343 bound_to 10162
  156.0274  130.5368  150.8445 LP  0  0  0  0  0  0  0  0  0  0  0  0  # atno 17370 bound_to 10713
  157.5579  131.0945  150.9602 LP  0  0  0  0  0  0  0  0  0  0  0  0  # atno 17371 bound_to 10713
  140.4192  134.1899  155.7164 LP  0  0  0  0  0  0  0  0  0  0  0  0  # atno 17394 bound_to 11000
  141.1842  133.8348  157.1147 LP  0  0  0  0  0  0  0  0  0  0  0  0  # atno 17395 bound_to 11000

$$$$
