AV-unprocessed.smi:2951|AV-procd|sdf|11290|dock9
  -GOLD-   2272016183D 1   1.00000     0.00000
 Structure written by MMmdl.
 17 17  0  0  0  0  0  0  0  0  1 V2000
  149.8868  135.9410  154.4525 N   0  0  0  0  0  0  0  0  0  0  0  0
  150.9659  136.5829  154.9085 C   0  0  0  0  0  0  0  0  0  0  0  0
  151.6068  136.1849  155.8791 O   0  0  0  0  0  0  0  0  0  0  0  0
  151.3882  137.8536  154.1689 C   0  0  0  0  0  0  0  0  0  0  0  0
  150.3701  138.9372  154.3766 C   0  0  0  0  0  0  0  0  0  0  0  0
  149.0316  138.8797  154.0699 C   0  0  0  0  0  0  0  0  0  0  0  0
  148.2039  140.3598  154.4728 S   0  0  0  0  0  0  0  0  0  0  0  0
  149.7304  141.0059  155.0547 C   0  0  0  0  0  0  0  0  0  0  0  0
  149.8251  142.2852  155.5743 N   0  0  0  0  0  0  0  0  0  0  0  0
  150.7540  140.1583  154.9435 N   0  0  0  0  0  0  0  0  0  0  0  0
  149.5697  135.1017  154.9159 H   0  0  0  0  0  0  0  0  0  0  0  0
  149.3876  136.2997  153.6511 H   0  0  0  0  0  0  0  0  0  0  0  0
  152.3645  138.1722  154.5363 H   0  0  0  0  0  0  0  0  0  0  0  0
  151.5175  137.6347  153.1080 H   0  0  0  0  0  0  0  0  0  0  0  0
  148.4859  138.0589  153.6283 H   0  0  0  0  0  0  0  0  0  0  0  0
  149.0174  142.8883  155.6350 H   0  0  0  0  0  0  0  0  0  0  0  0
  150.6820  142.6224  155.9886 H   0  0  0  0  0  0  0  0  0  0  0  0
  1  2  1  0  0  0  0
  1 11  1  0  0  0  0
  1 12  1  0  0  0  0
  2  3  2  0  0  0  0
  2  4  1  0  0  0  0
  4  5  1  0  0  0  0
  4 13  1  0  0  0  0
  4 14  1  0  0  0  0
  5 10  1  0  0  0  0
  5  6  2  0  0  0  0
  6  7  1  0  0  0  0
  6 15  1  0  0  0  0
  7  8  1  0  0  0  0
  8  9  1  0  0  0  0
  8 10  2  0  0  0  0
  9 16  1  0  0  0  0
  9 17  1  0  0  0  0
M  END
> <s_m_source_file>
AV-unprocessed.smi

> <i_m_source_file_index>
2951

> <i_lp_mmshare_version>
43012

> <i_f3d_flags>
0

> <s_epik_input>
W05IMl1DKD1PKVtDSDJdYzFbY0hdc2MobjEpW05IMl0=

> <s_epik_cmdline>
J2VwaWtfcHl0aG9uJywgJy1waCcsICc3LjAnLCAnLXRuJywgJzgnLCAnLW1hJywgJzIwMCcsICctbWV0YWxfYmluZGluZycsICctaW1hZScsICc8aW5maWxlLm1hZT4nLCAnLW9tYWUnLCAnPG91dGZpbGUubWFlPic=

> <r_lp_tautomer_probability>
1

> <r_epik_Ionization_Penalty>
0.00145479

> <r_epik_Ionization_Penalty_Charging>
0

> <r_epik_Ionization_Penalty_Neutral>
0.00145479

> <r_epik_State_Penalty>
-0

> <r_epik_Charging_Adjusted_Penalty>
0

> <i_epik_Tot_Q>
0

> <i_epik_Tot_abs_Q>
0

> <r_epik_Metal_State_Penalty>
-0

> <b_epik_Metal_Only>
0

> <s_lp_Force_Field>
OPLS_2005

> <r_lp_Energy>
-0.412786

> <b_lp_Chiralities_Consistent>
1

> <s_lp_Variant>
AV-unprocessed.smi:2951-1

> <Gold.Version>
5.8.1

> <Gold.Id.Protein>
6NUR|6NUR_protein|mol2

> <Gold.PLP.Fitness>
32.6407

> <Gold.PLP.PLP>
-18.9184

> <Gold.PLP.part.hbond>
-4.5058

> <Gold.PLP.part.metal>
0.0000

> <Gold.PLP.part.buried>
0.3021

> <Gold.PLP.part.nonpolar>
-13.9758

> <Gold.PLP.part.repulsive>
0.3375

> <Gold.PLP.ligand.clash>
0.0000

> <Gold.PLP.ligand.torsion>
0.0684

> <Gold.PLP.Chemscore.Hbond>
3.6400

> <Gold.PLP.Chemscore.CHOScore>
0.9797

> <Gold.PLP.Chemscore.Metal>
0.0000

> <Gold.Chemscore.Hbonds>
donor molecule, donor type, donor heavy atom, donor atom, acceptor molecule, acceptor atom, score
      L1  H     1    12       P1  7948  0.99
      L1  H     9    16       P1  8028  0.62
      P1  H  7989  7998       L1    10  0.95
      P1  H 10752 10763       L1     3  0.95
      L1  C     6    15       P1  7948  0.90

> <Gold.PLP.Chemscore.Internal.Correction>
0.0001

> <Gold.Rescore>
     Score         DG    S(hbond)    S(metal)    S(lipo)     H(rot)  DE(clash)    DE(int)     intcor
     11.48     -12.47       2.29        0.00      30.45       1.65       0.13       0.86       ----

> <Gold.Chemscore.Fitness>
11.4809

> <Gold.Chemscore.DG>
-12.4736

> <Gold.Chemscore.ZeroCoef>
-5.4800

> <Gold.Chemscore.Hbond>
2.2914

> <Gold.Chemscore.Metal>
0.0000

> <Gold.Chemscore.Lipo>
30.4499

> <Gold.Chemscore.Internal_Hbond>
0.0000

> <Gold.Chemscore.DEClash>
0.1313

> <Gold.Chemscore.DEInternal>
0.8614

> <Gold.Chemscore.Rot>
1.6493

> <Gold.Chemscore.Internal.Correction>
   9.000000E+99

> <Gold.Chemscore.Hbonds>
donor molecule, donor type, donor heavy atom, donor atom, acceptor molecule, acceptor atom, score
      L1  H     1    12       P1  7948  0.74
      L1  H     9    16       P1  8028  0.62
      P1  H  7989  7998       L1    10  0.06
      P1  H 10752 10763       L1     3  0.22

> <Gold.Chemscore.Hbond.Weighted>
-7.6532

> <Gold.Chemscore.Metal.Weighted>
-0.0000

> <Gold.Chemscore.Lipo.Weighted>
-3.5626

> <Gold.Chemscore.Internal_Hbond.Weighted>
0.0000

> <Gold.Chemscore.DEClash.Weighted>
0.1313

> <Gold.Chemscore.DEInternal.Weighted>
0.8614

> <Gold.Chemscore.Rot.Weighted>
4.2222

> <Gold.Chemscore.Internal.Correction.Weighted>
   9.000000E+99

> <Gold.Protein.RotatedTorsions>
[ 6907 6896 6895 6894 ] final -153.79 input  -60.11 | X-H torsion
[ 7974 7965 7964 7962 ] final  -41.21 input  175.53 | X-H torsion
[ 8008 7997 7996 7995 ] final   -6.55 input   59.86 | X-H torsion
[ 10167 10162 10161 10158 ] final  148.86 input  -65.29 | X-H torsion
[ 10718 10713 10712 10709 ] final -140.06 input   66.30 | X-H torsion
[ 10763 10752 10751 10750 ] final   85.29 input  -60.55 | X-H torsion
[ 11005 11000 10999 10996 ] final -147.69 input  -57.11 | X-H torsion

> <Gold.Protein.ActiveResidues>
 VAL166  LYS551  ARG553  GLY616  TRP617  ASP618  TYR619  PRO620  LYS621  CYS622 
 ASP623  PHE694  ASN695  SER759  ASP760  ASP761  ALA762  ILE779  LEU786  VAL792 
 PHE793  MET794  SER795  GLU796  ALA797  LYS798  CYS799  TRP800  GLU811  SER814 

> <Gold.Protein.RotatedAtoms>
  151.2478  133.4366  159.2609 H   0  0  0  0  0  0  0  0  0  0  0  0  # atno 6907 bound_to 6896
  151.0645  134.9759  159.8287 H   0  0  0  0  0  0  0  0  0  0  0  0  # atno 6908 bound_to 6896
  152.5403  134.2427  159.8921 H   0  0  0  0  0  0  0  0  0  0  0  0  # atno 6909 bound_to 6896
  146.0233  140.6823  142.9168 H   0  0  0  0  0  0  0  0  0  0  0  0  # atno 7974 bound_to 7965
  154.5926  140.2430  155.7900 H   0  0  0  0  0  0  0  0  0  0  0  0  # atno 8008 bound_to 7997
  156.2257  140.2983  156.0016 H   0  0  0  0  0  0  0  0  0  0  0  0  # atno 8009 bound_to 7997
  155.2348  140.0405  157.2957 H   0  0  0  0  0  0  0  0  0  0  0  0  # atno 8010 bound_to 7997
  139.4869  144.5647  151.7167 H   0  0  0  0  0  0  0  0  0  0  0  0  # atno 10167 bound_to 10162
  156.3179  130.7518  151.1609 H   0  0  0  0  0  0  0  0  0  0  0  0  # atno 10718 bound_to 10713
  153.1461  135.4623  154.9568 H   0  0  0  0  0  0  0  0  0  0  0  0  # atno 10763 bound_to 10752
  154.7787  135.3181  154.8039 H   0  0  0  0  0  0  0  0  0  0  0  0  # atno 10764 bound_to 10752
  153.8553  135.6917  153.4842 H   0  0  0  0  0  0  0  0  0  0  0  0  # atno 10765 bound_to 10752
  140.7690  134.3211  157.5080 H   0  0  0  0  0  0  0  0  0  0  0  0  # atno 11005 bound_to 11000
  144.6999  140.3604  143.7165 LP  0  0  0  0  0  0  0  0  0  0  0  0  # atno 17320 bound_to 7965
  145.7159  139.1697  143.2512 LP  0  0  0  0  0  0  0  0  0  0  0  0  # atno 17321 bound_to 7965
  140.5223  144.0860  150.6026 LP  0  0  0  0  0  0  0  0  0  0  0  0  # atno 17342 bound_to 10162
  140.3822  143.2796  152.0157 LP  0  0  0  0  0  0  0  0  0  0  0  0  # atno 17343 bound_to 10162
  157.7405  131.0515  150.5158 LP  0  0  0  0  0  0  0  0  0  0  0  0  # atno 17370 bound_to 10713
  156.5306  130.4184  149.6203 LP  0  0  0  0  0  0  0  0  0  0  0  0  # atno 17371 bound_to 10713
  139.8759  134.9249  156.3361 LP  0  0  0  0  0  0  0  0  0  0  0  0  # atno 17394 bound_to 11000
  140.9592  133.7400  156.0377 LP  0  0  0  0  0  0  0  0  0  0  0  0  # atno 17395 bound_to 11000

$$$$
