AV-unprocessed.smi:2654|AV-procd|sdf|10297|dock2
  -GOLD-   2272014313D 1   1.00000     0.00000
 Structure written by MMmdl.
 35 37  0  0  0  0  0  0  0  0  1 V2000
  145.7898  138.7367  153.5263 O   0  0  0  0  0  0  0  0  0  0  0  0
  146.7589  138.2802  152.9200 C   0  0  0  0  0  0  0  0  0  0  0  0
  148.0238  138.7218  153.0292 N   0  0  0  0  0  0  0  0  0  0  0  0
  148.5330  139.7722  153.8401 C   0  0  0  0  0  0  0  0  0  0  0  0
  147.7791  140.8851  154.2789 C   0  0  0  0  0  0  0  0  0  0  0  0
  148.4028  141.8519  155.0910 C   0  0  0  0  0  0  0  0  0  0  0  0
  149.7570  141.6887  155.4563 C   0  0  0  0  0  0  0  0  0  0  0  0
  150.2904  142.7237  156.2699 N   0  0  0  0  0  0  0  0  0  0  0  0
  151.1889  142.6234  157.2673 C   0  0  0  0  0  0  0  0  0  0  0  0
  151.6894  141.5641  157.6488 O   0  0  0  0  0  0  0  0  0  0  0  0
  151.5307  143.9392  157.8881 C   0  0  0  0  0  0  0  0  0  0  0  0
  152.9520  144.4416  157.7323 C   0  0  0  0  0  0  0  0  0  0  0  0
  152.4775  143.9354  159.0712 C   0  0  0  0  0  0  0  0  0  0  0  0
  150.4697  140.6120  155.0441 N   0  0  0  0  0  0  0  0  0  0  0  0
  149.8726  139.6859  154.2661 C   0  0  0  0  0  0  0  0  0  0  0  0
  146.6755  137.2729  152.0404 N   0  0  0  0  0  0  0  0  0  0  0  0
  145.4778  136.5870  151.6768 C   0  0  0  0  0  0  0  0  0  0  0  0
  145.3593  135.1273  152.0590 C   0  0  0  0  0  0  0  0  0  0  0  0
  145.5804  135.5076  150.6209 C   0  0  0  0  0  0  0  0  0  0  0  0
  148.6970  138.2903  152.4129 H   0  0  0  0  0  0  0  0  0  0  0  0
  146.7392  141.0141  154.0234 H   0  0  0  0  0  0  0  0  0  0  0  0
  147.8392  142.7088  155.4306 H   0  0  0  0  0  0  0  0  0  0  0  0
  149.9513  143.6528  156.0680 H   0  0  0  0  0  0  0  0  0  0  0  0
  150.7450  144.6933  157.8950 H   0  0  0  0  0  0  0  0  0  0  0  0
  153.6662  143.8250  157.1892 H   0  0  0  0  0  0  0  0  0  0  0  0
  153.0857  145.5144  157.6100 H   0  0  0  0  0  0  0  0  0  0  0  0
  152.2901  144.6656  159.8557 H   0  0  0  0  0  0  0  0  0  0  0  0
  152.8772  142.9832  159.4160 H   0  0  0  0  0  0  0  0  0  0  0  0
  150.4898  138.8500  153.9701 H   0  0  0  0  0  0  0  0  0  0  0  0
  147.5250  136.9688  151.5875 H   0  0  0  0  0  0  0  0  0  0  0  0
  144.5513  137.1597  151.6845 H   0  0  0  0  0  0  0  0  0  0  0  0
  146.1914  134.6701  152.5910 H   0  0  0  0  0  0  0  0  0  0  0  0
  144.3728  134.7606  152.3357 H   0  0  0  0  0  0  0  0  0  0  0  0
  144.7417  135.3940  149.9370 H   0  0  0  0  0  0  0  0  0  0  0  0
  146.5603  135.3041  150.1929 H   0  0  0  0  0  0  0  0  0  0  0  0
  1  2  2  0  0  0  0
  2  3  1  0  0  0  0
  2 16  1  0  0  0  0
  3  4  1  0  0  0  0
  3 20  1  0  0  0  0
  4 15  1  0  0  0  0
  4  5  2  0  0  0  0
  5  6  1  0  0  0  0
  5 21  1  0  0  0  0
  6  7  2  0  0  0  0
  6 22  1  0  0  0  0
  7  8  1  0  0  0  0
  7 14  1  0  0  0  0
  8  9  1  0  0  0  0
  8 23  1  0  0  0  0
  9 10  2  0  0  0  0
  9 11  1  0  0  0  0
 11 13  1  0  0  0  0
 11 12  1  0  0  0  0
 11 24  1  0  0  0  0
 12 13  1  0  0  0  0
 12 25  1  0  0  0  0
 12 26  1  0  0  0  0
 13 27  1  0  0  0  0
 13 28  1  0  0  0  0
 14 15  2  0  0  0  0
 15 29  1  0  0  0  0
 16 17  1  0  0  0  0
 16 30  1  0  0  0  0
 17 19  1  0  0  0  0
 17 18  1  0  0  0  0
 17 31  1  0  0  0  0
 18 19  1  0  0  0  0
 18 32  1  0  0  0  0
 18 33  1  0  0  0  0
 19 34  1  0  0  0  0
 19 35  1  0  0  0  0
M  END
> <s_m_source_file>
AV-unprocessed.smi

> <i_m_source_file_index>
2654

> <i_lp_mmshare_version>
43012

> <i_f3d_flags>
0

> <s_epik_input>
W0NIMl0xW0NIMl1bQ0hdMVtOSF1DKD1PKVtOSF1jMltjSF1bY0hdYyhuW2NIXTIpW05IXUMoPU8pW0NIXTNbQ0gyXVtDSDJdMw==

> <s_epik_cmdline>
J2VwaWtfcHl0aG9uJywgJy1waCcsICc3LjAnLCAnLXRuJywgJzgnLCAnLW1hJywgJzIwMCcsICctbWV0YWxfYmluZGluZycsICctaW1hZScsICc8aW5maWxlLm1hZT4nLCAnLW9tYWUnLCAnPG91dGZpbGUubWFlPic=

> <r_lp_tautomer_probability>
1

> <r_epik_Ionization_Penalty>
0.00116413

> <r_epik_Ionization_Penalty_Charging>
0

> <r_epik_Ionization_Penalty_Neutral>
0.00116413

> <r_epik_State_Penalty>
-0

> <r_epik_Charging_Adjusted_Penalty>
0

> <i_epik_Tot_Q>
0

> <i_epik_Tot_abs_Q>
0

> <r_epik_Metal_State_Penalty>
-0

> <b_epik_Metal_Only>
0

> <s_lp_Force_Field>
OPLS_2005

> <r_lp_Energy>
24.5982

> <b_lp_Chiralities_Consistent>
1

> <s_lp_Variant>
AV-unprocessed.smi:2654-1

> <Gold.Version>
5.8.1

> <Gold.Id.Protein>
6NUR|6NUR_protein|mol2

> <Gold.PLP.Fitness>
44.3183

> <Gold.PLP.PLP>
-36.0726

> <Gold.PLP.part.hbond>
-4.8066

> <Gold.PLP.part.metal>
0.0000

> <Gold.PLP.part.buried>
-1.0637

> <Gold.PLP.part.nonpolar>
-32.0779

> <Gold.PLP.part.repulsive>
1.4684

> <Gold.PLP.ligand.clash>
0.0000

> <Gold.PLP.ligand.torsion>
0.4722

> <Gold.PLP.Chemscore.Hbond>
3.0224

> <Gold.PLP.Chemscore.CHOScore>
0.0000

> <Gold.PLP.Chemscore.Metal>
0.0000

> <Gold.Chemscore.Hbonds>
donor molecule, donor type, donor heavy atom, donor atom, acceptor molecule, acceptor atom, score
      L1  H     3    20       P1  7948  0.51
      L1  H     8    23       P1  8028  1.00
      L1  H    16    30       P1  7948  0.90
      P1  H  7989  7998       L1    14  0.24

> <Gold.PLP.Chemscore.Internal.Correction>
0.1231

> <Gold.Rescore>
     Score         DG    S(hbond)    S(metal)    S(lipo)     H(rot)  DE(clash)    DE(int)     intcor
     15.40     -21.13       2.66        0.00      84.41       1.22       3.23       2.49       ----

> <Gold.Chemscore.Fitness>
15.4019

> <Gold.Chemscore.DG>
-21.1252

> <Gold.Chemscore.ZeroCoef>
-5.4800

> <Gold.Chemscore.Hbond>
2.6642

> <Gold.Chemscore.Metal>
0.0000

> <Gold.Chemscore.Lipo>
84.4077

> <Gold.Chemscore.Internal_Hbond>
0.0000

> <Gold.Chemscore.DEClash>
3.2328

> <Gold.Chemscore.DEInternal>
2.4906

> <Gold.Chemscore.Rot>
1.2222

> <Gold.Chemscore.Internal.Correction>
   9.000000E+99

> <Gold.Chemscore.Hbonds>
donor molecule, donor type, donor heavy atom, donor atom, acceptor molecule, acceptor atom, score
      L1  H     3    20       P1  7948  0.50
      L1  H     8    23       P1  8028  0.95
      L1  H    16    30       P1  7948  0.87

> <Gold.Chemscore.Hbond.Weighted>
-8.8984

> <Gold.Chemscore.Metal.Weighted>
-0.0000

> <Gold.Chemscore.Lipo.Weighted>
-9.8757

> <Gold.Chemscore.Internal_Hbond.Weighted>
0.0000

> <Gold.Chemscore.DEClash.Weighted>
3.2328

> <Gold.Chemscore.DEInternal.Weighted>
2.4906

> <Gold.Chemscore.Rot.Weighted>
3.1289

> <Gold.Chemscore.Internal.Correction.Weighted>
   9.000000E+99

> <Gold.Protein.RotatedTorsions>
[ 6907 6896 6895 6894 ] final  -52.29 input  -60.11 | X-H torsion
[ 7974 7965 7964 7962 ] final -141.57 input  175.53 | X-H torsion
[ 8008 7997 7996 7995 ] final   57.67 input   59.86 | X-H torsion
[ 10167 10162 10161 10158 ] final  -41.86 input  -65.29 | X-H torsion
[ 10718 10713 10712 10709 ] final  118.23 input   66.30 | X-H torsion
[ 10763 10752 10751 10750 ] final  -32.42 input  -60.55 | X-H torsion
[ 11005 11000 10999 10996 ] final -135.88 input  -57.11 | X-H torsion

> <Gold.Protein.ActiveResidues>
 VAL166  LYS551  ARG553  GLY616  TRP617  ASP618  TYR619  PRO620  LYS621  CYS622 
 ASP623  PHE694  ASN695  SER759  ASP760  ASP761  ALA762  ILE779  LEU786  VAL792 
 PHE793  MET794  SER795  GLU796  ALA797  LYS798  CYS799  TRP800  GLU811  SER814 

> <Gold.Protein.RotatedAtoms>
  150.8532  134.7863  159.7024 H   0  0  0  0  0  0  0  0  0  0  0  0  # atno 6907 bound_to 6896
  152.4591  134.5222  159.9796 H   0  0  0  0  0  0  0  0  0  0  0  0  # atno 6908 bound_to 6896
  151.5339  133.3406  159.2959 H   0  0  0  0  0  0  0  0  0  0  0  0  # atno 6909 bound_to 6896
  144.8509  140.6063  143.5391 H   0  0  0  0  0  0  0  0  0  0  0  0  # atno 7974 bound_to 7965
  155.5376  140.3483  155.4440 H   0  0  0  0  0  0  0  0  0  0  0  0  # atno 8008 bound_to 7997
  156.0674  140.1355  156.9896 H   0  0  0  0  0  0  0  0  0  0  0  0  # atno 8009 bound_to 7997
  154.4510  140.0972  156.6593 H   0  0  0  0  0  0  0  0  0  0  0  0  # atno 8010 bound_to 7997
  140.6989  143.3071  151.3126 H   0  0  0  0  0  0  0  0  0  0  0  0  # atno 10167 bound_to 10162
  157.6044  131.1046  150.7727 H   0  0  0  0  0  0  0  0  0  0  0  0  # atno 10718 bound_to 10713
  153.8135  135.6880  153.4837 H   0  0  0  0  0  0  0  0  0  0  0  0  # atno 10763 bound_to 10752
  153.1613  135.4578  154.9774 H   0  0  0  0  0  0  0  0  0  0  0  0  # atno 10764 bound_to 10752
  154.7957  135.3318  154.7614 H   0  0  0  0  0  0  0  0  0  0  0  0  # atno 10765 bound_to 10752
  140.8857  134.1876  157.4562 H   0  0  0  0  0  0  0  0  0  0  0  0  # atno 11005 bound_to 11000
  145.4502  139.1524  143.3922 LP  0  0  0  0  0  0  0  0  0  0  0  0  # atno 17320 bound_to 7965
  146.2784  140.4628  142.8786 LP  0  0  0  0  0  0  0  0  0  0  0  0  # atno 17321 bound_to 7965
  139.6480  144.0415  152.2605 LP  0  0  0  0  0  0  0  0  0  0  0  0  # atno 17342 bound_to 10162
  139.9942  144.6340  150.7787 LP  0  0  0  0  0  0  0  0  0  0  0  0  # atno 17343 bound_to 10162
  156.8119  130.4955  149.5355 LP  0  0  0  0  0  0  0  0  0  0  0  0  # atno 17370 bound_to 10713
  156.1126  130.6051  151.0070 LP  0  0  0  0  0  0  0  0  0  0  0  0  # atno 17371 bound_to 10713
  139.8724  134.9836  156.5206 LP  0  0  0  0  0  0  0  0  0  0  0  0  # atno 17394 bound_to 11000
  140.8408  133.8206  155.9073 LP  0  0  0  0  0  0  0  0  0  0  0  0  # atno 17395 bound_to 11000

$$$$
