AV-unprocessed.smi:1174|AV-procd|sdf|4949|dock8
  -GOLD-   22720 3533D 1   1.00000     0.00000
 Structure written by MMmdl.
 41 42  0  0  0  0  0  0  0  0  1 V2000
  151.2139  141.4660  156.4045 C   0  0  0  0  0  0  0  0  0  0  0  0
  150.1567  141.8966  157.4303 C   0  0  1  0  0  0  0  0  0  0  0  0
  150.5292  143.2473  158.0800 C   0  0  0  0  0  0  0  0  0  0  0  0
  151.5291  143.1177  159.1247 N   0  0  0  0  0  0  0  0  0  0  0  0
  152.8199  142.6430  159.0248 C   0  0  0  0  0  0  0  0  0  0  0  0
  153.3743  142.7109  160.2708 C   0  0  0  0  0  0  0  0  0  0  0  0
  152.3319  143.2471  161.0767 C   0  0  0  0  0  0  0  0  0  0  0  0
  151.2265  143.4832  160.3894 N   0  0  0  0  0  0  0  0  0  0  0  0
  148.8591  141.9707  156.7600 N   0  0  0  0  0  0  0  0  0  0  0  0
  147.8141  141.1535  156.9681 C   0  0  0  0  0  0  0  0  0  0  0  0
  147.8247  140.2501  157.8043 O   0  0  0  0  0  0  0  0  0  0  0  0
  146.5758  141.3971  156.0843 C   0  0  1  0  0  0  0  0  0  0  0  0
  146.7877  142.5597  155.0827 C   0  0  0  0  0  0  0  0  0  0  0  0
  147.6019  142.1555  153.8366 C   0  0  0  0  0  0  0  0  0  0  0  0
  147.0526  140.8611  153.2150 C   0  0  0  0  0  0  0  0  0  0  0  0
  147.0352  139.7978  154.2341 N   0  0  0  0  0  0  0  0  0  0  0  0
  147.6961  138.6157  154.1651 C   0  0  0  0  0  0  0  0  0  0  0  0
  148.5621  138.5074  153.1527 N   0  0  0  0  0  0  0  0  0  0  0  0
  147.5759  137.7149  154.9935 O   0  0  0  0  0  0  0  0  0  0  0  0
  146.1185  140.1186  155.3390 C   0  0  0  0  0  0  0  0  0  0  0  0
  152.1928  141.3579  156.8724 H   0  0  0  0  0  0  0  0  0  0  0  0
  151.3086  142.1960  155.5999 H   0  0  0  0  0  0  0  0  0  0  0  0
  150.9582  140.5055  155.9557 H   0  0  0  0  0  0  0  0  0  0  0  0
  150.1273  141.1244  158.2013 H   0  0  0  0  0  0  0  0  0  0  0  0
  150.9275  143.9272  157.3254 H   0  0  0  0  0  0  0  0  0  0  0  0
  149.6447  143.7325  158.4955 H   0  0  0  0  0  0  0  0  0  0  0  0
  153.2344  142.3064  158.0858 H   0  0  0  0  0  0  0  0  0  0  0  0
  154.3749  142.4261  160.5602 H   0  0  0  0  0  0  0  0  0  0  0  0
  152.3449  143.4679  162.1336 H   0  0  0  0  0  0  0  0  0  0  0  0
  148.7572  142.6879  156.0568 H   0  0  0  0  0  0  0  0  0  0  0  0
  145.7646  141.6928  156.7518 H   0  0  0  0  0  0  0  0  0  0  0  0
  145.8095  142.9151  154.7567 H   0  0  0  0  0  0  0  0  0  0  0  0
  147.2617  143.4100  155.5751 H   0  0  0  0  0  0  0  0  0  0  0  0
  147.5742  142.9612  153.1025 H   0  0  0  0  0  0  0  0  0  0  0  0
  148.6520  142.0203  154.0965 H   0  0  0  0  0  0  0  0  0  0  0  0
  146.0338  141.0257  152.8615 H   0  0  0  0  0  0  0  0  0  0  0  0
  147.6282  140.6089  152.3246 H   0  0  0  0  0  0  0  0  0  0  0  0
  149.0830  137.6522  153.0260 H   0  0  0  0  0  0  0  0  0  0  0  0
  148.6806  139.2779  152.5115 H   0  0  0  0  0  0  0  0  0  0  0  0
  146.0187  139.2990  156.0527 H   0  0  0  0  0  0  0  0  0  0  0  0
  145.1180  140.2687  154.9312 H   0  0  0  0  0  0  0  0  0  0  0  0
  1  2  1  0  0  0  0
  1 21  1  0  0  0  0
  1 22  1  0  0  0  0
  1 23  1  0  0  0  0
  2  3  1  0  0  0  0
  2  9  1  0  0  0  0
  2 24  1  0  0  0  0
  3  4  1  0  0  0  0
  3 25  1  0  0  0  0
  3 26  1  0  0  0  0
  4  8  1  0  0  0  0
  4  5  1  0  0  0  0
  5  6  2  0  0  0  0
  5 27  1  0  0  0  0
  6  7  1  0  0  0  0
  6 28  1  0  0  0  0
  7  8  2  0  0  0  0
  7 29  1  0  0  0  0
  9 10  1  0  0  0  0
  9 30  1  0  0  0  0
 10 11  2  0  0  0  0
 10 12  1  0  0  0  0
 12 20  1  0  0  0  0
 12 13  1  0  0  0  0
 12 31  1  0  0  0  0
 13 14  1  0  0  0  0
 13 32  1  0  0  0  0
 13 33  1  0  0  0  0
 14 15  1  0  0  0  0
 14 34  1  0  0  0  0
 14 35  1  0  0  0  0
 15 16  1  0  0  0  0
 15 36  1  0  0  0  0
 15 37  1  0  0  0  0
 16 17  1  0  0  0  0
 16 20  1  0  0  0  0
 17 18  1  0  0  0  0
 17 19  2  0  0  0  0
 18 38  1  0  0  0  0
 18 39  1  0  0  0  0
 20 40  1  0  0  0  0
 20 41  1  0  0  0  0
M  END
> <s_m_source_file>
AV-unprocessed.smi

> <i_m_source_file_index>
1174

> <i_lp_mmshare_version>
43012

> <i_f3d_flags>
0

> <s_epik_input>
bjFbY0hdW2NIXVtjSF1uMVtDSDJdW0NAQEhdKFtDSDNdKVtOSF1DKD1PKVtDQEBIXTJbQ0gyXVtDSDJdW0NIMl1OKFtDSDJdMilDKD1PKVtOSDJd

> <s_epik_cmdline>
J2VwaWtfcHl0aG9uJywgJy1waCcsICc3LjAnLCAnLXRuJywgJzgnLCAnLW1hJywgJzIwMCcsICctbWV0YWxfYmluZGluZycsICctaW1hZScsICc8aW5maWxlLm1hZT4nLCAnLW9tYWUnLCAnPG91dGZpbGUubWFlPic=

> <r_lp_tautomer_probability>
1

> <r_epik_Ionization_Penalty>
0.000372452

> <r_epik_Ionization_Penalty_Charging>
0

> <r_epik_Ionization_Penalty_Neutral>
0.000372452

> <r_epik_State_Penalty>
-0

> <r_epik_Charging_Adjusted_Penalty>
0

> <i_epik_Tot_Q>
0

> <i_epik_Tot_abs_Q>
0

> <r_epik_Metal_State_Penalty>
-0

> <b_epik_Metal_Only>
0

> <s_lp_Force_Field>
OPLS_2005

> <r_lp_Energy>
22.2792

> <b_lp_Chiralities_Consistent>
1

> <s_lp_Variant>
AV-unprocessed.smi:1174-4

> <Gold.Version>
5.8.1

> <Gold.Id.Protein>
6NUR|6NUR_protein|mol2

> <Gold.PLP.Fitness>
41.3080

> <Gold.PLP.PLP>
-35.2089

> <Gold.PLP.part.hbond>
-4.2294

> <Gold.PLP.part.metal>
0.0000

> <Gold.PLP.part.buried>
-3.7033

> <Gold.PLP.part.nonpolar>
-26.3055

> <Gold.PLP.part.repulsive>
0.2141

> <Gold.PLP.ligand.clash>
0.7375

> <Gold.PLP.ligand.torsion>
0.2934

> <Gold.PLP.Chemscore.Hbond>
2.4586

> <Gold.PLP.Chemscore.CHOScore>
0.0000

> <Gold.PLP.Chemscore.Metal>
0.0000

> <Gold.Chemscore.Hbonds>
donor molecule, donor type, donor heavy atom, donor atom, acceptor molecule, acceptor atom, score
      L1  H     9    30       P1  8028  0.83
      L1  H    18    38       P1  7948  0.69
      L1  H    18    39       P1  7957  0.98

> <Gold.PLP.Chemscore.Internal.Correction>
0.0475

> <Gold.Rescore>
     Score         DG    S(hbond)    S(metal)    S(lipo)     H(rot)  DE(clash)    DE(int)     intcor
     18.29     -18.82       2.52        0.00      81.90       1.82       0.20       0.34       ----

> <Gold.Chemscore.Fitness>
18.2856

> <Gold.Chemscore.DG>
-18.8216

> <Gold.Chemscore.ZeroCoef>
-5.4800

> <Gold.Chemscore.Hbond>
2.5210

> <Gold.Chemscore.Metal>
0.0000

> <Gold.Chemscore.Lipo>
81.8992

> <Gold.Chemscore.Internal_Hbond>
0.0000

> <Gold.Chemscore.DEClash>
0.1973

> <Gold.Chemscore.DEInternal>
0.3387

> <Gold.Chemscore.Rot>
1.8206

> <Gold.Chemscore.Internal.Correction>
   9.000000E+99

> <Gold.Chemscore.Hbonds>
donor molecule, donor type, donor heavy atom, donor atom, acceptor molecule, acceptor atom, score
      L1  H     9    30       P1  8028  0.78
      L1  H    18    38       P1  7948  0.70
      L1  H    18    39       P1  7957  0.93

> <Gold.Chemscore.Hbond.Weighted>
-8.4200

> <Gold.Chemscore.Metal.Weighted>
-0.0000

> <Gold.Chemscore.Lipo.Weighted>
-9.5822

> <Gold.Chemscore.Internal_Hbond.Weighted>
0.0000

> <Gold.Chemscore.DEClash.Weighted>
0.1973

> <Gold.Chemscore.DEInternal.Weighted>
0.3387

> <Gold.Chemscore.Rot.Weighted>
4.6607

> <Gold.Chemscore.Internal.Correction.Weighted>
   9.000000E+99

> <Gold.Protein.RotatedTorsions>
[ 6907 6896 6895 6894 ] final  -52.53 input  -60.11 | X-H torsion
[ 7974 7965 7964 7962 ] final  -48.04 input  175.53 | X-H torsion
[ 8008 7997 7996 7995 ] final   21.88 input   59.86 | X-H torsion
[ 10167 10162 10161 10158 ] final  -47.44 input  -65.29 | X-H torsion
[ 10718 10713 10712 10709 ] final -124.53 input   66.30 | X-H torsion
[ 10763 10752 10751 10750 ] final   60.41 input  -60.55 | X-H torsion
[ 11005 11000 10999 10996 ] final   55.07 input  -57.11 | X-H torsion

> <Gold.Protein.ActiveResidues>
 VAL166  LYS551  ARG553  GLY616  TRP617  ASP618  TYR619  PRO620  LYS621  CYS622 
 ASP623  PHE694  ASN695  SER759  ASP760  ASP761  ALA762  ILE779  LEU786  VAL792 
 PHE793  MET794  SER795  GLU796  ALA797  LYS798  CYS799  TRP800  GLU811  SER814 

> <Gold.Protein.RotatedAtoms>
  150.8509  134.7833  159.7007 H   0  0  0  0  0  0  0  0  0  0  0  0  # atno 6907 bound_to 6896
  152.4574  134.5258  159.9806 H   0  0  0  0  0  0  0  0  0  0  0  0  # atno 6908 bound_to 6896
  151.5379  133.3400  159.2965 H   0  0  0  0  0  0  0  0  0  0  0  0  # atno 6909 bound_to 6896
  145.9553  140.7532  142.9484 H   0  0  0  0  0  0  0  0  0  0  0  0  # atno 7974 bound_to 7965
  154.9573  140.3073  155.5047 H   0  0  0  0  0  0  0  0  0  0  0  0  # atno 8008 bound_to 7997
  156.2981  140.2308  156.4593 H   0  0  0  0  0  0  0  0  0  0  0  0  # atno 8009 bound_to 7997
  154.7998  140.0434  157.1253 H   0  0  0  0  0  0  0  0  0  0  0  0  # atno 8010 bound_to 7997
  140.6775  143.2784  151.3927 H   0  0  0  0  0  0  0  0  0  0  0  0  # atno 10167 bound_to 10162
  156.1596  130.6592  151.0030 H   0  0  0  0  0  0  0  0  0  0  0  0  # atno 10718 bound_to 10713
  152.9920  135.5537  154.5869 H   0  0  0  0  0  0  0  0  0  0  0  0  # atno 10763 bound_to 10752
  154.5239  135.2809  155.1241 H   0  0  0  0  0  0  0  0  0  0  0  0  # atno 10764 bound_to 10752
  154.2584  135.6386  153.5318 H   0  0  0  0  0  0  0  0  0  0  0  0  # atno 10765 bound_to 10752
  140.0636  134.5567  155.9124 H   0  0  0  0  0  0  0  0  0  0  0  0  # atno 11005 bound_to 11000
  144.6804  140.2502  143.7332 LP  0  0  0  0  0  0  0  0  0  0  0  0  # atno 17320 bound_to 7965
  145.8115  139.2005  143.1990 LP  0  0  0  0  0  0  0  0  0  0  0  0  # atno 17321 bound_to 7965
  139.6076  144.1165  152.2265 LP  0  0  0  0  0  0  0  0  0  0  0  0  # atno 17342 bound_to 10162
  140.0569  144.5888  150.7293 LP  0  0  0  0  0  0  0  0  0  0  0  0  # atno 17343 bound_to 10162
  157.6722  131.0859  150.7584 LP  0  0  0  0  0  0  0  0  0  0  0  0  # atno 17370 bound_to 10713
  156.7648  130.4810  149.5430 LP  0  0  0  0  0  0  0  0  0  0  0  0  # atno 17371 bound_to 10713
  141.1983  133.6601  156.5788 LP  0  0  0  0  0  0  0  0  0  0  0  0  # atno 17394 bound_to 11000
  140.3732  134.7587  157.4613 LP  0  0  0  0  0  0  0  0  0  0  0  0  # atno 17395 bound_to 11000

$$$$
