AV-unprocessed.smi:2066|AV-procd|sdf|8419|dock5
  -GOLD-   2272011113D 1   1.00000     0.00000
 Structure written by MMmdl.
 39 40  0  0  0  0  0  0  0  0  1 V2000
  147.1010  140.7396  153.1730 C   0  0  0  0  0  0  0  0  0  0  0  0
  147.2371  139.9724  154.5103 C   0  0  0  0  0  0  0  0  0  0  0  0
  146.4220  140.7589  155.5685 C   0  0  0  0  0  0  0  0  0  0  0  0
  146.5235  138.5997  154.3259 C   0  0  0  0  0  0  0  0  0  0  0  0
  145.1199  138.7334  153.9351 N   0  0  0  0  0  0  0  0  0  0  0  0
  144.1314  137.8889  154.2617 C   0  0  0  0  0  0  0  0  0  0  0  0
  144.2922  136.8919  154.9665 O   0  0  0  0  0  0  0  0  0  0  0  0
  142.9652  138.2731  153.7141 N   0  0  0  0  0  0  0  0  0  0  0  0
  141.7013  137.6331  153.8025 C   0  0  0  0  0  0  0  0  0  0  0  0
  141.5093  136.4074  154.3041 N   0  0  0  0  0  0  0  0  0  0  0  0
  140.1650  136.0290  154.2643 C   0  0  0  0  0  0  0  0  0  0  0  0
  139.3415  136.9856  153.7250 C   0  0  0  0  0  0  0  0  0  0  0  0
  140.2264  138.4090  153.2441 S   0  0  0  0  0  0  0  0  0  0  0  0
  148.6526  139.8022  154.9438 N   0  0  0  0  0  0  0  0  0  0  0  0
  149.3961  141.0528  155.1350 C   0  0  0  0  0  0  0  0  0  0  0  0
  150.8042  140.8065  155.7029 C   0  0  0  0  0  0  0  0  0  0  0  0
  151.5203  139.9254  154.8461 O   0  0  0  0  0  0  0  0  0  0  0  0
  150.8608  138.6764  154.6789 C   0  0  0  0  0  0  0  0  0  0  0  0
  149.4540  138.9066  154.1012 C   0  0  0  0  0  0  0  0  0  0  0  0
  146.0525  140.8561  152.8956 H   0  0  0  0  0  0  0  0  0  0  0  0
  147.5871  140.2193  152.3480 H   0  0  0  0  0  0  0  0  0  0  0  0
  147.5230  141.7428  153.2276 H   0  0  0  0  0  0  0  0  0  0  0  0
  145.3525  140.7239  155.3571 H   0  0  0  0  0  0  0  0  0  0  0  0
  146.6910  141.8147  155.5967 H   0  0  0  0  0  0  0  0  0  0  0  0
  146.5680  140.3564  156.5713 H   0  0  0  0  0  0  0  0  0  0  0  0
  147.0633  137.9856  153.6027 H   0  0  0  0  0  0  0  0  0  0  0  0
  146.5552  138.0185  155.2471 H   0  0  0  0  0  0  0  0  0  0  0  0
  144.8926  139.5210  153.3462 H   0  0  0  0  0  0  0  0  0  0  0  0
  142.9863  139.1152  153.1582 H   0  0  0  0  0  0  0  0  0  0  0  0
  139.8819  135.0576  154.6424 H   0  0  0  0  0  0  0  0  0  0  0  0
  138.2722  136.9387  153.5822 H   0  0  0  0  0  0  0  0  0  0  0  0
  149.4869  141.5860  154.1888 H   0  0  0  0  0  0  0  0  0  0  0  0
  148.8740  141.7149  155.8233 H   0  0  0  0  0  0  0  0  0  0  0  0
  151.3499  141.7467  155.7830 H   0  0  0  0  0  0  0  0  0  0  0  0
  150.7466  140.3828  156.7069 H   0  0  0  0  0  0  0  0  0  0  0  0
  151.4486  138.0505  154.0075 H   0  0  0  0  0  0  0  0  0  0  0  0
  150.8043  138.1547  155.6358 H   0  0  0  0  0  0  0  0  0  0  0  0
  148.9752  137.9346  153.9980 H   0  0  0  0  0  0  0  0  0  0  0  0
  149.5509  139.3201  153.0972 H   0  0  0  0  0  0  0  0  0  0  0  0
  1  2  1  0  0  0  0
  1 20  1  0  0  0  0
  1 21  1  0  0  0  0
  1 22  1  0  0  0  0
  2  3  1  0  0  0  0
  2  4  1  0  0  0  0
  2 14  1  0  0  0  0
  3 23  1  0  0  0  0
  3 24  1  0  0  0  0
  3 25  1  0  0  0  0
  4  5  1  0  0  0  0
  4 26  1  0  0  0  0
  4 27  1  0  0  0  0
  5  6  1  0  0  0  0
  5 28  1  0  0  0  0
  6  7  2  0  0  0  0
  6  8  1  0  0  0  0
  8  9  1  0  0  0  0
  8 29  1  0  0  0  0
  9 13  1  0  0  0  0
  9 10  2  0  0  0  0
 10 11  1  0  0  0  0
 11 12  2  0  0  0  0
 11 30  1  0  0  0  0
 12 13  1  0  0  0  0
 12 31  1  0  0  0  0
 14 19  1  0  0  0  0
 14 15  1  0  0  0  0
 15 16  1  0  0  0  0
 15 32  1  0  0  0  0
 15 33  1  0  0  0  0
 16 17  1  0  0  0  0
 16 34  1  0  0  0  0
 16 35  1  0  0  0  0
 17 18  1  0  0  0  0
 18 19  1  0  0  0  0
 18 36  1  0  0  0  0
 18 37  1  0  0  0  0
 19 38  1  0  0  0  0
 19 39  1  0  0  0  0
M  END
> <s_m_source_file>
AV-unprocessed.smi

> <i_m_source_file_index>
2066

> <i_lp_mmshare_version>
43012

> <i_f3d_flags>
0

> <s_epik_input>
W0NIMl0xW0NIMl1PW0NIMl1bQ0gyXU4xQyhbQ0gzXSkoW0NIM10pW0NIMl1bTkhdQyg9TylbTkhdYzJuW2NIXVtjSF1zMg==

> <s_epik_cmdline>
J2VwaWtfcHl0aG9uJywgJy1waCcsICc3LjAnLCAnLXRuJywgJzgnLCAnLW1hJywgJzIwMCcsICctbWV0YWxfYmluZGluZycsICctaW1hZScsICc8aW5maWxlLm1hZT4nLCAnLW9tYWUnLCAnPG91dGZpbGUubWFlPic=

> <r_lp_tautomer_probability>
0.999

> <r_epik_Ionization_Penalty>
0.219202

> <r_epik_Ionization_Penalty_Charging>
0

> <r_epik_Ionization_Penalty_Neutral>
0.219202

> <r_epik_State_Penalty>
0.209349

> <r_epik_Charging_Adjusted_Penalty>
0.209349

> <i_epik_Tot_Q>
0

> <i_epik_Tot_abs_Q>
0

> <r_epik_Metal_State_Penalty>
0.2479

> <b_epik_Metal_Only>
0

> <s_lp_Force_Field>
OPLS_2005

> <r_lp_Energy>
39.7757

> <b_lp_Chiralities_Consistent>
1

> <s_lp_Variant>
AV-unprocessed.smi:2066-1

> <Gold.Version>
5.8.1

> <Gold.Id.Protein>
6NUR|6NUR_protein|mol2

> <Gold.PLP.Fitness>
39.3717

> <Gold.PLP.PLP>
-28.0243

> <Gold.PLP.part.hbond>
-3.0000

> <Gold.PLP.part.metal>
0.0000

> <Gold.PLP.part.buried>
-1.4120

> <Gold.PLP.part.nonpolar>
-23.9769

> <Gold.PLP.part.repulsive>
0.2014

> <Gold.PLP.ligand.clash>
0.0000

> <Gold.PLP.ligand.torsion>
0.2648

> <Gold.PLP.Chemscore.Hbond>
2.9760

> <Gold.PLP.Chemscore.CHOScore>
0.9592

> <Gold.PLP.Chemscore.Metal>
0.0000

> <Gold.Chemscore.Hbonds>
donor molecule, donor type, donor heavy atom, donor atom, acceptor molecule, acceptor atom, score
      L1  H     5    28       P1 10175  0.98
      L1  H     8    29       P1 10175  1.00
      P1  H  7989  7998       L1    17  1.00
      L1  C    11    30       P1 11000  0.99

> <Gold.PLP.Chemscore.Internal.Correction>
0.0715

> <Gold.Rescore>
     Score         DG    S(hbond)    S(metal)    S(lipo)     H(rot)  DE(clash)    DE(int)     intcor
     15.81     -17.40       2.39        0.00      68.36       1.58       0.09       1.51       ----

> <Gold.Chemscore.Fitness>
15.8055

> <Gold.Chemscore.DG>
-17.4043

> <Gold.Chemscore.ZeroCoef>
-5.4800

> <Gold.Chemscore.Hbond>
2.3869

> <Gold.Chemscore.Metal>
0.0000

> <Gold.Chemscore.Lipo>
68.3641

> <Gold.Chemscore.Internal_Hbond>
0.0000

> <Gold.Chemscore.DEClash>
0.0897

> <Gold.Chemscore.DEInternal>
1.5091

> <Gold.Chemscore.Rot>
1.5807

> <Gold.Chemscore.Internal.Correction>
   9.000000E+99

> <Gold.Chemscore.Hbonds>
donor molecule, donor type, donor heavy atom, donor atom, acceptor molecule, acceptor atom, score
      L1  H     5    28       P1 10175  0.93
      L1  H     8    29       P1 10175  0.98
      P1  H  7989  7998       L1    17  0.23

> <Gold.Chemscore.Hbond.Weighted>
-7.9723

> <Gold.Chemscore.Metal.Weighted>
-0.0000

> <Gold.Chemscore.Lipo.Weighted>
-7.9986

> <Gold.Chemscore.Internal_Hbond.Weighted>
0.0000

> <Gold.Chemscore.DEClash.Weighted>
0.0897

> <Gold.Chemscore.DEInternal.Weighted>
1.5091

> <Gold.Chemscore.Rot.Weighted>
4.0466

> <Gold.Chemscore.Internal.Correction.Weighted>
   9.000000E+99

> <Gold.Protein.RotatedTorsions>
[ 6907 6896 6895 6894 ] final   26.55 input  -60.11 | X-H torsion
[ 7974 7965 7964 7962 ] final   72.34 input  175.53 | X-H torsion
[ 8008 7997 7996 7995 ] final   69.40 input   59.86 | X-H torsion
[ 10167 10162 10161 10158 ] final  -91.03 input  -65.29 | X-H torsion
[ 10718 10713 10712 10709 ] final   -0.89 input   66.30 | X-H torsion
[ 10763 10752 10751 10750 ] final -119.49 input  -60.55 | X-H torsion
[ 11005 11000 10999 10996 ] final -172.47 input  -57.11 | X-H torsion

> <Gold.Protein.ActiveResidues>
 VAL166  LYS551  ARG553  GLY616  TRP617  ASP618  TYR619  PRO620  LYS621  CYS622 
 ASP623  PHE694  ASN695  SER759  ASP760  ASP761  ALA762  ILE779  LEU786  VAL792 
 PHE793  MET794  SER795  GLU796  ALA797  LYS798  CYS799  TRP800  GLU811  SER814 

> <Gold.Protein.RotatedAtoms>
  151.9892  134.9988  160.0560 H   0  0  0  0  0  0  0  0  0  0  0  0  # atno 6907 bound_to 6896
  152.1624  133.4586  159.4876 H   0  0  0  0  0  0  0  0  0  0  0  0  # atno 6908 bound_to 6896
  150.6889  134.1972  159.4351 H   0  0  0  0  0  0  0  0  0  0  0  0  # atno 6909 bound_to 6896
  145.7545  139.2774  143.1412 H   0  0  0  0  0  0  0  0  0  0  0  0  # atno 7974 bound_to 7965
  155.7230  140.3493  155.5024 H   0  0  0  0  0  0  0  0  0  0  0  0  # atno 8008 bound_to 7997
  155.9252  140.1074  157.1197 H   0  0  0  0  0  0  0  0  0  0  0  0  # atno 8009 bound_to 7997
  154.4076  140.1242  156.4718 H   0  0  0  0  0  0  0  0  0  0  0  0  # atno 8010 bound_to 7997
  140.3490  143.2901  151.9748 H   0  0  0  0  0  0  0  0  0  0  0  0  # atno 10167 bound_to 10162
  156.8137  130.5433  149.5705 H   0  0  0  0  0  0  0  0  0  0  0  0  # atno 10718 bound_to 10713
  154.8618  135.4236  154.2307 H   0  0  0  0  0  0  0  0  0  0  0  0  # atno 10763 bound_to 10752
  153.3293  135.6987  153.6968 H   0  0  0  0  0  0  0  0  0  0  0  0  # atno 10764 bound_to 10752
  153.5991  135.3540  155.2912 H   0  0  0  0  0  0  0  0  0  0  0  0  # atno 10765 bound_to 10752
  140.4967  134.5933  157.4973 H   0  0  0  0  0  0  0  0  0  0  0  0  # atno 11005 bound_to 11000
  146.0324  140.8245  142.9869 LP  0  0  0  0  0  0  0  0  0  0  0  0  # atno 17320 bound_to 7965
  144.6843  140.2788  143.7295 LP  0  0  0  0  0  0  0  0  0  0  0  0  # atno 17321 bound_to 7965
  139.4829  144.6092  151.7465 LP  0  0  0  0  0  0  0  0  0  0  0  0  # atno 17342 bound_to 10162
  140.5237  144.0839  150.6030 LP  0  0  0  0  0  0  0  0  0  0  0  0  # atno 17343 bound_to 10162
  156.1029  130.5983  150.9924 LP  0  0  0  0  0  0  0  0  0  0  0  0  # atno 17370 bound_to 10713
  157.6493  131.0899  150.8086 LP  0  0  0  0  0  0  0  0  0  0  0  0  # atno 17371 bound_to 10713
  139.9737  134.7250  155.9991 LP  0  0  0  0  0  0  0  0  0  0  0  0  # atno 17394 bound_to 11000
  141.1457  133.6556  156.3859 LP  0  0  0  0  0  0  0  0  0  0  0  0  # atno 17395 bound_to 11000

$$$$
