AV-unprocessed.smi:1192|AV-procd|sdf|4988|dock7
  -GOLD-   22720 3583D 1   1.00000     0.00000
 Structure written by MMmdl.
 39 40  0  0  0  0  0  0  0  0  1 V2000
  145.4778  143.2374  161.0341 C   0  0  0  0  0  0  0  0  0  0  0  0
  145.5938  141.9898  160.3743 O   0  0  0  0  0  0  0  0  0  0  0  0
  144.5645  141.7837  159.4210 C   0  0  0  0  0  0  0  0  0  0  0  0
  144.8203  142.6855  158.2108 C   0  0  0  0  0  0  0  0  0  0  0  0
  146.0366  142.2718  157.6000 O   0  0  0  0  0  0  0  0  0  0  0  0
  146.1424  142.3104  156.2251 C   0  0  0  0  0  0  0  0  0  0  0  0
  145.0828  142.7631  155.5084 N   0  0  0  0  0  0  0  0  0  0  0  0
  145.1889  142.8099  154.1642 C   0  0  0  0  0  0  0  0  0  0  0  0
  146.3456  142.4133  153.4676 C   0  0  0  0  0  0  0  0  0  0  0  0
  147.4447  141.9444  154.2107 C   0  0  0  0  0  0  0  0  0  0  0  0
  147.3484  141.8857  155.6172 C   0  0  0  0  0  0  0  0  0  0  0  0
  148.5275  141.3909  156.4420 C   0  0  0  0  0  0  0  0  0  0  0  0
  149.4842  142.4462  156.7671 N   0  0  0  0  0  0  0  0  0  0  0  0
  150.5659  142.3118  157.5508 C   0  0  0  0  0  0  0  0  0  0  0  0
  150.8896  141.2502  158.0844 O   0  0  0  0  0  0  0  0  0  0  0  0
  151.4156  143.5761  157.7325 C   0  0  0  0  0  0  0  0  0  0  0  0
  152.4975  143.5104  158.8289 C   0  0  0  0  0  0  0  0  0  0  0  0
  152.0698  144.9119  159.2726 C   0  0  0  0  0  0  0  0  0  0  0  0
  150.7319  144.6714  158.5678 C   0  0  0  0  0  0  0  0  0  0  0  0
  146.2797  143.3402  161.7646 H   0  0  0  0  0  0  0  0  0  0  0  0
  144.5281  143.3174  161.5646 H   0  0  0  0  0  0  0  0  0  0  0  0
  145.5562  144.0644  160.3270 H   0  0  0  0  0  0  0  0  0  0  0  0
  144.5712  140.7394  159.1048 H   0  0  0  0  0  0  0  0  0  0  0  0
  143.5838  141.9913  159.8524 H   0  0  0  0  0  0  0  0  0  0  0  0
  143.9800  142.6262  157.5170 H   0  0  0  0  0  0  0  0  0  0  0  0
  144.9150  143.7215  158.5396 H   0  0  0  0  0  0  0  0  0  0  0  0
  144.3260  143.1760  153.6282 H   0  0  0  0  0  0  0  0  0  0  0  0
  146.3887  142.4687  152.3899 H   0  0  0  0  0  0  0  0  0  0  0  0
  148.3469  141.6342  153.7044 H   0  0  0  0  0  0  0  0  0  0  0  0
  148.1685  140.9678  157.3806 H   0  0  0  0  0  0  0  0  0  0  0  0
  148.9994  140.5689  155.9016 H   0  0  0  0  0  0  0  0  0  0  0  0
  149.3085  143.3550  156.3636 H   0  0  0  0  0  0  0  0  0  0  0  0
  151.8110  143.9575  156.7890 H   0  0  0  0  0  0  0  0  0  0  0  0
  152.3192  142.7612  159.6023 H   0  0  0  0  0  0  0  0  0  0  0  0
  153.5200  143.4604  158.4560 H   0  0  0  0  0  0  0  0  0  0  0  0
  151.9981  145.0469  160.3524 H   0  0  0  0  0  0  0  0  0  0  0  0
  152.6587  145.7010  158.8026 H   0  0  0  0  0  0  0  0  0  0  0  0
  150.3747  145.5234  157.9884 H   0  0  0  0  0  0  0  0  0  0  0  0
  149.9601  144.2945  159.2421 H   0  0  0  0  0  0  0  0  0  0  0  0
  1  2  1  0  0  0  0
  1 20  1  0  0  0  0
  1 21  1  0  0  0  0
  1 22  1  0  0  0  0
  2  3  1  0  0  0  0
  3  4  1  0  0  0  0
  3 23  1  0  0  0  0
  3 24  1  0  0  0  0
  4  5  1  0  0  0  0
  4 25  1  0  0  0  0
  4 26  1  0  0  0  0
  5  6  1  0  0  0  0
  6 11  1  0  0  0  0
  6  7  2  0  0  0  0
  7  8  1  0  0  0  0
  8  9  2  0  0  0  0
  8 27  1  0  0  0  0
  9 10  1  0  0  0  0
  9 28  1  0  0  0  0
 10 11  2  0  0  0  0
 10 29  1  0  0  0  0
 11 12  1  0  0  0  0
 12 13  1  0  0  0  0
 12 30  1  0  0  0  0
 12 31  1  0  0  0  0
 13 14  1  0  0  0  0
 13 32  1  0  0  0  0
 14 15  2  0  0  0  0
 14 16  1  0  0  0  0
 16 19  1  0  0  0  0
 16 17  1  0  0  0  0
 16 33  1  0  0  0  0
 17 18  1  0  0  0  0
 17 34  1  0  0  0  0
 17 35  1  0  0  0  0
 18 19  1  0  0  0  0
 18 36  1  0  0  0  0
 18 37  1  0  0  0  0
 19 38  1  0  0  0  0
 19 39  1  0  0  0  0
M  END
> <s_m_source_file>
AV-unprocessed.smi

> <i_m_source_file_index>
1192

> <i_lp_mmshare_version>
43012

> <i_f3d_flags>
0

> <s_epik_input>
W0NIM11PW0NIMl1bQ0gyXU9jMW5bY0hdW2NIXVtjSF1jMVtDSDJdW05IXUMoPU8pW0NIXTJbQ0gyXVtDSDJdW0NIMl0y

> <s_epik_cmdline>
J2VwaWtfcHl0aG9uJywgJy1waCcsICc3LjAnLCAnLXRuJywgJzgnLCAnLW1hJywgJzIwMCcsICctbWV0YWxfYmluZGluZycsICctaW1hZScsICc8aW5maWxlLm1hZT4nLCAnLW9tYWUnLCAnPG91dGZpbGUubWFlPic=

> <r_lp_tautomer_probability>
1

> <r_epik_Ionization_Penalty>
6.50215e-05

> <r_epik_Ionization_Penalty_Charging>
0

> <r_epik_Ionization_Penalty_Neutral>
6.50215e-05

> <r_epik_State_Penalty>
-0

> <r_epik_Charging_Adjusted_Penalty>
0

> <i_epik_Tot_Q>
0

> <i_epik_Tot_abs_Q>
0

> <r_epik_Metal_State_Penalty>
-0

> <b_epik_Metal_Only>
0

> <s_lp_Force_Field>
OPLS_2005

> <r_lp_Energy>
11.4086

> <b_lp_Chiralities_Consistent>
1

> <s_lp_Variant>
AV-unprocessed.smi:1192-1

> <Gold.Version>
5.8.1

> <Gold.Id.Protein>
6NUR|6NUR_protein|mol2

> <Gold.PLP.Fitness>
43.5909

> <Gold.PLP.PLP>
-35.8836

> <Gold.PLP.part.hbond>
-2.0000

> <Gold.PLP.part.metal>
0.0000

> <Gold.PLP.part.buried>
-5.1713

> <Gold.PLP.part.nonpolar>
-30.3145

> <Gold.PLP.part.repulsive>
0.2649

> <Gold.PLP.ligand.clash>
0.0000

> <Gold.PLP.ligand.torsion>
0.8724

> <Gold.PLP.Chemscore.Hbond>
2.0000

> <Gold.PLP.Chemscore.CHOScore>
0.9953

> <Gold.PLP.Chemscore.Metal>
0.0000

> <Gold.Chemscore.Hbonds>
donor molecule, donor type, donor heavy atom, donor atom, acceptor molecule, acceptor atom, score
      L1  H    13    32       P1  8028  1.00
      P1  H  6934  6946       L1     2  1.00
      L1  C     8    27       P1 10174  0.61

> <Gold.PLP.Chemscore.Internal.Correction>
0.4661

> <Gold.Rescore>
     Score         DG    S(hbond)    S(metal)    S(lipo)     H(rot)  DE(clash)    DE(int)     intcor
     15.75     -16.69       1.97        0.00      85.92       2.12       0.03       0.92       ----

> <Gold.Chemscore.Fitness>
15.7463

> <Gold.Chemscore.DG>
-16.6934

> <Gold.Chemscore.ZeroCoef>
-5.4800

> <Gold.Chemscore.Hbond>
1.9741

> <Gold.Chemscore.Metal>
0.0000

> <Gold.Chemscore.Lipo>
85.9174

> <Gold.Chemscore.Internal_Hbond>
0.0000

> <Gold.Chemscore.DEClash>
0.0260

> <Gold.Chemscore.DEInternal>
0.9211

> <Gold.Chemscore.Rot>
2.1221

> <Gold.Chemscore.Internal.Correction>
   9.000000E+99

> <Gold.Chemscore.Hbonds>
donor molecule, donor type, donor heavy atom, donor atom, acceptor molecule, acceptor atom, score
      L1  H    13    32       P1  8028  0.98
      P1  H  6934  6946       L1     2  0.99

> <Gold.Chemscore.Hbond.Weighted>
-6.5936

> <Gold.Chemscore.Metal.Weighted>
-0.0000

> <Gold.Chemscore.Lipo.Weighted>
-10.0523

> <Gold.Chemscore.Internal_Hbond.Weighted>
0.0000

> <Gold.Chemscore.DEClash.Weighted>
0.0260

> <Gold.Chemscore.DEInternal.Weighted>
0.9211

> <Gold.Chemscore.Rot.Weighted>
5.4326

> <Gold.Chemscore.Internal.Correction.Weighted>
   9.000000E+99

> <Gold.Protein.RotatedTorsions>
[ 6907 6896 6895 6894 ] final -108.43 input  -60.11 | X-H torsion
[ 7974 7965 7964 7962 ] final  110.94 input  175.53 | X-H torsion
[ 8008 7997 7996 7995 ] final -110.02 input   59.86 | X-H torsion
[ 10167 10162 10161 10158 ] final  102.25 input  -65.29 | X-H torsion
[ 10718 10713 10712 10709 ] final   69.73 input   66.30 | X-H torsion
[ 10763 10752 10751 10750 ] final   61.10 input  -60.55 | X-H torsion
[ 11005 11000 10999 10996 ] final  -12.36 input  -57.11 | X-H torsion

> <Gold.Protein.ActiveResidues>
 VAL166  LYS551  ARG553  GLY616  TRP617  ASP618  TYR619  PRO620  LYS621  CYS622 
 ASP623  PHE694  ASN695  SER759  ASP760  ASP761  ALA762  ILE779  LEU786  VAL792 
 PHE793  MET794  SER795  GLU796  ALA797  LYS798  CYS799  TRP800  GLU811  SER814 

> <Gold.Protein.RotatedAtoms>
  150.7501  133.9678  159.3535 H   0  0  0  0  0  0  0  0  0  0  0  0  # atno 6907 bound_to 6896
  151.7609  135.0808  160.0355 H   0  0  0  0  0  0  0  0  0  0  0  0  # atno 6908 bound_to 6896
  152.3403  133.6023  159.5908 H   0  0  0  0  0  0  0  0  0  0  0  0  # atno 6909 bound_to 6896
  145.2485  139.2749  143.4080 H   0  0  0  0  0  0  0  0  0  0  0  0  # atno 7974 bound_to 7965
  154.9681  140.0398  157.2221 H   0  0  0  0  0  0  0  0  0  0  0  0  # atno 8008 bound_to 7997
  154.7826  140.2821  155.6029 H   0  0  0  0  0  0  0  0  0  0  0  0  # atno 8009 bound_to 7997
  156.2938  140.2588  156.2655 H   0  0  0  0  0  0  0  0  0  0  0  0  # atno 8010 bound_to 7997
  139.7367  144.7022  151.0639 H   0  0  0  0  0  0  0  0  0  0  0  0  # atno 10167 bound_to 10162
  157.6361  130.9440  150.0553 H   0  0  0  0  0  0  0  0  0  0  0  0  # atno 10718 bound_to 10713
  152.9940  135.5513  154.5979 H   0  0  0  0  0  0  0  0  0  0  0  0  # atno 10763 bound_to 10752
  154.5327  135.2814  155.1168 H   0  0  0  0  0  0  0  0  0  0  0  0  # atno 10764 bound_to 10752
  154.2477  135.6404  153.5282 H   0  0  0  0  0  0  0  0  0  0  0  0  # atno 10765 bound_to 10752
  140.7649  133.8485  155.9157 H   0  0  0  0  0  0  0  0  0  0  0  0  # atno 11005 bound_to 11000
  146.3309  140.2869  142.8613 LP  0  0  0  0  0  0  0  0  0  0  0  0  # atno 17320 bound_to 7965
  144.9524  140.8192  143.5564 LP  0  0  0  0  0  0  0  0  0  0  0  0  # atno 17321 bound_to 7965
  140.7780  143.4976  150.9813 LP  0  0  0  0  0  0  0  0  0  0  0  0  # atno 17342 bound_to 10162
  139.8664  143.7249  152.3170 LP  0  0  0  0  0  0  0  0  0  0  0  0  # atno 17343 bound_to 10162
  156.1602  130.3644  149.9310 LP  0  0  0  0  0  0  0  0  0  0  0  0  # atno 17370 bound_to 10713
  156.7310  130.9043  151.3625 LP  0  0  0  0  0  0  0  0  0  0  0  0  # atno 17371 bound_to 10713
  140.9628  134.1633  157.4640 LP  0  0  0  0  0  0  0  0  0  0  0  0  # atno 17394 bound_to 11000
  139.8765  134.9951  156.5726 LP  0  0  0  0  0  0  0  0  0  0  0  0  # atno 17395 bound_to 11000

$$$$
