AV-unprocessed.smi:3028|AV-procd|sdf|11524|dock10
  -GOLD-   2272016463D 1   1.00000     0.00000
 Structure written by MMmdl.
 47 48  0  0  0  0  0  0  0  0  1 V2000
  151.8703  145.8667  160.0476 C   0  0  0  0  0  0  0  0  0  0  0  0
  151.7857  144.6336  159.1948 C   0  0  0  0  0  0  0  0  0  0  0  0
  151.2727  144.5184  157.8717 C   0  0  0  0  0  0  0  0  0  0  0  0
  151.3424  143.2853  157.3990 N   0  0  0  0  0  0  0  0  0  0  0  0
  151.9029  142.5683  158.3991 N   0  0  0  0  0  0  0  0  0  0  0  0
  152.1435  141.1399  158.2347 C   0  0  1  0  0  0  0  0  0  0  0  0
  152.4738  140.5021  159.5983 C   0  0  0  0  0  0  0  0  0  0  0  0
  150.9668  140.4363  157.5053 C   0  0  1  0  0  0  0  0  0  0  0  0
  151.0596  140.5187  155.9703 C   0  0  0  0  0  0  0  0  0  0  0  0
  150.9543  139.0182  157.8526 N   0  0  0  0  0  0  0  0  0  0  0  0
  149.6132  138.5556  158.2336 C   0  0  0  0  0  0  0  0  0  0  0  0
  149.6372  137.3079  159.1298 C   0  0  0  0  0  0  0  0  0  0  0  0
  150.6771  136.6660  159.2740 O   0  0  0  0  0  0  0  0  0  0  0  0
  148.5100  136.9360  159.7602 N   0  0  0  0  0  0  0  0  0  0  0  0
  148.3225  135.7912  160.6496 C   0  0  0  0  0  0  0  0  0  0  0  0
  147.3401  134.7954  160.0151 C   0  0  0  0  0  0  0  0  0  0  0  0
  147.0138  133.6564  160.9953 C   0  0  0  0  0  0  0  0  0  0  0  0
  146.4942  134.1912  162.2081 O   0  0  0  0  0  0  0  0  0  0  0  0
  147.4219  135.0308  162.8873 C   0  0  0  0  0  0  0  0  0  0  0  0
  147.7722  136.2452  162.0124 C   0  0  0  0  0  0  0  0  0  0  0  0
  152.1788  143.3600  159.4948 C   0  0  0  0  0  0  0  0  0  0  0  0
  151.3857  146.7209  159.5744 H   0  0  0  0  0  0  0  0  0  0  0  0
  152.9048  146.1509  160.2410 H   0  0  0  0  0  0  0  0  0  0  0  0
  151.3896  145.7206  161.0151 H   0  0  0  0  0  0  0  0  0  0  0  0
  150.8532  145.2910  157.2441 H   0  0  0  0  0  0  0  0  0  0  0  0
  153.0320  141.0478  157.6073 H   0  0  0  0  0  0  0  0  0  0  0  0
  152.8014  139.4685  159.4866 H   0  0  0  0  0  0  0  0  0  0  0  0
  151.6091  140.5060  160.2627 H   0  0  0  0  0  0  0  0  0  0  0  0
  153.2792  141.0419  160.0976 H   0  0  0  0  0  0  0  0  0  0  0  0
  150.0309  140.9164  157.7987 H   0  0  0  0  0  0  0  0  0  0  0  0
  150.9901  141.5476  155.6169 H   0  0  0  0  0  0  0  0  0  0  0  0
  150.2471  139.9653  155.4976 H   0  0  0  0  0  0  0  0  0  0  0  0
  152.0003  140.1050  155.6051 H   0  0  0  0  0  0  0  0  0  0  0  0
  151.6273  138.8466  158.5861 H   0  0  0  0  0  0  0  0  0  0  0  0
  149.0913  139.3524  158.7651 H   0  0  0  0  0  0  0  0  0  0  0  0
  149.0469  138.3359  157.3283 H   0  0  0  0  0  0  0  0  0  0  0  0
  147.6951  137.5123  159.6064 H   0  0  0  0  0  0  0  0  0  0  0  0
  149.2679  135.2688  160.8022 H   0  0  0  0  0  0  0  0  0  0  0  0
  146.4160  135.3066  159.7407 H   0  0  0  0  0  0  0  0  0  0  0  0
  147.7572  134.3870  159.0938 H   0  0  0  0  0  0  0  0  0  0  0  0
  146.2713  132.9880  160.5590 H   0  0  0  0  0  0  0  0  0  0  0  0
  147.9003  133.0549  161.2016 H   0  0  0  0  0  0  0  0  0  0  0  0
  146.9756  135.3618  163.8252 H   0  0  0  0  0  0  0  0  0  0  0  0
  148.3194  134.4659  163.1442 H   0  0  0  0  0  0  0  0  0  0  0  0
  148.4941  136.8779  162.5289 H   0  0  0  0  0  0  0  0  0  0  0  0
  146.8764  136.8510  161.8675 H   0  0  0  0  0  0  0  0  0  0  0  0
  152.6292  142.9555  160.3893 H   0  0  0  0  0  0  0  0  0  0  0  0
  1  2  1  0  0  0  0
  1 22  1  0  0  0  0
  1 23  1  0  0  0  0
  1 24  1  0  0  0  0
  2 21  2  0  0  0  0
  2  3  1  0  0  0  0
  3  4  2  0  0  0  0
  3 25  1  0  0  0  0
  4  5  1  0  0  0  0
  5  6  1  0  0  0  0
  5 21  1  0  0  0  0
  6  7  1  0  0  0  0
  6  8  1  0  0  0  0
  6 26  1  0  0  0  0
  7 27  1  0  0  0  0
  7 28  1  0  0  0  0
  7 29  1  0  0  0  0
  8  9  1  0  0  0  0
  8 10  1  0  0  0  0
  8 30  1  0  0  0  0
  9 31  1  0  0  0  0
  9 32  1  0  0  0  0
  9 33  1  0  0  0  0
 10 11  1  0  0  0  0
 10 34  1  0  0  0  0
 11 12  1  0  0  0  0
 11 35  1  0  0  0  0
 11 36  1  0  0  0  0
 12 13  2  0  0  0  0
 12 14  1  0  0  0  0
 14 15  1  0  0  0  0
 14 37  1  0  0  0  0
 15 20  1  0  0  0  0
 15 16  1  0  0  0  0
 15 38  1  0  0  0  0
 16 17  1  0  0  0  0
 16 39  1  0  0  0  0
 16 40  1  0  0  0  0
 17 18  1  0  0  0  0
 17 41  1  0  0  0  0
 17 42  1  0  0  0  0
 18 19  1  0  0  0  0
 19 20  1  0  0  0  0
 19 43  1  0  0  0  0
 19 44  1  0  0  0  0
 20 45  1  0  0  0  0
 20 46  1  0  0  0  0
 21 47  1  0  0  0  0
M  END
> <s_m_source_file>
AV-unprocessed.smi

> <i_m_source_file_index>
3028

> <i_lp_mmshare_version>
43012

> <i_f3d_flags>
0

> <s_epik_input>
W0NIM11jMVtjSF1ubihbY0hdMSlbQ0BIXShbQ0gzXSlbQ0BIXShbQ0gzXSlbTkhdW0NIMl1DKD1PKVtOSF1bQ0hdMltDSDJdW0NIMl1PW0NIMl1bQ0gyXTI=

> <s_epik_cmdline>
J2VwaWtfcHl0aG9uJywgJy1waCcsICc3LjAnLCAnLXRuJywgJzgnLCAnLW1hJywgJzIwMCcsICctbWV0YWxfYmluZGluZycsICctaW1hZScsICc8aW5maWxlLm1hZT4nLCAnLW9tYWUnLCAnPG91dGZpbGUubWFlPic=

> <r_lp_tautomer_probability>
1

> <r_epik_Ionization_Penalty>
0.88617

> <r_epik_Ionization_Penalty_Charging>
0

> <r_epik_Ionization_Penalty_Neutral>
0.88617

> <r_epik_State_Penalty>
0.921066

> <r_epik_Charging_Adjusted_Penalty>
0.921066

> <i_epik_Tot_Q>
0

> <i_epik_Tot_abs_Q>
0

> <r_epik_Metal_State_Penalty>
0.917309

> <b_epik_Metal_Only>
0

> <s_lp_Force_Field>
OPLS_2005

> <r_lp_Energy>
18.7055

> <b_lp_Chiralities_Consistent>
1

> <s_lp_Variant>
AV-unprocessed.smi:3028-8

> <Gold.Version>
5.8.1

> <Gold.Id.Protein>
6NUR|6NUR_protein|mol2

> <Gold.PLP.Fitness>
46.1308

> <Gold.PLP.PLP>
-44.5668

> <Gold.PLP.part.hbond>
-1.0000

> <Gold.PLP.part.metal>
0.0000

> <Gold.PLP.part.buried>
-5.5718

> <Gold.PLP.part.nonpolar>
-38.8103

> <Gold.PLP.part.repulsive>
0.3450

> <Gold.PLP.ligand.clash>
0.0280

> <Gold.PLP.ligand.torsion>
1.9888

> <Gold.PLP.Chemscore.Hbond>
1.0000

> <Gold.PLP.Chemscore.CHOScore>
0.8059

> <Gold.PLP.Chemscore.Metal>
0.0000

> <Gold.Chemscore.Hbonds>
donor molecule, donor type, donor heavy atom, donor atom, acceptor molecule, acceptor atom, score
      P1  H  6896  6909       L1    13  1.00
      L1  C     3    25       P1  8028  0.79

> <Gold.PLP.Chemscore.Internal.Correction>
0.1518

> <Gold.Rescore>
     Score         DG    S(hbond)    S(metal)    S(lipo)     H(rot)  DE(clash)    DE(int)     intcor
     15.76     -17.52       0.99        0.00     116.65       1.92       0.02       1.73       ----

> <Gold.Chemscore.Fitness>
15.7623

> <Gold.Chemscore.DG>
-17.5161

> <Gold.Chemscore.ZeroCoef>
-5.4800

> <Gold.Chemscore.Hbond>
0.9915

> <Gold.Chemscore.Metal>
0.0000

> <Gold.Chemscore.Lipo>
116.6513

> <Gold.Chemscore.Internal_Hbond>
0.0000

> <Gold.Chemscore.DEClash>
0.0208

> <Gold.Chemscore.DEInternal>
1.7331

> <Gold.Chemscore.Rot>
1.9233

> <Gold.Chemscore.Internal.Correction>
   9.000000E+99

> <Gold.Chemscore.Hbonds>
donor molecule, donor type, donor heavy atom, donor atom, acceptor molecule, acceptor atom, score
      P1  H  6896  6909       L1    13  0.95

> <Gold.Chemscore.Hbond.Weighted>
-3.3115

> <Gold.Chemscore.Metal.Weighted>
-0.0000

> <Gold.Chemscore.Lipo.Weighted>
-13.6482

> <Gold.Chemscore.Internal_Hbond.Weighted>
0.0000

> <Gold.Chemscore.DEClash.Weighted>
0.0208

> <Gold.Chemscore.DEInternal.Weighted>
1.7331

> <Gold.Chemscore.Rot.Weighted>
4.9235

> <Gold.Chemscore.Internal.Correction.Weighted>
   9.000000E+99

> <Gold.Protein.RotatedTorsions>
[ 6907 6896 6895 6894 ] final   75.84 input  -60.11 | X-H torsion
[ 7974 7965 7964 7962 ] final    3.73 input  175.53 | X-H torsion
[ 8008 7997 7996 7995 ] final   77.37 input   59.86 | X-H torsion
[ 10167 10162 10161 10158 ] final  174.22 input  -65.29 | X-H torsion
[ 10718 10713 10712 10709 ] final -171.35 input   66.30 | X-H torsion
[ 10763 10752 10751 10750 ] final  -39.14 input  -60.55 | X-H torsion
[ 11005 11000 10999 10996 ] final   37.65 input  -57.11 | X-H torsion

> <Gold.Protein.ActiveResidues>
 VAL166  LYS551  ARG553  GLY616  TRP617  ASP618  TYR619  PRO620  LYS621  CYS622 
 ASP623  PHE694  ASN695  SER759  ASP760  ASP761  ALA762  ILE779  LEU786  VAL792 
 PHE793  MET794  SER795  GLU796  ALA797  LYS798  CYS799  TRP800  GLU811  SER814 

> <Gold.Protein.RotatedAtoms>
  152.5045  134.4060  159.9432 H   0  0  0  0  0  0  0  0  0  0  0  0  # atno 6907 bound_to 6896
  151.4026  133.3746  159.2742 H   0  0  0  0  0  0  0  0  0  0  0  0  # atno 6908 bound_to 6896
  150.9350  134.8784  159.7635 H   0  0  0  0  0  0  0  0  0  0  0  0  # atno 6909 bound_to 6896
  146.2445  140.0642  142.8366 H   0  0  0  0  0  0  0  0  0  0  0  0  # atno 7974 bound_to 7965
  155.8407  140.3462  155.5630 H   0  0  0  0  0  0  0  0  0  0  0  0  # atno 8008 bound_to 7997
  155.8144  140.0903  157.1905 H   0  0  0  0  0  0  0  0  0  0  0  0  # atno 8009 bound_to 7997
  154.4005  140.1442  156.3412 H   0  0  0  0  0  0  0  0  0  0  0  0  # atno 8010 bound_to 7997
  139.5134  144.3171  152.0237 H   0  0  0  0  0  0  0  0  0  0  0  0  # atno 10167 bound_to 10162
  156.7396  130.9337  151.3109 H   0  0  0  0  0  0  0  0  0  0  0  0  # atno 10718 bound_to 10713
  153.9245  135.6778  153.4747 H   0  0  0  0  0  0  0  0  0  0  0  0  # atno 10763 bound_to 10752
  153.1011  135.4827  154.8866 H   0  0  0  0  0  0  0  0  0  0  0  0  # atno 10764 bound_to 10752
  154.7461  135.3173  154.8599 H   0  0  0  0  0  0  0  0  0  0  0  0  # atno 10765 bound_to 10752
  140.2204  134.3647  155.8007 H   0  0  0  0  0  0  0  0  0  0  0  0  # atno 11005 bound_to 11000
  145.0873  140.9261  143.4790 LP  0  0  0  0  0  0  0  0  0  0  0  0  # atno 17320 bound_to 7965
  145.0807  139.2962  143.5785 LP  0  0  0  0  0  0  0  0  0  0  0  0  # atno 17321 bound_to 7965
  140.2614  144.4063  150.6184 LP  0  0  0  0  0  0  0  0  0  0  0  0  # atno 17342 bound_to 10162
  140.6154  143.2172  151.6801 LP  0  0  0  0  0  0  0  0  0  0  0  0  # atno 17343 bound_to 10162
  157.6824  130.9153  150.0300 LP  0  0  0  0  0  0  0  0  0  0  0  0  # atno 17370 bound_to 10713
  156.1473  130.3642  149.9490 LP  0  0  0  0  0  0  0  0  0  0  0  0  # atno 17371 bound_to 10713
  141.2223  133.7190  156.8567 LP  0  0  0  0  0  0  0  0  0  0  0  0  # atno 17394 bound_to 11000
  140.1855  134.9003  157.2999 LP  0  0  0  0  0  0  0  0  0  0  0  0  # atno 17395 bound_to 11000

$$$$
