AV-unprocessed.smi:3342|AV-procd|sdf|12888|dock9
  -GOLD-   2272019293D 1   1.00000     0.00000
 Structure written by MMmdl.
 42 43  0  0  0  0  0  0  0  0  2 V2000
  146.3798  134.4299  152.3669 C   0  0  0  0  0  0  0  0  0  0  0  0
  145.9924  135.7385  151.6652 C   0  0  1  0  0  0  0  0  0  0  0  0
  144.5298  135.6964  151.1716 C   0  0  0  0  0  0  0  0  0  0  0  0
  143.5521  135.7664  152.2624 N   0  0  0  0  0  0  0  0  0  0  0  0
  143.0978  134.7327  153.0410 C   0  0  0  0  0  0  0  0  0  0  0  0
  142.2084  135.2764  153.9316 C   0  0  0  0  0  0  0  0  0  0  0  0
  142.1527  136.6162  153.6550 N   0  3  0  0  0  0  0  0  0  0  0  0
  142.9669  136.9115  152.6366 C   0  0  0  0  0  0  0  0  0  0  0  0
  146.2039  136.8499  152.5917 N   0  0  0  0  0  0  0  0  0  0  0  0
  146.5648  138.1018  152.2585 C   0  0  0  0  0  0  0  0  0  0  0  0
  146.7267  138.4465  151.0866 O   0  0  0  0  0  0  0  0  0  0  0  0
  146.6868  138.9543  153.3069 N   0  0  0  0  0  0  0  0  0  0  0  0
  146.8504  138.5770  154.7210 C   0  0  0  0  0  0  0  0  0  0  0  0
  148.3180  138.8052  155.1266 C   0  0  0  0  0  0  0  0  0  0  0  0
  148.7438  140.2718  154.8774 C   0  0  0  0  0  0  0  0  0  0  0  0
  150.2409  140.4660  155.1527 C   0  0  0  0  0  0  0  0  0  0  0  0
  150.5770  141.3480  156.0973 N   0  0  0  0  0  0  0  0  0  0  0  0
  151.0843  139.8301  154.5234 O   0  0  0  0  0  0  0  0  0  0  0  0
  148.3815  140.7136  153.4397 C   0  0  0  0  0  0  0  0  0  0  0  0
  146.9113  140.3922  153.1150 C   0  0  0  0  0  0  0  0  0  0  0  0
  146.2665  133.5768  151.6972 H   0  0  0  0  0  0  0  0  0  0  0  0
  145.7576  134.2487  153.2442 H   0  0  0  0  0  0  0  0  0  0  0  0
  147.4196  134.4526  152.6954 H   0  0  0  0  0  0  0  0  0  0  0  0
  146.6543  135.8472  150.8041 H   0  0  0  0  0  0  0  0  0  0  0  0
  144.3300  136.5353  150.5033 H   0  0  0  0  0  0  0  0  0  0  0  0
  144.3389  134.7862  150.6010 H   0  0  0  0  0  0  0  0  0  0  0  0
  143.4379  133.7154  152.9119 H   0  0  0  0  0  0  0  0  0  0  0  0
  141.6269  134.8228  154.7210 H   0  0  0  0  0  0  0  0  0  0  0  0
  143.1285  137.8849  152.2088 H   0  0  0  0  0  0  0  0  0  0  0  0
  146.0799  136.6484  153.5735 H   0  0  0  0  0  0  0  0  0  0  0  0
  146.1951  139.1967  155.3349 H   0  0  0  0  0  0  0  0  0  0  0  0
  146.5630  137.5494  154.9428 H   0  0  0  0  0  0  0  0  0  0  0  0
  148.4513  138.5515  156.1790 H   0  0  0  0  0  0  0  0  0  0  0  0
  148.9545  138.1218  154.5614 H   0  0  0  0  0  0  0  0  0  0  0  0
  148.1804  140.9017  155.5687 H   0  0  0  0  0  0  0  0  0  0  0  0
  151.5496  141.5086  156.3155 H   0  0  0  0  0  0  0  0  0  0  0  0
  149.8545  141.8505  156.5922 H   0  0  0  0  0  0  0  0  0  0  0  0
  148.5582  141.7833  153.3212 H   0  0  0  0  0  0  0  0  0  0  0  0
  149.0249  140.2127  152.7140 H   0  0  0  0  0  0  0  0  0  0  0  0
  146.6694  140.7256  152.1049 H   0  0  0  0  0  0  0  0  0  0  0  0
  146.2494  140.9541  153.7754 H   0  0  0  0  0  0  0  0  0  0  0  0
  141.5810  137.2892  154.1502 H   0  0  0  0  0  0  0  0  0  0  0  0
  1  2  1  0  0  0  0
  1 21  1  0  0  0  0
  1 22  1  0  0  0  0
  1 23  1  0  0  0  0
  2  3  1  0  0  0  0
  2  9  1  0  0  0  0
  2 24  1  0  0  0  0
  3  4  1  0  0  0  0
  3 25  1  0  0  0  0
  3 26  1  0  0  0  0
  4  8  1  0  0  0  0
  4  5  1  0  0  0  0
  5  6  2  0  0  0  0
  5 27  1  0  0  0  0
  6  7  1  0  0  0  0
  6 28  1  0  0  0  0
  7  8  2  0  0  0  0
  7 42  1  0  0  0  0
  8 29  1  0  0  0  0
  9 10  1  0  0  0  0
  9 30  1  0  0  0  0
 10 11  2  0  0  0  0
 10 12  1  0  0  0  0
 12 20  1  0  0  0  0
 12 13  1  0  0  0  0
 13 14  1  0  0  0  0
 13 31  1  0  0  0  0
 13 32  1  0  0  0  0
 14 15  1  0  0  0  0
 14 33  1  0  0  0  0
 14 34  1  0  0  0  0
 15 16  1  0  0  0  0
 15 19  1  0  0  0  0
 15 35  1  0  0  0  0
 16 17  1  0  0  0  0
 16 18  2  0  0  0  0
 17 36  1  0  0  0  0
 17 37  1  0  0  0  0
 19 20  1  0  0  0  0
 19 38  1  0  0  0  0
 19 39  1  0  0  0  0
 20 40  1  0  0  0  0
 20 41  1  0  0  0  0
M  CHG  1   7   1
M  END
> <s_m_source_file>
AV-unprocessed.smi

> <i_m_source_file_index>
3342

> <i_lp_mmshare_version>
43012

> <i_f3d_flags>
0

> <s_epik_input>
W2NIXTFuW2NIXVtjSF1uMVtDSDJdW0NAQEhdKFtDSDNdKVtOSF1DKD1PKU4yW0NIMl1bQ0gyXVtDSF0oQyg9TylbTkgyXSlbQ0gyXVtDSDJdMg==

> <s_epik_cmdline>
J2VwaWtfcHl0aG9uJywgJy1waCcsICc3LjAnLCAnLXRuJywgJzgnLCAnLW1hJywgJzIwMCcsICctbWV0YWxfYmluZGluZycsICctaW1hZScsICc8aW5maWxlLm1hZT4nLCAnLW9tYWUnLCAnPG91dGZpbGUubWFlPic=

> <r_lp_tautomer_probability>
1

> <r_epik_Ionization_Penalty>
0.254015

> <r_epik_Ionization_Penalty_Charging>
0

> <r_epik_Ionization_Penalty_Neutral>
0.254015

> <r_epik_State_Penalty>
0.245417

> <r_epik_Charging_Adjusted_Penalty>
0.245417

> <i_epik_Tot_Q>
1

> <i_epik_Tot_abs_Q>
1

> <r_epik_Metal_State_Penalty>
0.535589

> <b_epik_Metal_Only>
0

> <s_lp_Force_Field>
OPLS_2005

> <r_lp_Energy>
31.4878

> <b_lp_Chiralities_Consistent>
1

> <s_lp_Variant>
AV-unprocessed.smi:3342-2

> <Gold.Version>
5.8.1

> <Gold.Id.Protein>
6NUR|6NUR_protein|mol2

> <Gold.PLP.Fitness>
39.3704

> <Gold.PLP.PLP>
-28.1820

> <Gold.PLP.part.hbond>
-3.0000

> <Gold.PLP.part.metal>
0.0000

> <Gold.PLP.part.buried>
0.4747

> <Gold.PLP.part.nonpolar>
-26.9280

> <Gold.PLP.part.repulsive>
0.7230

> <Gold.PLP.ligand.clash>
0.0000

> <Gold.PLP.ligand.torsion>
0.8588

> <Gold.PLP.Chemscore.Hbond>
2.0000

> <Gold.PLP.Chemscore.CHOScore>
2.2762

> <Gold.PLP.Chemscore.Metal>
0.0000

> <Gold.Chemscore.Hbonds>
donor molecule, donor type, donor heavy atom, donor atom, acceptor molecule, acceptor atom, score
      P1  H  7954  7966       L1    11  1.00
      P1  H  7989  7998       L1    18  1.00
      L1  C     5    27       P1 10957  0.25
      L1  C     8    29       P1 10171  0.87
      L1  C     8    29       P1 10175  0.82

> <Gold.PLP.Chemscore.Internal.Correction>
0.0775

> <Gold.Rescore>
     Score         DG    S(hbond)    S(metal)    S(lipo)     H(rot)  DE(clash)    DE(int)     intcor
      9.04     -11.53       1.93        0.00      47.98       2.34       1.67       0.82       ----

> <Gold.Chemscore.Fitness>
9.0445

> <Gold.Chemscore.DG>
-11.5336

> <Gold.Chemscore.ZeroCoef>
-5.4800

> <Gold.Chemscore.Hbond>
1.9252

> <Gold.Chemscore.Metal>
0.0000

> <Gold.Chemscore.Lipo>
47.9823

> <Gold.Chemscore.Internal_Hbond>
0.0000

> <Gold.Chemscore.DEClash>
1.6657

> <Gold.Chemscore.DEInternal>
0.8234

> <Gold.Chemscore.Rot>
2.3400

> <Gold.Chemscore.Internal.Correction>
   9.000000E+99

> <Gold.Chemscore.Hbonds>
donor molecule, donor type, donor heavy atom, donor atom, acceptor molecule, acceptor atom, score
      P1  H  7954  7966       L1    11  0.96
      P1  H  7989  7998       L1    18  0.43

> <Gold.Chemscore.Hbond.Weighted>
-6.4301

> <Gold.Chemscore.Metal.Weighted>
-0.0000

> <Gold.Chemscore.Lipo.Weighted>
-5.6139

> <Gold.Chemscore.Internal_Hbond.Weighted>
0.0000

> <Gold.Chemscore.DEClash.Weighted>
1.6657

> <Gold.Chemscore.DEInternal.Weighted>
0.8234

> <Gold.Chemscore.Rot.Weighted>
5.9904

> <Gold.Chemscore.Internal.Correction.Weighted>
   9.000000E+99

> <Gold.Protein.RotatedTorsions>
[ 6907 6896 6895 6894 ] final  -49.66 input  -60.11 | X-H torsion
[ 7974 7965 7964 7962 ] final  130.66 input  175.53 | X-H torsion
[ 8008 7997 7996 7995 ] final  100.39 input   59.86 | X-H torsion
[ 10167 10162 10161 10158 ] final  -79.06 input  -65.29 | X-H torsion
[ 10718 10713 10712 10709 ] final   90.08 input   66.30 | X-H torsion
[ 10763 10752 10751 10750 ] final   58.17 input  -60.55 | X-H torsion
[ 11005 11000 10999 10996 ] final   52.69 input  -57.11 | X-H torsion

> <Gold.Protein.ActiveResidues>
 VAL166  LYS551  ARG553  GLY616  TRP617  ASP618  TYR619  PRO620  LYS621  CYS622 
 ASP623  PHE694  ASN695  SER759  ASP760  ASP761  ALA762  ILE779  LEU786  VAL792 
 PHE793  MET794  SER795  GLU796  ALA797  LYS798  CYS799  TRP800  GLU811  SER814 

> <Gold.Protein.RotatedAtoms>
  150.8784  134.8170  159.7206 H   0  0  0  0  0  0  0  0  0  0  0  0  # atno 6907 bound_to 6896
  152.4761  134.4836  159.9683 H   0  0  0  0  0  0  0  0  0  0  0  0  # atno 6908 bound_to 6896
  151.4914  133.3485  159.2889 H   0  0  0  0  0  0  0  0  0  0  0  0  # atno 6909 bound_to 6896
  145.0155  139.4180  143.5223 H   0  0  0  0  0  0  0  0  0  0  0  0  # atno 7974 bound_to 7965
  156.1198  140.3214  155.8192 H   0  0  0  0  0  0  0  0  0  0  0  0  # atno 8008 bound_to 7997
  155.4524  140.0533  157.3017 H   0  0  0  0  0  0  0  0  0  0  0  0  # atno 8009 bound_to 7997
  154.4819  140.2056  155.9757 H   0  0  0  0  0  0  0  0  0  0  0  0  # atno 8010 bound_to 7997
  140.4626  143.2449  151.8325 H   0  0  0  0  0  0  0  0  0  0  0  0  # atno 10167 bound_to 10162
  157.6958  131.0357  150.3523 H   0  0  0  0  0  0  0  0  0  0  0  0  # atno 10718 bound_to 10713
  152.9865  135.5616  154.5509 H   0  0  0  0  0  0  0  0  0  0  0  0  # atno 10763 bound_to 10752
  154.4946  135.2794  155.1472 H   0  0  0  0  0  0  0  0  0  0  0  0  # atno 10764 bound_to 10752
  154.2927  135.6323  153.5445 H   0  0  0  0  0  0  0  0  0  0  0  0  # atno 10765 bound_to 10752
  140.0829  134.5314  155.8929 H   0  0  0  0  0  0  0  0  0  0  0  0  # atno 11005 bound_to 11000
  146.3477  139.9623  142.8716 LP  0  0  0  0  0  0  0  0  0  0  0  0  # atno 17320 bound_to 7965
  145.1965  140.9835  143.4180 LP  0  0  0  0  0  0  0  0  0  0  0  0  # atno 17321 bound_to 7965
  139.4808  144.4989  151.9087 LP  0  0  0  0  0  0  0  0  0  0  0  0  # atno 17342 bound_to 10162
  140.4074  144.2413  150.5890 LP  0  0  0  0  0  0  0  0  0  0  0  0  # atno 17343 bound_to 10162
  156.3970  130.3908  149.6988 LP  0  0  0  0  0  0  0  0  0  0  0  0  # atno 17370 bound_to 10713
  156.4318  130.7819  151.2839 LP  0  0  0  0  0  0  0  0  0  0  0  0  # atno 17371 bound_to 10713
  141.2053  133.6645  156.6170 LP  0  0  0  0  0  0  0  0  0  0  0  0  # atno 17394 bound_to 11000
  140.3462  134.7807  157.4434 LP  0  0  0  0  0  0  0  0  0  0  0  0  # atno 17395 bound_to 11000

$$$$
