AV-unprocessed.smi:702|AV-procd|sdf|3417|dock5
  -GOLD-   22720 0403D 1   1.00000     0.00000
 Structure written by MMmdl.
 50 52  0  0  0  0  0  0  0  0  2 V2000
  149.0819  140.1912  154.4340 C   0  0  0  0  0  0  0  0  0  0  0  0
  147.9263  140.7899  155.2592 C   0  0  1  0  0  0  0  0  0  0  0  0
  148.4627  141.8808  156.0823 N   0  0  0  0  0  0  0  0  0  0  0  0
  149.3950  141.7786  157.0420 C   0  0  0  0  0  0  0  0  0  0  0  0
  149.9429  140.7206  157.3487 O   0  0  0  0  0  0  0  0  0  0  0  0
  149.6409  142.9764  157.6012 N   0  0  0  0  0  0  0  0  0  0  0  0
  150.5335  143.3065  158.6577 C   0  0  0  0  0  0  0  0  0  0  0  0
  151.2334  142.2483  159.2738 C   0  0  0  0  0  0  0  0  0  0  0  0
  152.1357  142.5444  160.3148 C   0  0  0  0  0  0  0  0  0  0  0  0
  152.3754  143.7974  160.7542 N   0  0  0  0  0  0  0  0  0  0  0  0
  151.7153  144.8108  160.1552 C   0  0  0  0  0  0  0  0  0  0  0  0
  150.7926  144.6246  159.1060 C   0  0  0  0  0  0  0  0  0  0  0  0
  146.7015  141.2483  154.3843 C   0  0  0  0  0  0  0  0  0  0  0  0
  146.3695  140.1977  153.3464 N   0  3  0  0  0  0  0  0  0  0  0  0
  147.1929  140.2415  152.1020 C   0  0  0  0  0  0  0  0  0  0  0  0
  146.6661  139.2426  151.0576 C   0  0  0  0  0  0  0  0  0  0  0  0
  146.6504  137.9330  151.6047 O   0  0  0  0  0  0  0  0  0  0  0  0
  145.7867  137.8502  152.7277 C   0  0  0  0  0  0  0  0  0  0  0  0
  146.2935  138.7871  153.8358 C   0  0  0  0  0  0  0  0  0  0  0  0
  145.4664  141.5508  155.2876 C   0  0  0  0  0  0  0  0  0  0  0  0
  145.3155  143.0719  155.3443 C   0  0  0  0  0  0  0  0  0  0  0  0
  145.8349  143.5437  153.9923 C   0  0  0  0  0  0  0  0  0  0  0  0
  147.0274  142.6257  153.7198 C   0  0  0  0  0  0  0  0  0  0  0  0
  148.7613  139.3205  153.8623 H   0  0  0  0  0  0  0  0  0  0  0  0
  149.8936  139.8634  155.0847 H   0  0  0  0  0  0  0  0  0  0  0  0
  149.4979  140.9142  153.7323 H   0  0  0  0  0  0  0  0  0  0  0  0
  147.5987  140.0129  155.9468 H   0  0  0  0  0  0  0  0  0  0  0  0
  148.0788  142.7982  155.9073 H   0  0  0  0  0  0  0  0  0  0  0  0
  149.1566  143.7616  157.1916 H   0  0  0  0  0  0  0  0  0  0  0  0
  151.0822  141.2252  158.9615 H   0  0  0  0  0  0  0  0  0  0  0  0
  152.6812  141.7522  160.8062 H   0  0  0  0  0  0  0  0  0  0  0  0
  151.9332  145.8037  160.5196 H   0  0  0  0  0  0  0  0  0  0  0  0
  150.3202  145.4897  158.6682 H   0  0  0  0  0  0  0  0  0  0  0  0
  147.1743  141.2229  151.6355 H   0  0  0  0  0  0  0  0  0  0  0  0
  148.2353  140.0168  152.3304 H   0  0  0  0  0  0  0  0  0  0  0  0
  145.6662  139.5223  150.7212 H   0  0  0  0  0  0  0  0  0  0  0  0
  147.3088  139.2470  150.1771 H   0  0  0  0  0  0  0  0  0  0  0  0
  144.7639  138.0999  152.4404 H   0  0  0  0  0  0  0  0  0  0  0  0
  145.7741  136.8203  153.0850 H   0  0  0  0  0  0  0  0  0  0  0  0
  147.2709  138.4411  154.1699 H   0  0  0  0  0  0  0  0  0  0  0  0
  145.6208  138.6775  154.6828 H   0  0  0  0  0  0  0  0  0  0  0  0
  144.5465  141.1421  154.8741 H   0  0  0  0  0  0  0  0  0  0  0  0
  145.5511  141.1184  156.2847 H   0  0  0  0  0  0  0  0  0  0  0  0
  144.2876  143.3843  155.5305 H   0  0  0  0  0  0  0  0  0  0  0  0
  145.9363  143.4796  156.1432 H   0  0  0  0  0  0  0  0  0  0  0  0
  145.0669  143.4032  153.2312 H   0  0  0  0  0  0  0  0  0  0  0  0
  146.1107  144.5987  153.9956 H   0  0  0  0  0  0  0  0  0  0  0  0
  147.8967  143.0974  154.1759 H   0  0  0  0  0  0  0  0  0  0  0  0
  147.2875  142.5648  152.6639 H   0  0  0  0  0  0  0  0  0  0  0  0
  145.4299  140.4219  153.0513 H   0  0  0  0  0  0  0  0  0  0  0  0
  1  2  1  0  0  0  0
  1 24  1  0  0  0  0
  1 25  1  0  0  0  0
  1 26  1  0  0  0  0
  2  3  1  0  0  0  0
  2 13  1  0  0  0  0
  2 27  1  0  0  0  0
  3  4  1  0  0  0  0
  3 28  1  0  0  0  0
  4  5  2  0  0  0  0
  4  6  1  0  0  0  0
  6  7  1  0  0  0  0
  6 29  1  0  0  0  0
  7 12  1  0  0  0  0
  7  8  2  0  0  0  0
  8  9  1  0  0  0  0
  8 30  1  0  0  0  0
  9 10  2  0  0  0  0
  9 31  1  0  0  0  0
 10 11  1  0  0  0  0
 11 12  2  0  0  0  0
 11 32  1  0  0  0  0
 12 33  1  0  0  0  0
 13 23  1  0  0  0  0
 13 14  1  0  0  0  0
 13 20  1  0  0  0  0
 14 19  1  0  0  0  0
 14 15  1  0  0  0  0
 14 50  1  0  0  0  0
 15 16  1  0  0  0  0
 15 34  1  0  0  0  0
 15 35  1  0  0  0  0
 16 17  1  0  0  0  0
 16 36  1  0  0  0  0
 16 37  1  0  0  0  0
 17 18  1  0  0  0  0
 18 19  1  0  0  0  0
 18 38  1  0  0  0  0
 18 39  1  0  0  0  0
 19 40  1  0  0  0  0
 19 41  1  0  0  0  0
 20 21  1  0  0  0  0
 20 42  1  0  0  0  0
 20 43  1  0  0  0  0
 21 22  1  0  0  0  0
 21 44  1  0  0  0  0
 21 45  1  0  0  0  0
 22 23  1  0  0  0  0
 22 46  1  0  0  0  0
 22 47  1  0  0  0  0
 23 48  1  0  0  0  0
 23 49  1  0  0  0  0
M  CHG  1  14   1
M  END
> <s_m_source_file>
AV-unprocessed.smi

> <i_m_source_file_index>
702

> <i_lp_mmshare_version>
43012

> <i_f3d_flags>
0

> <s_epik_input>
W0NIMl0xW0NIMl1PW0NIMl1bQ0gyXU4xQzIoW0NIMl1bQ0gyXVtDSDJdW0NIMl0yKVtDQEhdKFtDSDNdKVtOSF1DKD1PKVtOSF1jM1tjSF1bY0hdbltjSF1bY0hdMw==

> <s_epik_cmdline>
J2VwaWtfcHl0aG9uJywgJy1waCcsICc3LjAnLCAnLXRuJywgJzgnLCAnLW1hJywgJzIwMCcsICctbWV0YWxfYmluZGluZycsICctaW1hZScsICc8aW5maWxlLm1hZT4nLCAnLW9tYWUnLCAnPG91dGZpbGUubWFlPic=

> <r_epik_Ionization_Penalty>
0.42559

> <r_epik_Ionization_Penalty_Charging>
0.324387

> <r_epik_Ionization_Penalty_Neutral>
0.101203

> <r_epik_State_Penalty>
0.407162

> <r_epik_Charging_Adjusted_Penalty>
0.731549

> <i_epik_Tot_Q>
1

> <i_epik_Tot_abs_Q>
1

> <r_epik_Metal_State_Penalty>
0.398289

> <b_epik_Metal_Only>
0

> <s_lp_Force_Field>
OPLS_2005

> <r_lp_Energy>
55.6583

> <b_lp_Chiralities_Consistent>
1

> <s_lp_Variant>
AV-unprocessed.smi:702-2

> <Gold.Version>
5.8.1

> <Gold.Id.Protein>
6NUR|6NUR_protein|mol2

> <Gold.PLP.Fitness>
50.0545

> <Gold.PLP.PLP>
-40.0688

> <Gold.PLP.part.hbond>
-3.0000

> <Gold.PLP.part.metal>
0.0000

> <Gold.PLP.part.buried>
-0.6334

> <Gold.PLP.part.nonpolar>
-37.0040

> <Gold.PLP.part.repulsive>
1.6601

> <Gold.PLP.ligand.clash>
0.0000

> <Gold.PLP.ligand.torsion>
0.8208

> <Gold.PLP.Chemscore.Hbond>
3.8284

> <Gold.PLP.Chemscore.CHOScore>
0.0000

> <Gold.PLP.Chemscore.Metal>
0.0000

> <Gold.Chemscore.Hbonds>
donor molecule, donor type, donor heavy atom, donor atom, acceptor molecule, acceptor atom, score
      L1  H     3    28       P1  8028  0.63
      L1  H     6    29       P1  8028  0.93
      L1  H    14    50       P1 10175  2.00

> <Gold.PLP.Chemscore.Internal.Correction>
0.1423

> <Gold.Rescore>
     Score         DG    S(hbond)    S(metal)    S(lipo)     H(rot)  DE(clash)    DE(int)     intcor
     17.81     -23.76       2.59        0.00     113.88       1.45       1.74       4.21       ----

> <Gold.Chemscore.Fitness>
17.8091

> <Gold.Chemscore.DG>
-23.7563

> <Gold.Chemscore.ZeroCoef>
-5.4800

> <Gold.Chemscore.Hbond>
2.5944

> <Gold.Chemscore.Metal>
0.0000

> <Gold.Chemscore.Lipo>
113.8802

> <Gold.Chemscore.Internal_Hbond>
0.0000

> <Gold.Chemscore.DEClash>
1.7382

> <Gold.Chemscore.DEInternal>
4.2090

> <Gold.Chemscore.Rot>
1.4504

> <Gold.Chemscore.Internal.Correction>
   9.000000E+99

> <Gold.Chemscore.Hbonds>
donor molecule, donor type, donor heavy atom, donor atom, acceptor molecule, acceptor atom, score
      L1  H     3    28       P1  8028  0.51
      L1  H     6    29       P1  8028  0.36
      L1  H    14    50       P1 10175  0.93

> <Gold.Chemscore.Hbond.Weighted>
-8.6652

> <Gold.Chemscore.Metal.Weighted>
-0.0000

> <Gold.Chemscore.Lipo.Weighted>
-13.3240

> <Gold.Chemscore.Internal_Hbond.Weighted>
0.0000

> <Gold.Chemscore.DEClash.Weighted>
1.7382

> <Gold.Chemscore.DEInternal.Weighted>
4.2090

> <Gold.Chemscore.Rot.Weighted>
3.7129

> <Gold.Chemscore.Internal.Correction.Weighted>
   9.000000E+99

> <Gold.Protein.RotatedTorsions>
[ 6907 6896 6895 6894 ] final -167.16 input  -60.11 | X-H torsion
[ 7974 7965 7964 7962 ] final   17.35 input  175.53 | X-H torsion
[ 8008 7997 7996 7995 ] final -133.17 input   59.86 | X-H torsion
[ 10167 10162 10161 10158 ] final  -24.47 input  -65.29 | X-H torsion
[ 10718 10713 10712 10709 ] final -163.48 input   66.30 | X-H torsion
[ 10763 10752 10751 10750 ] final   98.73 input  -60.55 | X-H torsion
[ 11005 11000 10999 10996 ] final -151.02 input  -57.11 | X-H torsion

> <Gold.Protein.ActiveResidues>
 VAL166  LYS551  ARG553  GLY616  TRP617  ASP618  TYR619  PRO620  LYS621  CYS622 
 ASP623  PHE694  ASN695  SER759  ASP760  ASP761  ALA762  ILE779  LEU786  VAL792 
 PHE793  MET794  SER795  GLU796  ALA797  LYS798  CYS799  TRP800  GLU811  SER814 

> <Gold.Protein.RotatedAtoms>
  151.4551  133.3607  159.2800 H   0  0  0  0  0  0  0  0  0  0  0  0  # atno 6907 bound_to 6896
  150.9064  134.8481  159.7406 H   0  0  0  0  0  0  0  0  0  0  0  0  # atno 6908 bound_to 6896
  152.4908  134.4476  159.9616 H   0  0  0  0  0  0  0  0  0  0  0  0  # atno 6909 bound_to 6896
  146.2221  139.8615  142.8604 H   0  0  0  0  0  0  0  0  0  0  0  0  # atno 7974 bound_to 7965
  155.3410  140.0472  157.3045 H   0  0  0  0  0  0  0  0  0  0  0  0  # atno 8008 bound_to 7997
  154.5277  140.2246  155.8825 H   0  0  0  0  0  0  0  0  0  0  0  0  # atno 8009 bound_to 7997
  156.1756  140.3086  155.9060 H   0  0  0  0  0  0  0  0  0  0  0  0  # atno 8010 bound_to 7997
  140.7288  143.4350  151.0743 H   0  0  0  0  0  0  0  0  0  0  0  0  # atno 10167 bound_to 10162
  156.6253  130.8907  151.2966 H   0  0  0  0  0  0  0  0  0  0  0  0  # atno 10718 bound_to 10713
  153.2926  135.4138  155.1181 H   0  0  0  0  0  0  0  0  0  0  0  0  # atno 10763 bound_to 10752
  154.8525  135.3522  154.5960 H   0  0  0  0  0  0  0  0  0  0  0  0  # atno 10764 bound_to 10752
  153.6383  135.7058  153.5309 H   0  0  0  0  0  0  0  0  0  0  0  0  # atno 10765 bound_to 10752
  140.7340  134.3588  157.5161 H   0  0  0  0  0  0  0  0  0  0  0  0  # atno 11005 bound_to 11000
  145.2699  141.0105  143.3777 LP  0  0  0  0  0  0  0  0  0  0  0  0  # atno 17320 bound_to 7965
  144.9231  139.4387  143.6531 LP  0  0  0  0  0  0  0  0  0  0  0  0  # atno 17321 bound_to 7965
  139.8011  143.8082  152.3163 LP  0  0  0  0  0  0  0  0  0  0  0  0  # atno 17342 bound_to 10162
  139.8099  144.7340  150.9711 LP  0  0  0  0  0  0  0  0  0  0  0  0  # atno 17343 bound_to 10162
  157.7216  130.9566  150.1461 LP  0  0  0  0  0  0  0  0  0  0  0  0  # atno 17370 bound_to 10713
  156.2278  130.3679  149.8480 LP  0  0  0  0  0  0  0  0  0  0  0  0  # atno 17371 bound_to 10713
  139.8820  134.9037  156.2862 LP  0  0  0  0  0  0  0  0  0  0  0  0  # atno 17394 bound_to 11000
  140.9895  133.7217  156.0793 LP  0  0  0  0  0  0  0  0  0  0  0  0  # atno 17395 bound_to 11000

$$$$
