AV-unprocessed.smi:44|AV-procd|sdf|404|dock4
  -GOLD-   2262016253D 1   1.00000     0.00000
 Structure written by MMmdl.
 28 30  0  0  0  0  0  0  0  0  2 V2000
  152.4582  138.0248  154.7901 O   0  0  0  0  0  0  0  0  0  0  0  0
  152.4968  138.5875  155.8825 C   0  0  0  0  0  0  0  0  0  0  0  0
  153.1593  138.1233  156.9896 N   0  5  0  0  0  0  0  0  0  0  0  0
  153.1233  138.8579  158.1732 C   0  0  0  0  0  0  0  0  0  0  0  0
  152.5209  139.9782  158.3871 N   0  0  0  0  0  0  0  0  0  0  0  0
  151.8480  140.4691  157.2872 C   0  0  0  0  0  0  0  0  0  0  0  0
  151.7760  139.8808  156.0532 C   0  0  0  0  0  0  0  0  0  0  0  0
  151.0112  140.6413  155.1766 N   0  0  0  0  0  0  0  0  0  0  0  0
  150.6529  141.6727  155.9415 C   0  0  0  0  0  0  0  0  0  0  0  0
  151.1115  141.6441  157.2104 N   0  0  0  0  0  0  0  0  0  0  0  0
  150.8778  142.6438  158.2962 C   0  0  2  0  0  0  0  0  0  0  0  0
  151.6163  143.9498  157.9800 C   0  0  0  0  0  0  0  0  0  0  0  0
  152.2114  144.2988  159.3264 C   0  0  0  0  0  0  0  0  0  0  0  0
  152.5345  142.9126  159.8808 C   0  0  1  0  0  0  0  0  0  0  0  0
  152.7061  142.8589  161.4048 C   0  0  0  0  0  0  0  0  0  0  0  0
  151.4917  143.1870  162.0460 O   0  0  0  0  0  0  0  0  0  0  0  0
  151.4052  142.1394  159.4893 O   0  0  0  0  0  0  0  0  0  0  0  0
  149.7954  142.7507  158.3736 H   0  0  0  0  0  0  0  0  0  0  0  0
  153.4184  142.5084  159.3847 H   0  0  0  0  0  0  0  0  0  0  0  0
  153.6909  138.3712  158.9705 H   0  0  0  0  0  0  0  0  0  0  0  0
  150.0348  142.4736  155.5649 H   0  0  0  0  0  0  0  0  0  0  0  0
  152.4068  143.7727  157.2486 H   0  0  0  0  0  0  0  0  0  0  0  0
  150.9329  144.7052  157.5914 H   0  0  0  0  0  0  0  0  0  0  0  0
  153.0876  144.9429  159.2501 H   0  0  0  0  0  0  0  0  0  0  0  0
  151.4680  144.7999  159.9476 H   0  0  0  0  0  0  0  0  0  0  0  0
  153.0365  141.8708  161.7266 H   0  0  0  0  0  0  0  0  0  0  0  0
  153.4669  143.5730  161.7213 H   0  0  0  0  0  0  0  0  0  0  0  0
  151.1405  143.9660  161.6427 H   0  0  0  0  0  0  0  0  0  0  0  0
  1  2  2  0  0  0  0
  2  7  1  0  0  0  0
  2  3  1  0  0  0  0
  3  4  1  0  0  0  0
  4  5  2  0  0  0  0
  4 20  1  0  0  0  0
  5  6  1  0  0  0  0
  6 10  1  0  0  0  0
  6  7  2  0  0  0  0
  7  8  1  0  0  0  0
  8  9  2  0  0  0  0
  9 10  1  0  0  0  0
  9 21  1  0  0  0  0
 10 11  1  0  0  0  0
 11 18  1  0  0  0  0
 11 17  1  0  0  0  0
 11 12  1  0  0  0  0
 12 13  1  0  0  0  0
 12 22  1  0  0  0  0
 12 23  1  0  0  0  0
 13 14  1  0  0  0  0
 13 24  1  0  0  0  0
 13 25  1  0  0  0  0
 14 19  1  0  0  0  0
 14 15  1  0  0  0  0
 14 17  1  0  0  0  0
 15 16  1  0  0  0  0
 15 26  1  0  0  0  0
 15 27  1  0  0  0  0
 16 28  1  0  0  0  0
M  CHG  1   3  -1
M  END
> <s_m_source_file>
AV-unprocessed.smi

> <i_m_source_file_index>
44

> <i_lp_mmshare_version>
43012

> <i_f3d_flags>
0

> <s_epik_input>
bjFbY0hdW25IXWMoPU8pYyhjMTIpbltjSF1uMltDQEhdM1tDSDJdW0NIMl1bQ0BIXShPMylbQ0gyXVtPSF0=

> <s_epik_cmdline>
J2VwaWtfcHl0aG9uJywgJy1waCcsICc3LjAnLCAnLXRuJywgJzgnLCAnLW1hJywgJzIwMCcsICctbWV0YWxfYmluZGluZycsICctaW1hZScsICc8aW5maWxlLm1hZT4nLCAnLW9tYWUnLCAnPG91dGZpbGUubWFlPic=

> <r_lp_tautomer_probability>
0.85571

> <r_epik_Ionization_Penalty>
2.55863

> <r_epik_Ionization_Penalty_Charging>
1.36424e-10

> <r_epik_Ionization_Penalty_Neutral>
2.55863

> <r_epik_State_Penalty>
2.63326

> <r_epik_Charging_Adjusted_Penalty>
2.63326

> <i_epik_Tot_Q>
-1

> <i_epik_Tot_abs_Q>
1

> <r_epik_Metal_State_Penalty>
0.475154

> <b_epik_Metal_Only>
1

> <s_epik_Chemistry_Notes>
This compound contains an acetal/aminal-like group ( X-CH(R)-Y where X, Y are N, S, or O) that may be acid/base labile, releasing an aldehyde.

> <s_lp_Force_Field>
OPLS_2005

> <r_lp_Energy>
46.6553

> <b_lp_Chiralities_Consistent>
1

> <s_lp_Variant>
AV-unprocessed.smi:44-10

> <Gold.Version>
5.8.1

> <Gold.Id.Protein>
6NUR|6NUR_protein|mol2

> <Gold.PLP.Fitness>
45.7701

> <Gold.PLP.PLP>
-38.1539

> <Gold.PLP.part.hbond>
-4.2356

> <Gold.PLP.part.metal>
0.0000

> <Gold.PLP.part.buried>
-4.9121

> <Gold.PLP.part.nonpolar>
-28.6363

> <Gold.PLP.part.repulsive>
0.1055

> <Gold.PLP.ligand.clash>
0.0000

> <Gold.PLP.ligand.torsion>
0.1456

> <Gold.PLP.Chemscore.Hbond>
1.6320

> <Gold.PLP.Chemscore.CHOScore>
1.0000

> <Gold.PLP.Chemscore.Metal>
0.0000

> <Gold.Chemscore.Hbonds>
donor molecule, donor type, donor heavy atom, donor atom, acceptor molecule, acceptor atom, score
      P1  H  6933  6945       L1    16  0.72
      P1  H  7989  7998       L1     8  0.91
      L1  C     9    21       P1  8028  1.00

> <Gold.PLP.Chemscore.Internal.Correction>
0.0115

> <Gold.Rescore>
     Score         DG    S(hbond)    S(metal)    S(lipo)     H(rot)  DE(clash)    DE(int)     intcor
      9.91     -12.46       1.93        0.00      53.94       2.26       0.81       1.74       ----

> <Gold.Chemscore.Fitness>
9.9061

> <Gold.Chemscore.DG>
-12.4584

> <Gold.Chemscore.ZeroCoef>
-5.4800

> <Gold.Chemscore.Hbond>
1.9311

> <Gold.Chemscore.Metal>
0.0000

> <Gold.Chemscore.Lipo>
53.9406

> <Gold.Chemscore.Internal_Hbond>
0.0000

> <Gold.Chemscore.DEClash>
0.8094

> <Gold.Chemscore.DEInternal>
1.7428

> <Gold.Chemscore.Rot>
2.2588

> <Gold.Chemscore.Internal.Correction>
   9.000000E+99

> <Gold.Chemscore.Hbonds>
donor molecule, donor type, donor heavy atom, donor atom, acceptor molecule, acceptor atom, score
      P1  H  6933  6945       L1    16  0.49
      P1  H  7989  7998       L1     8  0.83
      P1  H 10752 10764       L1     1  0.01

> <Gold.Chemscore.Hbond.Weighted>
-6.4498

> <Gold.Chemscore.Metal.Weighted>
-0.0000

> <Gold.Chemscore.Lipo.Weighted>
-6.3111

> <Gold.Chemscore.Internal_Hbond.Weighted>
0.0000

> <Gold.Chemscore.DEClash.Weighted>
0.8094

> <Gold.Chemscore.DEInternal.Weighted>
1.7428

> <Gold.Chemscore.Rot.Weighted>
5.7825

> <Gold.Chemscore.Internal.Correction.Weighted>
   9.000000E+99

> <Gold.Protein.RotatedTorsions>
[ 6907 6896 6895 6894 ] final   82.58 input  -60.11 | X-H torsion
[ 7974 7965 7964 7962 ] final -179.75 input  175.53 | X-H torsion
[ 8008 7997 7996 7995 ] final  -83.79 input   59.86 | X-H torsion
[ 10167 10162 10161 10158 ] final   -1.06 input  -65.29 | X-H torsion
[ 10718 10713 10712 10709 ] final  -80.75 input   66.30 | X-H torsion
[ 10763 10752 10751 10750 ] final  -53.79 input  -60.55 | X-H torsion
[ 11005 11000 10999 10996 ] final  125.64 input  -57.11 | X-H torsion

> <Gold.Protein.ActiveResidues>
 VAL166  LYS551  ARG553  GLY616  TRP617  ASP618  TYR619  PRO620  LYS621  CYS622 
 ASP623  PHE694  ASN695  SER759  ASP760  ASP761  ALA762  ILE779  LEU786  VAL792 
 PHE793  MET794  SER795  GLU796  ALA797  LYS798  CYS799  TRP800  GLU811  SER814 

> <Gold.Protein.RotatedAtoms>
  152.5303  134.3027  159.9084 H   0  0  0  0  0  0  0  0  0  0  0  0  # atno 6907 bound_to 6896
  151.2978  133.4130  159.2645 H   0  0  0  0  0  0  0  0  0  0  0  0  # atno 6908 bound_to 6896
  151.0145  134.9438  159.8083 H   0  0  0  0  0  0  0  0  0  0  0  0  # atno 6909 bound_to 6896
  144.7139  140.0671  143.6430 H   0  0  0  0  0  0  0  0  0  0  0  0  # atno 7974 bound_to 7965
  154.6229  140.0614  156.9637 H   0  0  0  0  0  0  0  0  0  0  0  0  # atno 8008 bound_to 7997
  155.1789  140.3297  155.4360 H   0  0  0  0  0  0  0  0  0  0  0  0  # atno 8009 bound_to 7997
  156.2441  140.1901  156.6886 H   0  0  0  0  0  0  0  0  0  0  0  0  # atno 8010 bound_to 7997
  140.6794  143.6820  150.8098 H   0  0  0  0  0  0  0  0  0  0  0  0  # atno 10167 bound_to 10162
  156.0064  130.4583  150.3847 H   0  0  0  0  0  0  0  0  0  0  0  0  # atno 10718 bound_to 10713
  154.1644  135.6469  153.4994 H   0  0  0  0  0  0  0  0  0  0  0  0  # atno 10763 bound_to 10752
  153.0101  135.5368  154.6677 H   0  0  0  0  0  0  0  0  0  0  0  0  # atno 10764 bound_to 10752
  154.5999  135.2942  155.0518 H   0  0  0  0  0  0  0  0  0  0  0  0  # atno 10765 bound_to 10752
  139.9416  134.9635  156.8588 H   0  0  0  0  0  0  0  0  0  0  0  0  # atno 11005 bound_to 11000
  145.9815  139.2945  143.1039 LP  0  0  0  0  0  0  0  0  0  0  0  0  # atno 17320 bound_to 7965
  145.9005  140.9246  143.0505 LP  0  0  0  0  0  0  0  0  0  0  0  0  # atno 17321 bound_to 7965
  140.0518  143.5242  152.2670 LP  0  0  0  0  0  0  0  0  0  0  0  0  # atno 17342 bound_to 10162
  139.6107  144.7608  151.2959 LP  0  0  0  0  0  0  0  0  0  0  0  0  # atno 17343 bound_to 10162
  157.1925  131.0419  151.2692 LP  0  0  0  0  0  0  0  0  0  0  0  0  # atno 17370 bound_to 10713
  157.4048  130.7353  149.6794 LP  0  0  0  0  0  0  0  0  0  0  0  0  # atno 17371 bound_to 10713
  140.5937  134.0237  155.7509 LP  0  0  0  0  0  0  0  0  0  0  0  0  # atno 17394 bound_to 11000
  141.1053  133.9704  157.3008 LP  0  0  0  0  0  0  0  0  0  0  0  0  # atno 17395 bound_to 11000

$$$$
