AV-unprocessed.smi:145|AV-procd|sdf|1197|dock10
  -GOLD-   2262018353D 1   1.00000     0.00000
 Structure written by MMmdl.
 40 42  0  0  0  0  0  0  0  0  1 V2000
  151.3989  137.1474  159.4804 O   0  0  0  0  0  0  0  0  0  0  0  0
  150.8662  137.2035  158.3713 C   0  0  0  0  0  0  0  0  0  0  0  0
  151.5757  137.8977  157.1976 C   0  0  0  0  0  0  0  0  0  0  0  0
  151.1638  139.3055  157.0012 N   0  0  0  0  0  0  0  0  0  0  0  0
  150.5134  139.6612  155.7934 C   0  0  0  0  0  0  0  0  0  0  0  0
  150.3073  138.8285  154.9094 O   0  0  0  0  0  0  0  0  0  0  0  0
  150.1047  141.0571  155.6859 C   0  0  0  0  0  0  0  0  0  0  0  0
  149.4670  141.4816  154.5819 F   0  0  0  0  0  0  0  0  0  0  0  0
  150.3530  141.9316  156.6823 C   0  0  0  0  0  0  0  0  0  0  0  0
  151.0074  141.5776  157.8457 N   0  0  0  0  0  0  0  0  0  0  0  0
  151.1974  142.6131  158.9298 C   0  0  2  0  0  0  0  0  0  0  0  0
  150.6793  144.0120  158.5453 C   0  0  0  0  0  0  0  0  0  0  0  0
  151.9173  144.8828  158.6836 C   0  0  0  0  0  0  0  0  0  0  0  0
  152.8086  144.0622  159.6096 C   0  0  0  0  0  0  0  0  0  0  0  0
  152.5600  142.7256  159.2033 O   0  0  0  0  0  0  0  0  0  0  0  0
  151.4017  140.2339  158.0432 C   0  0  0  0  0  0  0  0  0  0  0  0
  151.9315  139.8756  159.0963 O   0  0  0  0  0  0  0  0  0  0  0  0
  149.6473  136.7103  158.0865 N   0  0  0  0  0  0  0  0  0  0  0  0
  148.7482  136.0166  158.9413 C   0  0  0  0  0  0  0  0  0  0  0  0
  147.9114  134.9606  158.5047 C   0  0  0  0  0  0  0  0  0  0  0  0
  147.0311  134.3338  159.4083 C   0  0  0  0  0  0  0  0  0  0  0  0
  146.9713  134.7598  160.7483 C   0  0  0  0  0  0  0  0  0  0  0  0
  147.7881  135.8197  161.1844 C   0  0  0  0  0  0  0  0  0  0  0  0
  147.6941  136.4642  163.1713 I   0  0  0  0  0  0  0  0  0  0  0  0
  148.6684  136.4481  160.2821 C   0  0  0  0  0  0  0  0  0  0  0  0
  152.6536  137.8284  157.3535 H   0  0  0  0  0  0  0  0  0  0  0  0
  151.4029  137.3099  156.2947 H   0  0  0  0  0  0  0  0  0  0  0  0
  150.0239  142.9527  156.5551 H   0  0  0  0  0  0  0  0  0  0  0  0
  150.6864  142.2236  159.8114 H   0  0  0  0  0  0  0  0  0  0  0  0
  150.2481  144.0398  157.5443 H   0  0  0  0  0  0  0  0  0  0  0  0
  149.9103  144.3057  159.2605 H   0  0  0  0  0  0  0  0  0  0  0  0
  152.4011  145.0047  157.7143 H   0  0  0  0  0  0  0  0  0  0  0  0
  151.6974  145.8755  159.0769 H   0  0  0  0  0  0  0  0  0  0  0  0
  153.8638  144.3205  159.5184 H   0  0  0  0  0  0  0  0  0  0  0  0
  152.5098  144.1891  160.6515 H   0  0  0  0  0  0  0  0  0  0  0  0
  149.2958  136.9130  157.1621 H   0  0  0  0  0  0  0  0  0  0  0  0
  147.9168  134.6240  157.4795 H   0  0  0  0  0  0  0  0  0  0  0  0
  146.3967  133.5279  159.0699 H   0  0  0  0  0  0  0  0  0  0  0  0
  146.2947  134.2775  161.4383 H   0  0  0  0  0  0  0  0  0  0  0  0
  149.2892  137.2624  160.6266 H   0  0  0  0  0  0  0  0  0  0  0  0
  1  2  2  0  0  0  0
  2  3  1  0  0  0  0
  2 18  1  0  0  0  0
  3  4  1  0  0  0  0
  3 26  1  0  0  0  0
  3 27  1  0  0  0  0
  4 16  1  0  0  0  0
  4  5  1  0  0  0  0
  5  6  2  0  0  0  0
  5  7  1  0  0  0  0
  7  8  1  0  0  0  0
  7  9  2  0  0  0  0
  9 10  1  0  0  0  0
  9 28  1  0  0  0  0
 10 11  1  0  0  0  0
 10 16  1  0  0  0  0
 11 15  1  0  0  0  0
 11 12  1  0  0  0  0
 11 29  1  0  0  0  0
 12 13  1  0  0  0  0
 12 30  1  0  0  0  0
 12 31  1  0  0  0  0
 13 14  1  0  0  0  0
 13 32  1  0  0  0  0
 13 33  1  0  0  0  0
 14 15  1  0  0  0  0
 14 34  1  0  0  0  0
 14 35  1  0  0  0  0
 16 17  2  0  0  0  0
 18 19  1  0  0  0  0
 18 36  1  0  0  0  0
 19 25  1  0  0  0  0
 19 20  2  0  0  0  0
 20 21  1  0  0  0  0
 20 37  1  0  0  0  0
 21 22  2  0  0  0  0
 21 38  1  0  0  0  0
 22 23  1  0  0  0  0
 22 39  1  0  0  0  0
 23 24  1  0  0  0  0
 23 25  2  0  0  0  0
 25 40  1  0  0  0  0
M  END
> <s_m_source_file>
AV-unprocessed.smi

> <i_m_source_file_index>
145

> <i_lp_mmshare_version>
43012

> <i_f3d_flags>
0

> <s_epik_input>
SWMoW2NIXTEpW2NIXVtjSF1bY0hdYzFbTkhdQyg9TylbQ0gyXW4yYyg9TyljKEYpW2NIXW4oYzI9TylbQ0BASF0zW0NIMl1bQ0gyXVtDSDJdTzM=

> <s_epik_cmdline>
J2VwaWtfcHl0aG9uJywgJy1waCcsICc3LjAnLCAnLXRuJywgJzgnLCAnLW1hJywgJzIwMCcsICctbWV0YWxfYmluZGluZycsICctaW1hZScsICc8aW5maWxlLm1hZT4nLCAnLW9tYWUnLCAnPG91dGZpbGUubWFlPic=

> <r_lp_tautomer_probability>
1

> <r_epik_Ionization_Penalty>
9.72367e-07

> <r_epik_Ionization_Penalty_Charging>
3.88729e-08

> <r_epik_Ionization_Penalty_Neutral>
9.33494e-07

> <r_epik_State_Penalty>
-0

> <r_epik_Charging_Adjusted_Penalty>
3.88729e-08

> <i_epik_Tot_Q>
0

> <i_epik_Tot_abs_Q>
0

> <r_epik_Metal_State_Penalty>
-0

> <b_epik_Metal_Only>
0

> <s_epik_Chemistry_Notes>
This compound contains an acetal/aminal-like group ( X-CH(R)-Y where X, Y are N, S, or O) that may be acid/base labile, releasing an aldehyde.

> <s_lp_Force_Field>
OPLS_2005

> <r_lp_Energy>
28.2642

> <b_lp_Chiralities_Consistent>
1

> <s_lp_Variant>
AV-unprocessed.smi:145-1

> <Gold.Version>
5.8.1

> <Gold.Id.Protein>
6NUR|6NUR_protein|mol2

> <Gold.PLP.Fitness>
47.6562

> <Gold.PLP.PLP>
-42.9019

> <Gold.PLP.part.hbond>
-1.0000

> <Gold.PLP.part.metal>
0.0000

> <Gold.PLP.part.buried>
-5.7627

> <Gold.PLP.part.nonpolar>
-36.6964

> <Gold.PLP.part.repulsive>
0.2057

> <Gold.PLP.ligand.clash>
0.0000

> <Gold.PLP.ligand.torsion>
0.6226

> <Gold.PLP.Chemscore.Hbond>
0.9913

> <Gold.PLP.Chemscore.CHOScore>
1.0000

> <Gold.PLP.Chemscore.Metal>
0.0000

> <Gold.Chemscore.Hbonds>
donor molecule, donor type, donor heavy atom, donor atom, acceptor molecule, acceptor atom, score
      P1  H  6896  6909       L1     1  0.99
      L1  C     9    28       P1  8028  1.00

> <Gold.PLP.Chemscore.Internal.Correction>
0.0258

> <Gold.Rescore>
     Score         DG    S(hbond)    S(metal)    S(lipo)     H(rot)  DE(clash)    DE(int)     intcor
     13.57     -15.61       0.99        0.00      94.63       1.66       0.17       1.87       ----

> <Gold.Chemscore.Fitness>
13.5679

> <Gold.Chemscore.DG>
-15.6065

> <Gold.Chemscore.ZeroCoef>
-5.4800

> <Gold.Chemscore.Hbond>
0.9909

> <Gold.Chemscore.Metal>
0.0000

> <Gold.Chemscore.Lipo>
94.6302

> <Gold.Chemscore.Internal_Hbond>
0.0000

> <Gold.Chemscore.DEClash>
0.1726

> <Gold.Chemscore.DEInternal>
1.8660

> <Gold.Chemscore.Rot>
1.6621

> <Gold.Chemscore.Internal.Correction>
   9.000000E+99

> <Gold.Chemscore.Hbonds>
donor molecule, donor type, donor heavy atom, donor atom, acceptor molecule, acceptor atom, score
      P1  H  6896  6909       L1     1  0.51

> <Gold.Chemscore.Hbond.Weighted>
-3.3097

> <Gold.Chemscore.Metal.Weighted>
-0.0000

> <Gold.Chemscore.Lipo.Weighted>
-11.0717

> <Gold.Chemscore.Internal_Hbond.Weighted>
0.0000

> <Gold.Chemscore.DEClash.Weighted>
0.1726

> <Gold.Chemscore.DEInternal.Weighted>
1.8660

> <Gold.Chemscore.Rot.Weighted>
4.2550

> <Gold.Chemscore.Internal.Correction.Weighted>
   9.000000E+99

> <Gold.Protein.RotatedTorsions>
[ 6907 6896 6895 6894 ] final  113.46 input  -60.11 | X-H torsion
[ 7974 7965 7964 7962 ] final  -36.14 input  175.53 | X-H torsion
[ 8008 7997 7996 7995 ] final  -43.14 input   59.86 | X-H torsion
[ 10167 10162 10161 10158 ] final   70.43 input  -65.29 | X-H torsion
[ 10718 10713 10712 10709 ] final -137.02 input   66.30 | X-H torsion
[ 10763 10752 10751 10750 ] final  153.46 input  -60.55 | X-H torsion
[ 11005 11000 10999 10996 ] final -167.69 input  -57.11 | X-H torsion

> <Gold.Protein.ActiveResidues>
 VAL166  LYS551  ARG553  GLY616  TRP617  ASP618  TYR619  PRO620  LYS621  CYS622 
 ASP623  PHE694  ASN695  SER759  ASP760  ASP761  ALA762  ILE779  LEU786  VAL792 
 PHE793  MET794  SER795  GLU796  ALA797  LYS798  CYS799  TRP800  GLU811  SER814 

> <Gold.Protein.RotatedAtoms>
  152.4859  133.8372  159.7133 H   0  0  0  0  0  0  0  0  0  0  0  0  # atno 6907 bound_to 6896
  150.8946  133.7189  159.2902 H   0  0  0  0  0  0  0  0  0  0  0  0  # atno 6908 bound_to 6896
  151.4651  135.1045  159.9788 H   0  0  0  0  0  0  0  0  0  0  0  0  # atno 6909 bound_to 6896
  146.0687  140.6242  142.8962 H   0  0  0  0  0  0  0  0  0  0  0  0  # atno 7974 bound_to 7965
  154.3997  140.1455  156.3469 H   0  0  0  0  0  0  0  0  0  0  0  0  # atno 8008 bound_to 7997
  155.8305  140.3466  155.5548 H   0  0  0  0  0  0  0  0  0  0  0  0  # atno 8009 bound_to 7997
  155.8193  140.0895  157.1848 H   0  0  0  0  0  0  0  0  0  0  0  0  # atno 8010 bound_to 7997
  140.0570  144.5264  150.7321 H   0  0  0  0  0  0  0  0  0  0  0  0  # atno 10167 bound_to 10162
  156.2835  130.7334  151.1339 H   0  0  0  0  0  0  0  0  0  0  0  0  # atno 10718 bound_to 10713
  154.1365  135.2823  155.3172 H   0  0  0  0  0  0  0  0  0  0  0  0  # atno 10763 bound_to 10752
  154.6318  135.5432  153.7692 H   0  0  0  0  0  0  0  0  0  0  0  0  # atno 10764 bound_to 10752
  153.0264  135.6464  154.1513 H   0  0  0  0  0  0  0  0  0  0  0  0  # atno 10765 bound_to 10752
  140.5504  134.5434  157.5121 H   0  0  0  0  0  0  0  0  0  0  0  0  # atno 11005 bound_to 11000
  144.7218  140.4398  143.7002 LP  0  0  0  0  0  0  0  0  0  0  0  0  # atno 17320 bound_to 7965
  145.6430  139.1553  143.2905 LP  0  0  0  0  0  0  0  0  0  0  0  0  # atno 17321 bound_to 7965
  140.7190  143.2571  151.4341 LP  0  0  0  0  0  0  0  0  0  0  0  0  # atno 17342 bound_to 10162
  139.5917  144.1484  152.2096 LP  0  0  0  0  0  0  0  0  0  0  0  0  # atno 17343 bound_to 10162
  157.7321  131.0602  150.5642 LP  0  0  0  0  0  0  0  0  0  0  0  0  # atno 17370 bound_to 10713
  156.5750  130.4289  149.6002 LP  0  0  0  0  0  0  0  0  0  0  0  0  # atno 17371 bound_to 10713
  139.9458  134.7705  156.0566 LP  0  0  0  0  0  0  0  0  0  0  0  0  # atno 17394 bound_to 11000
  141.1175  133.6623  156.3130 LP  0  0  0  0  0  0  0  0  0  0  0  0  # atno 17395 bound_to 11000

$$$$
