AV-unprocessed.smi:2625|AV-procd|sdf|10235|dock2
  -GOLD-   2272014243D 1   1.00000     0.00000
 Structure written by MMmdl.
 24 24  0  0  0  0  0  0  0  0  1 V2000
  150.8861  142.7243  157.8897 C   0  0  0  0  0  0  0  0  0  0  0  0
  151.2758  141.4281  157.4726 O   0  0  0  0  0  0  0  0  0  0  0  0
  150.2620  140.7642  156.7364 C   0  0  0  0  0  0  0  0  0  0  0  0
  149.9355  141.5567  155.4599 C   0  0  0  0  0  0  0  0  0  0  0  0
  149.0246  140.8576  154.5755 N   0  0  0  0  0  0  0  0  0  0  0  0
  147.7746  141.3612  154.2064 C   0  0  0  0  0  0  0  0  0  0  0  0
  147.3673  142.5882  154.7001 N   0  0  0  0  0  0  0  0  0  0  0  0
  146.9533  140.6817  153.3664 C   0  0  0  0  0  0  0  0  0  0  0  0
  147.3384  139.3929  152.8027 C   0  0  0  0  0  0  0  0  0  0  0  0
  146.6492  138.7175  152.0416 O   0  0  0  0  0  0  0  0  0  0  0  0
  148.6004  138.9449  153.1923 N   0  0  0  0  0  0  0  0  0  0  0  0
  149.4695  139.6191  154.0478 C   0  0  0  0  0  0  0  0  0  0  0  0
  150.5674  139.1237  154.3042 O   0  0  0  0  0  0  0  0  0  0  0  0
  148.9130  138.0605  152.8189 H   0  0  0  0  0  0  0  0  0  0  0  0
  151.6971  143.1867  158.4524 H   0  0  0  0  0  0  0  0  0  0  0  0
  150.0083  142.6838  158.5359 H   0  0  0  0  0  0  0  0  0  0  0  0
  150.6636  143.3630  157.0341 H   0  0  0  0  0  0  0  0  0  0  0  0
  150.6101  139.7676  156.4620 H   0  0  0  0  0  0  0  0  0  0  0  0
  149.3664  140.6376  157.3469 H   0  0  0  0  0  0  0  0  0  0  0  0
  149.5303  142.5458  155.6788 H   0  0  0  0  0  0  0  0  0  0  0  0
  150.8375  141.7432  154.8772 H   0  0  0  0  0  0  0  0  0  0  0  0
  147.9486  143.1325  155.3215 H   0  0  0  0  0  0  0  0  0  0  0  0
  146.4698  142.9861  154.4639 H   0  0  0  0  0  0  0  0  0  0  0  0
  145.9906  141.0947  153.0984 H   0  0  0  0  0  0  0  0  0  0  0  0
  1  2  1  0  0  0  0
  1 15  1  0  0  0  0
  1 16  1  0  0  0  0
  1 17  1  0  0  0  0
  2  3  1  0  0  0  0
  3  4  1  0  0  0  0
  3 18  1  0  0  0  0
  3 19  1  0  0  0  0
  4  5  1  0  0  0  0
  4 20  1  0  0  0  0
  4 21  1  0  0  0  0
  5 12  1  0  0  0  0
  5  6  1  0  0  0  0
  6  7  1  0  0  0  0
  6  8  2  0  0  0  0
  7 22  1  0  0  0  0
  7 23  1  0  0  0  0
  8  9  1  0  0  0  0
  8 24  1  0  0  0  0
  9 10  2  0  0  0  0
  9 11  1  0  0  0  0
 11 14  1  0  0  0  0
 11 12  1  0  0  0  0
 12 13  2  0  0  0  0
M  END
> <s_m_source_file>
AV-unprocessed.smi

> <i_m_source_file_index>
2625

> <i_lp_mmshare_version>
43012

> <i_f3d_flags>
0

> <s_epik_input>
W0NIM11PW0NIMl1bQ0gyXW4xYyhbTkgyXSlbY0hdYyg9TylbbkhdYzE9Tw==

> <s_epik_cmdline>
J2VwaWtfcHl0aG9uJywgJy1waCcsICc3LjAnLCAnLXRuJywgJzgnLCAnLW1hJywgJzIwMCcsICctbWV0YWxfYmluZGluZycsICctaW1hZScsICc8aW5maWxlLm1hZT4nLCAnLW9tYWUnLCAnPG91dGZpbGUubWFlPic=

> <r_lp_tautomer_probability>
1

> <r_epik_Ionization_Penalty>
6.81436e-06

> <r_epik_Ionization_Penalty_Charging>
1.95411e-06

> <r_epik_Ionization_Penalty_Neutral>
4.86025e-06

> <r_epik_State_Penalty>
-0

> <r_epik_Charging_Adjusted_Penalty>
1.95411e-06

> <i_epik_Tot_Q>
0

> <i_epik_Tot_abs_Q>
0

> <r_epik_Metal_State_Penalty>
-0

> <b_epik_Metal_Only>
0

> <s_epik_Chemistry_Notes>
This compound has an imine and may undergo hydrolysis.

> <s_lp_Force_Field>
OPLS_2005

> <r_lp_Energy>
12.62

> <b_lp_Chiralities_Consistent>
1

> <s_lp_Variant>
AV-unprocessed.smi:2625-1

> <Gold.Version>
5.8.1

> <Gold.Id.Protein>
6NUR|6NUR_protein|mol2

> <Gold.PLP.Fitness>
30.9203

> <Gold.PLP.PLP>
-22.4739

> <Gold.PLP.part.hbond>
-3.8803

> <Gold.PLP.part.metal>
0.0000

> <Gold.PLP.part.buried>
1.0390

> <Gold.PLP.part.nonpolar>
-19.9646

> <Gold.PLP.part.repulsive>
0.7737

> <Gold.PLP.ligand.clash>
0.0000

> <Gold.PLP.ligand.torsion>
0.0153

> <Gold.PLP.Chemscore.Hbond>
2.8250

> <Gold.PLP.Chemscore.CHOScore>
0.0000

> <Gold.PLP.Chemscore.Metal>
0.0000

> <Gold.Chemscore.Hbonds>
donor molecule, donor type, donor heavy atom, donor atom, acceptor molecule, acceptor atom, score
      L1  H     7    22       P1  8028  0.94
      L1  H    11    14       P1  7948  0.99
      P1  H  7989  7998       L1    13  0.36

> <Gold.PLP.Chemscore.Internal.Correction>
0.0021

> <Gold.Rescore>
     Score         DG    S(hbond)    S(metal)    S(lipo)     H(rot)  DE(clash)    DE(int)     intcor
      9.08     -10.40       1.90        0.00      28.05       1.84       0.04       1.28       ----

> <Gold.Chemscore.Fitness>
9.0811

> <Gold.Chemscore.DG>
-10.4041

> <Gold.Chemscore.ZeroCoef>
-5.4800

> <Gold.Chemscore.Hbond>
1.9041

> <Gold.Chemscore.Metal>
0.0000

> <Gold.Chemscore.Lipo>
28.0529

> <Gold.Chemscore.Internal_Hbond>
0.0000

> <Gold.Chemscore.DEClash>
0.0416

> <Gold.Chemscore.DEInternal>
1.2814

> <Gold.Chemscore.Rot>
1.8428

> <Gold.Chemscore.Internal.Correction>
   9.000000E+99

> <Gold.Chemscore.Hbonds>
donor molecule, donor type, donor heavy atom, donor atom, acceptor molecule, acceptor atom, score
      L1  H     7    22       P1  8028  0.68
      L1  H    11    14       P1  7948  0.92
      P1  H  7989  7998       L1    13  0.03

> <Gold.Chemscore.Hbond.Weighted>
-6.3595

> <Gold.Chemscore.Metal.Weighted>
-0.0000

> <Gold.Chemscore.Lipo.Weighted>
-3.2822

> <Gold.Chemscore.Internal_Hbond.Weighted>
0.0000

> <Gold.Chemscore.DEClash.Weighted>
0.0416

> <Gold.Chemscore.DEInternal.Weighted>
1.2814

> <Gold.Chemscore.Rot.Weighted>
4.7177

> <Gold.Chemscore.Internal.Correction.Weighted>
   9.000000E+99

> <Gold.Protein.RotatedTorsions>
[ 6907 6896 6895 6894 ] final  -53.48 input  -60.11 | X-H torsion
[ 7974 7965 7964 7962 ] final   -1.00 input  175.53 | X-H torsion
[ 8008 7997 7996 7995 ] final -119.09 input   59.86 | X-H torsion
[ 10167 10162 10161 10158 ] final  -59.29 input  -65.29 | X-H torsion
[ 10718 10713 10712 10709 ] final   16.36 input   66.30 | X-H torsion
[ 10763 10752 10751 10750 ] final   79.68 input  -60.55 | X-H torsion
[ 11005 11000 10999 10996 ] final  -58.59 input  -57.11 | X-H torsion

> <Gold.Protein.ActiveResidues>
 VAL166  LYS551  ARG553  GLY616  TRP617  ASP618  TYR619  PRO620  LYS621  CYS622 
 ASP623  PHE694  ASN695  SER759  ASP760  ASP761  ALA762  ILE779  LEU786  VAL792 
 PHE793  MET794  SER795  GLU796  ALA797  LYS798  CYS799  TRP800  GLU811  SER814 

> <Gold.Protein.RotatedAtoms>
  150.8423  134.7720  159.6942 H   0  0  0  0  0  0  0  0  0  0  0  0  # atno 6907 bound_to 6896
  152.4508  134.5395  159.9844 H   0  0  0  0  0  0  0  0  0  0  0  0  # atno 6908 bound_to 6896
  151.5532  133.3376  159.2993 H   0  0  0  0  0  0  0  0  0  0  0  0  # atno 6909 bound_to 6896
  146.2422  140.1355  142.8337 H   0  0  0  0  0  0  0  0  0  0  0  0  # atno 7974 bound_to 7965
  155.1102  140.0397  157.2722 H   0  0  0  0  0  0  0  0  0  0  0  0  # atno 8008 bound_to 7997
  154.6691  140.2608  155.7000 H   0  0  0  0  0  0  0  0  0  0  0  0  # atno 8009 bound_to 7997
  156.2651  140.2801  156.1193 H   0  0  0  0  0  0  0  0  0  0  0  0  # atno 8010 bound_to 7997
  140.6144  143.2397  151.5632 H   0  0  0  0  0  0  0  0  0  0  0  0  # atno 10167 bound_to 10162
  157.0668  130.6331  149.5797 H   0  0  0  0  0  0  0  0  0  0  0  0  # atno 10718 bound_to 10713
  153.0972  135.4831  154.8800 H   0  0  0  0  0  0  0  0  0  0  0  0  # atno 10763 bound_to 10752
  154.7338  135.3066  154.8849 H   0  0  0  0  0  0  0  0  0  0  0  0  # atno 10764 bound_to 10752
  153.9477  135.6827  153.4797 H   0  0  0  0  0  0  0  0  0  0  0  0  # atno 10765 bound_to 10752
  141.1213  133.6613  156.4943 H   0  0  0  0  0  0  0  0  0  0  0  0  # atno 11005 bound_to 11000
  145.0291  140.8856  143.5121 LP  0  0  0  0  0  0  0  0  0  0  0  0  # atno 17320 bound_to 7965
  145.1416  139.2569  143.5487 LP  0  0  0  0  0  0  0  0  0  0  0  0  # atno 17321 bound_to 7965
  139.5387  144.2709  152.1305 LP  0  0  0  0  0  0  0  0  0  0  0  0  # atno 17342 bound_to 10162
  140.1915  144.4747  150.6476 LP  0  0  0  0  0  0  0  0  0  0  0  0  # atno 17343 bound_to 10162
  155.9962  130.5031  150.7488 LP  0  0  0  0  0  0  0  0  0  0  0  0  # atno 17370 bound_to 10713
  157.4910  131.0911  151.0426 LP  0  0  0  0  0  0  0  0  0  0  0  0  # atno 17371 bound_to 10713
  140.4497  134.6939  157.5033 LP  0  0  0  0  0  0  0  0  0  0  0  0  # atno 17394 bound_to 11000
  140.0173  134.6599  155.9290 LP  0  0  0  0  0  0  0  0  0  0  0  0  # atno 17395 bound_to 11000

$$$$
