AV-unprocessed.smi:1099|AV-procd|sdf|4756|dock3
  -GOLD-   22720 3293D 1   1.00000     0.00000
 Structure written by MMmdl.
 41 43  0  0  0  0  0  0  0  0  1 V2000
  151.5873  144.8935  158.6117 C   0  0  0  0  0  0  0  0  0  0  0  0
  152.2789  143.5273  158.6634 C   0  0  0  0  0  0  0  0  0  0  0  0
  152.7128  143.1562  160.0421 C   0  0  0  0  0  0  0  0  0  0  0  0
  153.5058  142.1153  160.3101 N   0  0  0  0  0  0  0  0  0  0  0  0
  153.7933  141.9942  161.6734 C   0  0  0  0  0  0  0  0  0  0  0  0
  154.6554  140.8695  162.1600 C   0  0  0  0  0  0  0  0  0  0  0  0
  154.7785  139.7428  161.1206 C   0  0  0  0  0  0  0  0  0  0  0  0
  154.3738  138.4545  161.6706 N   0  0  0  0  0  0  0  0  0  0  0  0
  154.8668  137.9065  162.7919 C   0  0  0  0  0  0  0  0  0  0  0  0
  155.7407  138.4455  163.4723 O   0  0  0  0  0  0  0  0  0  0  0  0
  154.2954  136.5312  163.1794 C   0  0  1  0  0  0  0  0  0  0  0  0
  154.7062  135.3707  162.2392 C   0  0  0  0  0  0  0  0  0  0  0  0
  155.2845  134.3258  163.2120 C   0  0  1  0  0  0  0  0  0  0  0  0
  156.6575  134.8016  163.7229 C   0  0  0  0  0  0  0  0  0  0  0  0
  156.2822  135.9231  164.7089 C   0  0  0  0  0  0  0  0  0  0  0  0
  154.7459  136.0007  164.5667 C   0  0  2  0  0  0  0  0  0  0  0  0
  154.4024  134.5193  164.4402 C   0  0  0  0  0  0  0  0  0  0  0  0
  153.2130  142.9751  162.4384 C   0  0  0  0  0  0  0  0  0  0  0  0
  152.2854  144.0890  161.4723 S   0  0  0  0  0  0  0  0  0  0  0  0
  151.2781  145.1341  157.5944 H   0  0  0  0  0  0  0  0  0  0  0  0
  152.2542  145.6853  158.9540 H   0  0  0  0  0  0  0  0  0  0  0  0
  150.6981  144.9079  159.2425 H   0  0  0  0  0  0  0  0  0  0  0  0
  151.6052  142.7554  158.2902 H   0  0  0  0  0  0  0  0  0  0  0  0
  153.1496  143.5259  158.0066 H   0  0  0  0  0  0  0  0  0  0  0  0
  155.6487  141.2452  162.4094 H   0  0  0  0  0  0  0  0  0  0  0  0
  154.2472  140.4698  163.0891 H   0  0  0  0  0  0  0  0  0  0  0  0
  154.1843  139.9737  160.2348 H   0  0  0  0  0  0  0  0  0  0  0  0
  155.8127  139.6564  160.7857 H   0  0  0  0  0  0  0  0  0  0  0  0
  153.6630  137.9451  161.1655 H   0  0  0  0  0  0  0  0  0  0  0  0
  153.2060  136.6025  163.1735 H   0  0  0  0  0  0  0  0  0  0  0  0
  153.8276  134.9717  161.7305 H   0  0  0  0  0  0  0  0  0  0  0  0
  155.4254  135.6476  161.4669 H   0  0  0  0  0  0  0  0  0  0  0  0
  155.2967  133.3136  162.8067 H   0  0  0  0  0  0  0  0  0  0  0  0
  157.1846  133.9979  164.2383 H   0  0  0  0  0  0  0  0  0  0  0  0
  157.2963  135.1573  162.9137 H   0  0  0  0  0  0  0  0  0  0  0  0
  156.5508  135.6323  165.7256 H   0  0  0  0  0  0  0  0  0  0  0  0
  156.7958  136.8613  164.5031 H   0  0  0  0  0  0  0  0  0  0  0  0
  154.2560  136.5025  165.4018 H   0  0  0  0  0  0  0  0  0  0  0  0
  153.3442  134.3326  164.2484 H   0  0  0  0  0  0  0  0  0  0  0  0
  154.7189  133.9242  165.2989 H   0  0  0  0  0  0  0  0  0  0  0  0
  153.2761  143.1097  163.5082 H   0  0  0  0  0  0  0  0  0  0  0  0
  1  2  1  0  0  0  0
  1 20  1  0  0  0  0
  1 21  1  0  0  0  0
  1 22  1  0  0  0  0
  2  3  1  0  0  0  0
  2 23  1  0  0  0  0
  2 24  1  0  0  0  0
  3 19  1  0  0  0  0
  3  4  2  0  0  0  0
  4  5  1  0  0  0  0
  5  6  1  0  0  0  0
  5 18  2  0  0  0  0
  6  7  1  0  0  0  0
  6 25  1  0  0  0  0
  6 26  1  0  0  0  0
  7  8  1  0  0  0  0
  7 27  1  0  0  0  0
  7 28  1  0  0  0  0
  8  9  1  0  0  0  0
  8 29  1  0  0  0  0
  9 10  2  0  0  0  0
  9 11  1  0  0  0  0
 11 16  1  0  0  0  0
 11 12  1  0  0  0  0
 11 30  1  0  0  0  0
 12 13  1  0  0  0  0
 12 31  1  0  0  0  0
 12 32  1  0  0  0  0
 13 17  1  0  0  0  0
 13 14  1  0  0  0  0
 13 33  1  0  0  0  0
 14 15  1  0  0  0  0
 14 34  1  0  0  0  0
 14 35  1  0  0  0  0
 15 16  1  0  0  0  0
 15 36  1  0  0  0  0
 15 37  1  0  0  0  0
 16 17  1  0  0  0  0
 16 38  1  0  0  0  0
 17 39  1  0  0  0  0
 17 40  1  0  0  0  0
 18 19  1  0  0  0  0
 18 41  1  0  0  0  0
M  END
> <s_m_source_file>
AV-unprocessed.smi

> <i_m_source_file_index>
1099

> <i_lp_mmshare_version>
43012

> <i_f3d_flags>
0

> <s_epik_input>
W0NIM11bQ0gyXWMxbmMoW2NIXXMxKVtDSDJdW0NIMl1bTkhdQyg9TylbQ0BIXShbQ0gyXVtDQEBIXTIzKVtDQEBIXShbQ0gyXTMpW0NIMl1bQ0gyXTI=

> <s_epik_cmdline>
J2VwaWtfcHl0aG9uJywgJy1waCcsICc3LjAnLCAnLXRuJywgJzgnLCAnLW1hJywgJzIwMCcsICctbWV0YWxfYmluZGluZycsICctaW1hZScsICc8aW5maWxlLm1hZT4nLCAnLW9tYWUnLCAnPG91dGZpbGUubWFlPic=

> <r_epik_Ionization_Penalty>
0.00110131

> <r_epik_Ionization_Penalty_Charging>
0

> <r_epik_Ionization_Penalty_Neutral>
0.00110131

> <r_epik_State_Penalty>
0.00072257

> <r_epik_Charging_Adjusted_Penalty>
0.00072257

> <i_epik_Tot_Q>
0

> <i_epik_Tot_abs_Q>
0

> <r_epik_Metal_State_Penalty>
-0

> <b_epik_Metal_Only>
0

> <s_lp_Force_Field>
OPLS_2005

> <r_lp_Energy>
38.0082

> <b_lp_Chiralities_Consistent>
1

> <s_lp_Variant>
AV-unprocessed.smi:1099-2

> <Gold.Version>
5.8.1

> <Gold.Id.Protein>
6NUR|6NUR_protein|mol2

> <Gold.PLP.Fitness>
42.9666

> <Gold.PLP.PLP>
-44.6393

> <Gold.PLP.part.hbond>
0.0000

> <Gold.PLP.part.metal>
0.0000

> <Gold.PLP.part.buried>
-3.7922

> <Gold.PLP.part.nonpolar>
-39.1156

> <Gold.PLP.part.repulsive>
0.0004

> <Gold.PLP.ligand.clash>
0.0000

> <Gold.PLP.ligand.torsion>
0.8472

> <Gold.PLP.Chemscore.Hbond>
0.0000

> <Gold.PLP.Chemscore.CHOScore>
0.0000

> <Gold.PLP.Chemscore.Metal>
0.0000

> <Gold.PLP.Chemscore.Internal.Correction>
0.0217

> <Gold.Rescore>
     Score         DG    S(hbond)    S(metal)    S(lipo)     H(rot)  DE(clash)    DE(int)     intcor
     15.09     -18.07       0.00        0.00     138.64       1.42       0.03       2.96       ----

> <Gold.Chemscore.Fitness>
15.0877

> <Gold.Chemscore.DG>
-18.0742

> <Gold.Chemscore.ZeroCoef>
-5.4800

> <Gold.Chemscore.Hbond>
0.0000

> <Gold.Chemscore.Metal>
0.0000

> <Gold.Chemscore.Lipo>
138.6357

> <Gold.Chemscore.Internal_Hbond>
0.0000

> <Gold.Chemscore.DEClash>
0.0263

> <Gold.Chemscore.DEInternal>
2.9601

> <Gold.Chemscore.Rot>
1.4165

> <Gold.Chemscore.Internal.Correction>
   9.000000E+99

> <Gold.Chemscore.Hbond.Weighted>
-0.0000

> <Gold.Chemscore.Metal.Weighted>
-0.0000

> <Gold.Chemscore.Lipo.Weighted>
-16.2204

> <Gold.Chemscore.Internal_Hbond.Weighted>
0.0000

> <Gold.Chemscore.DEClash.Weighted>
0.0263

> <Gold.Chemscore.DEInternal.Weighted>
2.9601

> <Gold.Chemscore.Rot.Weighted>
3.6262

> <Gold.Chemscore.Internal.Correction.Weighted>
   9.000000E+99

> <Gold.Protein.RotatedTorsions>
[ 6907 6896 6895 6894 ] final  169.33 input  -60.11 | X-H torsion
[ 7974 7965 7964 7962 ] final   -4.04 input  175.53 | X-H torsion
[ 8008 7997 7996 7995 ] final  154.45 input   59.86 | X-H torsion
[ 10167 10162 10161 10158 ] final   -3.80 input  -65.29 | X-H torsion
[ 10718 10713 10712 10709 ] final  143.96 input   66.30 | X-H torsion
[ 10763 10752 10751 10750 ] final  140.24 input  -60.55 | X-H torsion
[ 11005 11000 10999 10996 ] final  135.98 input  -57.11 | X-H torsion

> <Gold.Protein.ActiveResidues>
 VAL166  LYS551  ARG553  GLY616  TRP617  ASP618  TYR619  PRO620  LYS621  CYS622 
 ASP623  PHE694  ASN695  SER759  ASP760  ASP761  ALA762  ILE779  LEU786  VAL792 
 PHE793  MET794  SER795  GLU796  ALA797  LYS798  CYS799  TRP800  GLU811  SER814 

> <Gold.Protein.RotatedAtoms>
  151.8336  133.3412  159.3620 H   0  0  0  0  0  0  0  0  0  0  0  0  # atno 6907 bound_to 6896
  150.7256  134.5459  159.5780 H   0  0  0  0  0  0  0  0  0  0  0  0  # atno 6908 bound_to 6896
  152.2917  134.7714  160.0427 H   0  0  0  0  0  0  0  0  0  0  0  0  # atno 6909 bound_to 6896
  146.2379  140.1811  142.8332 H   0  0  0  0  0  0  0  0  0  0  0  0  # atno 7974 bound_to 7965
  156.2530  140.1966  156.6648 H   0  0  0  0  0  0  0  0  0  0  0  0  # atno 8008 bound_to 7997
  154.6437  140.0580  156.9901 H   0  0  0  0  0  0  0  0  0  0  0  0  # atno 8009 bound_to 7997
  155.1523  140.3252  155.4431 H   0  0  0  0  0  0  0  0  0  0  0  0  # atno 8010 bound_to 7997
  140.6904  143.6498  150.8360 H   0  0  0  0  0  0  0  0  0  0  0  0  # atno 10167 bound_to 10162
  157.3628  131.0967  151.0899 H   0  0  0  0  0  0  0  0  0  0  0  0  # atno 10718 bound_to 10713
  153.9194  135.3002  155.3448 H   0  0  0  0  0  0  0  0  0  0  0  0  # atno 10763 bound_to 10752
  154.7583  135.4947  153.9419 H   0  0  0  0  0  0  0  0  0  0  0  0  # atno 10764 bound_to 10752
  153.1150  135.6768  153.9537 H   0  0  0  0  0  0  0  0  0  0  0  0  # atno 10765 bound_to 10752
  140.0016  134.9476  157.0084 H   0  0  0  0  0  0  0  0  0  0  0  0  # atno 11005 bound_to 11000
  144.9934  140.8567  143.5326 LP  0  0  0  0  0  0  0  0  0  0  0  0  # atno 17320 bound_to 7965
  145.1820  139.2347  143.5287 LP  0  0  0  0  0  0  0  0  0  0  0  0  # atno 17321 bound_to 7965
  140.0210  143.5543  152.2800 LP  0  0  0  0  0  0  0  0  0  0  0  0  # atno 17342 bound_to 10162
  139.6301  144.7643  151.2555 LP  0  0  0  0  0  0  0  0  0  0  0  0  # atno 17343 bound_to 10162
  157.2033  130.6404  149.5746 LP  0  0  0  0  0  0  0  0  0  0  0  0  # atno 17370 bound_to 10713
  155.9740  130.4684  150.6358 LP  0  0  0  0  0  0  0  0  0  0  0  0  # atno 17371 bound_to 10713
  140.4718  134.1379  155.7204 LP  0  0  0  0  0  0  0  0  0  0  0  0  # atno 17394 bound_to 11000
  141.1646  133.8728  157.1752 LP  0  0  0  0  0  0  0  0  0  0  0  0  # atno 17395 bound_to 11000

$$$$
