AV-unprocessed.smi:355|AV-procd|sdf|2407|dock7
  -GOLD-   2262022343D 1   1.00000     0.00000
 Structure written by MMmdl.
 39 40  0  0  0  0  0  0  0  0  1 V2000
  152.6629  143.8268  158.2782 C   0  0  0  0  0  0  0  0  0  0  0  0
  152.8193  143.4493  159.7369 C   0  0  0  0  0  0  0  0  0  0  0  0
  152.2267  144.2413  160.7404 C   0  0  0  0  0  0  0  0  0  0  0  0
  152.3746  143.8871  162.0940 C   0  0  0  0  0  0  0  0  0  0  0  0
  153.1154  142.7430  162.4458 C   0  0  0  0  0  0  0  0  0  0  0  0
  153.7184  141.9417  161.4550 C   0  0  0  0  0  0  0  0  0  0  0  0
  154.4255  140.8413  161.8887 O   0  0  0  0  0  0  0  0  0  0  0  0
  154.5353  139.7225  161.0201 C   0  0  0  0  0  0  0  0  0  0  0  0
  155.5494  138.7082  161.5859 C   0  0  0  0  0  0  0  0  0  0  0  0
  155.7032  138.8216  163.0567 N   0  0  0  0  0  0  0  0  0  0  0  0
  155.1267  137.8320  163.9152 C   0  0  0  0  0  0  0  0  0  0  0  0
  154.2877  136.6969  163.3089 C   0  0  0  0  0  0  0  0  0  0  0  0
  153.7764  135.9141  164.2601 F   0  0  0  0  0  0  0  0  0  0  0  0
  153.2570  137.1863  162.6188 F   0  0  0  0  0  0  0  0  0  0  0  0
  155.0100  135.9066  162.5160 F   0  0  0  0  0  0  0  0  0  0  0  0
  155.3161  137.9087  165.2454 C   0  0  0  0  0  0  0  0  0  0  0  0
  156.0871  138.9833  165.8057 C   0  0  0  0  0  0  0  0  0  0  0  0
  156.6135  139.9427  165.0114 C   0  0  0  0  0  0  0  0  0  0  0  0
  157.4136  141.0702  165.5431 C   0  0  0  0  0  0  0  0  0  0  0  0
  157.6548  141.0014  166.8583 N   0  0  0  0  0  0  0  0  0  0  0  0
  157.8580  142.0278  164.9101 O   0  0  0  0  0  0  0  0  0  0  0  0
  156.4122  139.8988  163.5398 C   0  0  0  0  0  0  0  0  0  0  0  0
  156.8428  140.7577  162.7646 O   0  0  0  0  0  0  0  0  0  0  0  0
  153.5639  142.3055  160.0931 C   0  0  0  0  0  0  0  0  0  0  0  0
  151.7708  144.4348  158.1239 H   0  0  0  0  0  0  0  0  0  0  0  0
  152.5749  142.9357  157.6558 H   0  0  0  0  0  0  0  0  0  0  0  0
  153.5293  144.3968  157.9423 H   0  0  0  0  0  0  0  0  0  0  0  0
  151.6580  145.1209  160.4762 H   0  0  0  0  0  0  0  0  0  0  0  0
  151.9203  144.4930  162.8639 H   0  0  0  0  0  0  0  0  0  0  0  0
  153.2244  142.4783  163.4874 H   0  0  0  0  0  0  0  0  0  0  0  0
  153.5616  139.2372  160.9378 H   0  0  0  0  0  0  0  0  0  0  0  0
  154.8333  140.0474  160.0227 H   0  0  0  0  0  0  0  0  0  0  0  0
  155.2589  137.6994  161.2874 H   0  0  0  0  0  0  0  0  0  0  0  0
  156.4959  138.8345  161.0701 H   0  0  0  0  0  0  0  0  0  0  0  0
  154.8866  137.1765  165.9130 H   0  0  0  0  0  0  0  0  0  0  0  0
  156.2212  138.9864  166.8773 H   0  0  0  0  0  0  0  0  0  0  0  0
  158.1943  141.7238  167.3121 H   0  0  0  0  0  0  0  0  0  0  0  0
  157.2960  140.2226  167.3916 H   0  0  0  0  0  0  0  0  0  0  0  0
  154.0076  141.7191  159.3029 H   0  0  0  0  0  0  0  0  0  0  0  0
  1  2  1  0  0  0  0
  1 25  1  0  0  0  0
  1 26  1  0  0  0  0
  1 27  1  0  0  0  0
  2 24  1  0  0  0  0
  2  3  2  0  0  0  0
  3  4  1  0  0  0  0
  3 28  1  0  0  0  0
  4  5  2  0  0  0  0
  4 29  1  0  0  0  0
  5  6  1  0  0  0  0
  5 30  1  0  0  0  0
  6  7  1  0  0  0  0
  6 24  2  0  0  0  0
  7  8  1  0  0  0  0
  8  9  1  0  0  0  0
  8 31  1  0  0  0  0
  8 32  1  0  0  0  0
  9 10  1  0  0  0  0
  9 33  1  0  0  0  0
  9 34  1  0  0  0  0
 10 22  1  0  0  0  0
 10 11  1  0  0  0  0
 11 12  1  0  0  0  0
 11 16  2  0  0  0  0
 12 13  1  0  0  0  0
 12 14  1  0  0  0  0
 12 15  1  0  0  0  0
 16 17  1  0  0  0  0
 16 35  1  0  0  0  0
 17 18  2  0  0  0  0
 17 36  1  0  0  0  0
 18 19  1  0  0  0  0
 18 22  1  0  0  0  0
 19 20  1  0  0  0  0
 19 21  2  0  0  0  0
 20 37  1  0  0  0  0
 20 38  1  0  0  0  0
 22 23  2  0  0  0  0
 24 39  1  0  0  0  0
M  END
> <s_m_source_file>
AV-unprocessed.smi

> <i_m_source_file_index>
355

> <i_lp_mmshare_version>
43012

> <i_f3d_flags>
0

> <s_epik_input>
W0NIM11jMVtjSF1bY0hdW2NIXWMoW2NIXTEpT1tDSDJdW0NIMl1uMmMoQyhGKShGKUYpW2NIXVtjSF1jKGMyPU8pQyg9TylbTkgyXQ==

> <s_epik_cmdline>
J2VwaWtfcHl0aG9uJywgJy1waCcsICc3LjAnLCAnLXRuJywgJzgnLCAnLW1hJywgJzIwMCcsICctbWV0YWxfYmluZGluZycsICctaW1hZScsICc8aW5maWxlLm1hZT4nLCAnLW9tYWUnLCAnPG91dGZpbGUubWFlPic=

> <r_lp_tautomer_probability>
1

> <r_epik_Ionization_Penalty>
1.75992e-06

> <r_epik_Ionization_Penalty_Charging>
1.13667e-09

> <r_epik_Ionization_Penalty_Neutral>
1.75878e-06

> <r_epik_State_Penalty>
-0

> <r_epik_Charging_Adjusted_Penalty>
1.13667e-09

> <i_epik_Tot_Q>
0

> <i_epik_Tot_abs_Q>
0

> <r_epik_Metal_State_Penalty>
-0

> <b_epik_Metal_Only>
0

> <s_lp_Force_Field>
OPLS_2005

> <r_lp_Energy>
35.0119

> <b_lp_Chiralities_Consistent>
1

> <s_lp_Variant>
AV-unprocessed.smi:355-1

> <Gold.Version>
5.8.1

> <Gold.Id.Protein>
6NUR|6NUR_protein|mol2

> <Gold.PLP.Fitness>
50.6765

> <Gold.PLP.PLP>
-52.3551

> <Gold.PLP.part.hbond>
-1.3945

> <Gold.PLP.part.metal>
0.0000

> <Gold.PLP.part.buried>
-4.9942

> <Gold.PLP.part.nonpolar>
-45.9237

> <Gold.PLP.part.repulsive>
0.0000

> <Gold.PLP.ligand.clash>
3.6187

> <Gold.PLP.ligand.torsion>
0.8432

> <Gold.PLP.Chemscore.Hbond>
0.0000

> <Gold.PLP.Chemscore.CHOScore>
0.0000

> <Gold.PLP.Chemscore.Metal>
0.0000

> <Gold.PLP.Chemscore.Internal.Correction>
3.6265

> <Gold.Rescore>
     Score         DG    S(hbond)    S(metal)    S(lipo)     H(rot)  DE(clash)    DE(int)     intcor
      6.21     -15.49       0.00        0.00     125.84       1.84       1.86       7.42       ----

> <Gold.Chemscore.Fitness>
6.2095

> <Gold.Chemscore.DG>
-15.4895

> <Gold.Chemscore.ZeroCoef>
-5.4800

> <Gold.Chemscore.Hbond>
0.0000

> <Gold.Chemscore.Metal>
0.0000

> <Gold.Chemscore.Lipo>
125.8368

> <Gold.Chemscore.Internal_Hbond>
0.0000

> <Gold.Chemscore.DEClash>
1.8598

> <Gold.Chemscore.DEInternal>
7.4202

> <Gold.Chemscore.Rot>
1.8412

> <Gold.Chemscore.Internal.Correction>
   9.000000E+99

> <Gold.Chemscore.Hbond.Weighted>
-0.0000

> <Gold.Chemscore.Metal.Weighted>
-0.0000

> <Gold.Chemscore.Lipo.Weighted>
-14.7229

> <Gold.Chemscore.Internal_Hbond.Weighted>
0.0000

> <Gold.Chemscore.DEClash.Weighted>
1.8598

> <Gold.Chemscore.DEInternal.Weighted>
7.4202

> <Gold.Chemscore.Rot.Weighted>
4.7134

> <Gold.Chemscore.Internal.Correction.Weighted>
   9.000000E+99

> <Gold.Protein.RotatedTorsions>
[ 6907 6896 6895 6894 ] final -132.06 input  -60.11 | X-H torsion
[ 7974 7965 7964 7962 ] final -117.82 input  175.53 | X-H torsion
[ 8008 7997 7996 7995 ] final  -23.16 input   59.86 | X-H torsion
[ 10167 10162 10161 10158 ] final -174.20 input  -65.29 | X-H torsion
[ 10718 10713 10712 10709 ] final  -84.98 input   66.30 | X-H torsion
[ 10763 10752 10751 10750 ] final -152.01 input  -60.55 | X-H torsion
[ 11005 11000 10999 10996 ] final -119.94 input  -57.11 | X-H torsion

> <Gold.Protein.ActiveResidues>
 VAL166  LYS551  ARG553  GLY616  TRP617  ASP618  TYR619  PRO620  LYS621  CYS622 
 ASP623  PHE694  ASN695  SER759  ASP760  ASP761  ALA762  ILE779  LEU786  VAL792 
 PHE793  MET794  SER795  GLU796  ALA797  LYS798  CYS799  TRP800  GLU811  SER814 

> <Gold.Protein.RotatedAtoms>
  150.9580  133.6476  159.2759 H   0  0  0  0  0  0  0  0  0  0  0  0  # atno 6907 bound_to 6896
  151.3808  135.0938  159.9505 H   0  0  0  0  0  0  0  0  0  0  0  0  # atno 6908 bound_to 6896
  152.5137  133.9115  159.7545 H   0  0  0  0  0  0  0  0  0  0  0  0  # atno 6909 bound_to 6896
  145.0809  140.8424  143.4040 H   0  0  0  0  0  0  0  0  0  0  0  0  # atno 7974 bound_to 7965
  154.4601  140.1988  156.0268 H   0  0  0  0  0  0  0  0  0  0  0  0  # atno 8008 bound_to 7997
  156.0824  140.3270  155.7682 H   0  0  0  0  0  0  0  0  0  0  0  0  # atno 8009 bound_to 7997
  155.5090  140.0560  157.2917 H   0  0  0  0  0  0  0  0  0  0  0  0  # atno 8010 bound_to 7997
  139.5647  144.1785  152.1294 H   0  0  0  0  0  0  0  0  0  0  0  0  # atno 10167 bound_to 10162
  156.0001  130.4716  150.4493 H   0  0  0  0  0  0  0  0  0  0  0  0  # atno 10718 bound_to 10713
  154.8021  135.3246  154.7523 H   0  0  0  0  0  0  0  0  0  0  0  0  # atno 10763 bound_to 10752
  153.8189  135.6889  153.4834 H   0  0  0  0  0  0  0  0  0  0  0  0  # atno 10764 bound_to 10752
  153.1744  135.4610  154.9890 H   0  0  0  0  0  0  0  0  0  0  0  0  # atno 10765 bound_to 10752
  141.0179  134.0167  157.3323 H   0  0  0  0  0  0  0  0  0  0  0  0  # atno 11005 bound_to 11000
  145.1180  139.2712  143.5603 LP  0  0  0  0  0  0  0  0  0  0  0  0  # atno 17320 bound_to 7965
  146.3531  140.0795  142.8618 LP  0  0  0  0  0  0  0  0  0  0  0  0  # atno 17321 bound_to 7965
  140.1305  144.5292  150.6805 LP  0  0  0  0  0  0  0  0  0  0  0  0  # atno 17342 bound_to 10162
  140.6929  143.2387  151.5080 LP  0  0  0  0  0  0  0  0  0  0  0  0  # atno 17343 bound_to 10162
  157.2528  131.0550  151.2369 LP  0  0  0  0  0  0  0  0  0  0  0  0  # atno 17370 bound_to 10713
  157.3512  130.7083  149.6442 LP  0  0  0  0  0  0  0  0  0  0  0  0  # atno 17371 bound_to 10713
  139.9128  135.0193  156.7762 LP  0  0  0  0  0  0  0  0  0  0  0  0  # atno 17394 bound_to 11000
  140.6623  133.9634  155.7811 LP  0  0  0  0  0  0  0  0  0  0  0  0  # atno 17395 bound_to 11000

$$$$
