AV-unprocessed.smi:3327|AV-procd|sdf|12788|dock5
  -GOLD-   2272019133D 1   1.00000     0.00000
 Structure written by MMmdl.
 41 42  0  0  0  0  0  0  0  0  2 V2000
  154.1498  140.7678  160.0614 C   0  0  0  0  0  0  0  0  0  0  0  0
  153.0056  141.7600  160.3103 C   0  0  1  0  0  0  0  0  0  0  0  0
  153.3325  142.7213  161.4739 C   0  0  0  0  0  0  0  0  0  0  0  0
  152.2465  143.7986  161.6540 C   0  0  0  0  0  0  0  0  0  0  0  0
  151.9408  144.4977  160.3181 C   0  0  0  0  0  0  0  0  0  0  0  0
  151.5518  143.4801  159.3324 N   0  0  0  0  0  0  0  0  0  0  0  0
  150.3069  143.3124  158.8234 C   0  0  0  0  0  0  0  0  0  0  0  0
  149.3701  144.0575  159.1164 O   0  0  0  0  0  0  0  0  0  0  0  0
  150.0521  142.1565  157.8434 C   0  0  0  0  0  0  0  0  0  0  0  0
  150.5773  142.4359  156.4911 N   0  3  0  0  0  0  0  0  0  0  0  0
  150.1529  141.4649  155.4626 C   0  0  0  0  0  0  0  0  0  0  0  0
  148.8689  141.9181  154.7491 C   0  0  0  0  0  0  0  0  0  0  0  0
  148.1632  140.8101  154.1310 N   0  0  0  0  0  0  0  0  0  0  0  0
  147.0404  140.8483  153.3313 C   0  0  0  0  0  0  0  0  0  0  0  0
  146.7477  139.5613  152.9810 C   0  0  0  0  0  0  0  0  0  0  0  0
  147.7600  138.7964  153.6250 C   0  0  0  0  0  0  0  0  0  0  0  0
  148.6078  139.5472  154.3100 N   0  0  0  0  0  0  0  0  0  0  0  0
  152.6603  142.5619  159.0373 C   0  0  0  0  0  0  0  0  0  0  0  0
  155.0658  141.2831  159.7707 H   0  0  0  0  0  0  0  0  0  0  0  0
  153.8954  140.0671  159.2658 H   0  0  0  0  0  0  0  0  0  0  0  0
  154.3654  140.1847  160.9571 H   0  0  0  0  0  0  0  0  0  0  0  0
  152.1241  141.1809  160.5902 H   0  0  0  0  0  0  0  0  0  0  0  0
  153.4594  142.1628  162.4019 H   0  0  0  0  0  0  0  0  0  0  0  0
  154.2868  143.2123  161.2784 H   0  0  0  0  0  0  0  0  0  0  0  0
  151.3365  143.3403  162.0434 H   0  0  0  0  0  0  0  0  0  0  0  0
  152.5675  144.5302  162.3959 H   0  0  0  0  0  0  0  0  0  0  0  0
  151.1929  145.2738  160.4714 H   0  0  0  0  0  0  0  0  0  0  0  0
  152.8298  145.0195  159.9604 H   0  0  0  0  0  0  0  0  0  0  0  0
  150.5233  141.2491  158.2235 H   0  0  0  0  0  0  0  0  0  0  0  0
  148.9786  141.9773  157.7710 H   0  0  0  0  0  0  0  0  0  0  0  0
  150.2635  143.3552  156.2122 H   0  0  0  0  0  0  0  0  0  0  0  0
  150.9566  141.3539  154.7337 H   0  0  0  0  0  0  0  0  0  0  0  0
  149.9998  140.4866  155.9207 H   0  0  0  0  0  0  0  0  0  0  0  0
  148.1981  142.4286  155.4421 H   0  0  0  0  0  0  0  0  0  0  0  0
  149.1167  142.6387  153.9686 H   0  0  0  0  0  0  0  0  0  0  0  0
  146.5489  141.7771  153.0798 H   0  0  0  0  0  0  0  0  0  0  0  0
  145.9331  139.2180  152.3606 H   0  0  0  0  0  0  0  0  0  0  0  0
  147.9040  137.7260  153.6139 H   0  0  0  0  0  0  0  0  0  0  0  0
  153.5261  143.1377  158.7064 H   0  0  0  0  0  0  0  0  0  0  0  0
  152.4323  141.8787  158.2180 H   0  0  0  0  0  0  0  0  0  0  0  0
  151.5865  142.4458  156.5335 H   0  0  0  0  0  0  0  0  0  0  0  0
  1  2  1  0  0  0  0
  1 19  1  0  0  0  0
  1 20  1  0  0  0  0
  1 21  1  0  0  0  0
  2 18  1  0  0  0  0
  2  3  1  0  0  0  0
  2 22  1  0  0  0  0
  3  4  1  0  0  0  0
  3 23  1  0  0  0  0
  3 24  1  0  0  0  0
  4  5  1  0  0  0  0
  4 25  1  0  0  0  0
  4 26  1  0  0  0  0
  5  6  1  0  0  0  0
  5 27  1  0  0  0  0
  5 28  1  0  0  0  0
  6  7  1  0  0  0  0
  6 18  1  0  0  0  0
  7  8  2  0  0  0  0
  7  9  1  0  0  0  0
  9 10  1  0  0  0  0
  9 29  1  0  0  0  0
  9 30  1  0  0  0  0
 10 11  1  0  0  0  0
 10 31  1  0  0  0  0
 10 41  1  0  0  0  0
 11 12  1  0  0  0  0
 11 32  1  0  0  0  0
 11 33  1  0  0  0  0
 12 13  1  0  0  0  0
 12 34  1  0  0  0  0
 12 35  1  0  0  0  0
 13 17  1  0  0  0  0
 13 14  1  0  0  0  0
 14 15  2  0  0  0  0
 14 36  1  0  0  0  0
 15 16  1  0  0  0  0
 15 37  1  0  0  0  0
 16 17  2  0  0  0  0
 16 38  1  0  0  0  0
 18 39  1  0  0  0  0
 18 40  1  0  0  0  0
M  CHG  1  10   1
M  END
> <s_m_source_file>
AV-unprocessed.smi

> <i_m_source_file_index>
3327

> <i_lp_mmshare_version>
43012

> <i_f3d_flags>
0

> <s_epik_input>
W0NIM11bQ0BASF0xW0NIMl1bQ0gyXVtDSDJdTihbQ0gyXTEpQyg9TylbQ0gyXVtOSF1bQ0gyXVtDSDJdbjJbY0hdW2NIXVtjSF1uMg==

> <s_epik_cmdline>
J2VwaWtfcHl0aG9uJywgJy1waCcsICc3LjAnLCAnLXRuJywgJzgnLCAnLW1hJywgJzIwMCcsICctbWV0YWxfYmluZGluZycsICctaW1hZScsICc8aW5maWxlLm1hZT4nLCAnLW9tYWUnLCAnPG91dGZpbGUubWFlPic=

> <r_lp_tautomer_probability>
1

> <r_epik_Ionization_Penalty>
0.195801

> <r_epik_Ionization_Penalty_Charging>
0.195799

> <r_epik_Ionization_Penalty_Neutral>
2.33113e-06

> <r_epik_State_Penalty>
0.185548

> <r_epik_Charging_Adjusted_Penalty>
0.381347

> <i_epik_Tot_Q>
1

> <i_epik_Tot_abs_Q>
1

> <r_epik_Metal_State_Penalty>
0.186014

> <b_epik_Metal_Only>
0

> <s_lp_Force_Field>
OPLS_2005

> <r_lp_Energy>
21.4811

> <b_lp_Chiralities_Consistent>
1

> <s_lp_Variant>
AV-unprocessed.smi:3327-2

> <Gold.Version>
5.8.1

> <Gold.Id.Protein>
6NUR|6NUR_protein|mol2

> <Gold.PLP.Fitness>
48.4072

> <Gold.PLP.PLP>
-40.5508

> <Gold.PLP.part.hbond>
-1.0000

> <Gold.PLP.part.metal>
0.0000

> <Gold.PLP.part.buried>
-2.4677

> <Gold.PLP.part.nonpolar>
-38.2474

> <Gold.PLP.part.repulsive>
0.9992

> <Gold.PLP.ligand.clash>
0.0000

> <Gold.PLP.ligand.torsion>
0.5873

> <Gold.PLP.Chemscore.Hbond>
2.0000

> <Gold.PLP.Chemscore.CHOScore>
1.0000

> <Gold.PLP.Chemscore.Metal>
0.0000

> <Gold.Chemscore.Hbonds>
donor molecule, donor type, donor heavy atom, donor atom, acceptor molecule, acceptor atom, score
      L1  H    10    31       P1  8028  2.00
      L1  C    16    38       P1  7948  1.00

> <Gold.PLP.Chemscore.Internal.Correction>
0.0311

> <Gold.Rescore>
     Score         DG    S(hbond)    S(metal)    S(lipo)     H(rot)  DE(clash)    DE(int)     intcor
     15.62     -16.99       0.99        0.00     109.27       1.80       0.79       0.58       ----

> <Gold.Chemscore.Fitness>
15.6154

> <Gold.Chemscore.DG>
-16.9851

> <Gold.Chemscore.ZeroCoef>
-5.4800

> <Gold.Chemscore.Hbond>
0.9938

> <Gold.Chemscore.Metal>
0.0000

> <Gold.Chemscore.Lipo>
109.2680

> <Gold.Chemscore.Internal_Hbond>
0.0000

> <Gold.Chemscore.DEClash>
0.7913

> <Gold.Chemscore.DEInternal>
0.5784

> <Gold.Chemscore.Rot>
1.7963

> <Gold.Chemscore.Internal.Correction>
   9.000000E+99

> <Gold.Chemscore.Hbonds>
donor molecule, donor type, donor heavy atom, donor atom, acceptor molecule, acceptor atom, score
      L1  H    10    31       P1  8028  0.93

> <Gold.Chemscore.Hbond.Weighted>
-3.3192

> <Gold.Chemscore.Metal.Weighted>
-0.0000

> <Gold.Chemscore.Lipo.Weighted>
-12.7844

> <Gold.Chemscore.Internal_Hbond.Weighted>
0.0000

> <Gold.Chemscore.DEClash.Weighted>
0.7913

> <Gold.Chemscore.DEInternal.Weighted>
0.5784

> <Gold.Chemscore.Rot.Weighted>
4.5985

> <Gold.Chemscore.Internal.Correction.Weighted>
   9.000000E+99

> <Gold.Protein.RotatedTorsions>
[ 6907 6896 6895 6894 ] final  -55.70 input  -60.11 | X-H torsion
[ 7974 7965 7964 7962 ] final  -83.18 input  175.53 | X-H torsion
[ 8008 7997 7996 7995 ] final -115.72 input   59.86 | X-H torsion
[ 10167 10162 10161 10158 ] final  -52.89 input  -65.29 | X-H torsion
[ 10718 10713 10712 10709 ] final  174.18 input   66.30 | X-H torsion
[ 10763 10752 10751 10750 ] final   39.03 input  -60.55 | X-H torsion
[ 11005 11000 10999 10996 ] final   36.82 input  -57.11 | X-H torsion

> <Gold.Protein.ActiveResidues>
 VAL166  LYS551  ARG553  GLY616  TRP617  ASP618  TYR619  PRO620  LYS621  CYS622 
 ASP623  PHE694  ASN695  SER759  ASP760  ASP761  ALA762  ILE779  LEU786  VAL792 
 PHE793  MET794  SER795  GLU796  ALA797  LYS798  CYS799  TRP800  GLU811  SER814 

> <Gold.Protein.RotatedAtoms>
  150.8230  134.7447  159.6788 H   0  0  0  0  0  0  0  0  0  0  0  0  # atno 6907 bound_to 6896
  152.4343  134.5713  159.9932 H   0  0  0  0  0  0  0  0  0  0  0  0  # atno 6908 bound_to 6896
  151.5892  133.3331  159.3060 H   0  0  0  0  0  0  0  0  0  0  0  0  # atno 6909 bound_to 6896
  145.5234  140.9529  143.1643 H   0  0  0  0  0  0  0  0  0  0  0  0  # atno 7974 bound_to 7965
  155.0564  140.0393  157.2562 H   0  0  0  0  0  0  0  0  0  0  0  0  # atno 8008 bound_to 7997
  154.7095  140.2690  155.6618 H   0  0  0  0  0  0  0  0  0  0  0  0  # atno 8009 bound_to 7997
  156.2785  140.2724  156.1732 H   0  0  0  0  0  0  0  0  0  0  0  0  # atno 8010 bound_to 7997
  140.6514  143.2568  151.4712 H   0  0  0  0  0  0  0  0  0  0  0  0  # atno 10167 bound_to 10162
  156.9534  131.0038  151.2943 H   0  0  0  0  0  0  0  0  0  0  0  0  # atno 10718 bound_to 10713
  152.9980  135.6232  154.2400 H   0  0  0  0  0  0  0  0  0  0  0  0  # atno 10763 bound_to 10752
  154.2141  135.2798  155.2950 H   0  0  0  0  0  0  0  0  0  0  0  0  # atno 10764 bound_to 10752
  154.5583  135.5713  153.7042 H   0  0  0  0  0  0  0  0  0  0  0  0  # atno 10765 bound_to 10752
  140.2287  134.3554  155.7973 H   0  0  0  0  0  0  0  0  0  0  0  0  # atno 11005 bound_to 11000
  144.7664  139.6836  143.7213 LP  0  0  0  0  0  0  0  0  0  0  0  0  # atno 17320 bound_to 7965
  146.2091  139.5435  142.9693 LP  0  0  0  0  0  0  0  0  0  0  0  0  # atno 17321 bound_to 7965
  139.5729  144.1885  152.1863 LP  0  0  0  0  0  0  0  0  0  0  0  0  # atno 17342 bound_to 10162
  140.1187  144.5393  150.6877 LP  0  0  0  0  0  0  0  0  0  0  0  0  # atno 17343 bound_to 10162
  157.5706  130.8308  149.8387 LP  0  0  0  0  0  0  0  0  0  0  0  0  # atno 17370 bound_to 10713
  156.0353  130.3753  150.1577 LP  0  0  0  0  0  0  0  0  0  0  0  0  # atno 17371 bound_to 10713
  141.2219  133.7233  156.8695 LP  0  0  0  0  0  0  0  0  0  0  0  0  # atno 17394 bound_to 11000
  140.1773  134.9058  157.2906 LP  0  0  0  0  0  0  0  0  0  0  0  0  # atno 17395 bound_to 11000

$$$$
