AV-unprocessed.smi:3228|AV-procd|sdf|12321|dock4
  -GOLD-   2272018173D 1   1.00000     0.00000
 Structure written by MMmdl.
 31 32  0  0  0  0  0  0  0  0  1 V2000
  144.7257  137.4685  152.3014 O   0  0  0  0  0  0  0  0  0  0  0  0
  145.8991  137.1423  152.1195 C   0  0  0  0  0  0  0  0  0  0  0  0
  146.9259  138.0001  152.2079 N   0  0  0  0  0  0  0  0  0  0  0  0
  146.8036  139.4203  152.5210 C   0  0  0  0  0  0  0  0  0  0  0  0
  147.5074  139.7895  153.8445 C   0  0  2  0  0  0  0  0  0  0  0  0
  148.1121  141.1981  153.8640 C   0  0  0  0  0  0  0  0  0  0  0  0
  149.1906  141.1742  154.9582 C   0  0  0  0  0  0  0  0  0  0  0  0
  149.3831  139.7013  155.3532 C   0  0  0  0  0  0  0  0  0  0  0  0
  148.6669  138.8780  154.2776 C   0  0  2  0  0  0  0  0  0  0  0  0
  149.5645  138.6376  153.2093 O   0  0  0  0  0  0  0  0  0  0  0  0
  146.3230  135.9033  151.8138 N   0  0  0  0  0  0  0  0  0  0  0  0
  145.5433  134.7332  151.6175 C   0  0  0  0  0  0  0  0  0  0  0  0
  144.2194  134.7320  151.4218 N   0  0  0  0  0  0  0  0  0  0  0  0
  143.7150  133.4401  151.2531 C   0  0  0  0  0  0  0  0  0  0  0  0
  144.6758  132.4623  151.3240 C   0  0  0  0  0  0  0  0  0  0  0  0
  146.2616  133.1290  151.6075 S   0  0  0  0  0  0  0  0  0  0  0  0
  147.8572  137.6483  152.0408 H   0  0  0  0  0  0  0  0  0  0  0  0
  147.2262  139.9885  151.6920 H   0  0  0  0  0  0  0  0  0  0  0  0
  145.7491  139.6973  152.5688 H   0  0  0  0  0  0  0  0  0  0  0  0
  146.7624  139.7573  154.6417 H   0  0  0  0  0  0  0  0  0  0  0  0
  148.5771  141.4186  152.9022 H   0  0  0  0  0  0  0  0  0  0  0  0
  147.3574  141.9642  154.0444 H   0  0  0  0  0  0  0  0  0  0  0  0
  150.1202  141.6010  154.5808 H   0  0  0  0  0  0  0  0  0  0  0  0
  148.8892  141.7652  155.8235 H   0  0  0  0  0  0  0  0  0  0  0  0
  150.4333  139.4302  155.4702 H   0  0  0  0  0  0  0  0  0  0  0  0
  148.8984  139.5275  156.3148 H   0  0  0  0  0  0  0  0  0  0  0  0
  148.3153  137.9217  154.6659 H   0  0  0  0  0  0  0  0  0  0  0  0
  149.3442  137.8089  152.8130 H   0  0  0  0  0  0  0  0  0  0  0  0
  147.3188  135.7837  151.7012 H   0  0  0  0  0  0  0  0  0  0  0  0
  142.6560  133.3076  151.0870 H   0  0  0  0  0  0  0  0  0  0  0  0
  144.5472  131.3947  151.2269 H   0  0  0  0  0  0  0  0  0  0  0  0
  1  2  2  0  0  0  0
  2  3  1  0  0  0  0
  2 11  1  0  0  0  0
  3  4  1  0  0  0  0
  3 17  1  0  0  0  0
  4  5  1  0  0  0  0
  4 18  1  0  0  0  0
  4 19  1  0  0  0  0
  5  9  1  0  0  0  0
  5  6  1  0  0  0  0
  5 20  1  0  0  0  0
  6  7  1  0  0  0  0
  6 21  1  0  0  0  0
  6 22  1  0  0  0  0
  7  8  1  0  0  0  0
  7 23  1  0  0  0  0
  7 24  1  0  0  0  0
  8  9  1  0  0  0  0
  8 25  1  0  0  0  0
  8 26  1  0  0  0  0
  9 10  1  0  0  0  0
  9 27  1  0  0  0  0
 10 28  1  0  0  0  0
 11 12  1  0  0  0  0
 11 29  1  0  0  0  0
 12 16  1  0  0  0  0
 12 13  2  0  0  0  0
 13 14  1  0  0  0  0
 14 15  2  0  0  0  0
 14 30  1  0  0  0  0
 15 16  1  0  0  0  0
 15 31  1  0  0  0  0
M  END
> <s_m_source_file>
AV-unprocessed.smi

> <i_m_source_file_index>
3228

> <i_lp_mmshare_version>
43012

> <i_f3d_flags>
0

> <s_epik_input>
czFbY0hdW2NIXW5jMVtOSF1DKD1PKVtOSF1bQ0gyXVtDQEBIXTJbQ0gyXVtDSDJdW0NIMl1bQ0BIXTJbT0hd

> <s_epik_cmdline>
J2VwaWtfcHl0aG9uJywgJy1waCcsICc3LjAnLCAnLXRuJywgJzgnLCAnLW1hJywgJzIwMCcsICctbWV0YWxfYmluZGluZycsICctaW1hZScsICc8aW5maWxlLm1hZT4nLCAnLW9tYWUnLCAnPG91dGZpbGUubWFlPic=

> <r_lp_tautomer_probability>
0.999

> <r_epik_Ionization_Penalty>
0.000399498

> <r_epik_Ionization_Penalty_Charging>
0

> <r_epik_Ionization_Penalty_Neutral>
0.000399498

> <r_epik_State_Penalty>
0.000177984

> <r_epik_Charging_Adjusted_Penalty>
0.000177984

> <i_epik_Tot_Q>
0

> <i_epik_Tot_abs_Q>
0

> <r_epik_Metal_State_Penalty>
0.0060793

> <b_epik_Metal_Only>
0

> <s_lp_Force_Field>
OPLS_2005

> <r_lp_Energy>
23.3722

> <b_lp_Chiralities_Consistent>
1

> <s_lp_Variant>
AV-unprocessed.smi:3228-3

> <Gold.Version>
5.8.1

> <Gold.Id.Protein>
6NUR|6NUR_protein|mol2

> <Gold.PLP.Fitness>
38.9376

> <Gold.PLP.PLP>
-27.9689

> <Gold.PLP.part.hbond>
-3.7496

> <Gold.PLP.part.metal>
0.0000

> <Gold.PLP.part.buried>
-4.3522

> <Gold.PLP.part.nonpolar>
-21.9709

> <Gold.PLP.part.repulsive>
2.0865

> <Gold.PLP.ligand.clash>
0.0000

> <Gold.PLP.ligand.torsion>
0.5023

> <Gold.PLP.Chemscore.Hbond>
2.9920

> <Gold.PLP.Chemscore.CHOScore>
0.9987

> <Gold.PLP.Chemscore.Metal>
0.0000

> <Gold.Chemscore.Hbonds>
donor molecule, donor type, donor heavy atom, donor atom, acceptor molecule, acceptor atom, score
      L1  H     3    17       P1  7948  0.99
      L1  H    10    28       P1  7948  1.00
      L1  H    11    29       P1  7948  1.00
      L1  C    14    30       P1 10186  1.00

> <Gold.PLP.Chemscore.Internal.Correction>
0.0011

> <Gold.Rescore>
     Score         DG    S(hbond)    S(metal)    S(lipo)     H(rot)  DE(clash)    DE(int)     intcor
     14.26     -17.34       2.92        0.00      59.18       1.88       0.14       2.94       ----

> <Gold.Chemscore.Fitness>
14.2581

> <Gold.Chemscore.DG>
-17.3364

> <Gold.Chemscore.ZeroCoef>
-5.4800

> <Gold.Chemscore.Hbond>
2.9165

> <Gold.Chemscore.Metal>
0.0000

> <Gold.Chemscore.Lipo>
59.1844

> <Gold.Chemscore.Internal_Hbond>
0.0000

> <Gold.Chemscore.DEClash>
0.1378

> <Gold.Chemscore.DEInternal>
2.9405

> <Gold.Chemscore.Rot>
1.8786

> <Gold.Chemscore.Internal.Correction>
   9.000000E+99

> <Gold.Chemscore.Hbonds>
donor molecule, donor type, donor heavy atom, donor atom, acceptor molecule, acceptor atom, score
      L1  H     3    17       P1  7948  0.93
      L1  H    10    28       P1  7948  0.93
      L1  H    11    29       P1  7948  0.99

> <Gold.Chemscore.Hbond.Weighted>
-9.7410

> <Gold.Chemscore.Metal.Weighted>
-0.0000

> <Gold.Chemscore.Lipo.Weighted>
-6.9246

> <Gold.Chemscore.Internal_Hbond.Weighted>
0.0000

> <Gold.Chemscore.DEClash.Weighted>
0.1378

> <Gold.Chemscore.DEInternal.Weighted>
2.9405

> <Gold.Chemscore.Rot.Weighted>
4.8091

> <Gold.Chemscore.Internal.Correction.Weighted>
   9.000000E+99

> <Gold.Protein.RotatedTorsions>
[ 6907 6896 6895 6894 ] final  -58.77 input  -60.11 | X-H torsion
[ 7974 7965 7964 7962 ] final   43.01 input  175.53 | X-H torsion
[ 8008 7997 7996 7995 ] final   75.53 input   59.86 | X-H torsion
[ 10167 10162 10161 10158 ] final  -81.05 input  -65.29 | X-H torsion
[ 10718 10713 10712 10709 ] final   -9.22 input   66.30 | X-H torsion
[ 10763 10752 10751 10750 ] final  135.63 input  -60.55 | X-H torsion
[ 11005 11000 10999 10996 ] final -100.51 input  -57.11 | X-H torsion

> <Gold.Protein.ActiveResidues>
 VAL166  LYS551  ARG553  GLY616  TRP617  ASP618  TYR619  PRO620  LYS621  CYS622 
 ASP623  PHE694  ASN695  SER759  ASP760  ASP761  ALA762  ILE779  LEU786  VAL792 
 PHE793  MET794  SER795  GLU796  ALA797  LYS798  CYS799  TRP800  GLU811  SER814 

> <Gold.Protein.RotatedAtoms>
  150.7981  134.7055  159.6573 H   0  0  0  0  0  0  0  0  0  0  0  0  # atno 6907 bound_to 6896
  152.4095  134.6145  160.0044 H   0  0  0  0  0  0  0  0  0  0  0  0  # atno 6908 bound_to 6896
  151.6393  133.3290  159.3162 H   0  0  0  0  0  0  0  0  0  0  0  0  # atno 6909 bound_to 6896
  146.0692  139.5235  142.9609 H   0  0  0  0  0  0  0  0  0  0  0  0  # atno 7974 bound_to 7965
  155.8143  140.3472  155.5476 H   0  0  0  0  0  0  0  0  0  0  0  0  # atno 8008 bound_to 7997
  155.8408  140.0941  157.1755 H   0  0  0  0  0  0  0  0  0  0  0  0  # atno 8009 bound_to 7997
  154.4005  140.1394  156.3714 H   0  0  0  0  0  0  0  0  0  0  0  0  # atno 8010 bound_to 7997
  140.4448  143.2502  151.8574 H   0  0  0  0  0  0  0  0  0  0  0  0  # atno 10167 bound_to 10162
  156.6912  130.5065  149.5943 H   0  0  0  0  0  0  0  0  0  0  0  0  # atno 10718 bound_to 10713
  153.8432  135.3088  155.3427 H   0  0  0  0  0  0  0  0  0  0  0  0  # atno 10763 bound_to 10752
  154.7923  135.4775  154.0084 H   0  0  0  0  0  0  0  0  0  0  0  0  # atno 10764 bound_to 10752
  153.1563  135.6852  153.8900 H   0  0  0  0  0  0  0  0  0  0  0  0  # atno 10765 bound_to 10752
  141.1268  133.8404  157.1111 H   0  0  0  0  0  0  0  0  0  0  0  0  # atno 11005 bound_to 11000
  145.6423  141.0281  143.1805 LP  0  0  0  0  0  0  0  0  0  0  0  0  # atno 17320 bound_to 7965
  144.7221  139.7996  143.7378 LP  0  0  0  0  0  0  0  0  0  0  0  0  # atno 17321 bound_to 7965
  139.4792  144.5188  151.8830 LP  0  0  0  0  0  0  0  0  0  0  0  0  # atno 17342 bound_to 10162
  140.4277  144.2158  150.5887 LP  0  0  0  0  0  0  0  0  0  0  0  0  # atno 17343 bound_to 10162
  156.1796  130.6490  151.0935 LP  0  0  0  0  0  0  0  0  0  0  0  0  # atno 17370 bound_to 10713
  157.7008  131.0776  150.6826 LP  0  0  0  0  0  0  0  0  0  0  0  0  # atno 17371 bound_to 10713
  140.0274  134.9917  157.0713 LP  0  0  0  0  0  0  0  0  0  0  0  0  # atno 17394 bound_to 11000
  140.4340  134.1750  155.7169 LP  0  0  0  0  0  0  0  0  0  0  0  0  # atno 17395 bound_to 11000

$$$$
