AV-unprocessed.smi:249|AV-procd|sdf|1905|dock7
  -GOLD-   2262020583D 1   1.00000     0.00000
 Structure written by MMmdl.
 64 67  0  0  0  0  0  0  0  0  2 V2000
  152.5901  145.1963  159.0528 C   0  0  0  0  0  0  0  0  0  0  0  0
  153.2982  143.8842  159.4221 C   0  0  0  0  0  0  0  0  0  0  0  0
  152.9099  142.7424  158.5509 N   0  3  1  0  0  0  0  0  0  0  0  0
  152.9337  141.4446  159.2781 C   0  0  0  0  0  0  0  0  0  0  0  0
  152.7793  140.2587  158.3127 C   0  0  0  0  0  0  0  0  0  0  0  0
  151.4961  140.3988  157.4696 C   0  0  2  0  0  0  0  0  0  0  0  0
  151.2487  139.2652  156.5685 N   0  0  0  0  0  0  0  0  0  0  0  0
  150.8969  139.5456  155.1820 C   0  0  0  0  0  0  0  0  0  0  0  0
  150.7452  138.0895  157.0210 C   0  0  0  0  0  0  0  0  0  0  0  0
  150.3257  137.9723  158.3080 N   0  0  0  0  0  0  0  0  0  0  0  0
  149.8146  136.8186  158.7485 C   0  0  0  0  0  0  0  0  0  0  0  0
  149.6341  135.6775  158.0811 N   0  0  0  0  0  0  0  0  0  0  0  0
  150.0494  135.7917  156.7874 C   0  0  0  0  0  0  0  0  0  0  0  0
  150.6077  136.9511  156.1798 C   0  0  0  0  0  0  0  0  0  0  0  0
  150.9139  136.6886  154.8498 N   0  0  0  0  0  0  0  0  0  0  0  0
  150.5561  135.4444  154.6803 C   0  0  0  0  0  0  0  0  0  0  0  0
  150.0239  134.8318  155.7924 N   0  0  0  0  0  0  0  0  0  0  0  0
  149.5477  133.4639  155.8920 C   0  0  0  0  0  0  0  0  0  0  0  0
  150.5661  132.4250  155.3617 C   0  0  1  0  0  0  0  0  0  0  0  0
  151.8059  132.2844  156.2780 C   0  0  0  0  0  0  0  0  0  0  0  0
  151.4416  131.8868  157.5841 O   0  0  0  0  0  0  0  0  0  0  0  0
  149.8870  131.0632  155.0696 C   0  0  2  0  0  0  0  0  0  0  0  0
  150.8158  129.9849  154.5402 C   0  0  0  0  0  0  0  0  0  0  0  0
  149.8348  128.9937  153.9265 C   0  0  0  0  0  0  0  0  0  0  0  0
  148.7732  129.7861  153.4085 O   0  0  0  0  0  0  0  0  0  0  0  0
  148.8377  131.1015  153.9520 C   0  0  0  0  0  0  0  0  0  0  0  0
  151.4756  141.7699  156.7593 C   0  0  0  0  0  0  0  0  0  0  0  0
  151.6626  142.9389  157.7476 C   0  0  1  0  0  0  0  0  0  0  0  0
  150.4031  143.1907  158.6045 C   0  0  0  0  0  0  0  0  0  0  0  0
  153.0055  146.0277  159.6225 H   0  0  0  0  0  0  0  0  0  0  0  0
  151.5232  145.1616  159.2717 H   0  0  0  0  0  0  0  0  0  0  0  0
  152.7135  145.4276  157.9943 H   0  0  0  0  0  0  0  0  0  0  0  0
  154.3709  144.0492  159.3141 H   0  0  0  0  0  0  0  0  0  0  0  0
  153.1379  143.6420  160.4726 H   0  0  0  0  0  0  0  0  0  0  0  0
  153.8808  141.3405  159.8085 H   0  0  0  0  0  0  0  0  0  0  0  0
  152.1520  141.4236  160.0381 H   0  0  0  0  0  0  0  0  0  0  0  0
  153.6616  140.2101  157.6761 H   0  0  0  0  0  0  0  0  0  0  0  0
  152.7596  139.3287  158.8816 H   0  0  0  0  0  0  0  0  0  0  0  0
  150.6559  140.3920  158.1644 H   0  0  0  0  0  0  0  0  0  0  0  0
  151.4463  138.8921  154.5043 H   0  0  0  0  0  0  0  0  0  0  0  0
  151.1377  140.5754  154.9168 H   0  0  0  0  0  0  0  0  0  0  0  0
  149.8294  139.3965  155.0145 H   0  0  0  0  0  0  0  0  0  0  0  0
  149.5031  136.8086  159.7826 H   0  0  0  0  0  0  0  0  0  0  0  0
  150.6665  134.9371  153.7326 H   0  0  0  0  0  0  0  0  0  0  0  0
  149.3026  133.2573  156.9346 H   0  0  0  0  0  0  0  0  0  0  0  0
  148.6105  133.4016  155.3386 H   0  0  0  0  0  0  0  0  0  0  0  0
  150.9360  132.8054  154.4083 H   0  0  0  0  0  0  0  0  0  0  0  0
  152.5072  131.5552  155.8734 H   0  0  0  0  0  0  0  0  0  0  0  0
  152.3567  133.2230  156.3383 H   0  0  0  0  0  0  0  0  0  0  0  0
  151.7329  130.9979  157.7199 H   0  0  0  0  0  0  0  0  0  0  0  0
  149.4090  130.6902  155.9772 H   0  0  0  0  0  0  0  0  0  0  0  0
  151.4716  130.3896  153.7680 H   0  0  0  0  0  0  0  0  0  0  0  0
  151.4355  129.5307  155.3137 H   0  0  0  0  0  0  0  0  0  0  0  0
  150.2908  128.3774  153.1516 H   0  0  0  0  0  0  0  0  0  0  0  0
  149.4328  128.3322  154.6949 H   0  0  0  0  0  0  0  0  0  0  0  0
  147.8601  131.4233  154.3117 H   0  0  0  0  0  0  0  0  0  0  0  0
  149.1432  131.7818  153.1559 H   0  0  0  0  0  0  0  0  0  0  0  0
  152.2715  141.8266  156.0171 H   0  0  0  0  0  0  0  0  0  0  0  0
  150.5420  141.8919  156.2086 H   0  0  0  0  0  0  0  0  0  0  0  0
  151.8029  143.8245  157.1289 H   0  0  0  0  0  0  0  0  0  0  0  0
  149.5247  143.3069  157.9690 H   0  0  0  0  0  0  0  0  0  0  0  0
  150.4875  144.1062  159.1891 H   0  0  0  0  0  0  0  0  0  0  0  0
  150.1959  142.3733  159.2942 H   0  0  0  0  0  0  0  0  0  0  0  0
  153.6526  142.6705  157.8701 H   0  0  0  0  0  0  0  0  0  0  0  0
  1  2  1  0  0  0  0
  1 30  1  0  0  0  0
  1 31  1  0  0  0  0
  1 32  1  0  0  0  0
  2  3  1  0  0  0  0
  2 33  1  0  0  0  0
  2 34  1  0  0  0  0
  3 28  1  0  0  0  0
  3  4  1  0  0  0  0
  3 64  1  0  0  0  0
  4  5  1  0  0  0  0
  4 35  1  0  0  0  0
  4 36  1  0  0  0  0
  5  6  1  0  0  0  0
  5 37  1  0  0  0  0
  5 38  1  0  0  0  0
  6  7  1  0  0  0  0
  6 27  1  0  0  0  0
  6 39  1  0  0  0  0
  7  8  1  0  0  0  0
  7  9  1  0  0  0  0
  8 40  1  0  0  0  0
  8 41  1  0  0  0  0
  8 42  1  0  0  0  0
  9 14  1  0  0  0  0
  9 10  2  0  0  0  0
 10 11  1  0  0  0  0
 11 12  2  0  0  0  0
 11 43  1  0  0  0  0
 12 13  1  0  0  0  0
 13 17  1  0  0  0  0
 13 14  2  0  0  0  0
 14 15  1  0  0  0  0
 15 16  2  0  0  0  0
 16 17  1  0  0  0  0
 16 44  1  0  0  0  0
 17 18  1  0  0  0  0
 18 19  1  0  0  0  0
 18 45  1  0  0  0  0
 18 46  1  0  0  0  0
 19 20  1  0  0  0  0
 19 22  1  0  0  0  0
 19 47  1  0  0  0  0
 20 21  1  0  0  0  0
 20 48  1  0  0  0  0
 20 49  1  0  0  0  0
 21 50  1  0  0  0  0
 22 26  1  0  0  0  0
 22 23  1  0  0  0  0
 22 51  1  0  0  0  0
 23 24  1  0  0  0  0
 23 52  1  0  0  0  0
 23 53  1  0  0  0  0
 24 25  1  0  0  0  0
 24 54  1  0  0  0  0
 24 55  1  0  0  0  0
 25 26  1  0  0  0  0
 26 56  1  0  0  0  0
 26 57  1  0  0  0  0
 27 28  1  0  0  0  0
 27 58  1  0  0  0  0
 27 59  1  0  0  0  0
 28 29  1  0  0  0  0
 28 60  1  0  0  0  0
 29 61  1  0  0  0  0
 29 62  1  0  0  0  0
 29 63  1  0  0  0  0
M  CHG  1   3   1
M  END
> <s_m_source_file>
AV-unprocessed.smi

> <i_m_source_file_index>
249

> <i_lp_mmshare_version>
43012

> <i_f3d_flags>
0

> <s_epik_input>
W0NIM11bQ0gyXU4xW0NIMl1bQ0gyXVtDQEhdKFtDSDJdW0NASF0xW0NIM10pTihbQ0gzXSljKG5bY0hdbjIpYyhjMjMpbltjSF1uM1tDSDJdW0NASF0oW0NIMl1bT0hdKVtDQEBIXTRbQ0gyXVtDSDJdT1tDSDJdNA==

> <s_epik_cmdline>
J2VwaWtfcHl0aG9uJywgJy1waCcsICc3LjAnLCAnLXRuJywgJzgnLCAnLW1hJywgJzIwMCcsICctbWV0YWxfYmluZGluZycsICctaW1hZScsICc8aW5maWxlLm1hZT4nLCAnLW9tYWUnLCAnPG91dGZpbGUubWFlPic=

> <r_lp_tautomer_probability>
1

> <r_epik_Ionization_Penalty>
0.00294688

> <r_epik_Ionization_Penalty_Charging>
0.00169971

> <r_epik_Ionization_Penalty_Neutral>
0.00124717

> <r_epik_State_Penalty>
-0

> <r_epik_Charging_Adjusted_Penalty>
0.00169971

> <i_epik_Tot_Q>
1

> <i_epik_Tot_abs_Q>
1

> <r_epik_Metal_State_Penalty>
-0

> <b_epik_Metal_Only>
0

> <s_lp_Force_Field>
OPLS_2005

> <r_lp_Energy>
52.9117

> <b_lp_Chiralities_Consistent>
1

> <s_lp_Variant>
AV-unprocessed.smi:249-8

> <Gold.Version>
5.8.1

> <Gold.Id.Protein>
6NUR|6NUR_protein|mol2

> <Gold.PLP.Fitness>
52.2186

> <Gold.PLP.PLP>
-46.8844

> <Gold.PLP.part.hbond>
-2.0540

> <Gold.PLP.part.metal>
0.0000

> <Gold.PLP.part.buried>
-6.6302

> <Gold.PLP.part.nonpolar>
-38.4716

> <Gold.PLP.part.repulsive>
0.3027

> <Gold.PLP.ligand.clash>
0.0000

> <Gold.PLP.ligand.torsion>
1.4101

> <Gold.PLP.Chemscore.Hbond>
2.0000

> <Gold.PLP.Chemscore.CHOScore>
0.2925

> <Gold.PLP.Chemscore.Metal>
0.0000

> <Gold.Chemscore.Hbonds>
donor molecule, donor type, donor heavy atom, donor atom, acceptor molecule, acceptor atom, score
      P1  H  6896  6907       L1    21  0.44
      P1  H  6896  6908       L1    12  0.46
      L1  C    16    44       P1  7949  0.32

> <Gold.PLP.Chemscore.Internal.Correction>
1.2770

> <Gold.Rescore>
     Score         DG    S(hbond)    S(metal)    S(lipo)     H(rot)  DE(clash)    DE(int)     intcor
     14.77     -17.88       1.62        0.00     117.84       2.65       0.47       2.64       ----

> <Gold.Chemscore.Fitness>
14.7691

> <Gold.Chemscore.DG>
-17.8790

> <Gold.Chemscore.ZeroCoef>
-5.4800

> <Gold.Chemscore.Hbond>
1.6166

> <Gold.Chemscore.Metal>
0.0000

> <Gold.Chemscore.Lipo>
117.8425

> <Gold.Chemscore.Internal_Hbond>
0.0000

> <Gold.Chemscore.DEClash>
0.4699

> <Gold.Chemscore.DEInternal>
2.6400

> <Gold.Chemscore.Rot>
2.6515

> <Gold.Chemscore.Internal.Correction>
   9.000000E+99

> <Gold.Chemscore.Hbonds>
donor molecule, donor type, donor heavy atom, donor atom, acceptor molecule, acceptor atom, score
      P1  H  6896  6907       L1    21  0.37
      P1  H  6896  6908       L1    12  0.02

> <Gold.Chemscore.Hbond.Weighted>
-5.3994

> <Gold.Chemscore.Metal.Weighted>
-0.0000

> <Gold.Chemscore.Lipo.Weighted>
-13.7876

> <Gold.Chemscore.Internal_Hbond.Weighted>
0.0000

> <Gold.Chemscore.DEClash.Weighted>
0.4699

> <Gold.Chemscore.DEInternal.Weighted>
2.6400

> <Gold.Chemscore.Rot.Weighted>
6.7880

> <Gold.Chemscore.Internal.Correction.Weighted>
   9.000000E+99

> <Gold.Protein.RotatedTorsions>
[ 6907 6896 6895 6894 ] final  170.26 input  -60.11 | X-H torsion
[ 7974 7965 7964 7962 ] final  124.69 input  175.53 | X-H torsion
[ 8008 7997 7996 7995 ] final -145.83 input   59.86 | X-H torsion
[ 10167 10162 10161 10158 ] final  154.71 input  -65.29 | X-H torsion
[ 10718 10713 10712 10709 ] final  -22.95 input   66.30 | X-H torsion
[ 10763 10752 10751 10750 ] final  167.06 input  -60.55 | X-H torsion
[ 11005 11000 10999 10996 ] final   73.41 input  -57.11 | X-H torsion

> <Gold.Protein.ActiveResidues>
 VAL166  LYS551  ARG553  GLY616  TRP617  ASP618  TYR619  PRO620  LYS621  CYS622 
 ASP623  PHE694  ASN695  SER759  ASP760  ASP761  ALA762  ILE779  LEU786  VAL792 
 PHE793  MET794  SER795  GLU796  ALA797  LYS798  CYS799  TRP800  GLU811  SER814 

> <Gold.Protein.RotatedAtoms>
  151.8189  133.3392  159.3577 H   0  0  0  0  0  0  0  0  0  0  0  0  # atno 6907 bound_to 6896
  150.7301  134.5592  159.5843 H   0  0  0  0  0  0  0  0  0  0  0  0  # atno 6908 bound_to 6896
  152.3020  134.7600  160.0407 H   0  0  0  0  0  0  0  0  0  0  0  0  # atno 6909 bound_to 6896
  145.0816  139.3653  143.4906 H   0  0  0  0  0  0  0  0  0  0  0  0  # atno 7974 bound_to 7965
  155.5496  140.0615  157.2853 H   0  0  0  0  0  0  0  0  0  0  0  0  # atno 8008 bound_to 7997
  154.4425  140.1905  156.0717 H   0  0  0  0  0  0  0  0  0  0  0  0  # atno 8009 bound_to 7997
  156.0526  140.3282  155.7372 H   0  0  0  0  0  0  0  0  0  0  0  0  # atno 8010 bound_to 7997
  139.4822  144.5163  151.7947 H   0  0  0  0  0  0  0  0  0  0  0  0  # atno 10167 bound_to 10162
  156.4977  130.4581  149.6719 H   0  0  0  0  0  0  0  0  0  0  0  0  # atno 10718 bound_to 10713
  154.3482  135.2753  155.2386 H   0  0  0  0  0  0  0  0  0  0  0  0  # atno 10763 bound_to 10752
  154.4627  135.5903  153.6270 H   0  0  0  0  0  0  0  0  0  0  0  0  # atno 10764 bound_to 10752
  152.9852  135.6069  154.3690 H   0  0  0  0  0  0  0  0  0  0  0  0  # atno 10765 bound_to 10752
  139.9442  134.7344  156.1023 H   0  0  0  0  0  0  0  0  0  0  0  0  # atno 11005 bound_to 11000
  146.3531  140.0608  142.8629 LP  0  0  0  0  0  0  0  0  0  0  0  0  # atno 17320 bound_to 7965
  145.1172  140.9441  143.4622 LP  0  0  0  0  0  0  0  0  0  0  0  0  # atno 17321 bound_to 7965
  140.4671  144.1639  150.5913 LP  0  0  0  0  0  0  0  0  0  0  0  0  # atno 17342 bound_to 10162
  140.4422  143.2522  151.9458 LP  0  0  0  0  0  0  0  0  0  0  0  0  # atno 17343 bound_to 10162
  156.3364  130.7358  151.2297 LP  0  0  0  0  0  0  0  0  0  0  0  0  # atno 17370 bound_to 10713
  157.7466  131.0416  150.4653 LP  0  0  0  0  0  0  0  0  0  0  0  0  # atno 17371 bound_to 10713
  141.1086  133.6651  156.2925 LP  0  0  0  0  0  0  0  0  0  0  0  0  # atno 17394 bound_to 11000
  140.5877  134.5682  157.5493 LP  0  0  0  0  0  0  0  0  0  0  0  0  # atno 17395 bound_to 11000

$$$$
