AV-unprocessed.smi:2946|AV-procd|sdf|11281|dock2
  -GOLD-   2272016173D 1   1.00000     0.00000
 Structure written by MMmdl.
 35 36  0  0  0  0  0  0  0  0  1 V2000
  150.7425  145.0026  158.6125 C   0  0  0  0  0  0  0  0  0  0  0  0
  151.4151  143.7505  158.8947 N   0  0  0  0  0  0  0  0  0  0  0  0
  151.4582  142.6585  158.0232 C   0  0  0  0  0  0  0  0  0  0  0  0
  150.7977  142.7774  156.8050 N   0  0  0  0  0  0  0  0  0  0  0  0
  150.7192  141.7662  155.7609 C   0  0  0  0  0  0  0  0  0  0  0  0
  149.3936  141.8421  154.9876 C   0  0  1  0  0  0  0  0  0  0  0  0
  149.1838  140.7524  153.9328 C   0  0  0  0  0  0  0  0  0  0  0  0
  147.6749  140.6930  153.8579 C   0  0  0  0  0  0  0  0  0  0  0  0
  147.2828  140.9005  155.3179 C   0  0  0  0  0  0  0  0  0  0  0  0
  148.2754  141.7622  155.8685 O   0  0  0  0  0  0  0  0  0  0  0  0
  152.1322  141.5229  158.3585 C   0  0  0  0  0  0  0  0  0  0  0  0
  152.2615  140.3993  157.4846 C   0  0  0  0  0  0  0  0  0  0  0  0
  152.3830  139.4965  156.7696 N   0  0  0  0  0  0  0  0  0  0  0  0
  152.8178  141.3788  159.6407 C   0  0  0  0  0  0  0  0  0  0  0  0
  153.4491  140.3725  159.9725 O   0  0  0  0  0  0  0  0  0  0  0  0
  152.7126  142.4949  160.4954 N   0  0  0  0  0  0  0  0  0  0  0  0
  153.3809  142.3913  161.7778 C   0  0  0  0  0  0  0  0  0  0  0  0
  152.0352  143.6880  160.1668 C   0  0  0  0  0  0  0  0  0  0  0  0
  151.9851  144.6424  160.9486 O   0  0  0  0  0  0  0  0  0  0  0  0
  150.3828  145.0221  157.5864 H   0  0  0  0  0  0  0  0  0  0  0  0
  151.4647  145.8095  158.7504 H   0  0  0  0  0  0  0  0  0  0  0  0
  149.9051  145.0837  159.3079 H   0  0  0  0  0  0  0  0  0  0  0  0
  149.9675  143.3521  156.8351 H   0  0  0  0  0  0  0  0  0  0  0  0
  151.5584  141.9069  155.0793 H   0  0  0  0  0  0  0  0  0  0  0  0
  150.8183  140.7688  156.1886 H   0  0  0  0  0  0  0  0  0  0  0  0
  149.3325  142.8116  154.4910 H   0  0  0  0  0  0  0  0  0  0  0  0
  149.6507  140.9909  152.9770 H   0  0  0  0  0  0  0  0  0  0  0  0
  149.5720  139.7907  154.2683 H   0  0  0  0  0  0  0  0  0  0  0  0
  147.2973  141.5135  153.2462 H   0  0  0  0  0  0  0  0  0  0  0  0
  147.3012  139.7557  153.4446 H   0  0  0  0  0  0  0  0  0  0  0  0
  146.2834  141.3221  155.4263 H   0  0  0  0  0  0  0  0  0  0  0  0
  147.3099  139.9524  155.8559 H   0  0  0  0  0  0  0  0  0  0  0  0
  153.1042  143.2125  162.4383 H   0  0  0  0  0  0  0  0  0  0  0  0
  154.4539  142.4039  161.5796 H   0  0  0  0  0  0  0  0  0  0  0  0
  153.0719  141.4517  162.2401 H   0  0  0  0  0  0  0  0  0  0  0  0
  1  2  1  0  0  0  0
  1 20  1  0  0  0  0
  1 21  1  0  0  0  0
  1 22  1  0  0  0  0
  2 18  1  0  0  0  0
  2  3  1  0  0  0  0
  3  4  1  0  0  0  0
  3 11  2  0  0  0  0
  4  5  1  0  0  0  0
  4 23  1  0  0  0  0
  5  6  1  0  0  0  0
  5 24  1  0  0  0  0
  5 25  1  0  0  0  0
  6 10  1  0  0  0  0
  6  7  1  0  0  0  0
  6 26  1  0  0  0  0
  7  8  1  0  0  0  0
  7 27  1  0  0  0  0
  7 28  1  0  0  0  0
  8  9  1  0  0  0  0
  8 29  1  0  0  0  0
  8 30  1  0  0  0  0
  9 10  1  0  0  0  0
  9 31  1  0  0  0  0
  9 32  1  0  0  0  0
 11 12  1  0  0  0  0
 11 14  1  0  0  0  0
 12 13  3  0  0  0  0
 14 15  2  0  0  0  0
 14 16  1  0  0  0  0
 16 17  1  0  0  0  0
 16 18  1  0  0  0  0
 17 33  1  0  0  0  0
 17 34  1  0  0  0  0
 17 35  1  0  0  0  0
 18 19  2  0  0  0  0
M  END
> <s_m_source_file>
AV-unprocessed.smi

> <i_m_source_file_index>
2946

> <i_lp_mmshare_version>
43012

> <i_f3d_flags>
0

> <s_epik_input>
Tz1jMW4oW0NIM10pYyg9TyljKEMjTiljKG4xW0NIM10pW05IXVtDSDJdW0NAQEhdMltDSDJdW0NIMl1bQ0gyXU8y

> <s_epik_cmdline>
J2VwaWtfcHl0aG9uJywgJy1waCcsICc3LjAnLCAnLXRuJywgJzgnLCAnLW1hJywgJzIwMCcsICctbWV0YWxfYmluZGluZycsICctaW1hZScsICc8aW5maWxlLm1hZT4nLCAnLW9tYWUnLCAnPG91dGZpbGUubWFlPic=

> <r_epik_Ionization_Penalty>
0.000541801

> <r_epik_Ionization_Penalty_Charging>
8.97317e-10

> <r_epik_Ionization_Penalty_Neutral>
0.000541801

> <r_epik_State_Penalty>
0.000338907

> <r_epik_Charging_Adjusted_Penalty>
0.000338908

> <i_epik_Tot_Q>
0

> <i_epik_Tot_abs_Q>
0

> <r_epik_Metal_State_Penalty>
-0

> <b_epik_Metal_Only>
0

> <s_lp_Force_Field>
OPLS_2005

> <r_lp_Energy>
39.9681

> <b_lp_Chiralities_Consistent>
1

> <s_lp_Variant>
AV-unprocessed.smi:2946-2

> <Gold.Version>
5.8.1

> <Gold.Id.Protein>
6NUR|6NUR_protein|mol2

> <Gold.PLP.Fitness>
39.7258

> <Gold.PLP.PLP>
-37.4897

> <Gold.PLP.part.hbond>
-1.5597

> <Gold.PLP.part.metal>
0.0000

> <Gold.PLP.part.buried>
-2.6135

> <Gold.PLP.part.nonpolar>
-32.6544

> <Gold.PLP.part.repulsive>
0.6260

> <Gold.PLP.ligand.clash>
9.8971

> <Gold.PLP.ligand.torsion>
0.1962

> <Gold.PLP.Chemscore.Hbond>
0.8760

> <Gold.PLP.Chemscore.CHOScore>
0.0000

> <Gold.PLP.Chemscore.Metal>
0.0000

> <Gold.Chemscore.Hbonds>
donor molecule, donor type, donor heavy atom, donor atom, acceptor molecule, acceptor atom, score
      L1  H     4    23       P1  8028  0.68
      P1  H  7997  8009       L1    13  0.32

> <Gold.PLP.Chemscore.Internal.Correction>
9.8975

> <Gold.Rescore>
     Score         DG    S(hbond)    S(metal)    S(lipo)     H(rot)  DE(clash)    DE(int)     intcor
      9.32     -12.27       0.80        0.00      63.46       1.29       0.14       2.82       ----

> <Gold.Chemscore.Fitness>
9.3197

> <Gold.Chemscore.DG>
-12.2741

> <Gold.Chemscore.ZeroCoef>
-5.4800

> <Gold.Chemscore.Hbond>
0.8034

> <Gold.Chemscore.Metal>
0.0000

> <Gold.Chemscore.Lipo>
63.4596

> <Gold.Chemscore.Internal_Hbond>
0.0000

> <Gold.Chemscore.DEClash>
0.1374

> <Gold.Chemscore.DEInternal>
2.8170

> <Gold.Chemscore.Rot>
1.2946

> <Gold.Chemscore.Internal.Correction>
   9.000000E+99

> <Gold.Chemscore.Hbonds>
donor molecule, donor type, donor heavy atom, donor atom, acceptor molecule, acceptor atom, score
      L1  H     4    23       P1  8028  0.67
      P1  H  7997  8009       L1    13  0.01

> <Gold.Chemscore.Hbond.Weighted>
-2.6834

> <Gold.Chemscore.Metal.Weighted>
-0.0000

> <Gold.Chemscore.Lipo.Weighted>
-7.4248

> <Gold.Chemscore.Internal_Hbond.Weighted>
0.0000

> <Gold.Chemscore.DEClash.Weighted>
0.1374

> <Gold.Chemscore.DEInternal.Weighted>
2.8170

> <Gold.Chemscore.Rot.Weighted>
3.3141

> <Gold.Chemscore.Internal.Correction.Weighted>
   9.000000E+99

> <Gold.Protein.RotatedTorsions>
[ 6907 6896 6895 6894 ] final -129.01 input  -60.11 | X-H torsion
[ 7974 7965 7964 7962 ] final  166.60 input  175.53 | X-H torsion
[ 8008 7997 7996 7995 ] final -172.60 input   59.86 | X-H torsion
[ 10167 10162 10161 10158 ] final   34.17 input  -65.29 | X-H torsion
[ 10718 10713 10712 10709 ] final -109.39 input   66.30 | X-H torsion
[ 10763 10752 10751 10750 ] final  104.04 input  -60.55 | X-H torsion
[ 11005 11000 10999 10996 ] final   53.99 input  -57.11 | X-H torsion

> <Gold.Protein.ActiveResidues>
 VAL166  LYS551  ARG553  GLY616  TRP617  ASP618  TYR619  PRO620  LYS621  CYS622 
 ASP623  PHE694  ASN695  SER759  ASP760  ASP761  ALA762  ILE779  LEU786  VAL792 
 PHE793  MET794  SER795  GLU796  ALA797  LYS798  CYS799  TRP800  GLU811  SER814 

> <Gold.Protein.RotatedAtoms>
  150.9241  133.6845  159.2825 H   0  0  0  0  0  0  0  0  0  0  0  0  # atno 6907 bound_to 6896
  151.4289  135.1006  159.9646 H   0  0  0  0  0  0  0  0  0  0  0  0  # atno 6908 bound_to 6896
  152.4994  133.8675  159.7337 H   0  0  0  0  0  0  0  0  0  0  0  0  # atno 6909 bound_to 6896
  144.7456  139.8639  143.6383 H   0  0  0  0  0  0  0  0  0  0  0  0  # atno 7974 bound_to 7965
  155.9467  140.1118  157.1011 H   0  0  0  0  0  0  0  0  0  0  0  0  # atno 8008 bound_to 7997
  154.4101  140.1208  156.5065 H   0  0  0  0  0  0  0  0  0  0  0  0  # atno 8009 bound_to 7997
  155.6894  140.3472  155.4889 H   0  0  0  0  0  0  0  0  0  0  0  0  # atno 8010 bound_to 7997
  140.4339  144.1284  150.6163 H   0  0  0  0  0  0  0  0  0  0  0  0  # atno 10167 bound_to 10162
  156.0535  130.5761  150.8093 H   0  0  0  0  0  0  0  0  0  0  0  0  # atno 10718 bound_to 10713
  153.3606  135.3956  155.1715 H   0  0  0  0  0  0  0  0  0  0  0  0  # atno 10763 bound_to 10752
  154.8678  135.3678  154.5104 H   0  0  0  0  0  0  0  0  0  0  0  0  # atno 10764 bound_to 10752
  153.5563  135.7082  153.5628 H   0  0  0  0  0  0  0  0  0  0  0  0  # atno 10765 bound_to 10752
  140.0722  134.5453  155.9034 H   0  0  0  0  0  0  0  0  0  0  0  0  # atno 11005 bound_to 11000
  146.1328  139.4367  143.0158 LP  0  0  0  0  0  0  0  0  0  0  0  0  # atno 17320 bound_to 7965
  145.7137  141.0098  143.1440 LP  0  0  0  0  0  0  0  0  0  0  0  0  # atno 17321 bound_to 7965
  140.4395  143.2532  151.9491 LP  0  0  0  0  0  0  0  0  0  0  0  0  # atno 17342 bound_to 10162
  139.4786  144.5668  151.8153 LP  0  0  0  0  0  0  0  0  0  0  0  0  # atno 17343 bound_to 10162
  157.5483  131.0943  150.9731 LP  0  0  0  0  0  0  0  0  0  0  0  0  # atno 17370 bound_to 10713
  156.9997  130.5595  149.5310 LP  0  0  0  0  0  0  0  0  0  0  0  0  # atno 17371 bound_to 10713
  141.2016  133.6620  156.5960 LP  0  0  0  0  0  0  0  0  0  0  0  0  # atno 17394 bound_to 11000
  140.3610  134.7688  157.4533 LP  0  0  0  0  0  0  0  0  0  0  0  0  # atno 17395 bound_to 11000

$$$$
