AV-unprocessed.smi:3009|AV-procd|sdf|11454|dock3
  -GOLD-   2272016383D 1   1.00000     0.00000
 Structure written by MMmdl.
 43 44  0  0  0  0  0  0  0  0  1 V2000
  151.3052  141.2030  158.6411 C   0  0  0  0  0  0  0  0  0  0  0  0
  151.3114  142.0969  157.3903 C   0  0  0  0  0  0  0  0  0  0  0  0
  151.4837  143.5712  157.7830 C   0  0  0  0  0  0  0  0  0  0  0  0
  150.0317  141.9113  156.5465 C   0  0  0  0  0  0  0  0  0  0  0  0
  149.8097  140.5674  156.0104 N   0  0  0  0  0  0  0  0  0  0  0  0
  150.9659  140.0502  155.2814 C   0  0  0  0  0  0  0  0  0  0  0  0
  150.7018  138.6470  154.7091 C   0  0  0  0  0  0  0  0  0  0  0  0
  149.5450  138.6729  153.8800 O   0  0  0  0  0  0  0  0  0  0  0  0
  148.3807  139.1337  154.5606 C   0  0  2  0  0  0  0  0  0  0  0  0
  147.1719  139.0671  153.6075 C   0  0  0  0  0  0  0  0  0  0  0  0
  147.1366  137.8357  152.8230 N   0  0  0  0  0  0  0  0  0  0  0  0
  146.0229  137.2074  152.4217 C   0  0  0  0  0  0  0  0  0  0  0  0
  144.8858  137.6143  152.6605 O   0  0  0  0  0  0  0  0  0  0  0  0
  146.3144  136.0907  151.7347 N   0  0  0  0  0  0  0  0  0  0  0  0
  145.4016  135.1751  151.1527 C   0  0  0  0  0  0  0  0  0  0  0  0
  145.6863  133.8087  150.8838 C   0  0  0  0  0  0  0  0  0  0  0  0
  144.6460  133.1964  150.3365 N   0  0  0  0  0  0  0  0  0  0  0  0
  143.6998  134.1589  150.2536 N   0  0  0  0  0  0  0  0  0  0  0  0
  144.1149  135.3792  150.7392 C   0  0  0  0  0  0  0  0  0  0  0  0
  148.6486  140.5444  155.1278 C   0  0  0  0  0  0  0  0  0  0  0  0
  142.7859  133.9699  149.8669 H   0  0  0  0  0  0  0  0  0  0  0  0
  150.4539  141.4265  159.2847 H   0  0  0  0  0  0  0  0  0  0  0  0
  152.2130  141.3438  159.2282 H   0  0  0  0  0  0  0  0  0  0  0  0
  151.2523  140.1472  158.3739 H   0  0  0  0  0  0  0  0  0  0  0  0
  152.1814  141.8319  156.7904 H   0  0  0  0  0  0  0  0  0  0  0  0
  150.6529  143.9183  158.3984 H   0  0  0  0  0  0  0  0  0  0  0  0
  151.5331  144.2092  156.9003 H   0  0  0  0  0  0  0  0  0  0  0  0
  152.4033  143.7232  158.3487 H   0  0  0  0  0  0  0  0  0  0  0  0
  149.1809  142.1871  157.1712 H   0  0  0  0  0  0  0  0  0  0  0  0
  150.0363  142.6279  155.7236 H   0  0  0  0  0  0  0  0  0  0  0  0
  151.2256  140.7291  154.4677 H   0  0  0  0  0  0  0  0  0  0  0  0
  151.8354  139.9963  155.9350 H   0  0  0  0  0  0  0  0  0  0  0  0
  151.5547  138.3112  154.1191 H   0  0  0  0  0  0  0  0  0  0  0  0
  150.5636  137.9230  155.5135 H   0  0  0  0  0  0  0  0  0  0  0  0
  148.1852  138.4523  155.3905 H   0  0  0  0  0  0  0  0  0  0  0  0
  146.2433  139.1960  154.1659 H   0  0  0  0  0  0  0  0  0  0  0  0
  147.2197  139.9007  152.9066 H   0  0  0  0  0  0  0  0  0  0  0  0
  148.0269  137.4279  152.5779 H   0  0  0  0  0  0  0  0  0  0  0  0
  147.2927  135.8744  151.6121 H   0  0  0  0  0  0  0  0  0  0  0  0
  146.5949  133.2526  151.0628 H   0  0  0  0  0  0  0  0  0  0  0  0
  143.4744  136.2486  150.7424 H   0  0  0  0  0  0  0  0  0  0  0  0
  147.7666  140.8853  155.6714 H   0  0  0  0  0  0  0  0  0  0  0  0
  148.8011  141.2497  154.3094 H   0  0  0  0  0  0  0  0  0  0  0  0
  1  2  1  0  0  0  0
  1 22  1  0  0  0  0
  1 23  1  0  0  0  0
  1 24  1  0  0  0  0
  2  3  1  0  0  0  0
  2  4  1  0  0  0  0
  2 25  1  0  0  0  0
  3 26  1  0  0  0  0
  3 27  1  0  0  0  0
  3 28  1  0  0  0  0
  4  5  1  0  0  0  0
  4 29  1  0  0  0  0
  4 30  1  0  0  0  0
  5 20  1  0  0  0  0
  5  6  1  0  0  0  0
  6  7  1  0  0  0  0
  6 31  1  0  0  0  0
  6 32  1  0  0  0  0
  7  8  1  0  0  0  0
  7 33  1  0  0  0  0
  7 34  1  0  0  0  0
  8  9  1  0  0  0  0
  9 10  1  0  0  0  0
  9 20  1  0  0  0  0
  9 35  1  0  0  0  0
 10 11  1  0  0  0  0
 10 36  1  0  0  0  0
 10 37  1  0  0  0  0
 11 12  1  0  0  0  0
 11 38  1  0  0  0  0
 12 13  2  0  0  0  0
 12 14  1  0  0  0  0
 14 15  1  0  0  0  0
 14 39  1  0  0  0  0
 15 19  2  0  0  0  0
 15 16  1  0  0  0  0
 16 17  2  0  0  0  0
 16 40  1  0  0  0  0
 17 18  1  0  0  0  0
 18 21  1  0  0  0  0
 18 19  1  0  0  0  0
 19 41  1  0  0  0  0
 20 42  1  0  0  0  0
 20 43  1  0  0  0  0
M  END
> <s_m_source_file>
AV-unprocessed.smi

> <i_m_source_file_index>
3009

> <i_lp_mmshare_version>
43012

> <i_f3d_flags>
0

> <s_epik_input>
W0NIM11bQ0hdKFtDSDNdKVtDSDJdTjFbQ0gyXVtDSDJdT1tDQEhdKFtDSDJdMSlbQ0gyXVtOSF1DKD1PKVtOSF1jMltjSF1uW25IXVtjSF0y

> <s_epik_cmdline>
J2VwaWtfcHl0aG9uJywgJy1waCcsICc3LjAnLCAnLXRuJywgJzgnLCAnLW1hJywgJzIwMCcsICctbWV0YWxfYmluZGluZycsICctaW1hZScsICc8aW5maWxlLm1hZT4nLCAnLW9tYWUnLCAnPG91dGZpbGUubWFlPic=

> <r_lp_tautomer_probability>
0.5

> <r_epik_Ionization_Penalty>
1.11801

> <r_epik_Ionization_Penalty_Charging>
0

> <r_epik_Ionization_Penalty_Neutral>
1.11801

> <r_epik_State_Penalty>
1.17654

> <r_epik_Charging_Adjusted_Penalty>
1.17654

> <i_epik_Tot_Q>
0

> <i_epik_Tot_abs_Q>
0

> <r_epik_Metal_State_Penalty>
1.17654

> <b_epik_Metal_Only>
0

> <s_lp_Force_Field>
OPLS_2005

> <r_lp_Energy>
28.7191

> <b_lp_Chiralities_Consistent>
1

> <s_lp_Variant>
AV-unprocessed.smi:3009-6

> <Gold.Version>
5.8.1

> <Gold.Id.Protein>
6NUR|6NUR_protein|mol2

> <Gold.PLP.Fitness>
41.7768

> <Gold.PLP.PLP>
-30.6411

> <Gold.PLP.part.hbond>
-3.0000

> <Gold.PLP.part.metal>
0.0000

> <Gold.PLP.part.buried>
-3.9450

> <Gold.PLP.part.nonpolar>
-26.3607

> <Gold.PLP.part.repulsive>
1.9624

> <Gold.PLP.ligand.clash>
0.0000

> <Gold.PLP.ligand.torsion>
0.4693

> <Gold.PLP.Chemscore.Hbond>
3.0000

> <Gold.PLP.Chemscore.CHOScore>
1.0000

> <Gold.PLP.Chemscore.Metal>
0.0000

> <Gold.Chemscore.Hbonds>
donor molecule, donor type, donor heavy atom, donor atom, acceptor molecule, acceptor atom, score
      L1  H    11    38       P1  7948  1.00
      L1  H    14    39       P1  7948  1.00
      L1  H    18    21       P1 10186  1.00
      L1  C    19    41       P1 10171  1.00

> <Gold.PLP.Chemscore.Internal.Correction>
0.0742

> <Gold.Rescore>
     Score         DG    S(hbond)    S(metal)    S(lipo)     H(rot)  DE(clash)    DE(int)     intcor
     18.36     -19.72       2.91        0.00      77.20       1.76       0.15       1.20       ----

> <Gold.Chemscore.Fitness>
18.3645

> <Gold.Chemscore.DG>
-19.7183

> <Gold.Chemscore.ZeroCoef>
-5.4800

> <Gold.Chemscore.Hbond>
2.9052

> <Gold.Chemscore.Metal>
0.0000

> <Gold.Chemscore.Lipo>
77.1987

> <Gold.Chemscore.Internal_Hbond>
0.0000

> <Gold.Chemscore.DEClash>
0.1489

> <Gold.Chemscore.DEInternal>
1.2049

> <Gold.Chemscore.Rot>
1.7568

> <Gold.Chemscore.Internal.Correction>
   9.000000E+99

> <Gold.Chemscore.Hbonds>
donor molecule, donor type, donor heavy atom, donor atom, acceptor molecule, acceptor atom, score
      L1  H    11    38       P1  7948  0.96
      L1  H    14    39       P1  7948  0.97
      L1  H    18    21       P1 10186  0.96

> <Gold.Chemscore.Hbond.Weighted>
-9.7035

> <Gold.Chemscore.Metal.Weighted>
-0.0000

> <Gold.Chemscore.Lipo.Weighted>
-9.0323

> <Gold.Chemscore.Internal_Hbond.Weighted>
0.0000

> <Gold.Chemscore.DEClash.Weighted>
0.1489

> <Gold.Chemscore.DEInternal.Weighted>
1.2049

> <Gold.Chemscore.Rot.Weighted>
4.4974

> <Gold.Chemscore.Internal.Correction.Weighted>
   9.000000E+99

> <Gold.Protein.RotatedTorsions>
[ 6907 6896 6895 6894 ] final   46.29 input  -60.11 | X-H torsion
[ 7974 7965 7964 7962 ] final  143.39 input  175.53 | X-H torsion
[ 8008 7997 7996 7995 ] final -134.80 input   59.86 | X-H torsion
[ 10167 10162 10161 10158 ] final -109.39 input  -65.29 | X-H torsion
[ 10718 10713 10712 10709 ] final  -21.78 input   66.30 | X-H torsion
[ 10763 10752 10751 10750 ] final -148.74 input  -60.55 | X-H torsion
[ 11005 11000 10999 10996 ] final   43.20 input  -57.11 | X-H torsion

> <Gold.Protein.ActiveResidues>
 VAL166  LYS551  ARG553  GLY616  TRP617  ASP618  TYR619  PRO620  LYS621  CYS622 
 ASP623  PHE694  ASN695  SER759  ASP760  ASP761  ALA762  ILE779  LEU786  VAL792 
 PHE793  MET794  SER795  GLU796  ALA797  LYS798  CYS799  TRP800  GLU811  SER814 

> <Gold.Protein.RotatedAtoms>
  152.2547  134.8097  160.0440 H   0  0  0  0  0  0  0  0  0  0  0  0  # atno 6907 bound_to 6896
  151.8764  133.3481  159.3760 H   0  0  0  0  0  0  0  0  0  0  0  0  # atno 6908 bound_to 6896
  150.7096  134.4988  159.5595 H   0  0  0  0  0  0  0  0  0  0  0  0  # atno 6909 bound_to 6896
  144.8925  139.5538  143.5792 H   0  0  0  0  0  0  0  0  0  0  0  0  # atno 7974 bound_to 7965
  155.3681  140.0486  157.3046 H   0  0  0  0  0  0  0  0  0  0  0  0  # atno 8008 bound_to 7997
  154.5144  140.2203  155.9057 H   0  0  0  0  0  0  0  0  0  0  0  0  # atno 8009 bound_to 7997
  156.1619  140.3114  155.8828 H   0  0  0  0  0  0  0  0  0  0  0  0  # atno 8010 bound_to 7997
  140.1559  143.4160  152.1461 H   0  0  0  0  0  0  0  0  0  0  0  0  # atno 10167 bound_to 10162
  156.5134  130.4615  149.6635 H   0  0  0  0  0  0  0  0  0  0  0  0  # atno 10718 bound_to 10713
  154.8216  135.3327  154.7020 H   0  0  0  0  0  0  0  0  0  0  0  0  # atno 10763 bound_to 10752
  153.7652  135.6929  153.4922 H   0  0  0  0  0  0  0  0  0  0  0  0  # atno 10764 bound_to 10752
  153.2082  135.4491  155.0298 H   0  0  0  0  0  0  0  0  0  0  0  0  # atno 10765 bound_to 10752
  140.1667  134.4273  155.8283 H   0  0  0  0  0  0  0  0  0  0  0  0  # atno 11005 bound_to 11000
  146.3062  139.7588  142.9054 LP  0  0  0  0  0  0  0  0  0  0  0  0  # atno 17320 bound_to 7965
  145.3758  141.0350  143.3205 LP  0  0  0  0  0  0  0  0  0  0  0  0  # atno 17321 bound_to 7965
  139.5404  144.7251  151.4753 LP  0  0  0  0  0  0  0  0  0  0  0  0  # atno 17342 bound_to 10162
  140.6674  143.8369  150.6958 LP  0  0  0  0  0  0  0  0  0  0  0  0  # atno 17343 bound_to 10162
  156.3218  130.7284  151.2198 LP  0  0  0  0  0  0  0  0  0  0  0  0  # atno 17370 bound_to 10713
  157.7447  131.0453  150.4839 LP  0  0  0  0  0  0  0  0  0  0  0  0  # atno 17371 bound_to 10713
  141.2214  133.6937  156.7690 LP  0  0  0  0  0  0  0  0  0  0  0  0  # atno 17394 bound_to 11000
  140.2426  134.8602  157.3588 LP  0  0  0  0  0  0  0  0  0  0  0  0  # atno 17395 bound_to 11000

$$$$
