AV-unprocessed.smi:711|AV-procd|sdf|3466|dock4
  -GOLD-   22720 0453D 1   1.00000     0.00000
 Structure written by MMmdl.
 28 29  0  0  0  0  0  0  0  0  2 V2000
  146.7931  140.4926  153.8958 O   0  0  0  0  0  0  0  0  0  0  0  0
  147.8012  140.7547  154.5503 C   0  0  0  0  0  0  0  0  0  0  0  0
  149.0214  140.2085  154.2740 N   0  5  0  0  0  0  0  0  0  0  0  0
  150.1535  140.4852  154.9914 C   0  0  0  0  0  0  0  0  0  0  0  0
  151.2396  139.9705  154.7255 O   0  0  0  0  0  0  0  0  0  0  0  0
  150.0705  141.3559  156.0422 N   0  0  0  0  0  0  0  0  0  0  0  0
  151.2212  141.7060  156.8902 C   0  0  0  0  0  0  0  0  0  0  0  0
  150.9956  143.0134  157.6825 C   0  0  2  0  0  0  0  0  0  0  0  0
  151.4351  144.0963  156.8873 O   0  0  0  0  0  0  0  0  0  0  0  0
  151.6525  142.9998  159.0586 C   0  0  0  0  0  0  0  0  0  0  0  0
  152.3294  141.8446  159.5095 C   0  0  0  0  0  0  0  0  0  0  0  0
  152.9165  141.8166  160.7890 C   0  0  0  0  0  0  0  0  0  0  0  0
  152.8297  142.9432  161.6280 C   0  0  0  0  0  0  0  0  0  0  0  0
  153.3943  142.9167  162.8585 F   0  0  0  0  0  0  0  0  0  0  0  0
  152.1550  144.0972  161.1869 C   0  0  0  0  0  0  0  0  0  0  0  0
  151.5668  144.1276  159.9074 C   0  0  0  0  0  0  0  0  0  0  0  0
  150.9125  145.2437  159.5047 F   0  0  0  0  0  0  0  0  0  0  0  0
  148.8381  141.9477  156.3659 C   0  0  0  0  0  0  0  0  0  0  0  0
  147.7132  141.6857  155.6731 C   0  0  0  0  0  0  0  0  0  0  0  0
  146.2111  142.4244  156.1008 Cl  0  0  0  0  0  0  0  0  0  0  0  0
  151.4696  140.8949  157.5767 H   0  0  0  0  0  0  0  0  0  0  0  0
  152.1023  141.8118  156.2552 H   0  0  0  0  0  0  0  0  0  0  0  0
  149.9230  143.1594  157.8115 H   0  0  0  0  0  0  0  0  0  0  0  0
  150.6803  144.4914  156.4788 H   0  0  0  0  0  0  0  0  0  0  0  0
  152.3909  140.9705  158.8779 H   0  0  0  0  0  0  0  0  0  0  0  0
  153.4291  140.9286  161.1280 H   0  0  0  0  0  0  0  0  0  0  0  0
  152.0844  144.9599  161.8325 H   0  0  0  0  0  0  0  0  0  0  0  0
  148.8651  142.6186  157.2122 H   0  0  0  0  0  0  0  0  0  0  0  0
  1  2  2  0  0  0  0
  2 19  1  0  0  0  0
  2  3  1  0  0  0  0
  3  4  1  0  0  0  0
  4  5  2  0  0  0  0
  4  6  1  0  0  0  0
  6  7  1  0  0  0  0
  6 18  1  0  0  0  0
  7  8  1  0  0  0  0
  7 21  1  0  0  0  0
  7 22  1  0  0  0  0
  8  9  1  0  0  0  0
  8 10  1  0  0  0  0
  8 23  1  0  0  0  0
  9 24  1  0  0  0  0
 10 16  1  0  0  0  0
 10 11  2  0  0  0  0
 11 12  1  0  0  0  0
 11 25  1  0  0  0  0
 12 13  2  0  0  0  0
 12 26  1  0  0  0  0
 13 14  1  0  0  0  0
 13 15  1  0  0  0  0
 15 16  2  0  0  0  0
 15 27  1  0  0  0  0
 16 17  1  0  0  0  0
 18 19  2  0  0  0  0
 18 28  1  0  0  0  0
 19 20  1  0  0  0  0
M  CHG  1   3  -1
M  END
> <s_m_source_file>
AV-unprocessed.smi

> <i_m_source_file_index>
711

> <i_lp_mmshare_version>
43012

> <i_f3d_flags>
0

> <s_epik_input>
Tz1jMVtuSF1jKD1PKW4oW2NIXWMxQ2wpW0NIMl1bQ0BIXShbT0hdKWMyW2NIXVtjSF1jKEYpW2NIXWMyRg==

> <s_epik_cmdline>
J2VwaWtfcHl0aG9uJywgJy1waCcsICc3LjAnLCAnLXRuJywgJzgnLCAnLW1hJywgJzIwMCcsICctbWV0YWxfYmluZGluZycsICctaW1hZScsICc8aW5maWxlLm1hZT4nLCAnLW9tYWUnLCAnPG91dGZpbGUubWFlPic=

> <r_epik_Ionization_Penalty>
1.7979

> <r_epik_Ionization_Penalty_Charging>
3.23819e-08

> <r_epik_Ionization_Penalty_Neutral>
1.7979

> <r_epik_State_Penalty>
1.91135

> <r_epik_Charging_Adjusted_Penalty>
1.91135

> <i_epik_Tot_Q>
-1

> <i_epik_Tot_abs_Q>
1

> <r_epik_Metal_State_Penalty>
0.014155

> <b_epik_Metal_Only>
0

> <s_lp_Force_Field>
OPLS_2005

> <r_lp_Energy>
19.2938

> <b_lp_Chiralities_Consistent>
1

> <s_lp_Variant>
AV-unprocessed.smi:711-3

> <Gold.Version>
5.8.1

> <Gold.Id.Protein>
6NUR|6NUR_protein|mol2

> <Gold.PLP.Fitness>
49.4920

> <Gold.PLP.PLP>
-44.5314

> <Gold.PLP.part.hbond>
-2.0000

> <Gold.PLP.part.metal>
0.0000

> <Gold.PLP.part.buried>
-3.6214

> <Gold.PLP.part.nonpolar>
-38.0336

> <Gold.PLP.part.repulsive>
0.3440

> <Gold.PLP.ligand.clash>
0.2529

> <Gold.PLP.ligand.torsion>
0.6977

> <Gold.PLP.Chemscore.Hbond>
2.0000

> <Gold.PLP.Chemscore.CHOScore>
0.1953

> <Gold.PLP.Chemscore.Metal>
0.0000

> <Gold.Chemscore.Hbonds>
donor molecule, donor type, donor heavy atom, donor atom, acceptor molecule, acceptor atom, score
      L1  H     9    24       P1  8028  1.00
      P1  H  7989  7998       L1     5  0.95
      L1  C    18    28       P1  8028  0.20

> <Gold.PLP.Chemscore.Internal.Correction>
0.0229

> <Gold.Rescore>
     Score         DG    S(hbond)    S(metal)    S(lipo)     H(rot)  DE(clash)    DE(int)     intcor
     15.24     -16.37       1.94        0.00      88.33       2.32       0.18       0.95       ----

> <Gold.Chemscore.Fitness>
15.2418

> <Gold.Chemscore.DG>
-16.3688

> <Gold.Chemscore.ZeroCoef>
-5.4800

> <Gold.Chemscore.Hbond>
1.9415

> <Gold.Chemscore.Metal>
0.0000

> <Gold.Chemscore.Lipo>
88.3272

> <Gold.Chemscore.Internal_Hbond>
0.0000

> <Gold.Chemscore.DEClash>
0.1817

> <Gold.Chemscore.DEInternal>
0.9453

> <Gold.Chemscore.Rot>
2.3164

> <Gold.Chemscore.Internal.Correction>
   9.000000E+99

> <Gold.Chemscore.Hbonds>
donor molecule, donor type, donor heavy atom, donor atom, acceptor molecule, acceptor atom, score
      L1  H     9    24       P1  8028  0.98
      P1  H  7989  7998       L1     5  0.21

> <Gold.Chemscore.Hbond.Weighted>
-6.4846

> <Gold.Chemscore.Metal.Weighted>
-0.0000

> <Gold.Chemscore.Lipo.Weighted>
-10.3343

> <Gold.Chemscore.Internal_Hbond.Weighted>
0.0000

> <Gold.Chemscore.DEClash.Weighted>
0.1817

> <Gold.Chemscore.DEInternal.Weighted>
0.9453

> <Gold.Chemscore.Rot.Weighted>
5.9301

> <Gold.Chemscore.Internal.Correction.Weighted>
   9.000000E+99

> <Gold.Protein.RotatedTorsions>
[ 6907 6896 6895 6894 ] final   84.61 input  -60.11 | X-H torsion
[ 7974 7965 7964 7962 ] final  110.85 input  175.53 | X-H torsion
[ 8008 7997 7996 7995 ] final  -91.13 input   59.86 | X-H torsion
[ 10167 10162 10161 10158 ] final  116.87 input  -65.29 | X-H torsion
[ 10718 10713 10712 10709 ] final  -70.96 input   66.30 | X-H torsion
[ 10763 10752 10751 10750 ] final  119.05 input  -60.55 | X-H torsion
[ 11005 11000 10999 10996 ] final   88.19 input  -57.11 | X-H torsion

> <Gold.Protein.ActiveResidues>
 VAL166  LYS551  ARG553  GLY616  TRP617  ASP618  TYR619  PRO620  LYS621  CYS622 
 ASP623  PHE694  ASN695  SER759  ASP760  ASP761  ALA762  ILE779  LEU786  VAL792 
 PHE793  MET794  SER795  GLU796  ALA797  LYS798  CYS799  TRP800  GLU811  SER814 

> <Gold.Protein.RotatedAtoms>
  152.5356  134.2714  159.8972 H   0  0  0  0  0  0  0  0  0  0  0  0  # atno 6907 bound_to 6896
  151.2671  133.4267  159.2627 H   0  0  0  0  0  0  0  0  0  0  0  0  # atno 6908 bound_to 6896
  151.0401  134.9616  159.8213 H   0  0  0  0  0  0  0  0  0  0  0  0  # atno 6909 bound_to 6896
  145.2497  139.2745  143.4074 H   0  0  0  0  0  0  0  0  0  0  0  0  # atno 7974 bound_to 7965
  154.7069  140.0523  157.0513 H   0  0  0  0  0  0  0  0  0  0  0  0  # atno 8008 bound_to 7997
  155.0608  140.3189  155.4642 H   0  0  0  0  0  0  0  0  0  0  0  0  # atno 8009 bound_to 7997
  156.2777  140.2099  156.5734 H   0  0  0  0  0  0  0  0  0  0  0  0  # atno 8010 bound_to 7997
  139.6217  144.7102  151.2619 H   0  0  0  0  0  0  0  0  0  0  0  0  # atno 10167 bound_to 10162
  156.0384  130.4342  150.2373 H   0  0  0  0  0  0  0  0  0  0  0  0  # atno 10718 bound_to 10713
  153.5770  135.3491  155.2860 H   0  0  0  0  0  0  0  0  0  0  0  0  # atno 10763 bound_to 10752
  154.8673  135.4173  154.2662 H   0  0  0  0  0  0  0  0  0  0  0  0  # atno 10764 bound_to 10752
  153.3440  135.7051  153.6913 H   0  0  0  0  0  0  0  0  0  0  0  0  # atno 10765 bound_to 10752
  139.8902  134.8472  156.2966 H   0  0  0  0  0  0  0  0  0  0  0  0  # atno 11005 bound_to 11000
  146.3306  140.2884  142.8614 LP  0  0  0  0  0  0  0  0  0  0  0  0  # atno 17320 bound_to 7965
  144.9514  140.8182  143.5569 LP  0  0  0  0  0  0  0  0  0  0  0  0  # atno 17321 bound_to 7965
  140.7386  143.6642  150.8137 LP  0  0  0  0  0  0  0  0  0  0  0  0  # atno 17342 bound_to 10162
  140.0254  143.5498  152.2783 LP  0  0  0  0  0  0  0  0  0  0  0  0  # atno 17343 bound_to 10162
  157.0470  131.0052  151.3265 LP  0  0  0  0  0  0  0  0  0  0  0  0  # atno 17370 bound_to 10713
  157.5168  130.7973  149.7765 LP  0  0  0  0  0  0  0  0  0  0  0  0  # atno 17371 bound_to 10713
  140.9941  133.7191  156.0859 LP  0  0  0  0  0  0  0  0  0  0  0  0  # atno 17394 bound_to 11000
  140.7586  134.3965  157.5529 LP  0  0  0  0  0  0  0  0  0  0  0  0  # atno 17395 bound_to 11000

$$$$
