AV-unprocessed.smi:2727|AV-procd|sdf|10522|dock4
  -GOLD-   2272014563D 1   1.00000     0.00000
 Structure written by MMmdl.
 40 41  0  0  0  0  0  0  0  0  1 V2000
  152.2807  136.7575  155.6573 O   0  0  0  0  0  0  0  0  0  0  0  0
  151.3349  137.1060  154.9430 C   0  0  0  0  0  0  0  0  0  0  0  0
  151.1924  138.3790  154.5434 N   0  0  0  0  0  0  0  0  0  0  0  0
  152.0984  139.4740  154.8741 C   0  0  0  0  0  0  0  0  0  0  0  0
  151.4997  140.3996  155.9529 C   0  0  0  0  0  0  0  0  0  0  0  0
  152.1687  140.2554  157.3318 C   0  0  0  0  0  0  0  0  0  0  0  0
  153.1865  139.5678  157.4344 O   0  0  0  0  0  0  0  0  0  0  0  0
  151.6160  140.8804  158.4007 N   0  0  0  0  0  0  0  0  0  0  0  0
  150.4448  141.7535  158.2563 C   0  0  0  0  0  0  0  0  0  0  0  0
  150.8350  143.1762  157.8061 C   0  0  0  0  0  0  0  0  0  0  0  0
  152.1731  143.7162  158.3575 C   0  0  0  0  0  0  0  0  0  0  0  0
  152.4525  143.3984  159.8398 C   0  0  0  0  0  0  0  0  0  0  0  0
  153.0797  142.0064  160.0690 C   0  0  0  0  0  0  0  0  0  0  0  0
  152.1386  140.8234  159.7735 C   0  0  0  0  0  0  0  0  0  0  0  0
  150.3051  136.3292  154.4321 N   0  0  0  0  0  0  0  0  0  0  0  0
  150.3318  135.0418  154.5909 C   0  0  0  0  0  0  0  0  0  0  0  0
  149.3986  134.1160  154.1518 N   0  0  0  0  0  0  0  0  0  0  0  0
  149.8233  132.8718  154.5283 C   0  0  0  0  0  0  0  0  0  0  0  0
  150.9748  133.0070  155.1794 C   0  0  0  0  0  0  0  0  0  0  0  0
  151.3140  134.3251  155.2351 O   0  0  0  0  0  0  0  0  0  0  0  0
  150.4002  138.6035  153.9587 H   0  0  0  0  0  0  0  0  0  0  0  0
  153.0601  139.0703  155.1966 H   0  0  0  0  0  0  0  0  0  0  0  0
  152.2893  140.0378  153.9605 H   0  0  0  0  0  0  0  0  0  0  0  0
  151.5817  141.4372  155.6275 H   0  0  0  0  0  0  0  0  0  0  0  0
  150.4375  140.1796  156.0563 H   0  0  0  0  0  0  0  0  0  0  0  0
  149.7221  141.3259  157.5594 H   0  0  0  0  0  0  0  0  0  0  0  0
  149.9048  141.8219  159.2011 H   0  0  0  0  0  0  0  0  0  0  0  0
  150.8804  143.2065  156.7170 H   0  0  0  0  0  0  0  0  0  0  0  0
  150.0295  143.8567  158.0837 H   0  0  0  0  0  0  0  0  0  0  0  0
  152.9981  143.3427  157.7490 H   0  0  0  0  0  0  0  0  0  0  0  0
  152.1806  144.7977  158.2190 H   0  0  0  0  0  0  0  0  0  0  0  0
  153.1563  144.1416  160.2165 H   0  0  0  0  0  0  0  0  0  0  0  0
  151.5469  143.5187  160.4353 H   0  0  0  0  0  0  0  0  0  0  0  0
  153.9877  141.9173  159.4723 H   0  0  0  0  0  0  0  0  0  0  0  0
  153.4028  141.9359  161.1080 H   0  0  0  0  0  0  0  0  0  0  0  0
  151.3175  140.8278  160.4910 H   0  0  0  0  0  0  0  0  0  0  0  0
  152.6543  139.8833  159.9675 H   0  0  0  0  0  0  0  0  0  0  0  0
  148.5465  134.2824  153.6358 H   0  0  0  0  0  0  0  0  0  0  0  0
  149.2397  131.9972  154.2821 H   0  0  0  0  0  0  0  0  0  0  0  0
  151.6450  132.2969  155.6407 H   0  0  0  0  0  0  0  0  0  0  0  0
  1  2  2  0  0  0  0
  2 15  1  0  0  0  0
  2  3  1  0  0  0  0
  3  4  1  0  0  0  0
  3 21  1  0  0  0  0
  4  5  1  0  0  0  0
  4 22  1  0  0  0  0
  4 23  1  0  0  0  0
  5  6  1  0  0  0  0
  5 24  1  0  0  0  0
  5 25  1  0  0  0  0
  6  7  2  0  0  0  0
  6  8  1  0  0  0  0
  8 14  1  0  0  0  0
  8  9  1  0  0  0  0
  9 10  1  0  0  0  0
  9 26  1  0  0  0  0
  9 27  1  0  0  0  0
 10 11  1  0  0  0  0
 10 28  1  0  0  0  0
 10 29  1  0  0  0  0
 11 12  1  0  0  0  0
 11 30  1  0  0  0  0
 11 31  1  0  0  0  0
 12 13  1  0  0  0  0
 12 32  1  0  0  0  0
 12 33  1  0  0  0  0
 13 14  1  0  0  0  0
 13 34  1  0  0  0  0
 13 35  1  0  0  0  0
 14 36  1  0  0  0  0
 14 37  1  0  0  0  0
 15 16  2  0  0  0  0
 16 20  1  0  0  0  0
 16 17  1  0  0  0  0
 17 38  1  0  0  0  0
 17 18  1  0  0  0  0
 18 39  1  0  0  0  0
 18 19  2  0  0  0  0
 19 40  1  0  0  0  0
 19 20  1  0  0  0  0
M  END
> <s_m_source_file>
AV-unprocessed.smi

> <i_m_source_file_index>
2727

> <i_lp_mmshare_version>
43012

> <i_f3d_flags>
0

> <s_epik_input>
bzFbY0hdW2NIXW5jMVtOSF1DKD1PKVtOSF1bQ0gyXVtDSDJdQyg9TylOMltDSDJdW0NIMl1bQ0gyXVtDSDJdW0NIMl1bQ0gyXTI=

> <s_epik_cmdline>
J2VwaWtfcHl0aG9uJywgJy1waCcsICc3LjAnLCAnLXRuJywgJzgnLCAnLW1hJywgJzIwMCcsICctbWV0YWxfYmluZGluZycsICctaW1hZScsICc8aW5maWxlLm1hZT4nLCAnLW9tYWUnLCAnPG91dGZpbGUubWFlPic=

> <r_lp_tautomer_probability>
0.107061

> <r_epik_Ionization_Penalty>
0.376272

> <r_epik_Ionization_Penalty_Charging>
0.375918

> <r_epik_Ionization_Penalty_Neutral>
0.000353756

> <r_epik_State_Penalty>
2.48665

> <r_epik_Charging_Adjusted_Penalty>
2.86256

> <i_epik_Tot_Q>
0

> <i_epik_Tot_abs_Q>
0

> <r_epik_Metal_State_Penalty>
4.1171

> <b_epik_Metal_Only>
0

> <s_lp_Force_Field>
OPLS_2005

> <r_lp_Energy>
48.3689

> <b_lp_Chiralities_Consistent>
1

> <s_lp_Variant>
AV-unprocessed.smi:2727-2

> <Gold.Version>
5.8.1

> <Gold.Id.Protein>
6NUR|6NUR_protein|mol2

> <Gold.PLP.Fitness>
42.3325

> <Gold.PLP.PLP>
-37.3493

> <Gold.PLP.part.hbond>
-2.1591

> <Gold.PLP.part.metal>
0.0000

> <Gold.PLP.part.buried>
-3.0249

> <Gold.PLP.part.nonpolar>
-33.0576

> <Gold.PLP.part.repulsive>
0.9671

> <Gold.PLP.ligand.clash>
0.0000

> <Gold.PLP.ligand.torsion>
0.5177

> <Gold.PLP.Chemscore.Hbond>
2.0000

> <Gold.PLP.Chemscore.CHOScore>
0.0000

> <Gold.PLP.Chemscore.Metal>
0.0000

> <Gold.Chemscore.Hbonds>
donor molecule, donor type, donor heavy atom, donor atom, acceptor molecule, acceptor atom, score
      P1  H  7997  8009       L1     7  0.96
      P1  H 10752 10763       L1     1  0.93

> <Gold.PLP.Chemscore.Internal.Correction>
0.0186

> <Gold.Rescore>
     Score         DG    S(hbond)    S(metal)    S(lipo)     H(rot)  DE(clash)    DE(int)     intcor
     15.28     -17.33       1.93        0.00      83.32       1.70       0.00       2.05       ----

> <Gold.Chemscore.Fitness>
15.2762

> <Gold.Chemscore.DG>
-17.3265

> <Gold.Chemscore.ZeroCoef>
-5.4800

> <Gold.Chemscore.Hbond>
1.9332

> <Gold.Chemscore.Metal>
0.0000

> <Gold.Chemscore.Lipo>
83.3160

> <Gold.Chemscore.Internal_Hbond>
0.0000

> <Gold.Chemscore.DEClash>
0.0000

> <Gold.Chemscore.DEInternal>
2.0503

> <Gold.Chemscore.Rot>
1.7025

> <Gold.Chemscore.Internal.Correction>
   9.000000E+99

> <Gold.Chemscore.Hbonds>
donor molecule, donor type, donor heavy atom, donor atom, acceptor molecule, acceptor atom, score
      P1  H  7997  8009       L1     7  0.82
      P1  H 10752 10763       L1     1  0.35

> <Gold.Chemscore.Hbond.Weighted>
-6.4569

> <Gold.Chemscore.Metal.Weighted>
-0.0000

> <Gold.Chemscore.Lipo.Weighted>
-9.7480

> <Gold.Chemscore.Internal_Hbond.Weighted>
0.0000

> <Gold.Chemscore.DEClash.Weighted>
0.0000

> <Gold.Chemscore.DEInternal.Weighted>
2.0503

> <Gold.Chemscore.Rot.Weighted>
4.3584

> <Gold.Chemscore.Internal.Correction.Weighted>
   9.000000E+99

> <Gold.Protein.RotatedTorsions>
[ 6907 6896 6895 6894 ] final  -49.45 input  -60.11 | X-H torsion
[ 7974 7965 7964 7962 ] final    3.60 input  175.53 | X-H torsion
[ 8008 7997 7996 7995 ] final -179.58 input   59.86 | X-H torsion
[ 10167 10162 10161 10158 ] final  156.43 input  -65.29 | X-H torsion
[ 10718 10713 10712 10709 ] final  -92.82 input   66.30 | X-H torsion
[ 10763 10752 10751 10750 ] final   69.62 input  -60.55 | X-H torsion
[ 11005 11000 10999 10996 ] final -117.72 input  -57.11 | X-H torsion

> <Gold.Protein.ActiveResidues>
 VAL166  LYS551  ARG553  GLY616  TRP617  ASP618  TYR619  PRO620  LYS621  CYS622 
 ASP623  PHE694  ASN695  SER759  ASP760  ASP761  ALA762  ILE779  LEU786  VAL792 
 PHE793  MET794  SER795  GLU796  ALA797  LYS798  CYS799  TRP800  GLU811  SER814 

> <Gold.Protein.RotatedAtoms>
  150.8804  134.8194  159.7220 H   0  0  0  0  0  0  0  0  0  0  0  0  # atno 6907 bound_to 6896
  152.4774  134.4805  159.9674 H   0  0  0  0  0  0  0  0  0  0  0  0  # atno 6908 bound_to 6896
  151.4881  133.3492  159.2884 H   0  0  0  0  0  0  0  0  0  0  0  0  # atno 6909 bound_to 6896
  146.2445  140.0661  142.8365 H   0  0  0  0  0  0  0  0  0  0  0  0  # atno 7974 bound_to 7965
  156.0322  140.1284  157.0246 H   0  0  0  0  0  0  0  0  0  0  0  0  # atno 8008 bound_to 7997
  154.4354  140.1047  156.6186 H   0  0  0  0  0  0  0  0  0  0  0  0  # atno 8009 bound_to 7997
  155.5791  140.3467  155.4537 H   0  0  0  0  0  0  0  0  0  0  0  0  # atno 8010 bound_to 7997
  139.4821  144.5009  151.8170 H   0  0  0  0  0  0  0  0  0  0  0  0  # atno 10167 bound_to 10162
  156.0006  130.5002  150.5683 H   0  0  0  0  0  0  0  0  0  0  0  0  # atno 10718 bound_to 10713
  153.0297  135.5204  154.7316 H   0  0  0  0  0  0  0  0  0  0  0  0  # atno 10763 bound_to 10752
  154.6342  135.2904  155.0183 H   0  0  0  0  0  0  0  0  0  0  0  0  # atno 10764 bound_to 10752
  154.1124  135.6620  153.4940 H   0  0  0  0  0  0  0  0  0  0  0  0  # atno 10765 bound_to 10752
  141.0335  133.9944  157.3106 H   0  0  0  0  0  0  0  0  0  0  0  0  # atno 11005 bound_to 11000
  145.0857  140.9251  143.4798 LP  0  0  0  0  0  0  0  0  0  0  0  0  # atno 17320 bound_to 7965
  145.0823  139.2951  143.5777 LP  0  0  0  0  0  0  0  0  0  0  0  0  # atno 17321 bound_to 7965
  140.4502  144.1866  150.5897 LP  0  0  0  0  0  0  0  0  0  0  0  0  # atno 17342 bound_to 10162
  140.4593  143.2455  151.9242 LP  0  0  0  0  0  0  0  0  0  0  0  0  # atno 17343 bound_to 10162
  157.3582  131.0745  151.1658 LP  0  0  0  0  0  0  0  0  0  0  0  0  # atno 17370 bound_to 10713
  157.2452  130.6588  149.5907 LP  0  0  0  0  0  0  0  0  0  0  0  0  # atno 17371 bound_to 10713
  139.9224  135.0201  156.8114 LP  0  0  0  0  0  0  0  0  0  0  0  0  # atno 17394 bound_to 11000
  140.6363  133.9859  155.7686 LP  0  0  0  0  0  0  0  0  0  0  0  0  # atno 17395 bound_to 11000

$$$$
