AV-unprocessed.smi:357|AV-procd|sdf|2416|dock2
  -GOLD-   2262022353D 1   1.00000     0.00000
 Structure written by MMmdl.
 37 38  0  0  0  0  0  0  0  0  1 V2000
  150.3072  141.8782  156.2648 O   0  0  0  0  0  0  0  0  0  0  0  0
  150.0142  140.9276  155.5382 C   0  0  0  0  0  0  0  0  0  0  0  0
  148.7148  140.7933  154.8639 C   0  0  0  0  0  0  0  0  0  0  0  0
  147.5556  142.0569  155.1106 Cl  0  0  0  0  0  0  0  0  0  0  0  0
  148.4106  139.7263  154.0767 C   0  0  0  0  0  0  0  0  0  0  0  0
  147.1681  139.6287  153.4614 N   0  0  0  0  0  0  0  0  0  0  0  0
  146.6595  138.5773  152.5924 C   0  0  0  0  0  0  0  0  0  0  0  0
  146.3703  139.0904  151.1742 C   0  0  0  0  0  0  0  0  0  0  0  0
  146.2892  138.0098  150.2698 O   0  0  0  0  0  0  0  0  0  0  0  0
  149.4450  138.7126  153.9337 C   0  0  0  0  0  0  0  0  0  0  0  0
  150.5952  138.8026  154.5068 N   0  0  0  0  0  0  0  0  0  0  0  0
  150.8782  139.8978  155.2972 N   0  0  0  0  0  0  0  0  0  0  0  0
  152.2102  139.8646  155.9101 C   0  0  0  0  0  0  0  0  0  0  0  0
  152.2321  138.9582  157.1498 C   0  0  0  0  0  0  0  0  0  0  0  0
  153.2076  139.4502  158.0583 O   0  0  0  0  0  0  0  0  0  0  0  0
  152.8982  140.5685  158.8023 C   0  0  0  0  0  0  0  0  0  0  0  0
  153.7740  140.8970  159.8578 C   0  0  0  0  0  0  0  0  0  0  0  0
  153.5342  142.0218  160.6704 C   0  0  0  0  0  0  0  0  0  0  0  0
  152.4093  142.8334  160.4342 C   0  0  0  0  0  0  0  0  0  0  0  0
  152.1125  144.2120  161.4281 Cl  0  0  0  0  0  0  0  0  0  0  0  0
  151.5264  142.5173  159.3848 C   0  0  0  0  0  0  0  0  0  0  0  0
  151.7670  141.3926  158.5718 C   0  0  0  0  0  0  0  0  0  0  0  0
  146.5276  140.3949  153.6151 H   0  0  0  0  0  0  0  0  0  0  0  0
  147.4486  137.8274  152.5330 H   0  0  0  0  0  0  0  0  0  0  0  0
  145.7978  138.0683  153.0244 H   0  0  0  0  0  0  0  0  0  0  0  0
  145.4602  139.6905  151.1381 H   0  0  0  0  0  0  0  0  0  0  0  0
  147.1885  139.7302  150.8429 H   0  0  0  0  0  0  0  0  0  0  0  0
  145.4583  138.0545  149.8218 H   0  0  0  0  0  0  0  0  0  0  0  0
  149.1967  137.8554  153.3095 H   0  0  0  0  0  0  0  0  0  0  0  0
  152.9441  139.5058  155.1860 H   0  0  0  0  0  0  0  0  0  0  0  0
  152.5355  140.8719  156.1761 H   0  0  0  0  0  0  0  0  0  0  0  0
  151.2501  138.9500  157.6258 H   0  0  0  0  0  0  0  0  0  0  0  0
  152.4756  137.9371  156.8514 H   0  0  0  0  0  0  0  0  0  0  0  0
  154.6402  140.2799  160.0464 H   0  0  0  0  0  0  0  0  0  0  0  0
  154.2150  142.2599  161.4745 H   0  0  0  0  0  0  0  0  0  0  0  0
  150.6615  143.1376  159.2012 H   0  0  0  0  0  0  0  0  0  0  0  0
  151.0668  141.1835  157.7777 H   0  0  0  0  0  0  0  0  0  0  0  0
  1  2  2  0  0  0  0
  2 12  1  0  0  0  0
  2  3  1  0  0  0  0
  3  4  1  0  0  0  0
  3  5  2  0  0  0  0
  5  6  1  0  0  0  0
  5 10  1  0  0  0  0
  6  7  1  0  0  0  0
  6 23  1  0  0  0  0
  7  8  1  0  0  0  0
  7 24  1  0  0  0  0
  7 25  1  0  0  0  0
  8  9  1  0  0  0  0
  8 26  1  0  0  0  0
  8 27  1  0  0  0  0
  9 28  1  0  0  0  0
 10 11  2  0  0  0  0
 10 29  1  0  0  0  0
 11 12  1  0  0  0  0
 12 13  1  0  0  0  0
 13 14  1  0  0  0  0
 13 30  1  0  0  0  0
 13 31  1  0  0  0  0
 14 15  1  0  0  0  0
 14 32  1  0  0  0  0
 14 33  1  0  0  0  0
 15 16  1  0  0  0  0
 16 22  1  0  0  0  0
 16 17  2  0  0  0  0
 17 18  1  0  0  0  0
 17 34  1  0  0  0  0
 18 19  2  0  0  0  0
 18 35  1  0  0  0  0
 19 20  1  0  0  0  0
 19 21  1  0  0  0  0
 21 22  2  0  0  0  0
 21 36  1  0  0  0  0
 22 37  1  0  0  0  0
M  END
> <s_m_source_file>
AV-unprocessed.smi

> <i_m_source_file_index>
357

> <i_lp_mmshare_version>
43012

> <i_f3d_flags>
0

> <s_epik_input>
W09IXVtDSDJdW0NIMl1bTkhdYyhjKENsKWMxPU8pW2NIXW5uMVtDSDJdW0NIMl1PYzJbY0hdW2NIXWMoQ2wpW2NIXVtjSF0y

> <s_epik_cmdline>
J2VwaWtfcHl0aG9uJywgJy1waCcsICc3LjAnLCAnLXRuJywgJzgnLCAnLW1hJywgJzIwMCcsICctbWV0YWxfYmluZGluZycsICctaW1hZScsICc8aW5maWxlLm1hZT4nLCAnLW9tYWUnLCAnPG91dGZpbGUubWFlPic=

> <r_lp_tautomer_probability>
1

> <r_epik_Ionization_Penalty>
2.22594e-05

> <r_epik_Ionization_Penalty_Charging>
1.05597e-09

> <r_epik_Ionization_Penalty_Neutral>
2.22583e-05

> <r_epik_State_Penalty>
-0

> <r_epik_Charging_Adjusted_Penalty>
1.05597e-09

> <i_epik_Tot_Q>
0

> <i_epik_Tot_abs_Q>
0

> <r_epik_Metal_State_Penalty>
-0

> <b_epik_Metal_Only>
0

> <s_lp_Force_Field>
OPLS_2005

> <r_lp_Energy>
32.065

> <b_lp_Chiralities_Consistent>
1

> <s_lp_Variant>
AV-unprocessed.smi:357-1

> <Gold.Version>
5.8.1

> <Gold.Id.Protein>
6NUR|6NUR_protein|mol2

> <Gold.PLP.Fitness>
55.0159

> <Gold.PLP.PLP>
-45.2485

> <Gold.PLP.part.hbond>
-3.1173

> <Gold.PLP.part.metal>
0.0000

> <Gold.PLP.part.buried>
2.0743

> <Gold.PLP.part.nonpolar>
-43.8554

> <Gold.PLP.part.repulsive>
0.2560

> <Gold.PLP.ligand.clash>
0.0000

> <Gold.PLP.ligand.torsion>
0.7336

> <Gold.PLP.Chemscore.Hbond>
2.7120

> <Gold.PLP.Chemscore.CHOScore>
1.0000

> <Gold.PLP.Chemscore.Metal>
0.0000

> <Gold.Chemscore.Hbonds>
donor molecule, donor type, donor heavy atom, donor atom, acceptor molecule, acceptor atom, score
      L1  H     9    28       P1 10171  0.99
      P1  H  7954  7966       L1     9  0.68
      P1  H  7997  8010       L1    15  1.00
      L1  C    10    29       P1  7948  1.00

> <Gold.PLP.Chemscore.Internal.Correction>
0.0986

> <Gold.Rescore>
     Score         DG    S(hbond)    S(metal)    S(lipo)     H(rot)  DE(clash)    DE(int)     intcor
     14.67     -17.49       1.30        0.00     124.49       2.70       1.09       1.73       ----

> <Gold.Chemscore.Fitness>
14.6719

> <Gold.Chemscore.DG>
-17.4878

> <Gold.Chemscore.ZeroCoef>
-5.4800

> <Gold.Chemscore.Hbond>
1.3038

> <Gold.Chemscore.Metal>
0.0000

> <Gold.Chemscore.Lipo>
124.4880

> <Gold.Chemscore.Internal_Hbond>
0.0000

> <Gold.Chemscore.DEClash>
1.0897

> <Gold.Chemscore.DEInternal>
1.7262

> <Gold.Chemscore.Rot>
2.6999

> <Gold.Chemscore.Internal.Correction>
   9.000000E+99

> <Gold.Chemscore.Hbonds>
donor molecule, donor type, donor heavy atom, donor atom, acceptor molecule, acceptor atom, score
      L1  H     9    28       P1 10171  0.93
      P1  H  7954  7966       L1     9  0.14
      P1  H  7997  8010       L1    15  0.18

> <Gold.Chemscore.Hbond.Weighted>
-4.3545

> <Gold.Chemscore.Metal.Weighted>
-0.0000

> <Gold.Chemscore.Lipo.Weighted>
-14.5651

> <Gold.Chemscore.Internal_Hbond.Weighted>
0.0000

> <Gold.Chemscore.DEClash.Weighted>
1.0897

> <Gold.Chemscore.DEInternal.Weighted>
1.7262

> <Gold.Chemscore.Rot.Weighted>
6.9118

> <Gold.Chemscore.Internal.Correction.Weighted>
   9.000000E+99

> <Gold.Protein.RotatedTorsions>
[ 6907 6896 6895 6894 ] final  -91.14 input  -60.11 | X-H torsion
[ 7974 7965 7964 7962 ] final  154.68 input  175.53 | X-H torsion
[ 8008 7997 7996 7995 ] final   38.75 input   59.86 | X-H torsion
[ 10167 10162 10161 10158 ] final  -59.25 input  -65.29 | X-H torsion
[ 10718 10713 10712 10709 ] final  -56.31 input   66.30 | X-H torsion
[ 10763 10752 10751 10750 ] final  147.13 input  -60.55 | X-H torsion
[ 11005 11000 10999 10996 ] final -165.44 input  -57.11 | X-H torsion

> <Gold.Protein.ActiveResidues>
 VAL166  LYS551  ARG553  GLY616  TRP617  ASP618  TYR619  PRO620  LYS621  CYS622 
 ASP623  PHE694  ASN695  SER759  ASP760  ASP761  ALA762  ILE779  LEU786  VAL792 
 PHE793  MET794  SER795  GLU796  ALA797  LYS798  CYS799  TRP800  GLU811  SER814 

> <Gold.Protein.RotatedAtoms>
  150.6889  134.2323  159.4439 H   0  0  0  0  0  0  0  0  0  0  0  0  # atno 6907 bound_to 6896
  152.0273  134.9786  160.0581 H   0  0  0  0  0  0  0  0  0  0  0  0  # atno 6908 bound_to 6896
  152.1339  133.4389  159.4771 H   0  0  0  0  0  0  0  0  0  0  0  0  # atno 6909 bound_to 6896
  144.8073  139.6966  143.6156 H   0  0  0  0  0  0  0  0  0  0  0  0  # atno 7974 bound_to 7965
  155.2254  140.3334  155.4310 H   0  0  0  0  0  0  0  0  0  0  0  0  # atno 8008 bound_to 7997
  156.2316  140.1853  156.7273 H   0  0  0  0  0  0  0  0  0  0  0  0  # atno 8009 bound_to 7997
  154.5988  140.0626  156.9326 H   0  0  0  0  0  0  0  0  0  0  0  0  # atno 8010 bound_to 7997
  140.6147  143.2398  151.5627 H   0  0  0  0  0  0  0  0  0  0  0  0  # atno 10167 bound_to 10162
  156.1299  130.4160  150.0288 H   0  0  0  0  0  0  0  0  0  0  0  0  # atno 10718 bound_to 10713
  154.0332  135.2896  155.3365 H   0  0  0  0  0  0  0  0  0  0  0  0  # atno 10763 bound_to 10752
  154.6975  135.5202  153.8482 H   0  0  0  0  0  0  0  0  0  0  0  0  # atno 10764 bound_to 10752
  153.0631  135.6621  154.0543 H   0  0  0  0  0  0  0  0  0  0  0  0  # atno 10765 bound_to 10752
  140.5757  134.5193  157.5170 H   0  0  0  0  0  0  0  0  0  0  0  0  # atno 11005 bound_to 11000
  146.2366  139.5918  142.9519 LP  0  0  0  0  0  0  0  0  0  0  0  0  # atno 17320 bound_to 7965
  145.5408  141.0421  143.2332 LP  0  0  0  0  0  0  0  0  0  0  0  0  # atno 17321 bound_to 7965
  139.5389  144.2704  152.1309 LP  0  0  0  0  0  0  0  0  0  0  0  0  # atno 17342 bound_to 10162
  140.1910  144.4751  150.6479 LP  0  0  0  0  0  0  0  0  0  0  0  0  # atno 17343 bound_to 10162
  156.8203  130.9356  151.3641 LP  0  0  0  0  0  0  0  0  0  0  0  0  # atno 17370 bound_to 10713
  157.6477  130.8858  149.9572 LP  0  0  0  0  0  0  0  0  0  0  0  0  # atno 17371 bound_to 10713
  139.9341  134.7909  156.0851 LP  0  0  0  0  0  0  0  0  0  0  0  0  # atno 17394 bound_to 11000
  141.1028  133.6671  156.2794 LP  0  0  0  0  0  0  0  0  0  0  0  0  # atno 17395 bound_to 11000

$$$$
