AV-unprocessed.smi:2550|AV-procd|sdf|10012|dock5
  -GOLD-   2272014 53D 1   1.00000     0.00000
 Structure written by MMmdl.
 27 28  0  0  0  0  0  0  0  0  1 V2000
  147.4965  141.7311  154.6023 C   0  0  0  0  0  0  0  0  0  0  0  0
  148.7381  140.8436  154.4160 C   0  0  0  0  0  0  0  0  0  0  0  0
  148.3711  139.3568  154.2815 C   0  0  0  0  0  0  0  0  0  0  0  0
  149.3487  141.2331  153.1997 O   0  0  0  0  0  0  0  0  0  0  0  0
  149.7569  141.0713  155.5072 C   0  0  0  0  0  0  0  0  0  0  0  0
  149.7086  141.8821  156.6095 C   0  0  0  0  0  0  0  0  0  0  0  0
  150.9169  141.6553  157.2327 N   0  0  0  0  0  0  0  0  0  0  0  0
  151.4312  142.2998  158.4045 C   0  0  0  0  0  0  0  0  0  0  0  0
  151.8703  143.7662  158.3756 C   0  0  0  0  0  0  0  0  0  0  0  0
  152.9200  143.3872  159.3062 N   0  0  0  0  0  0  0  0  0  0  0  0
  152.8477  141.9957  158.8945 C   0  0  0  0  0  0  0  0  0  0  0  0
  151.6860  140.7934  156.5284 N   0  0  0  0  0  0  0  0  0  0  0  0
  150.9920  140.4181  155.5005 N   0  0  0  0  0  0  0  0  0  0  0  0
  146.9761  141.4915  155.5301 H   0  0  0  0  0  0  0  0  0  0  0  0
  146.7864  141.5989  153.7852 H   0  0  0  0  0  0  0  0  0  0  0  0
  147.7657  142.7874  154.6393 H   0  0  0  0  0  0  0  0  0  0  0  0
  147.8998  138.9829  155.1911 H   0  0  0  0  0  0  0  0  0  0  0  0
  149.2550  138.7459  154.0936 H   0  0  0  0  0  0  0  0  0  0  0  0
  147.6734  139.1919  153.4597 H   0  0  0  0  0  0  0  0  0  0  0  0
  149.2346  140.5371  152.5711 H   0  0  0  0  0  0  0  0  0  0  0  0
  148.9584  142.5624  156.9845 H   0  0  0  0  0  0  0  0  0  0  0  0
  150.6977  142.1260  159.1948 H   0  0  0  0  0  0  0  0  0  0  0  0
  152.2731  144.1003  157.4181 H   0  0  0  0  0  0  0  0  0  0  0  0
  151.1394  144.4615  158.7891 H   0  0  0  0  0  0  0  0  0  0  0  0
  153.8084  143.8102  159.0776 H   0  0  0  0  0  0  0  0  0  0  0  0
  152.8935  141.2850  159.7201 H   0  0  0  0  0  0  0  0  0  0  0  0
  153.5595  141.7640  158.1007 H   0  0  0  0  0  0  0  0  0  0  0  0
  1  2  1  0  0  0  0
  1 14  1  0  0  0  0
  1 15  1  0  0  0  0
  1 16  1  0  0  0  0
  2  3  1  0  0  0  0
  2  4  1  0  0  0  0
  2  5  1  0  0  0  0
  3 17  1  0  0  0  0
  3 18  1  0  0  0  0
  3 19  1  0  0  0  0
  4 20  1  0  0  0  0
  5 13  1  0  0  0  0
  5  6  2  0  0  0  0
  6  7  1  0  0  0  0
  6 21  1  0  0  0  0
  7  8  1  0  0  0  0
  7 12  1  0  0  0  0
  8 11  1  0  0  0  0
  8  9  1  0  0  0  0
  8 22  1  0  0  0  0
  9 10  1  0  0  0  0
  9 23  1  0  0  0  0
  9 24  1  0  0  0  0
 10 11  1  0  0  0  0
 10 25  1  0  0  0  0
 11 26  1  0  0  0  0
 11 27  1  0  0  0  0
 12 13  2  0  0  0  0
M  END
> <s_m_source_file>
AV-unprocessed.smi

> <i_m_source_file_index>
2550

> <i_lp_mmshare_version>
43012

> <i_f3d_flags>
0

> <s_epik_input>
W0NIM11DKFtDSDNdKShbT0hdKWMxW2NIXW4obm4xKVtDSF0yW0NIMl1bTkhdW0NIMl0y

> <s_epik_cmdline>
J2VwaWtfcHl0aG9uJywgJy1waCcsICc3LjAnLCAnLXRuJywgJzgnLCAnLW1hJywgJzIwMCcsICctbWV0YWxfYmluZGluZycsICctaW1hZScsICc8aW5maWxlLm1hZT4nLCAnLW9tYWUnLCAnPG91dGZpbGUubWFlPic=

> <r_lp_tautomer_probability>
1

> <r_epik_Ionization_Penalty>
0.705036

> <r_epik_Ionization_Penalty_Charging>
0

> <r_epik_Ionization_Penalty_Neutral>
0.705036

> <r_epik_State_Penalty>
0.727806

> <r_epik_Charging_Adjusted_Penalty>
0.727806

> <i_epik_Tot_Q>
0

> <i_epik_Tot_abs_Q>
0

> <r_epik_Metal_State_Penalty>
0.727613

> <b_epik_Metal_Only>
0

> <s_lp_Force_Field>
OPLS_2005

> <r_lp_Energy>
8.86137

> <b_lp_Chiralities_Consistent>
1

> <s_lp_Variant>
AV-unprocessed.smi:2550-2

> <Gold.Version>
5.8.1

> <Gold.Id.Protein>
6NUR|6NUR_protein|mol2

> <Gold.PLP.Fitness>
35.0697

> <Gold.PLP.PLP>
-25.4051

> <Gold.PLP.part.hbond>
-3.2472

> <Gold.PLP.part.metal>
0.0000

> <Gold.PLP.part.buried>
-2.4183

> <Gold.PLP.part.nonpolar>
-19.4183

> <Gold.PLP.part.repulsive>
0.0302

> <Gold.PLP.ligand.clash>
0.0000

> <Gold.PLP.ligand.torsion>
0.1904

> <Gold.PLP.Chemscore.Hbond>
2.6010

> <Gold.PLP.Chemscore.CHOScore>
0.6515

> <Gold.PLP.Chemscore.Metal>
0.0000

> <Gold.Chemscore.Hbonds>
donor molecule, donor type, donor heavy atom, donor atom, acceptor molecule, acceptor atom, score
      L1  H     4    20       P1  7957  0.88
      P1  H  7989  7998       L1    13  0.70
      P1  H  8011  8017       L1     4  1.00
      L1  C     6    21       P1  8028  0.65

> <Gold.PLP.Chemscore.Internal.Correction>
0.2882

> <Gold.Rescore>
     Score         DG    S(hbond)    S(metal)    S(lipo)     H(rot)  DE(clash)    DE(int)     intcor
     13.29     -13.47       1.46        0.00      64.37       1.73       0.01       0.17       ----

> <Gold.Chemscore.Fitness>
13.2869

> <Gold.Chemscore.DG>
-13.4660

> <Gold.Chemscore.ZeroCoef>
-5.4800

> <Gold.Chemscore.Hbond>
1.4618

> <Gold.Chemscore.Metal>
0.0000

> <Gold.Chemscore.Lipo>
64.3693

> <Gold.Chemscore.Internal_Hbond>
0.0000

> <Gold.Chemscore.DEClash>
0.0108

> <Gold.Chemscore.DEInternal>
0.1684

> <Gold.Chemscore.Rot>
1.7295

> <Gold.Chemscore.Internal.Correction>
   9.000000E+99

> <Gold.Chemscore.Hbonds>
donor molecule, donor type, donor heavy atom, donor atom, acceptor molecule, acceptor atom, score
      L1  H     4    20       P1  7957  0.81
      P1  H  7989  7998       L1    13  0.17
      P1  H  8011  8017       L1     4  0.37

> <Gold.Chemscore.Hbond.Weighted>
-4.8823

> <Gold.Chemscore.Metal.Weighted>
-0.0000

> <Gold.Chemscore.Lipo.Weighted>
-7.5312

> <Gold.Chemscore.Internal_Hbond.Weighted>
0.0000

> <Gold.Chemscore.DEClash.Weighted>
0.0108

> <Gold.Chemscore.DEInternal.Weighted>
0.1684

> <Gold.Chemscore.Rot.Weighted>
4.4275

> <Gold.Chemscore.Internal.Correction.Weighted>
   9.000000E+99

> <Gold.Protein.RotatedTorsions>
[ 6907 6896 6895 6894 ] final -117.87 input  -60.11 | X-H torsion
[ 7974 7965 7964 7962 ] final   17.91 input  175.53 | X-H torsion
[ 8008 7997 7996 7995 ] final -154.97 input   59.86 | X-H torsion
[ 10167 10162 10161 10158 ] final  -89.38 input  -65.29 | X-H torsion
[ 10718 10713 10712 10709 ] final  -61.08 input   66.30 | X-H torsion
[ 10763 10752 10751 10750 ] final   12.40 input  -60.55 | X-H torsion
[ 11005 11000 10999 10996 ] final  -92.89 input  -57.11 | X-H torsion

> <Gold.Protein.ActiveResidues>
 VAL166  LYS551  ARG553  GLY616  TRP617  ASP618  TYR619  PRO620  LYS621  CYS622 
 ASP623  PHE694  ASN695  SER759  ASP760  ASP761  ALA762  ILE779  LEU786  VAL792 
 PHE793  MET794  SER795  GLU796  ALA797  LYS798  CYS799  TRP800  GLU811  SER814 

> <Gold.Protein.RotatedAtoms>
  150.8172  133.8315  159.3154 H   0  0  0  0  0  0  0  0  0  0  0  0  # atno 6907 bound_to 6896
  151.6084  135.1040  160.0085 H   0  0  0  0  0  0  0  0  0  0  0  0  # atno 6908 bound_to 6896
  152.4263  133.7161  159.6563 H   0  0  0  0  0  0  0  0  0  0  0  0  # atno 6909 bound_to 6896
  146.2203  139.8533  142.8618 H   0  0  0  0  0  0  0  0  0  0  0  0  # atno 7974 bound_to 7965
  155.6946  140.0759  157.2434 H   0  0  0  0  0  0  0  0  0  0  0  0  # atno 8008 bound_to 7997
  154.4083  140.1658  156.2177 H   0  0  0  0  0  0  0  0  0  0  0  0  # atno 8009 bound_to 7997
  155.9421  140.3383  155.6339 H   0  0  0  0  0  0  0  0  0  0  0  0  # atno 8010 bound_to 7997
  140.3654  143.2821  151.9565 H   0  0  0  0  0  0  0  0  0  0  0  0  # atno 10167 bound_to 10162
  156.0946  130.4195  150.0944 H   0  0  0  0  0  0  0  0  0  0  0  0  # atno 10718 bound_to 10713
  153.1826  135.6830  153.8457 H   0  0  0  0  0  0  0  0  0  0  0  0  # atno 10763 bound_to 10752
  153.7784  135.3186  155.3363 H   0  0  0  0  0  0  0  0  0  0  0  0  # atno 10764 bound_to 10752
  154.8069  135.4742  154.0511 H   0  0  0  0  0  0  0  0  0  0  0  0  # atno 10765 bound_to 10752
  141.1511  133.7851  157.0084 H   0  0  0  0  0  0  0  0  0  0  0  0  # atno 11005 bound_to 11000
  145.2779  141.0129  143.3734 LP  0  0  0  0  0  0  0  0  0  0  0  0  # atno 17320 bound_to 7965
  144.9173  139.4455  143.6558 LP  0  0  0  0  0  0  0  0  0  0  0  0  # atno 17321 bound_to 7965
  139.4809  144.5955  151.7697 LP  0  0  0  0  0  0  0  0  0  0  0  0  # atno 17342 bound_to 10162
  140.5086  144.1059  150.5989 LP  0  0  0  0  0  0  0  0  0  0  0  0  # atno 17343 bound_to 10162
  156.8946  130.9600  151.3584 LP  0  0  0  0  0  0  0  0  0  0  0  0  # atno 17370 bound_to 10713
  157.6104  130.8578  149.8942 LP  0  0  0  0  0  0  0  0  0  0  0  0  # atno 17371 bound_to 10713
  140.0894  134.9601  157.1752 LP  0  0  0  0  0  0  0  0  0  0  0  0  # atno 17394 bound_to 11000
  140.3467  134.2644  155.7204 LP  0  0  0  0  0  0  0  0  0  0  0  0  # atno 17395 bound_to 11000

$$$$
