AV-unprocessed.smi:1027|AV-procd|sdf|4470|dock6
  -GOLD-   22720 2443D 1   1.00000     0.00000
 Structure written by MMmdl.
 35 36  0  0  0  0  0  0  0  0  1 V2000
  145.2611  135.7343  150.8006 C   0  0  0  0  0  0  0  0  0  0  0  0
  144.9186  135.1877  152.2006 C   0  0  0  0  0  0  0  0  0  0  0  0
  143.4722  134.6604  152.2031 C   0  0  0  0  0  0  0  0  0  0  0  0
  145.1670  136.2341  153.3194 C   0  0  1  0  0  0  0  0  0  0  0  0
  144.8724  135.6960  154.7327 C   0  0  0  0  0  0  0  0  0  0  0  0
  146.5512  136.7052  153.2736 N   0  0  0  0  0  0  0  0  0  0  0  0
  147.0828  137.6425  154.0723 C   0  0  0  0  0  0  0  0  0  0  0  0
  146.4549  138.2095  154.9668 O   0  0  0  0  0  0  0  0  0  0  0  0
  148.3717  137.8693  153.7636 N   0  0  0  0  0  0  0  0  0  0  0  0
  149.2735  138.7833  154.3698 C   0  0  0  0  0  0  0  0  0  0  0  0
  150.6040  138.7270  154.2203 N   0  0  0  0  0  0  0  0  0  0  0  0
  151.2470  139.7393  154.9183 N   0  0  0  0  0  0  0  0  0  0  0  0
  150.3883  140.5285  155.5747 C   0  0  0  0  0  0  0  0  0  0  0  0
  150.8430  141.6872  156.3979 C   0  0  0  0  0  0  0  0  0  0  0  0
  151.7588  141.4803  157.5823 C   0  0  0  0  0  0  0  0  0  0  0  0
  150.3315  141.9102  157.8044 C   0  0  0  0  0  0  0  0  0  0  0  0
  148.6933  140.0896  155.3879 S   0  0  0  0  0  0  0  0  0  0  0  0
  144.6741  136.6236  150.5696 H   0  0  0  0  0  0  0  0  0  0  0  0
  145.0551  134.9927  150.0283 H   0  0  0  0  0  0  0  0  0  0  0  0
  146.3149  135.9984  150.7116 H   0  0  0  0  0  0  0  0  0  0  0  0
  145.5750  134.3355  152.3831 H   0  0  0  0  0  0  0  0  0  0  0  0
  142.7540  135.4732  152.0903 H   0  0  0  0  0  0  0  0  0  0  0  0
  143.2349  134.1277  153.1232 H   0  0  0  0  0  0  0  0  0  0  0  0
  143.3090  133.9598  151.3837 H   0  0  0  0  0  0  0  0  0  0  0  0
  144.5038  137.0812  153.1338 H   0  0  0  0  0  0  0  0  0  0  0  0
  143.8198  135.4449  154.8587 H   0  0  0  0  0  0  0  0  0  0  0  0
  145.1104  136.4387  155.4949 H   0  0  0  0  0  0  0  0  0  0  0  0
  145.4591  134.8024  154.9474 H   0  0  0  0  0  0  0  0  0  0  0  0
  147.1444  136.2920  152.5690 H   0  0  0  0  0  0  0  0  0  0  0  0
  148.7536  137.3242  153.0049 H   0  0  0  0  0  0  0  0  0  0  0  0
  151.0080  142.5619  155.7716 H   0  0  0  0  0  0  0  0  0  0  0  0
  152.0212  140.4576  157.8465 H   0  0  0  0  0  0  0  0  0  0  0  0
  152.5394  142.2200  157.7478 H   0  0  0  0  0  0  0  0  0  0  0  0
  150.1597  142.9377  158.1189 H   0  0  0  0  0  0  0  0  0  0  0  0
  149.6528  141.1738  158.2296 H   0  0  0  0  0  0  0  0  0  0  0  0
  1  2  1  0  0  0  0
  1 18  1  0  0  0  0
  1 19  1  0  0  0  0
  1 20  1  0  0  0  0
  2  3  1  0  0  0  0
  2  4  1  0  0  0  0
  2 21  1  0  0  0  0
  3 22  1  0  0  0  0
  3 23  1  0  0  0  0
  3 24  1  0  0  0  0
  4  5  1  0  0  0  0
  4  6  1  0  0  0  0
  4 25  1  0  0  0  0
  5 26  1  0  0  0  0
  5 27  1  0  0  0  0
  5 28  1  0  0  0  0
  6  7  1  0  0  0  0
  6 29  1  0  0  0  0
  7  8  2  0  0  0  0
  7  9  1  0  0  0  0
  9 10  1  0  0  0  0
  9 30  1  0  0  0  0
 10 17  1  0  0  0  0
 10 11  2  0  0  0  0
 11 12  1  0  0  0  0
 12 13  2  0  0  0  0
 13 14  1  0  0  0  0
 13 17  1  0  0  0  0
 14 16  1  0  0  0  0
 14 15  1  0  0  0  0
 14 31  1  0  0  0  0
 15 16  1  0  0  0  0
 15 32  1  0  0  0  0
 15 33  1  0  0  0  0
 16 34  1  0  0  0  0
 16 35  1  0  0  0  0
M  END
> <s_m_source_file>
AV-unprocessed.smi

> <i_m_source_file_index>
1027

> <i_lp_mmshare_version>
43012

> <i_f3d_flags>
0

> <s_epik_input>
W0NIM11bQ0hdKFtDSDNdKVtDQEhdKFtDSDNdKVtOSF1DKD1PKVtOSF1jMW5uYyhzMSlbQ0hdMltDSDJdW0NIMl0y

> <s_epik_cmdline>
J2VwaWtfcHl0aG9uJywgJy1waCcsICc3LjAnLCAnLXRuJywgJzgnLCAnLW1hJywgJzIwMCcsICctbWV0YWxfYmluZGluZycsICctaW1hZScsICc8aW5maWxlLm1hZT4nLCAnLW9tYWUnLCAnPG91dGZpbGUubWFlPic=

> <r_lp_tautomer_probability>
1

> <r_epik_Ionization_Penalty>
0.000943246

> <r_epik_Ionization_Penalty_Charging>
0

> <r_epik_Ionization_Penalty_Neutral>
0.000943246

> <r_epik_State_Penalty>
-0

> <r_epik_Charging_Adjusted_Penalty>
0

> <i_epik_Tot_Q>
0

> <i_epik_Tot_abs_Q>
0

> <r_epik_Metal_State_Penalty>
0.281646

> <b_epik_Metal_Only>
0

> <s_lp_Force_Field>
OPLS_2005

> <r_lp_Energy>
3.72906

> <b_lp_Chiralities_Consistent>
1

> <s_lp_Variant>
AV-unprocessed.smi:1027-2

> <Gold.Version>
5.8.1

> <Gold.Id.Protein>
6NUR|6NUR_protein|mol2

> <Gold.PLP.Fitness>
31.9461

> <Gold.PLP.PLP>
-23.4573

> <Gold.PLP.part.hbond>
-3.0000

> <Gold.PLP.part.metal>
0.0000

> <Gold.PLP.part.buried>
-5.6826

> <Gold.PLP.part.nonpolar>
-16.0608

> <Gold.PLP.part.repulsive>
0.3359

> <Gold.PLP.ligand.clash>
0.0000

> <Gold.PLP.ligand.torsion>
0.1987

> <Gold.PLP.Chemscore.Hbond>
2.9120

> <Gold.PLP.Chemscore.CHOScore>
0.0000

> <Gold.PLP.Chemscore.Metal>
0.0000

> <Gold.Chemscore.Hbonds>
donor molecule, donor type, donor heavy atom, donor atom, acceptor molecule, acceptor atom, score
      L1  H     6    29       P1  7948  0.91
      L1  H     9    30       P1  7948  1.00
      P1  H  7989  7998       L1    12  0.90

> <Gold.PLP.Chemscore.Internal.Correction>
0.1502

> <Gold.Rescore>
     Score         DG    S(hbond)    S(metal)    S(lipo)     H(rot)  DE(clash)    DE(int)     intcor
     13.09     -14.67       1.96        0.00      52.95       1.39       0.19       1.38       ----

> <Gold.Chemscore.Fitness>
13.0943

> <Gold.Chemscore.DG>
-14.6731

> <Gold.Chemscore.ZeroCoef>
-5.4800

> <Gold.Chemscore.Hbond>
1.9621

> <Gold.Chemscore.Metal>
0.0000

> <Gold.Chemscore.Lipo>
52.9532

> <Gold.Chemscore.Internal_Hbond>
0.0000

> <Gold.Chemscore.DEClash>
0.1950

> <Gold.Chemscore.DEInternal>
1.3839

> <Gold.Chemscore.Rot>
1.3890

> <Gold.Chemscore.Internal.Correction>
   9.000000E+99

> <Gold.Chemscore.Hbonds>
donor molecule, donor type, donor heavy atom, donor atom, acceptor molecule, acceptor atom, score
      L1  H     6    29       P1  7948  0.88
      L1  H     9    30       P1  7948  0.97
      P1  H  7989  7998       L1    12  0.05

> <Gold.Chemscore.Hbond.Weighted>
-6.5535

> <Gold.Chemscore.Metal.Weighted>
-0.0000

> <Gold.Chemscore.Lipo.Weighted>
-6.1955

> <Gold.Chemscore.Internal_Hbond.Weighted>
0.0000

> <Gold.Chemscore.DEClash.Weighted>
0.1950

> <Gold.Chemscore.DEInternal.Weighted>
1.3839

> <Gold.Chemscore.Rot.Weighted>
3.5559

> <Gold.Chemscore.Internal.Correction.Weighted>
   9.000000E+99

> <Gold.Protein.RotatedTorsions>
[ 6907 6896 6895 6894 ] final  -53.13 input  -60.11 | X-H torsion
[ 7974 7965 7964 7962 ] final -169.93 input  175.53 | X-H torsion
[ 8008 7997 7996 7995 ] final   83.99 input   59.86 | X-H torsion
[ 10167 10162 10161 10158 ] final  -21.28 input  -65.29 | X-H torsion
[ 10718 10713 10712 10709 ] final   42.95 input   66.30 | X-H torsion
[ 10763 10752 10751 10750 ] final  138.98 input  -60.55 | X-H torsion
[ 11005 11000 10999 10996 ] final  157.14 input  -57.11 | X-H torsion

> <Gold.Protein.ActiveResidues>
 VAL166  LYS551  ARG553  GLY616  TRP617  ASP618  TYR619  PRO620  LYS621  CYS622 
 ASP623  PHE694  ASN695  SER759  ASP760  ASP761  ALA762  ILE779  LEU786  VAL792 
 PHE793  MET794  SER795  GLU796  ALA797  LYS798  CYS799  TRP800  GLU811  SER814 

> <Gold.Protein.RotatedAtoms>
  150.8454  134.7761  159.6965 H   0  0  0  0  0  0  0  0  0  0  0  0  # atno 6907 bound_to 6896
  152.4532  134.5345  159.9830 H   0  0  0  0  0  0  0  0  0  0  0  0  # atno 6908 bound_to 6896
  151.5476  133.3384  159.2983 H   0  0  0  0  0  0  0  0  0  0  0  0  # atno 6909 bound_to 6896
  144.7177  140.2147  143.6323 H   0  0  0  0  0  0  0  0  0  0  0  0  # atno 7974 bound_to 7965
  155.9312  140.3414  155.6250 H   0  0  0  0  0  0  0  0  0  0  0  0  # atno 8008 bound_to 7997
  155.7155  140.0777  157.2371 H   0  0  0  0  0  0  0  0  0  0  0  0  # atno 8009 bound_to 7997
  154.4085  140.1615  156.2331 H   0  0  0  0  0  0  0  0  0  0  0  0  # atno 8010 bound_to 7997
  140.7281  143.4643  151.0336 H   0  0  0  0  0  0  0  0  0  0  0  0  # atno 10167 bound_to 10162
  157.4105  130.7912  149.7427 H   0  0  0  0  0  0  0  0  0  0  0  0  # atno 10718 bound_to 10713
  153.8986  135.3024  155.3448 H   0  0  0  0  0  0  0  0  0  0  0  0  # atno 10763 bound_to 10752
  154.7681  135.4900  153.9598 H   0  0  0  0  0  0  0  0  0  0  0  0  # atno 10764 bound_to 10752
  153.1257  135.6792  153.9360 H   0  0  0  0  0  0  0  0  0  0  0  0  # atno 10765 bound_to 10752
  140.1742  134.8522  157.2726 H   0  0  0  0  0  0  0  0  0  0  0  0  # atno 11005 bound_to 11000
  145.8558  139.2198  143.1746 LP  0  0  0  0  0  0  0  0  0  0  0  0  # atno 17320 bound_to 7965
  146.0219  140.8340  142.9919 LP  0  0  0  0  0  0  0  0  0  0  0  0  # atno 17321 bound_to 7965
  139.8330  143.7666  152.3180 LP  0  0  0  0  0  0  0  0  0  0  0  0  # atno 17342 bound_to 10162
  139.7788  144.7452  151.0118 LP  0  0  0  0  0  0  0  0  0  0  0  0  # atno 17343 bound_to 10162
  155.9849  130.3987  150.3287 LP  0  0  0  0  0  0  0  0  0  0  0  0  # atno 17370 bound_to 10713
  157.1424  131.0300  151.2921 LP  0  0  0  0  0  0  0  0  0  0  0  0  # atno 17371 bound_to 10713
  140.2342  134.3872  155.7508 LP  0  0  0  0  0  0  0  0  0  0  0  0  # atno 17394 bound_to 11000
  141.2219  133.7231  156.8689 LP  0  0  0  0  0  0  0  0  0  0  0  0  # atno 17395 bound_to 11000

$$$$
