AV-unprocessed.smi:893|AV-procd|sdf|4067|dock3
  -GOLD-   22720 1553D 1   1.00000     0.00000
 Structure written by MMmdl.
 27 28  0  0  0  0  0  0  0  0  1 V2000
  147.0947  134.1459  153.6220 C   0  0  0  0  0  0  0  0  0  0  0  0
  145.8376  135.0275  153.5595 C   0  0  0  0  0  0  0  0  0  0  0  0
  145.5471  135.6122  152.1567 C   0  0  2  0  0  0  0  0  0  0  0  0
  145.2718  134.5390  151.1194 C   0  0  0  0  0  0  0  0  0  0  0  0
  146.0663  133.4019  150.7856 C   0  0  0  0  0  0  0  0  0  0  0  0
  145.5346  132.6584  149.8298 N   0  0  0  0  0  0  0  0  0  0  0  0
  144.3850  133.2879  149.5166 N   0  0  0  0  0  0  0  0  0  0  0  0
  143.5302  132.7412  148.4848 C   0  0  0  0  0  0  0  0  0  0  0  0
  144.1990  134.4210  150.2777 C   0  0  0  0  0  0  0  0  0  0  0  0
  146.5972  136.5327  151.7421 N   0  0  0  0  0  0  0  0  0  0  0  0
  146.1478  137.7767  151.5281 C   0  0  0  0  0  0  0  0  0  0  0  0
  146.8216  138.7345  151.1569 O   0  0  0  0  0  0  0  0  0  0  0  0
  144.8390  137.7915  151.7970 N   0  0  0  0  0  0  0  0  0  0  0  0
  144.3868  136.6012  152.1881 C   0  0  0  0  0  0  0  0  0  0  0  0
  143.2349  136.3265  152.5222 O   0  0  0  0  0  0  0  0  0  0  0  0
  147.2490  133.7665  154.6321 H   0  0  0  0  0  0  0  0  0  0  0  0
  147.9874  134.7047  153.3408 H   0  0  0  0  0  0  0  0  0  0  0  0
  147.0136  133.2858  152.9571 H   0  0  0  0  0  0  0  0  0  0  0  0
  144.9819  134.4415  153.8981 H   0  0  0  0  0  0  0  0  0  0  0  0
  145.9464  135.8378  154.2825 H   0  0  0  0  0  0  0  0  0  0  0  0
  147.0115  133.0955  151.2091 H   0  0  0  0  0  0  0  0  0  0  0  0
  142.6715  133.3940  148.3247 H   0  0  0  0  0  0  0  0  0  0  0  0
  143.1752  131.7547  148.7841 H   0  0  0  0  0  0  0  0  0  0  0  0
  144.0874  132.6541  147.5514 H   0  0  0  0  0  0  0  0  0  0  0  0
  143.3278  135.0486  150.1596 H   0  0  0  0  0  0  0  0  0  0  0  0
  147.5571  136.2455  151.6171 H   0  0  0  0  0  0  0  0  0  0  0  0
  144.2607  138.6158  151.7242 H   0  0  0  0  0  0  0  0  0  0  0  0
  1  2  1  0  0  0  0
  1 16  1  0  0  0  0
  1 17  1  0  0  0  0
  1 18  1  0  0  0  0
  2  3  1  0  0  0  0
  2 19  1  0  0  0  0
  2 20  1  0  0  0  0
  3 14  1  0  0  0  0
  3  4  1  0  0  0  0
  3 10  1  0  0  0  0
  4  9  2  0  0  0  0
  4  5  1  0  0  0  0
  5  6  2  0  0  0  0
  5 21  1  0  0  0  0
  6  7  1  0  0  0  0
  7  8  1  0  0  0  0
  7  9  1  0  0  0  0
  8 22  1  0  0  0  0
  8 23  1  0  0  0  0
  8 24  1  0  0  0  0
  9 25  1  0  0  0  0
 10 11  1  0  0  0  0
 10 26  1  0  0  0  0
 11 12  2  0  0  0  0
 11 13  1  0  0  0  0
 13 14  1  0  0  0  0
 13 27  1  0  0  0  0
 14 15  2  0  0  0  0
M  END
> <s_m_source_file>
AV-unprocessed.smi

> <i_m_source_file_index>
893

> <i_lp_mmshare_version>
43012

> <i_f3d_flags>
0

> <s_epik_input>
Tz1DMVtOSF1DKD1PKVtOSF1bQ0BAXTEoW0NIMl1bQ0gzXSljMltjSF1ubihbQ0gzXSlbY0hdMg==

> <s_epik_cmdline>
J2VwaWtfcHl0aG9uJywgJy1waCcsICc3LjAnLCAnLXRuJywgJzgnLCAnLW1hJywgJzIwMCcsICctbWV0YWxfYmluZGluZycsICctaW1hZScsICc8aW5maWxlLm1hZT4nLCAnLW9tYWUnLCAnPG91dGZpbGUubWFlPic=

> <r_lp_tautomer_probability>
1

> <r_epik_Ionization_Penalty>
0.0236181

> <r_epik_Ionization_Penalty_Charging>
0

> <r_epik_Ionization_Penalty_Neutral>
0.0236181

> <r_epik_State_Penalty>
0.0189572

> <r_epik_Charging_Adjusted_Penalty>
0.0189572

> <i_epik_Tot_Q>
0

> <i_epik_Tot_abs_Q>
0

> <r_epik_Metal_State_Penalty>
0.411796

> <b_epik_Metal_Only>
0

> <s_lp_Force_Field>
OPLS_2005

> <r_lp_Energy>
15.567

> <b_lp_Chiralities_Consistent>
1

> <s_lp_Variant>
AV-unprocessed.smi:893-2

> <Gold.Version>
5.8.1

> <Gold.Id.Protein>
6NUR|6NUR_protein|mol2

> <Gold.PLP.Fitness>
35.0104

> <Gold.PLP.PLP>
-24.3649

> <Gold.PLP.part.hbond>
-2.9350

> <Gold.PLP.part.metal>
0.0000

> <Gold.PLP.part.buried>
-0.4126

> <Gold.PLP.part.nonpolar>
-21.9017

> <Gold.PLP.part.repulsive>
1.3121

> <Gold.PLP.ligand.clash>
0.0000

> <Gold.PLP.ligand.torsion>
0.2244

> <Gold.PLP.Chemscore.Hbond>
2.6408

> <Gold.PLP.Chemscore.CHOScore>
1.0000

> <Gold.PLP.Chemscore.Metal>
0.0000

> <Gold.Chemscore.Hbonds>
donor molecule, donor type, donor heavy atom, donor atom, acceptor molecule, acceptor atom, score
      L1  H    10    26       P1  7948  0.63
      L1  H    13    27       P1 10175  0.96
      P1  H  7954  7966       L1    12  0.97
      L1  C     9    25       P1 10186  1.00

> <Gold.PLP.Chemscore.Internal.Correction>
0.1718

> <Gold.Rescore>
     Score         DG    S(hbond)    S(metal)    S(lipo)     H(rot)  DE(clash)    DE(int)     intcor
     14.09     -14.90       2.39        0.00      40.53       1.30       0.57       0.25       ----

> <Gold.Chemscore.Fitness>
14.0908

> <Gold.Chemscore.DG>
-14.9035

> <Gold.Chemscore.ZeroCoef>
-5.4800

> <Gold.Chemscore.Hbond>
2.3947

> <Gold.Chemscore.Metal>
0.0000

> <Gold.Chemscore.Lipo>
40.5263

> <Gold.Chemscore.Internal_Hbond>
0.0000

> <Gold.Chemscore.DEClash>
0.5666

> <Gold.Chemscore.DEInternal>
0.2460

> <Gold.Chemscore.Rot>
1.2955

> <Gold.Chemscore.Internal.Correction>
   9.000000E+99

> <Gold.Chemscore.Hbonds>
donor molecule, donor type, donor heavy atom, donor atom, acceptor molecule, acceptor atom, score
      L1  H    10    26       P1  7948  0.62
      L1  H    13    27       P1 10175  0.87
      P1  H  7954  7966       L1    12  0.35

> <Gold.Chemscore.Hbond.Weighted>
-7.9983

> <Gold.Chemscore.Metal.Weighted>
-0.0000

> <Gold.Chemscore.Lipo.Weighted>
-4.7416

> <Gold.Chemscore.Internal_Hbond.Weighted>
0.0000

> <Gold.Chemscore.DEClash.Weighted>
0.5666

> <Gold.Chemscore.DEInternal.Weighted>
0.2460

> <Gold.Chemscore.Rot.Weighted>
3.3164

> <Gold.Chemscore.Internal.Correction.Weighted>
   9.000000E+99

> <Gold.Protein.RotatedTorsions>
[ 6907 6896 6895 6894 ] final -174.82 input  -60.11 | X-H torsion
[ 7974 7965 7964 7962 ] final   13.45 input  175.53 | X-H torsion
[ 8008 7997 7996 7995 ] final  116.20 input   59.86 | X-H torsion
[ 10167 10162 10161 10158 ] final  -11.17 input  -65.29 | X-H torsion
[ 10718 10713 10712 10709 ] final   76.85 input   66.30 | X-H torsion
[ 10763 10752 10751 10750 ] final  107.49 input  -60.55 | X-H torsion
[ 11005 11000 10999 10996 ] final  -61.20 input  -57.11 | X-H torsion

> <Gold.Protein.ActiveResidues>
 VAL166  LYS551  ARG553  GLY616  TRP617  ASP618  TYR619  PRO620  LYS621  CYS622 
 ASP623  PHE694  ASN695  SER759  ASP760  ASP761  ALA762  ILE779  LEU786  VAL792 
 PHE793  MET794  SER795  GLU796  ALA797  LYS798  CYS799  TRP800  GLU811  SER814 

> <Gold.Protein.RotatedAtoms>
  151.5786  133.3380  159.3003 H   0  0  0  0  0  0  0  0  0  0  0  0  # atno 6907 bound_to 6896
  150.8326  134.7589  159.6878 H   0  0  0  0  0  0  0  0  0  0  0  0  # atno 6908 bound_to 6896
  152.4407  134.5602  159.9943 H   0  0  0  0  0  0  0  0  0  0  0  0  # atno 6909 bound_to 6896
  146.2329  139.9187  142.8513 H   0  0  0  0  0  0  0  0  0  0  0  0  # atno 7974 bound_to 7965
  156.2426  140.2922  156.0487 H   0  0  0  0  0  0  0  0  0  0  0  0  # atno 8008 bound_to 7997
  155.1906  140.0406  157.2917 H   0  0  0  0  0  0  0  0  0  0  0  0  # atno 8009 bound_to 7997
  154.6197  140.2473  155.7571 H   0  0  0  0  0  0  0  0  0  0  0  0  # atno 8010 bound_to 7997
  140.7132  143.5668  150.9135 H   0  0  0  0  0  0  0  0  0  0  0  0  # atno 10167 bound_to 10162
  157.6689  130.9794  150.1556 H   0  0  0  0  0  0  0  0  0  0  0  0  # atno 10718 bound_to 10713
  153.4074  135.3843  155.2028 H   0  0  0  0  0  0  0  0  0  0  0  0  # atno 10763 bound_to 10752
  154.8735  135.3786  154.4543 H   0  0  0  0  0  0  0  0  0  0  0  0  # atno 10764 bound_to 10752
  153.5047  135.7088  153.5875 H   0  0  0  0  0  0  0  0  0  0  0  0  # atno 10765 bound_to 10752
  141.1315  133.6628  156.5339 H   0  0  0  0  0  0  0  0  0  0  0  0  # atno 11005 bound_to 11000
  145.2157  140.9914  143.4074 LP  0  0  0  0  0  0  0  0  0  0  0  0  # atno 17320 bound_to 7965
  144.9653  139.3937  143.6336 LP  0  0  0  0  0  0  0  0  0  0  0  0  # atno 17321 bound_to 7965
  139.9394  143.6399  152.3057 LP  0  0  0  0  0  0  0  0  0  0  0  0  # atno 17342 bound_to 10162
  139.6879  144.7650  151.1491 LP  0  0  0  0  0  0  0  0  0  0  0  0  # atno 17343 bound_to 10162
  156.2345  130.3685  149.8407 LP  0  0  0  0  0  0  0  0  0  0  0  0  # atno 17370 bound_to 10713
  156.6225  130.8632  151.3478 LP  0  0  0  0  0  0  0  0  0  0  0  0  # atno 17371 bound_to 10713
  140.4194  134.7201  157.4881 LP  0  0  0  0  0  0  0  0  0  0  0  0  # atno 17394 bound_to 11000
  140.0371  134.6322  155.9029 LP  0  0  0  0  0  0  0  0  0  0  0  0  # atno 17395 bound_to 11000

$$$$
