AV-unprocessed.smi:1436|AV-procd|sdf|5861|dock9
  -GOLD-   22720 5533D 1   1.00000     0.00000
 Structure written by MMmdl.
 44 45  0  0  0  0  0  0  0  0  2 V2000
  151.0436  141.3839  158.2454 C   0  0  0  0  0  0  0  0  0  0  0  0
  151.4762  140.4044  157.1924 C   0  0  0  0  0  0  0  0  0  0  0  0
  152.5578  139.6718  157.3926 N   0  0  0  0  0  0  0  0  0  0  0  0
  152.6856  138.8600  156.2616 O   0  0  0  0  0  0  0  0  0  0  0  0
  151.6590  139.1333  155.4175 C   0  0  0  0  0  0  0  0  0  0  0  0
  151.6111  138.3435  154.1535 C   0  0  0  0  0  0  0  0  0  0  0  0
  150.8532  140.1048  155.9460 C   0  0  0  0  0  0  0  0  0  0  0  0
  149.5938  140.7007  155.3687 C   0  0  0  0  0  0  0  0  0  0  0  0
  148.6787  139.5604  154.9319 C   0  0  0  0  0  0  0  0  0  0  0  0
  148.2780  138.7417  155.7581 O   0  0  0  0  0  0  0  0  0  0  0  0
  148.3034  139.5646  153.6428 N   0  0  0  0  0  0  0  0  0  0  0  0
  147.2735  138.7153  153.0464 C   0  0  2  0  0  0  0  0  0  0  0  0
  146.7686  139.3621  151.7498 C   0  0  0  0  0  0  0  0  0  0  0  0
  146.1215  138.4792  154.0507 C   0  0  0  0  0  0  0  0  0  0  0  0
  144.9537  137.7905  153.4421 N   0  3  0  0  0  0  0  0  0  0  0  0
  145.3351  136.7482  152.4610 C   0  0  0  0  0  0  0  0  0  0  0  0
  144.0784  136.1343  151.8194 C   0  0  0  0  0  0  0  0  0  0  0  0
  143.2232  135.6176  152.8316 O   0  0  0  0  0  0  0  0  0  0  0  0
  142.7859  136.6314  153.7281 C   0  0  0  0  0  0  0  0  0  0  0  0
  144.0030  137.2439  154.4396 C   0  0  0  0  0  0  0  0  0  0  0  0
  150.2751  140.9506  158.8860 H   0  0  0  0  0  0  0  0  0  0  0  0
  150.6321  142.2880  157.7969 H   0  0  0  0  0  0  0  0  0  0  0  0
  151.8768  141.6839  158.8820 H   0  0  0  0  0  0  0  0  0  0  0  0
  151.3333  137.3093  154.3566 H   0  0  0  0  0  0  0  0  0  0  0  0
  152.5831  138.3433  153.6597 H   0  0  0  0  0  0  0  0  0  0  0  0
  150.8811  138.7574  153.4582 H   0  0  0  0  0  0  0  0  0  0  0  0
  149.0755  141.3306  156.0925 H   0  0  0  0  0  0  0  0  0  0  0  0
  149.8066  141.3383  154.5099 H   0  0  0  0  0  0  0  0  0  0  0  0
  148.7060  140.2709  153.0434 H   0  0  0  0  0  0  0  0  0  0  0  0
  147.7070  137.7524  152.7723 H   0  0  0  0  0  0  0  0  0  0  0  0
  146.0130  138.7390  151.2701 H   0  0  0  0  0  0  0  0  0  0  0  0
  147.5818  139.4989  151.0362 H   0  0  0  0  0  0  0  0  0  0  0  0
  146.3227  140.3395  151.9381 H   0  0  0  0  0  0  0  0  0  0  0  0
  146.5060  137.8614  154.8640 H   0  0  0  0  0  0  0  0  0  0  0  0
  145.8043  139.4179  154.5072 H   0  0  0  0  0  0  0  0  0  0  0  0
  145.9649  137.1827  151.6837 H   0  0  0  0  0  0  0  0  0  0  0  0
  145.9212  135.9735  152.9579 H   0  0  0  0  0  0  0  0  0  0  0  0
  143.5429  136.8744  151.2245 H   0  0  0  0  0  0  0  0  0  0  0  0
  144.3573  135.3258  151.1435 H   0  0  0  0  0  0  0  0  0  0  0  0
  142.2240  137.3965  153.1893 H   0  0  0  0  0  0  0  0  0  0  0  0
  142.1062  136.1903  154.4573 H   0  0  0  0  0  0  0  0  0  0  0  0
  144.5011  136.4869  155.0473 H   0  0  0  0  0  0  0  0  0  0  0  0
  143.6698  138.0286  155.1180 H   0  0  0  0  0  0  0  0  0  0  0  0
  144.4532  138.4950  152.9185 H   0  0  0  0  0  0  0  0  0  0  0  0
  1  2  1  0  0  0  0
  1 21  1  0  0  0  0
  1 22  1  0  0  0  0
  1 23  1  0  0  0  0
  2  7  1  0  0  0  0
  2  3  2  0  0  0  0
  3  4  1  0  0  0  0
  4  5  1  0  0  0  0
  5  6  1  0  0  0  0
  5  7  2  0  0  0  0
  6 24  1  0  0  0  0
  6 25  1  0  0  0  0
  6 26  1  0  0  0  0
  7  8  1  0  0  0  0
  8  9  1  0  0  0  0
  8 27  1  0  0  0  0
  8 28  1  0  0  0  0
  9 10  2  0  0  0  0
  9 11  1  0  0  0  0
 11 12  1  0  0  0  0
 11 29  1  0  0  0  0
 12 13  1  0  0  0  0
 12 14  1  0  0  0  0
 12 30  1  0  0  0  0
 13 31  1  0  0  0  0
 13 32  1  0  0  0  0
 13 33  1  0  0  0  0
 14 15  1  0  0  0  0
 14 34  1  0  0  0  0
 14 35  1  0  0  0  0
 15 20  1  0  0  0  0
 15 16  1  0  0  0  0
 15 44  1  0  0  0  0
 16 17  1  0  0  0  0
 16 36  1  0  0  0  0
 16 37  1  0  0  0  0
 17 18  1  0  0  0  0
 17 38  1  0  0  0  0
 17 39  1  0  0  0  0
 18 19  1  0  0  0  0
 19 20  1  0  0  0  0
 19 40  1  0  0  0  0
 19 41  1  0  0  0  0
 20 42  1  0  0  0  0
 20 43  1  0  0  0  0
M  CHG  1  15   1
M  END
> <s_m_source_file>
AV-unprocessed.smi

> <i_m_source_file_index>
1436

> <i_lp_mmshare_version>
43012

> <i_f3d_flags>
0

> <s_epik_input>
W0NIM11jMW5vYyhbQ0gzXSljMVtDSDJdQyg9TylbTkhdW0NASF0oW0NIM10pW0NIMl1OMltDSDJdW0NIMl1PW0NIMl1bQ0gyXTI=

> <s_epik_cmdline>
J2VwaWtfcHl0aG9uJywgJy1waCcsICc3LjAnLCAnLXRuJywgJzgnLCAnLW1hJywgJzIwMCcsICctbWV0YWxfYmluZGluZycsICctaW1hZScsICc8aW5maWxlLm1hZT4nLCAnLW9tYWUnLCAnPG91dGZpbGUubWFlPic=

> <r_epik_Ionization_Penalty>
0.663207

> <r_epik_Ionization_Penalty_Charging>
0.663207

> <r_epik_Ionization_Penalty_Neutral>
1.07515e-07

> <r_epik_State_Penalty>
0.682743

> <r_epik_Charging_Adjusted_Penalty>
1.34595

> <i_epik_Tot_Q>
1

> <i_epik_Tot_abs_Q>
1

> <r_epik_Metal_State_Penalty>
0.682743

> <b_epik_Metal_Only>
0

> <s_lp_Force_Field>
OPLS_2005

> <r_lp_Energy>
13.3689

> <b_lp_Chiralities_Consistent>
1

> <s_lp_Variant>
AV-unprocessed.smi:1436-3

> <Gold.Version>
5.8.1

> <Gold.Id.Protein>
6NUR|6NUR_protein|mol2

> <Gold.PLP.Fitness>
41.8111

> <Gold.PLP.PLP>
-31.0284

> <Gold.PLP.part.hbond>
-3.3890

> <Gold.PLP.part.metal>
0.0000

> <Gold.PLP.part.buried>
0.8724

> <Gold.PLP.part.nonpolar>
-27.5617

> <Gold.PLP.part.repulsive>
0.2211

> <Gold.PLP.ligand.clash>
0.0000

> <Gold.PLP.ligand.torsion>
0.6409

> <Gold.PLP.Chemscore.Hbond>
4.0000

> <Gold.PLP.Chemscore.CHOScore>
0.0000

> <Gold.PLP.Chemscore.Metal>
0.0000

> <Gold.Chemscore.Hbonds>
donor molecule, donor type, donor heavy atom, donor atom, acceptor molecule, acceptor atom, score
      L1  H    11    29       P1  7957  0.48
      L1  H    15    44       P1 10175  1.40

> <Gold.PLP.Chemscore.Internal.Correction>
0.0645

> <Gold.Rescore>
     Score         DG    S(hbond)    S(metal)    S(lipo)     H(rot)  DE(clash)    DE(int)     intcor
     15.94     -18.49       2.63        0.00      75.22       1.79       0.35       2.19       ----

> <Gold.Chemscore.Fitness>
15.9439

> <Gold.Chemscore.DG>
-18.4896

> <Gold.Chemscore.ZeroCoef>
-5.4800

> <Gold.Chemscore.Hbond>
2.6348

> <Gold.Chemscore.Metal>
0.0000

> <Gold.Chemscore.Lipo>
75.2218

> <Gold.Chemscore.Internal_Hbond>
0.0000

> <Gold.Chemscore.DEClash>
0.3544

> <Gold.Chemscore.DEInternal>
2.1913

> <Gold.Chemscore.Rot>
1.7936

> <Gold.Chemscore.Internal.Correction>
   9.000000E+99

> <Gold.Chemscore.Hbonds>
donor molecule, donor type, donor heavy atom, donor atom, acceptor molecule, acceptor atom, score
      L1  H    11    29       P1  7957  0.48
      L1  H    15    44       P1 10175  0.68

> <Gold.Chemscore.Hbond.Weighted>
-8.8003

> <Gold.Chemscore.Metal.Weighted>
-0.0000

> <Gold.Chemscore.Lipo.Weighted>
-8.8010

> <Gold.Chemscore.Internal_Hbond.Weighted>
0.0000

> <Gold.Chemscore.DEClash.Weighted>
0.3544

> <Gold.Chemscore.DEInternal.Weighted>
2.1913

> <Gold.Chemscore.Rot.Weighted>
4.5916

> <Gold.Chemscore.Internal.Correction.Weighted>
   9.000000E+99

> <Gold.Protein.RotatedTorsions>
[ 6907 6896 6895 6894 ] final  -54.71 input  -60.11 | X-H torsion
[ 7974 7965 7964 7962 ] final    5.87 input  175.53 | X-H torsion
[ 8008 7997 7996 7995 ] final  167.14 input   59.86 | X-H torsion
[ 10167 10162 10161 10158 ] final  -49.90 input  -65.29 | X-H torsion
[ 10718 10713 10712 10709 ] final   55.00 input   66.30 | X-H torsion
[ 10763 10752 10751 10750 ] final -176.54 input  -60.55 | X-H torsion
[ 11005 11000 10999 10996 ] final  128.23 input  -57.11 | X-H torsion

> <Gold.Protein.ActiveResidues>
 VAL166  LYS551  ARG553  GLY616  TRP617  ASP618  TYR619  PRO620  LYS621  CYS622 
 ASP623  PHE694  ASN695  SER759  ASP760  ASP761  ALA762  ILE779  LEU786  VAL792 
 PHE793  MET794  SER795  GLU796  ALA797  LYS798  CYS799  TRP800  GLU811  SER814 

> <Gold.Protein.RotatedAtoms>
  150.8314  134.7568  159.6856 H   0  0  0  0  0  0  0  0  0  0  0  0  # atno 6907 bound_to 6896
  152.4418  134.5573  159.9894 H   0  0  0  0  0  0  0  0  0  0  0  0  # atno 6908 bound_to 6896
  151.5733  133.3349  159.3029 H   0  0  0  0  0  0  0  0  0  0  0  0  # atno 6909 bound_to 6896
  146.2438  140.0319  142.8389 H   0  0  0  0  0  0  0  0  0  0  0  0  # atno 7974 bound_to 7965
  156.1659  140.1625  156.8532 H   0  0  0  0  0  0  0  0  0  0  0  0  # atno 8008 bound_to 7997
  154.5207  140.0779  156.8201 H   0  0  0  0  0  0  0  0  0  0  0  0  # atno 8009 bound_to 7997
  155.3612  140.3395  155.4243 H   0  0  0  0  0  0  0  0  0  0  0  0  # atno 8010 bound_to 7997
  140.6663  143.2679  151.4281 H   0  0  0  0  0  0  0  0  0  0  0  0  # atno 10167 bound_to 10162
  157.5307  130.8628  149.8683 H   0  0  0  0  0  0  0  0  0  0  0  0  # atno 10718 bound_to 10713
  154.5711  135.2828  155.0826 H   0  0  0  0  0  0  0  0  0  0  0  0  # atno 10763 bound_to 10752
  154.2198  135.6393  153.5145 H   0  0  0  0  0  0  0  0  0  0  0  0  # atno 10764 bound_to 10752
  153.0058  135.5512  154.6335 H   0  0  0  0  0  0  0  0  0  0  0  0  # atno 10765 bound_to 10752
  139.9549  134.9615  156.8971 H   0  0  0  0  0  0  0  0  0  0  0  0  # atno 11005 bound_to 11000
  145.1147  140.9426  143.4635 LP  0  0  0  0  0  0  0  0  0  0  0  0  # atno 17320 bound_to 7965
  145.0540  139.3158  143.5914 LP  0  0  0  0  0  0  0  0  0  0  0  0  # atno 17321 bound_to 7965
  139.5914  144.1492  152.2092 LP  0  0  0  0  0  0  0  0  0  0  0  0  # atno 17342 bound_to 10162
  140.0847  144.5671  150.7097 LP  0  0  0  0  0  0  0  0  0  0  0  0  # atno 17343 bound_to 10162
  156.0420  130.3737  150.1412 LP  0  0  0  0  0  0  0  0  0  0  0  0  # atno 17370 bound_to 10713
  156.9596  130.9801  151.3482 LP  0  0  0  0  0  0  0  0  0  0  0  0  # atno 17371 bound_to 10713
  140.5632  134.0515  155.7405 LP  0  0  0  0  0  0  0  0  0  0  0  0  # atno 17394 bound_to 11000
  141.1219  133.9447  157.2712 LP  0  0  0  0  0  0  0  0  0  0  0  0  # atno 17395 bound_to 11000

$$$$
