AV-unprocessed.smi:1005|AV-procd|sdf|4370|dock7
  -GOLD-   22720 2283D 1   1.00000     0.00000
 Structure written by MMmdl.
 57 59  0  0  0  0  0  0  0  0  3 V2000
  153.1308  142.4990  161.5270 C   0  0  0  0  0  0  0  0  0  0  0  0
  152.4560  142.3128  160.1795 C   0  0  0  0  0  0  0  0  0  0  0  0
  152.7719  141.1742  159.4044 C   0  0  0  0  0  0  0  0  0  0  0  0
  152.1666  140.9631  158.1463 C   0  0  0  0  0  0  0  0  0  0  0  0
  152.3135  139.9287  157.2383 N   0  0  0  0  0  0  0  0  0  0  0  0
  151.4776  140.2971  156.2717 C   0  0  0  0  0  0  0  0  0  0  0  0
  150.7993  141.4467  156.4496 N   0  0  0  0  0  0  0  0  0  0  0  0
  149.8194  142.0317  155.5514 C   0  0  0  0  0  0  0  0  0  0  0  0
  149.0525  140.9714  154.7321 C   0  0  2  0  0  0  0  0  0  0  0  0
  149.7448  140.7867  153.5141 O   0  0  0  0  0  0  0  0  0  0  0  0
  147.5921  141.3739  154.4275 C   0  0  0  0  0  0  0  0  0  0  0  0
  147.0748  142.4690  155.2913 N   0  3  1  0  0  0  0  0  0  0  0  0
  145.8740  143.1709  154.7687 C   0  0  0  0  0  0  0  0  0  0  0  0
  144.5947  142.3356  154.9710 C   0  0  0  0  0  0  0  0  0  0  0  0
  144.4658  141.9726  156.3417 O   0  0  0  0  0  0  0  0  0  0  0  0
  145.5565  141.1845  156.8053 C   0  0  2  0  0  0  0  0  0  0  0  0
  145.2454  140.7577  158.2531 C   0  0  0  0  0  0  0  0  0  0  0  0
  144.0930  139.8245  158.3619 N   0  3  0  0  0  0  0  0  0  0  0  0
  143.9964  139.2236  159.7109 C   0  0  0  0  0  0  0  0  0  0  0  0
  142.8026  140.4207  157.9419 C   0  0  0  0  0  0  0  0  0  0  0  0
  146.8433  142.0343  156.6911 C   0  0  0  0  0  0  0  0  0  0  0  0
  151.2322  141.9329  157.6797 C   0  0  0  0  0  0  0  0  0  0  0  0
  150.9143  143.0733  158.4392 C   0  0  0  0  0  0  0  0  0  0  0  0
  151.5221  143.2645  159.6972 C   0  0  0  0  0  0  0  0  0  0  0  0
  151.1643  144.4937  160.5138 C   0  0  0  0  0  0  0  0  0  0  0  0
  153.8397  141.6963  161.7322 H   0  0  0  0  0  0  0  0  0  0  0  0
  152.3909  142.5042  162.3276 H   0  0  0  0  0  0  0  0  0  0  0  0
  153.6777  143.4418  161.5540 H   0  0  0  0  0  0  0  0  0  0  0  0
  153.4831  140.4490  159.7722 H   0  0  0  0  0  0  0  0  0  0  0  0
  151.3425  139.6913  155.3872 H   0  0  0  0  0  0  0  0  0  0  0  0
  149.1265  142.6279  156.1472 H   0  0  0  0  0  0  0  0  0  0  0  0
  150.3325  142.7272  154.8853 H   0  0  0  0  0  0  0  0  0  0  0  0
  149.0784  140.0319  155.2830 H   0  0  0  0  0  0  0  0  0  0  0  0
  149.2426  140.2057  152.9627 H   0  0  0  0  0  0  0  0  0  0  0  0
  147.4901  141.6728  153.3860 H   0  0  0  0  0  0  0  0  0  0  0  0
  146.9637  140.4911  154.5538 H   0  0  0  0  0  0  0  0  0  0  0  0
  145.7719  144.1109  155.3125 H   0  0  0  0  0  0  0  0  0  0  0  0
  145.9937  143.4439  153.7217 H   0  0  0  0  0  0  0  0  0  0  0  0
  143.7209  142.9188  154.6811 H   0  0  0  0  0  0  0  0  0  0  0  0
  144.5956  141.4444  154.3421 H   0  0  0  0  0  0  0  0  0  0  0  0
  145.6229  140.2981  156.1748 H   0  0  0  0  0  0  0  0  0  0  0  0
  146.1356  140.2856  158.6718 H   0  0  0  0  0  0  0  0  0  0  0  0
  145.0491  141.6371  158.8687 H   0  0  0  0  0  0  0  0  0  0  0  0
  143.8028  139.9867  160.4660 H   0  0  0  0  0  0  0  0  0  0  0  0
  144.9206  138.7082  159.9744 H   0  0  0  0  0  0  0  0  0  0  0  0
  143.1900  138.4905  159.7510 H   0  0  0  0  0  0  0  0  0  0  0  0
  142.5633  141.2997  158.5415 H   0  0  0  0  0  0  0  0  0  0  0  0
  141.9915  139.7014  158.0597 H   0  0  0  0  0  0  0  0  0  0  0  0
  142.8151  140.7133  156.8927 H   0  0  0  0  0  0  0  0  0  0  0  0
  147.7102  141.4864  157.0620 H   0  0  0  0  0  0  0  0  0  0  0  0
  146.7537  142.9224  157.3177 H   0  0  0  0  0  0  0  0  0  0  0  0
  150.2049  143.7933  158.0594 H   0  0  0  0  0  0  0  0  0  0  0  0
  150.3845  145.0812  160.0283 H   0  0  0  0  0  0  0  0  0  0  0  0
  152.0379  145.1336  160.6399 H   0  0  0  0  0  0  0  0  0  0  0  0
  150.7994  144.2072  161.5003 H   0  0  0  0  0  0  0  0  0  0  0  0
  144.2786  139.0569  157.7323 H   0  0  0  0  0  0  0  0  0  0  0  0
  147.8187  143.1525  155.3234 H   0  0  0  0  0  0  0  0  0  0  0  0
  1  2  1  0  0  0  0
  1 26  1  0  0  0  0
  1 27  1  0  0  0  0
  1 28  1  0  0  0  0
  2 24  1  0  0  0  0
  2  3  2  0  0  0  0
  3  4  1  0  0  0  0
  3 29  1  0  0  0  0
  4 22  2  0  0  0  0
  4  5  1  0  0  0  0
  5  6  2  0  0  0  0
  6  7  1  0  0  0  0
  6 30  1  0  0  0  0
  7  8  1  0  0  0  0
  7 22  1  0  0  0  0
  8  9  1  0  0  0  0
  8 31  1  0  0  0  0
  8 32  1  0  0  0  0
  9 10  1  0  0  0  0
  9 11  1  0  0  0  0
  9 33  1  0  0  0  0
 10 34  1  0  0  0  0
 11 12  1  0  0  0  0
 11 35  1  0  0  0  0
 11 36  1  0  0  0  0
 12 21  1  0  0  0  0
 12 13  1  0  0  0  0
 12 57  1  0  0  0  0
 13 14  1  0  0  0  0
 13 37  1  0  0  0  0
 13 38  1  0  0  0  0
 14 15  1  0  0  0  0
 14 39  1  0  0  0  0
 14 40  1  0  0  0  0
 15 16  1  0  0  0  0
 16 17  1  0  0  0  0
 16 21  1  0  0  0  0
 16 41  1  0  0  0  0
 17 18  1  0  0  0  0
 17 42  1  0  0  0  0
 17 43  1  0  0  0  0
 18 19  1  0  0  0  0
 18 20  1  0  0  0  0
 18 56  1  0  0  0  0
 19 44  1  0  0  0  0
 19 45  1  0  0  0  0
 19 46  1  0  0  0  0
 20 47  1  0  0  0  0
 20 48  1  0  0  0  0
 20 49  1  0  0  0  0
 21 50  1  0  0  0  0
 21 51  1  0  0  0  0
 22 23  1  0  0  0  0
 23 24  2  0  0  0  0
 23 52  1  0  0  0  0
 24 25  1  0  0  0  0
 25 53  1  0  0  0  0
 25 54  1  0  0  0  0
 25 55  1  0  0  0  0
M  CHG  1  12   1
M  CHG  1  18   1
M  END
> <s_m_source_file>
AV-unprocessed.smi

> <i_m_source_file_index>
1005

> <i_lp_mmshare_version>
43012

> <i_f3d_flags>
0

> <s_epik_input>
W0NIM11jKFtjSF0xKWMoW0NIM10pW2NIXWMoYzEyKW4oW2NIXW4yKVtDSDJdW0NASF0oW09IXSlbQ0gyXU4zW0NIMl1bQ0gyXU9bQ0BIXShbQ0gyXTMpW0NIMl1OKFtDSDNdKVtDSDNd

> <s_epik_cmdline>
J2VwaWtfcHl0aG9uJywgJy1waCcsICc3LjAnLCAnLXRuJywgJzgnLCAnLW1hJywgJzIwMCcsICctbWV0YWxfYmluZGluZycsICctaW1hZScsICc8aW5maWxlLm1hZT4nLCAnLW9tYWUnLCAnPG91dGZpbGUubWFlPic=

> <r_epik_Ionization_Penalty>
1.0968

> <r_epik_Ionization_Penalty_Charging>
1.0096

> <r_epik_Ionization_Penalty_Neutral>
0.0871956

> <r_epik_State_Penalty>
1.31185

> <r_epik_Charging_Adjusted_Penalty>
2.32145

> <i_epik_Tot_Q>
2

> <i_epik_Tot_abs_Q>
2

> <r_epik_Metal_State_Penalty>
1.22442

> <b_epik_Metal_Only>
0

> <s_lp_Force_Field>
OPLS_2005

> <r_lp_Energy>
36.3086

> <b_lp_Chiralities_Consistent>
1

> <s_lp_Variant>
AV-unprocessed.smi:1005-9

> <Gold.Version>
5.8.1

> <Gold.Id.Protein>
6NUR|6NUR_protein|mol2

> <Gold.PLP.Fitness>
55.1548

> <Gold.PLP.PLP>
-43.9921

> <Gold.PLP.part.hbond>
-4.6279

> <Gold.PLP.part.metal>
0.0000

> <Gold.PLP.part.buried>
-4.1802

> <Gold.PLP.part.nonpolar>
-35.3505

> <Gold.PLP.part.repulsive>
0.1676

> <Gold.PLP.ligand.clash>
0.0000

> <Gold.PLP.ligand.torsion>
1.5809

> <Gold.PLP.Chemscore.Hbond>
4.7200

> <Gold.PLP.Chemscore.CHOScore>
0.0000

> <Gold.PLP.Chemscore.Metal>
0.0000

> <Gold.Chemscore.Hbonds>
donor molecule, donor type, donor heavy atom, donor atom, acceptor molecule, acceptor atom, score
      L1  H    10    34       P1  7957  0.42
      L1  H    12    57       P1  8028  2.00
      P1  H  7989  7998       L1    10  0.35
      P1  H  7997  8008       L1     5  0.70
      P1  H  8011  8017       L1    10  1.00

> <Gold.PLP.Chemscore.Internal.Correction>
0.1645

> <Gold.Rescore>
     Score         DG    S(hbond)    S(metal)    S(lipo)     H(rot)  DE(clash)    DE(int)     intcor
     16.94     -21.13       2.68        0.00     111.64       2.48       1.27       2.92       ----

> <Gold.Chemscore.Fitness>
16.9405

> <Gold.Chemscore.DG>
-21.1260

> <Gold.Chemscore.ZeroCoef>
-5.4800

> <Gold.Chemscore.Hbond>
2.6757

> <Gold.Chemscore.Metal>
0.0000

> <Gold.Chemscore.Lipo>
111.6375

> <Gold.Chemscore.Internal_Hbond>
0.0000

> <Gold.Chemscore.DEClash>
1.2673

> <Gold.Chemscore.DEInternal>
2.9182

> <Gold.Chemscore.Rot>
2.4814

> <Gold.Chemscore.Internal.Correction>
   9.000000E+99

> <Gold.Chemscore.Hbonds>
donor molecule, donor type, donor heavy atom, donor atom, acceptor molecule, acceptor atom, score
      L1  H    10    34       P1  7957  0.42
      L1  H    12    57       P1  8028  0.60
      P1  H  7989  7998       L1    10  0.35
      P1  H  7997  8008       L1     5  0.21
      P1  H  8011  8017       L1    10  0.22

> <Gold.Chemscore.Hbond.Weighted>
-8.9368

> <Gold.Chemscore.Metal.Weighted>
-0.0000

> <Gold.Chemscore.Lipo.Weighted>
-13.0616

> <Gold.Chemscore.Internal_Hbond.Weighted>
0.0000

> <Gold.Chemscore.DEClash.Weighted>
1.2673

> <Gold.Chemscore.DEInternal.Weighted>
2.9182

> <Gold.Chemscore.Rot.Weighted>
6.3524

> <Gold.Chemscore.Internal.Correction.Weighted>
   9.000000E+99

> <Gold.Protein.RotatedTorsions>
[ 6907 6896 6895 6894 ] final -157.73 input  -60.11 | X-H torsion
[ 7974 7965 7964 7962 ] final  177.31 input  175.53 | X-H torsion
[ 8008 7997 7996 7995 ] final  -63.19 input   59.86 | X-H torsion
[ 10167 10162 10161 10158 ] final  138.47 input  -65.29 | X-H torsion
[ 10718 10713 10712 10709 ] final -101.24 input   66.30 | X-H torsion
[ 10763 10752 10751 10750 ] final  -69.38 input  -60.55 | X-H torsion
[ 11005 11000 10999 10996 ] final -139.49 input  -57.11 | X-H torsion

> <Gold.Protein.ActiveResidues>
 VAL166  LYS551  ARG553  GLY616  TRP617  ASP618  TYR619  PRO620  LYS621  CYS622 
 ASP623  PHE694  ASN695  SER759  ASP760  ASP761  ALA762  ILE779  LEU786  VAL792 
 PHE793  MET794  SER795  GLU796  ALA797  LYS798  CYS799  TRP800  GLU811  SER814 

> <Gold.Protein.RotatedAtoms>
  151.3073  133.4096  159.2643 H   0  0  0  0  0  0  0  0  0  0  0  0  # atno 6907 bound_to 6896
  151.0144  134.9422  159.8035 H   0  0  0  0  0  0  0  0  0  0  0  0  # atno 6908 bound_to 6896
  152.5309  134.3037  159.9140 H   0  0  0  0  0  0  0  0  0  0  0  0  # atno 6909 bound_to 6896
  144.7171  140.0228  143.6440 H   0  0  0  0  0  0  0  0  0  0  0  0  # atno 7974 bound_to 7965
  154.4541  140.0980  156.6704 H   0  0  0  0  0  0  0  0  0  0  0  0  # atno 8008 bound_to 7997
  155.5194  140.3478  155.4385 H   0  0  0  0  0  0  0  0  0  0  0  0  # atno 8009 bound_to 7997
  156.0741  140.1356  156.9782 H   0  0  0  0  0  0  0  0  0  0  0  0  # atno 8010 bound_to 7997
  139.5110  144.6351  151.5717 H   0  0  0  0  0  0  0  0  0  0  0  0  # atno 10167 bound_to 10162
  156.0188  130.5364  150.6935 H   0  0  0  0  0  0  0  0  0  0  0  0  # atno 10718 bound_to 10713
  154.4026  135.6027  153.5906 H   0  0  0  0  0  0  0  0  0  0  0  0  # atno 10763 bound_to 10752
  152.9788  135.5910  154.4166 H   0  0  0  0  0  0  0  0  0  0  0  0  # atno 10764 bound_to 10752
  154.3967  135.2842  155.2100 H   0  0  0  0  0  0  0  0  0  0  0  0  # atno 10765 bound_to 10752
  140.8515  134.2280  157.4758 H   0  0  0  0  0  0  0  0  0  0  0  0  # atno 11005 bound_to 11000
  146.0167  139.3216  143.0838 LP  0  0  0  0  0  0  0  0  0  0  0  0  # atno 17320 bound_to 7965
  145.8617  140.9471  143.0696 LP  0  0  0  0  0  0  0  0  0  0  0  0  # atno 17321 bound_to 7965
  140.6097  143.9458  150.6444 LP  0  0  0  0  0  0  0  0  0  0  0  0  # atno 17342 bound_to 10162
  140.2697  143.3465  152.1249 LP  0  0  0  0  0  0  0  0  0  0  0  0  # atno 17343 bound_to 10162
  157.4611  131.0883  151.0745 LP  0  0  0  0  0  0  0  0  0  0  0  0  # atno 17370 bound_to 10713
  157.1232  130.6070  149.5510 LP  0  0  0  0  0  0  0  0  0  0  0  0  # atno 17371 bound_to 10713
  139.8704  134.9685  156.4634 LP  0  0  0  0  0  0  0  0  0  0  0  0  # atno 17394 bound_to 11000
  140.8785  133.7935  155.9441 LP  0  0  0  0  0  0  0  0  0  0  0  0  # atno 17395 bound_to 11000

$$$$
