AV-unprocessed.smi:2095|AV-procd|sdf|8559|dock9
  -GOLD-   2272011283D 1   1.00000     0.00000
 Structure written by MMmdl.
 42 43  0  0  0  0  0  0  0  0  2 V2000
  150.3476  144.7529  159.7067 C   0  0  0  0  0  0  0  0  0  0  0  0
  151.3845  144.3915  158.6278 C   0  0  1  0  0  0  0  0  0  0  0  0
  152.7878  144.1550  159.2106 C   0  0  0  0  0  0  0  0  0  0  0  0
  152.8576  142.8098  159.9413 C   0  0  0  0  0  0  0  0  0  0  0  0
  152.3957  141.6697  159.0230 C   0  0  0  0  0  0  0  0  0  0  0  0
  151.0146  141.8989  158.5105 N   0  3  2  0  0  0  0  0  0  0  0  0
  150.4733  140.6884  157.8077 C   0  0  1  0  0  0  0  0  0  0  0  0
  151.0194  140.6513  156.3631 C   0  0  0  0  0  0  0  0  0  0  0  0
  150.7428  139.3436  158.5383 C   0  0  0  0  0  0  0  0  0  0  0  0
  149.5697  138.4723  158.5710 N   0  0  0  0  0  0  0  0  0  0  0  0
  149.5597  137.1907  158.9713 C   0  0  0  0  0  0  0  0  0  0  0  0
  150.5669  136.5932  159.3505 O   0  0  0  0  0  0  0  0  0  0  0  0
  148.2090  136.4717  158.9242 C   0  0  0  0  0  0  0  0  0  0  0  0
  147.6830  136.2412  160.2572 N   0  0  0  0  0  0  0  0  0  0  0  0
  147.3141  135.1156  160.8722 C   0  0  0  0  0  0  0  0  0  0  0  0
  146.8818  135.3490  162.1019 N   0  0  0  0  0  0  0  0  0  0  0  0
  147.0062  136.7230  162.2233 N   0  0  0  0  0  0  0  0  0  0  0  0
  147.4820  137.2578  161.1323 N   0  0  0  0  0  0  0  0  0  0  0  0
  150.9355  143.1914  157.7659 C   0  0  0  0  0  0  0  0  0  0  0  0
  150.1796  143.9315  160.4032 H   0  0  0  0  0  0  0  0  0  0  0  0
  149.3861  145.0029  159.2572 H   0  0  0  0  0  0  0  0  0  0  0  0
  150.6713  145.6181  160.2859 H   0  0  0  0  0  0  0  0  0  0  0  0
  151.4515  145.2579  157.9685 H   0  0  0  0  0  0  0  0  0  0  0  0
  153.5193  144.1598  158.4013 H   0  0  0  0  0  0  0  0  0  0  0  0
  153.0684  144.9676  159.8816 H   0  0  0  0  0  0  0  0  0  0  0  0
  153.8789  142.6250  160.2755 H   0  0  0  0  0  0  0  0  0  0  0  0
  152.2417  142.8352  160.8407 H   0  0  0  0  0  0  0  0  0  0  0  0
  153.0821  141.5715  158.1803 H   0  0  0  0  0  0  0  0  0  0  0  0
  152.4547  140.7345  159.5778 H   0  0  0  0  0  0  0  0  0  0  0  0
  149.3886  140.7980  157.7569 H   0  0  0  0  0  0  0  0  0  0  0  0
  150.5455  139.8677  155.7727 H   0  0  0  0  0  0  0  0  0  0  0  0
  152.0942  140.4666  156.3556 H   0  0  0  0  0  0  0  0  0  0  0  0
  150.8452  141.5820  155.8256 H   0  0  0  0  0  0  0  0  0  0  0  0
  151.5937  138.8275  158.0901 H   0  0  0  0  0  0  0  0  0  0  0  0
  151.0009  139.5222  159.5822 H   0  0  0  0  0  0  0  0  0  0  0  0
  148.6943  138.8783  158.2730 H   0  0  0  0  0  0  0  0  0  0  0  0
  147.4787  137.0543  158.3605 H   0  0  0  0  0  0  0  0  0  0  0  0
  148.3258  135.5167  158.4099 H   0  0  0  0  0  0  0  0  0  0  0  0
  147.3605  134.1348  160.4224 H   0  0  0  0  0  0  0  0  0  0  0  0
  149.9175  143.3950  157.4355 H   0  0  0  0  0  0  0  0  0  0  0  0
  151.5544  143.1252  156.8695 H   0  0  0  0  0  0  0  0  0  0  0  0
  150.4239  142.0265  159.3200 H   0  0  0  0  0  0  0  0  0  0  0  0
  1  2  1  0  0  0  0
  1 20  1  0  0  0  0
  1 21  1  0  0  0  0
  1 22  1  0  0  0  0
  2 19  1  0  0  0  0
  2  3  1  0  0  0  0
  2 23  1  0  0  0  0
  3  4  1  0  0  0  0
  3 24  1  0  0  0  0
  3 25  1  0  0  0  0
  4  5  1  0  0  0  0
  4 26  1  0  0  0  0
  4 27  1  0  0  0  0
  5  6  1  0  0  0  0
  5 28  1  0  0  0  0
  5 29  1  0  0  0  0
  6  7  1  0  0  0  0
  6 19  1  0  0  0  0
  6 42  1  0  0  0  0
  7  8  1  0  0  0  0
  7  9  1  0  0  0  0
  7 30  1  0  0  0  0
  8 31  1  0  0  0  0
  8 32  1  0  0  0  0
  8 33  1  0  0  0  0
  9 10  1  0  0  0  0
  9 34  1  0  0  0  0
  9 35  1  0  0  0  0
 10 11  1  0  0  0  0
 10 36  1  0  0  0  0
 11 12  2  0  0  0  0
 11 13  1  0  0  0  0
 13 14  1  0  0  0  0
 13 37  1  0  0  0  0
 13 38  1  0  0  0  0
 14 18  1  0  0  0  0
 14 15  1  0  0  0  0
 15 16  2  0  0  0  0
 15 39  1  0  0  0  0
 16 17  1  0  0  0  0
 17 18  2  0  0  0  0
 19 40  1  0  0  0  0
 19 41  1  0  0  0  0
M  CHG  1   6   1
M  END
> <s_m_source_file>
AV-unprocessed.smi

> <i_m_source_file_index>
2095

> <i_lp_mmshare_version>
43012

> <i_f3d_flags>
0

> <s_epik_input>
W0NIM11bQ0BASF0xW0NIMl1bQ0gyXVtDSDJdTihbQ0gyXTEpW0NASF0oW0NIM10pW0NIMl1bTkhdQyg9TylbQ0gyXW4yW2NIXW5ubjI=

> <s_epik_cmdline>
J2VwaWtfcHl0aG9uJywgJy1waCcsICc3LjAnLCAnLXRuJywgJzgnLCAnLW1hJywgJzIwMCcsICctbWV0YWxfYmluZGluZycsICctaW1hZScsICc8aW5maWxlLm1hZT4nLCAnLW9tYWUnLCAnPG91dGZpbGUubWFlPic=

> <r_lp_tautomer_probability>
1

> <r_epik_Ionization_Penalty>
0.00268321

> <r_epik_Ionization_Penalty_Charging>
0.00267875

> <r_epik_Ionization_Penalty_Neutral>
4.46125e-06

> <r_epik_State_Penalty>
0.00186642

> <r_epik_Charging_Adjusted_Penalty>
0.00454517

> <i_epik_Tot_Q>
1

> <i_epik_Tot_abs_Q>
1

> <r_epik_Metal_State_Penalty>
-0

> <b_epik_Metal_Only>
0

> <s_lp_Force_Field>
OPLS_2005

> <r_lp_Energy>
29.9009

> <b_lp_Chiralities_Consistent>
1

> <s_lp_Variant>
AV-unprocessed.smi:2095-6

> <Gold.Version>
5.8.1

> <Gold.Id.Protein>
6NUR|6NUR_protein|mol2

> <Gold.PLP.Fitness>
42.7772

> <Gold.PLP.PLP>
-36.3313

> <Gold.PLP.part.hbond>
-3.0292

> <Gold.PLP.part.metal>
0.0000

> <Gold.PLP.part.buried>
-6.6300

> <Gold.PLP.part.nonpolar>
-27.8390

> <Gold.PLP.part.repulsive>
0.2854

> <Gold.PLP.ligand.clash>
0.0000

> <Gold.PLP.ligand.torsion>
0.9992

> <Gold.PLP.Chemscore.Hbond>
2.7920

> <Gold.PLP.Chemscore.CHOScore>
0.0000

> <Gold.PLP.Chemscore.Metal>
0.0000

> <Gold.Chemscore.Hbonds>
donor molecule, donor type, donor heavy atom, donor atom, acceptor molecule, acceptor atom, score
      P1  H  6896  6908       L1    12  1.00
      P1  H  6931  6943       L1    18  0.85
      P1  H  6934  6947       L1    18  0.98

> <Gold.PLP.Chemscore.Internal.Correction>
0.0683

> <Gold.Rescore>
     Score         DG    S(hbond)    S(metal)    S(lipo)     H(rot)  DE(clash)    DE(int)     intcor
     15.46     -16.32       2.42        0.00      81.45       2.64       0.00       0.85       ----

> <Gold.Chemscore.Fitness>
15.4650

> <Gold.Chemscore.DG>
-16.3203

> <Gold.Chemscore.ZeroCoef>
-5.4800

> <Gold.Chemscore.Hbond>
2.4190

> <Gold.Chemscore.Metal>
0.0000

> <Gold.Chemscore.Lipo>
81.4483

> <Gold.Chemscore.Internal_Hbond>
0.0000

> <Gold.Chemscore.DEClash>
0.0048

> <Gold.Chemscore.DEInternal>
0.8505

> <Gold.Chemscore.Rot>
2.6439

> <Gold.Chemscore.Internal.Correction>
   9.000000E+99

> <Gold.Chemscore.Hbonds>
donor molecule, donor type, donor heavy atom, donor atom, acceptor molecule, acceptor atom, score
      P1  H  6896  6908       L1    12  0.99
      P1  H  6931  6943       L1    18  0.20
      P1  H  6934  6947       L1    18  0.87

> <Gold.Chemscore.Hbond.Weighted>
-8.0793

> <Gold.Chemscore.Metal.Weighted>
-0.0000

> <Gold.Chemscore.Lipo.Weighted>
-9.5295

> <Gold.Chemscore.Internal_Hbond.Weighted>
0.0000

> <Gold.Chemscore.DEClash.Weighted>
0.0048

> <Gold.Chemscore.DEInternal.Weighted>
0.8505

> <Gold.Chemscore.Rot.Weighted>
6.7685

> <Gold.Chemscore.Internal.Correction.Weighted>
   9.000000E+99

> <Gold.Protein.RotatedTorsions>
[ 6907 6896 6895 6894 ] final -134.46 input  -60.11 | X-H torsion
[ 7974 7965 7964 7962 ] final   24.45 input  175.53 | X-H torsion
[ 8008 7997 7996 7995 ] final   54.57 input   59.86 | X-H torsion
[ 10167 10162 10161 10158 ] final   68.32 input  -65.29 | X-H torsion
[ 10718 10713 10712 10709 ] final  -75.32 input   66.30 | X-H torsion
[ 10763 10752 10751 10750 ] final  141.63 input  -60.55 | X-H torsion
[ 11005 11000 10999 10996 ] final  112.59 input  -57.11 | X-H torsion

> <Gold.Protein.ActiveResidues>
 VAL166  LYS551  ARG553  GLY616  TRP617  ASP618  TYR619  PRO620  LYS621  CYS622 
 ASP623  PHE694  ASN695  SER759  ASP760  ASP761  ALA762  ILE779  LEU786  VAL792 
 PHE793  MET794  SER795  GLU796  ALA797  LYS798  CYS799  TRP800  GLU811  SER814 

> <Gold.Protein.RotatedAtoms>
  150.9862  133.6195  159.2714 H   0  0  0  0  0  0  0  0  0  0  0  0  # atno 6907 bound_to 6896
  151.3433  135.0867  159.9388 H   0  0  0  0  0  0  0  0  0  0  0  0  # atno 6908 bound_to 6896
  152.5231  133.9469  159.7707 H   0  0  0  0  0  0  0  0  0  0  0  0  # atno 6909 bound_to 6896
  146.1937  139.7603  142.8813 H   0  0  0  0  0  0  0  0  0  0  0  0  # atno 7974 bound_to 7965
  155.4869  140.3470  155.4348 H   0  0  0  0  0  0  0  0  0  0  0  0  # atno 8008 bound_to 7997
  156.1002  140.1433  156.9505 H   0  0  0  0  0  0  0  0  0  0  0  0  # atno 8009 bound_to 7997
  154.4689  140.0908  156.7071 H   0  0  0  0  0  0  0  0  0  0  0  0  # atno 8010 bound_to 7997
  140.0799  144.5080  150.7169 H   0  0  0  0  0  0  0  0  0  0  0  0  # atno 10167 bound_to 10162
  156.0212  130.4438  150.3025 H   0  0  0  0  0  0  0  0  0  0  0  0  # atno 10718 bound_to 10713
  153.9424  135.2978  155.3442 H   0  0  0  0  0  0  0  0  0  0  0  0  # atno 10763 bound_to 10752
  154.7470  135.4998  153.9224 H   0  0  0  0  0  0  0  0  0  0  0  0  # atno 10764 bound_to 10752
  153.1035  135.6741  153.9735 H   0  0  0  0  0  0  0  0  0  0  0  0  # atno 10765 bound_to 10752
  139.8931  134.9533  156.6609 H   0  0  0  0  0  0  0  0  0  0  0  0  # atno 11005 bound_to 11000
  145.3712  141.0343  143.3230 LP  0  0  0  0  0  0  0  0  0  0  0  0  # atno 17320 bound_to 7965
  144.8537  139.5283  143.6844 LP  0  0  0  0  0  0  0  0  0  0  0  0  # atno 17321 bound_to 7965
  140.7083  143.2485  151.4660 LP  0  0  0  0  0  0  0  0  0  0  0  0  # atno 17342 bound_to 10162
  139.5785  144.1763  152.1937 LP  0  0  0  0  0  0  0  0  0  0  0  0  # atno 17343 bound_to 10162
  157.1128  131.0226  151.3041 LP  0  0  0  0  0  0  0  0  0  0  0  0  # atno 17370 bound_to 10713
  157.4691  130.7698  149.7307 LP  0  0  0  0  0  0  0  0  0  0  0  0  # atno 17371 bound_to 10713
  140.7448  133.8947  155.8304 LP  0  0  0  0  0  0  0  0  0  0  0  0  # atno 17394 bound_to 11000
  141.0049  134.1100  157.4280 LP  0  0  0  0  0  0  0  0  0  0  0  0  # atno 17395 bound_to 11000

$$$$
