AV-unprocessed.smi:632|AV-procd|sdf|3129|dock5
  -GOLD-   22720 0 53D 1   1.00000     0.00000
 Structure written by MMmdl.
 41 42  0  0  0  0  0  0  0  0  2 V2000
  145.2153  130.5546  151.7036 C   0  0  0  0  0  0  0  0  0  0  0  0
  145.2204  132.0310  151.2624 C   0  0  0  0  0  0  0  0  0  0  0  0
  145.8107  132.0892  149.8360 C   0  0  0  0  0  0  0  0  0  0  0  0
  143.7822  132.5809  151.1890 C   0  0  0  0  0  0  0  0  0  0  0  0
  146.0366  132.8532  152.2328 C   0  0  0  0  0  0  0  0  0  0  0  0
  145.5362  133.9322  152.8470 N   0  0  0  0  0  0  0  0  0  0  0  0
  146.4501  134.5370  153.6966 N   0  0  0  0  0  0  0  0  0  0  0  0
  147.6310  133.9060  153.7332 C   0  0  0  0  0  0  0  0  0  0  0  0
  148.6551  134.3286  154.4930 N   0  5  0  0  0  0  0  0  0  0  0  0
  148.5446  135.4787  155.1966 C   0  0  0  0  0  0  0  0  0  0  0  0
  148.2760  135.5770  156.3963 O   0  0  0  0  0  0  0  0  0  0  0  0
  148.7625  136.5815  154.4651 N   0  0  0  0  0  0  0  0  0  0  0  0
  148.7240  137.9598  154.9482 C   0  0  2  0  0  0  0  0  0  0  0  0
  147.7051  138.7869  154.1396 C   0  0  0  0  0  0  0  0  0  0  0  0
  147.6928  140.2603  154.5844 C   0  0  0  0  0  0  0  0  0  0  0  0
  149.0945  140.8983  154.5405 C   0  0  2  0  0  0  0  0  0  0  0  0
  149.5088  141.0726  153.1997 O   0  0  0  0  0  0  0  0  0  0  0  0
  150.1284  140.0506  155.3061 C   0  0  0  0  0  0  0  0  0  0  0  0
  150.1290  138.5808  154.8506 C   0  0  0  0  0  0  0  0  0  0  0  0
  147.7063  132.4988  152.6769 S   0  0  0  0  0  0  0  0  0  0  0  0
  144.6445  129.9343  151.0120 H   0  0  0  0  0  0  0  0  0  0  0  0
  144.7690  130.4341  152.6913 H   0  0  0  0  0  0  0  0  0  0  0  0
  146.2281  130.1520  151.7497 H   0  0  0  0  0  0  0  0  0  0  0  0
  146.8270  131.6940  149.8037 H   0  0  0  0  0  0  0  0  0  0  0  0
  145.8367  133.1101  149.4527 H   0  0  0  0  0  0  0  0  0  0  0  0
  145.2161  131.4996  149.1373 H   0  0  0  0  0  0  0  0  0  0  0  0
  143.1752  132.0160  150.4808 H   0  0  0  0  0  0  0  0  0  0  0  0
  143.7729  133.6247  150.8728 H   0  0  0  0  0  0  0  0  0  0  0  0
  143.2833  132.5269  152.1573 H   0  0  0  0  0  0  0  0  0  0  0  0
  148.9762  136.4501  153.4874 H   0  0  0  0  0  0  0  0  0  0  0  0
  148.4284  137.9655  155.9991 H   0  0  0  0  0  0  0  0  0  0  0  0
  147.9430  138.7286  153.0765 H   0  0  0  0  0  0  0  0  0  0  0  0
  146.7059  138.3649  154.2531 H   0  0  0  0  0  0  0  0  0  0  0  0
  146.9965  140.8317  153.9696 H   0  0  0  0  0  0  0  0  0  0  0  0
  147.3108  140.3149  155.6046 H   0  0  0  0  0  0  0  0  0  0  0  0
  149.0474  141.8915  154.9885 H   0  0  0  0  0  0  0  0  0  0  0  0
  149.1883  140.3448  152.6893 H   0  0  0  0  0  0  0  0  0  0  0  0
  151.1256  140.4782  155.1956 H   0  0  0  0  0  0  0  0  0  0  0  0
  149.8987  140.0887  156.3717 H   0  0  0  0  0  0  0  0  0  0  0  0
  150.8312  138.0106  155.4599 H   0  0  0  0  0  0  0  0  0  0  0  0
  150.4922  138.5171  153.8238 H   0  0  0  0  0  0  0  0  0  0  0  0
  1  2  1  0  0  0  0
  1 21  1  0  0  0  0
  1 22  1  0  0  0  0
  1 23  1  0  0  0  0
  2  3  1  0  0  0  0
  2  4  1  0  0  0  0
  2  5  1  0  0  0  0
  3 24  1  0  0  0  0
  3 25  1  0  0  0  0
  3 26  1  0  0  0  0
  4 27  1  0  0  0  0
  4 28  1  0  0  0  0
  4 29  1  0  0  0  0
  5 20  1  0  0  0  0
  5  6  2  0  0  0  0
  6  7  1  0  0  0  0
  7  8  2  0  0  0  0
  8  9  1  0  0  0  0
  8 20  1  0  0  0  0
  9 10  1  0  0  0  0
 10 11  2  0  0  0  0
 10 12  1  0  0  0  0
 12 13  1  0  0  0  0
 12 30  1  0  0  0  0
 13 19  1  0  0  0  0
 13 14  1  0  0  0  0
 13 31  1  0  0  0  0
 14 15  1  0  0  0  0
 14 32  1  0  0  0  0
 14 33  1  0  0  0  0
 15 16  1  0  0  0  0
 15 34  1  0  0  0  0
 15 35  1  0  0  0  0
 16 17  1  0  0  0  0
 16 18  1  0  0  0  0
 16 36  1  0  0  0  0
 17 37  1  0  0  0  0
 18 19  1  0  0  0  0
 18 38  1  0  0  0  0
 18 39  1  0  0  0  0
 19 40  1  0  0  0  0
 19 41  1  0  0  0  0
M  CHG  1   9  -1
M  END
> <s_m_source_file>
AV-unprocessed.smi

> <i_m_source_file_index>
632

> <i_lp_mmshare_version>
43012

> <i_f3d_flags>
0

> <s_epik_input>
W0NIM11DKFtDSDNdKShbQ0gzXSljMW5uYyhzMSlbTkhdQyg9TylbTkhdW0NAQEhdMltDSDJdW0NIMl1bQ0BASF0oW09IXSlbQ0gyXVtDSDJdMg==

> <s_epik_cmdline>
J2VwaWtfcHl0aG9uJywgJy1waCcsICc3LjAnLCAnLXRuJywgJzgnLCAnLW1hJywgJzIwMCcsICctbWV0YWxfYmluZGluZycsICctaW1hZScsICc8aW5maWxlLm1hZT4nLCAnLW9tYWUnLCAnPG91dGZpbGUubWFlPic=

> <r_lp_tautomer_probability>
1

> <r_epik_Ionization_Penalty>
4.62389

> <r_epik_Ionization_Penalty_Charging>
4.45204

> <r_epik_Ionization_Penalty_Neutral>
0.171842

> <r_epik_State_Penalty>
4.45172

> <r_epik_Charging_Adjusted_Penalty>
8.90376

> <i_epik_Tot_Q>
-1

> <i_epik_Tot_abs_Q>
1

> <r_epik_Metal_State_Penalty>
0.795834

> <b_epik_Metal_Only>
1

> <s_lp_Force_Field>
OPLS_2005

> <r_lp_Energy>
3.40986

> <b_lp_Chiralities_Consistent>
1

> <s_lp_Variant>
AV-unprocessed.smi:632-4

> <Gold.Version>
5.8.1

> <Gold.Id.Protein>
6NUR|6NUR_protein|mol2

> <Gold.PLP.Fitness>
37.7147

> <Gold.PLP.PLP>
-31.4790

> <Gold.PLP.part.hbond>
-3.1953

> <Gold.PLP.part.metal>
0.0000

> <Gold.PLP.part.buried>
-3.7038

> <Gold.PLP.part.nonpolar>
-25.1212

> <Gold.PLP.part.repulsive>
0.3322

> <Gold.PLP.ligand.clash>
0.0000

> <Gold.PLP.ligand.torsion>
0.8151

> <Gold.PLP.Chemscore.Hbond>
2.6118

> <Gold.PLP.Chemscore.CHOScore>
0.0000

> <Gold.PLP.Chemscore.Metal>
0.0000

> <Gold.Chemscore.Hbonds>
donor molecule, donor type, donor heavy atom, donor atom, acceptor molecule, acceptor atom, score
      L1  H    12    30       P1  7948  1.00
      L1  H    17    37       P1  7957  0.48
      P1  H  7989  7998       L1    17  0.10
      P1  H  8011  8017       L1    17  1.00

> <Gold.PLP.Chemscore.Internal.Correction>
0.0304

> <Gold.Rescore>
     Score         DG    S(hbond)    S(metal)    S(lipo)     H(rot)  DE(clash)    DE(int)     intcor
     17.76     -18.80       2.42        0.00      81.44       1.67       0.14       0.90       ----

> <Gold.Chemscore.Fitness>
17.7603

> <Gold.Chemscore.DG>
-18.7957

> <Gold.Chemscore.ZeroCoef>
-5.4800

> <Gold.Chemscore.Hbond>
2.4168

> <Gold.Chemscore.Metal>
0.0000

> <Gold.Chemscore.Lipo>
81.4374

> <Gold.Chemscore.Internal_Hbond>
0.0000

> <Gold.Chemscore.DEClash>
0.1367

> <Gold.Chemscore.DEInternal>
0.8987

> <Gold.Chemscore.Rot>
1.6737

> <Gold.Chemscore.Internal.Correction>
   9.000000E+99

> <Gold.Chemscore.Hbonds>
donor molecule, donor type, donor heavy atom, donor atom, acceptor molecule, acceptor atom, score
      L1  H    12    30       P1  7948  0.99
      L1  H    17    37       P1  7957  0.47
      P1  H  7989  7998       L1    17  0.02
      P1  H  8011  8017       L1    17  0.87

> <Gold.Chemscore.Hbond.Weighted>
-8.0723

> <Gold.Chemscore.Metal.Weighted>
-0.0000

> <Gold.Chemscore.Lipo.Weighted>
-9.5282

> <Gold.Chemscore.Internal_Hbond.Weighted>
0.0000

> <Gold.Chemscore.DEClash.Weighted>
0.1367

> <Gold.Chemscore.DEInternal.Weighted>
0.8987

> <Gold.Chemscore.Rot.Weighted>
4.2848

> <Gold.Chemscore.Internal.Correction.Weighted>
   9.000000E+99

> <Gold.Protein.RotatedTorsions>
[ 6907 6896 6895 6894 ] final   98.75 input  -60.11 | X-H torsion
[ 7974 7965 7964 7962 ] final -177.47 input  175.53 | X-H torsion
[ 8008 7997 7996 7995 ] final  -99.41 input   59.86 | X-H torsion
[ 10167 10162 10161 10158 ] final -161.67 input  -65.29 | X-H torsion
[ 10718 10713 10712 10709 ] final  -59.55 input   66.30 | X-H torsion
[ 10763 10752 10751 10750 ] final -158.15 input  -60.55 | X-H torsion
[ 11005 11000 10999 10996 ] final -119.11 input  -57.11 | X-H torsion

> <Gold.Protein.ActiveResidues>
 VAL166  LYS551  ARG553  GLY616  TRP617  ASP618  TYR619  PRO620  LYS621  CYS622 
 ASP623  PHE694  ASN695  SER759  ASP760  ASP761  ALA762  ILE779  LEU786  VAL792 
 PHE793  MET794  SER795  GLU796  ALA797  LYS798  CYS799  TRP800  GLU811  SER814 

> <Gold.Protein.RotatedAtoms>
  152.5404  134.0533  159.8119 H   0  0  0  0  0  0  0  0  0  0  0  0  # atno 6907 bound_to 6896
  151.0672  133.5488  159.2637 H   0  0  0  0  0  0  0  0  0  0  0  0  # atno 6908 bound_to 6896
  151.2365  135.0581  159.9062 H   0  0  0  0  0  0  0  0  0  0  0  0  # atno 6909 bound_to 6896
  144.7128  140.1015  143.6416 H   0  0  0  0  0  0  0  0  0  0  0  0  # atno 7974 bound_to 7965
  154.8145  140.0448  157.1366 H   0  0  0  0  0  0  0  0  0  0  0  0  # atno 8008 bound_to 7997
  154.9331  140.3042  155.5138 H   0  0  0  0  0  0  0  0  0  0  0  0  # atno 8009 bound_to 7997
  156.2975  140.2319  156.4392 H   0  0  0  0  0  0  0  0  0  0  0  0  # atno 8010 bound_to 7997
  139.6448  144.0192  152.2119 H   0  0  0  0  0  0  0  0  0  0  0  0  # atno 10167 bound_to 10162
  156.1053  130.4181  150.0731 H   0  0  0  0  0  0  0  0  0  0  0  0  # atno 10718 bound_to 10713
  154.7579  135.3110  154.8434 H   0  0  0  0  0  0  0  0  0  0  0  0  # atno 10763 bound_to 10752
  153.9203  135.6796  153.4752 H   0  0  0  0  0  0  0  0  0  0  0  0  # atno 10764 bound_to 10752
  153.1178  135.4836  154.9075 H   0  0  0  0  0  0  0  0  0  0  0  0  # atno 10765 bound_to 10752
  141.0238  134.0084  157.3244 H   0  0  0  0  0  0  0  0  0  0  0  0  # atno 11005 bound_to 11000
  145.9534  139.2749  143.1199 LP  0  0  0  0  0  0  0  0  0  0  0  0  # atno 17320 bound_to 7965
  145.9299  140.9056  143.0362 LP  0  0  0  0  0  0  0  0  0  0  0  0  # atno 17321 bound_to 7965
  139.9891  144.6374  150.7831 LP  0  0  0  0  0  0  0  0  0  0  0  0  # atno 17342 bound_to 10162
  140.7509  143.2963  151.3195 LP  0  0  0  0  0  0  0  0  0  0  0  0  # atno 17343 bound_to 10162
  156.8708  130.9523  151.3609 LP  0  0  0  0  0  0  0  0  0  0  0  0  # atno 17370 bound_to 10713
  157.6229  130.8669  149.9140 LP  0  0  0  0  0  0  0  0  0  0  0  0  # atno 17371 bound_to 10713
  139.9163  135.0197  156.7893 LP  0  0  0  0  0  0  0  0  0  0  0  0  # atno 17394 bound_to 11000
  140.6526  133.9717  155.7763 LP  0  0  0  0  0  0  0  0  0  0  0  0  # atno 17395 bound_to 11000

$$$$
