AV-unprocessed.smi:284|AV-procd|sdf|2161|dock6
  -GOLD-   2262021513D 1   1.00000     0.00000
 Structure written by MMmdl.
 60 62  0  0  0  0  0  0  0  0  1 V2000
  149.9932  133.1762  154.6026 C   0  0  0  0  0  0  0  0  0  0  0  0
  148.9852  134.1280  155.2280 C   0  0  0  0  0  0  0  0  0  0  0  0
  147.8746  134.5341  154.5708 C   0  0  0  0  0  0  0  0  0  0  0  0
  146.9338  135.3960  155.1077 N   0  0  0  0  0  0  0  0  0  0  0  0
  145.7534  135.8956  154.2958 C   0  0  2  0  0  0  0  0  0  0  0  0
  145.5197  135.1381  152.9805 C   0  0  0  0  0  0  0  0  0  0  0  0
  145.9824  136.1440  151.9411 C   0  0  1  0  0  0  0  0  0  0  0  0
  145.2744  135.9745  150.7297 O   0  0  0  0  0  0  0  0  0  0  0  0
  145.6684  137.4802  152.6199 C   0  0  2  0  0  0  0  0  0  0  0  0
  146.5118  138.6502  152.0908 C   0  0  0  0  0  0  0  0  0  0  0  0
  146.6792  138.5361  150.6939 O   0  0  0  0  0  0  0  0  0  0  0  0
  145.9887  137.2347  153.9860 O   0  0  0  0  0  0  0  0  0  0  0  0
  147.1792  135.9784  156.3705 C   0  0  0  0  0  0  0  0  0  0  0  0
  146.4209  136.8334  156.8337 O   0  0  0  0  0  0  0  0  0  0  0  0
  148.3170  135.5563  157.0950 N   0  0  0  0  0  0  0  0  0  0  0  0
  148.5598  136.1377  158.4347 C   0  0  0  0  0  0  0  0  0  0  0  0
  148.6710  137.6709  158.4363 C   0  0  0  0  0  0  0  0  0  0  0  0
  147.6604  138.3723  158.3753 O   0  0  0  0  0  0  0  0  0  0  0  0
  149.9287  138.1475  158.4778 N   0  0  0  0  0  0  0  0  0  0  0  0
  150.3696  139.4982  158.5092 C   0  0  0  0  0  0  0  0  0  0  0  0
  149.5730  140.5943  158.1053 C   0  0  0  0  0  0  0  0  0  0  0  0
  150.0728  141.9085  158.1893 C   0  0  0  0  0  0  0  0  0  0  0  0
  151.3750  142.1630  158.6859 C   0  0  0  0  0  0  0  0  0  0  0  0
  151.9540  143.5868  158.7952 C   0  0  0  0  0  0  0  0  0  0  0  0
  153.4127  143.5135  159.2918 C   0  0  0  0  0  0  0  0  0  0  0  0
  151.1681  144.4839  159.7780 C   0  0  0  0  0  0  0  0  0  0  0  0
  151.9208  144.2700  157.4119 C   0  0  0  0  0  0  0  0  0  0  0  0
  152.1559  141.0591  159.1015 C   0  0  0  0  0  0  0  0  0  0  0  0
  151.6588  139.7450  159.0187 C   0  0  0  0  0  0  0  0  0  0  0  0
  149.2524  134.6280  156.5775 C   0  0  0  0  0  0  0  0  0  0  0  0
  150.2354  134.2900  157.2398 O   0  0  0  0  0  0  0  0  0  0  0  0
  149.6910  132.8621  153.6032 H   0  0  0  0  0  0  0  0  0  0  0  0
  150.1017  132.2798  155.2142 H   0  0  0  0  0  0  0  0  0  0  0  0
  150.9693  133.6555  154.5204 H   0  0  0  0  0  0  0  0  0  0  0  0
  147.7355  134.1644  153.5681 H   0  0  0  0  0  0  0  0  0  0  0  0
  144.8758  135.8013  154.9364 H   0  0  0  0  0  0  0  0  0  0  0  0
  146.0211  134.1712  152.9401 H   0  0  0  0  0  0  0  0  0  0  0  0
  144.4467  134.9612  152.8887 H   0  0  0  0  0  0  0  0  0  0  0  0
  147.0532  136.0480  151.7612 H   0  0  0  0  0  0  0  0  0  0  0  0
  145.8831  136.0513  150.0107 H   0  0  0  0  0  0  0  0  0  0  0  0
  144.5997  137.6899  152.5378 H   0  0  0  0  0  0  0  0  0  0  0  0
  146.0610  139.6103  152.3442 H   0  0  0  0  0  0  0  0  0  0  0  0
  147.5054  138.6310  152.5390 H   0  0  0  0  0  0  0  0  0  0  0  0
  145.8318  138.6105  150.2821 H   0  0  0  0  0  0  0  0  0  0  0  0
  147.7710  135.8456  159.1301 H   0  0  0  0  0  0  0  0  0  0  0  0
  149.4662  135.7280  158.8831 H   0  0  0  0  0  0  0  0  0  0  0  0
  150.6619  137.4555  158.4262 H   0  0  0  0  0  0  0  0  0  0  0  0
  148.5670  140.4552  157.7412 H   0  0  0  0  0  0  0  0  0  0  0  0
  149.4238  142.7077  157.8675 H   0  0  0  0  0  0  0  0  0  0  0  0
  153.8469  144.5085  159.3967 H   0  0  0  0  0  0  0  0  0  0  0  0
  154.0523  142.9569  158.6067 H   0  0  0  0  0  0  0  0  0  0  0  0
  153.4730  143.0261  160.2657 H   0  0  0  0  0  0  0  0  0  0  0  0
  151.1820  144.0820  160.7919 H   0  0  0  0  0  0  0  0  0  0  0  0
  150.1272  144.6005  159.4736 H   0  0  0  0  0  0  0  0  0  0  0  0
  151.5984  145.4848  159.8289 H   0  0  0  0  0  0  0  0  0  0  0  0
  152.3051  145.2892  157.4636 H   0  0  0  0  0  0  0  0  0  0  0  0
  150.9034  144.3237  157.0228 H   0  0  0  0  0  0  0  0  0  0  0  0
  152.5256  143.7402  156.6760 H   0  0  0  0  0  0  0  0  0  0  0  0
  153.1504  141.2104  159.4934 H   0  0  0  0  0  0  0  0  0  0  0  0
  152.2782  138.9229  159.3464 H   0  0  0  0  0  0  0  0  0  0  0  0
  1  2  1  0  0  0  0
  1 32  1  0  0  0  0
  1 33  1  0  0  0  0
  1 34  1  0  0  0  0
  2 30  1  0  0  0  0
  2  3  2  0  0  0  0
  3  4  1  0  0  0  0
  3 35  1  0  0  0  0
  4  5  1  0  0  0  0
  4 13  1  0  0  0  0
  5 12  1  0  0  0  0
  5  6  1  0  0  0  0
  5 36  1  0  0  0  0
  6  7  1  0  0  0  0
  6 37  1  0  0  0  0
  6 38  1  0  0  0  0
  7  8  1  0  0  0  0
  7  9  1  0  0  0  0
  7 39  1  0  0  0  0
  8 40  1  0  0  0  0
  9 10  1  0  0  0  0
  9 12  1  0  0  0  0
  9 41  1  0  0  0  0
 10 11  1  0  0  0  0
 10 42  1  0  0  0  0
 10 43  1  0  0  0  0
 11 44  1  0  0  0  0
 13 14  2  0  0  0  0
 13 15  1  0  0  0  0
 15 16  1  0  0  0  0
 15 30  1  0  0  0  0
 16 17  1  0  0  0  0
 16 45  1  0  0  0  0
 16 46  1  0  0  0  0
 17 18  2  0  0  0  0
 17 19  1  0  0  0  0
 19 20  1  0  0  0  0
 19 47  1  0  0  0  0
 20 29  1  0  0  0  0
 20 21  2  0  0  0  0
 21 22  1  0  0  0  0
 21 48  1  0  0  0  0
 22 23  2  0  0  0  0
 22 49  1  0  0  0  0
 23 24  1  0  0  0  0
 23 28  1  0  0  0  0
 24 25  1  0  0  0  0
 24 26  1  0  0  0  0
 24 27  1  0  0  0  0
 25 50  1  0  0  0  0
 25 51  1  0  0  0  0
 25 52  1  0  0  0  0
 26 53  1  0  0  0  0
 26 54  1  0  0  0  0
 26 55  1  0  0  0  0
 27 56  1  0  0  0  0
 27 57  1  0  0  0  0
 27 58  1  0  0  0  0
 28 29  2  0  0  0  0
 28 59  1  0  0  0  0
 29 60  1  0  0  0  0
 30 31  2  0  0  0  0
M  END
> <s_m_source_file>
AV-unprocessed.smi

> <i_m_source_file_index>
284

> <i_lp_mmshare_version>
43012

> <i_f3d_flags>
0

> <s_epik_input>
W09IXVtDSDJdW0NAQEhdKE8xKVtDQEhdKFtPSF0pW0NIMl1bQ0BIXTFuKFtjSF1jMltDSDNdKWMoPU8pbihjMj1PKVtDSDJdQyg9TylbTkhdYzNbY0hdW2NIXWMoQyhbQ0gzXSkoW0NIM10pW0NIM10pW2NIXVtjSF0z

> <s_epik_cmdline>
J2VwaWtfcHl0aG9uJywgJy1waCcsICc3LjAnLCAnLXRuJywgJzgnLCAnLW1hJywgJzIwMCcsICctbWV0YWxfYmluZGluZycsICctaW1hZScsICc8aW5maWxlLm1hZT4nLCAnLW9tYWUnLCAnPG91dGZpbGUubWFlPic=

> <r_lp_tautomer_probability>
1

> <r_epik_Ionization_Penalty>
4.92358e-06

> <r_epik_Ionization_Penalty_Charging>
1.29777e-07

> <r_epik_Ionization_Penalty_Neutral>
4.79381e-06

> <r_epik_State_Penalty>
-0

> <r_epik_Charging_Adjusted_Penalty>
1.29777e-07

> <i_epik_Tot_Q>
0

> <i_epik_Tot_abs_Q>
0

> <r_epik_Metal_State_Penalty>
-0

> <b_epik_Metal_Only>
0

> <s_epik_Chemistry_Notes>
This compound contains an acetal/aminal-like group ( X-CH(R)-Y where X, Y are N, S, or O) that may be acid/base labile, releasing an aldehyde.

> <s_lp_Force_Field>
OPLS_2005

> <r_lp_Energy>
40.5501

> <b_lp_Chiralities_Consistent>
1

> <s_lp_Variant>
AV-unprocessed.smi:284-5

> <Gold.Version>
5.8.1

> <Gold.Id.Protein>
6NUR|6NUR_protein|mol2

> <Gold.PLP.Fitness>
48.8930

> <Gold.PLP.PLP>
-42.5113

> <Gold.PLP.part.hbond>
-4.1092

> <Gold.PLP.part.metal>
0.0000

> <Gold.PLP.part.buried>
-7.1105

> <Gold.PLP.part.nonpolar>
-31.8729

> <Gold.PLP.part.repulsive>
0.2554

> <Gold.PLP.ligand.clash>
0.0000

> <Gold.PLP.ligand.torsion>
0.8145

> <Gold.PLP.Chemscore.Hbond>
2.5917

> <Gold.PLP.Chemscore.CHOScore>
0.0000

> <Gold.PLP.Chemscore.Metal>
0.0000

> <Gold.Chemscore.Hbonds>
donor molecule, donor type, donor heavy atom, donor atom, acceptor molecule, acceptor atom, score
      L1  H    11    44       P1 10171  1.00
      P1  H  6896  6908       L1    31  0.53
      P1  H  7954  7966       L1    11  0.90
      L1  C     3    35       P1  7948  0.02

> <Gold.PLP.Chemscore.Internal.Correction>
0.2356

> <Gold.Rescore>
     Score         DG    S(hbond)    S(metal)    S(lipo)     H(rot)  DE(clash)    DE(int)     intcor
     13.56     -19.85       2.78        0.00     115.10       3.27       0.04       6.26       ----

> <Gold.Chemscore.Fitness>
13.5622

> <Gold.Chemscore.DG>
-19.8549

> <Gold.Chemscore.ZeroCoef>
-5.4800

> <Gold.Chemscore.Hbond>
2.7810

> <Gold.Chemscore.Metal>
0.0000

> <Gold.Chemscore.Lipo>
115.0975

> <Gold.Chemscore.Internal_Hbond>
0.0000

> <Gold.Chemscore.DEClash>
0.0358

> <Gold.Chemscore.DEInternal>
6.2569

> <Gold.Chemscore.Rot>
3.2735

> <Gold.Chemscore.Internal.Correction>
   9.000000E+99

> <Gold.Chemscore.Hbonds>
donor molecule, donor type, donor heavy atom, donor atom, acceptor molecule, acceptor atom, score
      L1  H    11    44       P1 10171  0.97
      P1  H  6896  6908       L1    31  0.51
      P1  H  7954  7966       L1    11  0.86

> <Gold.Chemscore.Hbond.Weighted>
-9.2885

> <Gold.Chemscore.Metal.Weighted>
-0.0000

> <Gold.Chemscore.Lipo.Weighted>
-13.4664

> <Gold.Chemscore.Internal_Hbond.Weighted>
0.0000

> <Gold.Chemscore.DEClash.Weighted>
0.0358

> <Gold.Chemscore.DEInternal.Weighted>
6.2569

> <Gold.Chemscore.Rot.Weighted>
8.3801

> <Gold.Chemscore.Internal.Correction.Weighted>
   9.000000E+99

> <Gold.Protein.RotatedTorsions>
[ 6907 6896 6895 6894 ] final  116.89 input  -60.11 | X-H torsion
[ 7974 7965 7964 7962 ] final  178.01 input  175.53 | X-H torsion
[ 8008 7997 7996 7995 ] final -144.56 input   59.86 | X-H torsion
[ 10167 10162 10161 10158 ] final  -14.86 input  -65.29 | X-H torsion
[ 10718 10713 10712 10709 ] final -116.79 input   66.30 | X-H torsion
[ 10763 10752 10751 10750 ] final  -14.19 input  -60.55 | X-H torsion
[ 11005 11000 10999 10996 ] final  -21.75 input  -57.11 | X-H torsion

> <Gold.Protein.ActiveResidues>
 VAL166  LYS551  ARG553  GLY616  TRP617  ASP618  TYR619  PRO620  LYS621  CYS622 
 ASP623  PHE694  ASN695  SER759  ASP760  ASP761  ALA762  ILE779  LEU786  VAL792 
 PHE793  MET794  SER795  GLU796  ALA797  LYS798  CYS799  TRP800  GLU811  SER814 

> <Gold.Protein.RotatedAtoms>
  152.4648  133.7900  159.6896 H   0  0  0  0  0  0  0  0  0  0  0  0  # atno 6907 bound_to 6896
  150.8608  133.7637  159.2999 H   0  0  0  0  0  0  0  0  0  0  0  0  # atno 6908 bound_to 6896
  151.5202  135.1070  159.9928 H   0  0  0  0  0  0  0  0  0  0  0  0  # atno 6909 bound_to 6896
  144.7161  140.0333  143.6438 H   0  0  0  0  0  0  0  0  0  0  0  0  # atno 7974 bound_to 7965
  155.5289  140.0598  157.2892 H   0  0  0  0  0  0  0  0  0  0  0  0  # atno 8008 bound_to 7997
  154.4491  140.1939  156.0519 H   0  0  0  0  0  0  0  0  0  0  0  0  # atno 8009 bound_to 7997
  156.0666  140.3265  155.7529 H   0  0  0  0  0  0  0  0  0  0  0  0  # atno 8010 bound_to 7997
  140.7209  143.5277  150.9557 H   0  0  0  0  0  0  0  0  0  0  0  0  # atno 10167 bound_to 10162
  156.0988  130.6154  150.9080 H   0  0  0  0  0  0  0  0  0  0  0  0  # atno 10718 bound_to 10713
  153.5245  135.7015  153.5714 H   0  0  0  0  0  0  0  0  0  0  0  0  # atno 10763 bound_to 10752
  153.3749  135.3935  155.1815 H   0  0  0  0  0  0  0  0  0  0  0  0  # atno 10764 bound_to 10752
  154.8691  135.3821  154.4737 H   0  0  0  0  0  0  0  0  0  0  0  0  # atno 10765 bound_to 10752
  140.8591  133.7801  156.0054 H   0  0  0  0  0  0  0  0  0  0  0  0  # atno 11005 bound_to 11000
  146.0084  139.3149  143.0885 LP  0  0  0  0  0  0  0  0  0  0  0  0  # atno 17320 bound_to 7965
  145.8711  140.9419  143.0650 LP  0  0  0  0  0  0  0  0  0  0  0  0  # atno 17321 bound_to 7965
  139.8997  143.6851  152.3133 LP  0  0  0  0  0  0  0  0  0  0  0  0  # atno 17342 bound_to 10162
  139.7196  144.7605  151.0977 LP  0  0  0  0  0  0  0  0  0  0  0  0  # atno 17343 bound_to 10162
  157.6154  131.0933  150.8720 LP  0  0  0  0  0  0  0  0  0  0  0  0  # atno 17370 bound_to 10713
  156.8852  130.5193  149.5289 LP  0  0  0  0  0  0  0  0  0  0  0  0  # atno 17371 bound_to 10713
  140.8703  134.2734  157.5194 LP  0  0  0  0  0  0  0  0  0  0  0  0  # atno 17394 bound_to 11000
  139.8706  134.9564  156.4235 LP  0  0  0  0  0  0  0  0  0  0  0  0  # atno 17395 bound_to 11000

$$$$
