AV-unprocessed.smi:1740|AV-procd|sdf|7009|dock1
  -GOLD-   22720 8223D 1   1.00000     0.00000
 Structure written by MMmdl.
 52 54  0  0  0  0  0  0  0  0  2 V2000
  155.1978  134.7005  165.1736 N   0  0  0  0  0  0  0  0  0  0  0  0
  155.7369  134.7441  163.9526 C   0  0  0  0  0  0  0  0  0  0  0  0
  156.9255  134.9946  163.7657 O   0  0  0  0  0  0  0  0  0  0  0  0
  154.8019  134.4737  162.7682 C   0  0  0  0  0  0  0  0  0  0  0  0
  154.4445  135.6733  161.9759 N   0  0  0  0  0  0  0  0  0  0  0  0
  155.4510  135.9882  160.9509 C   0  0  0  0  0  0  0  0  0  0  0  0
  155.0089  137.1990  160.1097 C   0  0  0  0  0  0  0  0  0  0  0  0
  154.7559  138.4311  160.9934 C   0  0  0  0  0  0  0  0  0  0  0  0
  154.2101  139.5331  160.2067 N   0  0  0  0  0  0  0  0  0  0  0  0
  153.2178  139.4238  159.3124 C   0  0  0  0  0  0  0  0  0  0  0  0
  152.6475  138.3650  159.0494 O   0  0  0  0  0  0  0  0  0  0  0  0
  152.9182  140.6143  158.7669 N   0  0  0  0  0  0  0  0  0  0  0  0
  151.9033  140.8967  157.8104 C   0  0  0  0  0  0  0  0  0  0  0  0
  151.2730  139.8511  157.0883 C   0  0  0  0  0  0  0  0  0  0  0  0
  150.3254  140.1564  156.0933 C   0  0  0  0  0  0  0  0  0  0  0  0
  150.0331  141.5042  155.8235 C   0  0  0  0  0  0  0  0  0  0  0  0
  150.6578  142.4762  156.5200 N   0  3  0  0  0  0  0  0  0  0  0  0
  151.5676  142.2464  157.4998 C   0  0  0  0  0  0  0  0  0  0  0  0
  152.1291  143.3649  158.1570 N   0  0  0  0  0  0  0  0  0  0  0  0
  151.8934  144.7127  157.6515 C   0  0  0  0  0  0  0  0  0  0  0  0
  152.3127  145.6413  158.7879 C   0  0  0  0  0  0  0  0  0  0  0  0
  151.9050  144.8481  160.0258 C   0  0  0  0  0  0  0  0  0  0  0  0
  152.1403  143.3905  159.6167 C   0  0  0  0  0  0  0  0  0  0  0  0
  153.7752  138.0490  162.1103 C   0  0  0  0  0  0  0  0  0  0  0  0
  154.2707  136.8136  162.8819 C   0  0  0  0  0  0  0  0  0  0  0  0
  155.7763  134.8662  165.9845 H   0  0  0  0  0  0  0  0  0  0  0  0
  154.2148  134.4960  165.2805 H   0  0  0  0  0  0  0  0  0  0  0  0
  155.2991  133.7467  162.1242 H   0  0  0  0  0  0  0  0  0  0  0  0
  153.8943  133.9905  163.1352 H   0  0  0  0  0  0  0  0  0  0  0  0
  156.4164  136.1863  161.4202 H   0  0  0  0  0  0  0  0  0  0  0  0
  155.5976  135.1450  160.2759 H   0  0  0  0  0  0  0  0  0  0  0  0
  155.7716  137.4226  159.3628 H   0  0  0  0  0  0  0  0  0  0  0  0
  154.1027  136.9436  159.5581 H   0  0  0  0  0  0  0  0  0  0  0  0
  155.6959  138.7424  161.4533 H   0  0  0  0  0  0  0  0  0  0  0  0
  154.6184  140.4435  160.3593 H   0  0  0  0  0  0  0  0  0  0  0  0
  153.3945  141.4168  159.1519 H   0  0  0  0  0  0  0  0  0  0  0  0
  151.5209  138.8159  157.2687 H   0  0  0  0  0  0  0  0  0  0  0  0
  149.8405  139.3673  155.5371 H   0  0  0  0  0  0  0  0  0  0  0  0
  149.3269  141.8332  155.0750 H   0  0  0  0  0  0  0  0  0  0  0  0
  152.4640  144.9029  156.7420 H   0  0  0  0  0  0  0  0  0  0  0  0
  150.8350  144.8599  157.4324 H   0  0  0  0  0  0  0  0  0  0  0  0
  153.3941  145.7835  158.7761 H   0  0  0  0  0  0  0  0  0  0  0  0
  151.8394  146.6221  158.7326 H   0  0  0  0  0  0  0  0  0  0  0  0
  152.4625  145.1332  160.9185 H   0  0  0  0  0  0  0  0  0  0  0  0
  150.8446  145.0068  160.2273 H   0  0  0  0  0  0  0  0  0  0  0  0
  151.3838  142.7320  160.0465 H   0  0  0  0  0  0  0  0  0  0  0  0
  153.1184  143.0585  159.9662 H   0  0  0  0  0  0  0  0  0  0  0  0
  153.6480  138.8858  162.7980 H   0  0  0  0  0  0  0  0  0  0  0  0
  152.7899  137.8413  161.6897 H   0  0  0  0  0  0  0  0  0  0  0  0
  153.5393  136.5658  163.6523 H   0  0  0  0  0  0  0  0  0  0  0  0
  155.2076  137.0386  163.3952 H   0  0  0  0  0  0  0  0  0  0  0  0
  150.4236  143.4448  156.3011 H   0  0  0  0  0  0  0  0  0  0  0  0
  1  2  1  0  0  0  0
  1 26  1  0  0  0  0
  1 27  1  0  0  0  0
  2  3  2  0  0  0  0
  2  4  1  0  0  0  0
  4  5  1  0  0  0  0
  4 28  1  0  0  0  0
  4 29  1  0  0  0  0
  5 25  1  0  0  0  0
  5  6  1  0  0  0  0
  6  7  1  0  0  0  0
  6 30  1  0  0  0  0
  6 31  1  0  0  0  0
  7  8  1  0  0  0  0
  7 32  1  0  0  0  0
  7 33  1  0  0  0  0
  8  9  1  0  0  0  0
  8 24  1  0  0  0  0
  8 34  1  0  0  0  0
  9 10  1  0  0  0  0
  9 35  1  0  0  0  0
 10 11  2  0  0  0  0
 10 12  1  0  0  0  0
 12 13  1  0  0  0  0
 12 36  1  0  0  0  0
 13 18  1  0  0  0  0
 13 14  2  0  0  0  0
 14 15  1  0  0  0  0
 14 37  1  0  0  0  0
 15 16  2  0  0  0  0
 15 38  1  0  0  0  0
 16 17  1  0  0  0  0
 16 39  1  0  0  0  0
 17 18  2  0  0  0  0
 17 52  1  0  0  0  0
 18 19  1  0  0  0  0
 19 23  1  0  0  0  0
 19 20  1  0  0  0  0
 20 21  1  0  0  0  0
 20 40  1  0  0  0  0
 20 41  1  0  0  0  0
 21 22  1  0  0  0  0
 21 42  1  0  0  0  0
 21 43  1  0  0  0  0
 22 23  1  0  0  0  0
 22 44  1  0  0  0  0
 22 45  1  0  0  0  0
 23 46  1  0  0  0  0
 23 47  1  0  0  0  0
 24 25  1  0  0  0  0
 24 48  1  0  0  0  0
 24 49  1  0  0  0  0
 25 50  1  0  0  0  0
 25 51  1  0  0  0  0
M  CHG  1  17   1
M  END
> <s_m_source_file>
AV-unprocessed.smi

> <i_m_source_file_index>
1740

> <i_lp_mmshare_version>
43012

> <i_f3d_flags>
0

> <s_epik_input>
W05IMl1DKD1PKVtDSDJdTjFbQ0gyXVtDSDJdW0NIXShbQ0gyXVtDSDJdMSlbTkhdQyg9TylbTkhdYzJbY0hdW2NIXVtjSF1uYzJOM1tDSDJdW0NIMl1bQ0gyXVtDSDJdMw==

> <s_epik_cmdline>
J2VwaWtfcHl0aG9uJywgJy1waCcsICc3LjAnLCAnLXRuJywgJzgnLCAnLW1hJywgJzIwMCcsICctbWV0YWxfYmluZGluZycsICctaW1hZScsICc8aW5maWxlLm1hZT4nLCAnLW9tYWUnLCAnPG91dGZpbGUubWFlPic=

> <r_epik_Ionization_Penalty>
1.24114

> <r_epik_Ionization_Penalty_Charging>
1.08532

> <r_epik_Ionization_Penalty_Neutral>
0.155817

> <r_epik_State_Penalty>
1.33508

> <r_epik_Charging_Adjusted_Penalty>
2.4204

> <i_epik_Tot_Q>
1

> <i_epik_Tot_abs_Q>
1

> <r_epik_Metal_State_Penalty>
1.43573

> <b_epik_Metal_Only>
0

> <s_lp_Force_Field>
OPLS_2005

> <r_lp_Energy>
46.1835

> <b_lp_Chiralities_Consistent>
1

> <s_lp_Variant>
AV-unprocessed.smi:1740-4

> <Gold.Version>
5.8.1

> <Gold.Id.Protein>
6NUR|6NUR_protein|mol2

> <Gold.PLP.Fitness>
43.2424

> <Gold.PLP.PLP>
-38.9421

> <Gold.PLP.part.hbond>
-1.8431

> <Gold.PLP.part.metal>
0.0000

> <Gold.PLP.part.buried>
-6.5953

> <Gold.PLP.part.nonpolar>
-31.0012

> <Gold.PLP.part.repulsive>
0.2616

> <Gold.PLP.ligand.clash>
0.0000

> <Gold.PLP.ligand.torsion>
0.7987

> <Gold.PLP.Chemscore.Hbond>
1.8408

> <Gold.PLP.Chemscore.CHOScore>
0.0000

> <Gold.PLP.Chemscore.Metal>
0.0000

> <Gold.Chemscore.Hbonds>
donor molecule, donor type, donor heavy atom, donor atom, acceptor molecule, acceptor atom, score
      L1  H    17    52       P1  8028  1.51

> <Gold.PLP.Chemscore.Internal.Correction>
0.3752

> <Gold.Rescore>
     Score         DG    S(hbond)    S(metal)    S(lipo)     H(rot)  DE(clash)    DE(int)     intcor
     10.74     -14.12       0.78        0.00      99.42       2.19       0.36       3.03       ----

> <Gold.Chemscore.Fitness>
10.7377

> <Gold.Chemscore.DG>
-14.1240

> <Gold.Chemscore.ZeroCoef>
-5.4800

> <Gold.Chemscore.Hbond>
0.7847

> <Gold.Chemscore.Metal>
0.0000

> <Gold.Chemscore.Lipo>
99.4225

> <Gold.Chemscore.Internal_Hbond>
0.0000

> <Gold.Chemscore.DEClash>
0.3563

> <Gold.Chemscore.DEInternal>
3.0300

> <Gold.Chemscore.Rot>
2.1911

> <Gold.Chemscore.Internal.Correction>
   9.000000E+99

> <Gold.Chemscore.Hbonds>
donor molecule, donor type, donor heavy atom, donor atom, acceptor molecule, acceptor atom, score
      L1  H    17    52       P1  8028  0.74

> <Gold.Chemscore.Hbond.Weighted>
-2.6208

> <Gold.Chemscore.Metal.Weighted>
-0.0000

> <Gold.Chemscore.Lipo.Weighted>
-11.6324

> <Gold.Chemscore.Internal_Hbond.Weighted>
0.0000

> <Gold.Chemscore.DEClash.Weighted>
0.3563

> <Gold.Chemscore.DEInternal.Weighted>
3.0300

> <Gold.Chemscore.Rot.Weighted>
5.6092

> <Gold.Chemscore.Internal.Correction.Weighted>
   9.000000E+99

> <Gold.Protein.RotatedTorsions>
[ 6907 6896 6895 6894 ] final  -48.51 input  -60.11 | X-H torsion
[ 7974 7965 7964 7962 ] final   41.12 input  175.53 | X-H torsion
[ 8008 7997 7996 7995 ] final  -98.34 input   59.86 | X-H torsion
[ 10167 10162 10161 10158 ] final  146.97 input  -65.29 | X-H torsion
[ 10718 10713 10712 10709 ] final  166.31 input   66.30 | X-H torsion
[ 10763 10752 10751 10750 ] final  170.58 input  -60.55 | X-H torsion
[ 11005 11000 10999 10996 ] final -104.94 input  -57.11 | X-H torsion

> <Gold.Protein.ActiveResidues>
 VAL166  LYS551  ARG553  GLY616  TRP617  ASP618  TYR619  PRO620  LYS621  CYS622 
 ASP623  PHE694  ASN695  SER759  ASP760  ASP761  ALA762  ILE779  LEU786  VAL792 
 PHE793  MET794  SER795  GLU796  ALA797  LYS798  CYS799  TRP800  GLU811  SER814 

> <Gold.Protein.RotatedAtoms>
  150.8898  134.8300  159.7284 H   0  0  0  0  0  0  0  0  0  0  0  0  # atno 6907 bound_to 6896
  152.4830  134.4665  159.9632 H   0  0  0  0  0  0  0  0  0  0  0  0  # atno 6908 bound_to 6896
  151.4730  133.3526  159.2861 H   0  0  0  0  0  0  0  0  0  0  0  0  # atno 6909 bound_to 6896
  146.0849  139.5453  142.9513 H   0  0  0  0  0  0  0  0  0  0  0  0  # atno 7974 bound_to 7965
  154.7999  140.0456  157.1264 H   0  0  0  0  0  0  0  0  0  0  0  0  # atno 8008 bound_to 7997
  154.9492  140.3063  155.5063 H   0  0  0  0  0  0  0  0  0  0  0  0  # atno 8009 bound_to 7997
  156.2960  140.2291  156.4568 H   0  0  0  0  0  0  0  0  0  0  0  0  # atno 8010 bound_to 7997
  139.4898  144.5790  151.6909 H   0  0  0  0  0  0  0  0  0  0  0  0  # atno 10167 bound_to 10162
  157.0677  131.0357  151.2623 H   0  0  0  0  0  0  0  0  0  0  0  0  # atno 10718 bound_to 10713
  154.3997  135.2755  155.2104 H   0  0  0  0  0  0  0  0  0  0  0  0  # atno 10763 bound_to 10752
  154.4135  135.6017  153.5970 H   0  0  0  0  0  0  0  0  0  0  0  0  # atno 10764 bound_to 10752
  152.9831  135.5955  154.4263 H   0  0  0  0  0  0  0  0  0  0  0  0  # atno 10765 bound_to 10752
  141.1077  133.8766  157.1673 H   0  0  0  0  0  0  0  0  0  0  0  0  # atno 11005 bound_to 11000
  145.6148  141.0333  143.1947 LP  0  0  0  0  0  0  0  0  0  0  0  0  # atno 17320 bound_to 7965
  144.7319  139.7700  143.7344 LP  0  0  0  0  0  0  0  0  0  0  0  0  # atno 17321 bound_to 7965
  140.5392  144.0606  150.6082 LP  0  0  0  0  0  0  0  0  0  0  0  0  # atno 17342 bound_to 10162
  140.3623  143.2901  152.0370 LP  0  0  0  0  0  0  0  0  0  0  0  0  # atno 17343 bound_to 10162
  157.4903  130.7818  149.7501 LP  0  0  0  0  0  0  0  0  0  0  0  0  # atno 17370 bound_to 10713
  155.9959  130.3909  150.2798 LP  0  0  0  0  0  0  0  0  0  0  0  0  # atno 17371 bound_to 10713
  139.9955  135.0048  157.0072 LP  0  0  0  0  0  0  0  0  0  0  0  0  # atno 17394 bound_to 11000
  140.4859  134.1242  155.7224 LP  0  0  0  0  0  0  0  0  0  0  0  0  # atno 17395 bound_to 11000

$$$$
