AV-unprocessed.smi:476|AV-procd|sdf|2669|dock2
  -GOLD-   2262023 83D 1   1.00000     0.00000
 Structure written by MMmdl.
 39 40  0  0  0  0  0  0  0  0  1 V2000
  149.2623  139.8865  154.3886 C   0  0  0  0  0  0  0  0  0  0  0  0
  149.2129  138.4103  154.7411 C   0  0  0  0  0  0  0  0  0  0  0  0
  148.1113  137.7234  155.0617 C   0  0  0  0  0  0  0  0  0  0  0  0
  148.4323  136.0331  155.3637 S   0  0  0  0  0  0  0  0  0  0  0  0
  150.1802  136.2958  155.0232 C   0  0  0  0  0  0  0  0  0  0  0  0
  151.0127  135.3918  155.0729 O   0  0  0  0  0  0  0  0  0  0  0  0
  150.3847  137.6412  154.7171 N   0  0  0  0  0  0  0  0  0  0  0  0
  151.7132  138.1871  154.4098 C   0  0  0  0  0  0  0  0  0  0  0  0
  152.3767  138.8508  155.6225 C   0  0  0  0  0  0  0  0  0  0  0  0
  153.4768  138.4720  156.0269 O   0  0  0  0  0  0  0  0  0  0  0  0
  151.6904  139.8535  156.1904 N   0  0  0  0  0  0  0  0  0  0  0  0
  152.1018  140.5843  157.3853 C   0  0  0  0  0  0  0  0  0  0  0  0
  151.0147  141.5541  157.8934 C   0  0  0  0  0  0  0  0  0  0  0  0
  151.5407  142.6287  158.8343 C   0  0  0  0  0  0  0  0  0  0  0  0
  152.1823  142.3223  159.9791 C   0  0  0  0  0  0  0  0  0  0  0  0
  152.6965  143.3513  160.9697 C   0  0  0  0  0  0  0  0  0  0  0  0
  152.1037  144.7480  160.7206 C   0  0  0  0  0  0  0  0  0  0  0  0
  152.1028  145.0896  159.2252 C   0  0  0  0  0  0  0  0  0  0  0  0
  151.2791  144.0711  158.4167 C   0  0  0  0  0  0  0  0  0  0  0  0
  148.2616  140.2570  154.1646 H   0  0  0  0  0  0  0  0  0  0  0  0
  149.8817  140.0672  153.5100 H   0  0  0  0  0  0  0  0  0  0  0  0
  149.6579  140.4632  155.2248 H   0  0  0  0  0  0  0  0  0  0  0  0
  147.1076  138.1172  155.1275 H   0  0  0  0  0  0  0  0  0  0  0  0
  152.3803  137.4251  154.0086 H   0  0  0  0  0  0  0  0  0  0  0  0
  151.6121  138.9271  153.6135 H   0  0  0  0  0  0  0  0  0  0  0  0
  150.7987  140.1048  155.7882 H   0  0  0  0  0  0  0  0  0  0  0  0
  152.3846  139.8855  158.1740 H   0  0  0  0  0  0  0  0  0  0  0  0
  153.0039  141.1432  157.1354 H   0  0  0  0  0  0  0  0  0  0  0  0
  150.5367  142.0340  157.0383 H   0  0  0  0  0  0  0  0  0  0  0  0
  150.2276  140.9955  158.4004 H   0  0  0  0  0  0  0  0  0  0  0  0
  152.3570  141.2879  160.2376 H   0  0  0  0  0  0  0  0  0  0  0  0
  152.4609  143.0249  161.9827 H   0  0  0  0  0  0  0  0  0  0  0  0
  153.7835  143.3822  160.8905 H   0  0  0  0  0  0  0  0  0  0  0  0
  151.0800  144.7808  161.0958 H   0  0  0  0  0  0  0  0  0  0  0  0
  152.6634  145.4961  161.2825 H   0  0  0  0  0  0  0  0  0  0  0  0
  151.7114  146.0947  159.0653 H   0  0  0  0  0  0  0  0  0  0  0  0
  153.1306  145.0972  158.8600 H   0  0  0  0  0  0  0  0  0  0  0  0
  151.4950  144.1888  157.3545 H   0  0  0  0  0  0  0  0  0  0  0  0
  150.2155  144.2734  158.5469 H   0  0  0  0  0  0  0  0  0  0  0  0
  1  2  1  0  0  0  0
  1 20  1  0  0  0  0
  1 21  1  0  0  0  0
  1 22  1  0  0  0  0
  2  7  1  0  0  0  0
  2  3  2  0  0  0  0
  3  4  1  0  0  0  0
  3 23  1  0  0  0  0
  4  5  1  0  0  0  0
  5  6  2  0  0  0  0
  5  7  1  0  0  0  0
  7  8  1  0  0  0  0
  8  9  1  0  0  0  0
  8 24  1  0  0  0  0
  8 25  1  0  0  0  0
  9 10  2  0  0  0  0
  9 11  1  0  0  0  0
 11 12  1  0  0  0  0
 11 26  1  0  0  0  0
 12 13  1  0  0  0  0
 12 27  1  0  0  0  0
 12 28  1  0  0  0  0
 13 14  1  0  0  0  0
 13 29  1  0  0  0  0
 13 30  1  0  0  0  0
 14 19  1  0  0  0  0
 14 15  2  0  0  0  0
 15 16  1  0  0  0  0
 15 31  1  0  0  0  0
 16 17  1  0  0  0  0
 16 32  1  0  0  0  0
 16 33  1  0  0  0  0
 17 18  1  0  0  0  0
 17 34  1  0  0  0  0
 17 35  1  0  0  0  0
 18 19  1  0  0  0  0
 18 36  1  0  0  0  0
 18 37  1  0  0  0  0
 19 38  1  0  0  0  0
 19 39  1  0  0  0  0
M  END
> <s_m_source_file>
AV-unprocessed.smi

> <i_m_source_file_index>
476

> <i_lp_mmshare_version>
43012

> <i_f3d_flags>
0

> <s_epik_input>
W0NIM11jMVtjSF1zYyg9TyluMVtDSDJdQyg9TylbTkhdW0NIMl1bQ0gyXUMyPVtDSF1bQ0gyXVtDSDJdW0NIMl1bQ0gyXTI=

> <s_epik_cmdline>
J2VwaWtfcHl0aG9uJywgJy1waCcsICc3LjAnLCAnLXRuJywgJzgnLCAnLW1hJywgJzIwMCcsICctbWV0YWxfYmluZGluZycsICctaW1hZScsICc8aW5maWxlLm1hZT4nLCAnLW9tYWUnLCAnPG91dGZpbGUubWFlPic=

> <r_lp_tautomer_probability>
1

> <r_epik_Ionization_Penalty>
1.31088e-06

> <r_epik_Ionization_Penalty_Charging>
1.18065e-06

> <r_epik_Ionization_Penalty_Neutral>
1.30231e-07

> <r_epik_State_Penalty>
-0

> <r_epik_Charging_Adjusted_Penalty>
1.18065e-06

> <i_epik_Tot_Q>
0

> <i_epik_Tot_abs_Q>
0

> <r_epik_Metal_State_Penalty>
-0

> <b_epik_Metal_Only>
0

> <s_lp_Force_Field>
OPLS_2005

> <r_lp_Energy>
10.5339

> <b_lp_Chiralities_Consistent>
1

> <s_lp_Variant>
AV-unprocessed.smi:476-1

> <Gold.Version>
5.8.1

> <Gold.Id.Protein>
6NUR|6NUR_protein|mol2

> <Gold.PLP.Fitness>
45.7996

> <Gold.PLP.PLP>
-41.1701

> <Gold.PLP.part.hbond>
-2.0000

> <Gold.PLP.part.metal>
0.0000

> <Gold.PLP.part.buried>
-5.8961

> <Gold.PLP.part.nonpolar>
-33.3319

> <Gold.PLP.part.repulsive>
0.2747

> <Gold.PLP.ligand.clash>
0.0000

> <Gold.PLP.ligand.torsion>
0.4380

> <Gold.PLP.Chemscore.Hbond>
1.8160

> <Gold.PLP.Chemscore.CHOScore>
0.0000

> <Gold.PLP.Chemscore.Metal>
0.0000

> <Gold.Chemscore.Hbonds>
donor molecule, donor type, donor heavy atom, donor atom, acceptor molecule, acceptor atom, score
      P1  H  7997  8009       L1    10  0.82
      P1  H 10752 10765       L1     6  1.00

> <Gold.PLP.Chemscore.Internal.Correction>
0.0576

> <Gold.Rescore>
     Score         DG    S(hbond)    S(metal)    S(lipo)     H(rot)  DE(clash)    DE(int)     intcor
     18.80     -19.48       1.93        0.00     102.15       1.72       0.20       0.48       ----

> <Gold.Chemscore.Fitness>
18.7984

> <Gold.Chemscore.DG>
-19.4778

> <Gold.Chemscore.ZeroCoef>
-5.4800

> <Gold.Chemscore.Hbond>
1.9320

> <Gold.Chemscore.Metal>
0.0000

> <Gold.Chemscore.Lipo>
102.1548

> <Gold.Chemscore.Internal_Hbond>
0.0000

> <Gold.Chemscore.DEClash>
0.1994

> <Gold.Chemscore.DEInternal>
0.4801

> <Gold.Chemscore.Rot>
1.7215

> <Gold.Chemscore.Internal.Correction>
   9.000000E+99

> <Gold.Chemscore.Hbonds>
donor molecule, donor type, donor heavy atom, donor atom, acceptor molecule, acceptor atom, score
      P1  H  7997  8009       L1    10  0.28
      P1  H 10752 10765       L1     6  0.94

> <Gold.Chemscore.Hbond.Weighted>
-6.4528

> <Gold.Chemscore.Metal.Weighted>
-0.0000

> <Gold.Chemscore.Lipo.Weighted>
-11.9521

> <Gold.Chemscore.Internal_Hbond.Weighted>
0.0000

> <Gold.Chemscore.DEClash.Weighted>
0.1994

> <Gold.Chemscore.DEInternal.Weighted>
0.4801

> <Gold.Chemscore.Rot.Weighted>
4.4070

> <Gold.Chemscore.Internal.Correction.Weighted>
   9.000000E+99

> <Gold.Protein.RotatedTorsions>
[ 6907 6896 6895 6894 ] final -166.62 input  -60.11 | X-H torsion
[ 7974 7965 7964 7962 ] final  -75.12 input  175.53 | X-H torsion
[ 8008 7997 7996 7995 ] final -159.94 input   59.86 | X-H torsion
[ 10167 10162 10161 10158 ] final -158.24 input  -65.29 | X-H torsion
[ 10718 10713 10712 10709 ] final  154.96 input   66.30 | X-H torsion
[ 10763 10752 10751 10750 ] final -179.88 input  -60.55 | X-H torsion
[ 11005 11000 10999 10996 ] final -153.88 input  -57.11 | X-H torsion

> <Gold.Protein.ActiveResidues>
 VAL166  LYS551  ARG553  GLY616  TRP617  ASP618  TYR619  PRO620  LYS621  CYS622 
 ASP623  PHE694  ASN695  SER759  ASP760  ASP761  ALA762  ILE779  LEU786  VAL792 
 PHE793  MET794  SER795  GLU796  ALA797  LYS798  CYS799  TRP800  GLU811  SER814 

> <Gold.Protein.RotatedAtoms>
  151.4466  133.3629  159.2788 H   0  0  0  0  0  0  0  0  0  0  0  0  # atno 6907 bound_to 6896
  150.9120  134.8539  159.7442 H   0  0  0  0  0  0  0  0  0  0  0  0  # atno 6908 bound_to 6896
  152.4937  134.4396  159.9591 H   0  0  0  0  0  0  0  0  0  0  0  0  # atno 6909 bound_to 6896
  145.6302  140.9340  143.1091 H   0  0  0  0  0  0  0  0  0  0  0  0  # atno 7974 bound_to 7965
  155.7700  140.0851  157.2112 H   0  0  0  0  0  0  0  0  0  0  0  0  # atno 8008 bound_to 7997
  154.3997  140.1527  156.2988 H   0  0  0  0  0  0  0  0  0  0  0  0  # atno 8009 bound_to 7997
  155.8756  140.3423  155.5854 H   0  0  0  0  0  0  0  0  0  0  0  0  # atno 8010 bound_to 7997
  139.6707  143.9750  152.2282 H   0  0  0  0  0  0  0  0  0  0  0  0  # atno 10167 bound_to 10162
  157.2246  131.0726  151.1891 H   0  0  0  0  0  0  0  0  0  0  0  0  # atno 10718 bound_to 10713
  154.5294  135.2799  155.1193 H   0  0  0  0  0  0  0  0  0  0  0  0  # atno 10763 bound_to 10752
  154.2719  135.6302  153.5317 H   0  0  0  0  0  0  0  0  0  0  0  0  # atno 10764 bound_to 10752
  152.9953  135.5630  154.5804 H   0  0  0  0  0  0  0  0  0  0  0  0  # atno 10765 bound_to 10752
  140.7034  134.3912  157.5207 H   0  0  0  0  0  0  0  0  0  0  0  0  # atno 11005 bound_to 11000
  144.7196  139.8075  143.7386 LP  0  0  0  0  0  0  0  0  0  0  0  0  # atno 17320 bound_to 7965
  146.1362  139.4408  143.0137 LP  0  0  0  0  0  0  0  0  0  0  0  0  # atno 17321 bound_to 7965
  139.9513  144.6618  150.8169 LP  0  0  0  0  0  0  0  0  0  0  0  0  # atno 17342 bound_to 10162
  140.7617  143.3180  151.2688 LP  0  0  0  0  0  0  0  0  0  0  0  0  # atno 17343 bound_to 10162
  157.3540  130.7097  149.6459 LP  0  0  0  0  0  0  0  0  0  0  0  0  # atno 17370 bound_to 10713
  155.9679  130.4244  150.4608 LP  0  0  0  0  0  0  0  0  0  0  0  0  # atno 17371 bound_to 10713
  139.8890  134.8840  156.2441 LP  0  0  0  0  0  0  0  0  0  0  0  0  # atno 17394 bound_to 11000
  141.0145  133.7076  156.1165 LP  0  0  0  0  0  0  0  0  0  0  0  0  # atno 17395 bound_to 11000

$$$$
