AV-unprocessed.smi:3068|AV-procd|sdf|11704|dock3
  -GOLD-   2272017103D 1   1.00000     0.00000
 Structure written by MMmdl.
 40 42  0  0  0  0  0  0  0  0  2 V2000
  153.6781  140.5125  160.0183 N   0  0  0  0  0  0  0  0  0  0  0  0
  153.0118  141.4072  159.7104 C   0  0  0  0  0  0  0  0  0  0  0  0
  152.1712  142.5328  159.3227 C   0  0  0  0  0  0  0  0  0  0  0  0
  152.6239  143.7677  159.6399 N   0  0  0  0  0  0  0  0  0  0  0  0
  151.8519  144.8184  159.2897 C   0  0  0  0  0  0  0  0  0  0  0  0
  150.6247  144.6416  158.6215 C   0  0  0  0  0  0  0  0  0  0  0  0
  150.1649  143.4133  158.3005 N   0  0  0  0  0  0  0  0  0  0  0  0
  150.9313  142.3491  158.6475 C   0  0  0  0  0  0  0  0  0  0  0  0
  150.4628  141.0641  158.3210 N   0  0  0  0  0  0  0  0  0  0  0  0
  151.1982  140.2070  157.4021 C   0  0  0  0  0  0  0  0  0  0  0  0
  151.3642  140.8704  156.0205 C   0  0  2  0  0  0  0  0  0  0  0  0
  150.1481  141.7215  155.6092 C   0  0  0  0  0  0  0  0  0  0  0  0
  148.9826  140.8707  155.2711 N   0  3  1  0  0  0  0  0  0  0  0  0
  147.7884  141.6758  154.9077 C   0  0  0  0  0  0  0  0  0  0  0  0
  146.5699  140.7765  154.6460 C   0  0  0  0  0  0  0  0  0  0  0  0
  146.8825  139.7385  153.5611 C   0  0  0  0  0  0  0  0  0  0  0  0
  148.1318  138.9368  153.9489 C   0  0  0  0  0  0  0  0  0  0  0  0
  149.3309  139.8643  154.2317 C   0  0  2  0  0  0  0  0  0  0  0  0
  150.5642  139.0535  154.6732 C   0  0  0  0  0  0  0  0  0  0  0  0
  151.6456  139.9237  154.9891 O   0  0  0  0  0  0  0  0  0  0  0  0
  152.2143  145.8033  159.5443 H   0  0  0  0  0  0  0  0  0  0  0  0
  150.0110  145.4860  158.3450 H   0  0  0  0  0  0  0  0  0  0  0  0
  149.5490  140.7696  158.6362 H   0  0  0  0  0  0  0  0  0  0  0  0
  152.1660  139.9449  157.8295 H   0  0  0  0  0  0  0  0  0  0  0  0
  150.6450  139.2736  157.2908 H   0  0  0  0  0  0  0  0  0  0  0  0
  152.2271  141.5352  156.0777 H   0  0  0  0  0  0  0  0  0  0  0  0
  149.8851  142.4121  156.4115 H   0  0  0  0  0  0  0  0  0  0  0  0
  150.4068  142.3306  154.7418 H   0  0  0  0  0  0  0  0  0  0  0  0
  147.5592  142.3731  155.7144 H   0  0  0  0  0  0  0  0  0  0  0  0
  148.0072  142.2757  154.0226 H   0  0  0  0  0  0  0  0  0  0  0  0
  146.2812  140.2703  155.5682 H   0  0  0  0  0  0  0  0  0  0  0  0
  145.7161  141.3840  154.3449 H   0  0  0  0  0  0  0  0  0  0  0  0
  146.0326  139.0693  153.4232 H   0  0  0  0  0  0  0  0  0  0  0  0
  147.0454  140.2386  152.6055 H   0  0  0  0  0  0  0  0  0  0  0  0
  147.9145  138.3338  154.8319 H   0  0  0  0  0  0  0  0  0  0  0  0
  148.3805  138.2364  153.1510 H   0  0  0  0  0  0  0  0  0  0  0  0
  149.5826  140.4000  153.3144 H   0  0  0  0  0  0  0  0  0  0  0  0
  150.3317  138.4084  155.5208 H   0  0  0  0  0  0  0  0  0  0  0  0
  150.8833  138.3927  153.8667 H   0  0  0  0  0  0  0  0  0  0  0  0
  148.7437  140.3559  156.1067 H   0  0  0  0  0  0  0  0  0  0  0  0
  1  2  3  0  0  0  0
  2  3  1  0  0  0  0
  3  8  1  0  0  0  0
  3  4  2  0  0  0  0
  4  5  1  0  0  0  0
  5  6  2  0  0  0  0
  5 21  1  0  0  0  0
  6  7  1  0  0  0  0
  6 22  1  0  0  0  0
  7  8  2  0  0  0  0
  8  9  1  0  0  0  0
  9 10  1  0  0  0  0
  9 23  1  0  0  0  0
 10 11  1  0  0  0  0
 10 24  1  0  0  0  0
 10 25  1  0  0  0  0
 11 20  1  0  0  0  0
 11 12  1  0  0  0  0
 11 26  1  0  0  0  0
 12 13  1  0  0  0  0
 12 27  1  0  0  0  0
 12 28  1  0  0  0  0
 13 18  1  0  0  0  0
 13 14  1  0  0  0  0
 13 40  1  0  0  0  0
 14 15  1  0  0  0  0
 14 29  1  0  0  0  0
 14 30  1  0  0  0  0
 15 16  1  0  0  0  0
 15 31  1  0  0  0  0
 15 32  1  0  0  0  0
 16 17  1  0  0  0  0
 16 33  1  0  0  0  0
 16 34  1  0  0  0  0
 17 18  1  0  0  0  0
 17 35  1  0  0  0  0
 17 36  1  0  0  0  0
 18 19  1  0  0  0  0
 18 37  1  0  0  0  0
 19 20  1  0  0  0  0
 19 38  1  0  0  0  0
 19 39  1  0  0  0  0
M  CHG  1  13   1
M  END
> <s_m_source_file>
AV-unprocessed.smi

> <i_m_source_file_index>
3068

> <i_lp_mmshare_version>
43012

> <i_f3d_flags>
0

> <s_epik_input>
TiNDYzFuW2NIXVtjSF1uYzFbTkhdW0NIMl1bQ0BIXShbQ0gyXTIpT1tDSDJdW0NAQEhdKE4yMylbQ0gyXVtDSDJdW0NIMl1bQ0gyXTM=

> <s_epik_cmdline>
J2VwaWtfcHl0aG9uJywgJy1waCcsICc3LjAnLCAnLXRuJywgJzgnLCAnLW1hJywgJzIwMCcsICctbWV0YWxfYmluZGluZycsICctaW1hZScsICc8aW5maWxlLm1hZT4nLCAnLW9tYWUnLCAnPG91dGZpbGUubWFlPic=

> <r_epik_Ionization_Penalty>
0.0804321

> <r_epik_Ionization_Penalty_Charging>
0.0803403

> <r_epik_Ionization_Penalty_Neutral>
9.17277e-05

> <r_epik_State_Penalty>
0.0711481

> <r_epik_Charging_Adjusted_Penalty>
0.151488

> <i_epik_Tot_Q>
1

> <i_epik_Tot_abs_Q>
1

> <r_epik_Metal_State_Penalty>
0.0711481

> <b_epik_Metal_Only>
0

> <s_lp_Force_Field>
OPLS_2005

> <r_lp_Energy>
40.024

> <b_lp_Chiralities_Consistent>
1

> <s_lp_Variant>
AV-unprocessed.smi:3068-7

> <Gold.Version>
5.8.1

> <Gold.Id.Protein>
6NUR|6NUR_protein|mol2

> <Gold.PLP.Fitness>
41.9420

> <Gold.PLP.PLP>
-37.5986

> <Gold.PLP.part.hbond>
-1.0000

> <Gold.PLP.part.metal>
0.0000

> <Gold.PLP.part.buried>
-6.2514

> <Gold.PLP.part.nonpolar>
-31.3585

> <Gold.PLP.part.repulsive>
0.4603

> <Gold.PLP.ligand.clash>
0.0000

> <Gold.PLP.ligand.torsion>
0.8314

> <Gold.PLP.Chemscore.Hbond>
1.0000

> <Gold.PLP.Chemscore.CHOScore>
1.0000

> <Gold.PLP.Chemscore.Metal>
0.0000

> <Gold.Chemscore.Hbonds>
donor molecule, donor type, donor heavy atom, donor atom, acceptor molecule, acceptor atom, score
      P1  H  7989  7998       L1    20  0.95
      L1  C     6    22       P1  8029  1.00

> <Gold.PLP.Chemscore.Internal.Correction>
0.0062

> <Gold.Rescore>
     Score         DG    S(hbond)    S(metal)    S(lipo)     H(rot)  DE(clash)    DE(int)     intcor
     13.23     -14.20       0.43        0.00      91.05       1.32       0.31       0.66       ----

> <Gold.Chemscore.Fitness>
13.2256

> <Gold.Chemscore.DG>
-14.1961

> <Gold.Chemscore.ZeroCoef>
-5.4800

> <Gold.Chemscore.Hbond>
0.4315

> <Gold.Chemscore.Metal>
0.0000

> <Gold.Chemscore.Lipo>
91.0457

> <Gold.Chemscore.Internal_Hbond>
0.0000

> <Gold.Chemscore.DEClash>
0.3147

> <Gold.Chemscore.DEInternal>
0.6558

> <Gold.Chemscore.Rot>
1.3193

> <Gold.Chemscore.Internal.Correction>
   9.000000E+99

> <Gold.Chemscore.Hbonds>
donor molecule, donor type, donor heavy atom, donor atom, acceptor molecule, acceptor atom, score
      P1  H  7989  7998       L1    20  0.10

> <Gold.Chemscore.Hbond.Weighted>
-1.4411

> <Gold.Chemscore.Metal.Weighted>
-0.0000

> <Gold.Chemscore.Lipo.Weighted>
-10.6523

> <Gold.Chemscore.Internal_Hbond.Weighted>
0.0000

> <Gold.Chemscore.DEClash.Weighted>
0.3147

> <Gold.Chemscore.DEInternal.Weighted>
0.6558

> <Gold.Chemscore.Rot.Weighted>
3.3774

> <Gold.Chemscore.Internal.Correction.Weighted>
   9.000000E+99

> <Gold.Protein.RotatedTorsions>
[ 6907 6896 6895 6894 ] final -147.18 input  -60.11 | X-H torsion
[ 7974 7965 7964 7962 ] final -148.84 input  175.53 | X-H torsion
[ 8008 7997 7996 7995 ] final  -64.13 input   59.86 | X-H torsion
[ 10167 10162 10161 10158 ] final -144.83 input  -65.29 | X-H torsion
[ 10718 10713 10712 10709 ] final -109.55 input   66.30 | X-H torsion
[ 10763 10752 10751 10750 ] final  109.49 input  -60.55 | X-H torsion
[ 11005 11000 10999 10996 ] final -178.53 input  -57.11 | X-H torsion

> <Gold.Protein.ActiveResidues>
 VAL166  LYS551  ARG553  GLY616  TRP617  ASP618  TYR619  PRO620  LYS621  CYS622 
 ASP623  PHE694  ASN695  SER759  ASP760  ASP761  ALA762  ILE779  LEU786  VAL792 
 PHE793  MET794  SER795  GLU796  ALA797  LYS798  CYS799  TRP800  GLU811  SER814 

> <Gold.Protein.RotatedAtoms>
  151.1521  133.4900  159.2594 H   0  0  0  0  0  0  0  0  0  0  0  0  # atno 6907 bound_to 6896
  151.1543  135.0242  159.8692 H   0  0  0  0  0  0  0  0  0  0  0  0  # atno 6908 bound_to 6896
  152.5463  134.1402  159.8529 H   0  0  0  0  0  0  0  0  0  0  0  0  # atno 6909 bound_to 6896
  144.8004  140.5144  143.5711 H   0  0  0  0  0  0  0  0  0  0  0  0  # atno 7974 bound_to 7965
  154.4594  140.0960  156.6850 H   0  0  0  0  0  0  0  0  0  0  0  0  # atno 8008 bound_to 7997
  155.5040  140.3474  155.4358 H   0  0  0  0  0  0  0  0  0  0  0  0  # atno 8009 bound_to 7997
  156.0841  140.1380  156.9664 H   0  0  0  0  0  0  0  0  0  0  0  0  # atno 8010 bound_to 7997
  139.7862  143.8031  152.2645 H   0  0  0  0  0  0  0  0  0  0  0  0  # atno 10167 bound_to 10162
  156.0543  130.5769  150.8115 H   0  0  0  0  0  0  0  0  0  0  0  0  # atno 10718 bound_to 10713
  153.4355  135.3778  155.2196 H   0  0  0  0  0  0  0  0  0  0  0  0  # atno 10763 bound_to 10752
  154.8752  135.3850  154.4216 H   0  0  0  0  0  0  0  0  0  0  0  0  # atno 10764 bound_to 10752
  153.4754  135.7087  153.6032 H   0  0  0  0  0  0  0  0  0  0  0  0  # atno 10765 bound_to 10752
  140.4287  134.6539  157.4701 H   0  0  0  0  0  0  0  0  0  0  0  0  # atno 11005 bound_to 11000
  145.5567  139.1478  143.3364 LP  0  0  0  0  0  0  0  0  0  0  0  0  # atno 17320 bound_to 7965
  146.2284  140.5704  142.8986 LP  0  0  0  0  0  0  0  0  0  0  0  0  # atno 17321 bound_to 7965
  139.8108  144.7336  150.9700 LP  0  0  0  0  0  0  0  0  0  0  0  0  # atno 17342 bound_to 10162
  140.7819  143.4252  151.0779 LP  0  0  0  0  0  0  0  0  0  0  0  0  # atno 17343 bound_to 10162
  157.5498  131.0943  150.9711 LP  0  0  0  0  0  0  0  0  0  0  0  0  # atno 17370 bound_to 10713
  156.9974  130.5586  149.5308 LP  0  0  0  0  0  0  0  0  0  0  0  0  # atno 17371 bound_to 10713
  140.0149  134.6634  155.9324 LP  0  0  0  0  0  0  0  0  0  0  0  0  # atno 17394 bound_to 11000
  141.1754  133.6540  156.4810 LP  0  0  0  0  0  0  0  0  0  0  0  0  # atno 17395 bound_to 11000

$$$$
