AV-unprocessed.smi:2565|AV-procd|sdf|10071|dock4
  -GOLD-   2272014103D 1   1.00000     0.00000
 Structure written by MMmdl.
 24 25  0  0  0  0  0  0  0  0  1 V2000
  151.5988  143.5558  158.2395 C   0  0  0  0  0  0  0  0  0  0  0  0
  152.2570  142.2788  158.4303 N   0  0  0  0  0  0  0  0  0  0  0  0
  153.0215  141.8764  159.4563 C   0  0  0  0  0  0  0  0  0  0  0  0
  153.5043  140.6396  159.3487 N   0  0  0  0  0  0  0  0  0  0  0  0
  153.0152  140.1804  158.1418 N   0  0  0  0  0  0  0  0  0  0  0  0
  152.2776  141.1826  157.6442 C   0  0  0  0  0  0  0  0  0  0  0  0
  151.5647  141.1270  156.3247 C   0  0  1  0  0  0  0  0  0  0  0  0
  151.7306  139.7624  155.6281 C   0  0  0  0  0  0  0  0  0  0  0  0
  150.9537  139.7279  154.3901 N   0  0  0  0  0  0  0  0  0  0  0  0
  149.5491  140.0503  154.6379 C   0  0  0  0  0  0  0  0  0  0  0  0
  149.4285  141.3987  155.3709 C   0  0  0  0  0  0  0  0  0  0  0  0
  150.1805  141.3555  156.5791 O   0  0  0  0  0  0  0  0  0  0  0  0
  151.8975  144.2526  159.0232 H   0  0  0  0  0  0  0  0  0  0  0  0
  150.5175  143.4218  158.2777 H   0  0  0  0  0  0  0  0  0  0  0  0
  151.8757  143.9736  157.2713 H   0  0  0  0  0  0  0  0  0  0  0  0
  153.2351  142.5076  160.3067 H   0  0  0  0  0  0  0  0  0  0  0  0
  151.9404  141.9264  155.6839 H   0  0  0  0  0  0  0  0  0  0  0  0
  152.7831  139.5751  155.4139 H   0  0  0  0  0  0  0  0  0  0  0  0
  151.3989  138.9651  156.2945 H   0  0  0  0  0  0  0  0  0  0  0  0
  151.0216  138.8057  153.9718 H   0  0  0  0  0  0  0  0  0  0  0  0
  149.0014  140.0859  153.6960 H   0  0  0  0  0  0  0  0  0  0  0  0
  149.0886  139.2650  155.2385 H   0  0  0  0  0  0  0  0  0  0  0  0
  149.7742  142.2189  154.7395 H   0  0  0  0  0  0  0  0  0  0  0  0
  148.3851  141.6018  155.6117 H   0  0  0  0  0  0  0  0  0  0  0  0
  1  2  1  0  0  0  0
  1 13  1  0  0  0  0
  1 14  1  0  0  0  0
  1 15  1  0  0  0  0
  2  6  1  0  0  0  0
  2  3  1  0  0  0  0
  3  4  2  0  0  0  0
  3 16  1  0  0  0  0
  4  5  1  0  0  0  0
  5  6  2  0  0  0  0
  6  7  1  0  0  0  0
  7 12  1  0  0  0  0
  7  8  1  0  0  0  0
  7 17  1  0  0  0  0
  8  9  1  0  0  0  0
  8 18  1  0  0  0  0
  8 19  1  0  0  0  0
  9 10  1  0  0  0  0
  9 20  1  0  0  0  0
 10 11  1  0  0  0  0
 10 21  1  0  0  0  0
 10 22  1  0  0  0  0
 11 12  1  0  0  0  0
 11 23  1  0  0  0  0
 11 24  1  0  0  0  0
M  END
> <s_m_source_file>
AV-unprocessed.smi

> <i_m_source_file_index>
2565

> <i_lp_mmshare_version>
43012

> <i_f3d_flags>
0

> <s_epik_input>
W0NIM11uMVtjSF1ubmMxW0NAQEhdMltDSDJdW05IXVtDSDJdW0NIMl1PMg==

> <s_epik_cmdline>
J2VwaWtfcHl0aG9uJywgJy1waCcsICc3LjAnLCAnLXRuJywgJzgnLCAnLW1hJywgJzIwMCcsICctbWV0YWxfYmluZGluZycsICctaW1hZScsICc8aW5maWxlLm1hZT4nLCAnLW9tYWUnLCAnPG91dGZpbGUubWFlPic=

> <r_lp_tautomer_probability>
1

> <r_epik_Ionization_Penalty>
0.980774

> <r_epik_Ionization_Penalty_Charging>
0

> <r_epik_Ionization_Penalty_Neutral>
0.980774

> <r_epik_State_Penalty>
1.0271

> <r_epik_Charging_Adjusted_Penalty>
1.0271

> <i_epik_Tot_Q>
0

> <i_epik_Tot_abs_Q>
0

> <r_epik_Metal_State_Penalty>
1.02688

> <b_epik_Metal_Only>
0

> <s_lp_Force_Field>
OPLS_2005

> <r_lp_Energy>
14.243

> <b_lp_Chiralities_Consistent>
1

> <s_lp_Variant>
AV-unprocessed.smi:2565-4

> <Gold.Version>
5.8.1

> <Gold.Id.Protein>
6NUR|6NUR_protein|mol2

> <Gold.PLP.Fitness>
27.8463

> <Gold.PLP.PLP>
-21.8806

> <Gold.PLP.part.hbond>
-2.0000

> <Gold.PLP.part.metal>
0.0000

> <Gold.PLP.part.buried>
-3.3592

> <Gold.PLP.part.nonpolar>
-15.0544

> <Gold.PLP.part.repulsive>
0.0672

> <Gold.PLP.ligand.clash>
0.0000

> <Gold.PLP.ligand.torsion>
0.0055

> <Gold.PLP.Chemscore.Hbond>
1.9913

> <Gold.PLP.Chemscore.CHOScore>
0.0000

> <Gold.PLP.Chemscore.Metal>
0.0000

> <Gold.Chemscore.Hbonds>
donor molecule, donor type, donor heavy atom, donor atom, acceptor molecule, acceptor atom, score
      P1  H  7989  7998       L1     9  1.00
      P1  H  7997  8010       L1     5  0.98

> <Gold.PLP.Chemscore.Internal.Correction>
0.0030

> <Gold.Rescore>
     Score         DG    S(hbond)    S(metal)    S(lipo)     H(rot)  DE(clash)    DE(int)     intcor
      9.46      -9.93       0.78        0.00      37.66       1.00       0.46       0.00       ----

> <Gold.Chemscore.Fitness>
9.4631

> <Gold.Chemscore.DG>
-9.9292

> <Gold.Chemscore.ZeroCoef>
-5.4800

> <Gold.Chemscore.Hbond>
0.7792

> <Gold.Chemscore.Metal>
0.0000

> <Gold.Chemscore.Lipo>
37.6626

> <Gold.Chemscore.Internal_Hbond>
0.0000

> <Gold.Chemscore.DEClash>
0.4644

> <Gold.Chemscore.DEInternal>
0.0017

> <Gold.Chemscore.Rot>
1.0000

> <Gold.Chemscore.Internal.Correction>
   9.000000E+99

> <Gold.Chemscore.Hbonds>
donor molecule, donor type, donor heavy atom, donor atom, acceptor molecule, acceptor atom, score
      P1  H  7989  7998       L1     9  0.27
      P1  H  7997  8010       L1     5  0.23

> <Gold.Chemscore.Hbond.Weighted>
-2.6026

> <Gold.Chemscore.Metal.Weighted>
-0.0000

> <Gold.Chemscore.Lipo.Weighted>
-4.4065

> <Gold.Chemscore.Internal_Hbond.Weighted>
0.0000

> <Gold.Chemscore.DEClash.Weighted>
0.4644

> <Gold.Chemscore.DEInternal.Weighted>
0.0017

> <Gold.Chemscore.Rot.Weighted>
2.5600

> <Gold.Chemscore.Internal.Correction.Weighted>
   9.000000E+99

> <Gold.Protein.RotatedTorsions>
[ 6907 6896 6895 6894 ] final  -15.12 input  -60.11 | X-H torsion
[ 7974 7965 7964 7962 ] final  147.81 input  175.53 | X-H torsion
[ 8008 7997 7996 7995 ] final   37.97 input   59.86 | X-H torsion
[ 10167 10162 10161 10158 ] final   -4.27 input  -65.29 | X-H torsion
[ 10718 10713 10712 10709 ] final  -42.33 input   66.30 | X-H torsion
[ 10763 10752 10751 10750 ] final   -1.17 input  -60.55 | X-H torsion
[ 11005 11000 10999 10996 ] final  -80.96 input  -57.11 | X-H torsion

> <Gold.Protein.ActiveResidues>
 VAL166  LYS551  ARG553  GLY616  TRP617  ASP618  TYR619  PRO620  LYS621  CYS622 
 ASP623  PHE694  ASN695  SER759  ASP760  ASP761  ALA762  ILE779  LEU786  VAL792 
 PHE793  MET794  SER795  GLU796  ALA797  LYS798  CYS799  TRP800  GLU811  SER814 

> <Gold.Protein.RotatedAtoms>
  151.3289  135.0837  159.9331 H   0  0  0  0  0  0  0  0  0  0  0  0  # atno 6907 bound_to 6896
  152.5239  133.9563  159.7706 H   0  0  0  0  0  0  0  0  0  0  0  0  # atno 6908 bound_to 6896
  150.9898  133.6108  159.2740 H   0  0  0  0  0  0  0  0  0  0  0  0  # atno 6909 bound_to 6896
  144.8563  139.6075  143.5951 H   0  0  0  0  0  0  0  0  0  0  0  0  # atno 7974 bound_to 7965
  155.2125  140.3324  155.4327 H   0  0  0  0  0  0  0  0  0  0  0  0  # atno 8008 bound_to 7997
  156.2365  140.1875  156.7154 H   0  0  0  0  0  0  0  0  0  0  0  0  # atno 8009 bound_to 7997
  154.6069  140.0615  156.9428 H   0  0  0  0  0  0  0  0  0  0  0  0  # atno 8010 bound_to 7997
  140.6921  143.6442  150.8408 H   0  0  0  0  0  0  0  0  0  0  0  0  # atno 10167 bound_to 10162
  156.2608  130.4197  149.8545 H   0  0  0  0  0  0  0  0  0  0  0  0  # atno 10718 bound_to 10713
  153.3414  135.6981  153.6864 H   0  0  0  0  0  0  0  0  0  0  0  0  # atno 10763 bound_to 10752
  153.5627  135.3532  155.2806 H   0  0  0  0  0  0  0  0  0  0  0  0  # atno 10764 bound_to 10752
  154.8637  135.4253  154.2628 H   0  0  0  0  0  0  0  0  0  0  0  0  # atno 10765 bound_to 10752
  141.1667  133.7174  156.8351 H   0  0  0  0  0  0  0  0  0  0  0  0  # atno 11005 bound_to 11000
  146.2825  139.6915  142.9219 LP  0  0  0  0  0  0  0  0  0  0  0  0  # atno 17320 bound_to 7965
  145.4401  141.0422  143.2862 LP  0  0  0  0  0  0  0  0  0  0  0  0  # atno 17321 bound_to 7965
  140.0157  143.5596  152.2821 LP  0  0  0  0  0  0  0  0  0  0  0  0  # atno 17342 bound_to 10162
  139.6336  144.7647  151.2485 LP  0  0  0  0  0  0  0  0  0  0  0  0  # atno 17343 bound_to 10162
  156.6060  130.8567  151.3443 LP  0  0  0  0  0  0  0  0  0  0  0  0  # atno 17370 bound_to 10713
  157.7250  130.9609  150.1595 LP  0  0  0  0  0  0  0  0  0  0  0  0  # atno 17371 bound_to 10713
  140.2023  134.8888  157.3183 LP  0  0  0  0  0  0  0  0  0  0  0  0  # atno 17394 bound_to 11000
  140.2174  134.4064  155.7582 LP  0  0  0  0  0  0  0  0  0  0  0  0  # atno 17395 bound_to 11000

$$$$
