AV-unprocessed.smi:153|AV-procd|sdf|1254|dock7
  -GOLD-   2262018493D 1   1.00000     0.00000
 Structure written by MMmdl.
 60 63  0  0  0  0  0  0  0  0  2 V2000
  153.7195  140.5262  160.3859 C   0  0  0  0  0  0  0  0  0  0  0  0
  152.8869  140.9741  159.1789 C   0  0  2  0  0  0  0  0  0  0  0  0
  151.8792  141.8692  159.6322 O   0  0  0  0  0  0  0  0  0  0  0  0
  150.8863  141.9350  158.6276 C   0  0  0  0  0  0  0  0  0  0  0  0
  150.7163  140.4689  158.2601 C   0  0  0  0  0  0  0  0  0  0  0  0
  152.1327  139.8919  158.3470 C   0  0  1  0  0  0  0  0  0  0  0  0
  152.6715  139.9068  157.0372 O   0  0  0  0  0  0  0  0  0  0  0  0
  152.0823  138.4311  158.8876 C   0  0  0  0  0  0  0  0  0  0  0  0
  151.6390  137.4093  157.9453 N   0  0  0  0  0  0  0  0  0  0  0  0
  152.3634  136.8778  156.9040 C   0  0  0  0  0  0  0  0  0  0  0  0
  151.7531  135.9553  156.2144 N   0  0  0  0  0  0  0  0  0  0  0  0
  150.5221  135.8015  156.8439 C   0  0  0  0  0  0  0  0  0  0  0  0
  149.3831  134.9604  156.6373 C   0  0  0  0  0  0  0  0  0  0  0  0
  149.2512  134.0410  155.6368 N   0  0  0  0  0  0  0  0  0  0  0  0
  150.4368  133.4584  155.0188 C   0  0  0  0  0  0  0  0  0  0  0  0
  147.9681  133.3647  155.4280 C   0  0  0  0  0  0  0  0  0  0  0  0
  147.3743  133.6435  154.0318 C   0  0  1  0  0  0  0  0  0  0  0  0
  147.4683  135.0310  153.7755 O   0  0  0  0  0  0  0  0  0  0  0  0
  148.1628  132.9144  152.9253 C   0  0  0  0  0  0  0  0  0  0  0  0
  147.2840  132.1545  151.9994 N   0  3  0  0  0  0  0  0  0  0  0  0
  146.5208  131.0881  152.6904 C   0  0  0  0  0  0  0  0  0  0  0  0
  145.6776  130.2896  151.6821 C   0  0  0  0  0  0  0  0  0  0  0  0
  144.8104  131.1718  150.9806 O   0  0  0  0  0  0  0  0  0  0  0  0
  145.5320  132.1485  150.2408 C   0  0  0  0  0  0  0  0  0  0  0  0
  146.3702  133.0096  151.2011 C   0  0  0  0  0  0  0  0  0  0  0  0
  148.3572  135.0968  157.5200 N   0  0  0  0  0  0  0  0  0  0  0  0
  148.4248  135.9731  158.5246 C   0  0  0  0  0  0  0  0  0  0  0  0
  149.4136  136.8111  158.8313 N   0  0  0  0  0  0  0  0  0  0  0  0
  150.4488  136.6983  157.9513 C   0  0  0  0  0  0  0  0  0  0  0  0
  154.5812  139.9405  160.0704 H   0  0  0  0  0  0  0  0  0  0  0  0
  153.1317  139.9427  161.0941 H   0  0  0  0  0  0  0  0  0  0  0  0
  154.1066  141.3926  160.9225 H   0  0  0  0  0  0  0  0  0  0  0  0
  153.5385  141.5576  158.5246 H   0  0  0  0  0  0  0  0  0  0  0  0
  149.9662  142.3886  158.9961 H   0  0  0  0  0  0  0  0  0  0  0  0
  151.2497  142.5179  157.7796 H   0  0  0  0  0  0  0  0  0  0  0  0
  150.0730  140.0019  159.0074 H   0  0  0  0  0  0  0  0  0  0  0  0
  150.2385  140.3278  157.2894 H   0  0  0  0  0  0  0  0  0  0  0  0
  152.0212  139.5697  156.4399 H   0  0  0  0  0  0  0  0  0  0  0  0
  153.0528  138.1396  159.2901 H   0  0  0  0  0  0  0  0  0  0  0  0
  151.3952  138.3907  159.7342 H   0  0  0  0  0  0  0  0  0  0  0  0
  153.3670  137.1969  156.6645 H   0  0  0  0  0  0  0  0  0  0  0  0
  151.1105  134.2385  154.6630 H   0  0  0  0  0  0  0  0  0  0  0  0
  150.1694  132.8436  154.1593 H   0  0  0  0  0  0  0  0  0  0  0  0
  150.9708  132.8245  155.7273 H   0  0  0  0  0  0  0  0  0  0  0  0
  148.0203  132.2946  155.6329 H   0  0  0  0  0  0  0  0  0  0  0  0
  147.2862  133.7551  156.1841 H   0  0  0  0  0  0  0  0  0  0  0  0
  146.3277  133.3417  154.0121 H   0  0  0  0  0  0  0  0  0  0  0  0
  147.9386  135.1554  152.9643 H   0  0  0  0  0  0  0  0  0  0  0  0
  148.7346  133.6542  152.3621 H   0  0  0  0  0  0  0  0  0  0  0  0
  148.8947  132.2326  153.3612 H   0  0  0  0  0  0  0  0  0  0  0  0
  147.2070  130.4146  153.2057 H   0  0  0  0  0  0  0  0  0  0  0  0
  145.8754  131.5331  153.4497 H   0  0  0  0  0  0  0  0  0  0  0  0
  146.3158  129.7514  150.9792 H   0  0  0  0  0  0  0  0  0  0  0  0
  145.0772  129.5433  152.2026 H   0  0  0  0  0  0  0  0  0  0  0  0
  146.1662  131.6642  149.4962 H   0  0  0  0  0  0  0  0  0  0  0  0
  144.8239  132.7739  149.6968 H   0  0  0  0  0  0  0  0  0  0  0  0
  145.7126  133.5681  151.8692 H   0  0  0  0  0  0  0  0  0  0  0  0
  146.9335  133.7407  150.6230 H   0  0  0  0  0  0  0  0  0  0  0  0
  147.5624  136.0090  159.1738 H   0  0  0  0  0  0  0  0  0  0  0  0
  147.8984  131.6863  151.3480 H   0  0  0  0  0  0  0  0  0  0  0  0
  1  2  1  0  0  0  0
  1 30  1  0  0  0  0
  1 31  1  0  0  0  0
  1 32  1  0  0  0  0
  2  6  1  0  0  0  0
  2  3  1  0  0  0  0
  2 33  1  0  0  0  0
  3  4  1  0  0  0  0
  4  5  1  0  0  0  0
  4 34  1  0  0  0  0
  4 35  1  0  0  0  0
  5  6  1  0  0  0  0
  5 36  1  0  0  0  0
  5 37  1  0  0  0  0
  6  7  1  0  0  0  0
  6  8  1  0  0  0  0
  7 38  1  0  0  0  0
  8  9  1  0  0  0  0
  8 39  1  0  0  0  0
  8 40  1  0  0  0  0
  9 29  1  0  0  0  0
  9 10  1  0  0  0  0
 10 11  2  0  0  0  0
 10 41  1  0  0  0  0
 11 12  1  0  0  0  0
 12 29  2  0  0  0  0
 12 13  1  0  0  0  0
 13 14  1  0  0  0  0
 13 26  2  0  0  0  0
 14 15  1  0  0  0  0
 14 16  1  0  0  0  0
 15 42  1  0  0  0  0
 15 43  1  0  0  0  0
 15 44  1  0  0  0  0
 16 17  1  0  0  0  0
 16 45  1  0  0  0  0
 16 46  1  0  0  0  0
 17 18  1  0  0  0  0
 17 19  1  0  0  0  0
 17 47  1  0  0  0  0
 18 48  1  0  0  0  0
 19 20  1  0  0  0  0
 19 49  1  0  0  0  0
 19 50  1  0  0  0  0
 20 25  1  0  0  0  0
 20 21  1  0  0  0  0
 20 60  1  0  0  0  0
 21 22  1  0  0  0  0
 21 51  1  0  0  0  0
 21 52  1  0  0  0  0
 22 23  1  0  0  0  0
 22 53  1  0  0  0  0
 22 54  1  0  0  0  0
 23 24  1  0  0  0  0
 24 25  1  0  0  0  0
 24 55  1  0  0  0  0
 24 56  1  0  0  0  0
 25 57  1  0  0  0  0
 25 58  1  0  0  0  0
 26 27  1  0  0  0  0
 27 28  2  0  0  0  0
 27 59  1  0  0  0  0
 28 29  1  0  0  0  0
M  CHG  1  20   1
M  END
> <s_m_source_file>
AV-unprocessed.smi

> <i_m_source_file_index>
153

> <i_lp_mmshare_version>
43012

> <i_f3d_flags>
0

> <s_epik_input>
W0NIMl0xW0NIMl1PW0NAQEhdKFtDSDNdKVtDQEBdMShbT0hdKVtDSDJdbihbY0hdbjIpYyhjMjMpbltjSF1uYzNOKFtDSDNdKVtDSDJdW0NASF0oW09IXSlbQ0gyXU40W0NIMl1bQ0gyXU9bQ0gyXVtDSDJdNA==

> <s_epik_cmdline>
J2VwaWtfcHl0aG9uJywgJy1waCcsICc3LjAnLCAnLXRuJywgJzgnLCAnLW1hJywgJzIwMCcsICctbWV0YWxfYmluZGluZycsICctaW1hZScsICc8aW5maWxlLm1hZT4nLCAnLW9tYWUnLCAnPG91dGZpbGUubWFlPic=

> <r_lp_tautomer_probability>
1

> <r_epik_Ionization_Penalty>
0.403509

> <r_epik_Ionization_Penalty_Charging>
0.40072

> <r_epik_Ionization_Penalty_Neutral>
0.00278876

> <r_epik_State_Penalty>
0.400058

> <r_epik_Charging_Adjusted_Penalty>
0.800778

> <i_epik_Tot_Q>
1

> <i_epik_Tot_abs_Q>
1

> <r_epik_Metal_State_Penalty>
0.400321

> <b_epik_Metal_Only>
0

> <s_lp_Force_Field>
OPLS_2005

> <r_lp_Energy>
49.6176

> <b_lp_Chiralities_Consistent>
1

> <s_lp_Variant>
AV-unprocessed.smi:153-5

> <Gold.Version>
5.8.1

> <Gold.Id.Protein>
6NUR|6NUR_protein|mol2

> <Gold.PLP.Fitness>
49.7028

> <Gold.PLP.PLP>
-39.8164

> <Gold.PLP.part.hbond>
-3.8532

> <Gold.PLP.part.metal>
0.0000

> <Gold.PLP.part.buried>
-7.9356

> <Gold.PLP.part.nonpolar>
-27.8121

> <Gold.PLP.part.repulsive>
0.1369

> <Gold.PLP.ligand.clash>
0.0000

> <Gold.PLP.ligand.torsion>
1.3838

> <Gold.PLP.Chemscore.Hbond>
4.0000

> <Gold.PLP.Chemscore.CHOScore>
0.0000

> <Gold.PLP.Chemscore.Metal>
0.0000

> <Gold.Chemscore.Hbonds>
donor molecule, donor type, donor heavy atom, donor atom, acceptor molecule, acceptor atom, score
      L1  H    18    48       P1  7948  1.00
      L1  H    20    60       P1 10747  1.00
      P1  H  7997  8008       L1     7  1.00
      P1  H 10752 10765       L1    11  1.00

> <Gold.PLP.Chemscore.Internal.Correction>
0.6540

> <Gold.Rescore>
     Score         DG    S(hbond)    S(metal)    S(lipo)     H(rot)  DE(clash)    DE(int)     intcor
     16.59     -18.81       3.47        0.00      93.95       3.62       0.03       2.19       ----

> <Gold.Chemscore.Fitness>
16.5924

> <Gold.Chemscore.DG>
-18.8089

> <Gold.Chemscore.ZeroCoef>
-5.4800

> <Gold.Chemscore.Hbond>
3.4730

> <Gold.Chemscore.Metal>
0.0000

> <Gold.Chemscore.Lipo>
93.9455

> <Gold.Chemscore.Internal_Hbond>
0.0000

> <Gold.Chemscore.DEClash>
0.0288

> <Gold.Chemscore.DEInternal>
2.1877

> <Gold.Chemscore.Rot>
3.6182

> <Gold.Chemscore.Internal.Correction>
   9.000000E+99

> <Gold.Chemscore.Hbonds>
donor molecule, donor type, donor heavy atom, donor atom, acceptor molecule, acceptor atom, score
      L1  H    18    48       P1  7948  0.95
      L1  H    20    60       P1 10747  1.00
      P1  H  7997  8008       L1     7  0.98
      P1  H 10752 10765       L1    11  0.43

> <Gold.Chemscore.Hbond.Weighted>
-11.5998

> <Gold.Chemscore.Metal.Weighted>
-0.0000

> <Gold.Chemscore.Lipo.Weighted>
-10.9916

> <Gold.Chemscore.Internal_Hbond.Weighted>
0.0000

> <Gold.Chemscore.DEClash.Weighted>
0.0288

> <Gold.Chemscore.DEInternal.Weighted>
2.1877

> <Gold.Chemscore.Rot.Weighted>
9.2625

> <Gold.Chemscore.Internal.Correction.Weighted>
   9.000000E+99

> <Gold.Protein.RotatedTorsions>
[ 6907 6896 6895 6894 ] final   45.50 input  -60.11 | X-H torsion
[ 7974 7965 7964 7962 ] final  157.88 input  175.53 | X-H torsion
[ 8008 7997 7996 7995 ] final  -53.56 input   59.86 | X-H torsion
[ 10167 10162 10161 10158 ] final  111.93 input  -65.29 | X-H torsion
[ 10718 10713 10712 10709 ] final  157.00 input   66.30 | X-H torsion
[ 10763 10752 10751 10750 ] final -170.37 input  -60.55 | X-H torsion
[ 11005 11000 10999 10996 ] final  -11.40 input  -57.11 | X-H torsion

> <Gold.Protein.ActiveResidues>
 VAL166  LYS551  ARG553  GLY616  TRP617  ASP618  TYR619  PRO620  LYS621  CYS622 
 ASP623  PHE694  ASN695  SER759  ASP760  ASP761  ALA762  ILE779  LEU786  VAL792 
 PHE793  MET794  SER795  GLU796  ALA797  LYS798  CYS799  TRP800  GLU811  SER814 

> <Gold.Protein.RotatedAtoms>
  152.2453  134.8187  160.0453 H   0  0  0  0  0  0  0  0  0  0  0  0  # atno 6907 bound_to 6896
  151.8887  133.3506  159.3799 H   0  0  0  0  0  0  0  0  0  0  0  0  # atno 6908 bound_to 6896
  150.7066  134.4872  159.5542 H   0  0  0  0  0  0  0  0  0  0  0  0  # atno 6909 bound_to 6896
  144.7878  139.7401  143.6234 H   0  0  0  0  0  0  0  0  0  0  0  0  # atno 7974 bound_to 7965
  154.4137  140.1197  156.5173 H   0  0  0  0  0  0  0  0  0  0  0  0  # atno 8008 bound_to 7997
  155.6738  140.3496  155.4809 H   0  0  0  0  0  0  0  0  0  0  0  0  # atno 8009 bound_to 7997
  155.9610  140.1123  157.0885 H   0  0  0  0  0  0  0  0  0  0  0  0  # atno 8010 bound_to 7997
  139.6573  144.7129  151.1931 H   0  0  0  0  0  0  0  0  0  0  0  0  # atno 10167 bound_to 10162
  157.1974  131.0668  151.2045 H   0  0  0  0  0  0  0  0  0  0  0  0  # atno 10718 bound_to 10713
  154.6422  135.2900  155.0089 H   0  0  0  0  0  0  0  0  0  0  0  0  # atno 10763 bound_to 10752
  154.1212  135.6548  153.4907 H   0  0  0  0  0  0  0  0  0  0  0  0  # atno 10764 bound_to 10752
  153.0332  135.5288  154.7294 H   0  0  0  0  0  0  0  0  0  0  0  0  # atno 10765 bound_to 10752
  140.7549  133.8562  155.9076 H   0  0  0  0  0  0  0  0  0  0  0  0  # atno 11005 bound_to 11000
  146.2117  139.5478  142.9677 LP  0  0  0  0  0  0  0  0  0  0  0  0  # atno 17320 bound_to 7965
  145.5875  141.0374  143.2088 LP  0  0  0  0  0  0  0  0  0  0  0  0  # atno 17321 bound_to 7965
  140.7565  143.6051  150.8661 LP  0  0  0  0  0  0  0  0  0  0  0  0  # atno 17342 bound_to 10162
  139.9705  143.6062  152.2975 LP  0  0  0  0  0  0  0  0  0  0  0  0  # atno 17343 bound_to 10162
  157.3801  130.7226  149.6624 LP  0  0  0  0  0  0  0  0  0  0  0  0  # atno 17370 bound_to 10713
  155.9704  130.4175  150.4282 LP  0  0  0  0  0  0  0  0  0  0  0  0  # atno 17371 bound_to 10713
  140.9717  134.1523  157.4571 LP  0  0  0  0  0  0  0  0  0  0  0  0  # atno 17394 bound_to 11000
  139.8781  134.9980  156.5880 LP  0  0  0  0  0  0  0  0  0  0  0  0  # atno 17395 bound_to 11000

$$$$
