AV-unprocessed.smi:2482|AV-procd|sdf|9781|dock1
  -GOLD-   2272013423D 1   1.00000     0.00000
 Structure written by MMmdl.
 34 35  0  0  0  0  0  0  0  0  3 V2000
  152.9540  142.4978  160.3540 C   0  0  0  0  0  0  0  0  0  0  0  0
  152.1574  142.2947  159.0786 C   0  0  0  0  0  0  0  0  0  0  0  0
  151.7375  143.4241  158.4689 N   0  0  0  0  0  0  0  0  0  0  0  0
  151.0217  143.2958  157.3343 C   0  0  0  0  0  0  0  0  0  0  0  0
  150.6976  142.0515  156.7618 C   0  0  0  0  0  0  0  0  0  0  0  0
  151.1368  140.8617  157.3840 C   0  0  0  0  0  0  0  0  0  0  0  0
  150.8305  139.6661  156.8532 N   0  5  0  0  0  0  0  0  0  0  0  0
  151.0069  139.4505  155.5268 C   0  0  0  0  0  0  0  0  0  0  0  0
  151.8700  139.9165  154.7803 O   0  0  0  0  0  0  0  0  0  0  0  0
  149.9488  138.4838  154.9735 C   0  0  2  0  0  0  0  0  0  0  0  0
  148.9634  139.1617  153.9948 C   0  0  0  0  0  0  0  0  0  0  0  0
  147.9386  138.1915  153.5485 N   0  3  2  0  0  0  0  0  0  0  0  0
  146.9973  138.7677  152.5653 C   0  0  0  0  0  0  0  0  0  0  0  0
  147.2513  137.5803  154.7089 C   0  0  0  0  0  0  0  0  0  0  0  0
  148.2788  136.9618  155.6712 C   0  0  0  0  0  0  0  0  0  0  0  0
  149.2137  137.9543  156.0741 O   0  0  0  0  0  0  0  0  0  0  0  0
  151.8840  140.9973  158.5831 C   0  0  0  0  0  0  0  0  0  0  0  0
  152.4576  139.6007  159.4360 Cl  0  0  0  0  0  0  0  0  0  0  0  0
  153.9459  142.0561  160.2560 H   0  0  0  0  0  0  0  0  0  0  0  0
  152.4468  142.0263  161.1962 H   0  0  0  0  0  0  0  0  0  0  0  0
  153.0784  143.5565  160.5855 H   0  0  0  0  0  0  0  0  0  0  0  0
  150.6953  144.2134  156.8677 H   0  0  0  0  0  0  0  0  0  0  0  0
  150.1192  142.0134  155.8501 H   0  0  0  0  0  0  0  0  0  0  0  0
  150.4574  137.6682  154.4533 H   0  0  0  0  0  0  0  0  0  0  0  0
  148.4679  140.0109  154.4696 H   0  0  0  0  0  0  0  0  0  0  0  0
  149.5022  139.5455  153.1271 H   0  0  0  0  0  0  0  0  0  0  0  0
  146.4261  139.5871  153.0036 H   0  0  0  0  0  0  0  0  0  0  0  0
  146.2960  138.0097  152.2151 H   0  0  0  0  0  0  0  0  0  0  0  0
  147.5354  139.1506  151.6976 H   0  0  0  0  0  0  0  0  0  0  0  0
  146.6637  138.3389  155.2284 H   0  0  0  0  0  0  0  0  0  0  0  0
  146.5554  136.8142  154.3649 H   0  0  0  0  0  0  0  0  0  0  0  0
  147.7766  136.5703  156.5562 H   0  0  0  0  0  0  0  0  0  0  0  0
  148.7979  136.1240  155.2031 H   0  0  0  0  0  0  0  0  0  0  0  0
  148.4331  137.4469  153.0779 H   0  0  0  0  0  0  0  0  0  0  0  0
  1  2  1  0  0  0  0
  1 19  1  0  0  0  0
  1 20  1  0  0  0  0
  1 21  1  0  0  0  0
  2 17  1  0  0  0  0
  2  3  2  0  0  0  0
  3  4  1  0  0  0  0
  4  5  2  0  0  0  0
  4 22  1  0  0  0  0
  5  6  1  0  0  0  0
  5 23  1  0  0  0  0
  6  7  1  0  0  0  0
  6 17  2  0  0  0  0
  7  8  1  0  0  0  0
  8  9  2  0  0  0  0
  8 10  1  0  0  0  0
 10 16  1  0  0  0  0
 10 11  1  0  0  0  0
 10 24  1  0  0  0  0
 11 12  1  0  0  0  0
 11 25  1  0  0  0  0
 11 26  1  0  0  0  0
 12 13  1  0  0  0  0
 12 14  1  0  0  0  0
 12 34  1  0  0  0  0
 13 27  1  0  0  0  0
 13 28  1  0  0  0  0
 13 29  1  0  0  0  0
 14 15  1  0  0  0  0
 14 30  1  0  0  0  0
 14 31  1  0  0  0  0
 15 16  1  0  0  0  0
 15 32  1  0  0  0  0
 15 33  1  0  0  0  0
 17 18  1  0  0  0  0
M  CHG  1   7  -1
M  CHG  1  12   1
M  END
> <s_m_source_file>
AV-unprocessed.smi

> <i_m_source_file_index>
2482

> <i_lp_mmshare_version>
43012

> <i_f3d_flags>
0

> <s_epik_input>
W0NIM11jMW5bY0hdW2NIXWMoYzFDbClbTkhdQyg9TylbQ0BASF0yW0NIMl1OKFtDSDNdKVtDSDJdW0NIMl1PMg==

> <s_epik_cmdline>
J2VwaWtfcHl0aG9uJywgJy1waCcsICc3LjAnLCAnLXRuJywgJzgnLCAnLW1hJywgJzIwMCcsICctbWV0YWxfYmluZGluZycsICctaW1hZScsICc8aW5maWxlLm1hZT4nLCAnLW9tYWUnLCAnPG91dGZpbGUubWFlPic=

> <r_epik_Ionization_Penalty>
6.9249

> <r_epik_Ionization_Penalty_Charging>
6.74596

> <r_epik_Ionization_Penalty_Neutral>
0.178941

> <r_epik_State_Penalty>
6.78185

> <r_epik_Charging_Adjusted_Penalty>
13.5278

> <i_epik_Tot_Q>
0

> <i_epik_Tot_abs_Q>
2

> <r_epik_Metal_State_Penalty>
2.70608

> <b_epik_Metal_Only>
1

> <s_lp_Force_Field>
OPLS_2005

> <r_lp_Energy>
14.3473

> <b_lp_Chiralities_Consistent>
1

> <s_lp_Variant>
AV-unprocessed.smi:2482-7

> <Gold.Version>
5.8.1

> <Gold.Id.Protein>
6NUR|6NUR_protein|mol2

> <Gold.PLP.Fitness>
40.7577

> <Gold.PLP.PLP>
-30.9114

> <Gold.PLP.part.hbond>
-1.7859

> <Gold.PLP.part.metal>
0.0000

> <Gold.PLP.part.buried>
-2.7605

> <Gold.PLP.part.nonpolar>
-25.9772

> <Gold.PLP.part.repulsive>
0.1304

> <Gold.PLP.ligand.clash>
0.7878

> <Gold.PLP.ligand.torsion>
0.7479

> <Gold.PLP.Chemscore.Hbond>
2.8800

> <Gold.PLP.Chemscore.CHOScore>
1.0000

> <Gold.PLP.Chemscore.Metal>
0.0000

> <Gold.Chemscore.Hbonds>
donor molecule, donor type, donor heavy atom, donor atom, acceptor molecule, acceptor atom, score
      L1  H    12    34       P1  7948  2.00
      P1  H  7989  7998       L1     9  0.94
      L1  C     4    22       P1  8028  1.00

> <Gold.PLP.Chemscore.Internal.Correction>
0.4898

> <Gold.Rescore>
     Score         DG    S(hbond)    S(metal)    S(lipo)     H(rot)  DE(clash)    DE(int)     intcor
     17.60     -18.28       1.96        0.00      75.46       1.00       0.08       0.61       ----

> <Gold.Chemscore.Fitness>
17.5982

> <Gold.Chemscore.DG>
-18.2845

> <Gold.Chemscore.ZeroCoef>
-5.4800

> <Gold.Chemscore.Hbond>
1.9569

> <Gold.Chemscore.Metal>
0.0000

> <Gold.Chemscore.Lipo>
75.4560

> <Gold.Chemscore.Internal_Hbond>
0.0000

> <Gold.Chemscore.DEClash>
0.0811

> <Gold.Chemscore.DEInternal>
0.6053

> <Gold.Chemscore.Rot>
1.0000

> <Gold.Chemscore.Internal.Correction>
   9.000000E+99

> <Gold.Chemscore.Hbonds>
donor molecule, donor type, donor heavy atom, donor atom, acceptor molecule, acceptor atom, score
      L1  H    12    34       P1  7948  1.00
      P1  H  7989  7998       L1     9  0.90

> <Gold.Chemscore.Hbond.Weighted>
-6.5362

> <Gold.Chemscore.Metal.Weighted>
-0.0000

> <Gold.Chemscore.Lipo.Weighted>
-8.8283

> <Gold.Chemscore.Internal_Hbond.Weighted>
0.0000

> <Gold.Chemscore.DEClash.Weighted>
0.0811

> <Gold.Chemscore.DEInternal.Weighted>
0.6053

> <Gold.Chemscore.Rot.Weighted>
2.5600

> <Gold.Chemscore.Internal.Correction.Weighted>
   9.000000E+99

> <Gold.Protein.RotatedTorsions>
[ 6907 6896 6895 6894 ] final    8.77 input  -60.11 | X-H torsion
[ 7974 7965 7964 7962 ] final  -84.37 input  175.53 | X-H torsion
[ 8008 7997 7996 7995 ] final   61.23 input   59.86 | X-H torsion
[ 10167 10162 10161 10158 ] final -113.78 input  -65.29 | X-H torsion
[ 10718 10713 10712 10709 ] final  -60.73 input   66.30 | X-H torsion
[ 10763 10752 10751 10750 ] final   96.68 input  -60.55 | X-H torsion
[ 11005 11000 10999 10996 ] final -103.21 input  -57.11 | X-H torsion

> <Gold.Protein.ActiveResidues>
 VAL166  LYS551  ARG553  GLY616  TRP617  ASP618  TYR619  PRO620  LYS621  CYS622 
 ASP623  PHE694  ASN695  SER759  ASP760  ASP761  ALA762  ILE779  LEU786  VAL792 
 PHE793  MET794  SER795  GLU796  ALA797  LYS798  CYS799  TRP800  GLU811  SER814 

> <Gold.Protein.RotatedAtoms>
  151.7114  135.0912  160.0268 H   0  0  0  0  0  0  0  0  0  0  0  0  # atno 6907 bound_to 6896
  152.3659  133.6352  159.6059 H   0  0  0  0  0  0  0  0  0  0  0  0  # atno 6908 bound_to 6896
  150.7638  133.9264  159.3455 H   0  0  0  0  0  0  0  0  0  0  0  0  # atno 6909 bound_to 6896
  145.5075  140.9542  143.1725 H   0  0  0  0  0  0  0  0  0  0  0  0  # atno 7974 bound_to 7965
  155.5950  140.3493  155.4577 H   0  0  0  0  0  0  0  0  0  0  0  0  # atno 8008 bound_to 7997
  156.0272  140.1266  157.0320 H   0  0  0  0  0  0  0  0  0  0  0  0  # atno 8009 bound_to 7997
  154.4338  140.1050  156.6034 H   0  0  0  0  0  0  0  0  0  0  0  0  # atno 8010 bound_to 7997
  140.1081  143.4552  152.1770 H   0  0  0  0  0  0  0  0  0  0  0  0  # atno 10167 bound_to 10162
  156.0970  130.4191  150.0895 H   0  0  0  0  0  0  0  0  0  0  0  0  # atno 10718 bound_to 10713
  153.2678  135.4210  155.0958 H   0  0  0  0  0  0  0  0  0  0  0  0  # atno 10763 bound_to 10752
  154.8444  135.3464  154.6287 H   0  0  0  0  0  0  0  0  0  0  0  0  # atno 10764 bound_to 10752
  153.6707  135.7044  153.5205 H   0  0  0  0  0  0  0  0  0  0  0  0  # atno 10765 bound_to 10752
  141.1156  133.8621  157.1457 H   0  0  0  0  0  0  0  0  0  0  0  0  # atno 11005 bound_to 11000
  144.7745  139.6660  143.7180 LP  0  0  0  0  0  0  0  0  0  0  0  0  # atno 17320 bound_to 7965
  146.2187  139.5596  142.9633 LP  0  0  0  0  0  0  0  0  0  0  0  0  # atno 17321 bound_to 7965
  139.5634  144.7420  151.4090 LP  0  0  0  0  0  0  0  0  0  0  0  0  # atno 17342 bound_to 10162
  140.6941  143.7792  150.7299 LP  0  0  0  0  0  0  0  0  0  0  0  0  # atno 17343 bound_to 10162
  156.8891  130.9582  151.3590 LP  0  0  0  0  0  0  0  0  0  0  0  0  # atno 17370 bound_to 10713
  157.6133  130.8599  149.8987 LP  0  0  0  0  0  0  0  0  0  0  0  0  # atno 17371 bound_to 10713
  140.0076  135.0002  157.0325 LP  0  0  0  0  0  0  0  0  0  0  0  0  # atno 17394 bound_to 11000
  140.4656  134.1439  155.7196 LP  0  0  0  0  0  0  0  0  0  0  0  0  # atno 17395 bound_to 11000

$$$$
