AV-unprocessed.smi:2268|AV-procd|sdf|9150|dock10
  -GOLD-   2272012353D 1   1.00000     0.00000
 Structure written by MMmdl.
 37 38  0  0  0  0  0  0  0  0  1 V2000
  151.3005  141.6329  156.8557 C   0  0  0  0  0  0  0  0  0  0  0  0
  151.7920  142.2442  158.1564 C   0  0  0  0  0  0  0  0  0  0  0  0
  151.5617  143.6186  158.3837 C   0  0  0  0  0  0  0  0  0  0  0  0
  152.0104  144.2345  159.5660 C   0  0  0  0  0  0  0  0  0  0  0  0
  151.7835  145.5534  159.7720 F   0  0  0  0  0  0  0  0  0  0  0  0
  152.6981  143.4791  160.5312 C   0  0  0  0  0  0  0  0  0  0  0  0
  152.9312  142.1087  160.3140 C   0  0  0  0  0  0  0  0  0  0  0  0
  152.4770  141.4738  159.1343 C   0  0  0  0  0  0  0  0  0  0  0  0
  152.7555  139.9833  158.9380 C   0  0  2  0  0  0  0  0  0  0  0  0
  151.5554  139.2355  158.8826 O   0  0  0  0  0  0  0  0  0  0  0  0
  153.6278  139.4308  160.0878 C   0  0  0  0  0  0  0  0  0  0  0  0
  154.1121  138.0645  159.8226 N   0  0  0  0  0  0  0  0  0  0  0  0
  153.5619  137.0450  160.6173 C   0  0  0  0  0  0  0  0  0  0  0  0
  153.9083  135.8078  160.4719 N   0  0  0  0  0  0  0  0  0  0  0  0
  154.8511  135.4573  159.5015 C   0  0  0  0  0  0  0  0  0  0  0  0
  155.1822  133.9780  159.4125 C   0  0  0  0  0  0  0  0  0  0  0  0
  155.4213  136.3964  158.6983 C   0  0  0  0  0  0  0  0  0  0  0  0
  156.4519  136.0738  157.6234 C   0  0  0  0  0  0  0  0  0  0  0  0
  155.0381  137.8089  158.8535 C   0  0  0  0  0  0  0  0  0  0  0  0
  155.5130  138.7088  158.1586 O   0  0  0  0  0  0  0  0  0  0  0  0
  150.8699  142.3884  156.1979 H   0  0  0  0  0  0  0  0  0  0  0  0
  150.5321  140.8841  157.0488 H   0  0  0  0  0  0  0  0  0  0  0  0
  152.1240  141.1615  156.3201 H   0  0  0  0  0  0  0  0  0  0  0  0
  151.0394  144.2116  157.6472 H   0  0  0  0  0  0  0  0  0  0  0  0
  153.0483  143.9500  161.4378 H   0  0  0  0  0  0  0  0  0  0  0  0
  153.4669  141.5449  161.0637 H   0  0  0  0  0  0  0  0  0  0  0  0
  153.2539  139.8245  157.9832 H   0  0  0  0  0  0  0  0  0  0  0  0
  151.6349  138.4995  159.4701 H   0  0  0  0  0  0  0  0  0  0  0  0
  154.4961  140.0795  160.2202 H   0  0  0  0  0  0  0  0  0  0  0  0
  153.0930  139.5008  161.0374 H   0  0  0  0  0  0  0  0  0  0  0  0
  152.8258  137.3693  161.3548 H   0  0  0  0  0  0  0  0  0  0  0  0
  156.2413  133.8105  159.6097 H   0  0  0  0  0  0  0  0  0  0  0  0
  154.9462  133.5930  158.4202 H   0  0  0  0  0  0  0  0  0  0  0  0
  154.6110  133.3987  160.1389 H   0  0  0  0  0  0  0  0  0  0  0  0
  156.0839  136.3837  156.6449 H   0  0  0  0  0  0  0  0  0  0  0  0
  156.6918  135.0136  157.5626 H   0  0  0  0  0  0  0  0  0  0  0  0
  157.3811  136.6096  157.8206 H   0  0  0  0  0  0  0  0  0  0  0  0
  1  2  1  0  0  0  0
  1 21  1  0  0  0  0
  1 22  1  0  0  0  0
  1 23  1  0  0  0  0
  2  8  1  0  0  0  0
  2  3  2  0  0  0  0
  3  4  1  0  0  0  0
  3 24  1  0  0  0  0
  4  5  1  0  0  0  0
  4  6  2  0  0  0  0
  6  7  1  0  0  0  0
  6 25  1  0  0  0  0
  7  8  2  0  0  0  0
  7 26  1  0  0  0  0
  8  9  1  0  0  0  0
  9 10  1  0  0  0  0
  9 11  1  0  0  0  0
  9 27  1  0  0  0  0
 10 28  1  0  0  0  0
 11 12  1  0  0  0  0
 11 29  1  0  0  0  0
 11 30  1  0  0  0  0
 12 19  1  0  0  0  0
 12 13  1  0  0  0  0
 13 14  2  0  0  0  0
 13 31  1  0  0  0  0
 14 15  1  0  0  0  0
 15 16  1  0  0  0  0
 15 17  2  0  0  0  0
 16 32  1  0  0  0  0
 16 33  1  0  0  0  0
 16 34  1  0  0  0  0
 17 18  1  0  0  0  0
 17 19  1  0  0  0  0
 18 35  1  0  0  0  0
 18 36  1  0  0  0  0
 18 37  1  0  0  0  0
 19 20  2  0  0  0  0
M  END
> <s_m_source_file>
AV-unprocessed.smi

> <i_m_source_file_index>
2268

> <i_lp_mmshare_version>
43012

> <i_f3d_flags>
0

> <s_epik_input>
W0NIM11jMVtjSF1jKEYpW2NIXVtjSF1jMVtDQEhdKFtPSF0pW0NIMl1uMltjSF1uYyhbQ0gzXSljKFtDSDNdKWMyPU8=

> <s_epik_cmdline>
J2VwaWtfcHl0aG9uJywgJy1waCcsICc3LjAnLCAnLXRuJywgJzgnLCAnLW1hJywgJzIwMCcsICctbWV0YWxfYmluZGluZycsICctaW1hZScsICc8aW5maWxlLm1hZT4nLCAnLW9tYWUnLCAnPG91dGZpbGUubWFlPic=

> <r_lp_tautomer_probability>
1

> <r_epik_Ionization_Penalty>
5.07449e-05

> <r_epik_Ionization_Penalty_Charging>
7.56727e-08

> <r_epik_Ionization_Penalty_Neutral>
5.06692e-05

> <r_epik_State_Penalty>
-0

> <r_epik_Charging_Adjusted_Penalty>
7.56727e-08

> <i_epik_Tot_Q>
0

> <i_epik_Tot_abs_Q>
0

> <r_epik_Metal_State_Penalty>
-0

> <b_epik_Metal_Only>
0

> <s_lp_Force_Field>
OPLS_2005

> <r_lp_Energy>
19.9067

> <b_lp_Chiralities_Consistent>
1

> <s_lp_Variant>
AV-unprocessed.smi:2268-1

> <Gold.Version>
5.8.1

> <Gold.Id.Protein>
6NUR|6NUR_protein|mol2

> <Gold.PLP.Fitness>
42.7095

> <Gold.PLP.PLP>
-37.0677

> <Gold.PLP.part.hbond>
-1.7821

> <Gold.PLP.part.metal>
0.0000

> <Gold.PLP.part.buried>
-4.8965

> <Gold.PLP.part.nonpolar>
-29.5145

> <Gold.PLP.part.repulsive>
0.0157

> <Gold.PLP.ligand.clash>
0.0000

> <Gold.PLP.ligand.torsion>
0.1577

> <Gold.PLP.Chemscore.Hbond>
1.9833

> <Gold.PLP.Chemscore.CHOScore>
0.0000

> <Gold.PLP.Chemscore.Metal>
0.0000

> <Gold.Chemscore.Hbonds>
donor molecule, donor type, donor heavy atom, donor atom, acceptor molecule, acceptor atom, score
      P1  H  6896  6909       L1    14  1.00
      P1  H  7997  8008       L1    20  0.98

> <Gold.PLP.Chemscore.Internal.Correction>
0.0074

> <Gold.Rescore>
     Score         DG    S(hbond)    S(metal)    S(lipo)     H(rot)  DE(clash)    DE(int)     intcor
     17.63     -18.08       1.91        0.00      96.47       1.98       0.00       0.44       ----

> <Gold.Chemscore.Fitness>
17.6293

> <Gold.Chemscore.DG>
-18.0781

> <Gold.Chemscore.ZeroCoef>
-5.4800

> <Gold.Chemscore.Hbond>
1.9118

> <Gold.Chemscore.Metal>
0.0000

> <Gold.Chemscore.Lipo>
96.4737

> <Gold.Chemscore.Internal_Hbond>
0.0000

> <Gold.Chemscore.DEClash>
0.0043

> <Gold.Chemscore.DEInternal>
0.4445

> <Gold.Chemscore.Rot>
1.9823

> <Gold.Chemscore.Internal.Correction>
   9.000000E+99

> <Gold.Chemscore.Hbonds>
donor molecule, donor type, donor heavy atom, donor atom, acceptor molecule, acceptor atom, score
      P1  H  6896  6909       L1    14  0.35
      P1  H  7997  8008       L1    20  0.87

> <Gold.Chemscore.Hbond.Weighted>
-6.3855

> <Gold.Chemscore.Metal.Weighted>
-0.0000

> <Gold.Chemscore.Lipo.Weighted>
-11.2874

> <Gold.Chemscore.Internal_Hbond.Weighted>
0.0000

> <Gold.Chemscore.DEClash.Weighted>
0.0043

> <Gold.Chemscore.DEInternal.Weighted>
0.4445

> <Gold.Chemscore.Rot.Weighted>
5.0748

> <Gold.Chemscore.Internal.Correction.Weighted>
   9.000000E+99

> <Gold.Protein.RotatedTorsions>
[ 6907 6896 6895 6894 ] final  170.69 input  -60.11 | X-H torsion
[ 7974 7965 7964 7962 ] final  -22.04 input  175.53 | X-H torsion
[ 8008 7997 7996 7995 ] final -141.36 input   59.86 | X-H torsion
[ 10167 10162 10161 10158 ] final  171.73 input  -65.29 | X-H torsion
[ 10718 10713 10712 10709 ] final  178.46 input   66.30 | X-H torsion
[ 10763 10752 10751 10750 ] final -173.02 input  -60.55 | X-H torsion
[ 11005 11000 10999 10996 ] final -160.13 input  -57.11 | X-H torsion

> <Gold.Protein.ActiveResidues>
 VAL166  LYS551  ARG553  GLY616  TRP617  ASP618  TYR619  PRO620  LYS621  CYS622 
 ASP623  PHE694  ASN695  SER759  ASP760  ASP761  ALA762  ILE779  LEU786  VAL792 
 PHE793  MET794  SER795  GLU796  ALA797  LYS798  CYS799  TRP800  GLU811  SER814 

> <Gold.Protein.RotatedAtoms>
  151.8121  133.3383  159.3558 H   0  0  0  0  0  0  0  0  0  0  0  0  # atno 6907 bound_to 6896
  150.7322  134.5654  159.5873 H   0  0  0  0  0  0  0  0  0  0  0  0  # atno 6908 bound_to 6896
  152.3067  134.7547  160.0397 H   0  0  0  0  0  0  0  0  0  0  0  0  # atno 6909 bound_to 6896
  146.1698  140.4425  142.8537 H   0  0  0  0  0  0  0  0  0  0  0  0  # atno 7974 bound_to 7965
  155.4766  140.0557  157.2973 H   0  0  0  0  0  0  0  0  0  0  0  0  # atno 8008 bound_to 7997
  154.4677  140.2026  156.0028 H   0  0  0  0  0  0  0  0  0  0  0  0  # atno 8009 bound_to 7997
  156.1003  140.3220  155.7937 H   0  0  0  0  0  0  0  0  0  0  0  0  # atno 8010 bound_to 7997
  139.5055  144.3453  151.9977 H   0  0  0  0  0  0  0  0  0  0  0  0  # atno 10167 bound_to 10162
  156.8903  130.9845  151.3050 H   0  0  0  0  0  0  0  0  0  0  0  0  # atno 10718 bound_to 10713
  154.6126  135.2866  155.0415 H   0  0  0  0  0  0  0  0  0  0  0  0  # atno 10763 bound_to 10752
  154.1639  135.6483  153.4996 H   0  0  0  0  0  0  0  0  0  0  0  0  # atno 10764 bound_to 10752
  153.0201  135.5385  154.6886 H   0  0  0  0  0  0  0  0  0  0  0  0  # atno 10765 bound_to 10752
  140.6349  134.4612  157.5231 H   0  0  0  0  0  0  0  0  0  0  0  0  # atno 11005 bound_to 11000
  144.8146  140.6446  143.6392 LP  0  0  0  0  0  0  0  0  0  0  0  0  # atno 17320 bound_to 7965
  145.4370  139.1541  143.3991 LP  0  0  0  0  0  0  0  0  0  0  0  0  # atno 17321 bound_to 7965
  140.2890  144.3774  150.6094 LP  0  0  0  0  0  0  0  0  0  0  0  0  # atno 17342 bound_to 10162
  140.5960  143.2167  151.7162 LP  0  0  0  0  0  0  0  0  0  0  0  0  # atno 17343 bound_to 10162
  157.6088  130.8567  149.8918 LP  0  0  0  0  0  0  0  0  0  0  0  0  # atno 17370 bound_to 10713
  156.0632  130.3696  150.0935 LP  0  0  0  0  0  0  0  0  0  0  0  0  # atno 17371 bound_to 10713
  139.9102  134.8362  156.1557 LP  0  0  0  0  0  0  0  0  0  0  0  0  # atno 17394 bound_to 11000
  141.0649  133.6824  156.2024 LP  0  0  0  0  0  0  0  0  0  0  0  0  # atno 17395 bound_to 11000

$$$$
