AV-unprocessed.smi:2024|AV-procd|sdf|8194|dock2
  -GOLD-   2272010453D 1   1.00000     0.00000
 Structure written by MMmdl.
 43 44  0  0  0  0  0  0  0  0  3 V2000
  152.3788  143.9808  158.4927 C   0  0  0  0  0  0  0  0  0  0  0  0
  151.3265  143.1626  159.1381 N   0  3  0  0  0  0  0  0  0  0  0  0
  151.8450  142.2039  160.1415 C   0  0  0  0  0  0  0  0  0  0  0  0
  152.4800  140.9638  159.4768 C   0  0  0  0  0  0  0  0  0  0  0  0
  151.4852  140.2943  158.6255 N   0  0  0  0  0  0  0  0  0  0  0  0
  151.8350  138.9313  158.1478 C   0  0  0  0  0  0  0  0  0  0  0  0
  152.9560  138.9770  157.0832 C   0  0  0  0  0  0  0  0  0  0  0  0
  152.3161  138.0499  159.3291 C   0  0  0  0  0  0  0  0  0  0  0  0
  150.5693  138.2516  157.5424 C   0  0  0  0  0  0  0  0  0  0  0  0
  149.4535  138.1980  158.4892 N   0  0  0  0  0  0  0  0  0  0  0  0
  149.0086  137.1126  159.1390 C   0  0  0  0  0  0  0  0  0  0  0  0
  149.6126  136.0417  159.0438 O   0  0  0  0  0  0  0  0  0  0  0  0
  147.8753  137.3279  159.8437 N   0  5  0  0  0  0  0  0  0  0  0  0
  147.2453  136.2960  160.4281 C   0  0  0  0  0  0  0  0  0  0  0  0
  147.3998  135.0272  160.0335 N   0  0  0  0  0  0  0  0  0  0  0  0
  146.6539  134.1178  160.7858 C   0  0  0  0  0  0  0  0  0  0  0  0
  145.9196  134.7075  161.7804 C   0  0  0  0  0  0  0  0  0  0  0  0
  146.1458  136.4332  161.8039 S   0  0  0  0  0  0  0  0  0  0  0  0
  151.1151  141.2417  157.5625 C   0  0  0  0  0  0  0  0  0  0  0  0
  150.4299  142.4749  158.1809 C   0  0  0  0  0  0  0  0  0  0  0  0
  153.0751  143.3699  157.9185 H   0  0  0  0  0  0  0  0  0  0  0  0
  152.9490  144.5285  159.2435 H   0  0  0  0  0  0  0  0  0  0  0  0
  151.9330  144.7125  157.8185 H   0  0  0  0  0  0  0  0  0  0  0  0
  152.5641  142.6991  160.7948 H   0  0  0  0  0  0  0  0  0  0  0  0
  151.0172  141.8893  160.7792 H   0  0  0  0  0  0  0  0  0  0  0  0
  153.3648  141.2340  158.8998 H   0  0  0  0  0  0  0  0  0  0  0  0
  152.8144  140.3153  160.2836 H   0  0  0  0  0  0  0  0  0  0  0  0
  153.2496  137.9690  156.7886 H   0  0  0  0  0  0  0  0  0  0  0  0
  153.8518  139.4747  157.4545 H   0  0  0  0  0  0  0  0  0  0  0  0
  152.6422  139.4881  156.1730 H   0  0  0  0  0  0  0  0  0  0  0  0
  152.3754  137.0010  159.0369 H   0  0  0  0  0  0  0  0  0  0  0  0
  151.6409  138.1087  160.1841 H   0  0  0  0  0  0  0  0  0  0  0  0
  153.3147  138.3230  159.6706 H   0  0  0  0  0  0  0  0  0  0  0  0
  150.2674  138.7066  156.5993 H   0  0  0  0  0  0  0  0  0  0  0  0
  150.8060  137.2207  157.2774 H   0  0  0  0  0  0  0  0  0  0  0  0
  148.9287  139.0513  158.6139 H   0  0  0  0  0  0  0  0  0  0  0  0
  146.7074  133.0667  160.5435 H   0  0  0  0  0  0  0  0  0  0  0  0
  145.2658  134.2351  162.4977 H   0  0  0  0  0  0  0  0  0  0  0  0
  151.9929  141.5385  156.9879 H   0  0  0  0  0  0  0  0  0  0  0  0
  150.4233  140.7964  156.8520 H   0  0  0  0  0  0  0  0  0  0  0  0
  149.5245  142.1663  158.7063 H   0  0  0  0  0  0  0  0  0  0  0  0
  150.1119  143.1679  157.4014 H   0  0  0  0  0  0  0  0  0  0  0  0
  150.7491  143.8187  159.6442 H   0  0  0  0  0  0  0  0  0  0  0  0
  1  2  1  0  0  0  0
  1 21  1  0  0  0  0
  1 22  1  0  0  0  0
  1 23  1  0  0  0  0
  2 20  1  0  0  0  0
  2  3  1  0  0  0  0
  2 43  1  0  0  0  0
  3  4  1  0  0  0  0
  3 24  1  0  0  0  0
  3 25  1  0  0  0  0
  4  5  1  0  0  0  0
  4 26  1  0  0  0  0
  4 27  1  0  0  0  0
  5  6  1  0  0  0  0
  5 19  1  0  0  0  0
  6  7  1  0  0  0  0
  6  8  1  0  0  0  0
  6  9  1  0  0  0  0
  7 28  1  0  0  0  0
  7 29  1  0  0  0  0
  7 30  1  0  0  0  0
  8 31  1  0  0  0  0
  8 32  1  0  0  0  0
  8 33  1  0  0  0  0
  9 10  1  0  0  0  0
  9 34  1  0  0  0  0
  9 35  1  0  0  0  0
 10 11  1  0  0  0  0
 10 36  1  0  0  0  0
 11 12  2  0  0  0  0
 11 13  1  0  0  0  0
 13 14  1  0  0  0  0
 14 18  1  0  0  0  0
 14 15  2  0  0  0  0
 15 16  1  0  0  0  0
 16 17  2  0  0  0  0
 16 37  1  0  0  0  0
 17 18  1  0  0  0  0
 17 38  1  0  0  0  0
 19 20  1  0  0  0  0
 19 39  1  0  0  0  0
 19 40  1  0  0  0  0
 20 41  1  0  0  0  0
 20 42  1  0  0  0  0
M  CHG  1   2   1
M  CHG  1  13  -1
M  END
> <s_m_source_file>
AV-unprocessed.smi

> <i_m_source_file_index>
2024

> <i_lp_mmshare_version>
43012

> <i_f3d_flags>
0

> <s_epik_input>
W0NIM11OMVtDSDJdW0NIMl1OKFtDSDJdW0NIMl0xKUMoW0NIM10pKFtDSDNdKVtDSDJdW05IXUMoPU8pW05IXWMybltjSF1bY0hdczI=

> <s_epik_cmdline>
J2VwaWtfcHl0aG9uJywgJy1waCcsICc3LjAnLCAnLXRuJywgJzgnLCAnLW1hJywgJzIwMCcsICctbWV0YWxfYmluZGluZycsICctaW1hZScsICc8aW5maWxlLm1hZT4nLCAnLW9tYWUnLCAnPG91dGZpbGUubWFlPic=

> <r_lp_tautomer_probability>
0.999

> <r_epik_Ionization_Penalty>
7.04933

> <r_epik_Ionization_Penalty_Charging>
5.90256

> <r_epik_Ionization_Penalty_Neutral>
1.14676

> <r_epik_State_Penalty>
6.00717

> <r_epik_Charging_Adjusted_Penalty>
11.9097

> <i_epik_Tot_Q>
0

> <i_epik_Tot_abs_Q>
2

> <r_epik_Metal_State_Penalty>
1.97542

> <b_epik_Metal_Only>
1

> <s_lp_Force_Field>
OPLS_2005

> <r_lp_Energy>
14.8551

> <b_lp_Chiralities_Consistent>
1

> <s_lp_Variant>
AV-unprocessed.smi:2024-4

> <Gold.Version>
5.8.1

> <Gold.Id.Protein>
6NUR|6NUR_protein|mol2

> <Gold.PLP.Fitness>
46.5627

> <Gold.PLP.PLP>
-37.5538

> <Gold.PLP.part.hbond>
-3.0000

> <Gold.PLP.part.metal>
0.0000

> <Gold.PLP.part.buried>
-5.4203

> <Gold.PLP.part.nonpolar>
-31.2344

> <Gold.PLP.part.repulsive>
0.2770

> <Gold.PLP.ligand.clash>
0.0000

> <Gold.PLP.ligand.torsion>
0.3282

> <Gold.PLP.Chemscore.Hbond>
3.2031

> <Gold.PLP.Chemscore.CHOScore>
0.0000

> <Gold.PLP.Chemscore.Metal>
0.0000

> <Gold.Chemscore.Hbonds>
donor molecule, donor type, donor heavy atom, donor atom, acceptor molecule, acceptor atom, score
      P1  H  6896  6907       L1    12  1.00
      P1  H  6934  6947       L1    13  1.12

> <Gold.PLP.Chemscore.Internal.Correction>
0.0558

> <Gold.Rescore>
     Score         DG    S(hbond)    S(metal)    S(lipo)     H(rot)  DE(clash)    DE(int)     intcor
     15.70     -17.68       1.83        0.00      86.32       1.57       0.02       1.96       ----

> <Gold.Chemscore.Fitness>
15.7027

> <Gold.Chemscore.DG>
-17.6789

> <Gold.Chemscore.ZeroCoef>
-5.4800

> <Gold.Chemscore.Hbond>
1.8303

> <Gold.Chemscore.Metal>
0.0000

> <Gold.Chemscore.Lipo>
86.3192

> <Gold.Chemscore.Internal_Hbond>
0.0000

> <Gold.Chemscore.DEClash>
0.0202

> <Gold.Chemscore.DEInternal>
1.9560

> <Gold.Chemscore.Rot>
1.5678

> <Gold.Chemscore.Internal.Correction>
   9.000000E+99

> <Gold.Chemscore.Hbonds>
donor molecule, donor type, donor heavy atom, donor atom, acceptor molecule, acceptor atom, score
      P1  H  6896  6907       L1    12  1.00
      P1  H  6934  6947       L1    13  0.28

> <Gold.Chemscore.Hbond.Weighted>
-6.1132

> <Gold.Chemscore.Metal.Weighted>
-0.0000

> <Gold.Chemscore.Lipo.Weighted>
-10.0993

> <Gold.Chemscore.Internal_Hbond.Weighted>
0.0000

> <Gold.Chemscore.DEClash.Weighted>
0.0202

> <Gold.Chemscore.DEInternal.Weighted>
1.9560

> <Gold.Chemscore.Rot.Weighted>
4.0136

> <Gold.Chemscore.Internal.Correction.Weighted>
   9.000000E+99

> <Gold.Protein.RotatedTorsions>
[ 6907 6896 6895 6894 ] final  -65.42 input  -60.11 | X-H torsion
[ 7974 7965 7964 7962 ] final   14.96 input  175.53 | X-H torsion
[ 8008 7997 7996 7995 ] final  -76.52 input   59.86 | X-H torsion
[ 10167 10162 10161 10158 ] final   69.73 input  -65.29 | X-H torsion
[ 10718 10713 10712 10709 ] final  118.73 input   66.30 | X-H torsion
[ 10763 10752 10751 10750 ] final -118.83 input  -60.55 | X-H torsion
[ 11005 11000 10999 10996 ] final  -49.63 input  -57.11 | X-H torsion

> <Gold.Protein.ActiveResidues>
 VAL166  LYS551  ARG553  GLY616  TRP617  ASP618  TYR619  PRO620  LYS621  CYS622 
 ASP623  PHE694  ASN695  SER759  ASP760  ASP761  ALA762  ILE779  LEU786  VAL792 
 PHE793  MET794  SER795  GLU796  ALA797  LYS798  CYS799  TRP800  GLU811  SER814 

> <Gold.Protein.RotatedAtoms>
  150.7525  134.6162  159.6111 H   0  0  0  0  0  0  0  0  0  0  0  0  # atno 6907 bound_to 6896
  152.3482  134.7039  160.0253 H   0  0  0  0  0  0  0  0  0  0  0  0  # atno 6908 bound_to 6896
  151.7469  133.3289  159.3417 H   0  0  0  0  0  0  0  0  0  0  0  0  # atno 6909 bound_to 6896
  146.2291  139.8965  142.8546 H   0  0  0  0  0  0  0  0  0  0  0  0  # atno 7974 bound_to 7965
  154.5512  140.0726  156.8671 H   0  0  0  0  0  0  0  0  0  0  0  0  # atno 8008 bound_to 7997
  155.2989  140.3383  155.4230 H   0  0  0  0  0  0  0  0  0  0  0  0  # atno 8009 bound_to 7997
  156.1963  140.1705  156.7977 H   0  0  0  0  0  0  0  0  0  0  0  0  # atno 8010 bound_to 7997
  140.0647  144.5203  150.7269 H   0  0  0  0  0  0  0  0  0  0  0  0  # atno 10167 bound_to 10162
  157.6010  131.1051  150.7797 H   0  0  0  0  0  0  0  0  0  0  0  0  # atno 10718 bound_to 10713
  154.8599  135.4260  154.2202 H   0  0  0  0  0  0  0  0  0  0  0  0  # atno 10763 bound_to 10752
  153.3208  135.6982  153.7038 H   0  0  0  0  0  0  0  0  0  0  0  0  # atno 10764 bound_to 10752
  153.6093  135.3522  155.2947 H   0  0  0  0  0  0  0  0  0  0  0  0  # atno 10765 bound_to 10752
  141.0770  133.6663  156.3614 H   0  0  0  0  0  0  0  0  0  0  0  0  # atno 11005 bound_to 11000
  145.2366  140.9993  143.3960 LP  0  0  0  0  0  0  0  0  0  0  0  0  # atno 17320 bound_to 7965
  144.9486  139.4108  143.6413 LP  0  0  0  0  0  0  0  0  0  0  0  0  # atno 17321 bound_to 7965
  140.7155  143.2541  151.4448 LP  0  0  0  0  0  0  0  0  0  0  0  0  # atno 17342 bound_to 10162
  139.5872  144.1577  152.2044 LP  0  0  0  0  0  0  0  0  0  0  0  0  # atno 17343 bound_to 10162
  156.8196  130.4979  149.5345 LP  0  0  0  0  0  0  0  0  0  0  0  0  # atno 17370 bound_to 10713
  156.1083  130.6021  151.0007 LP  0  0  0  0  0  0  0  0  0  0  0  0  # atno 17371 bound_to 10713
  140.5551  134.5989  157.5418 LP  0  0  0  0  0  0  0  0  0  0  0  0  # atno 17394 bound_to 11000
  139.9583  134.7497  156.0293 LP  0  0  0  0  0  0  0  0  0  0  0  0  # atno 17395 bound_to 11000

$$$$
