AV-unprocessed.smi:1338|AV-procd|sdf|5501|dock8
  -GOLD-   22720 5 83D 1   1.00000     0.00000
 Structure written by MMmdl.
 39 40  0  0  0  0  0  0  0  0  2 V2000
  146.5499  137.1574  160.7359 C   0  0  0  0  0  0  0  0  0  0  0  0
  147.3777  137.5479  159.5300 C   0  0  0  0  0  0  0  0  0  0  0  0
  147.1104  138.6353  158.9134 N   0  0  0  0  0  0  0  0  0  0  0  0
  147.8794  139.0045  157.7967 C   0  0  0  0  0  0  0  0  0  0  0  0
  147.4919  140.3136  157.1309 C   0  0  0  0  0  0  0  0  0  0  0  0
  148.9061  138.2214  157.3564 C   0  0  0  0  0  0  0  0  0  0  0  0
  149.7757  138.5814  156.1525 C   0  0  0  0  0  0  0  0  0  0  0  0
  150.6306  139.8393  156.3151 C   0  0  0  0  0  0  0  0  0  0  0  0
  151.0281  140.4478  155.3219 O   0  0  0  0  0  0  0  0  0  0  0  0
  150.9052  140.2186  157.5729 N   0  0  0  0  0  0  0  0  0  0  0  0
  151.6919  141.3884  157.9496 C   0  0  0  0  0  0  0  0  0  0  0  0
  151.7167  141.5569  159.4834 C   0  0  0  0  0  0  0  0  0  0  0  0
  152.4731  142.8294  159.8976 C   0  0  0  0  0  0  0  0  0  0  0  0
  151.8845  144.0746  159.2164 C   0  0  0  0  0  0  0  0  0  0  0  0
  151.8656  143.9129  157.6882 C   0  0  0  0  0  0  0  0  0  0  0  0
  151.1079  142.6420  157.2710 C   0  0  0  0  0  0  0  0  0  0  0  0
  149.1776  136.9730  158.0919 C   0  0  0  0  0  0  0  0  0  0  0  0
  150.0842  136.2234  157.7314 O   0  0  0  0  0  0  0  0  0  0  0  0
  148.3910  136.6891  159.1690 N   0  5  0  0  0  0  0  0  0  0  0  0
  145.6765  137.8028  160.8389 H   0  0  0  0  0  0  0  0  0  0  0  0
  147.1471  137.2411  161.6442 H   0  0  0  0  0  0  0  0  0  0  0  0
  146.2032  136.1276  160.6430 H   0  0  0  0  0  0  0  0  0  0  0  0
  148.3300  141.0102  157.1337 H   0  0  0  0  0  0  0  0  0  0  0  0
  146.6615  140.7908  157.6525 H   0  0  0  0  0  0  0  0  0  0  0  0
  147.1830  140.1421  156.0998 H   0  0  0  0  0  0  0  0  0  0  0  0
  150.4228  137.7330  155.9279 H   0  0  0  0  0  0  0  0  0  0  0  0
  149.1662  138.6993  155.2563 H   0  0  0  0  0  0  0  0  0  0  0  0
  150.5333  139.6583  158.3258 H   0  0  0  0  0  0  0  0  0  0  0  0
  152.7151  141.2568  157.5920 H   0  0  0  0  0  0  0  0  0  0  0  0
  150.6962  141.6033  159.8662 H   0  0  0  0  0  0  0  0  0  0  0  0
  152.1823  140.6885  159.9511 H   0  0  0  0  0  0  0  0  0  0  0  0
  152.4378  142.9461  160.9811 H   0  0  0  0  0  0  0  0  0  0  0  0
  153.5263  142.7302  159.6317 H   0  0  0  0  0  0  0  0  0  0  0  0
  150.8701  144.2454  159.5793 H   0  0  0  0  0  0  0  0  0  0  0  0
  152.4632  144.9571  159.4904 H   0  0  0  0  0  0  0  0  0  0  0  0
  151.4059  144.7877  157.2275 H   0  0  0  0  0  0  0  0  0  0  0  0
  152.8888  143.8678  157.3131 H   0  0  0  0  0  0  0  0  0  0  0  0
  151.1461  142.5316  156.1864 H   0  0  0  0  0  0  0  0  0  0  0  0
  150.0543  142.7488  157.5335 H   0  0  0  0  0  0  0  0  0  0  0  0
  1  2  1  0  0  0  0
  1 20  1  0  0  0  0
  1 21  1  0  0  0  0
  1 22  1  0  0  0  0
  2 19  1  0  0  0  0
  2  3  2  0  0  0  0
  3  4  1  0  0  0  0
  4  5  1  0  0  0  0
  4  6  2  0  0  0  0
  5 23  1  0  0  0  0
  5 24  1  0  0  0  0
  5 25  1  0  0  0  0
  6  7  1  0  0  0  0
  6 17  1  0  0  0  0
  7  8  1  0  0  0  0
  7 26  1  0  0  0  0
  7 27  1  0  0  0  0
  8  9  2  0  0  0  0
  8 10  1  0  0  0  0
 10 11  1  0  0  0  0
 10 28  1  0  0  0  0
 11 16  1  0  0  0  0
 11 12  1  0  0  0  0
 11 29  1  0  0  0  0
 12 13  1  0  0  0  0
 12 30  1  0  0  0  0
 12 31  1  0  0  0  0
 13 14  1  0  0  0  0
 13 32  1  0  0  0  0
 13 33  1  0  0  0  0
 14 15  1  0  0  0  0
 14 34  1  0  0  0  0
 14 35  1  0  0  0  0
 15 16  1  0  0  0  0
 15 36  1  0  0  0  0
 15 37  1  0  0  0  0
 16 38  1  0  0  0  0
 16 39  1  0  0  0  0
 17 18  2  0  0  0  0
 17 19  1  0  0  0  0
M  CHG  1  19  -1
M  END
> <s_m_source_file>
AV-unprocessed.smi

> <i_m_source_file_index>
1338

> <i_lp_mmshare_version>
43012

> <i_f3d_flags>
0

> <s_epik_input>
W0NIM11jMW5jKFtDSDNdKWMoYyg9TylbbkhdMSlbQ0gyXUMoPU8pW05IXVtDSF0yW0NIMl1bQ0gyXVtDSDJdW0NIMl1bQ0gyXTI=

> <s_epik_cmdline>
J2VwaWtfcHl0aG9uJywgJy1waCcsICc3LjAnLCAnLXRuJywgJzgnLCAnLW1hJywgJzIwMCcsICctbWV0YWxfYmluZGluZycsICctaW1hZScsICc8aW5maWxlLm1hZT4nLCAnLW9tYWUnLCAnPG91dGZpbGUubWFlPic=

> <r_lp_tautomer_probability>
0.839158

> <r_epik_Ionization_Penalty>
6.66811

> <r_epik_Ionization_Penalty_Charging>
7.5907e-08

> <r_epik_Ionization_Penalty_Neutral>
6.66811

> <r_epik_State_Penalty>
4.51402

> <r_epik_Charging_Adjusted_Penalty>
4.51402

> <i_epik_Tot_Q>
-1

> <i_epik_Tot_abs_Q>
1

> <r_epik_Metal_State_Penalty>
0.85041

> <b_epik_Metal_Only>
1

> <s_lp_Force_Field>
OPLS_2005

> <r_lp_Energy>
13.4348

> <b_lp_Chiralities_Consistent>
1

> <s_lp_Variant>
AV-unprocessed.smi:1338-3

> <Gold.Version>
5.8.1

> <Gold.Id.Protein>
6NUR|6NUR_protein|mol2

> <Gold.PLP.Fitness>
40.8112

> <Gold.PLP.PLP>
-31.7635

> <Gold.PLP.part.hbond>
-3.9678

> <Gold.PLP.part.metal>
0.0000

> <Gold.PLP.part.buried>
-5.3664

> <Gold.PLP.part.nonpolar>
-24.6388

> <Gold.PLP.part.repulsive>
0.0886

> <Gold.PLP.ligand.clash>
0.0000

> <Gold.PLP.ligand.torsion>
0.3763

> <Gold.PLP.Chemscore.Hbond>
3.2655

> <Gold.PLP.Chemscore.CHOScore>
0.0000

> <Gold.PLP.Chemscore.Metal>
0.0000

> <Gold.Chemscore.Hbonds>
donor molecule, donor type, donor heavy atom, donor atom, acceptor molecule, acceptor atom, score
      P1  H  7989  7998       L1     9  0.99

> <Gold.PLP.Chemscore.Internal.Correction>
0.0037

> <Gold.Rescore>
     Score         DG    S(hbond)    S(metal)    S(lipo)     H(rot)  DE(clash)    DE(int)     intcor
     16.13     -17.37       2.03        0.00      75.58       1.46       0.05       1.19       ----

> <Gold.Chemscore.Fitness>
16.1292

> <Gold.Chemscore.DG>
-17.3702

> <Gold.Chemscore.ZeroCoef>
-5.4800

> <Gold.Chemscore.Hbond>
2.0306

> <Gold.Chemscore.Metal>
0.0000

> <Gold.Chemscore.Lipo>
75.5843

> <Gold.Chemscore.Internal_Hbond>
0.0000

> <Gold.Chemscore.DEClash>
0.0502

> <Gold.Chemscore.DEInternal>
1.1908

> <Gold.Chemscore.Rot>
1.4591

> <Gold.Chemscore.Internal.Correction>
   9.000000E+99

> <Gold.Chemscore.Hbonds>
donor molecule, donor type, donor heavy atom, donor atom, acceptor molecule, acceptor atom, score
      P1  H  6896  6908       L1    18  0.01
      P1  H  7989  7998       L1     9  0.92

> <Gold.Chemscore.Hbond.Weighted>
-6.7821

> <Gold.Chemscore.Metal.Weighted>
-0.0000

> <Gold.Chemscore.Lipo.Weighted>
-8.8434

> <Gold.Chemscore.Internal_Hbond.Weighted>
0.0000

> <Gold.Chemscore.DEClash.Weighted>
0.0502

> <Gold.Chemscore.DEInternal.Weighted>
1.1908

> <Gold.Chemscore.Rot.Weighted>
3.7353

> <Gold.Chemscore.Internal.Correction.Weighted>
   9.000000E+99

> <Gold.Protein.RotatedTorsions>
[ 6907 6896 6895 6894 ] final -171.08 input  -60.11 | X-H torsion
[ 7974 7965 7964 7962 ] final    3.87 input  175.53 | X-H torsion
[ 8008 7997 7996 7995 ] final   89.58 input   59.86 | X-H torsion
[ 10167 10162 10161 10158 ] final  -52.76 input  -65.29 | X-H torsion
[ 10718 10713 10712 10709 ] final   59.14 input   66.30 | X-H torsion
[ 10763 10752 10751 10750 ] final  177.65 input  -60.55 | X-H torsion
[ 11005 11000 10999 10996 ] final -118.83 input  -57.11 | X-H torsion

> <Gold.Protein.ActiveResidues>
 VAL166  LYS551  ARG553  GLY616  TRP617  ASP618  TYR619  PRO620  LYS621  CYS622 
 ASP623  PHE694  ASN695  SER759  ASP760  ASP761  ALA762  ILE779  LEU786  VAL792 
 PHE793  MET794  SER795  GLU796  ALA797  LYS798  CYS799  TRP800  GLU811  SER814 

> <Gold.Protein.RotatedAtoms>
  151.5181  133.3472  159.2896 H   0  0  0  0  0  0  0  0  0  0  0  0  # atno 6907 bound_to 6896
  150.8670  134.8037  159.7137 H   0  0  0  0  0  0  0  0  0  0  0  0  # atno 6908 bound_to 6896
  152.4671  134.5059  159.9790 H   0  0  0  0  0  0  0  0  0  0  0  0  # atno 6909 bound_to 6896
  146.2445  140.0620  142.8368 H   0  0  0  0  0  0  0  0  0  0  0  0  # atno 7974 bound_to 7965
  156.0016  140.3359  155.6852 H   0  0  0  0  0  0  0  0  0  0  0  0  # atno 8008 bound_to 7997
  155.6282  140.0682  157.2675 H   0  0  0  0  0  0  0  0  0  0  0  0  # atno 8009 bound_to 7997
  154.4251  140.1764  156.1431 H   0  0  0  0  0  0  0  0  0  0  0  0  # atno 8010 bound_to 7997
  140.6520  143.2573  151.4694 H   0  0  0  0  0  0  0  0  0  0  0  0  # atno 10167 bound_to 10162
  157.5652  130.8865  149.9175 H   0  0  0  0  0  0  0  0  0  0  0  0  # atno 10718 bound_to 10713
  154.4973  135.2782  155.1449 H   0  0  0  0  0  0  0  0  0  0  0  0  # atno 10763 bound_to 10752
  154.3096  135.6231  153.5463 H   0  0  0  0  0  0  0  0  0  0  0  0  # atno 10764 bound_to 10752
  152.9897  135.5716  154.5408 H   0  0  0  0  0  0  0  0  0  0  0  0  # atno 10765 bound_to 10752
  141.0258  134.0055  157.3216 H   0  0  0  0  0  0  0  0  0  0  0  0  # atno 11005 bound_to 11000
  145.0891  140.9273  143.4779 LP  0  0  0  0  0  0  0  0  0  0  0  0  # atno 17320 bound_to 7965
  145.0789  139.2975  143.5794 LP  0  0  0  0  0  0  0  0  0  0  0  0  # atno 17321 bound_to 7965
  139.5737  144.1869  152.1873 LP  0  0  0  0  0  0  0  0  0  0  0  0  # atno 17342 bound_to 10162
  140.1173  144.5404  150.6886 LP  0  0  0  0  0  0  0  0  0  0  0  0  # atno 17343 bound_to 10162
  156.0701  130.3686  150.0795 LP  0  0  0  0  0  0  0  0  0  0  0  0  # atno 17370 bound_to 10713
  156.8954  130.9602  151.3583 LP  0  0  0  0  0  0  0  0  0  0  0  0  # atno 17371 bound_to 10713
  139.9175  135.0198  156.7938 LP  0  0  0  0  0  0  0  0  0  0  0  0  # atno 17394 bound_to 11000
  140.6493  133.9746  155.7747 LP  0  0  0  0  0  0  0  0  0  0  0  0  # atno 17395 bound_to 11000

$$$$
