AV-unprocessed.smi:1582|AV-procd|sdf|6362|dock8
  -GOLD-   22720 6583D 1   1.00000     0.00000
 Structure written by MMmdl.
 41 42  0  0  0  0  0  0  0  0  2 V2000
  145.1051  138.5797  154.4335 O   0  0  0  0  0  0  0  0  0  0  0  0
  146.0911  138.3502  153.7339 C   0  0  0  0  0  0  0  0  0  0  0  0
  146.3003  137.1821  153.1105 N   0  0  0  0  0  0  0  0  0  0  0  0
  145.3871  136.0432  153.1281 C   0  0  0  0  0  0  0  0  0  0  0  0
  144.3084  136.1130  152.0265 C   0  0  1  0  0  0  0  0  0  0  0  0
  143.7575  137.4145  152.0497 O   0  0  0  0  0  0  0  0  0  0  0  0
  144.8596  135.8349  150.6111 C   0  0  0  0  0  0  0  0  0  0  0  0
  144.9349  134.3830  150.3048 N   0  3  0  0  0  0  0  0  0  0  0  0
  146.0552  133.7154  151.0179 C   0  0  0  0  0  0  0  0  0  0  0  0
  146.2035  132.2499  150.5756 C   0  0  0  0  0  0  0  0  0  0  0  0
  144.8929  131.4784  150.7762 C   0  0  0  0  0  0  0  0  0  0  0  0
  143.7454  132.2021  150.0601 C   0  0  0  0  0  0  0  0  0  0  0  0
  143.6472  133.6676  150.5170 C   0  0  0  0  0  0  0  0  0  0  0  0
  147.0886  139.2164  153.4942 N   0  0  0  0  0  0  0  0  0  0  0  0
  147.1994  140.5487  153.9649 C   0  0  0  0  0  0  0  0  0  0  0  0
  146.1783  141.5243  154.1628 C   0  0  0  0  0  0  0  0  0  0  0  0
  146.6839  142.6618  154.6186 N   0  0  0  0  0  0  0  0  0  0  0  0
  148.0114  142.4233  154.7130 N   0  0  0  0  0  0  0  0  0  0  0  0
  148.3679  141.1504  154.3258 C   0  0  0  0  0  0  0  0  0  0  0  0
  148.6533  143.1319  155.0397 H   0  0  0  0  0  0  0  0  0  0  0  0
  147.1372  137.0853  152.5541 H   0  0  0  0  0  0  0  0  0  0  0  0
  145.9638  135.1210  153.0356 H   0  0  0  0  0  0  0  0  0  0  0  0
  144.9152  136.0126  154.1110 H   0  0  0  0  0  0  0  0  0  0  0  0
  143.5102  135.4135  152.2712 H   0  0  0  0  0  0  0  0  0  0  0  0
  143.5250  137.6625  151.1676 H   0  0  0  0  0  0  0  0  0  0  0  0
  144.2141  136.3347  149.8872 H   0  0  0  0  0  0  0  0  0  0  0  0
  145.8508  136.2718  150.4825 H   0  0  0  0  0  0  0  0  0  0  0  0
  146.9879  134.2432  150.8151 H   0  0  0  0  0  0  0  0  0  0  0  0
  145.8865  133.7704  152.0948 H   0  0  0  0  0  0  0  0  0  0  0  0
  146.4937  132.2124  149.5248 H   0  0  0  0  0  0  0  0  0  0  0  0
  147.0070  131.7708  151.1358 H   0  0  0  0  0  0  0  0  0  0  0  0
  144.9920  130.4604  150.3982 H   0  0  0  0  0  0  0  0  0  0  0  0
  144.6710  131.3968  151.8413 H   0  0  0  0  0  0  0  0  0  0  0  0
  143.9041  132.1646  148.9814 H   0  0  0  0  0  0  0  0  0  0  0  0
  142.8033  131.6874  150.2519 H   0  0  0  0  0  0  0  0  0  0  0  0
  143.3739  133.7121  151.5724 H   0  0  0  0  0  0  0  0  0  0  0  0
  142.8439  134.1540  149.9650 H   0  0  0  0  0  0  0  0  0  0  0  0
  147.8379  138.8969  152.8979 H   0  0  0  0  0  0  0  0  0  0  0  0
  145.1131  141.4569  153.9990 H   0  0  0  0  0  0  0  0  0  0  0  0
  149.3890  140.7986  154.3404 H   0  0  0  0  0  0  0  0  0  0  0  0
  145.1502  134.3156  149.3197 H   0  0  0  0  0  0  0  0  0  0  0  0
  1  2  2  0  0  0  0
  2  3  1  0  0  0  0
  2 14  1  0  0  0  0
  3  4  1  0  0  0  0
  3 21  1  0  0  0  0
  4  5  1  0  0  0  0
  4 22  1  0  0  0  0
  4 23  1  0  0  0  0
  5  6  1  0  0  0  0
  5  7  1  0  0  0  0
  5 24  1  0  0  0  0
  6 25  1  0  0  0  0
  7  8  1  0  0  0  0
  7 26  1  0  0  0  0
  7 27  1  0  0  0  0
  8 13  1  0  0  0  0
  8  9  1  0  0  0  0
  8 41  1  0  0  0  0
  9 10  1  0  0  0  0
  9 28  1  0  0  0  0
  9 29  1  0  0  0  0
 10 11  1  0  0  0  0
 10 30  1  0  0  0  0
 10 31  1  0  0  0  0
 11 12  1  0  0  0  0
 11 32  1  0  0  0  0
 11 33  1  0  0  0  0
 12 13  1  0  0  0  0
 12 34  1  0  0  0  0
 12 35  1  0  0  0  0
 13 36  1  0  0  0  0
 13 37  1  0  0  0  0
 14 15  1  0  0  0  0
 14 38  1  0  0  0  0
 15 19  2  0  0  0  0
 15 16  1  0  0  0  0
 16 17  2  0  0  0  0
 16 39  1  0  0  0  0
 17 18  1  0  0  0  0
 18 20  1  0  0  0  0
 18 19  1  0  0  0  0
 19 40  1  0  0  0  0
M  CHG  1   8   1
M  END
> <s_m_source_file>
AV-unprocessed.smi

> <i_m_source_file_index>
1582

> <i_lp_mmshare_version>
43012

> <i_f3d_flags>
0

> <s_epik_input>
W2NIXTFbbkhdbltjSF1jMVtOSF1DKD1PKVtOSF1bQ0gyXVtDQEhdKFtPSF0pW0NIMl1OMltDSDJdW0NIMl1bQ0gyXVtDSDJdW0NIMl0y

> <s_epik_cmdline>
J2VwaWtfcHl0aG9uJywgJy1waCcsICc3LjAnLCAnLXRuJywgJzgnLCAnLW1hJywgJzIwMCcsICctbWV0YWxfYmluZGluZycsICctaW1hZScsICc8aW5maWxlLm1hZT4nLCAnLW9tYWUnLCAnPG91dGZpbGUubWFlPic=

> <r_lp_tautomer_probability>
0.5

> <r_epik_Ionization_Penalty>
0.00519658

> <r_epik_Ionization_Penalty_Charging>
0.00515354

> <r_epik_Ionization_Penalty_Neutral>
4.30332e-05

> <r_epik_State_Penalty>
0.00375424

> <r_epik_Charging_Adjusted_Penalty>
0.00890779

> <i_epik_Tot_Q>
1

> <i_epik_Tot_abs_Q>
1

> <r_epik_Metal_State_Penalty>
-0

> <b_epik_Metal_Only>
0

> <s_lp_Force_Field>
OPLS_2005

> <r_lp_Energy>
21.3928

> <b_lp_Chiralities_Consistent>
1

> <s_lp_Variant>
AV-unprocessed.smi:1582-2

> <Gold.Version>
5.8.1

> <Gold.Id.Protein>
6NUR|6NUR_protein|mol2

> <Gold.PLP.Fitness>
44.5244

> <Gold.PLP.PLP>
-31.9932

> <Gold.PLP.part.hbond>
-5.0491

> <Gold.PLP.part.metal>
0.0000

> <Gold.PLP.part.buried>
-3.7066

> <Gold.PLP.part.nonpolar>
-26.4241

> <Gold.PLP.part.repulsive>
2.1299

> <Gold.PLP.ligand.clash>
0.0000

> <Gold.PLP.ligand.torsion>
0.8432

> <Gold.PLP.Chemscore.Hbond>
3.7200

> <Gold.PLP.Chemscore.CHOScore>
1.0000

> <Gold.PLP.Chemscore.Metal>
0.0000

> <Gold.Chemscore.Hbonds>
donor molecule, donor type, donor heavy atom, donor atom, acceptor molecule, acceptor atom, score
      L1  H     3    21       P1  7948  0.80
      L1  H     6    25       P1 10171  0.99
      L1  H     8    41       P1  7921  1.00
      L1  H    18    20       P1  8028  0.94
      L1  C    16    39       P1 10175  1.00

> <Gold.PLP.Chemscore.Internal.Correction>
0.0575

> <Gold.Rescore>
     Score         DG    S(hbond)    S(metal)    S(lipo)     H(rot)  DE(clash)    DE(int)     intcor
     18.17     -20.77       3.78        0.00      79.41       2.59       0.48       2.12       ----

> <Gold.Chemscore.Fitness>
18.1660

> <Gold.Chemscore.DG>
-20.7699

> <Gold.Chemscore.ZeroCoef>
-5.4800

> <Gold.Chemscore.Hbond>
3.7793

> <Gold.Chemscore.Metal>
0.0000

> <Gold.Chemscore.Lipo>
79.4121

> <Gold.Chemscore.Internal_Hbond>
0.0000

> <Gold.Chemscore.DEClash>
0.4836

> <Gold.Chemscore.DEInternal>
2.1203

> <Gold.Chemscore.Rot>
2.5876

> <Gold.Chemscore.Internal.Correction>
   9.000000E+99

> <Gold.Chemscore.Hbonds>
donor molecule, donor type, donor heavy atom, donor atom, acceptor molecule, acceptor atom, score
      L1  H     3    21       P1  7948  0.78
      L1  H     6    25       P1 10171  0.89
      L1  H     8    41       P1  7921  0.93
      L1  H    18    20       P1  8028  0.91

> <Gold.Chemscore.Hbond.Weighted>
-12.6229

> <Gold.Chemscore.Metal.Weighted>
-0.0000

> <Gold.Chemscore.Lipo.Weighted>
-9.2912

> <Gold.Chemscore.Internal_Hbond.Weighted>
0.0000

> <Gold.Chemscore.DEClash.Weighted>
0.4836

> <Gold.Chemscore.DEInternal.Weighted>
2.1203

> <Gold.Chemscore.Rot.Weighted>
6.6242

> <Gold.Chemscore.Internal.Correction.Weighted>
   9.000000E+99

> <Gold.Protein.RotatedTorsions>
[ 6907 6896 6895 6894 ] final  -28.50 input  -60.11 | X-H torsion
[ 7974 7965 7964 7962 ] final  166.86 input  175.53 | X-H torsion
[ 8008 7997 7996 7995 ] final -175.14 input   59.86 | X-H torsion
[ 10167 10162 10161 10158 ] final   86.98 input  -65.29 | X-H torsion
[ 10718 10713 10712 10709 ] final  -96.76 input   66.30 | X-H torsion
[ 10763 10752 10751 10750 ] final -175.24 input  -60.55 | X-H torsion
[ 11005 11000 10999 10996 ] final -154.04 input  -57.11 | X-H torsion

> <Gold.Protein.ActiveResidues>
 VAL166  LYS551  ARG553  GLY616  TRP617  ASP618  TYR619  PRO620  LYS621  CYS622 
 ASP623  PHE694  ASN695  SER759  ASP760  ASP761  ALA762  ILE779  LEU786  VAL792 
 PHE793  MET794  SER795  GLU796  ALA797  LYS798  CYS799  TRP800  GLU811  SER814 

> <Gold.Protein.RotatedAtoms>
  151.1321  135.0136  159.8586 H   0  0  0  0  0  0  0  0  0  0  0  0  # atno 6907 bound_to 6896
  152.5451  134.1598  159.8563 H   0  0  0  0  0  0  0  0  0  0  0  0  # atno 6908 bound_to 6896
  151.1666  133.4766  159.2627 H   0  0  0  0  0  0  0  0  0  0  0  0  # atno 6909 bound_to 6896
  144.7446  139.8677  143.6386 H   0  0  0  0  0  0  0  0  0  0  0  0  # atno 7974 bound_to 7965
  155.9789  140.1178  157.0745 H   0  0  0  0  0  0  0  0  0  0  0  0  # atno 8008 bound_to 7997
  154.4177  140.1148  156.5476 H   0  0  0  0  0  0  0  0  0  0  0  0  # atno 8009 bound_to 7997
  155.6497  140.3473  155.4746 H   0  0  0  0  0  0  0  0  0  0  0  0  # atno 8010 bound_to 7997
  139.8820  144.6434  150.8832 H   0  0  0  0  0  0  0  0  0  0  0  0  # atno 10167 bound_to 10162
  156.0069  130.5165  150.6274 H   0  0  0  0  0  0  0  0  0  0  0  0  # atno 10718 bound_to 10713
  154.5867  135.2841  155.0677 H   0  0  0  0  0  0  0  0  0  0  0  0  # atno 10763 bound_to 10752
  154.1993  135.6427  153.5086 H   0  0  0  0  0  0  0  0  0  0  0  0  # atno 10764 bound_to 10752
  153.0107  135.5465  154.6539 H   0  0  0  0  0  0  0  0  0  0  0  0  # atno 10765 bound_to 10752
  140.7016  134.3931  157.5209 H   0  0  0  0  0  0  0  0  0  0  0  0  # atno 11005 bound_to 11000
  146.1303  139.4336  143.0173 LP  0  0  0  0  0  0  0  0  0  0  0  0  # atno 17320 bound_to 7965
  145.7174  141.0086  143.1421 LP  0  0  0  0  0  0  0  0  0  0  0  0  # atno 17321 bound_to 7965
  140.7742  143.3578  151.1888 LP  0  0  0  0  0  0  0  0  0  0  0  0  # atno 17342 bound_to 10162
  139.7187  143.9259  152.2977 LP  0  0  0  0  0  0  0  0  0  0  0  0  # atno 17343 bound_to 10162
  157.4079  131.0819  151.1249 LP  0  0  0  0  0  0  0  0  0  0  0  0  # atno 17370 bound_to 10713
  157.1889  130.6343  149.5697 LP  0  0  0  0  0  0  0  0  0  0  0  0  # atno 17371 bound_to 10713
  139.8895  134.8828  156.2417 LP  0  0  0  0  0  0  0  0  0  0  0  0  # atno 17394 bound_to 11000
  141.0159  133.7069  156.1187 LP  0  0  0  0  0  0  0  0  0  0  0  0  # atno 17395 bound_to 11000

$$$$
