AV-unprocessed.smi:420|AV-procd|sdf|2533|dock4
  -GOLD-   2262022493D 1   1.00000     0.00000
 Structure written by MMmdl.
 36 38  0  0  0  0  0  0  0  0  1 V2000
  154.3147  140.6018  161.6535 C   0  0  0  0  0  0  0  0  0  0  0  0
  153.3975  140.7751  160.5335 N   0  0  0  0  0  0  0  0  0  0  0  0
  152.9613  139.8194  159.6801 C   0  0  0  0  0  0  0  0  0  0  0  0
  153.2681  138.6275  159.7071 O   0  0  0  0  0  0  0  0  0  0  0  0
  152.1202  140.4018  158.7925 N   0  0  0  0  0  0  0  0  0  0  0  0
  151.4172  139.7367  157.6963 C   0  0  0  0  0  0  0  0  0  0  0  0
  151.5112  140.5389  156.3831 C   0  0  1  0  0  0  0  0  0  0  0  0
  152.2489  139.7819  155.4435 O   0  0  0  0  0  0  0  0  0  0  0  0
  150.1264  140.8865  155.8578 C   0  0  0  0  0  0  0  0  0  0  0  0
  149.7454  140.5463  154.5404 C   0  0  0  0  0  0  0  0  0  0  0  0
  148.4567  140.8648  154.0692 C   0  0  0  0  0  0  0  0  0  0  0  0
  147.5399  141.5206  154.9131 C   0  0  0  0  0  0  0  0  0  0  0  0
  146.3003  141.8244  154.4608 F   0  0  0  0  0  0  0  0  0  0  0  0
  147.9125  141.8580  156.2284 C   0  0  0  0  0  0  0  0  0  0  0  0
  149.2016  141.5413  156.6994 C   0  0  0  0  0  0  0  0  0  0  0  0
  152.0090  141.7673  159.0929 C   0  0  0  0  0  0  0  0  0  0  0  0
  151.2613  142.7935  158.4886 C   0  0  0  0  0  0  0  0  0  0  0  0
  151.3708  144.0885  159.0474 C   0  0  0  0  0  0  0  0  0  0  0  0
  152.2029  144.3277  160.1720 C   0  0  0  0  0  0  0  0  0  0  0  0
  152.9417  143.2761  160.7634 C   0  0  0  0  0  0  0  0  0  0  0  0
  152.8147  142.0006  160.1876 C   0  0  0  0  0  0  0  0  0  0  0  0
  154.6695  139.5739  161.7389 H   0  0  0  0  0  0  0  0  0  0  0  0
  153.8203  140.8661  162.5886 H   0  0  0  0  0  0  0  0  0  0  0  0
  155.1836  141.2487  161.5315 H   0  0  0  0  0  0  0  0  0  0  0  0
  151.7698  138.7137  157.5602 H   0  0  0  0  0  0  0  0  0  0  0  0
  150.3699  139.6480  157.9908 H   0  0  0  0  0  0  0  0  0  0  0  0
  152.0531  141.4703  156.5529 H   0  0  0  0  0  0  0  0  0  0  0  0
  151.9175  138.8971  155.4469 H   0  0  0  0  0  0  0  0  0  0  0  0
  150.4388  140.0376  153.8867 H   0  0  0  0  0  0  0  0  0  0  0  0
  148.1712  140.6041  153.0609 H   0  0  0  0  0  0  0  0  0  0  0  0
  147.2091  142.3590  156.8771 H   0  0  0  0  0  0  0  0  0  0  0  0
  149.4764  141.8010  157.7113 H   0  0  0  0  0  0  0  0  0  0  0  0
  150.6259  142.6067  157.6358 H   0  0  0  0  0  0  0  0  0  0  0  0
  150.8133  144.9052  158.6130 H   0  0  0  0  0  0  0  0  0  0  0  0
  152.2716  145.3243  160.5826 H   0  0  0  0  0  0  0  0  0  0  0  0
  153.5752  143.4487  161.6207 H   0  0  0  0  0  0  0  0  0  0  0  0
  1  2  1  0  0  0  0
  1 22  1  0  0  0  0
  1 23  1  0  0  0  0
  1 24  1  0  0  0  0
  2 21  1  0  0  0  0
  2  3  1  0  0  0  0
  3  4  2  0  0  0  0
  3  5  1  0  0  0  0
  5  6  1  0  0  0  0
  5 16  1  0  0  0  0
  6  7  1  0  0  0  0
  6 25  1  0  0  0  0
  6 26  1  0  0  0  0
  7  8  1  0  0  0  0
  7  9  1  0  0  0  0
  7 27  1  0  0  0  0
  8 28  1  0  0  0  0
  9 15  1  0  0  0  0
  9 10  2  0  0  0  0
 10 11  1  0  0  0  0
 10 29  1  0  0  0  0
 11 12  2  0  0  0  0
 11 30  1  0  0  0  0
 12 13  1  0  0  0  0
 12 14  1  0  0  0  0
 14 15  2  0  0  0  0
 14 31  1  0  0  0  0
 15 32  1  0  0  0  0
 16 21  2  0  0  0  0
 16 17  1  0  0  0  0
 17 18  2  0  0  0  0
 17 33  1  0  0  0  0
 18 19  1  0  0  0  0
 18 34  1  0  0  0  0
 19 20  2  0  0  0  0
 19 35  1  0  0  0  0
 20 21  1  0  0  0  0
 20 36  1  0  0  0  0
M  END
> <s_m_source_file>
AV-unprocessed.smi

> <i_m_source_file_index>
420

> <i_lp_mmshare_version>
43012

> <i_f3d_flags>
0

> <s_epik_input>
W2NIXTFbY0hdW2NIXVtjSF1jKGMxMiluKFtDSDNdKWMoPU8pbjJbQ0gyXVtDQEhdKFtPSF0pYzNbY0hdW2NIXWMoRilbY0hdW2NIXTM=

> <s_epik_cmdline>
J2VwaWtfcHl0aG9uJywgJy1waCcsICc3LjAnLCAnLXRuJywgJzgnLCAnLW1hJywgJzIwMCcsICctbWV0YWxfYmluZGluZycsICctaW1hZScsICc8aW5maWxlLm1hZT4nLCAnLW9tYWUnLCAnPG91dGZpbGUubWFlPic=

> <r_lp_tautomer_probability>
1

> <r_epik_Ionization_Penalty>
1.79795e-06

> <r_epik_Ionization_Penalty_Charging>
2.57375e-09

> <r_epik_Ionization_Penalty_Neutral>
1.79538e-06

> <r_epik_State_Penalty>
-0

> <r_epik_Charging_Adjusted_Penalty>
2.57375e-09

> <i_epik_Tot_Q>
0

> <i_epik_Tot_abs_Q>
0

> <r_epik_Metal_State_Penalty>
-0

> <b_epik_Metal_Only>
0

> <s_lp_Force_Field>
OPLS_2005

> <r_lp_Energy>
43.03

> <b_lp_Chiralities_Consistent>
1

> <s_lp_Variant>
AV-unprocessed.smi:420-2

> <Gold.Version>
5.8.1

> <Gold.Id.Protein>
6NUR|6NUR_protein|mol2

> <Gold.PLP.Fitness>
47.8330

> <Gold.PLP.PLP>
-46.2554

> <Gold.PLP.part.hbond>
-1.4882

> <Gold.PLP.part.metal>
0.0000

> <Gold.PLP.part.buried>
-1.7775

> <Gold.PLP.part.nonpolar>
-42.3502

> <Gold.PLP.part.repulsive>
0.0000

> <Gold.PLP.ligand.clash>
0.0000

> <Gold.PLP.ligand.torsion>
0.9789

> <Gold.PLP.Chemscore.Hbond>
1.1714

> <Gold.PLP.Chemscore.CHOScore>
0.0000

> <Gold.PLP.Chemscore.Metal>
0.0000

> <Gold.Chemscore.Hbonds>
donor molecule, donor type, donor heavy atom, donor atom, acceptor molecule, acceptor atom, score
      P1  H  7989  7998       L1     8  0.26
      P1  H  7997  8010       L1     8  0.42

> <Gold.PLP.Chemscore.Internal.Correction>
0.0212

> <Gold.Rescore>
     Score         DG    S(hbond)    S(metal)    S(lipo)     H(rot)  DE(clash)    DE(int)     intcor
     15.87     -17.39       0.80        0.00     119.33       1.85       0.68       0.84       ----

> <Gold.Chemscore.Fitness>
15.8688

> <Gold.Chemscore.DG>
-17.3944

> <Gold.Chemscore.ZeroCoef>
-5.4800

> <Gold.Chemscore.Hbond>
0.8025

> <Gold.Chemscore.Metal>
0.0000

> <Gold.Chemscore.Lipo>
119.3264

> <Gold.Chemscore.Internal_Hbond>
0.0000

> <Gold.Chemscore.DEClash>
0.6817

> <Gold.Chemscore.DEInternal>
0.8439

> <Gold.Chemscore.Rot>
1.8465

> <Gold.Chemscore.Internal.Correction>
   9.000000E+99

> <Gold.Chemscore.Hbonds>
donor molecule, donor type, donor heavy atom, donor atom, acceptor molecule, acceptor atom, score
      P1  H  7989  7998       L1     8  0.05
      P1  H  7997  8010       L1     8  0.18

> <Gold.Chemscore.Hbond.Weighted>
-2.6802

> <Gold.Chemscore.Metal.Weighted>
-0.0000

> <Gold.Chemscore.Lipo.Weighted>
-13.9612

> <Gold.Chemscore.Internal_Hbond.Weighted>
0.0000

> <Gold.Chemscore.DEClash.Weighted>
0.6817

> <Gold.Chemscore.DEInternal.Weighted>
0.8439

> <Gold.Chemscore.Rot.Weighted>
4.7270

> <Gold.Chemscore.Internal.Correction.Weighted>
   9.000000E+99

> <Gold.Protein.RotatedTorsions>
[ 6907 6896 6895 6894 ] final  -29.63 input  -60.11 | X-H torsion
[ 7974 7965 7964 7962 ] final  150.90 input  175.53 | X-H torsion
[ 8008 7997 7996 7995 ] final   99.45 input   59.86 | X-H torsion
[ 10167 10162 10161 10158 ] final -146.21 input  -65.29 | X-H torsion
[ 10718 10713 10712 10709 ] final   27.77 input   66.30 | X-H torsion
[ 10763 10752 10751 10750 ] final  -83.45 input  -60.55 | X-H torsion
[ 11005 11000 10999 10996 ] final  -53.49 input  -57.11 | X-H torsion

> <Gold.Protein.ActiveResidues>
 VAL166  LYS551  ARG553  GLY616  TRP617  ASP618  TYR619  PRO620  LYS621  CYS622 
 ASP623  PHE694  ASN695  SER759  ASP760  ASP761  ALA762  ILE779  LEU786  VAL792 
 PHE793  MET794  SER795  GLU796  ALA797  LYS798  CYS799  TRP800  GLU811  SER814 

> <Gold.Protein.RotatedAtoms>
  151.1165  135.0056  159.8518 H   0  0  0  0  0  0  0  0  0  0  0  0  # atno 6907 bound_to 6896
  152.5446  134.1773  159.8631 H   0  0  0  0  0  0  0  0  0  0  0  0  # atno 6908 bound_to 6896
  151.1828  133.4670  159.2627 H   0  0  0  0  0  0  0  0  0  0  0  0  # atno 6909 bound_to 6896
  144.8330  139.6468  143.6050 H   0  0  0  0  0  0  0  0  0  0  0  0  # atno 7974 bound_to 7965
  156.1106  140.3228  155.8067 H   0  0  0  0  0  0  0  0  0  0  0  0  # atno 8008 bound_to 7997
  155.4680  140.0544  157.3000 H   0  0  0  0  0  0  0  0  0  0  0  0  # atno 8009 bound_to 7997
  154.4757  140.2031  155.9898 H   0  0  0  0  0  0  0  0  0  0  0  0  # atno 8010 bound_to 7997
  139.7734  143.8205  152.2628 H   0  0  0  0  0  0  0  0  0  0  0  0  # atno 10167 bound_to 10162
  157.2246  130.6995  149.6285 H   0  0  0  0  0  0  0  0  0  0  0  0  # atno 10718 bound_to 10713
  154.5879  135.5555  153.7249 H   0  0  0  0  0  0  0  0  0  0  0  0  # atno 10763 bound_to 10752
  153.0105  135.6336  154.1890 H   0  0  0  0  0  0  0  0  0  0  0  0  # atno 10764 bound_to 10752
  154.1831  135.2886  155.3025 H   0  0  0  0  0  0  0  0  0  0  0  0  # atno 10765 bound_to 10752
  141.0979  133.6622  156.4180 H   0  0  0  0  0  0  0  0  0  0  0  0  # atno 11005 bound_to 11000
  146.2632  139.6458  142.9348 LP  0  0  0  0  0  0  0  0  0  0  0  0  # atno 17320 bound_to 7965
  145.4854  141.0438  143.2623 LP  0  0  0  0  0  0  0  0  0  0  0  0  # atno 17321 bound_to 7965
  139.8246  144.7281  150.9529 LP  0  0  0  0  0  0  0  0  0  0  0  0  # atno 17342 bound_to 10162
  140.7815  143.4127  151.0967 LP  0  0  0  0  0  0  0  0  0  0  0  0  # atno 17343 bound_to 10162
  155.9680  130.4509  150.5714 LP  0  0  0  0  0  0  0  0  0  0  0  0  # atno 17370 bound_to 10713
  157.3541  131.0738  151.1689 LP  0  0  0  0  0  0  0  0  0  0  0  0  # atno 17371 bound_to 10713
  140.5095  134.6408  157.5279 LP  0  0  0  0  0  0  0  0  0  0  0  0  # atno 17394 bound_to 11000
  139.9821  134.7121  155.9841 LP  0  0  0  0  0  0  0  0  0  0  0  0  # atno 17395 bound_to 11000

$$$$
