AV-unprocessed.smi:3114|AV-procd|sdf|11856|dock1
  -GOLD-   2272017233D 1   1.00000     0.00000
 Structure written by MMmdl.
 30 30  0  0  0  0  0  0  0  0  1 V2000
  153.2813  140.7656  160.2814 C   0  0  0  0  0  0  0  0  0  0  0  0
  153.2110  142.1501  160.6028 O   0  0  0  0  0  0  0  0  0  0  0  0
  152.5127  142.9815  159.7519 C   0  0  0  0  0  0  0  0  0  0  0  0
  152.4502  144.3615  160.0313 C   0  0  0  0  0  0  0  0  0  0  0  0
  151.7190  145.1540  159.1247 C   0  0  0  0  0  0  0  0  0  0  0  0
  151.1120  144.6200  158.0432 N   0  0  0  0  0  0  0  0  0  0  0  0
  151.2354  143.2992  157.8666 C   0  0  0  0  0  0  0  0  0  0  0  0
  150.6302  142.7224  156.7645 N   0  0  0  0  0  0  0  0  0  0  0  0
  150.8439  141.3514  156.3207 C   0  0  0  0  0  0  0  0  0  0  0  0
  149.7042  140.8455  155.4257 C   0  0  0  0  0  0  0  0  0  0  0  0
  150.2529  140.0747  154.3697 O   0  0  0  0  0  0  0  0  0  0  0  0
  150.1509  138.6793  154.5999 C   0  0  0  0  0  0  0  0  0  0  0  0
  151.5606  138.0832  154.6853 C   0  0  0  0  0  0  0  0  0  0  0  0
  151.5197  136.7051  154.3844 O   0  0  0  0  0  0  0  0  0  0  0  0
  151.8993  142.4565  158.6614 N   0  0  0  0  0  0  0  0  0  0  0  0
  153.8612  140.2474  161.0448 H   0  0  0  0  0  0  0  0  0  0  0  0
  153.7761  140.6030  159.3229 H   0  0  0  0  0  0  0  0  0  0  0  0
  152.2897  140.3115  160.2544 H   0  0  0  0  0  0  0  0  0  0  0  0
  152.9355  144.7891  160.8961 H   0  0  0  0  0  0  0  0  0  0  0  0
  151.6211  146.2200  159.2670 H   0  0  0  0  0  0  0  0  0  0  0  0
  149.8902  143.2483  156.3227 H   0  0  0  0  0  0  0  0  0  0  0  0
  151.7911  141.2986  155.7837 H   0  0  0  0  0  0  0  0  0  0  0  0
  150.9487  140.7050  157.1927 H   0  0  0  0  0  0  0  0  0  0  0  0
  149.0317  140.2203  156.0145 H   0  0  0  0  0  0  0  0  0  0  0  0
  149.1151  141.6769  155.0357 H   0  0  0  0  0  0  0  0  0  0  0  0
  149.5754  138.4620  155.5014 H   0  0  0  0  0  0  0  0  0  0  0  0
  149.6216  138.2263  153.7602 H   0  0  0  0  0  0  0  0  0  0  0  0
  152.2101  138.5628  153.9528 H   0  0  0  0  0  0  0  0  0  0  0  0
  152.0037  138.2472  155.6682 H   0  0  0  0  0  0  0  0  0  0  0  0
  151.4489  136.6071  153.4470 H   0  0  0  0  0  0  0  0  0  0  0  0
  1  2  1  0  0  0  0
  1 16  1  0  0  0  0
  1 17  1  0  0  0  0
  1 18  1  0  0  0  0
  2  3  1  0  0  0  0
  3 15  1  0  0  0  0
  3  4  2  0  0  0  0
  4  5  1  0  0  0  0
  4 19  1  0  0  0  0
  5  6  2  0  0  0  0
  5 20  1  0  0  0  0
  6  7  1  0  0  0  0
  7  8  1  0  0  0  0
  7 15  2  0  0  0  0
  8  9  1  0  0  0  0
  8 21  1  0  0  0  0
  9 10  1  0  0  0  0
  9 22  1  0  0  0  0
  9 23  1  0  0  0  0
 10 11  1  0  0  0  0
 10 24  1  0  0  0  0
 10 25  1  0  0  0  0
 11 12  1  0  0  0  0
 12 13  1  0  0  0  0
 12 26  1  0  0  0  0
 12 27  1  0  0  0  0
 13 14  1  0  0  0  0
 13 28  1  0  0  0  0
 13 29  1  0  0  0  0
 14 30  1  0  0  0  0
M  END
> <s_m_source_file>
AV-unprocessed.smi

> <i_m_source_file_index>
3114

> <i_lp_mmshare_version>
43012

> <i_f3d_flags>
0

> <s_epik_input>
W0NIM11PYzFbY0hdW2NIXW5jKG4xKVtOSF1bQ0gyXVtDSDJdT1tDSDJdW0NIMl1bT0hd

> <s_epik_cmdline>
J2VwaWtfcHl0aG9uJywgJy1waCcsICc3LjAnLCAnLXRuJywgJzgnLCAnLW1hJywgJzIwMCcsICctbWV0YWxfYmluZGluZycsICctaW1hZScsICc8aW5maWxlLm1hZT4nLCAnLW9tYWUnLCAnPG91dGZpbGUubWFlPic=

> <r_lp_tautomer_probability>
1

> <r_epik_Ionization_Penalty>
0.0343038

> <r_epik_Ionization_Penalty_Charging>
0

> <r_epik_Ionization_Penalty_Neutral>
0.0343038

> <r_epik_State_Penalty>
0.0285297

> <r_epik_Charging_Adjusted_Penalty>
0.0285297

> <i_epik_Tot_Q>
0

> <i_epik_Tot_abs_Q>
0

> <r_epik_Metal_State_Penalty>
0.0269624

> <b_epik_Metal_Only>
0

> <s_lp_Force_Field>
OPLS_2005

> <r_lp_Energy>
-3.75924

> <b_lp_Chiralities_Consistent>
1

> <s_lp_Variant>
AV-unprocessed.smi:3114-1

> <Gold.Version>
5.8.1

> <Gold.Id.Protein>
6NUR|6NUR_protein|mol2

> <Gold.PLP.Fitness>
47.4300

> <Gold.PLP.PLP>
-37.5187

> <Gold.PLP.part.hbond>
-3.8315

> <Gold.PLP.part.metal>
0.0000

> <Gold.PLP.part.buried>
-8.1858

> <Gold.PLP.part.nonpolar>
-25.6670

> <Gold.PLP.part.repulsive>
0.3656

> <Gold.PLP.ligand.clash>
0.0000

> <Gold.PLP.ligand.torsion>
1.2310

> <Gold.PLP.Chemscore.Hbond>
4.0000

> <Gold.PLP.Chemscore.CHOScore>
0.0000

> <Gold.PLP.Chemscore.Metal>
0.0000

> <Gold.Chemscore.Hbonds>
donor molecule, donor type, donor heavy atom, donor atom, acceptor molecule, acceptor atom, score
      L1  H     8    21       P1  8028  1.00
      L1  H    14    30       P1  7949  0.91
      P1  H  7989  7998       L1    11  1.00
      P1  H 10752 10765       L1    14  0.45

> <Gold.PLP.Chemscore.Internal.Correction>
0.3733

> <Gold.Rescore>
     Score         DG    S(hbond)    S(metal)    S(lipo)     H(rot)  DE(clash)    DE(int)     intcor
     15.69     -17.06       3.69        0.00      63.68       3.21       0.00       1.37       ----

> <Gold.Chemscore.Fitness>
15.6885

> <Gold.Chemscore.DG>
-17.0567

> <Gold.Chemscore.ZeroCoef>
-5.4800

> <Gold.Chemscore.Hbond>
3.6941

> <Gold.Chemscore.Metal>
0.0000

> <Gold.Chemscore.Lipo>
63.6775

> <Gold.Chemscore.Internal_Hbond>
0.0000

> <Gold.Chemscore.DEClash>
0.0000

> <Gold.Chemscore.DEInternal>
1.3682

> <Gold.Chemscore.Rot>
3.2078

> <Gold.Chemscore.Internal.Correction>
   9.000000E+99

> <Gold.Chemscore.Hbonds>
donor molecule, donor type, donor heavy atom, donor atom, acceptor molecule, acceptor atom, score
      L1  H     8    21       P1  8028  0.99
      L1  H    14    30       P1  7949  0.72
      P1  H  7989  7998       L1    11  0.89
      P1  H 10752 10765       L1    14  0.02

> <Gold.Chemscore.Hbond.Weighted>
-12.3384

> <Gold.Chemscore.Metal.Weighted>
-0.0000

> <Gold.Chemscore.Lipo.Weighted>
-7.4503

> <Gold.Chemscore.Internal_Hbond.Weighted>
0.0000

> <Gold.Chemscore.DEClash.Weighted>
0.0000

> <Gold.Chemscore.DEInternal.Weighted>
1.3682

> <Gold.Chemscore.Rot.Weighted>
8.2120

> <Gold.Chemscore.Internal.Correction.Weighted>
   9.000000E+99

> <Gold.Protein.RotatedTorsions>
[ 6907 6896 6895 6894 ] final   20.47 input  -60.11 | X-H torsion
[ 7974 7965 7964 7962 ] final -159.30 input  175.53 | X-H torsion
[ 8008 7997 7996 7995 ] final   54.58 input   59.86 | X-H torsion
[ 10167 10162 10161 10158 ] final  -82.38 input  -65.29 | X-H torsion
[ 10718 10713 10712 10709 ] final   74.51 input   66.30 | X-H torsion
[ 10763 10752 10751 10750 ] final  165.88 input  -60.55 | X-H torsion
[ 11005 11000 10999 10996 ] final  -65.58 input  -57.11 | X-H torsion

> <Gold.Protein.ActiveResidues>
 VAL166  LYS551  ARG553  GLY616  TRP617  ASP618  TYR619  PRO620  LYS621  CYS622 
 ASP623  PHE694  ASN695  SER759  ASP760  ASP761  ALA762  ILE779  LEU786  VAL792 
 PHE793  MET794  SER795  GLU796  ALA797  LYS798  CYS799  TRP800  GLU811  SER814 

> <Gold.Protein.RotatedAtoms>
  151.8969  135.0394  160.0502 H   0  0  0  0  0  0  0  0  0  0  0  0  # atno 6907 bound_to 6896
  152.2390  133.5115  159.5267 H   0  0  0  0  0  0  0  0  0  0  0  0  # atno 6908 bound_to 6896
  150.7048  134.1031  159.4015 H   0  0  0  0  0  0  0  0  0  0  0  0  # atno 6909 bound_to 6896
  144.7471  140.3704  143.6077 H   0  0  0  0  0  0  0  0  0  0  0  0  # atno 7974 bound_to 7965
  155.4871  140.3470  155.4349 H   0  0  0  0  0  0  0  0  0  0  0  0  # atno 8008 bound_to 7997
  156.1001  140.1433  156.9507 H   0  0  0  0  0  0  0  0  0  0  0  0  # atno 8009 bound_to 7997
  154.4688  140.0908  156.7069 H   0  0  0  0  0  0  0  0  0  0  0  0  # atno 8010 bound_to 7997
  140.4325  143.2543  151.8739 H   0  0  0  0  0  0  0  0  0  0  0  0  # atno 10167 bound_to 10162
  157.6595  130.9681  150.1222 H   0  0  0  0  0  0  0  0  0  0  0  0  # atno 10718 bound_to 10713
  154.3307  135.2755  155.2473 H   0  0  0  0  0  0  0  0  0  0  0  0  # atno 10763 bound_to 10752
  154.4786  135.5864  153.6377 H   0  0  0  0  0  0  0  0  0  0  0  0  # atno 10764 bound_to 10752
  152.9867  135.6106  154.3499 H   0  0  0  0  0  0  0  0  0  0  0  0  # atno 10765 bound_to 10752
  141.1458  133.6684  156.6008 H   0  0  0  0  0  0  0  0  0  0  0  0  # atno 11005 bound_to 11000
  145.7083  139.1678  143.2553 LP  0  0  0  0  0  0  0  0  0  0  0  0  # atno 17320 bound_to 7965
  146.1365  140.7115  142.9387 LP  0  0  0  0  0  0  0  0  0  0  0  0  # atno 17321 bound_to 7965
  139.4785  144.5318  151.8655 LP  0  0  0  0  0  0  0  0  0  0  0  0  # atno 17342 bound_to 10162
  140.4410  144.1986  150.5891 LP  0  0  0  0  0  0  0  0  0  0  0  0  # atno 17343 bound_to 10162
  156.2090  130.3665  149.8694 LP  0  0  0  0  0  0  0  0  0  0  0  0  # atno 17370 bound_to 10713
  156.6577  130.8769  151.3542 LP  0  0  0  0  0  0  0  0  0  0  0  0  # atno 17371 bound_to 10713
  140.3690  134.7622  157.4586 LP  0  0  0  0  0  0  0  0  0  0  0  0  # atno 17394 bound_to 11000
  140.0725  134.5842  155.8626 LP  0  0  0  0  0  0  0  0  0  0  0  0  # atno 17395 bound_to 11000

$$$$
