AV-unprocessed.smi:1883|AV-procd|sdf|7645|dock1
  -GOLD-   22720 9373D 1   1.00000     0.00000
 Structure written by MMmdl.
 36 38  0  0  0  0  0  0  0  0  2 V2000
  151.8207  137.9028  154.6486 C   0  0  0  0  0  0  0  0  0  0  0  0
  150.6411  138.7852  154.4130 C   0  0  0  0  0  0  0  0  0  0  0  0
  149.5884  138.5147  153.5903 N   0  3  0  0  0  0  0  0  0  0  0  0
  148.6795  139.5734  153.6229 C   0  0  0  0  0  0  0  0  0  0  0  0
  147.4697  139.7581  152.9607 C   0  0  0  0  0  0  0  0  0  0  0  0
  146.7847  140.9639  153.2188 C   0  0  0  0  0  0  0  0  0  0  0  0
  147.3051  141.9291  154.1055 C   0  0  0  0  0  0  0  0  0  0  0  0
  148.5325  141.7308  154.7715 C   0  0  0  0  0  0  0  0  0  0  0  0
  149.2031  140.5365  154.5092 C   0  0  0  0  0  0  0  0  0  0  0  0
  150.4129  140.0083  154.9714 N   0  0  0  0  0  0  0  0  0  0  0  0
  151.2184  140.7883  155.9229 C   0  0  0  0  0  0  0  0  0  0  0  0
  150.4425  141.1754  157.1974 C   0  0  1  0  0  0  0  0  0  0  0  0
  149.8532  140.0222  157.7678 O   0  0  0  0  0  0  0  0  0  0  0  0
  151.3388  141.9244  158.1742 C   0  0  0  0  0  0  0  0  0  0  0  0
  151.2157  143.3230  158.3367 C   0  0  0  0  0  0  0  0  0  0  0  0
  152.0366  144.0084  159.2530 C   0  0  0  0  0  0  0  0  0  0  0  0
  151.9124  145.3482  159.4023 F   0  0  0  0  0  0  0  0  0  0  0  0
  152.9842  143.3007  160.0158 C   0  0  0  0  0  0  0  0  0  0  0  0
  153.1081  141.9067  159.8640 C   0  0  0  0  0  0  0  0  0  0  0  0
  152.2871  141.2188  158.9492 C   0  0  0  0  0  0  0  0  0  0  0  0
  152.4103  139.8752  158.8249 F   0  0  0  0  0  0  0  0  0  0  0  0
  151.6812  136.9375  154.1615 H   0  0  0  0  0  0  0  0  0  0  0  0
  151.9599  137.7346  155.7167 H   0  0  0  0  0  0  0  0  0  0  0  0
  152.7221  138.3671  154.2484 H   0  0  0  0  0  0  0  0  0  0  0  0
  147.0690  139.0202  152.2813 H   0  0  0  0  0  0  0  0  0  0  0  0
  145.8413  141.1518  152.7270 H   0  0  0  0  0  0  0  0  0  0  0  0
  146.7514  142.8406  154.2787 H   0  0  0  0  0  0  0  0  0  0  0  0
  148.9224  142.4749  155.4502 H   0  0  0  0  0  0  0  0  0  0  0  0
  152.0977  140.1961  156.1793 H   0  0  0  0  0  0  0  0  0  0  0  0
  151.5876  141.6765  155.4082 H   0  0  0  0  0  0  0  0  0  0  0  0
  149.6141  141.8300  156.9260 H   0  0  0  0  0  0  0  0  0  0  0  0
  150.3783  139.7513  158.5056 H   0  0  0  0  0  0  0  0  0  0  0  0
  150.4878  143.8777  157.7627 H   0  0  0  0  0  0  0  0  0  0  0  0
  153.6129  143.8260  160.7197 H   0  0  0  0  0  0  0  0  0  0  0  0
  153.8323  141.3635  160.4530 H   0  0  0  0  0  0  0  0  0  0  0  0
  149.5012  137.6665  153.0457 H   0  0  0  0  0  0  0  0  0  0  0  0
  1  2  1  0  0  0  0
  1 22  1  0  0  0  0
  1 23  1  0  0  0  0
  1 24  1  0  0  0  0
  2 10  1  0  0  0  0
  2  3  2  0  0  0  0
  3  4  1  0  0  0  0
  3 36  1  0  0  0  0
  4  9  2  0  0  0  0
  4  5  1  0  0  0  0
  5  6  2  0  0  0  0
  5 25  1  0  0  0  0
  6  7  1  0  0  0  0
  6 26  1  0  0  0  0
  7  8  2  0  0  0  0
  7 27  1  0  0  0  0
  8  9  1  0  0  0  0
  8 28  1  0  0  0  0
  9 10  1  0  0  0  0
 10 11  1  0  0  0  0
 11 12  1  0  0  0  0
 11 29  1  0  0  0  0
 11 30  1  0  0  0  0
 12 13  1  0  0  0  0
 12 14  1  0  0  0  0
 12 31  1  0  0  0  0
 13 32  1  0  0  0  0
 14 20  1  0  0  0  0
 14 15  2  0  0  0  0
 15 16  1  0  0  0  0
 15 33  1  0  0  0  0
 16 17  1  0  0  0  0
 16 18  2  0  0  0  0
 18 19  1  0  0  0  0
 18 34  1  0  0  0  0
 19 20  2  0  0  0  0
 19 35  1  0  0  0  0
 20 21  1  0  0  0  0
M  CHG  1   3   1
M  END
> <s_m_source_file>
AV-unprocessed.smi

> <i_m_source_file_index>
1883

> <i_lp_mmshare_version>
43012

> <i_f3d_flags>
0

> <s_epik_input>
W2NIXTFbY0hdW2NIXVtjSF1jKGMxMiluKGMobjIpW0NIM10pW0NIMl1bQ0BIXShbT0hdKWMzW2NIXWMoRilbY0hdW2NIXWMzRg==

> <s_epik_cmdline>
J2VwaWtfcHl0aG9uJywgJy1waCcsICc3LjAnLCAnLXRuJywgJzgnLCAnLW1hJywgJzIwMCcsICctbWV0YWxfYmluZGluZycsICctaW1hZScsICc8aW5maWxlLm1hZT4nLCAnLW9tYWUnLCAnPG91dGZpbGUubWFlPic=

> <r_epik_Ionization_Penalty>
0.963871

> <r_epik_Ionization_Penalty_Charging>
0.963868

> <r_epik_Ionization_Penalty_Neutral>
3.53208e-06

> <r_epik_State_Penalty>
1.00924

> <r_epik_Charging_Adjusted_Penalty>
1.9731

> <i_epik_Tot_Q>
1

> <i_epik_Tot_abs_Q>
1

> <r_epik_Metal_State_Penalty>
4.98304

> <b_epik_Metal_Only>
0

> <s_lp_Force_Field>
OPLS_2005

> <r_lp_Energy>
14.9969

> <b_lp_Chiralities_Consistent>
1

> <s_lp_Variant>
AV-unprocessed.smi:1883-4

> <Gold.Version>
5.8.1

> <Gold.Id.Protein>
6NUR|6NUR_protein|mol2

> <Gold.PLP.Fitness>
57.1504

> <Gold.PLP.PLP>
-51.8704

> <Gold.PLP.part.hbond>
-2.0000

> <Gold.PLP.part.metal>
0.0000

> <Gold.PLP.part.buried>
2.5362

> <Gold.PLP.part.nonpolar>
-52.3629

> <Gold.PLP.part.repulsive>
0.0744

> <Gold.PLP.ligand.clash>
0.0000

> <Gold.PLP.ligand.torsion>
0.3742

> <Gold.PLP.Chemscore.Hbond>
2.0000

> <Gold.PLP.Chemscore.CHOScore>
0.0000

> <Gold.PLP.Chemscore.Metal>
0.0000

> <Gold.Chemscore.Hbonds>
donor molecule, donor type, donor heavy atom, donor atom, acceptor molecule, acceptor atom, score
      L1  H     3    36       P1  7948  2.00

> <Gold.PLP.Chemscore.Internal.Correction>
0.0283

> <Gold.Rescore>
     Score         DG    S(hbond)    S(metal)    S(lipo)     H(rot)  DE(clash)    DE(int)     intcor
     16.34     -18.13       0.97        0.00     122.80       1.94       0.10       1.69       ----

> <Gold.Chemscore.Fitness>
16.3384

> <Gold.Chemscore.DG>
-18.1337

> <Gold.Chemscore.ZeroCoef>
-5.4800

> <Gold.Chemscore.Hbond>
0.9718

> <Gold.Chemscore.Metal>
0.0000

> <Gold.Chemscore.Lipo>
122.8005

> <Gold.Chemscore.Internal_Hbond>
0.0000

> <Gold.Chemscore.DEClash>
0.1033

> <Gold.Chemscore.DEInternal>
1.6921

> <Gold.Chemscore.Rot>
1.9375

> <Gold.Chemscore.Internal.Correction>
   9.000000E+99

> <Gold.Chemscore.Hbonds>
donor molecule, donor type, donor heavy atom, donor atom, acceptor molecule, acceptor atom, score
      L1  H     3    36       P1  7948  0.85

> <Gold.Chemscore.Hbond.Weighted>
-3.2460

> <Gold.Chemscore.Metal.Weighted>
-0.0000

> <Gold.Chemscore.Lipo.Weighted>
-14.3677

> <Gold.Chemscore.Internal_Hbond.Weighted>
0.0000

> <Gold.Chemscore.DEClash.Weighted>
0.1033

> <Gold.Chemscore.DEInternal.Weighted>
1.6921

> <Gold.Chemscore.Rot.Weighted>
4.9599

> <Gold.Chemscore.Internal.Correction.Weighted>
   9.000000E+99

> <Gold.Protein.RotatedTorsions>
[ 6907 6896 6895 6894 ] final   64.69 input  -60.11 | X-H torsion
[ 7974 7965 7964 7962 ] final   63.28 input  175.53 | X-H torsion
[ 8008 7997 7996 7995 ] final -174.34 input   59.86 | X-H torsion
[ 10167 10162 10161 10158 ] final   52.94 input  -65.29 | X-H torsion
[ 10718 10713 10712 10709 ] final   15.41 input   66.30 | X-H torsion
[ 10763 10752 10751 10750 ] final  165.43 input  -60.55 | X-H torsion
[ 11005 11000 10999 10996 ] final  -95.70 input  -57.11 | X-H torsion

> <Gold.Protein.ActiveResidues>
 VAL166  LYS551  ARG553  GLY616  TRP617  ASP618  TYR619  PRO620  LYS621  CYS622 
 ASP623  PHE694  ASN695  SER759  ASP760  ASP761  ALA762  ILE779  LEU786  VAL792 
 PHE793  MET794  SER795  GLU796  ALA797  LYS798  CYS799  TRP800  GLU811  SER814 

> <Gold.Protein.RotatedAtoms>
  152.4351  134.5703  159.9918 H   0  0  0  0  0  0  0  0  0  0  0  0  # atno 6907 bound_to 6896
  151.5815  133.3371  159.3017 H   0  0  0  0  0  0  0  0  0  0  0  0  # atno 6908 bound_to 6896
  150.8248  134.7508  159.6868 H   0  0  0  0  0  0  0  0  0  0  0  0  # atno 6909 bound_to 6896
  145.8636  139.3331  143.0804 H   0  0  0  0  0  0  0  0  0  0  0  0  # atno 7974 bound_to 7965
  155.9689  140.1159  157.0830 H   0  0  0  0  0  0  0  0  0  0  0  0  # atno 8008 bound_to 7997
  154.4151  140.1167  156.5347 H   0  0  0  0  0  0  0  0  0  0  0  0  # atno 8009 bound_to 7997
  155.6623  140.3473  155.4789 H   0  0  0  0  0  0  0  0  0  0  0  0  # atno 8010 bound_to 7997
  140.2460  144.3531  150.6364 H   0  0  0  0  0  0  0  0  0  0  0  0  # atno 10167 bound_to 10162
  157.0532  130.6278  149.5772 H   0  0  0  0  0  0  0  0  0  0  0  0  # atno 10718 bound_to 10713
  154.3239  135.2755  155.2506 H   0  0  0  0  0  0  0  0  0  0  0  0  # atno 10763 bound_to 10752
  154.4847  135.5849  153.6418 H   0  0  0  0  0  0  0  0  0  0  0  0  # atno 10764 bound_to 10752
  152.9873  135.6120  154.3426 H   0  0  0  0  0  0  0  0  0  0  0  0  # atno 10765 bound_to 10752
  141.1434  133.8045  157.0471 H   0  0  0  0  0  0  0  0  0  0  0  0  # atno 11005 bound_to 11000
  145.9219  140.9109  143.0401 LP  0  0  0  0  0  0  0  0  0  0  0  0  # atno 17320 bound_to 7965
  144.6726  140.1300  143.7444 LP  0  0  0  0  0  0  0  0  0  0  0  0  # atno 17321 bound_to 7965
  140.6077  143.2168  151.6948 LP  0  0  0  0  0  0  0  0  0  0  0  0  # atno 17342 bound_to 10162
  139.5062  144.3692  152.0487 LP  0  0  0  0  0  0  0  0  0  0  0  0  # atno 17343 bound_to 10162
  156.0001  130.5078  150.7631 LP  0  0  0  0  0  0  0  0  0  0  0  0  # atno 17370 bound_to 10713
  157.5014  131.0919  151.0310 LP  0  0  0  0  0  0  0  0  0  0  0  0  # atno 17371 bound_to 10713
  140.0656  134.9731  157.1379 LP  0  0  0  0  0  0  0  0  0  0  0  0  # atno 17394 bound_to 11000
  140.3785  134.2312  155.7172 LP  0  0  0  0  0  0  0  0  0  0  0  0  # atno 17395 bound_to 11000

$$$$
