AV-unprocessed.smi:217|AV-procd|sdf|1660|dock2
  -GOLD-   2262020 53D 1   1.00000     0.00000
 Structure written by MMmdl.
 57 61  0  0  0  0  0  0  0  0  1 V2000
  153.1614  131.4518  163.8245 O   0  0  0  0  0  0  0  0  0  0  0  0
  154.3137  131.1768  164.5942 C   0  0  0  0  0  0  0  0  0  0  0  0
  155.1985  132.4258  164.7386 C   0  0  0  0  0  0  0  0  0  0  0  0
  156.4404  132.0761  165.5841 C   0  0  0  0  0  0  0  0  0  0  0  0
  156.0854  131.3997  166.7732 O   0  0  0  0  0  0  0  0  0  0  0  0
  155.4889  133.1898  163.4270 C   0  0  0  0  0  0  0  0  0  0  0  0
  155.2864  134.5158  164.1630 C   0  0  0  0  0  0  0  0  0  0  0  0
  154.7436  135.6601  163.4915 N   0  0  0  0  0  0  0  0  0  0  0  0
  154.3356  136.8410  164.0715 C   0  0  0  0  0  0  0  0  0  0  0  0
  153.9217  137.7577  163.2391 N   0  0  0  0  0  0  0  0  0  0  0  0
  154.0938  137.1771  161.9895 C   0  0  0  0  0  0  0  0  0  0  0  0
  153.8692  137.6154  160.6586 C   0  0  0  0  0  0  0  0  0  0  0  0
  153.3760  138.8417  160.3839 N   0  0  0  0  0  0  0  0  0  0  0  0
  152.7060  138.9206  159.0898 C   0  0  0  0  0  0  0  0  0  0  0  0
  151.9673  140.2610  158.9412 C   0  0  0  0  0  0  0  0  0  0  0  0
  152.9146  141.4590  159.1698 C   0  0  0  0  0  0  0  0  0  0  0  0
  152.1754  142.8103  159.0847 C   0  0  2  0  0  0  0  0  0  0  0  0
  153.0572  144.0046  158.7189 C   0  0  0  0  0  0  0  0  0  0  0  0
  152.2400  145.1596  159.2503 C   0  0  0  0  0  0  0  0  0  0  0  0
  151.6664  144.5768  160.5386 C   0  0  0  0  0  0  0  0  0  0  0  0
  151.6284  143.1634  160.3532 O   0  0  0  0  0  0  0  0  0  0  0  0
  153.6170  141.2896  160.5335 C   0  0  0  0  0  0  0  0  0  0  0  0
  154.3186  139.9262  160.6407 C   0  0  0  0  0  0  0  0  0  0  0  0
  154.1695  136.7612  159.6450 N   0  0  0  0  0  0  0  0  0  0  0  0
  154.6659  135.5509  159.9203 C   0  0  0  0  0  0  0  0  0  0  0  0
  154.9298  135.0074  161.1111 N   0  0  0  0  0  0  0  0  0  0  0  0
  154.6212  135.8633  162.1279 C   0  0  0  0  0  0  0  0  0  0  0  0
  154.4545  133.7111  165.1644 C   0  0  0  0  0  0  0  0  0  0  0  0
  153.4072  131.4739  162.9122 H   0  0  0  0  0  0  0  0  0  0  0  0
  154.0078  130.7851  165.5644 H   0  0  0  0  0  0  0  0  0  0  0  0
  154.8588  130.3724  164.0999 H   0  0  0  0  0  0  0  0  0  0  0  0
  157.1248  131.4330  165.0309 H   0  0  0  0  0  0  0  0  0  0  0  0
  157.0113  132.9674  165.8444 H   0  0  0  0  0  0  0  0  0  0  0  0
  155.2532  130.9731  166.6392 H   0  0  0  0  0  0  0  0  0  0  0  0
  156.4914  133.0511  163.0214 H   0  0  0  0  0  0  0  0  0  0  0  0
  154.7327  133.0224  162.6578 H   0  0  0  0  0  0  0  0  0  0  0  0
  156.2202  134.8503  164.6178 H   0  0  0  0  0  0  0  0  0  0  0  0
  154.3491  137.0020  165.1398 H   0  0  0  0  0  0  0  0  0  0  0  0
  153.4416  138.8126  158.2912 H   0  0  0  0  0  0  0  0  0  0  0  0
  151.9996  138.0956  158.9875 H   0  0  0  0  0  0  0  0  0  0  0  0
  151.5194  140.3123  157.9489 H   0  0  0  0  0  0  0  0  0  0  0  0
  151.1437  140.3014  159.6554 H   0  0  0  0  0  0  0  0  0  0  0  0
  153.6789  141.4400  158.3914 H   0  0  0  0  0  0  0  0  0  0  0  0
  151.3509  142.7444  158.3728 H   0  0  0  0  0  0  0  0  0  0  0  0
  154.0145  143.9521  159.2397 H   0  0  0  0  0  0  0  0  0  0  0  0
  153.2509  144.0806  157.6487 H   0  0  0  0  0  0  0  0  0  0  0  0
  152.8273  146.0636  159.4140 H   0  0  0  0  0  0  0  0  0  0  0  0
  151.4340  145.3961  158.5542 H   0  0  0  0  0  0  0  0  0  0  0  0
  152.3196  144.7965  161.3838 H   0  0  0  0  0  0  0  0  0  0  0  0
  150.6762  144.9738  160.7636 H   0  0  0  0  0  0  0  0  0  0  0  0
  154.3478  142.0844  160.6851 H   0  0  0  0  0  0  0  0  0  0  0  0
  152.8867  141.3841  161.3385 H   0  0  0  0  0  0  0  0  0  0  0  0
  154.7528  139.8107  161.6349 H   0  0  0  0  0  0  0  0  0  0  0  0
  155.1402  139.8762  159.9245 H   0  0  0  0  0  0  0  0  0  0  0  0
  154.8821  134.9288  159.0644 H   0  0  0  0  0  0  0  0  0  0  0  0
  153.3937  133.6918  164.9073 H   0  0  0  0  0  0  0  0  0  0  0  0
  154.5979  133.9996  166.2062 H   0  0  0  0  0  0  0  0  0  0  0  0
  1  2  1  0  0  0  0
  1 29  1  0  0  0  0
  2  3  1  0  0  0  0
  2 30  1  0  0  0  0
  2 31  1  0  0  0  0
  3 28  1  0  0  0  0
  3  4  1  0  0  0  0
  3  6  1  0  0  0  0
  4  5  1  0  0  0  0
  4 32  1  0  0  0  0
  4 33  1  0  0  0  0
  5 34  1  0  0  0  0
  6  7  1  0  0  0  0
  6 35  1  0  0  0  0
  6 36  1  0  0  0  0
  7  8  1  0  0  0  0
  7 28  1  0  0  0  0
  7 37  1  0  0  0  0
  8 27  1  0  0  0  0
  8  9  1  0  0  0  0
  9 10  2  0  0  0  0
  9 38  1  0  0  0  0
 10 11  1  0  0  0  0
 11 27  2  0  0  0  0
 11 12  1  0  0  0  0
 12 13  1  0  0  0  0
 12 24  2  0  0  0  0
 13 23  1  0  0  0  0
 13 14  1  0  0  0  0
 14 15  1  0  0  0  0
 14 39  1  0  0  0  0
 14 40  1  0  0  0  0
 15 16  1  0  0  0  0
 15 41  1  0  0  0  0
 15 42  1  0  0  0  0
 16 17  1  0  0  0  0
 16 22  1  0  0  0  0
 16 43  1  0  0  0  0
 17 21  1  0  0  0  0
 17 18  1  0  0  0  0
 17 44  1  0  0  0  0
 18 19  1  0  0  0  0
 18 45  1  0  0  0  0
 18 46  1  0  0  0  0
 19 20  1  0  0  0  0
 19 47  1  0  0  0  0
 19 48  1  0  0  0  0
 20 21  1  0  0  0  0
 20 49  1  0  0  0  0
 20 50  1  0  0  0  0
 22 23  1  0  0  0  0
 22 51  1  0  0  0  0
 22 52  1  0  0  0  0
 23 53  1  0  0  0  0
 23 54  1  0  0  0  0
 24 25  1  0  0  0  0
 25 26  2  0  0  0  0
 25 55  1  0  0  0  0
 26 27  1  0  0  0  0
 28 56  1  0  0  0  0
 28 57  1  0  0  0  0
M  END
> <s_m_source_file>
AV-unprocessed.smi

> <i_m_source_file_index>
217

> <i_lp_mmshare_version>
43012

> <i_f3d_flags>
0

> <s_epik_input>
W09IXVtDSDJdQzEoW0NIMl1bT0hdKVtDSDJdW0NIXShbQ0gyXTEpbihbY0hdbjIpYyhjMjMpbltjSF1uYzNONFtDSDJdW0NIMl1bQ0hdKFtDSDJdW0NIMl00KVtDQEBIXTVbQ0gyXVtDSDJdW0NIMl1PNQ==

> <s_epik_cmdline>
J2VwaWtfcHl0aG9uJywgJy1waCcsICc3LjAnLCAnLXRuJywgJzgnLCAnLW1hJywgJzIwMCcsICctbWV0YWxfYmluZGluZycsICctaW1hZScsICc8aW5maWxlLm1hZT4nLCAnLW9tYWUnLCAnPG91dGZpbGUubWFlPic=

> <r_lp_tautomer_probability>
1

> <r_epik_Ionization_Penalty>
0.0037022

> <r_epik_Ionization_Penalty_Charging>
0

> <r_epik_Ionization_Penalty_Neutral>
0.0037022

> <r_epik_State_Penalty>
0.00257654

> <r_epik_Charging_Adjusted_Penalty>
0.00257654

> <i_epik_Tot_Q>
0

> <i_epik_Tot_abs_Q>
0

> <r_epik_Metal_State_Penalty>
-0

> <b_epik_Metal_Only>
0

> <s_lp_Force_Field>
OPLS_2005

> <r_lp_Energy>
56.6597

> <b_lp_Chiralities_Consistent>
1

> <s_lp_Variant>
AV-unprocessed.smi:217-1

> <Gold.Version>
5.8.1

> <Gold.Id.Protein>
6NUR|6NUR_protein|mol2

> <Gold.PLP.Fitness>
47.5803

> <Gold.PLP.PLP>
-49.5459

> <Gold.PLP.part.hbond>
-0.4688

> <Gold.PLP.part.metal>
0.0000

> <Gold.PLP.part.buried>
-5.1375

> <Gold.PLP.part.nonpolar>
-44.0037

> <Gold.PLP.part.repulsive>
0.0567

> <Gold.PLP.ligand.clash>
0.0000

> <Gold.PLP.ligand.torsion>
1.3635

> <Gold.PLP.Chemscore.Hbond>
0.0000

> <Gold.PLP.Chemscore.CHOScore>
0.0000

> <Gold.PLP.Chemscore.Metal>
0.0000

> <Gold.PLP.Chemscore.Internal.Correction>
0.7614

> <Gold.Rescore>
     Score         DG    S(hbond)    S(metal)    S(lipo)     H(rot)  DE(clash)    DE(int)     intcor
      9.94     -12.66       0.00        0.00     133.28       3.28       0.38       2.35       ----

> <Gold.Chemscore.Fitness>
9.9385

> <Gold.Chemscore.DG>
-12.6645

> <Gold.Chemscore.ZeroCoef>
-5.4800

> <Gold.Chemscore.Hbond>
0.0000

> <Gold.Chemscore.Metal>
0.0000

> <Gold.Chemscore.Lipo>
133.2793

> <Gold.Chemscore.Internal_Hbond>
0.0000

> <Gold.Chemscore.DEClash>
0.3773

> <Gold.Chemscore.DEInternal>
2.3487

> <Gold.Chemscore.Rot>
3.2848

> <Gold.Chemscore.Internal.Correction>
   9.000000E+99

> <Gold.Chemscore.Hbond.Weighted>
-0.0000

> <Gold.Chemscore.Metal.Weighted>
-0.0000

> <Gold.Chemscore.Lipo.Weighted>
-15.5937

> <Gold.Chemscore.Internal_Hbond.Weighted>
0.0000

> <Gold.Chemscore.DEClash.Weighted>
0.3773

> <Gold.Chemscore.DEInternal.Weighted>
2.3487

> <Gold.Chemscore.Rot.Weighted>
8.4092

> <Gold.Chemscore.Internal.Correction.Weighted>
   9.000000E+99

> <Gold.Protein.RotatedTorsions>
[ 6907 6896 6895 6894 ] final  -78.61 input  -60.11 | X-H torsion
[ 7974 7965 7964 7962 ] final  -89.86 input  175.53 | X-H torsion
[ 8008 7997 7996 7995 ] final  -27.16 input   59.86 | X-H torsion
[ 10167 10162 10161 10158 ] final   41.29 input  -65.29 | X-H torsion
[ 10718 10713 10712 10709 ] final  170.04 input   66.30 | X-H torsion
[ 10763 10752 10751 10750 ] final  -97.74 input  -60.55 | X-H torsion
[ 11005 11000 10999 10996 ] final   -8.55 input  -57.11 | X-H torsion

> <Gold.Protein.ActiveResidues>
 VAL166  LYS551  ARG553  GLY616  TRP617  ASP618  TYR619  PRO620  LYS621  CYS622 
 ASP623  PHE694  ASN695  SER759  ASP760  ASP761  ALA762  ILE779  LEU786  VAL792 
 PHE793  MET794  SER795  GLU796  ALA797  LYS798  CYS799  TRP800  GLU811  SER814 

> <Gold.Protein.RotatedAtoms>
  150.6969  134.4246  159.5220 H   0  0  0  0  0  0  0  0  0  0  0  0  # atno 6907 bound_to 6896
  152.1983  134.8608  160.0519 H   0  0  0  0  0  0  0  0  0  0  0  0  # atno 6908 bound_to 6896
  151.9538  133.3639  159.4046 H   0  0  0  0  0  0  0  0  0  0  0  0  # atno 6909 bound_to 6896
  145.4341  140.9557  143.2111 H   0  0  0  0  0  0  0  0  0  0  0  0  # atno 7974 bound_to 7965
  154.4390  140.1880  156.0888 H   0  0  0  0  0  0  0  0  0  0  0  0  # atno 8008 bound_to 7997
  156.0382  140.3323  155.7188 H   0  0  0  0  0  0  0  0  0  0  0  0  # atno 8009 bound_to 7997
  155.5739  140.0615  157.2790 H   0  0  0  0  0  0  0  0  0  0  0  0  # atno 8010 bound_to 7997
  140.3658  144.2170  150.6135 H   0  0  0  0  0  0  0  0  0  0  0  0  # atno 10167 bound_to 10162
  157.0139  131.0212  151.2795 H   0  0  0  0  0  0  0  0  0  0  0  0  # atno 10718 bound_to 10713
  154.7354  135.5035  153.9033 H   0  0  0  0  0  0  0  0  0  0  0  0  # atno 10763 bound_to 10752
  153.0990  135.6680  153.9717 H   0  0  0  0  0  0  0  0  0  0  0  0  # atno 10764 bound_to 10752
  153.9507  135.3058  155.3418 H   0  0  0  0  0  0  0  0  0  0  0  0  # atno 10765 bound_to 10752
  140.7246  133.8799  155.8847 H   0  0  0  0  0  0  0  0  0  0  0  0  # atno 11005 bound_to 11000
  144.8164  139.5870  143.7007 LP  0  0  0  0  0  0  0  0  0  0  0  0  # atno 17320 bound_to 7965
  146.2591  139.6370  142.9374 LP  0  0  0  0  0  0  0  0  0  0  0  0  # atno 17321 bound_to 7965
  140.5082  143.2298  151.8575 LP  0  0  0  0  0  0  0  0  0  0  0  0  # atno 17342 bound_to 10162
  139.4809  144.4980  151.9098 LP  0  0  0  0  0  0  0  0  0  0  0  0  # atno 17343 bound_to 10162
  157.5300  130.8052  149.7906 LP  0  0  0  0  0  0  0  0  0  0  0  0  # atno 17370 bound_to 10713
  156.0126  130.3827  150.2214 LP  0  0  0  0  0  0  0  0  0  0  0  0  # atno 17371 bound_to 10713
  140.9973  134.1197  157.4351 LP  0  0  0  0  0  0  0  0  0  0  0  0  # atno 17394 bound_to 11000
  139.8840  135.0058  156.6339 LP  0  0  0  0  0  0  0  0  0  0  0  0  # atno 17395 bound_to 11000

$$$$
