AV-unprocessed.smi:287|AV-procd|sdf|2187|dock5
  -GOLD-   2262021573D 1   1.00000     0.00000
 Structure written by MMmdl.
 55 58  0  0  0  0  0  0  0  0  1 V2000
  151.7409  145.1248  158.8010 C   0  0  0  0  0  0  0  0  0  0  0  0
  151.5468  143.7225  158.3349 C   0  0  0  0  0  0  0  0  0  0  0  0
  150.9121  143.1622  157.2651 C   0  0  0  0  0  0  0  0  0  0  0  0
  151.0704  141.7475  157.3682 C   0  0  0  0  0  0  0  0  0  0  0  0
  150.5348  140.7104  156.3905 C   0  0  1  0  0  0  0  0  0  0  0  0
  151.7004  139.8834  155.8238 C   0  0  0  0  0  0  0  0  0  0  0  0
  149.6698  139.7739  157.0043 O   0  0  0  0  0  0  0  0  0  0  0  0
  149.7274  141.3467  155.2364 C   0  0  0  0  0  0  0  0  0  0  0  0
  148.4475  141.8913  155.6715 N   0  0  0  0  0  0  0  0  0  0  0  0
  147.3130  141.1673  155.5730 C   0  0  0  0  0  0  0  0  0  0  0  0
  146.3392  141.4866  156.4589 N   0  0  0  0  0  0  0  0  0  0  0  0
  145.1745  140.8323  156.4436 C   0  0  0  0  0  0  0  0  0  0  0  0
  144.7840  139.8430  155.6381 N   0  0  0  0  0  0  0  0  0  0  0  0
  145.7600  139.5163  154.7428 C   0  0  0  0  0  0  0  0  0  0  0  0
  147.0456  140.1202  154.6415 C   0  0  0  0  0  0  0  0  0  0  0  0
  147.7539  139.5115  153.6105 N   0  0  0  0  0  0  0  0  0  0  0  0
  146.9347  138.6125  153.1368 C   0  0  0  0  0  0  0  0  0  0  0  0
  145.7124  138.5430  153.7694 N   0  0  0  0  0  0  0  0  0  0  0  0
  144.5432  137.6451  153.4929 C   0  0  1  0  0  0  0  0  0  0  0  0
  144.5792  137.2755  152.1473 O   0  0  0  0  0  0  0  0  0  0  0  0
  145.1227  135.9660  152.0263 C   0  0  2  0  0  0  0  0  0  0  0  0
  144.7823  135.3404  150.6631 C   0  0  0  0  0  0  0  0  0  0  0  0
  145.1018  136.2441  149.6267 O   0  0  0  0  0  0  0  0  0  0  0  0
  144.5301  135.2577  153.2503 C   0  0  2  0  0  0  0  0  0  0  0  0
  143.1927  134.8612  153.0057 O   0  0  0  0  0  0  0  0  0  0  0  0
  144.5821  136.3382  154.3251 C   0  0  1  0  0  0  0  0  0  0  0  0
  145.7566  136.1804  155.1033 O   0  0  0  0  0  0  0  0  0  0  0  0
  151.8165  141.5609  158.5071 C   0  0  0  0  0  0  0  0  0  0  0  0
  152.3642  140.3583  159.2022 C   0  0  0  0  0  0  0  0  0  0  0  0
  152.1044  142.7523  159.1017 O   0  0  0  0  0  0  0  0  0  0  0  0
  143.6687  138.2663  153.6903 H   0  0  0  0  0  0  0  0  0  0  0  0
  146.2059  136.0113  152.1541 H   0  0  0  0  0  0  0  0  0  0  0  0
  145.1005  134.3675  153.5198 H   0  0  0  0  0  0  0  0  0  0  0  0
  143.7186  136.3011  154.9907 H   0  0  0  0  0  0  0  0  0  0  0  0
  151.1590  145.8204  158.1961 H   0  0  0  0  0  0  0  0  0  0  0  0
  152.7901  145.4126  158.7322 H   0  0  0  0  0  0  0  0  0  0  0  0
  151.4260  145.2348  159.8388 H   0  0  0  0  0  0  0  0  0  0  0  0
  150.3865  143.7063  156.4942 H   0  0  0  0  0  0  0  0  0  0  0  0
  152.4127  140.5171  155.2941 H   0  0  0  0  0  0  0  0  0  0  0  0
  151.3503  139.1269  155.1202 H   0  0  0  0  0  0  0  0  0  0  0  0
  152.2453  139.3704  156.6174 H   0  0  0  0  0  0  0  0  0  0  0  0
  149.7584  139.8536  157.9417 H   0  0  0  0  0  0  0  0  0  0  0  0
  150.3107  142.1723  154.8273 H   0  0  0  0  0  0  0  0  0  0  0  0
  149.5771  140.6311  154.4266 H   0  0  0  0  0  0  0  0  0  0  0  0
  148.4740  142.8350  156.0305 H   0  0  0  0  0  0  0  0  0  0  0  0
  144.4524  141.1467  157.1828 H   0  0  0  0  0  0  0  0  0  0  0  0
  147.2082  137.9774  152.3068 H   0  0  0  0  0  0  0  0  0  0  0  0
  145.3756  134.4391  150.5057 H   0  0  0  0  0  0  0  0  0  0  0  0
  143.7316  135.0544  150.6050 H   0  0  0  0  0  0  0  0  0  0  0  0
  145.4320  135.7524  148.8903 H   0  0  0  0  0  0  0  0  0  0  0  0
  143.0789  133.9794  153.3258 H   0  0  0  0  0  0  0  0  0  0  0  0
  146.5033  136.3760  154.5576 H   0  0  0  0  0  0  0  0  0  0  0  0
  152.9064  139.7210  158.5036 H   0  0  0  0  0  0  0  0  0  0  0  0
  151.5604  139.7700  159.6452 H   0  0  0  0  0  0  0  0  0  0  0  0
  153.0525  140.6416  159.9989 H   0  0  0  0  0  0  0  0  0  0  0  0
  1  2  1  0  0  0  0
  1 35  1  0  0  0  0
  1 36  1  0  0  0  0
  1 37  1  0  0  0  0
  2 30  1  0  0  0  0
  2  3  2  0  0  0  0
  3  4  1  0  0  0  0
  3 38  1  0  0  0  0
  4  5  1  0  0  0  0
  4 28  2  0  0  0  0
  5  6  1  0  0  0  0
  5  7  1  0  0  0  0
  5  8  1  0  0  0  0
  6 39  1  0  0  0  0
  6 40  1  0  0  0  0
  6 41  1  0  0  0  0
  7 42  1  0  0  0  0
  8  9  1  0  0  0  0
  8 43  1  0  0  0  0
  8 44  1  0  0  0  0
  9 10  1  0  0  0  0
  9 45  1  0  0  0  0
 10 15  1  0  0  0  0
 10 11  2  0  0  0  0
 11 12  1  0  0  0  0
 12 13  2  0  0  0  0
 12 46  1  0  0  0  0
 13 14  1  0  0  0  0
 14 18  1  0  0  0  0
 14 15  2  0  0  0  0
 15 16  1  0  0  0  0
 16 17  2  0  0  0  0
 17 18  1  0  0  0  0
 17 47  1  0  0  0  0
 18 19  1  0  0  0  0
 19 31  1  0  0  0  0
 19 26  1  0  0  0  0
 19 20  1  0  0  0  0
 20 21  1  0  0  0  0
 21 32  1  0  0  0  0
 21 22  1  0  0  0  0
 21 24  1  0  0  0  0
 22 23  1  0  0  0  0
 22 48  1  0  0  0  0
 22 49  1  0  0  0  0
 23 50  1  0  0  0  0
 24 33  1  0  0  0  0
 24 25  1  0  0  0  0
 24 26  1  0  0  0  0
 25 51  1  0  0  0  0
 26 34  1  0  0  0  0
 26 27  1  0  0  0  0
 27 52  1  0  0  0  0
 28 29  1  0  0  0  0
 28 30  1  0  0  0  0
 29 53  1  0  0  0  0
 29 54  1  0  0  0  0
 29 55  1  0  0  0  0
M  END
> <s_m_source_file>
AV-unprocessed.smi

> <i_m_source_file_index>
287

> <i_lp_mmshare_version>
43012

> <i_f3d_flags>
0

> <s_epik_input>
W0NIM11jMVtjSF1jKGMobzEpW0NIM10pW0NAQF0oW0NIM10pKFtPSF0pW0NIMl1bTkhdYyhuW2NIXW4yKWMoYzIzKW5bY0hdbjNbQ0BASF00T1tDQEhdKFtDSDJdW09IXSlbQ0BASF0oW09IXSlbQ0BIXTRbT0hd

> <s_epik_cmdline>
J2VwaWtfcHl0aG9uJywgJy1waCcsICc3LjAnLCAnLXRuJywgJzgnLCAnLW1hJywgJzIwMCcsICctbWV0YWxfYmluZGluZycsICctaW1hZScsICc8aW5maWxlLm1hZT4nLCAnLW9tYWUnLCAnPG91dGZpbGUubWFlPic=

> <r_lp_tautomer_probability>
1

> <r_epik_Ionization_Penalty>
0.000992612

> <r_epik_Ionization_Penalty_Charging>
0

> <r_epik_Ionization_Penalty_Neutral>
0.000992612

> <r_epik_State_Penalty>
-0

> <r_epik_Charging_Adjusted_Penalty>
0

> <i_epik_Tot_Q>
0

> <i_epik_Tot_abs_Q>
0

> <r_epik_Metal_State_Penalty>
-0

> <b_epik_Metal_Only>
0

> <s_epik_Chemistry_Notes>
This compound contains an acetal/aminal-like group ( X-CH(R)-Y where X, Y are N, S, or O) that may be acid/base labile, releasing an aldehyde.

> <s_lp_Force_Field>
OPLS_2005

> <r_lp_Energy>
42.7121

> <b_lp_Chiralities_Consistent>
1

> <s_lp_Variant>
AV-unprocessed.smi:287-11

> <Gold.Version>
5.8.1

> <Gold.Id.Protein>
6NUR|6NUR_protein|mol2

> <Gold.PLP.Fitness>
46.0603

> <Gold.PLP.PLP>
-39.7448

> <Gold.PLP.part.hbond>
-3.0000

> <Gold.PLP.part.metal>
0.0000

> <Gold.PLP.part.buried>
-8.0580

> <Gold.PLP.part.nonpolar>
-30.9790

> <Gold.PLP.part.repulsive>
1.9245

> <Gold.PLP.ligand.clash>
0.0000

> <Gold.PLP.ligand.torsion>
1.2234

> <Gold.PLP.Chemscore.Hbond>
1.8640

> <Gold.PLP.Chemscore.CHOScore>
1.0000

> <Gold.PLP.Chemscore.Metal>
0.0000

> <Gold.Chemscore.Hbonds>
donor molecule, donor type, donor heavy atom, donor atom, acceptor molecule, acceptor atom, score
      L1  H     9    45       P1  8028  0.93
      L1  H    23    50       P1  7921  1.00
      L1  C    17    47       P1  7948  1.00

> <Gold.PLP.Chemscore.Internal.Correction>
0.1703

> <Gold.Rescore>
     Score         DG    S(hbond)    S(metal)    S(lipo)     H(rot)  DE(clash)    DE(int)     intcor
      8.56      -9.75       1.86        0.00      98.52       5.27       0.03       1.16       ----

> <Gold.Chemscore.Fitness>
8.5567

> <Gold.Chemscore.DG>
-9.7468

> <Gold.Chemscore.ZeroCoef>
-5.4800

> <Gold.Chemscore.Hbond>
1.8633

> <Gold.Chemscore.Metal>
0.0000

> <Gold.Chemscore.Lipo>
98.5232

> <Gold.Chemscore.Internal_Hbond>
0.0000

> <Gold.Chemscore.DEClash>
0.0308

> <Gold.Chemscore.DEInternal>
1.1593

> <Gold.Chemscore.Rot>
5.2672

> <Gold.Chemscore.Internal.Correction>
   9.000000E+99

> <Gold.Chemscore.Hbonds>
donor molecule, donor type, donor heavy atom, donor atom, acceptor molecule, acceptor atom, score
      L1  H     9    45       P1  8028  0.87
      L1  H    23    50       P1  7921  1.00

> <Gold.Chemscore.Hbond.Weighted>
-6.2235

> <Gold.Chemscore.Metal.Weighted>
-0.0000

> <Gold.Chemscore.Lipo.Weighted>
-11.5272

> <Gold.Chemscore.Internal_Hbond.Weighted>
0.0000

> <Gold.Chemscore.DEClash.Weighted>
0.0308

> <Gold.Chemscore.DEInternal.Weighted>
1.1593

> <Gold.Chemscore.Rot.Weighted>
13.4839

> <Gold.Chemscore.Internal.Correction.Weighted>
   9.000000E+99

> <Gold.Protein.RotatedTorsions>
[ 6907 6896 6895 6894 ] final   66.96 input  -60.11 | X-H torsion
[ 7974 7965 7964 7962 ] final  157.36 input  175.53 | X-H torsion
[ 8008 7997 7996 7995 ] final -174.38 input   59.86 | X-H torsion
[ 10167 10162 10161 10158 ] final   61.86 input  -65.29 | X-H torsion
[ 10718 10713 10712 10709 ] final  112.07 input   66.30 | X-H torsion
[ 10763 10752 10751 10750 ] final  -23.82 input  -60.55 | X-H torsion
[ 11005 11000 10999 10996 ] final   91.66 input  -57.11 | X-H torsion

> <Gold.Protein.ActiveResidues>
 VAL166  LYS551  ARG553  GLY616  TRP617  ASP618  TYR619  PRO620  LYS621  CYS622 
 ASP623  PHE694  ASN695  SER759  ASP760  ASP761  ALA762  ILE779  LEU786  VAL792 
 PHE793  MET794  SER795  GLU796  ALA797  LYS798  CYS799  TRP800  GLU811  SER814 

> <Gold.Protein.RotatedAtoms>
  152.4518  134.5377  159.9829 H   0  0  0  0  0  0  0  0  0  0  0  0  # atno 6907 bound_to 6896
  151.5447  133.3421  159.2950 H   0  0  0  0  0  0  0  0  0  0  0  0  # atno 6908 bound_to 6896
  150.8450  134.7787  159.7026 H   0  0  0  0  0  0  0  0  0  0  0  0  # atno 6909 bound_to 6896
  144.7908  139.7330  143.6222 H   0  0  0  0  0  0  0  0  0  0  0  0  # atno 7974 bound_to 7965
  155.9694  140.1160  157.0825 H   0  0  0  0  0  0  0  0  0  0  0  0  # atno 8008 bound_to 7997
  154.4152  140.1166  156.5353 H   0  0  0  0  0  0  0  0  0  0  0  0  # atno 8009 bound_to 7997
  155.6616  140.3473  155.4787 H   0  0  0  0  0  0  0  0  0  0  0  0  # atno 8010 bound_to 7997
  140.1502  144.4470  150.6763 H   0  0  0  0  0  0  0  0  0  0  0  0  # atno 10167 bound_to 10162
  157.6412  131.0961  150.6842 H   0  0  0  0  0  0  0  0  0  0  0  0  # atno 10718 bound_to 10713
  153.6739  135.6970  153.5138 H   0  0  0  0  0  0  0  0  0  0  0  0  # atno 10763 bound_to 10752
  153.2536  135.4267  155.0822 H   0  0  0  0  0  0  0  0  0  0  0  0  # atno 10764 bound_to 10752
  154.8419  135.3537  154.6283 H   0  0  0  0  0  0  0  0  0  0  0  0  # atno 10765 bound_to 10752
  139.8835  134.8687  156.3461 H   0  0  0  0  0  0  0  0  0  0  0  0  # atno 11005 bound_to 11000
  146.2159  139.5548  142.9650 LP  0  0  0  0  0  0  0  0  0  0  0  0  # atno 17320 bound_to 7965
  145.5800  141.0384  143.2127 LP  0  0  0  0  0  0  0  0  0  0  0  0  # atno 17321 bound_to 7965
  140.6707  143.2285  151.5632 LP  0  0  0  0  0  0  0  0  0  0  0  0  # atno 17342 bound_to 10162
  139.5429  144.2598  152.1387 LP  0  0  0  0  0  0  0  0  0  0  0  0  # atno 17343 bound_to 10162
  156.7166  130.4668  149.5533 LP  0  0  0  0  0  0  0  0  0  0  0  0  # atno 17370 bound_to 10713
  156.1694  130.6427  151.0818 LP  0  0  0  0  0  0  0  0  0  0  0  0  # atno 17371 bound_to 10713
  140.9626  133.7379  156.0422 LP  0  0  0  0  0  0  0  0  0  0  0  0  # atno 17394 bound_to 11000
  140.7971  134.3552  157.5449 LP  0  0  0  0  0  0  0  0  0  0  0  0  # atno 17395 bound_to 11000

$$$$
