AV-unprocessed.smi:30|AV-procd|sdf|193|dock7
  -GOLD-   2262015463D 1   1.00000     0.00000
 Structure written by MMmdl.
 54 57  0  0  0  0  0  0  0  0  1 V2000
  150.8297  134.7384  157.1696 O   0  0  0  0  0  0  0  0  0  0  0  0
  150.5124  134.7875  155.9803 C   0  0  0  0  0  0  0  0  0  0  0  0
  150.1197  133.5082  155.2242 C   0  0  0  0  0  0  0  0  0  0  0  0
  148.6625  133.3726  155.0057 N   0  0  0  0  0  0  0  0  0  0  0  0
  147.7994  133.4885  156.1230 C   0  0  0  0  0  0  0  0  0  0  0  0
  148.2396  133.7287  157.2483 O   0  0  0  0  0  0  0  0  0  0  0  0
  146.3830  133.2853  155.8459 C   0  0  0  0  0  0  0  0  0  0  0  0
  145.4952  133.3264  156.8539 F   0  0  0  0  0  0  0  0  0  0  0  0
  145.9490  133.0371  154.5933 C   0  0  0  0  0  0  0  0  0  0  0  0
  146.7946  132.9817  153.4989 N   0  0  0  0  0  0  0  0  0  0  0  0
  146.2900  132.6010  152.1217 C   0  0  2  0  0  0  0  0  0  0  0  0
  146.4737  133.6973  151.0575 C   0  0  0  0  0  0  0  0  0  0  0  0
  145.0633  134.2288  150.8934 C   0  0  0  0  0  0  0  0  0  0  0  0
  144.2318  132.9837  151.1756 C   0  0  0  0  0  0  0  0  0  0  0  0
  144.9238  132.3350  152.2343 O   0  0  0  0  0  0  0  0  0  0  0  0
  148.1896  133.0902  153.7015 C   0  0  0  0  0  0  0  0  0  0  0  0
  148.9779  132.9411  152.7650 O   0  0  0  0  0  0  0  0  0  0  0  0
  150.5088  135.9111  155.2401 N   0  0  0  0  0  0  0  0  0  0  0  0
  150.7911  137.2424  155.6489 C   0  0  0  0  0  0  0  0  0  0  0  0
  150.6816  137.5361  157.0224 C   0  0  0  0  0  0  0  0  0  0  0  0
  150.9691  138.8283  157.5012 C   0  0  0  0  0  0  0  0  0  0  0  0
  151.3836  139.8487  156.6224 C   0  0  0  0  0  0  0  0  0  0  0  0
  151.6474  141.0833  157.1761 O   0  0  0  0  0  0  0  0  0  0  0  0
  152.0632  141.1379  158.5342 C   0  0  0  0  0  0  0  0  0  0  0  0
  152.0311  142.5582  159.0623 C   0  0  0  0  0  0  0  0  0  0  0  0
  152.2785  142.8046  160.4289 C   0  0  0  0  0  0  0  0  0  0  0  0
  152.2447  144.1212  160.9285 C   0  0  0  0  0  0  0  0  0  0  0  0
  151.9621  145.1959  160.0632 C   0  0  0  0  0  0  0  0  0  0  0  0
  151.7129  144.9534  158.6985 C   0  0  0  0  0  0  0  0  0  0  0  0
  151.7459  143.6369  158.1984 C   0  0  0  0  0  0  0  0  0  0  0  0
  151.5092  139.5491  155.2431 C   0  0  0  0  0  0  0  0  0  0  0  0
  151.2206  138.2574  154.7618 C   0  0  0  0  0  0  0  0  0  0  0  0
  150.6517  133.4867  154.2714 H   0  0  0  0  0  0  0  0  0  0  0  0
  150.5212  132.6520  155.7682 H   0  0  0  0  0  0  0  0  0  0  0  0
  144.8919  132.8690  154.4638 H   0  0  0  0  0  0  0  0  0  0  0  0
  146.8384  131.7028  151.8342 H   0  0  0  0  0  0  0  0  0  0  0  0
  147.2203  134.4444  151.3259 H   0  0  0  0  0  0  0  0  0  0  0  0
  146.7970  133.2194  150.1319 H   0  0  0  0  0  0  0  0  0  0  0  0
  144.8494  134.9973  151.6363 H   0  0  0  0  0  0  0  0  0  0  0  0
  144.8776  134.6496  149.9052 H   0  0  0  0  0  0  0  0  0  0  0  0
  143.2030  133.2157  151.4513 H   0  0  0  0  0  0  0  0  0  0  0  0
  144.2146  132.3279  150.3036 H   0  0  0  0  0  0  0  0  0  0  0  0
  150.3320  135.7893  154.2536 H   0  0  0  0  0  0  0  0  0  0  0  0
  150.3704  136.7701  157.7179 H   0  0  0  0  0  0  0  0  0  0  0  0
  150.8735  139.0375  158.5567 H   0  0  0  0  0  0  0  0  0  0  0  0
  151.4181  140.5076  159.1490 H   0  0  0  0  0  0  0  0  0  0  0  0
  153.0838  140.7644  158.6304 H   0  0  0  0  0  0  0  0  0  0  0  0
  152.4952  141.9833  161.0963 H   0  0  0  0  0  0  0  0  0  0  0  0
  152.4356  144.3066  161.9753 H   0  0  0  0  0  0  0  0  0  0  0  0
  151.9362  146.2054  160.4463 H   0  0  0  0  0  0  0  0  0  0  0  0
  151.4965  145.7772  158.0345 H   0  0  0  0  0  0  0  0  0  0  0  0
  151.5532  143.4603  157.1503 H   0  0  0  0  0  0  0  0  0  0  0  0
  151.8319  140.2930  154.5309 H   0  0  0  0  0  0  0  0  0  0  0  0
  151.3520  138.0642  153.7082 H   0  0  0  0  0  0  0  0  0  0  0  0
  1  2  2  0  0  0  0
  2  3  1  0  0  0  0
  2 18  1  0  0  0  0
  3  4  1  0  0  0  0
  3 33  1  0  0  0  0
  3 34  1  0  0  0  0
  4 16  1  0  0  0  0
  4  5  1  0  0  0  0
  5  6  2  0  0  0  0
  5  7  1  0  0  0  0
  7  8  1  0  0  0  0
  7  9  2  0  0  0  0
  9 10  1  0  0  0  0
  9 35  1  0  0  0  0
 10 11  1  0  0  0  0
 10 16  1  0  0  0  0
 11 15  1  0  0  0  0
 11 12  1  0  0  0  0
 11 36  1  0  0  0  0
 12 13  1  0  0  0  0
 12 37  1  0  0  0  0
 12 38  1  0  0  0  0
 13 14  1  0  0  0  0
 13 39  1  0  0  0  0
 13 40  1  0  0  0  0
 14 15  1  0  0  0  0
 14 41  1  0  0  0  0
 14 42  1  0  0  0  0
 16 17  2  0  0  0  0
 18 19  1  0  0  0  0
 18 43  1  0  0  0  0
 19 32  1  0  0  0  0
 19 20  2  0  0  0  0
 20 21  1  0  0  0  0
 20 44  1  0  0  0  0
 21 22  2  0  0  0  0
 21 45  1  0  0  0  0
 22 23  1  0  0  0  0
 22 31  1  0  0  0  0
 23 24  1  0  0  0  0
 24 25  1  0  0  0  0
 24 46  1  0  0  0  0
 24 47  1  0  0  0  0
 25 30  1  0  0  0  0
 25 26  2  0  0  0  0
 26 27  1  0  0  0  0
 26 48  1  0  0  0  0
 27 28  2  0  0  0  0
 27 49  1  0  0  0  0
 28 29  1  0  0  0  0
 28 50  1  0  0  0  0
 29 30  2  0  0  0  0
 29 51  1  0  0  0  0
 30 52  1  0  0  0  0
 31 32  2  0  0  0  0
 31 53  1  0  0  0  0
 32 54  1  0  0  0  0
M  END
> <s_m_source_file>
AV-unprocessed.smi

> <i_m_source_file_index>
30

> <i_lp_mmshare_version>
43012

> <i_f3d_flags>
0

> <s_epik_input>
TzFbQ0gyXVtDSDJdW0NIMl1bQ0BIXTFuKGMyPU8pW2NIXWMoRiljKD1PKW4yW0NIMl1DKD1PKVtOSF1jM1tjSF1bY0hdYyhbY0hdW2NIXTMpT1tDSDJdYzRbY0hdW2NIXVtjSF1bY0hdW2NIXTQ=

> <s_epik_cmdline>
J2VwaWtfcHl0aG9uJywgJy1waCcsICc3LjAnLCAnLXRuJywgJzgnLCAnLW1hJywgJzIwMCcsICctbWV0YWxfYmluZGluZycsICctaW1hZScsICc8aW5maWxlLm1hZT4nLCAnLW9tYWUnLCAnPG91dGZpbGUubWFlPic=

> <r_lp_tautomer_probability>
1

> <r_epik_Ionization_Penalty>
1.04818e-05

> <r_epik_Ionization_Penalty_Charging>
3.88729e-08

> <r_epik_Ionization_Penalty_Neutral>
1.04429e-05

> <r_epik_State_Penalty>
-0

> <r_epik_Charging_Adjusted_Penalty>
3.88729e-08

> <i_epik_Tot_Q>
0

> <i_epik_Tot_abs_Q>
0

> <r_epik_Metal_State_Penalty>
-0

> <b_epik_Metal_Only>
0

> <s_epik_Chemistry_Notes>
This compound contains an acetal/aminal-like group ( X-CH(R)-Y where X, Y are N, S, or O) that may be acid/base labile, releasing an aldehyde.

> <s_lp_Force_Field>
OPLS_2005

> <r_lp_Energy>
43.3432

> <b_lp_Chiralities_Consistent>
1

> <s_lp_Variant>
AV-unprocessed.smi:30-1

> <Gold.Version>
5.8.1

> <Gold.Id.Protein>
6NUR|6NUR_protein|mol2

> <Gold.PLP.Fitness>
56.4931

> <Gold.PLP.PLP>
-54.3787

> <Gold.PLP.part.hbond>
-1.0000

> <Gold.PLP.part.metal>
0.0000

> <Gold.PLP.part.buried>
-7.4862

> <Gold.PLP.part.nonpolar>
-46.3517

> <Gold.PLP.part.repulsive>
0.4542

> <Gold.PLP.ligand.clash>
0.0000

> <Gold.PLP.ligand.torsion>
0.9407

> <Gold.PLP.Chemscore.Hbond>
0.2402

> <Gold.PLP.Chemscore.CHOScore>
1.0000

> <Gold.PLP.Chemscore.Metal>
0.0000

> <Gold.Chemscore.Hbonds>
donor molecule, donor type, donor heavy atom, donor atom, acceptor molecule, acceptor atom, score
      P1  H  6896  6909       L1     1  0.18
      L1  C     9    35       P1 10957  1.00

> <Gold.PLP.Chemscore.Internal.Correction>
0.2750

> <Gold.Rescore>
     Score         DG    S(hbond)    S(metal)    S(lipo)     H(rot)  DE(clash)    DE(int)     intcor
     12.31     -17.58       0.56        0.00     135.55       2.20       0.03       5.24       ----

> <Gold.Chemscore.Fitness>
12.3106

> <Gold.Chemscore.DG>
-17.5815

> <Gold.Chemscore.ZeroCoef>
-5.4800

> <Gold.Chemscore.Hbond>
0.5574

> <Gold.Chemscore.Metal>
0.0000

> <Gold.Chemscore.Lipo>
135.5507

> <Gold.Chemscore.Internal_Hbond>
0.0000

> <Gold.Chemscore.DEClash>
0.0259

> <Gold.Chemscore.DEInternal>
5.2450

> <Gold.Chemscore.Rot>
2.1952

> <Gold.Chemscore.Internal.Correction>
   9.000000E+99

> <Gold.Chemscore.Hbonds>
donor molecule, donor type, donor heavy atom, donor atom, acceptor molecule, acceptor atom, score
      P1  H  6896  6909       L1     1  0.17

> <Gold.Chemscore.Hbond.Weighted>
-1.8617

> <Gold.Chemscore.Metal.Weighted>
-0.0000

> <Gold.Chemscore.Lipo.Weighted>
-15.8594

> <Gold.Chemscore.Internal_Hbond.Weighted>
0.0000

> <Gold.Chemscore.DEClash.Weighted>
0.0259

> <Gold.Chemscore.DEInternal.Weighted>
5.2450

> <Gold.Chemscore.Rot.Weighted>
5.6196

> <Gold.Chemscore.Internal.Correction.Weighted>
   9.000000E+99

> <Gold.Protein.RotatedTorsions>
[ 6907 6896 6895 6894 ] final   19.39 input  -60.11 | X-H torsion
[ 7974 7965 7964 7962 ] final  143.49 input  175.53 | X-H torsion
[ 8008 7997 7996 7995 ] final  159.14 input   59.86 | X-H torsion
[ 10167 10162 10161 10158 ] final -142.13 input  -65.29 | X-H torsion
[ 10718 10713 10712 10709 ] final   -4.87 input   66.30 | X-H torsion
[ 10763 10752 10751 10750 ] final -120.76 input  -60.55 | X-H torsion
[ 11005 11000 10999 10996 ] final  -95.27 input  -57.11 | X-H torsion

> <Gold.Protein.ActiveResidues>
 VAL166  LYS551  ARG553  GLY616  TRP617  ASP618  TYR619  PRO620  LYS621  CYS622 
 ASP623  PHE694  ASN695  SER759  ASP760  ASP761  ALA762  ILE779  LEU786  VAL792 
 PHE793  MET794  SER795  GLU796  ALA797  LYS798  CYS799  TRP800  GLU811  SER814 

> <Gold.Protein.RotatedAtoms>
  151.8801  135.0457  160.0487 H   0  0  0  0  0  0  0  0  0  0  0  0  # atno 6907 bound_to 6896
  152.2520  133.5218  159.5339 H   0  0  0  0  0  0  0  0  0  0  0  0  # atno 6908 bound_to 6896
  150.7087  134.0864  159.3958 H   0  0  0  0  0  0  0  0  0  0  0  0  # atno 6909 bound_to 6896
  144.8917  139.5549  143.5795 H   0  0  0  0  0  0  0  0  0  0  0  0  # atno 7974 bound_to 7965
  156.2258  140.1839  156.7366 H   0  0  0  0  0  0  0  0  0  0  0  0  # atno 8008 bound_to 7997
  154.5939  140.0646  156.9304 H   0  0  0  0  0  0  0  0  0  0  0  0  # atno 8009 bound_to 7997
  155.2289  140.3313  155.4308 H   0  0  0  0  0  0  0  0  0  0  0  0  # atno 8010 bound_to 7997
  139.8118  143.7693  152.2663 H   0  0  0  0  0  0  0  0  0  0  0  0  # atno 10167 bound_to 10162
  156.7549  130.5251  149.5796 H   0  0  0  0  0  0  0  0  0  0  0  0  # atno 10718 bound_to 10713
  154.8652  135.4192  154.2511 H   0  0  0  0  0  0  0  0  0  0  0  0  # atno 10763 bound_to 10752
  153.3457  135.6996  153.6836 H   0  0  0  0  0  0  0  0  0  0  0  0  # atno 10764 bound_to 10752
  153.5796  135.3575  155.2842 H   0  0  0  0  0  0  0  0  0  0  0  0  # atno 10765 bound_to 10752
  141.1446  133.8014  157.0413 H   0  0  0  0  0  0  0  0  0  0  0  0  # atno 11005 bound_to 11000
  146.3057  139.7573  142.9058 LP  0  0  0  0  0  0  0  0  0  0  0  0  # atno 17320 bound_to 7965
  145.3772  141.0352  143.3198 LP  0  0  0  0  0  0  0  0  0  0  0  0  # atno 17321 bound_to 7965
  139.7844  144.7433  151.0043 LP  0  0  0  0  0  0  0  0  0  0  0  0  # atno 17342 bound_to 10162
  140.7817  143.4508  151.0416 LP  0  0  0  0  0  0  0  0  0  0  0  0  # atno 17343 bound_to 10162
  156.1377  130.6222  151.0423 LP  0  0  0  0  0  0  0  0  0  0  0  0  # atno 17370 bound_to 10713
  157.6760  131.0850  150.7492 LP  0  0  0  0  0  0  0  0  0  0  0  0  # atno 17371 bound_to 10713
  140.0691  134.9712  157.1437 LP  0  0  0  0  0  0  0  0  0  0  0  0  # atno 17394 bound_to 11000
  140.3737  134.2363  155.7176 LP  0  0  0  0  0  0  0  0  0  0  0  0  # atno 17395 bound_to 11000

$$$$
