AV-unprocessed.smi:278|AV-procd|sdf|2090|dock3
  -GOLD-   2262021363D 1   1.00000     0.00000
 Structure written by MMmdl.
 50 54  0  0  0  0  0  0  0  0  1 V2000
  150.1507  143.6801  160.3132 O   0  0  0  0  0  0  0  0  0  0  0  0
  151.4309  144.4016  160.3815 S   0  0  0  0  0  0  0  0  0  0  0  0
  151.5074  145.8424  160.0972 O   0  0  0  0  0  0  0  0  0  0  0  0
  152.2352  144.0366  161.9763 C   0  0  0  0  0  0  0  0  0  0  0  0
  152.8207  142.6267  161.8102 C   0  0  0  0  0  0  0  0  0  0  0  0
  153.2113  142.3811  160.3287 C   0  0  1  0  0  0  0  0  0  0  0  0
  152.5989  141.1151  159.7203 C   0  0  0  0  0  0  0  0  0  0  0  0
  152.4725  141.3977  158.2996 N   0  0  0  0  0  0  0  0  0  0  0  0
  151.6831  140.5472  157.6100 C   0  0  0  0  0  0  0  0  0  0  0  0
  151.7837  139.2317  157.9195 N   0  0  0  0  0  0  0  0  0  0  0  0
  151.0363  138.3335  157.2706 C   0  0  0  0  0  0  0  0  0  0  0  0
  150.1445  138.5351  156.2979 N   0  0  0  0  0  0  0  0  0  0  0  0
  150.0410  139.8589  155.9860 C   0  0  0  0  0  0  0  0  0  0  0  0
  150.7667  140.9251  156.5873 C   0  0  0  0  0  0  0  0  0  0  0  0
  150.3977  142.1336  156.0082 N   0  0  0  0  0  0  0  0  0  0  0  0
  149.5067  141.8013  155.1147 C   0  0  0  0  0  0  0  0  0  0  0  0
  149.2341  140.4547  155.0330 N   0  0  0  0  0  0  0  0  0  0  0  0
  148.2967  139.8130  154.1284 C   0  0  0  0  0  0  0  0  0  0  0  0
  146.8433  139.8988  154.6333 C   0  0  1  0  0  0  0  0  0  0  0  0
  146.6238  138.9761  155.6838 O   0  0  0  0  0  0  0  0  0  0  0  0
  146.4454  141.3248  155.0673 C   0  0  1  0  0  0  0  0  0  0  0  0
  146.4038  142.3884  153.9651 C   0  0  0  0  0  0  0  0  0  0  0  0
  145.4304  143.3871  154.5507 C   0  0  0  0  0  0  0  0  0  0  0  0
  144.4185  142.4682  155.2295 C   0  0  0  0  0  0  0  0  0  0  0  0
  145.1687  141.3536  155.7028 O   0  0  0  0  0  0  0  0  0  0  0  0
  152.1345  142.8076  158.1605 C   0  0  0  0  0  0  0  0  0  0  0  0
  152.6940  143.4993  159.4114 C   0  0  1  0  0  0  0  0  0  0  0  0
  154.2970  142.3330  160.2316 H   0  0  0  0  0  0  0  0  0  0  0  0
  153.4966  144.1958  159.1667 H   0  0  0  0  0  0  0  0  0  0  0  0
  153.0284  144.7689  162.1278 H   0  0  0  0  0  0  0  0  0  0  0  0
  151.5176  144.1168  162.7928 H   0  0  0  0  0  0  0  0  0  0  0  0
  153.6729  142.4773  162.4734 H   0  0  0  0  0  0  0  0  0  0  0  0
  152.0652  141.9034  162.1184 H   0  0  0  0  0  0  0  0  0  0  0  0
  153.2297  140.2426  159.8926 H   0  0  0  0  0  0  0  0  0  0  0  0
  151.6194  140.9113  160.1534 H   0  0  0  0  0  0  0  0  0  0  0  0
  151.1732  137.3056  157.5725 H   0  0  0  0  0  0  0  0  0  0  0  0
  149.0236  142.5334  154.4840 H   0  0  0  0  0  0  0  0  0  0  0  0
  148.3903  140.2734  153.1441 H   0  0  0  0  0  0  0  0  0  0  0  0
  148.5943  138.7701  154.0130 H   0  0  0  0  0  0  0  0  0  0  0  0
  146.1796  139.6015  153.8203 H   0  0  0  0  0  0  0  0  0  0  0  0
  146.8213  139.4029  156.5034 H   0  0  0  0  0  0  0  0  0  0  0  0
  147.1567  141.6612  155.8232 H   0  0  0  0  0  0  0  0  0  0  0  0
  147.3827  142.8183  153.7523 H   0  0  0  0  0  0  0  0  0  0  0  0
  145.9981  141.9908  153.0342 H   0  0  0  0  0  0  0  0  0  0  0  0
  145.9311  144.0108  155.2925 H   0  0  0  0  0  0  0  0  0  0  0  0
  144.9801  144.0386  153.8013 H   0  0  0  0  0  0  0  0  0  0  0  0
  143.8792  142.9612  156.0386 H   0  0  0  0  0  0  0  0  0  0  0  0
  143.6870  142.1095  154.5043 H   0  0  0  0  0  0  0  0  0  0  0  0
  152.6041  143.2057  157.2606 H   0  0  0  0  0  0  0  0  0  0  0  0
  151.0603  142.9624  158.0598 H   0  0  0  0  0  0  0  0  0  0  0  0
  1  2  2  0  0  0  0
  2 27  1  0  0  0  0
  2  3  2  0  0  0  0
  2  4  1  0  0  0  0
  4  5  1  0  0  0  0
  4 30  1  0  0  0  0
  4 31  1  0  0  0  0
  5  6  1  0  0  0  0
  5 32  1  0  0  0  0
  5 33  1  0  0  0  0
  6 28  1  0  0  0  0
  6 27  1  0  0  0  0
  6  7  1  0  0  0  0
  7  8  1  0  0  0  0
  7 34  1  0  0  0  0
  7 35  1  0  0  0  0
  8  9  1  0  0  0  0
  8 26  1  0  0  0  0
  9 14  1  0  0  0  0
  9 10  2  0  0  0  0
 10 11  1  0  0  0  0
 11 12  2  0  0  0  0
 11 36  1  0  0  0  0
 12 13  1  0  0  0  0
 13 17  1  0  0  0  0
 13 14  2  0  0  0  0
 14 15  1  0  0  0  0
 15 16  2  0  0  0  0
 16 17  1  0  0  0  0
 16 37  1  0  0  0  0
 17 18  1  0  0  0  0
 18 19  1  0  0  0  0
 18 38  1  0  0  0  0
 18 39  1  0  0  0  0
 19 20  1  0  0  0  0
 19 21  1  0  0  0  0
 19 40  1  0  0  0  0
 20 41  1  0  0  0  0
 21 25  1  0  0  0  0
 21 22  1  0  0  0  0
 21 42  1  0  0  0  0
 22 23  1  0  0  0  0
 22 43  1  0  0  0  0
 22 44  1  0  0  0  0
 23 24  1  0  0  0  0
 23 45  1  0  0  0  0
 23 46  1  0  0  0  0
 24 25  1  0  0  0  0
 24 47  1  0  0  0  0
 24 48  1  0  0  0  0
 26 27  1  0  0  0  0
 26 49  1  0  0  0  0
 26 50  1  0  0  0  0
 27 29  1  0  0  0  0
M  END
> <s_m_source_file>
AV-unprocessed.smi

> <i_m_source_file_index>
278

> <i_lp_mmshare_version>
43012

> <i_f3d_flags>
0

> <s_epik_input>
W0NIMl0xW0NIMl1TKD1PKSg9TylbQ0BASF0oW0NAQEhdMTIpW0NIMl1OKFtDSDJdMiljKG5bY0hdbjMpYyhjMzQpbltjSF1uNFtDSDJdW0NASF0oW09IXSlbQ0BASF01W0NIMl1bQ0gyXVtDSDJdTzU=

> <s_epik_cmdline>
J2VwaWtfcHl0aG9uJywgJy1waCcsICc3LjAnLCAnLXRuJywgJzgnLCAnLW1hJywgJzIwMCcsICctbWV0YWxfYmluZGluZycsICctaW1hZScsICc8aW5maWxlLm1hZT4nLCAnLW9tYWUnLCAnPG91dGZpbGUubWFlPic=

> <r_lp_tautomer_probability>
1

> <r_epik_Ionization_Penalty>
0.000636766

> <r_epik_Ionization_Penalty_Charging>
0

> <r_epik_Ionization_Penalty_Neutral>
0.000636766

> <r_epik_State_Penalty>
0.000329976

> <r_epik_Charging_Adjusted_Penalty>
0.000329976

> <i_epik_Tot_Q>
0

> <i_epik_Tot_abs_Q>
0

> <r_epik_Metal_State_Penalty>
-0

> <b_epik_Metal_Only>
0

> <s_lp_Force_Field>
OPLS_2005

> <r_lp_Energy>
54.1016

> <b_lp_Chiralities_Consistent>
1

> <s_lp_Variant>
AV-unprocessed.smi:278-4

> <Gold.Version>
5.8.1

> <Gold.Id.Protein>
6NUR|6NUR_protein|mol2

> <Gold.PLP.Fitness>
46.9969

> <Gold.PLP.PLP>
-47.1125

> <Gold.PLP.part.hbond>
-2.4017

> <Gold.PLP.part.metal>
0.0000

> <Gold.PLP.part.buried>
-4.8024

> <Gold.PLP.part.nonpolar>
-40.4572

> <Gold.PLP.part.repulsive>
1.0854

> <Gold.PLP.ligand.clash>
0.0000

> <Gold.PLP.ligand.torsion>
0.9085

> <Gold.PLP.Chemscore.Hbond>
0.0000

> <Gold.PLP.Chemscore.CHOScore>
0.5414

> <Gold.PLP.Chemscore.Metal>
0.0000

> <Gold.Chemscore.Hbonds>
donor molecule, donor type, donor heavy atom, donor atom, acceptor molecule, acceptor atom, score
      P1  H  6933  6944       L1     1  0.01
      L1  C    16    37       P1  8028  0.63

> <Gold.PLP.Chemscore.Internal.Correction>
0.0771

> <Gold.Rescore>
     Score         DG    S(hbond)    S(metal)    S(lipo)     H(rot)  DE(clash)    DE(int)     intcor
      8.92     -11.39       0.01        0.00     104.26       2.46       0.22       2.25       ----

> <Gold.Chemscore.Fitness>
8.9202

> <Gold.Chemscore.DG>
-11.3906

> <Gold.Chemscore.ZeroCoef>
-5.4800

> <Gold.Chemscore.Hbond>
0.0058

> <Gold.Chemscore.Metal>
0.0000

> <Gold.Chemscore.Lipo>
104.2560

> <Gold.Chemscore.Internal_Hbond>
0.0000

> <Gold.Chemscore.DEClash>
0.2240

> <Gold.Chemscore.DEInternal>
2.2464

> <Gold.Chemscore.Rot>
2.4636

> <Gold.Chemscore.Internal.Correction>
   9.000000E+99

> <Gold.Chemscore.Hbonds>
donor molecule, donor type, donor heavy atom, donor atom, acceptor molecule, acceptor atom, score
      P1  H  6933  6944       L1     1  0.02

> <Gold.Chemscore.Hbond.Weighted>
-0.0194

> <Gold.Chemscore.Metal.Weighted>
-0.0000

> <Gold.Chemscore.Lipo.Weighted>
-12.1979

> <Gold.Chemscore.Internal_Hbond.Weighted>
0.0000

> <Gold.Chemscore.DEClash.Weighted>
0.2240

> <Gold.Chemscore.DEInternal.Weighted>
2.2464

> <Gold.Chemscore.Rot.Weighted>
6.3068

> <Gold.Chemscore.Internal.Correction.Weighted>
   9.000000E+99

> <Gold.Protein.RotatedTorsions>
[ 6907 6896 6895 6894 ] final   86.17 input  -60.11 | X-H torsion
[ 7974 7965 7964 7962 ] final  109.33 input  175.53 | X-H torsion
[ 8008 7997 7996 7995 ] final   18.78 input   59.86 | X-H torsion
[ 10167 10162 10161 10158 ] final  -71.84 input  -65.29 | X-H torsion
[ 10718 10713 10712 10709 ] final   72.33 input   66.30 | X-H torsion
[ 10763 10752 10751 10750 ] final  128.16 input  -60.55 | X-H torsion
[ 11005 11000 10999 10996 ] final -119.19 input  -57.11 | X-H torsion

> <Gold.Protein.ActiveResidues>
 VAL166  LYS551  ARG553  GLY616  TRP617  ASP618  TYR619  PRO620  LYS621  CYS622 
 ASP623  PHE694  ASN695  SER759  ASP760  ASP761  ALA762  ILE779  LEU786  VAL792 
 PHE793  MET794  SER795  GLU796  ALA797  LYS798  CYS799  TRP800  GLU811  SER814 

> <Gold.Protein.RotatedAtoms>
  152.5389  134.2472  159.8884 H   0  0  0  0  0  0  0  0  0  0  0  0  # atno 6907 bound_to 6896
  151.2437  133.4379  159.2616 H   0  0  0  0  0  0  0  0  0  0  0  0  # atno 6908 bound_to 6896
  151.0603  134.9746  159.8313 H   0  0  0  0  0  0  0  0  0  0  0  0  # atno 6909 bound_to 6896
  145.2692  139.2673  143.3975 H   0  0  0  0  0  0  0  0  0  0  0  0  # atno 7974 bound_to 7965
  154.9111  140.3014  155.5266 H   0  0  0  0  0  0  0  0  0  0  0  0  # atno 8008 bound_to 7997
  156.3015  140.2389  156.4085 H   0  0  0  0  0  0  0  0  0  0  0  0  # atno 8009 bound_to 7997
  154.8425  140.0413  157.1539 H   0  0  0  0  0  0  0  0  0  0  0  0  # atno 8010 bound_to 7997
  140.5240  143.2328  151.7379 H   0  0  0  0  0  0  0  0  0  0  0  0  # atno 10167 bound_to 10162
  157.6495  130.9573  150.0913 H   0  0  0  0  0  0  0  0  0  0  0  0  # atno 10718 bound_to 10713
  153.7211  135.3253  155.3266 H   0  0  0  0  0  0  0  0  0  0  0  0  # atno 10763 bound_to 10752
  154.8356  135.4499  154.1217 H   0  0  0  0  0  0  0  0  0  0  0  0  # atno 10764 bound_to 10752
  153.2337  135.6963  153.7940 H   0  0  0  0  0  0  0  0  0  0  0  0  # atno 10765 bound_to 10752
  141.0233  134.0092  157.3251 H   0  0  0  0  0  0  0  0  0  0  0  0  # atno 11005 bound_to 11000
  146.3252  140.3129  142.8628 LP  0  0  0  0  0  0  0  0  0  0  0  0  # atno 17320 bound_to 7965
  144.9350  140.8017  143.5665 LP  0  0  0  0  0  0  0  0  0  0  0  0  # atno 17321 bound_to 7965
  139.4932  144.4213  151.9975 LP  0  0  0  0  0  0  0  0  0  0  0  0  # atno 17342 bound_to 10162
  140.3311  144.3315  150.5987 LP  0  0  0  0  0  0  0  0  0  0  0  0  # atno 17343 bound_to 10162
  156.1861  130.3652  149.8970 LP  0  0  0  0  0  0  0  0  0  0  0  0  # atno 17370 bound_to 10713
  156.6910  130.8896  151.3588 LP  0  0  0  0  0  0  0  0  0  0  0  0  # atno 17371 bound_to 10713
  139.9160  135.0196  156.7881 LP  0  0  0  0  0  0  0  0  0  0  0  0  # atno 17394 bound_to 11000
  140.6535  133.9709  155.7767 LP  0  0  0  0  0  0  0  0  0  0  0  0  # atno 17395 bound_to 11000

$$$$
