AV-unprocessed.smi:1080|AV-procd|sdf|4707|dock2
  -GOLD-   22720 3233D 1   1.00000     0.00000
 Structure written by MMmdl.
 48 50  0  0  0  0  0  0  0  0  1 V2000
  144.6722  136.9124  151.7786 O   0  0  0  0  0  0  0  0  0  0  0  0
  145.8594  136.6032  151.8782 C   0  0  0  0  0  0  0  0  0  0  0  0
  146.3997  135.4448  151.4598 N   0  0  0  0  0  0  0  0  0  0  0  0
  145.7783  134.3663  150.7727 C   0  0  0  0  0  0  0  0  0  0  0  0
  146.5905  133.2793  150.3883 C   0  0  0  0  0  0  0  0  0  0  0  0
  146.0033  132.2061  149.6888 C   0  0  0  0  0  0  0  0  0  0  0  0
  144.6964  132.1644  149.3550 N   0  0  0  0  0  0  0  0  0  0  0  0
  143.9231  133.2116  149.7115 C   0  0  0  0  0  0  0  0  0  0  0  0
  144.4092  134.3332  150.4130 C   0  0  0  0  0  0  0  0  0  0  0  0
  146.7873  137.3881  152.4455 N   0  0  0  0  0  0  0  0  0  0  0  0
  146.5625  138.7188  153.0042 C   0  0  2  0  0  0  0  0  0  0  0  0
  147.4227  139.7463  152.2477 C   0  0  0  0  0  0  0  0  0  0  0  0
  147.3315  141.1525  152.8753 C   0  0  0  0  0  0  0  0  0  0  0  0
  147.5910  141.1906  154.4035 C   0  0  2  0  0  0  0  0  0  0  0  0
  149.0888  141.0885  154.7867 C   0  0  0  0  0  0  0  0  0  0  0  0
  149.9255  141.0086  153.8868 O   0  0  0  0  0  0  0  0  0  0  0  0
  149.4575  141.1232  156.0935 N   0  0  0  0  0  0  0  0  0  0  0  0
  150.8633  141.2191  156.5078 C   0  0  0  0  0  0  0  0  0  0  0  0
  151.1715  142.6761  156.8935 C   0  0  0  0  0  0  0  0  0  0  0  0
  150.1590  143.2082  158.3104 S   0  0  0  0  0  0  0  0  0  0  0  0
  148.5162  142.6790  157.7313 C   0  0  0  0  0  0  0  0  0  0  0  0
  148.5513  141.2211  157.2448 C   0  0  0  0  0  0  0  0  0  0  0  0
  146.7364  140.1177  155.1167 C   0  0  0  0  0  0  0  0  0  0  0  0
  146.9008  138.7159  154.5052 C   0  0  0  0  0  0  0  0  0  0  0  0
  147.3718  135.3030  151.6913 H   0  0  0  0  0  0  0  0  0  0  0  0
  147.6440  133.2611  150.6265 H   0  0  0  0  0  0  0  0  0  0  0  0
  146.6014  131.3591  149.3867 H   0  0  0  0  0  0  0  0  0  0  0  0
  142.8838  133.1579  149.4228 H   0  0  0  0  0  0  0  0  0  0  0  0
  143.7316  135.1399  150.6451 H   0  0  0  0  0  0  0  0  0  0  0  0
  147.7345  137.0412  152.4865 H   0  0  0  0  0  0  0  0  0  0  0  0
  145.5158  139.0079  152.8931 H   0  0  0  0  0  0  0  0  0  0  0  0
  148.4591  139.4110  152.2216 H   0  0  0  0  0  0  0  0  0  0  0  0
  147.1036  139.7964  151.2061 H   0  0  0  0  0  0  0  0  0  0  0  0
  148.0156  141.8276  152.3596 H   0  0  0  0  0  0  0  0  0  0  0  0
  146.3328  141.5481  152.6858 H   0  0  0  0  0  0  0  0  0  0  0  0
  147.2397  142.1732  154.7148 H   0  0  0  0  0  0  0  0  0  0  0  0
  151.0551  140.5575  157.3536 H   0  0  0  0  0  0  0  0  0  0  0  0
  151.5506  140.8911  155.7267 H   0  0  0  0  0  0  0  0  0  0  0  0
  152.2240  142.7869  157.1544 H   0  0  0  0  0  0  0  0  0  0  0  0
  150.9798  143.3405  156.0500 H   0  0  0  0  0  0  0  0  0  0  0  0
  147.8046  142.7905  158.5496 H   0  0  0  0  0  0  0  0  0  0  0  0
  148.1895  143.3428  156.9301 H   0  0  0  0  0  0  0  0  0  0  0  0
  147.5458  140.8653  157.0271 H   0  0  0  0  0  0  0  0  0  0  0  0
  148.9017  140.5725  158.0490 H   0  0  0  0  0  0  0  0  0  0  0  0
  146.9794  140.0778  156.1790 H   0  0  0  0  0  0  0  0  0  0  0  0
  145.6863  140.4077  155.0640 H   0  0  0  0  0  0  0  0  0  0  0  0
  146.2515  138.0134  155.0291 H   0  0  0  0  0  0  0  0  0  0  0  0
  147.9213  138.3626  154.6590 H   0  0  0  0  0  0  0  0  0  0  0  0
  1  2  2  0  0  0  0
  2  3  1  0  0  0  0
  2 10  1  0  0  0  0
  3  4  1  0  0  0  0
  3 25  1  0  0  0  0
  4  9  1  0  0  0  0
  4  5  2  0  0  0  0
  5  6  1  0  0  0  0
  5 26  1  0  0  0  0
  6  7  2  0  0  0  0
  6 27  1  0  0  0  0
  7  8  1  0  0  0  0
  8  9  2  0  0  0  0
  8 28  1  0  0  0  0
  9 29  1  0  0  0  0
 10 11  1  0  0  0  0
 10 30  1  0  0  0  0
 11 24  1  0  0  0  0
 11 12  1  0  0  0  0
 11 31  1  0  0  0  0
 12 13  1  0  0  0  0
 12 32  1  0  0  0  0
 12 33  1  0  0  0  0
 13 14  1  0  0  0  0
 13 34  1  0  0  0  0
 13 35  1  0  0  0  0
 14 15  1  0  0  0  0
 14 23  1  0  0  0  0
 14 36  1  0  0  0  0
 15 16  2  0  0  0  0
 15 17  1  0  0  0  0
 17 22  1  0  0  0  0
 17 18  1  0  0  0  0
 18 19  1  0  0  0  0
 18 37  1  0  0  0  0
 18 38  1  0  0  0  0
 19 20  1  0  0  0  0
 19 39  1  0  0  0  0
 19 40  1  0  0  0  0
 20 21  1  0  0  0  0
 21 22  1  0  0  0  0
 21 41  1  0  0  0  0
 21 42  1  0  0  0  0
 22 43  1  0  0  0  0
 22 44  1  0  0  0  0
 23 24  1  0  0  0  0
 23 45  1  0  0  0  0
 23 46  1  0  0  0  0
 24 47  1  0  0  0  0
 24 48  1  0  0  0  0
M  END
> <s_m_source_file>
AV-unprocessed.smi

> <i_m_source_file_index>
1080

> <i_lp_mmshare_version>
43012

> <i_f3d_flags>
0

> <s_epik_input>
W2NIXTFbY0hdbltjSF1bY0hdYzFbTkhdQyg9TylbTkhdW0NAQEhdMltDSDJdW0NIMl1bQ0BIXShbQ0gyXVtDSDJdMilDKD1PKU4zW0NIMl1bQ0gyXVNbQ0gyXVtDSDJdMw==

> <s_epik_cmdline>
J2VwaWtfcHl0aG9uJywgJy1waCcsICc3LjAnLCAnLXRuJywgJzgnLCAnLW1hJywgJzIwMCcsICctbWV0YWxfYmluZGluZycsICctaW1hZScsICc8aW5maWxlLm1hZT4nLCAnLW9tYWUnLCAnPG91dGZpbGUubWFlPic=

> <r_epik_Ionization_Penalty>
0.118325

> <r_epik_Ionization_Penalty_Charging>
0

> <r_epik_Ionization_Penalty_Neutral>
0.118325

> <r_epik_State_Penalty>
0.107868

> <r_epik_Charging_Adjusted_Penalty>
0.107868

> <i_epik_Tot_Q>
0

> <i_epik_Tot_abs_Q>
0

> <r_epik_Metal_State_Penalty>
0.0897632

> <b_epik_Metal_Only>
0

> <s_lp_Force_Field>
OPLS_2005

> <r_lp_Energy>
32.5604

> <b_lp_Chiralities_Consistent>
1

> <s_lp_Variant>
AV-unprocessed.smi:1080-2

> <Gold.Version>
5.8.1

> <Gold.Id.Protein>
6NUR|6NUR_protein|mol2

> <Gold.PLP.Fitness>
53.1341

> <Gold.PLP.PLP>
-38.0221

> <Gold.PLP.part.hbond>
-4.4834

> <Gold.PLP.part.metal>
0.0000

> <Gold.PLP.part.buried>
-3.2179

> <Gold.PLP.part.nonpolar>
-31.9047

> <Gold.PLP.part.repulsive>
1.9361

> <Gold.PLP.ligand.clash>
0.0000

> <Gold.PLP.ligand.torsion>
0.0530

> <Gold.PLP.Chemscore.Hbond>
3.1729

> <Gold.PLP.Chemscore.CHOScore>
1.8756

> <Gold.PLP.Chemscore.Metal>
0.0000

> <Gold.Chemscore.Hbonds>
donor molecule, donor type, donor heavy atom, donor atom, acceptor molecule, acceptor atom, score
      L1  H     3    25       P1  7948  0.83
      L1  H    10    30       P1  7948  1.00
      P1  H  7989  7998       L1    16  0.42
      P1  H  8011  8017       L1    16  0.72
      L1  C     6    27       P1 10747  0.84
      L1  C     8    28       P1 10186  1.00

> <Gold.PLP.Chemscore.Internal.Correction>
0.0724

> <Gold.Rescore>
     Score         DG    S(hbond)    S(metal)    S(lipo)     H(rot)  DE(clash)    DE(int)     intcor
     20.40     -23.24       2.97        0.00      94.09       1.23       0.59       2.25       ----

> <Gold.Chemscore.Fitness>
20.4049

> <Gold.Chemscore.DG>
-23.2358

> <Gold.Chemscore.ZeroCoef>
-5.4800

> <Gold.Chemscore.Hbond>
2.9662

> <Gold.Chemscore.Metal>
0.0000

> <Gold.Chemscore.Lipo>
94.0926

> <Gold.Chemscore.Internal_Hbond>
0.0000

> <Gold.Chemscore.DEClash>
0.5851

> <Gold.Chemscore.DEInternal>
2.2458

> <Gold.Chemscore.Rot>
1.2344

> <Gold.Chemscore.Internal.Correction>
   9.000000E+99

> <Gold.Chemscore.Hbonds>
donor molecule, donor type, donor heavy atom, donor atom, acceptor molecule, acceptor atom, score
      L1  H     3    25       P1  7948  0.80
      L1  H    10    30       P1  7948  0.93
      P1  H  7989  7998       L1    16  0.42
      P1  H  8011  8017       L1    16  0.67

> <Gold.Chemscore.Hbond.Weighted>
-9.9069

> <Gold.Chemscore.Metal.Weighted>
-0.0000

> <Gold.Chemscore.Lipo.Weighted>
-11.0088

> <Gold.Chemscore.Internal_Hbond.Weighted>
0.0000

> <Gold.Chemscore.DEClash.Weighted>
0.5851

> <Gold.Chemscore.DEInternal.Weighted>
2.2458

> <Gold.Chemscore.Rot.Weighted>
3.1600

> <Gold.Chemscore.Internal.Correction.Weighted>
   9.000000E+99

> <Gold.Protein.RotatedTorsions>
[ 6907 6896 6895 6894 ] final -131.56 input  -60.11 | X-H torsion
[ 7974 7965 7964 7962 ] final  -45.40 input  175.53 | X-H torsion
[ 8008 7997 7996 7995 ] final   -7.70 input   59.86 | X-H torsion
[ 10167 10162 10161 10158 ] final   95.11 input  -65.29 | X-H torsion
[ 10718 10713 10712 10709 ] final   36.73 input   66.30 | X-H torsion
[ 10763 10752 10751 10750 ] final   47.30 input  -60.55 | X-H torsion
[ 11005 11000 10999 10996 ] final  169.94 input  -57.11 | X-H torsion

> <Gold.Protein.ActiveResidues>
 VAL166  LYS551  ARG553  GLY616  TRP617  ASP618  TYR619  PRO620  LYS621  CYS622 
 ASP623  PHE694  ASN695  SER759  ASP760  ASP761  ALA762  ILE779  LEU786  VAL792 
 PHE793  MET794  SER795  GLU796  ALA797  LYS798  CYS799  TRP800  GLU811  SER814 

> <Gold.Protein.RotatedAtoms>
  150.9523  133.6535  159.2769 H   0  0  0  0  0  0  0  0  0  0  0  0  # atno 6907 bound_to 6896
  151.3887  135.0951  159.9529 H   0  0  0  0  0  0  0  0  0  0  0  0  # atno 6908 bound_to 6896
  152.5115  133.9042  159.7511 H   0  0  0  0  0  0  0  0  0  0  0  0  # atno 6909 bound_to 6896
  145.9824  140.7269  142.9357 H   0  0  0  0  0  0  0  0  0  0  0  0  # atno 7974 bound_to 7965
  154.5813  140.2400  155.8050 H   0  0  0  0  0  0  0  0  0  0  0  0  # atno 8008 bound_to 7997
  156.2181  140.3006  155.9843 H   0  0  0  0  0  0  0  0  0  0  0  0  # atno 8009 bound_to 7997
  155.2536  140.0411  157.2980 H   0  0  0  0  0  0  0  0  0  0  0  0  # atno 8010 bound_to 7997
  139.8020  144.6810  150.9753 H   0  0  0  0  0  0  0  0  0  0  0  0  # atno 10167 bound_to 10162
  157.3384  130.7534  149.6894 H   0  0  0  0  0  0  0  0  0  0  0  0  # atno 10718 bound_to 10713
  152.9801  135.5981  154.3740 H   0  0  0  0  0  0  0  0  0  0  0  0  # atno 10763 bound_to 10752
  154.3411  135.2767  155.2424 H   0  0  0  0  0  0  0  0  0  0  0  0  # atno 10764 bound_to 10752
  154.4505  135.5991  153.6244 H   0  0  0  0  0  0  0  0  0  0  0  0  # atno 10765 bound_to 10752
  140.3030  134.7579  157.3931 H   0  0  0  0  0  0  0  0  0  0  0  0  # atno 11005 bound_to 11000
  144.6865  140.2931  143.7275 LP  0  0  0  0  0  0  0  0  0  0  0  0  # atno 17320 bound_to 7965
  145.7750  139.1871  143.2190 LP  0  0  0  0  0  0  0  0  0  0  0  0  # atno 17321 bound_to 7965
  140.7820  143.4272  151.0750 LP  0  0  0  0  0  0  0  0  0  0  0  0  # atno 17342 bound_to 10162
  139.7943  143.8173  152.3155 LP  0  0  0  0  0  0  0  0  0  0  0  0  # atno 17343 bound_to 10162
  155.9704  130.4175  150.4282 LP  0  0  0  0  0  0  0  0  0  0  0  0  # atno 17370 bound_to 10713
  157.2325  131.0507  151.2484 LP  0  0  0  0  0  0  0  0  0  0  0  0  # atno 17371 bound_to 10713
  140.1092  134.5369  155.8282 LP  0  0  0  0  0  0  0  0  0  0  0  0  # atno 17394 bound_to 11000
  141.2124  133.6719  156.6656 LP  0  0  0  0  0  0  0  0  0  0  0  0  # atno 17395 bound_to 11000

$$$$
