AV-unprocessed.smi:64|AV-procd|sdf|610|dock9
  -GOLD-   2262016503D 1   1.00000     0.00000
 Structure written by MMmdl.
 31 32  0  0  0  0  0  0  0  0  2 V2000
  143.6556  146.0364  153.7938 C   0  0  0  0  0  0  0  0  0  0  0  0
  144.6891  145.0403  153.2827 C   0  0  0  0  0  0  0  0  0  0  0  0
  145.0907  145.0744  152.1194 O   0  0  0  0  0  0  0  0  0  0  0  0
  145.0771  144.1675  154.2259 O   0  0  0  0  0  0  0  0  0  0  0  0
  146.0988  143.2279  153.9325 C   0  0  0  0  0  0  0  0  0  0  0  0
  146.5735  142.5614  155.2272 C   0  0  0  0  0  0  0  0  0  0  0  0
  147.0724  141.2686  154.9268 O   0  0  0  0  0  0  0  0  0  0  0  0
  148.2458  141.3038  154.1858 C   0  0  0  0  0  0  0  0  0  0  0  0
  149.3511  141.0858  155.0971 N   0  0  0  0  0  0  0  0  0  0  0  0
  149.7321  141.8777  156.1181 C   0  0  0  0  0  0  0  0  0  0  0  0
  150.7901  141.4514  156.8069 N   0  0  0  0  0  0  0  0  0  0  0  0
  151.1054  140.2664  156.1510 C   0  0  0  0  0  0  0  0  0  0  0  0
  152.1752  139.2651  156.3812 C   0  0  0  0  0  0  0  0  0  0  0  0
  152.9723  139.4411  157.3009 O   0  0  0  0  0  0  0  0  0  0  0  0
  152.1795  138.2012  155.5210 N   0  5  0  0  0  0  0  0  0  0  0  0
  151.2170  138.1044  154.5060 C   0  0  0  0  0  0  0  0  0  0  0  0
  151.3659  136.9714  153.7361 N   0  0  0  0  0  0  0  0  0  0  0  0
  150.2487  138.9482  154.2442 N   0  0  0  0  0  0  0  0  0  0  0  0
  150.2467  140.0236  155.1132 C   0  0  0  0  0  0  0  0  0  0  0  0
  143.3990  145.8343  154.8341 H   0  0  0  0  0  0  0  0  0  0  0  0
  142.7460  145.9731  153.1965 H   0  0  0  0  0  0  0  0  0  0  0  0
  144.0445  147.0523  153.7244 H   0  0  0  0  0  0  0  0  0  0  0  0
  145.7427  142.4774  153.2253 H   0  0  0  0  0  0  0  0  0  0  0  0
  146.9334  143.7510  153.4635 H   0  0  0  0  0  0  0  0  0  0  0  0
  147.3717  143.1608  155.6671 H   0  0  0  0  0  0  0  0  0  0  0  0
  145.7619  142.5114  155.9548 H   0  0  0  0  0  0  0  0  0  0  0  0
  148.2530  140.5183  153.4282 H   0  0  0  0  0  0  0  0  0  0  0  0
  148.3715  142.2754  153.7054 H   0  0  0  0  0  0  0  0  0  0  0  0
  149.2182  142.7955  156.3633 H   0  0  0  0  0  0  0  0  0  0  0  0
  152.0904  136.2853  153.8875 H   0  0  0  0  0  0  0  0  0  0  0  0
  150.7594  136.7493  152.9604 H   0  0  0  0  0  0  0  0  0  0  0  0
  1  2  1  0  0  0  0
  1 20  1  0  0  0  0
  1 21  1  0  0  0  0
  1 22  1  0  0  0  0
  2  3  2  0  0  0  0
  2  4  1  0  0  0  0
  4  5  1  0  0  0  0
  5  6  1  0  0  0  0
  5 23  1  0  0  0  0
  5 24  1  0  0  0  0
  6  7  1  0  0  0  0
  6 25  1  0  0  0  0
  6 26  1  0  0  0  0
  7  8  1  0  0  0  0
  8  9  1  0  0  0  0
  8 27  1  0  0  0  0
  8 28  1  0  0  0  0
  9 19  1  0  0  0  0
  9 10  1  0  0  0  0
 10 11  2  0  0  0  0
 10 29  1  0  0  0  0
 11 12  1  0  0  0  0
 12 19  2  0  0  0  0
 12 13  1  0  0  0  0
 13 14  2  0  0  0  0
 13 15  1  0  0  0  0
 15 16  1  0  0  0  0
 16 17  1  0  0  0  0
 16 18  2  0  0  0  0
 17 30  1  0  0  0  0
 17 31  1  0  0  0  0
 18 19  1  0  0  0  0
M  CHG  1  15  -1
M  END
> <s_m_source_file>
AV-unprocessed.smi

> <i_m_source_file_index>
64

> <i_lp_mmshare_version>
43012

> <i_f3d_flags>
0

> <s_epik_input>
W0NIM11DKD1PKU9bQ0gyXVtDSDJdT1tDSDJdbihbY0hdbjEpYyhjMTIpbmMoW05IMl0pW25IXWMyPU8=

> <s_epik_cmdline>
J2VwaWtfcHl0aG9uJywgJy1waCcsICc3LjAnLCAnLXRuJywgJzgnLCAnLW1hJywgJzIwMCcsICctbWV0YWxfYmluZGluZycsICctaW1hZScsICc8aW5maWxlLm1hZT4nLCAnLW9tYWUnLCAnPG91dGZpbGUubWFlPic=

> <r_lp_tautomer_probability>
1

> <r_epik_Ionization_Penalty>
3.5586

> <r_epik_Ionization_Penalty_Charging>
1.23364e-10

> <r_epik_Ionization_Penalty_Neutral>
3.5586

> <r_epik_State_Penalty>
3.54828

> <r_epik_Charging_Adjusted_Penalty>
3.54828

> <i_epik_Tot_Q>
-1

> <i_epik_Tot_abs_Q>
1

> <r_epik_Metal_State_Penalty>
0.517613

> <b_epik_Metal_Only>
1

> <s_epik_Chemistry_Notes>
This compound has an ester and may undergo hydrolysis at high or low pH. This compound contains an acetal/aminal-like group ( X-CH(R)-Y where X, Y are N, S, or O) that may be acid/base labile, releasing an aldehyde.

> <s_lp_Force_Field>
OPLS_2005

> <r_lp_Energy>
20.1337

> <b_lp_Chiralities_Consistent>
1

> <s_lp_Variant>
AV-unprocessed.smi:64-2

> <Gold.Version>
5.8.1

> <Gold.Id.Protein>
6NUR|6NUR_protein|mol2

> <Gold.PLP.Fitness>
40.4906

> <Gold.PLP.PLP>
-33.5348

> <Gold.PLP.part.hbond>
-3.2245

> <Gold.PLP.part.metal>
0.0000

> <Gold.PLP.part.buried>
-1.5808

> <Gold.PLP.part.nonpolar>
-28.8144

> <Gold.PLP.part.repulsive>
1.0102

> <Gold.PLP.ligand.clash>
0.0000

> <Gold.PLP.ligand.torsion>
0.5283

> <Gold.PLP.Chemscore.Hbond>
1.6560

> <Gold.PLP.Chemscore.CHOScore>
1.0000

> <Gold.PLP.Chemscore.Metal>
0.0000

> <Gold.Chemscore.Hbonds>
donor molecule, donor type, donor heavy atom, donor atom, acceptor molecule, acceptor atom, score
      L1  H    17    31       P1  7949  0.35
      P1  H  7997  8008       L1    14  1.00
      L1  C    10    29       P1  8028  1.00

> <Gold.PLP.Chemscore.Internal.Correction>
0.0445

> <Gold.Rescore>
     Score         DG    S(hbond)    S(metal)    S(lipo)     H(rot)  DE(clash)    DE(int)     intcor
      1.68      -3.46       1.53        0.00      25.17       3.93       1.28       0.50       ----

> <Gold.Chemscore.Fitness>
1.6764

> <Gold.Chemscore.DG>
-3.4631

> <Gold.Chemscore.ZeroCoef>
-5.4800

> <Gold.Chemscore.Hbond>
1.5299

> <Gold.Chemscore.Metal>
0.0000

> <Gold.Chemscore.Lipo>
25.1713

> <Gold.Chemscore.Internal_Hbond>
0.0000

> <Gold.Chemscore.DEClash>
1.2828

> <Gold.Chemscore.DEInternal>
0.5039

> <Gold.Chemscore.Rot>
3.9343

> <Gold.Chemscore.Internal.Correction>
   9.000000E+99

> <Gold.Chemscore.Hbonds>
donor molecule, donor type, donor heavy atom, donor atom, acceptor molecule, acceptor atom, score
      L1  H    17    31       P1  7949  0.02
      P1  H  7997  8008       L1    14  0.94

> <Gold.Chemscore.Hbond.Weighted>
-5.1098

> <Gold.Chemscore.Metal.Weighted>
-0.0000

> <Gold.Chemscore.Lipo.Weighted>
-2.9450

> <Gold.Chemscore.Internal_Hbond.Weighted>
0.0000

> <Gold.Chemscore.DEClash.Weighted>
1.2828

> <Gold.Chemscore.DEInternal.Weighted>
0.5039

> <Gold.Chemscore.Rot.Weighted>
10.0717

> <Gold.Chemscore.Internal.Correction.Weighted>
   9.000000E+99

> <Gold.Protein.RotatedTorsions>
[ 6907 6896 6895 6894 ] final -134.57 input  -60.11 | X-H torsion
[ 7974 7965 7964 7962 ] final  -82.44 input  175.53 | X-H torsion
[ 8008 7997 7996 7995 ] final  -77.30 input   59.86 | X-H torsion
[ 10167 10162 10161 10158 ] final  108.08 input  -65.29 | X-H torsion
[ 10718 10713 10712 10709 ] final   16.28 input   66.30 | X-H torsion
[ 10763 10752 10751 10750 ] final -142.96 input  -60.55 | X-H torsion
[ 11005 11000 10999 10996 ] final  143.71 input  -57.11 | X-H torsion

> <Gold.Protein.ActiveResidues>
 VAL166  LYS551  ARG553  GLY616  TRP617  ASP618  TYR619  PRO620  LYS621  CYS622 
 ASP623  PHE694  ASN695  SER759  ASP760  ASP761  ALA762  ILE779  LEU786  VAL792 
 PHE793  MET794  SER795  GLU796  ALA797  LYS798  CYS799  TRP800  GLU811  SER814 

> <Gold.Protein.RotatedAtoms>
  150.9875  133.6183  159.2713 H   0  0  0  0  0  0  0  0  0  0  0  0  # atno 6907 bound_to 6896
  151.3416  135.0864  159.9382 H   0  0  0  0  0  0  0  0  0  0  0  0  # atno 6908 bound_to 6896
  152.5235  133.9485  159.7715 H   0  0  0  0  0  0  0  0  0  0  0  0  # atno 6909 bound_to 6896
  145.5333  140.9518  143.1591 H   0  0  0  0  0  0  0  0  0  0  0  0  # atno 7974 bound_to 7965
  154.5584  140.0712  156.8780 H   0  0  0  0  0  0  0  0  0  0  0  0  # atno 8008 bound_to 7997
  155.2858  140.3375  155.4237 H   0  0  0  0  0  0  0  0  0  0  0  0  # atno 8009 bound_to 7997
  156.2021  140.1726  156.7862 H   0  0  0  0  0  0  0  0  0  0  0  0  # atno 8010 bound_to 7997
  139.6875  144.7112  151.1407 H   0  0  0  0  0  0  0  0  0  0  0  0  # atno 10167 bound_to 10162
  157.0656  130.6327  149.5795 H   0  0  0  0  0  0  0  0  0  0  0  0  # atno 10718 bound_to 10713
  154.8489  135.3481  154.6111 H   0  0  0  0  0  0  0  0  0  0  0  0  # atno 10763 bound_to 10752
  153.6720  135.6984  153.5149 H   0  0  0  0  0  0  0  0  0  0  0  0  # atno 10764 bound_to 10752
  153.2735  135.4285  155.0967 H   0  0  0  0  0  0  0  0  0  0  0  0  # atno 10765 bound_to 10752
  140.0575  134.9223  157.1126 H   0  0  0  0  0  0  0  0  0  0  0  0  # atno 11005 bound_to 11000
  144.7614  139.6947  143.7232 LP  0  0  0  0  0  0  0  0  0  0  0  0  # atno 17320 bound_to 7965
  146.2030  139.5336  142.9731 LP  0  0  0  0  0  0  0  0  0  0  0  0  # atno 17321 bound_to 7965
  140.7672  143.5608  150.9101 LP  0  0  0  0  0  0  0  0  0  0  0  0  # atno 17342 bound_to 10162
  139.9284  143.6522  152.3082 LP  0  0  0  0  0  0  0  0  0  0  0  0  # atno 17343 bound_to 10162
  155.9965  130.5035  150.7501 LP  0  0  0  0  0  0  0  0  0  0  0  0  # atno 17370 bound_to 10713
  157.4920  131.0911  151.0416 LP  0  0  0  0  0  0  0  0  0  0  0  0  # atno 17371 bound_to 10713
  140.3822  134.2275  155.7170 LP  0  0  0  0  0  0  0  0  0  0  0  0  # atno 17394 bound_to 11000
  141.1958  133.8096  157.0698 LP  0  0  0  0  0  0  0  0  0  0  0  0  # atno 17395 bound_to 11000

$$$$
