AV-unprocessed.smi:1454|AV-procd|sdf|5914|dock9
  -GOLD-   22720 6 03D 1   1.00000     0.00000
 Structure written by MMmdl.
 45 46  0  0  0  0  0  0  0  0  2 V2000
  147.8202  140.5552  154.3157 O   0  0  0  0  0  0  0  0  0  0  0  0
  148.3869  141.5991  154.6373 C   0  0  0  0  0  0  0  0  0  0  0  0
  149.8126  141.5451  155.1955 C   0  0  0  0  0  0  0  0  0  0  0  0
  149.8869  141.1633  156.6897 C   0  0  0  0  0  0  0  0  0  0  0  0
  151.0683  141.7112  157.3487 N   0  0  0  0  0  0  0  0  0  0  0  0
  151.0741  142.5611  158.3857 C   0  0  0  0  0  0  0  0  0  0  0  0
  150.0469  142.9734  158.9240 O   0  0  0  0  0  0  0  0  0  0  0  0
  152.4621  143.0025  158.8830 C   0  0  0  0  0  0  0  0  0  0  0  0
  152.9533  142.1996  160.1054 C   0  0  0  0  0  0  0  0  0  0  0  0
  152.6948  143.0669  161.3496 C   0  0  0  0  0  0  0  0  0  0  0  0
  152.0663  144.3724  160.8522 C   0  0  0  0  0  0  0  0  0  0  0  0
  152.4460  144.4565  159.3753 C   0  0  0  0  0  0  0  0  0  0  0  0
  147.8375  142.8157  154.4877 N   0  0  0  0  0  0  0  0  0  0  0  0
  146.5814  143.1021  153.7959 C   0  0  0  0  0  0  0  0  0  0  0  0
  145.3600  143.1595  154.7371 C   0  0  0  0  0  0  0  0  0  0  0  0
  144.8264  144.5504  155.0532 C   0  0  0  0  0  0  0  0  0  0  0  0
  144.2598  145.3395  154.0271 C   0  0  0  0  0  0  0  0  0  0  0  0
  143.7611  146.6237  154.3291 C   0  0  0  0  0  0  0  0  0  0  0  0
  143.8350  147.0932  155.6554 C   0  0  0  0  0  0  0  0  0  0  0  0
  144.3649  146.3064  156.6165 N   0  3  0  0  0  0  0  0  0  0  0  0
  144.8454  145.0686  156.3681 C   0  0  0  0  0  0  0  0  0  0  0  0
  150.3412  140.7872  154.6163 H   0  0  0  0  0  0  0  0  0  0  0  0
  150.3397  142.4819  155.0081 H   0  0  0  0  0  0  0  0  0  0  0  0
  148.9826  141.4535  157.2280 H   0  0  0  0  0  0  0  0  0  0  0  0
  149.9479  140.0781  156.7754 H   0  0  0  0  0  0  0  0  0  0  0  0
  151.9625  141.4217  156.9786 H   0  0  0  0  0  0  0  0  0  0  0  0
  153.1687  142.8914  158.0586 H   0  0  0  0  0  0  0  0  0  0  0  0
  152.4731  141.2240  160.1943 H   0  0  0  0  0  0  0  0  0  0  0  0
  154.0227  142.0068  160.0108 H   0  0  0  0  0  0  0  0  0  0  0  0
  152.0470  142.5647  162.0677 H   0  0  0  0  0  0  0  0  0  0  0  0
  153.6384  143.2735  161.8559 H   0  0  0  0  0  0  0  0  0  0  0  0
  150.9817  144.3209  160.9417 H   0  0  0  0  0  0  0  0  0  0  0  0
  152.4014  145.2406  161.4205 H   0  0  0  0  0  0  0  0  0  0  0  0
  153.4442  144.8847  159.2751 H   0  0  0  0  0  0  0  0  0  0  0  0
  151.7629  145.0960  158.8139 H   0  0  0  0  0  0  0  0  0  0  0  0
  148.3761  143.6133  154.7938 H   0  0  0  0  0  0  0  0  0  0  0  0
  146.6983  144.0752  153.3187 H   0  0  0  0  0  0  0  0  0  0  0  0
  146.4081  142.3998  152.9795 H   0  0  0  0  0  0  0  0  0  0  0  0
  144.5551  142.5602  154.3088 H   0  0  0  0  0  0  0  0  0  0  0  0
  145.6181  142.6839  155.6838 H   0  0  0  0  0  0  0  0  0  0  0  0
  144.2055  144.9673  153.0149 H   0  0  0  0  0  0  0  0  0  0  0  0
  143.3312  147.2405  153.5539 H   0  0  0  0  0  0  0  0  0  0  0  0
  143.4832  148.0631  155.9754 H   0  0  0  0  0  0  0  0  0  0  0  0
  145.2345  144.5419  157.2266 H   0  0  0  0  0  0  0  0  0  0  0  0
  144.4033  146.6612  157.5723 H   0  0  0  0  0  0  0  0  0  0  0  0
  1  2  2  0  0  0  0
  2  3  1  0  0  0  0
  2 13  1  0  0  0  0
  3  4  1  0  0  0  0
  3 22  1  0  0  0  0
  3 23  1  0  0  0  0
  4  5  1  0  0  0  0
  4 24  1  0  0  0  0
  4 25  1  0  0  0  0
  5  6  1  0  0  0  0
  5 26  1  0  0  0  0
  6  7  2  0  0  0  0
  6  8  1  0  0  0  0
  8 12  1  0  0  0  0
  8  9  1  0  0  0  0
  8 27  1  0  0  0  0
  9 10  1  0  0  0  0
  9 28  1  0  0  0  0
  9 29  1  0  0  0  0
 10 11  1  0  0  0  0
 10 30  1  0  0  0  0
 10 31  1  0  0  0  0
 11 12  1  0  0  0  0
 11 32  1  0  0  0  0
 11 33  1  0  0  0  0
 12 34  1  0  0  0  0
 12 35  1  0  0  0  0
 13 14  1  0  0  0  0
 13 36  1  0  0  0  0
 14 15  1  0  0  0  0
 14 37  1  0  0  0  0
 14 38  1  0  0  0  0
 15 16  1  0  0  0  0
 15 39  1  0  0  0  0
 15 40  1  0  0  0  0
 16 21  1  0  0  0  0
 16 17  2  0  0  0  0
 17 18  1  0  0  0  0
 17 41  1  0  0  0  0
 18 19  2  0  0  0  0
 18 42  1  0  0  0  0
 19 20  1  0  0  0  0
 19 43  1  0  0  0  0
 20 21  2  0  0  0  0
 20 45  1  0  0  0  0
 21 44  1  0  0  0  0
M  CHG  1  20   1
M  END
> <s_m_source_file>
AV-unprocessed.smi

> <i_m_source_file_index>
1454

> <i_lp_mmshare_version>
43012

> <i_f3d_flags>
0

> <s_epik_input>
W2NIXTFuW2NIXVtjSF1bY0hdYzFbQ0gyXVtDSDJdW05IXUMoPU8pW0NIMl1bQ0gyXVtOSF1DKD1PKVtDSF0yW0NIMl1bQ0gyXVtDSDJdW0NIMl0y

> <s_epik_cmdline>
J2VwaWtfcHl0aG9uJywgJy1waCcsICc3LjAnLCAnLXRuJywgJzgnLCAnLW1hJywgJzIwMCcsICctbWV0YWxfYmluZGluZycsICctaW1hZScsICc8aW5maWxlLm1hZT4nLCAnLW9tYWUnLCAnPG91dGZpbGUubWFlPic=

> <r_epik_Ionization_Penalty>
2.25878

> <r_epik_Ionization_Penalty_Charging>
2.25878

> <r_epik_Ionization_Penalty_Neutral>
5.05393e-08

> <r_epik_State_Penalty>
2.40647

> <r_epik_Charging_Adjusted_Penalty>
4.66526

> <i_epik_Tot_Q>
1

> <i_epik_Tot_abs_Q>
1

> <r_epik_Metal_State_Penalty>
2.41947

> <b_epik_Metal_Only>
0

> <s_lp_Force_Field>
OPLS_2005

> <r_lp_Energy>
23.282

> <b_lp_Chiralities_Consistent>
1

> <s_lp_Variant>
AV-unprocessed.smi:1454-2

> <Gold.Version>
5.8.1

> <Gold.Id.Protein>
6NUR|6NUR_protein|mol2

> <Gold.PLP.Fitness>
49.3597

> <Gold.PLP.PLP>
-49.4508

> <Gold.PLP.part.hbond>
-1.6439

> <Gold.PLP.part.metal>
0.0000

> <Gold.PLP.part.buried>
-7.5245

> <Gold.PLP.part.nonpolar>
-40.4636

> <Gold.PLP.part.repulsive>
0.4371

> <Gold.PLP.ligand.clash>
0.0000

> <Gold.PLP.ligand.torsion>
1.6081

> <Gold.PLP.Chemscore.Hbond>
1.0000

> <Gold.PLP.Chemscore.CHOScore>
0.0000

> <Gold.PLP.Chemscore.Metal>
0.0000

> <Gold.Chemscore.Hbonds>
donor molecule, donor type, donor heavy atom, donor atom, acceptor molecule, acceptor atom, score
      L1  H    13    36       P1  8028  0.81

> <Gold.PLP.Chemscore.Internal.Correction>
0.1252

> <Gold.Rescore>
     Score         DG    S(hbond)    S(metal)    S(lipo)     H(rot)  DE(clash)    DE(int)     intcor
     15.65     -17.00       0.99        0.00     119.10       2.23       0.09       1.26       ----

> <Gold.Chemscore.Fitness>
15.6476

> <Gold.Chemscore.DG>
-16.9968

> <Gold.Chemscore.ZeroCoef>
-5.4800

> <Gold.Chemscore.Hbond>
0.9888

> <Gold.Chemscore.Metal>
0.0000

> <Gold.Chemscore.Lipo>
119.1046

> <Gold.Chemscore.Internal_Hbond>
0.0000

> <Gold.Chemscore.DEClash>
0.0862

> <Gold.Chemscore.DEInternal>
1.2630

> <Gold.Chemscore.Rot>
2.2348

> <Gold.Chemscore.Internal.Correction>
   9.000000E+99

> <Gold.Chemscore.Hbonds>
donor molecule, donor type, donor heavy atom, donor atom, acceptor molecule, acceptor atom, score
      L1  H    13    36       P1  8028  0.78

> <Gold.Chemscore.Hbond.Weighted>
-3.3027

> <Gold.Chemscore.Metal.Weighted>
-0.0000

> <Gold.Chemscore.Lipo.Weighted>
-13.9352

> <Gold.Chemscore.Internal_Hbond.Weighted>
0.0000

> <Gold.Chemscore.DEClash.Weighted>
0.0862

> <Gold.Chemscore.DEInternal.Weighted>
1.2630

> <Gold.Chemscore.Rot.Weighted>
5.7212

> <Gold.Chemscore.Internal.Correction.Weighted>
   9.000000E+99

> <Gold.Protein.RotatedTorsions>
[ 6907 6896 6895 6894 ] final  -58.22 input  -60.11 | X-H torsion
[ 7974 7965 7964 7962 ] final   35.58 input  175.53 | X-H torsion
[ 8008 7997 7996 7995 ] final   72.95 input   59.86 | X-H torsion
[ 10167 10162 10161 10158 ] final -140.40 input  -65.29 | X-H torsion
[ 10718 10713 10712 10709 ] final  112.48 input   66.30 | X-H torsion
[ 10763 10752 10751 10750 ] final   17.40 input  -60.55 | X-H torsion
[ 11005 11000 10999 10996 ] final   74.00 input  -57.11 | X-H torsion

> <Gold.Protein.ActiveResidues>
 VAL166  LYS551  ARG553  GLY616  TRP617  ASP618  TYR619  PRO620  LYS621  CYS622 
 ASP623  PHE694  ASN695  SER759  ASP760  ASP761  ALA762  ILE779  LEU786  VAL792 
 PHE793  MET794  SER795  GLU796  ALA797  LYS798  CYS799  TRP800  GLU811  SER814 

> <Gold.Protein.RotatedAtoms>
  150.8024  134.7126  159.6612 H   0  0  0  0  0  0  0  0  0  0  0  0  # atno 6907 bound_to 6896
  152.4141  134.6069  160.0025 H   0  0  0  0  0  0  0  0  0  0  0  0  # atno 6908 bound_to 6896
  151.6303  133.3295  159.3143 H   0  0  0  0  0  0  0  0  0  0  0  0  # atno 6909 bound_to 6896
  146.1273  139.6125  142.9250 H   0  0  0  0  0  0  0  0  0  0  0  0  # atno 7974 bound_to 7965
  155.7765  140.3483  155.5274 H   0  0  0  0  0  0  0  0  0  0  0  0  # atno 8008 bound_to 7997
  155.8771  140.0996  157.1532 H   0  0  0  0  0  0  0  0  0  0  0  0  # atno 8009 bound_to 7997
  154.4022  140.1329  156.4137 H   0  0  0  0  0  0  0  0  0  0  0  0  # atno 8010 bound_to 7997
  139.8286  143.7478  152.2666 H   0  0  0  0  0  0  0  0  0  0  0  0  # atno 10167 bound_to 10162
  157.6390  131.0968  150.6901 H   0  0  0  0  0  0  0  0  0  0  0  0  # atno 10718 bound_to 10713
  153.1342  135.6746  153.9130 H   0  0  0  0  0  0  0  0  0  0  0  0  # atno 10763 bound_to 10752
  153.8607  135.3082  155.3439 H   0  0  0  0  0  0  0  0  0  0  0  0  # atno 10764 bound_to 10752
  154.7733  135.4928  153.9775 H   0  0  0  0  0  0  0  0  0  0  0  0  # atno 10765 bound_to 10752
  139.9412  134.7396  156.1095 H   0  0  0  0  0  0  0  0  0  0  0  0  # atno 11005 bound_to 11000
  145.5338  141.0425  143.2368 LP  0  0  0  0  0  0  0  0  0  0  0  0  # atno 17320 bound_to 7965
  144.7655  139.6856  143.7216 LP  0  0  0  0  0  0  0  0  0  0  0  0  # atno 17321 bound_to 7965
  139.7678  144.7486  151.0269 LP  0  0  0  0  0  0  0  0  0  0  0  0  # atno 17342 bound_to 10162
  140.7808  143.4679  151.0187 LP  0  0  0  0  0  0  0  0  0  0  0  0  # atno 17343 bound_to 10162
  156.7228  130.4686  149.5518 LP  0  0  0  0  0  0  0  0  0  0  0  0  # atno 17370 bound_to 10713
  156.1654  130.6402  151.0771 LP  0  0  0  0  0  0  0  0  0  0  0  0  # atno 17371 bound_to 10713
  141.1047  133.6664  156.2836 LP  0  0  0  0  0  0  0  0  0  0  0  0  # atno 17394 bound_to 11000
  140.5947  134.5615  157.5506 LP  0  0  0  0  0  0  0  0  0  0  0  0  # atno 17395 bound_to 11000

$$$$
