AV-unprocessed.smi:3022|AV-procd|sdf|11500|dock1
  -GOLD-   2272016433D 1   1.00000     0.00000
 Structure written by MMmdl.
 47 49  0  0  0  0  0  0  0  0  2 V2000
  152.4274  140.2299  157.4442 O   0  0  0  0  0  0  0  0  0  0  0  0
  151.4527  141.2027  157.7518 C   0  0  0  0  0  0  0  0  0  0  0  0
  150.9861  141.8970  156.4653 C   0  0  0  0  0  0  0  0  0  0  0  0
  150.3450  140.9616  155.5595 N   0  0  0  0  0  0  0  0  0  0  0  0
  151.0647  139.9058  155.0875 N   0  0  0  0  0  0  0  0  0  0  0  0
  150.2516  139.2268  154.3127 C   0  0  0  0  0  0  0  0  0  0  0  0
  148.9531  139.8262  154.2584 C   0  0  0  0  0  0  0  0  0  0  0  0
  147.6961  139.6018  153.6477 C   0  0  0  0  0  0  0  0  0  0  0  0
  147.4750  138.5027  152.8069 N   0  0  0  0  0  0  0  0  0  0  0  0
  146.1413  138.2085  152.3041 C   0  0  0  0  0  0  0  0  0  0  0  0
  145.6278  136.8603  152.8349 C   0  0  0  0  0  0  0  0  0  0  0  0
  146.1567  135.7005  152.0685 N   0  3  0  0  0  0  0  0  0  0  0  0
  145.5930  135.6274  150.6914 C   0  0  0  0  0  0  0  0  0  0  0  0
  144.2443  134.8899  150.5890 C   0  0  0  0  0  0  0  0  0  0  0  0
  144.4116  133.3881  150.3108 C   0  0  0  0  0  0  0  0  0  0  0  0
  144.9850  132.5914  151.4899 C   0  0  0  0  0  0  0  0  0  0  0  0
  146.3137  133.1389  152.0386 C   0  0  0  0  0  0  0  0  0  0  0  0
  146.1378  134.4338  152.8559 C   0  0  0  0  0  0  0  0  0  0  0  0
  146.6905  140.4792  153.8959 N   0  0  0  0  0  0  0  0  0  0  0  0
  146.9135  141.5220  154.7053 C   0  0  0  0  0  0  0  0  0  0  0  0
  148.0361  141.8586  155.3486 N   0  0  0  0  0  0  0  0  0  0  0  0
  149.0399  140.9717  155.0901 C   0  0  0  0  0  0  0  0  0  0  0  0
  152.4056  139.5610  158.1115 H   0  0  0  0  0  0  0  0  0  0  0  0
  150.6150  140.7190  158.2553 H   0  0  0  0  0  0  0  0  0  0  0  0
  151.8796  141.9264  158.4472 H   0  0  0  0  0  0  0  0  0  0  0  0
  150.2797  142.6950  156.6976 H   0  0  0  0  0  0  0  0  0  0  0  0
  151.8299  142.3628  155.9536 H   0  0  0  0  0  0  0  0  0  0  0  0
  150.6057  138.3339  153.8193 H   0  0  0  0  0  0  0  0  0  0  0  0
  145.4617  139.0080  152.6025 H   0  0  0  0  0  0  0  0  0  0  0  0
  146.1802  138.2028  151.2145 H   0  0  0  0  0  0  0  0  0  0  0  0
  145.8751  136.7466  153.8914 H   0  0  0  0  0  0  0  0  0  0  0  0
  144.5388  136.8689  152.7705 H   0  0  0  0  0  0  0  0  0  0  0  0
  145.4824  136.6366  150.2933 H   0  0  0  0  0  0  0  0  0  0  0  0
  146.3262  135.1573  150.0352 H   0  0  0  0  0  0  0  0  0  0  0  0
  143.6244  135.0624  151.4696 H   0  0  0  0  0  0  0  0  0  0  0  0
  143.6914  135.3164  149.7512 H   0  0  0  0  0  0  0  0  0  0  0  0
  143.4412  132.9659  150.0476 H   0  0  0  0  0  0  0  0  0  0  0  0
  145.0426  133.2466  149.4324 H   0  0  0  0  0  0  0  0  0  0  0  0
  144.2482  132.5429  152.2926 H   0  0  0  0  0  0  0  0  0  0  0  0
  145.1354  131.5612  151.1654 H   0  0  0  0  0  0  0  0  0  0  0  0
  146.7193  132.3805  152.7094 H   0  0  0  0  0  0  0  0  0  0  0  0
  147.0576  133.2556  151.2499 H   0  0  0  0  0  0  0  0  0  0  0  0
  146.9534  134.4908  153.5770 H   0  0  0  0  0  0  0  0  0  0  0  0
  145.2212  134.3714  153.4448 H   0  0  0  0  0  0  0  0  0  0  0  0
  146.0715  142.1804  154.8603 H   0  0  0  0  0  0  0  0  0  0  0  0
  148.2450  137.8997  152.5547 H   0  0  0  0  0  0  0  0  0  0  0  0
  147.1338  135.9102  151.9204 H   0  0  0  0  0  0  0  0  0  0  0  0
  1  2  1  0  0  0  0
  1 23  1  0  0  0  0
  2  3  1  0  0  0  0
  2 24  1  0  0  0  0
  2 25  1  0  0  0  0
  3  4  1  0  0  0  0
  3 26  1  0  0  0  0
  3 27  1  0  0  0  0
  4 22  1  0  0  0  0
  4  5  1  0  0  0  0
  5  6  2  0  0  0  0
  6  7  1  0  0  0  0
  6 28  1  0  0  0  0
  7 22  1  0  0  0  0
  7  8  2  0  0  0  0
  8  9  1  0  0  0  0
  8 19  1  0  0  0  0
  9 10  1  0  0  0  0
  9 46  1  0  0  0  0
 10 11  1  0  0  0  0
 10 29  1  0  0  0  0
 10 30  1  0  0  0  0
 11 12  1  0  0  0  0
 11 31  1  0  0  0  0
 11 32  1  0  0  0  0
 12 18  1  0  0  0  0
 12 13  1  0  0  0  0
 12 47  1  0  0  0  0
 13 14  1  0  0  0  0
 13 33  1  0  0  0  0
 13 34  1  0  0  0  0
 14 15  1  0  0  0  0
 14 35  1  0  0  0  0
 14 36  1  0  0  0  0
 15 16  1  0  0  0  0
 15 37  1  0  0  0  0
 15 38  1  0  0  0  0
 16 17  1  0  0  0  0
 16 39  1  0  0  0  0
 16 40  1  0  0  0  0
 17 18  1  0  0  0  0
 17 41  1  0  0  0  0
 17 42  1  0  0  0  0
 18 43  1  0  0  0  0
 18 44  1  0  0  0  0
 19 20  2  0  0  0  0
 20 21  1  0  0  0  0
 20 45  1  0  0  0  0
 21 22  2  0  0  0  0
M  CHG  1  12   1
M  END
> <s_m_source_file>
AV-unprocessed.smi

> <i_m_source_file_index>
3022

> <i_lp_mmshare_version>
43012

> <i_f3d_flags>
0

> <s_epik_input>
W09IXVtDSDJdW0NIMl1uKFtuSF1bY0hdMSljKGMxMiluW2NIXW5jXDI9TlxbQ0gyXVtDSDJdTjNbQ0gyXVtDSDJdW0NIMl1bQ0gyXVtDSDJdW0NIMl0z

> <s_epik_cmdline>
J2VwaWtfcHl0aG9uJywgJy1waCcsICc3LjAnLCAnLXRuJywgJzgnLCAnLW1hJywgJzIwMCcsICctbWV0YWxfYmluZGluZycsICctaW1hZScsICc8aW5maWxlLm1hZT4nLCAnLW9tYWUnLCAnPG91dGZpbGUubWFlPic=

> <r_lp_tautomer_probability>
1

> <r_epik_Ionization_Penalty>
0.000898909

> <r_epik_Ionization_Penalty_Charging>
0.000843316

> <r_epik_Ionization_Penalty_Neutral>
5.55928e-05

> <r_epik_State_Penalty>
-0

> <r_epik_Charging_Adjusted_Penalty>
0.000843316

> <i_epik_Tot_Q>
1

> <i_epik_Tot_abs_Q>
1

> <r_epik_Metal_State_Penalty>
-0

> <b_epik_Metal_Only>
0

> <s_lp_Force_Field>
OPLS_2005

> <r_lp_Energy>
21.5198

> <b_lp_Chiralities_Consistent>
1

> <s_lp_Variant>
AV-unprocessed.smi:3022-1

> <Gold.Version>
5.8.1

> <Gold.Id.Protein>
6NUR|6NUR_protein|mol2

> <Gold.PLP.Fitness>
52.5386

> <Gold.PLP.PLP>
-39.9189

> <Gold.PLP.part.hbond>
-4.9194

> <Gold.PLP.part.metal>
0.0000

> <Gold.PLP.part.buried>
-4.1152

> <Gold.PLP.part.nonpolar>
-32.5721

> <Gold.PLP.part.repulsive>
1.0428

> <Gold.PLP.ligand.clash>
0.0000

> <Gold.PLP.ligand.torsion>
0.2726

> <Gold.PLP.Chemscore.Hbond>
4.3000

> <Gold.PLP.Chemscore.CHOScore>
0.0000

> <Gold.PLP.Chemscore.Metal>
0.0000

> <Gold.Chemscore.Hbonds>
donor molecule, donor type, donor heavy atom, donor atom, acceptor molecule, acceptor atom, score
      L1  H     9    46       P1  7948  1.00
      L1  H    12    47       P1  7948  2.00
      P1  H  7989  7998       L1     5  0.26
      P1  H  7997  8009       L1     1  0.83

> <Gold.PLP.Chemscore.Internal.Correction>
0.2649

> <Gold.Rescore>
     Score         DG    S(hbond)    S(metal)    S(lipo)     H(rot)  DE(clash)    DE(int)     intcor
     15.18     -16.81       2.86        0.00      76.36       2.79       0.02       1.61       ----

> <Gold.Chemscore.Fitness>
15.1792

> <Gold.Chemscore.DG>
-16.8149

> <Gold.Chemscore.ZeroCoef>
-5.4800

> <Gold.Chemscore.Hbond>
2.8552

> <Gold.Chemscore.Metal>
0.0000

> <Gold.Chemscore.Lipo>
76.3610

> <Gold.Chemscore.Internal_Hbond>
0.0000

> <Gold.Chemscore.DEClash>
0.0223

> <Gold.Chemscore.DEInternal>
1.6134

> <Gold.Chemscore.Rot>
2.7874

> <Gold.Chemscore.Internal.Correction>
   9.000000E+99

> <Gold.Chemscore.Hbonds>
donor molecule, donor type, donor heavy atom, donor atom, acceptor molecule, acceptor atom, score
      L1  H     9    46       P1  7948  0.96
      L1  H    12    47       P1  7948  1.00
      P1  H  7997  8009       L1     1  0.30

> <Gold.Chemscore.Hbond.Weighted>
-9.5365

> <Gold.Chemscore.Metal.Weighted>
-0.0000

> <Gold.Chemscore.Lipo.Weighted>
-8.9342

> <Gold.Chemscore.Internal_Hbond.Weighted>
0.0000

> <Gold.Chemscore.DEClash.Weighted>
0.0223

> <Gold.Chemscore.DEInternal.Weighted>
1.6134

> <Gold.Chemscore.Rot.Weighted>
7.1358

> <Gold.Chemscore.Internal.Correction.Weighted>
   9.000000E+99

> <Gold.Protein.RotatedTorsions>
[ 6907 6896 6895 6894 ] final  -46.04 input  -60.11 | X-H torsion
[ 7974 7965 7964 7962 ] final  174.24 input  175.53 | X-H torsion
[ 8008 7997 7996 7995 ] final  176.77 input   59.86 | X-H torsion
[ 10167 10162 10161 10158 ] final -158.41 input  -65.29 | X-H torsion
[ 10718 10713 10712 10709 ] final -107.46 input   66.30 | X-H torsion
[ 10763 10752 10751 10750 ] final  -36.38 input  -60.55 | X-H torsion
[ 11005 11000 10999 10996 ] final   77.55 input  -57.11 | X-H torsion

> <Gold.Protein.ActiveResidues>
 VAL166  LYS551  ARG553  GLY616  TRP617  ASP618  TYR619  PRO620  LYS621  CYS622 
 ASP623  PHE694  ASN695  SER759  ASP760  ASP761  ALA762  ILE779  LEU786  VAL792 
 PHE793  MET794  SER795  GLU796  ALA797  LYS798  CYS799  TRP800  GLU811  SER814 

> <Gold.Protein.RotatedAtoms>
  150.9154  134.8572  159.7453 H   0  0  0  0  0  0  0  0  0  0  0  0  # atno 6907 bound_to 6896
  152.4966  134.4296  159.9518 H   0  0  0  0  0  0  0  0  0  0  0  0  # atno 6908 bound_to 6896
  151.4335  133.3624  159.2807 H   0  0  0  0  0  0  0  0  0  0  0  0  # atno 6909 bound_to 6896
  144.7226  139.9767  143.6438 H   0  0  0  0  0  0  0  0  0  0  0  0  # atno 7974 bound_to 7965
  156.0729  140.1375  156.9807 H   0  0  0  0  0  0  0  0  0  0  0  0  # atno 8008 bound_to 7997
  154.4541  140.0968  156.6758 H   0  0  0  0  0  0  0  0  0  0  0  0  # atno 8009 bound_to 7997
  155.5199  140.3456  155.4407 H   0  0  0  0  0  0  0  0  0  0  0  0  # atno 8010 bound_to 7997
  139.6694  143.9772  152.2274 H   0  0  0  0  0  0  0  0  0  0  0  0  # atno 10167 bound_to 10162
  156.0438  130.5663  150.7824 H   0  0  0  0  0  0  0  0  0  0  0  0  # atno 10718 bound_to 10713
  153.8787  135.6824  153.4768 H   0  0  0  0  0  0  0  0  0  0  0  0  # atno 10763 bound_to 10752
  153.1246  135.4725  154.9248 H   0  0  0  0  0  0  0  0  0  0  0  0  # atno 10764 bound_to 10752
  154.7679  135.3230  154.8201 H   0  0  0  0  0  0  0  0  0  0  0  0  # atno 10765 bound_to 10752
  139.9250  134.7692  156.1536 H   0  0  0  0  0  0  0  0  0  0  0  0  # atno 11005 bound_to 11000
  146.0520  139.3520  143.0633 LP  0  0  0  0  0  0  0  0  0  0  0  0  # atno 17320 bound_to 7965
  145.8203  140.9682  143.0902 LP  0  0  0  0  0  0  0  0  0  0  0  0  # atno 17321 bound_to 7965
  139.9532  144.6606  150.8151 LP  0  0  0  0  0  0  0  0  0  0  0  0  # atno 17342 bound_to 10162
  140.7612  143.3169  151.2713 LP  0  0  0  0  0  0  0  0  0  0  0  0  # atno 17343 bound_to 10162
  157.5288  131.0935  150.9982 LP  0  0  0  0  0  0  0  0  0  0  0  0  # atno 17370 bound_to 10713
  157.0294  130.5705  149.5341 LP  0  0  0  0  0  0  0  0  0  0  0  0  # atno 17371 bound_to 10713
  141.0800  133.6758  156.2316 LP  0  0  0  0  0  0  0  0  0  0  0  0  # atno 17394 bound_to 11000
  140.6363  134.5211  157.5565 LP  0  0  0  0  0  0  0  0  0  0  0  0  # atno 17395 bound_to 11000

$$$$
