AV-unprocessed.smi:1585|AV-procd|sdf|6369|dock2
  -GOLD-   22720 6593D 1   1.00000     0.00000
 Structure written by MMmdl.
 43 44  0  0  0  0  0  0  0  0  2 V2000
  150.6293  141.9579  157.8486 C   0  0  0  0  0  0  0  0  0  0  0  0
  150.4644  141.2564  156.5437 C   0  0  0  0  0  0  0  0  0  0  0  0
  149.3670  140.9157  155.8037 C   0  0  0  0  0  0  0  0  0  0  0  0
  149.9318  140.2613  154.6768 C   0  0  0  0  0  0  0  0  0  0  0  0
  149.1066  139.7428  153.6461 N   0  0  0  0  0  0  0  0  0  0  0  0
  147.9654  139.0470  153.7858 C   0  0  0  0  0  0  0  0  0  0  0  0
  147.4469  138.7405  154.8599 O   0  0  0  0  0  0  0  0  0  0  0  0
  147.4440  138.7146  152.5955 N   0  0  0  0  0  0  0  0  0  0  0  0
  146.1950  137.9820  152.4082 C   0  0  0  0  0  0  0  0  0  0  0  0
  146.2746  136.9851  151.2331 C   0  0  2  0  0  0  0  0  0  0  0  0
  146.3187  137.7277  150.0308 O   0  0  0  0  0  0  0  0  0  0  0  0
  145.0292  136.0769  151.1772 C   0  0  0  0  0  0  0  0  0  0  0  0
  145.3203  134.7415  150.5945 N   0  3  0  0  0  0  0  0  0  0  0  0
  144.1462  133.8320  150.6566 C   0  0  0  0  0  0  0  0  0  0  0  0
  144.4242  132.5114  149.9186 C   0  0  0  0  0  0  0  0  0  0  0  0
  145.6787  131.8235  150.4722 C   0  0  0  0  0  0  0  0  0  0  0  0
  146.8681  132.7914  150.4294 C   0  0  0  0  0  0  0  0  0  0  0  0
  146.5381  134.1021  151.1629 C   0  0  0  0  0  0  0  0  0  0  0  0
  151.2543  140.2093  154.7231 N   0  0  0  0  0  0  0  0  0  0  0  0
  151.6024  140.8461  155.9201 O   0  0  0  0  0  0  0  0  0  0  0  0
  149.7785  142.6092  158.0500 H   0  0  0  0  0  0  0  0  0  0  0  0
  151.5308  142.5710  157.8509 H   0  0  0  0  0  0  0  0  0  0  0  0
  150.7068  141.2395  158.6648 H   0  0  0  0  0  0  0  0  0  0  0  0
  148.3291  141.1035  156.0355 H   0  0  0  0  0  0  0  0  0  0  0  0
  149.4161  139.9268  152.7033 H   0  0  0  0  0  0  0  0  0  0  0  0
  147.9320  139.0059  151.7609 H   0  0  0  0  0  0  0  0  0  0  0  0
  145.9736  137.4499  153.3352 H   0  0  0  0  0  0  0  0  0  0  0  0
  145.3764  138.6891  152.2681 H   0  0  0  0  0  0  0  0  0  0  0  0
  147.1783  136.3824  151.3138 H   0  0  0  0  0  0  0  0  0  0  0  0
  145.4353  137.8300  149.7095 H   0  0  0  0  0  0  0  0  0  0  0  0
  144.6051  135.9438  152.1738 H   0  0  0  0  0  0  0  0  0  0  0  0
  144.2613  136.5804  150.5874 H   0  0  0  0  0  0  0  0  0  0  0  0
  143.8908  133.6358  151.6992 H   0  0  0  0  0  0  0  0  0  0  0  0
  143.2802  134.3158  150.2033 H   0  0  0  0  0  0  0  0  0  0  0  0
  143.5648  131.8460  150.0084 H   0  0  0  0  0  0  0  0  0  0  0  0
  144.5534  132.7075  148.8534 H   0  0  0  0  0  0  0  0  0  0  0  0
  145.5010  131.5013  151.4989 H   0  0  0  0  0  0  0  0  0  0  0  0
  145.9020  130.9251  149.8962 H   0  0  0  0  0  0  0  0  0  0  0  0
  147.7453  132.3235  150.8777 H   0  0  0  0  0  0  0  0  0  0  0  0
  147.1287  133.0077  149.3924 H   0  0  0  0  0  0  0  0  0  0  0  0
  147.3941  134.7711  151.0862 H   0  0  0  0  0  0  0  0  0  0  0  0
  146.3865  133.9079  152.2260 H   0  0  0  0  0  0  0  0  0  0  0  0
  145.5004  134.8994  149.6130 H   0  0  0  0  0  0  0  0  0  0  0  0
  1  2  1  0  0  0  0
  1 21  1  0  0  0  0
  1 22  1  0  0  0  0
  1 23  1  0  0  0  0
  2 20  1  0  0  0  0
  2  3  2  0  0  0  0
  3  4  1  0  0  0  0
  3 24  1  0  0  0  0
  4  5  1  0  0  0  0
  4 19  2  0  0  0  0
  5  6  1  0  0  0  0
  5 25  1  0  0  0  0
  6  7  2  0  0  0  0
  6  8  1  0  0  0  0
  8  9  1  0  0  0  0
  8 26  1  0  0  0  0
  9 10  1  0  0  0  0
  9 27  1  0  0  0  0
  9 28  1  0  0  0  0
 10 11  1  0  0  0  0
 10 12  1  0  0  0  0
 10 29  1  0  0  0  0
 11 30  1  0  0  0  0
 12 13  1  0  0  0  0
 12 31  1  0  0  0  0
 12 32  1  0  0  0  0
 13 18  1  0  0  0  0
 13 14  1  0  0  0  0
 13 43  1  0  0  0  0
 14 15  1  0  0  0  0
 14 33  1  0  0  0  0
 14 34  1  0  0  0  0
 15 16  1  0  0  0  0
 15 35  1  0  0  0  0
 15 36  1  0  0  0  0
 16 17  1  0  0  0  0
 16 37  1  0  0  0  0
 16 38  1  0  0  0  0
 17 18  1  0  0  0  0
 17 39  1  0  0  0  0
 17 40  1  0  0  0  0
 18 41  1  0  0  0  0
 18 42  1  0  0  0  0
 19 20  1  0  0  0  0
M  CHG  1  13   1
M  END
> <s_m_source_file>
AV-unprocessed.smi

> <i_m_source_file_index>
1585

> <i_lp_mmshare_version>
43012

> <i_f3d_flags>
0

> <s_epik_input>
W0NIM11jMVtjSF1jKG5vMSlbTkhdQyg9TylbTkhdW0NIMl1bQ0BIXShbT0hdKVtDSDJdTjJbQ0gyXVtDSDJdW0NIMl1bQ0gyXVtDSDJdMg==

> <s_epik_cmdline>
J2VwaWtfcHl0aG9uJywgJy1waCcsICc3LjAnLCAnLXRuJywgJzgnLCAnLW1hJywgJzIwMCcsICctbWV0YWxfYmluZGluZycsICctaW1hZScsICc8aW5maWxlLm1hZT4nLCAnLW9tYWUnLCAnPG91dGZpbGUubWFlPic=

> <r_epik_Ionization_Penalty>
0.00531443

> <r_epik_Ionization_Penalty_Charging>
0.0052814

> <r_epik_Ionization_Penalty_Neutral>
3.3027e-05

> <r_epik_State_Penalty>
0.00385383

> <r_epik_Charging_Adjusted_Penalty>
0.00913523

> <i_epik_Tot_Q>
1

> <i_epik_Tot_abs_Q>
1

> <r_epik_Metal_State_Penalty>
0.0139186

> <b_epik_Metal_Only>
0

> <s_lp_Force_Field>
OPLS_2005

> <r_lp_Energy>
15.3919

> <b_lp_Chiralities_Consistent>
1

> <s_lp_Variant>
AV-unprocessed.smi:1585-1

> <Gold.Version>
5.8.1

> <Gold.Id.Protein>
6NUR|6NUR_protein|mol2

> <Gold.PLP.Fitness>
50.3383

> <Gold.PLP.PLP>
-35.5992

> <Gold.PLP.part.hbond>
-7.1568

> <Gold.PLP.part.metal>
0.0000

> <Gold.PLP.part.buried>
1.1211

> <Gold.PLP.part.nonpolar>
-29.1381

> <Gold.PLP.part.repulsive>
0.3815

> <Gold.PLP.ligand.clash>
0.0000

> <Gold.PLP.ligand.torsion>
0.9793

> <Gold.PLP.Chemscore.Hbond>
5.5360

> <Gold.PLP.Chemscore.CHOScore>
0.0000

> <Gold.PLP.Chemscore.Metal>
0.0000

> <Gold.Chemscore.Hbonds>
donor molecule, donor type, donor heavy atom, donor atom, acceptor molecule, acceptor atom, score
      L1  H     5    25       P1  7957  1.00
      L1  H     8    26       P1  7957  0.86
      L1  H    11    30       P1 10171  1.00
      L1  H    13    43       P1  7921  0.88
      P1  H  7954  7966       L1    11  0.61
      P1  H  7989  7998       L1    19  0.78

> <Gold.PLP.Chemscore.Internal.Correction>
0.0898

> <Gold.Rescore>
     Score         DG    S(hbond)    S(metal)    S(lipo)     H(rot)  DE(clash)    DE(int)     intcor
     19.22     -23.57       4.50        0.00      80.65       2.50       2.60       1.74       ----

> <Gold.Chemscore.Fitness>
19.2235

> <Gold.Chemscore.DG>
-23.5688

> <Gold.Chemscore.ZeroCoef>
-5.4800

> <Gold.Chemscore.Hbond>
4.5034

> <Gold.Chemscore.Metal>
0.0000

> <Gold.Chemscore.Lipo>
80.6460

> <Gold.Chemscore.Internal_Hbond>
0.0000

> <Gold.Chemscore.DEClash>
2.6013

> <Gold.Chemscore.DEInternal>
1.7440

> <Gold.Chemscore.Rot>
2.4953

> <Gold.Chemscore.Internal.Correction>
   9.000000E+99

> <Gold.Chemscore.Hbonds>
donor molecule, donor type, donor heavy atom, donor atom, acceptor molecule, acceptor atom, score
      L1  H     5    25       P1  7957  0.96
      L1  H     8    26       P1  7957  0.75
      L1  H    11    30       P1 10171  0.95
      L1  H    13    43       P1  7921  0.85
      P1  H  7954  7966       L1    11  0.14
      P1  H  7989  7998       L1    19  0.28

> <Gold.Chemscore.Hbond.Weighted>
-15.0412

> <Gold.Chemscore.Metal.Weighted>
-0.0000

> <Gold.Chemscore.Lipo.Weighted>
-9.4356

> <Gold.Chemscore.Internal_Hbond.Weighted>
0.0000

> <Gold.Chemscore.DEClash.Weighted>
2.6013

> <Gold.Chemscore.DEInternal.Weighted>
1.7440

> <Gold.Chemscore.Rot.Weighted>
6.3880

> <Gold.Chemscore.Internal.Correction.Weighted>
   9.000000E+99

> <Gold.Protein.RotatedTorsions>
[ 6907 6896 6895 6894 ] final -148.59 input  -60.11 | X-H torsion
[ 7974 7965 7964 7962 ] final  -11.75 input  175.53 | X-H torsion
[ 8008 7997 7996 7995 ] final   86.68 input   59.86 | X-H torsion
[ 10167 10162 10161 10158 ] final  -20.74 input  -65.29 | X-H torsion
[ 10718 10713 10712 10709 ] final   71.69 input   66.30 | X-H torsion
[ 10763 10752 10751 10750 ] final  138.09 input  -60.55 | X-H torsion
[ 11005 11000 10999 10996 ] final  137.38 input  -57.11 | X-H torsion

> <Gold.Protein.ActiveResidues>
 VAL166  LYS551  ARG553  GLY616  TRP617  ASP618  TYR619  PRO620  LYS621  CYS622 
 ASP623  PHE694  ASN695  SER759  ASP760  ASP761  ALA762  ILE779  LEU786  VAL792 
 PHE793  MET794  SER795  GLU796  ALA797  LYS798  CYS799  TRP800  GLU811  SER814 

> <Gold.Protein.RotatedAtoms>
  151.1719  133.4778  159.2593 H   0  0  0  0  0  0  0  0  0  0  0  0  # atno 6907 bound_to 6896
  151.1347  135.0148  159.8608 H   0  0  0  0  0  0  0  0  0  0  0  0  # atno 6908 bound_to 6896
  152.5461  134.1619  159.8614 H   0  0  0  0  0  0  0  0  0  0  0  0  # atno 6909 bound_to 6896
  146.2176  140.2956  142.8371 H   0  0  0  0  0  0  0  0  0  0  0  0  # atno 7974 bound_to 7965
  155.9658  140.3389  155.6531 H   0  0  0  0  0  0  0  0  0  0  0  0  # atno 8008 bound_to 7997
  155.6738  140.0730  157.2528 H   0  0  0  0  0  0  0  0  0  0  0  0  # atno 8009 bound_to 7997
  154.4154  140.1686  156.1896 H   0  0  0  0  0  0  0  0  0  0  0  0  # atno 8010 bound_to 7997
  140.7278  143.4694  151.0268 H   0  0  0  0  0  0  0  0  0  0  0  0  # atno 10167 bound_to 10162
  157.6464  130.9541  150.0824 H   0  0  0  0  0  0  0  0  0  0  0  0  # atno 10718 bound_to 10713
  153.8839  135.3041  155.3446 H   0  0  0  0  0  0  0  0  0  0  0  0  # atno 10763 bound_to 10752
  154.7748  135.4867  153.9726 H   0  0  0  0  0  0  0  0  0  0  0  0  # atno 10764 bound_to 10752
  153.1336  135.6809  153.9236 H   0  0  0  0  0  0  0  0  0  0  0  0  # atno 10765 bound_to 10752
  140.0110  134.9439  157.0278 H   0  0  0  0  0  0  0  0  0  0  0  0  # atno 11005 bound_to 11000
  144.9094  140.7739  143.5817 LP  0  0  0  0  0  0  0  0  0  0  0  0  # atno 17320 bound_to 7965
  145.2886  139.1892  143.4752 LP  0  0  0  0  0  0  0  0  0  0  0  0  # atno 17321 bound_to 7965
  139.8384  143.7596  152.3180 LP  0  0  0  0  0  0  0  0  0  0  0  0  # atno 17342 bound_to 10162
  139.7736  144.7468  151.0188 LP  0  0  0  0  0  0  0  0  0  0  0  0  # atno 17343 bound_to 10162
  156.1797  130.3649  149.9052 LP  0  0  0  0  0  0  0  0  0  0  0  0  # atno 17370 bound_to 10713
  156.7008  130.8932  151.3599 LP  0  0  0  0  0  0  0  0  0  0  0  0  # atno 17371 bound_to 10713
  140.4554  134.1539  155.7185 LP  0  0  0  0  0  0  0  0  0  0  0  0  # atno 17394 bound_to 11000
  141.1711  133.8607  157.1567 LP  0  0  0  0  0  0  0  0  0  0  0  0  # atno 17395 bound_to 11000

$$$$
