AV-unprocessed.smi:298|AV-procd|sdf|2263|dock2
  -GOLD-   2262022153D 1   1.00000     0.00000
 Structure written by MMmdl.
 39 41  0  0  0  0  0  0  0  0  2 V2000
  152.1702  144.9142  160.2250 C   0  0  0  0  0  0  0  0  0  0  0  0
  151.9672  143.7032  159.3304 C   0  0  0  0  0  0  0  0  0  0  0  0
  151.1705  143.8469  158.1719 C   0  0  0  0  0  0  0  0  0  0  0  0
  151.0017  142.7211  157.3748 C   0  0  0  0  0  0  0  0  0  0  0  0
  150.2877  142.5376  156.1887 N   0  3  0  0  0  0  0  0  0  0  0  0
  150.4186  141.2468  155.7746 C   0  0  0  0  0  0  0  0  0  0  0  0
  151.2072  140.6045  156.6787 N   0  0  0  0  0  0  0  0  0  0  0  0
  151.6679  139.2105  156.7103 C   0  0  0  0  0  0  0  0  0  0  0  0
  152.2169  138.7326  155.3523 C   0  0  2  0  0  0  0  0  0  0  0  0
  153.0687  139.7243  154.8085 O   0  0  0  0  0  0  0  0  0  0  0  0
  151.0872  138.4094  154.3566 C   0  0  0  0  0  0  0  0  0  0  0  0
  150.3566  137.2079  154.7156 N   0  0  0  0  0  0  0  0  0  0  0  0
  149.0803  137.0404  155.0770 C   0  0  0  0  0  0  0  0  0  0  0  0
  148.7538  135.7799  155.3338 N   0  0  0  0  0  0  0  0  0  0  0  0
  149.9631  135.1949  155.0925 C   0  0  0  0  0  0  0  0  0  0  0  0
  150.1549  133.7618  155.2361 C   0  0  0  0  0  0  0  0  0  0  0  0
  150.3076  132.6203  155.3502 N   0  0  0  0  0  0  0  0  0  0  0  0
  150.9606  135.9951  154.7211 N   0  0  0  0  0  0  0  0  0  0  0  0
  151.5940  141.4843  157.6946 C   0  0  0  0  0  0  0  0  0  0  0  0
  152.3836  141.3252  158.8304 C   0  0  0  0  0  0  0  0  0  0  0  0
  152.5670  142.4585  159.6547 C   0  0  0  0  0  0  0  0  0  0  0  0
  153.4223  142.3156  160.9021 C   0  0  0  0  0  0  0  0  0  0  0  0
  151.6122  145.7775  159.8613 H   0  0  0  0  0  0  0  0  0  0  0  0
  153.2245  145.1898  160.2610 H   0  0  0  0  0  0  0  0  0  0  0  0
  151.8312  144.7035  161.2396 H   0  0  0  0  0  0  0  0  0  0  0  0
  150.7125  144.7914  157.9179 H   0  0  0  0  0  0  0  0  0  0  0  0
  149.9809  140.8127  154.8873 H   0  0  0  0  0  0  0  0  0  0  0  0
  152.4223  139.1148  157.4925 H   0  0  0  0  0  0  0  0  0  0  0  0
  150.8228  138.5929  157.0179 H   0  0  0  0  0  0  0  0  0  0  0  0
  152.8170  137.8350  155.5075 H   0  0  0  0  0  0  0  0  0  0  0  0
  152.7302  139.9833  153.9651 H   0  0  0  0  0  0  0  0  0  0  0  0
  150.3790  139.2377  154.3077 H   0  0  0  0  0  0  0  0  0  0  0  0
  151.4890  138.2827  153.3504 H   0  0  0  0  0  0  0  0  0  0  0  0
  148.3758  137.8559  155.1511 H   0  0  0  0  0  0  0  0  0  0  0  0
  152.8403  140.3777  159.0756 H   0  0  0  0  0  0  0  0  0  0  0  0
  153.8435  141.3133  160.9845 H   0  0  0  0  0  0  0  0  0  0  0  0
  152.8272  142.5023  161.7963 H   0  0  0  0  0  0  0  0  0  0  0  0
  154.2514  143.0234  160.8829 H   0  0  0  0  0  0  0  0  0  0  0  0
  149.7517  143.2400  155.6950 H   0  0  0  0  0  0  0  0  0  0  0  0
  1  2  1  0  0  0  0
  1 23  1  0  0  0  0
  1 24  1  0  0  0  0
  1 25  1  0  0  0  0
  2 21  1  0  0  0  0
  2  3  2  0  0  0  0
  3  4  1  0  0  0  0
  3 26  1  0  0  0  0
  4 19  2  0  0  0  0
  4  5  1  0  0  0  0
  5  6  2  0  0  0  0
  5 39  1  0  0  0  0
  6  7  1  0  0  0  0
  6 27  1  0  0  0  0
  7  8  1  0  0  0  0
  7 19  1  0  0  0  0
  8  9  1  0  0  0  0
  8 28  1  0  0  0  0
  8 29  1  0  0  0  0
  9 10  1  0  0  0  0
  9 11  1  0  0  0  0
  9 30  1  0  0  0  0
 10 31  1  0  0  0  0
 11 12  1  0  0  0  0
 11 32  1  0  0  0  0
 11 33  1  0  0  0  0
 12 18  1  0  0  0  0
 12 13  1  0  0  0  0
 13 14  2  0  0  0  0
 13 34  1  0  0  0  0
 14 15  1  0  0  0  0
 15 16  1  0  0  0  0
 15 18  2  0  0  0  0
 16 17  3  0  0  0  0
 19 20  1  0  0  0  0
 20 21  2  0  0  0  0
 20 35  1  0  0  0  0
 21 22  1  0  0  0  0
 22 36  1  0  0  0  0
 22 37  1  0  0  0  0
 22 38  1  0  0  0  0
M  CHG  1   5   1
M  END
> <s_m_source_file>
AV-unprocessed.smi

> <i_m_source_file_index>
298

> <i_lp_mmshare_version>
43012

> <i_f3d_flags>
0

> <s_epik_input>
W0NIM11jKFtjSF0xKWMoW0NIM10pW2NIXWMoYzEyKW4oW2NIXW4yKVtDSDJdW0NASF0oW09IXSlbQ0gyXW4zW2NIXW5jKG4zKUMjTg==

> <s_epik_cmdline>
J2VwaWtfcHl0aG9uJywgJy1waCcsICc3LjAnLCAnLXRuJywgJzgnLCAnLW1hJywgJzIwMCcsICctbWV0YWxfYmluZGluZycsICctaW1hZScsICc8aW5maWxlLm1hZT4nLCAnLW9tYWUnLCAnPG91dGZpbGUubWFlPic=

> <r_epik_Ionization_Penalty>
1.12076

> <r_epik_Ionization_Penalty_Charging>
1.12075

> <r_epik_Ionization_Penalty_Neutral>
1.54565e-06

> <r_epik_State_Penalty>
1.17957

> <r_epik_Charging_Adjusted_Penalty>
2.30033

> <i_epik_Tot_Q>
1

> <i_epik_Tot_abs_Q>
1

> <r_epik_Metal_State_Penalty>
1.26402

> <b_epik_Metal_Only>
0

> <s_lp_Force_Field>
OPLS_2005

> <r_lp_Energy>
16.3626

> <b_lp_Chiralities_Consistent>
1

> <s_lp_Variant>
AV-unprocessed.smi:298-3

> <Gold.Version>
5.8.1

> <Gold.Id.Protein>
6NUR|6NUR_protein|mol2

> <Gold.PLP.Fitness>
59.3204

> <Gold.PLP.PLP>
-48.0222

> <Gold.PLP.part.hbond>
-4.0000

> <Gold.PLP.part.metal>
0.0000

> <Gold.PLP.part.buried>
-5.9985

> <Gold.PLP.part.nonpolar>
-39.0639

> <Gold.PLP.part.repulsive>
0.3954

> <Gold.PLP.ligand.clash>
0.0000

> <Gold.PLP.ligand.torsion>
0.3628

> <Gold.PLP.Chemscore.Hbond>
4.0000

> <Gold.PLP.Chemscore.CHOScore>
0.0000

> <Gold.PLP.Chemscore.Metal>
0.0000

> <Gold.Chemscore.Hbonds>
donor molecule, donor type, donor heavy atom, donor atom, acceptor molecule, acceptor atom, score
      L1  H     5    39       P1  8028  2.00
      P1  H  7997  8009       L1    10  1.00
      P1  H 10752 10765       L1    18  1.00

> <Gold.PLP.Chemscore.Internal.Correction>
0.0238

> <Gold.Rescore>
     Score         DG    S(hbond)    S(metal)    S(lipo)     H(rot)  DE(clash)    DE(int)     intcor
     18.93     -19.31       2.88        0.00     103.45       3.09       0.04       0.34       ----

> <Gold.Chemscore.Fitness>
18.9292

> <Gold.Chemscore.DG>
-19.3070

> <Gold.Chemscore.ZeroCoef>
-5.4800

> <Gold.Chemscore.Hbond>
2.8839

> <Gold.Chemscore.Metal>
0.0000

> <Gold.Chemscore.Lipo>
103.4462

> <Gold.Chemscore.Internal_Hbond>
0.0000

> <Gold.Chemscore.DEClash>
0.0392

> <Gold.Chemscore.DEInternal>
0.3386

> <Gold.Chemscore.Rot>
3.0892

> <Gold.Chemscore.Internal.Correction>
   9.000000E+99

> <Gold.Chemscore.Hbonds>
donor molecule, donor type, donor heavy atom, donor atom, acceptor molecule, acceptor atom, score
      L1  H     5    39       P1  8028  0.96
      P1  H  7997  8009       L1    10  0.93
      P1  H 10752 10765       L1    18  0.95

> <Gold.Chemscore.Hbond.Weighted>
-9.6323

> <Gold.Chemscore.Metal.Weighted>
-0.0000

> <Gold.Chemscore.Lipo.Weighted>
-12.1032

> <Gold.Chemscore.Internal_Hbond.Weighted>
0.0000

> <Gold.Chemscore.DEClash.Weighted>
0.0392

> <Gold.Chemscore.DEInternal.Weighted>
0.3386

> <Gold.Chemscore.Rot.Weighted>
7.9084

> <Gold.Chemscore.Internal.Correction.Weighted>
   9.000000E+99

> <Gold.Protein.RotatedTorsions>
[ 6907 6896 6895 6894 ] final  134.66 input  -60.11 | X-H torsion
[ 7974 7965 7964 7962 ] final   -0.06 input  175.53 | X-H torsion
[ 8008 7997 7996 7995 ] final -133.19 input   59.86 | X-H torsion
[ 10167 10162 10161 10158 ] final  108.71 input  -65.29 | X-H torsion
[ 10718 10713 10712 10709 ] final   83.74 input   66.30 | X-H torsion
[ 10763 10752 10751 10750 ] final  176.25 input  -60.55 | X-H torsion
[ 11005 11000 10999 10996 ] final -140.54 input  -57.11 | X-H torsion

> <Gold.Protein.ActiveResidues>
 VAL166  LYS551  ARG553  GLY616  TRP617  ASP618  TYR619  PRO620  LYS621  CYS622 
 ASP623  PHE694  ASN695  SER759  ASP760  ASP761  ALA762  ILE779  LEU786  VAL792 
 PHE793  MET794  SER795  GLU796  ALA797  LYS798  CYS799  TRP800  GLU811  SER814 

> <Gold.Protein.RotatedAtoms>
  152.3089  133.5732  159.5667 H   0  0  0  0  0  0  0  0  0  0  0  0  # atno 6907 bound_to 6896
  150.7313  134.0181  159.3701 H   0  0  0  0  0  0  0  0  0  0  0  0  # atno 6908 bound_to 6896
  151.8076  135.0691  160.0459 H   0  0  0  0  0  0  0  0  0  0  0  0  # atno 6909 bound_to 6896
  146.2430  140.1213  142.8340 H   0  0  0  0  0  0  0  0  0  0  0  0  # atno 7974 bound_to 7965
  155.3413  140.0472  157.3045 H   0  0  0  0  0  0  0  0  0  0  0  0  # atno 8008 bound_to 7997
  154.5276  140.2246  155.8827 H   0  0  0  0  0  0  0  0  0  0  0  0  # atno 8009 bound_to 7997
  156.1755  140.3086  155.9057 H   0  0  0  0  0  0  0  0  0  0  0  0  # atno 8010 bound_to 7997
  139.6824  144.7117  151.1492 H   0  0  0  0  0  0  0  0  0  0  0  0  # atno 10167 bound_to 10162
  157.6885  131.0104  150.2569 H   0  0  0  0  0  0  0  0  0  0  0  0  # atno 10718 bound_to 10713
  154.4786  135.2774  155.1588 H   0  0  0  0  0  0  0  0  0  0  0  0  # atno 10763 bound_to 10752
  154.3307  135.6190  153.5554 H   0  0  0  0  0  0  0  0  0  0  0  0  # atno 10764 bound_to 10752
  152.9872  135.5765  154.5182 H   0  0  0  0  0  0  0  0  0  0  0  0  # atno 10765 bound_to 10752
  140.8413  134.2399  157.4809 H   0  0  0  0  0  0  0  0  0  0  0  0  # atno 11005 bound_to 11000
  145.0404  140.8941  143.5056 LP  0  0  0  0  0  0  0  0  0  0  0  0  # atno 17320 bound_to 7965
  145.1292  139.2643  143.5548 LP  0  0  0  0  0  0  0  0  0  0  0  0  # atno 17321 bound_to 7965
  140.7656  143.5679  150.9027 LP  0  0  0  0  0  0  0  0  0  0  0  0  # atno 17342 bound_to 10162
  139.9352  143.6446  152.3067 LP  0  0  0  0  0  0  0  0  0  0  0  0  # atno 17343 bound_to 10162
  156.3155  130.3778  149.7622 LP  0  0  0  0  0  0  0  0  0  0  0  0  # atno 17370 bound_to 10713
  156.5209  130.8214  151.3203 LP  0  0  0  0  0  0  0  0  0  0  0  0  # atno 17371 bound_to 10713
  139.8703  134.9636  156.4469 LP  0  0  0  0  0  0  0  0  0  0  0  0  # atno 17394 bound_to 11000
  140.8892  133.7860  155.9553 LP  0  0  0  0  0  0  0  0  0  0  0  0  # atno 17395 bound_to 11000

$$$$
