AV-unprocessed.smi:419|AV-procd|sdf|2530|dock3
  -GOLD-   2262022483D 1   1.00000     0.00000
 Structure written by MMmdl.
 44 46  0  0  0  0  0  0  0  0  1 V2000
  151.7034  134.1938  154.6516 C   0  0  0  0  0  0  0  0  0  0  0  0
  150.5495  135.0201  154.7031 O   0  0  0  0  0  0  0  0  0  0  0  0
  150.7132  136.3754  154.5120 C   0  0  0  0  0  0  0  0  0  0  0  0
  149.5559  137.1763  154.5672 C   0  0  0  0  0  0  0  0  0  0  0  0
  149.6339  138.5697  154.3830 C   0  0  0  0  0  0  0  0  0  0  0  0
  150.8715  139.1968  154.1396 C   0  0  0  0  0  0  0  0  0  0  0  0
  150.8592  140.5651  153.9720 O   0  0  0  0  0  0  0  0  0  0  0  0
  149.8190  141.3099  154.5926 C   0  0  0  0  0  0  0  0  0  0  0  0
  150.1778  141.5292  156.0715 C   0  0  2  0  0  0  0  0  0  0  0  0
  149.0452  142.0978  156.6985 O   0  0  0  0  0  0  0  0  0  0  0  0
  151.3511  142.5174  156.2346 C   0  0  0  0  0  0  0  0  0  0  0  0
  152.0926  142.2836  157.4731 N   0  0  0  0  0  0  0  0  0  0  0  0
  152.8772  141.2154  157.7522 C   0  0  0  0  0  0  0  0  0  0  0  0
  153.0904  140.2622  157.0030 O   0  0  0  0  0  0  0  0  0  0  0  0
  153.3847  141.3811  158.9959 N   0  0  0  0  0  0  0  0  0  0  0  0
  154.2846  140.4789  159.7042 C   0  0  0  0  0  0  0  0  0  0  0  0
  152.9145  142.5888  159.5270 C   0  0  0  0  0  0  0  0  0  0  0  0
  153.1524  143.2048  160.7675 C   0  0  0  0  0  0  0  0  0  0  0  0
  152.5143  144.4446  161.0055 C   0  0  0  0  0  0  0  0  0  0  0  0
  151.6712  145.0282  160.0243 C   0  0  0  0  0  0  0  0  0  0  0  0
  151.4501  144.3861  158.7832 C   0  0  0  0  0  0  0  0  0  0  0  0
  152.0988  143.1569  158.5710 C   0  0  0  0  0  0  0  0  0  0  0  0
  152.0384  138.3956  154.0832 C   0  0  0  0  0  0  0  0  0  0  0  0
  151.9604  137.0013  154.2672 C   0  0  0  0  0  0  0  0  0  0  0  0
  151.4117  133.1572  154.8197 H   0  0  0  0  0  0  0  0  0  0  0  0
  152.4221  134.4635  155.4268 H   0  0  0  0  0  0  0  0  0  0  0  0
  152.1875  134.2456  153.6754 H   0  0  0  0  0  0  0  0  0  0  0  0
  148.5959  136.7174  154.7537 H   0  0  0  0  0  0  0  0  0  0  0  0
  148.7330  139.1638  154.4303 H   0  0  0  0  0  0  0  0  0  0  0  0
  149.7480  142.2763  154.0909 H   0  0  0  0  0  0  0  0  0  0  0  0
  148.8521  140.8121  154.4958 H   0  0  0  0  0  0  0  0  0  0  0  0
  150.4212  140.5713  156.5336 H   0  0  0  0  0  0  0  0  0  0  0  0
  149.1402  143.0381  156.6886 H   0  0  0  0  0  0  0  0  0  0  0  0
  152.0532  142.3932  155.4086 H   0  0  0  0  0  0  0  0  0  0  0  0
  151.0077  143.5505  156.1702 H   0  0  0  0  0  0  0  0  0  0  0  0
  153.9030  140.2708  160.7040 H   0  0  0  0  0  0  0  0  0  0  0  0
  155.2707  140.9331  159.8020 H   0  0  0  0  0  0  0  0  0  0  0  0
  154.3997  139.5258  159.1863 H   0  0  0  0  0  0  0  0  0  0  0  0
  153.7944  142.7532  161.5093 H   0  0  0  0  0  0  0  0  0  0  0  0
  152.6705  144.9528  161.9457 H   0  0  0  0  0  0  0  0  0  0  0  0
  151.1919  145.9745  160.2274 H   0  0  0  0  0  0  0  0  0  0  0  0
  150.8077  144.8260  158.0349 H   0  0  0  0  0  0  0  0  0  0  0  0
  153.0108  138.8266  153.9001 H   0  0  0  0  0  0  0  0  0  0  0  0
  152.8763  136.4326  154.2160 H   0  0  0  0  0  0  0  0  0  0  0  0
  1  2  1  0  0  0  0
  1 25  1  0  0  0  0
  1 26  1  0  0  0  0
  1 27  1  0  0  0  0
  2  3  1  0  0  0  0
  3 24  1  0  0  0  0
  3  4  2  0  0  0  0
  4  5  1  0  0  0  0
  4 28  1  0  0  0  0
  5  6  2  0  0  0  0
  5 29  1  0  0  0  0
  6  7  1  0  0  0  0
  6 23  1  0  0  0  0
  7  8  1  0  0  0  0
  8  9  1  0  0  0  0
  8 30  1  0  0  0  0
  8 31  1  0  0  0  0
  9 10  1  0  0  0  0
  9 11  1  0  0  0  0
  9 32  1  0  0  0  0
 10 33  1  0  0  0  0
 11 12  1  0  0  0  0
 11 34  1  0  0  0  0
 11 35  1  0  0  0  0
 12 22  1  0  0  0  0
 12 13  1  0  0  0  0
 13 14  2  0  0  0  0
 13 15  1  0  0  0  0
 15 16  1  0  0  0  0
 15 17  1  0  0  0  0
 16 36  1  0  0  0  0
 16 37  1  0  0  0  0
 16 38  1  0  0  0  0
 17 22  2  0  0  0  0
 17 18  1  0  0  0  0
 18 19  2  0  0  0  0
 18 39  1  0  0  0  0
 19 20  1  0  0  0  0
 19 40  1  0  0  0  0
 20 21  2  0  0  0  0
 20 41  1  0  0  0  0
 21 22  1  0  0  0  0
 21 42  1  0  0  0  0
 23 24  2  0  0  0  0
 23 43  1  0  0  0  0
 24 44  1  0  0  0  0
M  END
> <s_m_source_file>
AV-unprocessed.smi

> <i_m_source_file_index>
419

> <i_lp_mmshare_version>
43012

> <i_f3d_flags>
0

> <s_epik_input>
W0NIM11PYzFbY0hdW2NIXWMoW2NIXVtjSF0xKU9bQ0gyXVtDQEhdKFtPSF0pW0NIMl1uKGMoPU8pbjJbQ0gzXSljKGMyMylbY0hdW2NIXVtjSF1bY0hdMw==

> <s_epik_cmdline>
J2VwaWtfcHl0aG9uJywgJy1waCcsICc3LjAnLCAnLXRuJywgJzgnLCAnLW1hJywgJzIwMCcsICctbWV0YWxfYmluZGluZycsICctaW1hZScsICc8aW5maWxlLm1hZT4nLCAnLW9tYWUnLCAnPG91dGZpbGUubWFlPic=

> <r_lp_tautomer_probability>
1

> <r_epik_Ionization_Penalty>
2.40131e-06

> <r_epik_Ionization_Penalty_Charging>
2.01037e-09

> <r_epik_Ionization_Penalty_Neutral>
2.3993e-06

> <r_epik_State_Penalty>
-0

> <r_epik_Charging_Adjusted_Penalty>
2.01037e-09

> <i_epik_Tot_Q>
0

> <i_epik_Tot_abs_Q>
0

> <r_epik_Metal_State_Penalty>
-0

> <b_epik_Metal_Only>
0

> <s_lp_Force_Field>
OPLS_2005

> <r_lp_Energy>
51.0107

> <b_lp_Chiralities_Consistent>
1

> <s_lp_Variant>
AV-unprocessed.smi:419-1

> <Gold.Version>
5.8.1

> <Gold.Id.Protein>
6NUR|6NUR_protein|mol2

> <Gold.PLP.Fitness>
56.0536

> <Gold.PLP.PLP>
-51.3682

> <Gold.PLP.part.hbond>
-2.7850

> <Gold.PLP.part.metal>
0.0000

> <Gold.PLP.part.buried>
-6.4278

> <Gold.PLP.part.nonpolar>
-41.6080

> <Gold.PLP.part.repulsive>
0.2215

> <Gold.PLP.ligand.clash>
0.0000

> <Gold.PLP.ligand.torsion>
0.9173

> <Gold.PLP.Chemscore.Hbond>
2.1228

> <Gold.PLP.Chemscore.CHOScore>
0.0000

> <Gold.PLP.Chemscore.Metal>
0.0000

> <Gold.Chemscore.Hbonds>
donor molecule, donor type, donor heavy atom, donor atom, acceptor molecule, acceptor atom, score
      L1  H    10    33       P1  8028  0.94
      P1  H  7997  8010       L1    14  0.29

> <Gold.PLP.Chemscore.Internal.Correction>
0.1516

> <Gold.Rescore>
     Score         DG    S(hbond)    S(metal)    S(lipo)     H(rot)  DE(clash)    DE(int)     intcor
     20.60     -21.38       1.83        0.00     135.95       2.40       0.16       0.62       ----

> <Gold.Chemscore.Fitness>
20.5990

> <Gold.Chemscore.DG>
-21.3762

> <Gold.Chemscore.ZeroCoef>
-5.4800

> <Gold.Chemscore.Hbond>
1.8328

> <Gold.Chemscore.Metal>
0.0000

> <Gold.Chemscore.Lipo>
135.9514

> <Gold.Chemscore.Internal_Hbond>
0.0000

> <Gold.Chemscore.DEClash>
0.1606

> <Gold.Chemscore.DEInternal>
0.6166

> <Gold.Chemscore.Rot>
2.3952

> <Gold.Chemscore.Internal.Correction>
   9.000000E+99

> <Gold.Chemscore.Hbonds>
donor molecule, donor type, donor heavy atom, donor atom, acceptor molecule, acceptor atom, score
      L1  H    10    33       P1  8028  0.88
      P1  H  7997  8010       L1    14  0.12

> <Gold.Chemscore.Hbond.Weighted>
-6.1215

> <Gold.Chemscore.Metal.Weighted>
-0.0000

> <Gold.Chemscore.Lipo.Weighted>
-15.9063

> <Gold.Chemscore.Internal_Hbond.Weighted>
0.0000

> <Gold.Chemscore.DEClash.Weighted>
0.1606

> <Gold.Chemscore.DEInternal.Weighted>
0.6166

> <Gold.Chemscore.Rot.Weighted>
6.1316

> <Gold.Chemscore.Internal.Correction.Weighted>
   9.000000E+99

> <Gold.Protein.RotatedTorsions>
[ 6907 6896 6895 6894 ] final   56.83 input  -60.11 | X-H torsion
[ 7974 7965 7964 7962 ] final  124.01 input  175.53 | X-H torsion
[ 8008 7997 7996 7995 ] final   22.20 input   59.86 | X-H torsion
[ 10167 10162 10161 10158 ] final  -70.74 input  -65.29 | X-H torsion
[ 10718 10713 10712 10709 ] final  -20.34 input   66.30 | X-H torsion
[ 10763 10752 10751 10750 ] final  134.85 input  -60.55 | X-H torsion
[ 11005 11000 10999 10996 ] final  121.33 input  -57.11 | X-H torsion

> <Gold.Protein.ActiveResidues>
 VAL166  LYS551  ARG553  GLY616  TRP617  ASP618  TYR619  PRO620  LYS621  CYS622 
 ASP623  PHE694  ASN695  SER759  ASP760  ASP761  ALA762  ILE779  LEU786  VAL792 
 PHE793  MET794  SER795  GLU796  ALA797  LYS798  CYS799  TRP800  GLU811  SER814 

> <Gold.Protein.RotatedAtoms>
  152.3673  134.6785  160.0187 H   0  0  0  0  0  0  0  0  0  0  0  0  # atno 6907 bound_to 6896
  151.7089  133.3306  159.3293 H   0  0  0  0  0  0  0  0  0  0  0  0  # atno 6908 bound_to 6896
  150.7648  134.6484  159.6319 H   0  0  0  0  0  0  0  0  0  0  0  0  # atno 6909 bound_to 6896
  145.0893  139.3599  143.4869 H   0  0  0  0  0  0  0  0  0  0  0  0  # atno 7974 bound_to 7965
  154.9621  140.3079  155.5026 H   0  0  0  0  0  0  0  0  0  0  0  0  # atno 8008 bound_to 7997
  156.2976  140.2299  156.4646 H   0  0  0  0  0  0  0  0  0  0  0  0  # atno 8009 bound_to 7997
  154.7955  140.0437  157.1222 H   0  0  0  0  0  0  0  0  0  0  0  0  # atno 8010 bound_to 7997
  140.5329  143.2320  151.7230 H   0  0  0  0  0  0  0  0  0  0  0  0  # atno 10167 bound_to 10162
  156.5332  130.4660  149.6536 H   0  0  0  0  0  0  0  0  0  0  0  0  # atno 10718 bound_to 10713
  153.8304  135.3104  155.3418 H   0  0  0  0  0  0  0  0  0  0  0  0  # atno 10763 bound_to 10752
  154.7975  135.4746  154.0199 H   0  0  0  0  0  0  0  0  0  0  0  0  # atno 10764 bound_to 10752
  153.1637  135.6865  153.8796 H   0  0  0  0  0  0  0  0  0  0  0  0  # atno 10765 bound_to 10752
  139.9222  134.9638  156.7943 H   0  0  0  0  0  0  0  0  0  0  0  0  # atno 11005 bound_to 11000
  146.3531  140.0720  142.8622 LP  0  0  0  0  0  0  0  0  0  0  0  0  # atno 17320 bound_to 7965
  145.1085  140.9390  143.4670 LP  0  0  0  0  0  0  0  0  0  0  0  0  # atno 17321 bound_to 7965
  139.4960  144.4087  152.0104 LP  0  0  0  0  0  0  0  0  0  0  0  0  # atno 17342 bound_to 10162
  140.3191  144.3449  150.6014 LP  0  0  0  0  0  0  0  0  0  0  0  0  # atno 17343 bound_to 10162
  156.3041  130.7193  151.2071 LP  0  0  0  0  0  0  0  0  0  0  0  0  # atno 17370 bound_to 10713
  157.7418  131.0498  150.5069 LP  0  0  0  0  0  0  0  0  0  0  0  0  # atno 17371 bound_to 10713
  140.6442  133.9790  155.7722 LP  0  0  0  0  0  0  0  0  0  0  0  0  # atno 17394 bound_to 11000
  141.0751  134.0147  157.3469 LP  0  0  0  0  0  0  0  0  0  0  0  0  # atno 17395 bound_to 11000

$$$$
