AV-unprocessed.smi:1|AV-procd|sdf|8|dock6
  -GOLD-   2262015 93D 1   1.00000     0.00000
 Structure written by MMmdl.
 57 62  0  0  0  0  0  0  0  0  1 V2000
  149.8798  141.4294  156.6244 O   0  0  0  0  0  0  0  0  0  0  0  0
  150.9568  141.3848  157.2199 C   0  0  0  0  0  0  0  0  0  0  0  0
  151.9378  140.3440  156.9676 N   0  0  0  0  0  0  0  0  0  0  0  0
  151.8278  139.2706  156.1503 C   0  0  0  0  0  0  0  0  0  0  0  0
  151.4985  139.3852  154.8376 N   0  0  0  0  0  0  0  0  0  0  0  0
  151.4011  138.2953  154.0734 C   0  0  0  0  0  0  0  0  0  0  0  0
  151.5886  137.0194  154.4152 N   0  0  0  0  0  0  0  0  0  0  0  0
  151.9259  136.8891  155.7323 C   0  0  0  0  0  0  0  0  0  0  0  0
  152.0602  137.9651  156.6559 C   0  0  0  0  0  0  0  0  0  0  0  0
  152.4009  137.4745  157.9081 N   0  0  0  0  0  0  0  0  0  0  0  0
  152.4623  136.1832  157.7332 C   0  0  0  0  0  0  0  0  0  0  0  0
  152.2057  135.7398  156.4539 N   0  0  0  0  0  0  0  0  0  0  0  0
  152.2140  134.3072  155.9943 C   0  0  1  0  0  0  0  0  0  0  0  0
  152.5517  133.4637  157.0521 O   0  0  0  0  0  0  0  0  0  0  0  0
  151.3799  132.8478  157.5728 C   0  0  2  0  0  0  0  0  0  0  0  0
  151.7452  131.5747  158.3403 C   0  0  0  0  0  0  0  0  0  0  0  0
  151.7530  131.8709  159.7265 O   0  0  0  0  0  0  0  0  0  0  0  0
  151.1087  131.0699  160.5955 C   0  0  0  0  0  0  0  0  0  0  0  0
  150.9538  129.8593  160.4223 O   0  0  0  0  0  0  0  0  0  0  0  0
  150.5966  131.8048  161.7880 C   0  0  0  0  0  0  0  0  0  0  0  0
  150.9925  133.1457  162.0019 C   0  0  0  0  0  0  0  0  0  0  0  0
  150.5253  133.8612  163.1220 C   0  0  0  0  0  0  0  0  0  0  0  0
  149.6556  133.2450  164.0407 C   0  0  0  0  0  0  0  0  0  0  0  0
  149.2521  131.9122  163.8374 C   0  0  0  0  0  0  0  0  0  0  0  0
  149.7185  131.1960  162.7179 C   0  0  0  0  0  0  0  0  0  0  0  0
  150.5471  132.6005  156.3172 C   0  0  1  0  0  0  0  0  0  0  0  0
  149.1613  132.5345  156.6045 O   0  0  0  0  0  0  0  0  0  0  0  0
  148.5029  134.0611  156.4370 S   0  0  0  0  0  0  0  0  0  0  0  0
  147.4393  133.9940  155.4233 O   0  0  0  0  0  0  0  0  0  0  0  0
  148.2846  134.6212  157.7793 O   0  0  0  0  0  0  0  0  0  0  0  0
  149.8225  134.8283  155.7624 O   0  0  0  0  0  0  0  0  0  0  0  0
  150.8265  133.8618  155.4872 C   0  0  1  0  0  0  0  0  0  0  0  0
  151.3649  142.4538  158.1915 C   0  0  0  0  0  0  0  0  0  0  0  0
  152.2586  142.1486  159.2426 C   0  0  0  0  0  0  0  0  0  0  0  0
  152.6610  143.1479  160.1496 C   0  0  0  0  0  0  0  0  0  0  0  0
  152.1787  144.4628  160.0095 C   0  0  0  0  0  0  0  0  0  0  0  0
  151.2970  144.7787  158.9586 C   0  0  0  0  0  0  0  0  0  0  0  0
  150.8940  143.7801  158.0506 C   0  0  0  0  0  0  0  0  0  0  0  0
  152.8035  140.4192  157.4815 H   0  0  0  0  0  0  0  0  0  0  0  0
  151.1369  138.4730  153.0417 H   0  0  0  0  0  0  0  0  0  0  0  0
  152.7095  135.5085  158.5401 H   0  0  0  0  0  0  0  0  0  0  0  0
  152.9891  134.2770  155.2277 H   0  0  0  0  0  0  0  0  0  0  0  0
  150.8575  133.5481  158.2257 H   0  0  0  0  0  0  0  0  0  0  0  0
  151.0027  130.8005  158.1422 H   0  0  0  0  0  0  0  0  0  0  0  0
  152.7167  131.1944  158.0222 H   0  0  0  0  0  0  0  0  0  0  0  0
  151.6605  133.6389  161.3104 H   0  0  0  0  0  0  0  0  0  0  0  0
  150.8353  134.8843  163.2756 H   0  0  0  0  0  0  0  0  0  0  0  0
  149.2973  133.7938  164.8992 H   0  0  0  0  0  0  0  0  0  0  0  0
  148.5827  131.4378  164.5398 H   0  0  0  0  0  0  0  0  0  0  0  0
  149.3866  130.1771  162.5872 H   0  0  0  0  0  0  0  0  0  0  0  0
  150.8866  131.7086  155.7891 H   0  0  0  0  0  0  0  0  0  0  0  0
  150.8583  133.6544  154.4172 H   0  0  0  0  0  0  0  0  0  0  0  0
  152.6386  141.1441  159.3631 H   0  0  0  0  0  0  0  0  0  0  0  0
  153.3410  142.9048  160.9528 H   0  0  0  0  0  0  0  0  0  0  0  0
  152.4876  145.2290  160.7051 H   0  0  0  0  0  0  0  0  0  0  0  0
  150.9314  145.7888  158.8468 H   0  0  0  0  0  0  0  0  0  0  0  0
  150.2239  144.0471  157.2462 H   0  0  0  0  0  0  0  0  0  0  0  0
  1  2  2  0  0  0  0
  2  3  1  0  0  0  0
  2 33  1  0  0  0  0
  3  4  1  0  0  0  0
  3 39  1  0  0  0  0
  4  9  1  0  0  0  0
  4  5  2  0  0  0  0
  5  6  1  0  0  0  0
  6  7  2  0  0  0  0
  6 40  1  0  0  0  0
  7  8  1  0  0  0  0
  8 12  1  0  0  0  0
  8  9  2  0  0  0  0
  9 10  1  0  0  0  0
 10 11  2  0  0  0  0
 11 12  1  0  0  0  0
 11 41  1  0  0  0  0
 12 13  1  0  0  0  0
 13 32  1  0  0  0  0
 13 14  1  0  0  0  0
 13 42  1  0  0  0  0
 14 15  1  0  0  0  0
 15 16  1  0  0  0  0
 15 26  1  0  0  0  0
 15 43  1  0  0  0  0
 16 17  1  0  0  0  0
 16 44  1  0  0  0  0
 16 45  1  0  0  0  0
 17 18  1  0  0  0  0
 18 19  2  0  0  0  0
 18 20  1  0  0  0  0
 20 25  1  0  0  0  0
 20 21  2  0  0  0  0
 21 22  1  0  0  0  0
 21 46  1  0  0  0  0
 22 23  2  0  0  0  0
 22 47  1  0  0  0  0
 23 24  1  0  0  0  0
 23 48  1  0  0  0  0
 24 25  2  0  0  0  0
 24 49  1  0  0  0  0
 25 50  1  0  0  0  0
 26 32  1  0  0  0  0
 26 27  1  0  0  0  0
 26 51  1  0  0  0  0
 27 28  1  0  0  0  0
 28 29  2  0  0  0  0
 28 30  2  0  0  0  0
 28 31  1  0  0  0  0
 31 32  1  0  0  0  0
 32 52  1  0  0  0  0
 33 38  1  0  0  0  0
 33 34  2  0  0  0  0
 34 35  1  0  0  0  0
 34 53  1  0  0  0  0
 35 36  2  0  0  0  0
 35 54  1  0  0  0  0
 36 37  1  0  0  0  0
 36 55  1  0  0  0  0
 37 38  2  0  0  0  0
 37 56  1  0  0  0  0
 38 57  1  0  0  0  0
M  END
> <s_m_source_file>
AV-unprocessed.smi

> <i_m_source_file_index>
1

> <i_lp_mmshare_version>
43012

> <i_f3d_flags>
0

> <s_epik_input>
W2NIXTFbY0hdW2NIXVtjSF1bY0hdYzFDKD1PKVtOSF1jKG5bY0hdbjIpYyhjMjMpbltjSF1uM1tDQEBIXShbQ0BIXShbQ0BIXTQ1KU9TKE81KSg9Tyk9TylPW0NASF00W0NIMl1PQyg9TyljNltjSF1bY0hdW2NIXVtjSF1bY0hdNg==

> <s_epik_cmdline>
J2VwaWtfcHl0aG9uJywgJy1waCcsICc3LjAnLCAnLXRuJywgJzgnLCAnLW1hJywgJzIwMCcsICctbWV0YWxfYmluZGluZycsICctaW1hZScsICc8aW5maWxlLm1hZT4nLCAnLW9tYWUnLCAnPG91dGZpbGUubWFlPic=

> <r_lp_tautomer_probability>
1

> <r_epik_Ionization_Penalty>
0.00195722

> <r_epik_Ionization_Penalty_Charging>
0

> <r_epik_Ionization_Penalty_Neutral>
0.00195722

> <r_epik_State_Penalty>
0.00633741

> <r_epik_Charging_Adjusted_Penalty>
0.00633741

> <i_epik_Tot_Q>
0

> <i_epik_Tot_abs_Q>
0

> <r_epik_Metal_State_Penalty>
0.341185

> <b_epik_Metal_Only>
0

> <s_epik_Chemistry_Notes>
This compound has an ester and may undergo hydrolysis at high or low pH. This compound contains an acetal/aminal-like group ( X-CH(R)-Y where X, Y are N, S, or O) that may be acid/base labile, releasing an aldehyde.

> <s_lp_Force_Field>
OPLS_2005

> <r_lp_Energy>
42.577

> <b_lp_Chiralities_Consistent>
1

> <s_lp_Variant>
AV-unprocessed.smi:1-8

> <Gold.Version>
5.8.1

> <Gold.Id.Protein>
6NUR|6NUR_protein|mol2

> <Gold.PLP.Fitness>
59.1098

> <Gold.PLP.PLP>
-55.1361

> <Gold.PLP.part.hbond>
-3.0000

> <Gold.PLP.part.metal>
0.0000

> <Gold.PLP.part.buried>
-8.3770

> <Gold.PLP.part.nonpolar>
-44.9833

> <Gold.PLP.part.repulsive>
0.6627

> <Gold.PLP.ligand.clash>
0.0000

> <Gold.PLP.ligand.torsion>
2.1320

> <Gold.PLP.Chemscore.Hbond>
2.7040

> <Gold.PLP.Chemscore.CHOScore>
0.0000

> <Gold.PLP.Chemscore.Metal>
0.0000

> <Gold.Chemscore.Hbonds>
donor molecule, donor type, donor heavy atom, donor atom, acceptor molecule, acceptor atom, score
      P1  H  7989  7998       L1     5  1.00
      P1  H 10752 10765       L1     7  0.25
      L1  C     6    40       P1  7949  0.02
      L1  C     6    40       P1  7957  0.12

> <Gold.PLP.Chemscore.Internal.Correction>
0.1258

> <Gold.Rescore>
     Score         DG    S(hbond)    S(metal)    S(lipo)     H(rot)  DE(clash)    DE(int)     intcor
     15.44     -18.95       1.01        0.00     133.01       2.13       0.38       3.13       ----

> <Gold.Chemscore.Fitness>
15.4401

> <Gold.Chemscore.DG>
-18.9491

> <Gold.Chemscore.ZeroCoef>
-5.4800

> <Gold.Chemscore.Hbond>
1.0086

> <Gold.Chemscore.Metal>
0.0000

> <Gold.Chemscore.Lipo>
133.0064

> <Gold.Chemscore.Internal_Hbond>
0.0000

> <Gold.Chemscore.DEClash>
0.3789

> <Gold.Chemscore.DEInternal>
3.1301

> <Gold.Chemscore.Rot>
2.1333

> <Gold.Chemscore.Internal.Correction>
   9.000000E+99

> <Gold.Chemscore.Hbonds>
donor molecule, donor type, donor heavy atom, donor atom, acceptor molecule, acceptor atom, score
      P1  H  7989  7998       L1     5  0.38

> <Gold.Chemscore.Hbond.Weighted>
-3.3687

> <Gold.Chemscore.Metal.Weighted>
-0.0000

> <Gold.Chemscore.Lipo.Weighted>
-15.5617

> <Gold.Chemscore.Internal_Hbond.Weighted>
0.0000

> <Gold.Chemscore.DEClash.Weighted>
0.3789

> <Gold.Chemscore.DEInternal.Weighted>
3.1301

> <Gold.Chemscore.Rot.Weighted>
5.4614

> <Gold.Chemscore.Internal.Correction.Weighted>
   9.000000E+99

> <Gold.Protein.RotatedTorsions>
[ 6907 6896 6895 6894 ] final  100.34 input  -60.11 | X-H torsion
[ 7974 7965 7964 7962 ] final  -58.27 input  175.53 | X-H torsion
[ 8008 7997 7996 7995 ] final   63.40 input   59.86 | X-H torsion
[ 10167 10162 10161 10158 ] final -150.10 input  -65.29 | X-H torsion
[ 10718 10713 10712 10709 ] final -149.70 input   66.30 | X-H torsion
[ 10763 10752 10751 10750 ] final  150.17 input  -60.55 | X-H torsion
[ 11005 11000 10999 10996 ] final  -58.15 input  -57.11 | X-H torsion

> <Gold.Protein.ActiveResidues>
 VAL166  LYS551  ARG553  GLY616  TRP617  ASP618  TYR619  PRO620  LYS621  CYS622 
 ASP623  PHE694  ASN695  SER759  ASP760  ASP761  ALA762  ILE779  LEU786  VAL792 
 PHE793  MET794  SER795  GLU796  ALA797  LYS798  CYS799  TRP800  GLU811  SER814 

> <Gold.Protein.RotatedAtoms>
  152.5374  134.0291  159.8016 H   0  0  0  0  0  0  0  0  0  0  0  0  # atno 6907 bound_to 6896
  151.0465  133.5653  159.2653 H   0  0  0  0  0  0  0  0  0  0  0  0  # atno 6908 bound_to 6896
  151.2603  135.0659  159.9149 H   0  0  0  0  0  0  0  0  0  0  0  0  # atno 6909 bound_to 6896
  145.8413  140.8415  143.0033 H   0  0  0  0  0  0  0  0  0  0  0  0  # atno 7974 bound_to 7965
  155.6296  140.3496  155.4678 H   0  0  0  0  0  0  0  0  0  0  0  0  # atno 8008 bound_to 7997
  156.0014  140.1214  157.0567 H   0  0  0  0  0  0  0  0  0  0  0  0  # atno 8009 bound_to 7997
  154.4250  140.1100  156.5688 H   0  0  0  0  0  0  0  0  0  0  0  0  # atno 8010 bound_to 7997
  139.7384  143.8700  152.2555 H   0  0  0  0  0  0  0  0  0  0  0  0  # atno 10167 bound_to 10162
  156.4365  130.8101  151.2330 H   0  0  0  0  0  0  0  0  0  0  0  0  # atno 10718 bound_to 10713
  154.0831  135.2858  155.3286 H   0  0  0  0  0  0  0  0  0  0  0  0  # atno 10763 bound_to 10752
  154.6670  135.5313  153.8093 H   0  0  0  0  0  0  0  0  0  0  0  0  # atno 10764 bound_to 10752
  153.0441  135.6548  154.1005 H   0  0  0  0  0  0  0  0  0  0  0  0  # atno 10765 bound_to 10752
  141.1195  133.6611  156.4878 H   0  0  0  0  0  0  0  0  0  0  0  0  # atno 11005 bound_to 11000
  144.6733  140.0816  143.7469 LP  0  0  0  0  0  0  0  0  0  0  0  0  # atno 17320 bound_to 7965
  145.9462  139.2702  143.1239 LP  0  0  0  0  0  0  0  0  0  0  0  0  # atno 17321 bound_to 7965
  139.8643  144.7101  150.9062 LP  0  0  0  0  0  0  0  0  0  0  0  0  # atno 17342 bound_to 10162
  140.7782  143.3791  151.1509 LP  0  0  0  0  0  0  0  0  0  0  0  0  # atno 17343 bound_to 10162
  157.7507  131.0181  150.3614 LP  0  0  0  0  0  0  0  0  0  0  0  0  # atno 17370 bound_to 10713
  156.3963  130.3907  149.6992 LP  0  0  0  0  0  0  0  0  0  0  0  0  # atno 17371 bound_to 10713
  140.4548  134.6895  157.5057 LP  0  0  0  0  0  0  0  0  0  0  0  0  # atno 17394 bound_to 11000
  140.0142  134.6645  155.9335 LP  0  0  0  0  0  0  0  0  0  0  0  0  # atno 17395 bound_to 11000

$$$$
