AV-unprocessed.smi:1417|AV-procd|sdf|5771|dock10
  -GOLD-   22720 5413D 1   1.00000     0.00000
 Structure written by MMmdl.
 39 40  0  0  0  0  0  0  0  0  3 V2000
  152.9427  143.9787  161.4353 C   0  0  0  0  0  0  0  0  0  0  0  0
  152.3188  143.4343  160.1963 C   0  0  0  0  0  0  0  0  0  0  0  0
  151.1978  143.7751  159.4933 C   0  0  0  0  0  0  0  0  0  0  0  0
  151.2002  142.8414  158.4162 C   0  0  0  0  0  0  0  0  0  0  0  0
  150.2378  142.7527  157.3773 N   0  0  0  0  0  0  0  0  0  0  0  0
  149.5927  141.6630  156.9283 C   0  0  0  0  0  0  0  0  0  0  0  0
  149.7187  140.5238  157.3770 O   0  0  0  0  0  0  0  0  0  0  0  0
  148.7786  141.9666  155.9065 N   0  0  0  0  0  0  0  0  0  0  0  0
  147.9539  141.0070  155.1774 C   0  0  2  0  0  0  0  0  0  0  0  0
  148.8124  139.8518  154.6301 C   0  0  0  0  0  0  0  0  0  0  0  0
  147.9735  138.8918  153.7713 C   0  0  0  0  0  0  0  0  0  0  0  0
  147.2977  139.6153  152.6609 N   0  3  1  0  0  0  0  0  0  0  0  0
  146.5789  138.7122  151.7283 C   0  0  0  0  0  0  0  0  0  0  0  0
  145.7408  137.6987  152.5149 C   0  0  0  0  0  0  0  0  0  0  0  0
  144.4200  137.9456  152.4285 N   0  5  0  0  0  0  0  0  0  0  0  0
  146.3024  136.8012  153.1398 O   0  0  0  0  0  0  0  0  0  0  0  0
  146.4312  140.7084  153.1695 C   0  0  0  0  0  0  0  0  0  0  0  0
  147.2381  141.7102  154.0131 C   0  0  0  0  0  0  0  0  0  0  0  0
  152.2275  142.0134  158.4633 N   0  0  0  0  0  0  0  0  0  0  0  0
  152.9512  142.3871  159.6017 O   0  0  0  0  0  0  0  0  0  0  0  0
  152.2379  144.6055  161.9823 H   0  0  0  0  0  0  0  0  0  0  0  0
  153.8163  144.5837  161.1934 H   0  0  0  0  0  0  0  0  0  0  0  0
  153.2609  143.1729  162.0968 H   0  0  0  0  0  0  0  0  0  0  0  0
  150.5018  144.5662  159.7277 H   0  0  0  0  0  0  0  0  0  0  0  0
  150.0269  143.6235  156.9126 H   0  0  0  0  0  0  0  0  0  0  0  0
  148.7332  142.9288  155.6044 H   0  0  0  0  0  0  0  0  0  0  0  0
  147.1965  140.6019  155.8515 H   0  0  0  0  0  0  0  0  0  0  0  0
  149.6324  140.2502  154.0307 H   0  0  0  0  0  0  0  0  0  0  0  0
  149.2705  139.2989  155.4509 H   0  0  0  0  0  0  0  0  0  0  0  0
  148.6242  138.1123  153.3741 H   0  0  0  0  0  0  0  0  0  0  0  0
  147.2261  138.3918  154.3895 H   0  0  0  0  0  0  0  0  0  0  0  0
  145.9865  139.2916  151.0163 H   0  0  0  0  0  0  0  0  0  0  0  0
  147.2946  138.1376  151.1387 H   0  0  0  0  0  0  0  0  0  0  0  0
  144.0875  138.9064  152.5754 H   0  0  0  0  0  0  0  0  0  0  0  0
  145.9736  141.2357  152.3314 H   0  0  0  0  0  0  0  0  0  0  0  0
  145.6182  140.2841  153.7606 H   0  0  0  0  0  0  0  0  0  0  0  0
  146.5747  142.4870  154.3954 H   0  0  0  0  0  0  0  0  0  0  0  0
  147.9681  142.2122  153.3762 H   0  0  0  0  0  0  0  0  0  0  0  0
  148.0220  140.0559  152.1116 H   0  0  0  0  0  0  0  0  0  0  0  0
  1  2  1  0  0  0  0
  1 21  1  0  0  0  0
  1 22  1  0  0  0  0
  1 23  1  0  0  0  0
  2 20  1  0  0  0  0
  2  3  2  0  0  0  0
  3  4  1  0  0  0  0
  3 24  1  0  0  0  0
  4  5  1  0  0  0  0
  4 19  2  0  0  0  0
  5  6  1  0  0  0  0
  5 25  1  0  0  0  0
  6  7  2  0  0  0  0
  6  8  1  0  0  0  0
  8  9  1  0  0  0  0
  8 26  1  0  0  0  0
  9 18  1  0  0  0  0
  9 10  1  0  0  0  0
  9 27  1  0  0  0  0
 10 11  1  0  0  0  0
 10 28  1  0  0  0  0
 10 29  1  0  0  0  0
 11 12  1  0  0  0  0
 11 30  1  0  0  0  0
 11 31  1  0  0  0  0
 12 13  1  0  0  0  0
 12 17  1  0  0  0  0
 12 39  1  0  0  0  0
 13 14  1  0  0  0  0
 13 32  1  0  0  0  0
 13 33  1  0  0  0  0
 14 15  1  0  0  0  0
 14 16  2  0  0  0  0
 15 34  1  0  0  0  0
 17 18  1  0  0  0  0
 17 35  1  0  0  0  0
 17 36  1  0  0  0  0
 18 37  1  0  0  0  0
 18 38  1  0  0  0  0
 19 20  1  0  0  0  0
M  CHG  1  12   1
M  CHG  1  15  -1
M  END
> <s_m_source_file>
AV-unprocessed.smi

> <i_m_source_file_index>
1417

> <i_lp_mmshare_version>
43012

> <i_f3d_flags>
0

> <s_epik_input>
W0NIM11jMVtjSF1jKG5vMSlbTkhdQyg9TylbTkhdW0NIXTJbQ0gyXVtDSDJdTihbQ0gyXVtDSDJdMilbQ0gyXUMoPU8pW05IMl0=

> <s_epik_cmdline>
J2VwaWtfcHl0aG9uJywgJy1waCcsICc3LjAnLCAnLXRuJywgJzgnLCAnLW1hJywgJzIwMCcsICctbWV0YWxfYmluZGluZycsICctaW1hZScsICc8aW5maWxlLm1hZT4nLCAnLW9tYWUnLCAnPG91dGZpbGUubWFlPic=

> <r_epik_Ionization_Penalty>
5.73218

> <r_epik_Ionization_Penalty_Charging>
5.73215

> <r_epik_Ionization_Penalty_Neutral>
3.37968e-05

> <r_epik_State_Penalty>
6.58009

> <r_epik_Charging_Adjusted_Penalty>
12.3122

> <i_epik_Tot_Q>
0

> <i_epik_Tot_abs_Q>
2

> <r_epik_Metal_State_Penalty>
2.55295

> <b_epik_Metal_Only>
1

> <s_lp_Force_Field>
OPLS_2005

> <r_lp_Energy>
6.84109

> <b_lp_Chiralities_Consistent>
1

> <s_lp_Variant>
AV-unprocessed.smi:1417-7

> <Gold.Version>
5.8.1

> <Gold.Id.Protein>
6NUR|6NUR_protein|mol2

> <Gold.PLP.Fitness>
43.8731

> <Gold.PLP.PLP>
-33.4280

> <Gold.PLP.part.hbond>
-4.7888

> <Gold.PLP.part.metal>
0.0000

> <Gold.PLP.part.buried>
-4.5369

> <Gold.PLP.part.nonpolar>
-25.2196

> <Gold.PLP.part.repulsive>
0.9538

> <Gold.PLP.ligand.clash>
0.0054

> <Gold.PLP.ligand.torsion>
0.7119

> <Gold.PLP.Chemscore.Hbond>
3.9513

> <Gold.PLP.Chemscore.CHOScore>
0.0000

> <Gold.PLP.Chemscore.Metal>
0.0000

> <Gold.Chemscore.Hbonds>
donor molecule, donor type, donor heavy atom, donor atom, acceptor molecule, acceptor atom, score
      L1  H     5    25       P1  8028  1.00
      L1  H     8    26       P1  8028  1.00
      L1  H    12    39       P1  7957  1.00
      L1  H    15    34       P1 10175  1.00

> <Gold.PLP.Chemscore.Internal.Correction>
0.0206

> <Gold.Rescore>
     Score         DG    S(hbond)    S(metal)    S(lipo)     H(rot)  DE(clash)    DE(int)     intcor
     18.03     -22.03       3.90        0.00      74.13       2.02       1.01       2.99       ----

> <Gold.Chemscore.Fitness>
18.0340

> <Gold.Chemscore.DG>
-22.0284

> <Gold.Chemscore.ZeroCoef>
-5.4800

> <Gold.Chemscore.Hbond>
3.9043

> <Gold.Chemscore.Metal>
0.0000

> <Gold.Chemscore.Lipo>
74.1304

> <Gold.Chemscore.Internal_Hbond>
0.0000

> <Gold.Chemscore.DEClash>
1.0055

> <Gold.Chemscore.DEInternal>
2.9889

> <Gold.Chemscore.Rot>
2.0176

> <Gold.Chemscore.Internal.Correction>
   9.000000E+99

> <Gold.Chemscore.Hbonds>
donor molecule, donor type, donor heavy atom, donor atom, acceptor molecule, acceptor atom, score
      L1  H     5    25       P1  8028  0.91
      L1  H     8    26       P1  8028  1.00
      L1  H    12    39       P1  7957  0.97
      L1  H    15    34       P1 10175  0.98

> <Gold.Chemscore.Hbond.Weighted>
-13.0402

> <Gold.Chemscore.Metal.Weighted>
-0.0000

> <Gold.Chemscore.Lipo.Weighted>
-8.6733

> <Gold.Chemscore.Internal_Hbond.Weighted>
0.0000

> <Gold.Chemscore.DEClash.Weighted>
1.0055

> <Gold.Chemscore.DEInternal.Weighted>
2.9889

> <Gold.Chemscore.Rot.Weighted>
5.1651

> <Gold.Chemscore.Internal.Correction.Weighted>
   9.000000E+99

> <Gold.Protein.RotatedTorsions>
[ 6907 6896 6895 6894 ] final -141.01 input  -60.11 | X-H torsion
[ 7974 7965 7964 7962 ] final  -49.00 input  175.53 | X-H torsion
[ 8008 7997 7996 7995 ] final   40.63 input   59.86 | X-H torsion
[ 10167 10162 10161 10158 ] final   18.80 input  -65.29 | X-H torsion
[ 10718 10713 10712 10709 ] final   -7.02 input   66.30 | X-H torsion
[ 10763 10752 10751 10750 ] final   53.50 input  -60.55 | X-H torsion
[ 11005 11000 10999 10996 ] final -151.84 input  -57.11 | X-H torsion

> <Gold.Protein.ActiveResidues>
 VAL166  LYS551  ARG553  GLY616  TRP617  ASP618  TYR619  PRO620  LYS621  CYS622 
 ASP623  PHE694  ASN695  SER759  ASP760  ASP761  ALA762  ILE779  LEU786  VAL792 
 PHE793  MET794  SER795  GLU796  ALA797  LYS798  CYS799  TRP800  GLU811  SER814 

> <Gold.Protein.RotatedAtoms>
  151.0682  133.5488  159.2628 H   0  0  0  0  0  0  0  0  0  0  0  0  # atno 6907 bound_to 6896
  151.2437  135.0597  159.9045 H   0  0  0  0  0  0  0  0  0  0  0  0  # atno 6908 bound_to 6896
  152.5408  134.0453  159.8139 H   0  0  0  0  0  0  0  0  0  0  0  0  # atno 6909 bound_to 6896
  145.9452  140.7624  142.9532 H   0  0  0  0  0  0  0  0  0  0  0  0  # atno 7974 bound_to 7965
  155.2563  140.3356  155.4277 H   0  0  0  0  0  0  0  0  0  0  0  0  # atno 8008 bound_to 7997
  156.2194  140.1802  156.7556 H   0  0  0  0  0  0  0  0  0  0  0  0  # atno 8009 bound_to 7997
  154.5802  140.0655  156.9078 H   0  0  0  0  0  0  0  0  0  0  0  0  # atno 8010 bound_to 7997
  140.5626  143.9309  150.6653 H   0  0  0  0  0  0  0  0  0  0  0  0  # atno 10167 bound_to 10162
  156.7233  130.5157  149.5863 H   0  0  0  0  0  0  0  0  0  0  0  0  # atno 10718 bound_to 10713
  152.9796  135.5776  154.4752 H   0  0  0  0  0  0  0  0  0  0  0  0  # atno 10763 bound_to 10752
  154.4309  135.2773  155.1915 H   0  0  0  0  0  0  0  0  0  0  0  0  # atno 10764 bound_to 10752
  154.3624  135.6185  153.5751 H   0  0  0  0  0  0  0  0  0  0  0  0  # atno 10765 bound_to 10752
  140.7252  134.3682  157.5176 H   0  0  0  0  0  0  0  0  0  0  0  0  # atno 11005 bound_to 11000
  144.6786  140.2345  143.7351 LP  0  0  0  0  0  0  0  0  0  0  0  0  # atno 17320 bound_to 7965
  145.8246  139.2058  143.1918 LP  0  0  0  0  0  0  0  0  0  0  0  0  # atno 17321 bound_to 7965
  140.2764  143.3420  152.1191 LP  0  0  0  0  0  0  0  0  0  0  0  0  # atno 17342 bound_to 10162
  139.5077  144.6837  151.5942 LP  0  0  0  0  0  0  0  0  0  0  0  0  # atno 17343 bound_to 10162
  156.1579  130.6354  151.0681 LP  0  0  0  0  0  0  0  0  0  0  0  0  # atno 17370 bound_to 10713
  157.6889  131.0816  150.7164 LP  0  0  0  0  0  0  0  0  0  0  0  0  # atno 17371 bound_to 10713
  139.8839  134.8982  156.2739 LP  0  0  0  0  0  0  0  0  0  0  0  0  # atno 17394 bound_to 11000
  140.9969  133.7175  156.0899 LP  0  0  0  0  0  0  0  0  0  0  0  0  # atno 17395 bound_to 11000

$$$$
