AV-unprocessed.smi:2569|AV-procd|sdf|10102|dock3
  -GOLD-   2272014113D 1   1.00000     0.00000
 Structure written by MMmdl.
 39 41  0  0  0  0  0  0  0  0  1 V2000
  153.4059  142.4651  161.5260 C   0  0  0  0  0  0  0  0  0  0  0  0
  152.7175  142.2039  160.1978 C   0  0  0  0  0  0  0  0  0  0  0  0
  153.0211  141.0214  159.4865 C   0  0  0  0  0  0  0  0  0  0  0  0
  152.4047  140.7427  158.2471 C   0  0  0  0  0  0  0  0  0  0  0  0
  152.5533  139.6640  157.3926 N   0  0  0  0  0  0  0  0  0  0  0  0
  151.7193  139.9850  156.4080 C   0  0  0  0  0  0  0  0  0  0  0  0
  151.0533  141.1507  156.5187 N   0  0  0  0  0  0  0  0  0  0  0  0
  150.1076  141.7112  155.5690 C   0  0  0  0  0  0  0  0  0  0  0  0
  149.3377  140.6272  154.7890 C   0  0  2  0  0  0  0  0  0  0  0  0
  150.2048  140.0738  153.8197 O   0  0  0  0  0  0  0  0  0  0  0  0
  148.0502  141.1402  154.1091 C   0  0  0  0  0  0  0  0  0  0  0  0
  147.1681  141.8092  155.0487 N   0  0  0  0  0  0  0  0  0  0  0  0
  147.1971  141.5196  156.3726 N   0  0  0  0  0  0  0  0  0  0  0  0
  146.3090  142.2840  156.9410 N   0  0  0  0  0  0  0  0  0  0  0  0
  145.6749  143.0932  156.0157 N   0  0  0  0  0  0  0  0  0  0  0  0
  146.2430  142.7599  154.8642 C   0  0  0  0  0  0  0  0  0  0  0  0
  145.9187  143.3504  153.5307 C   0  0  0  0  0  0  0  0  0  0  0  0
  151.4675  141.6865  157.7341 C   0  0  0  0  0  0  0  0  0  0  0  0
  151.1520  142.8632  158.4367 C   0  0  0  0  0  0  0  0  0  0  0  0
  151.7804  143.1284  159.6710 C   0  0  0  0  0  0  0  0  0  0  0  0
  151.4404  144.4078  160.4145 C   0  0  0  0  0  0  0  0  0  0  0  0
  154.0779  141.6493  161.7947 H   0  0  0  0  0  0  0  0  0  0  0  0
  152.6703  142.5676  162.3241 H   0  0  0  0  0  0  0  0  0  0  0  0
  153.9948  143.3813  161.4774 H   0  0  0  0  0  0  0  0  0  0  0  0
  153.7337  140.3160  159.8880 H   0  0  0  0  0  0  0  0  0  0  0  0
  151.5925  139.3397  155.5508 H   0  0  0  0  0  0  0  0  0  0  0  0
  149.4098  142.3518  156.1107 H   0  0  0  0  0  0  0  0  0  0  0  0
  150.6571  142.3561  154.8817 H   0  0  0  0  0  0  0  0  0  0  0  0
  149.0758  139.8240  155.4771 H   0  0  0  0  0  0  0  0  0  0  0  0
  149.7286  139.9783  153.0085 H   0  0  0  0  0  0  0  0  0  0  0  0
  148.2827  141.8523  153.3177 H   0  0  0  0  0  0  0  0  0  0  0  0
  147.5129  140.3190  153.6323 H   0  0  0  0  0  0  0  0  0  0  0  0
  145.1240  144.0908  153.6259 H   0  0  0  0  0  0  0  0  0  0  0  0
  145.5863  142.5716  152.8440 H   0  0  0  0  0  0  0  0  0  0  0  0
  146.7984  143.8376  153.1101 H   0  0  0  0  0  0  0  0  0  0  0  0
  150.4344  143.5588  158.0284 H   0  0  0  0  0  0  0  0  0  0  0  0
  150.7157  145.0071  159.8625 H   0  0  0  0  0  0  0  0  0  0  0  0
  152.3344  145.0147  160.5593 H   0  0  0  0  0  0  0  0  0  0  0  0
  151.0127  144.1809  161.3914 H   0  0  0  0  0  0  0  0  0  0  0  0
  1  2  1  0  0  0  0
  1 22  1  0  0  0  0
  1 23  1  0  0  0  0
  1 24  1  0  0  0  0
  2 20  1  0  0  0  0
  2  3  2  0  0  0  0
  3  4  1  0  0  0  0
  3 25  1  0  0  0  0
  4 18  2  0  0  0  0
  4  5  1  0  0  0  0
  5  6  2  0  0  0  0
  6  7  1  0  0  0  0
  6 26  1  0  0  0  0
  7  8  1  0  0  0  0
  7 18  1  0  0  0  0
  8  9  1  0  0  0  0
  8 27  1  0  0  0  0
  8 28  1  0  0  0  0
  9 10  1  0  0  0  0
  9 11  1  0  0  0  0
  9 29  1  0  0  0  0
 10 30  1  0  0  0  0
 11 12  1  0  0  0  0
 11 31  1  0  0  0  0
 11 32  1  0  0  0  0
 12 16  1  0  0  0  0
 12 13  1  0  0  0  0
 13 14  2  0  0  0  0
 14 15  1  0  0  0  0
 15 16  2  0  0  0  0
 16 17  1  0  0  0  0
 17 33  1  0  0  0  0
 17 34  1  0  0  0  0
 17 35  1  0  0  0  0
 18 19  1  0  0  0  0
 19 20  2  0  0  0  0
 19 36  1  0  0  0  0
 20 21  1  0  0  0  0
 21 37  1  0  0  0  0
 21 38  1  0  0  0  0
 21 39  1  0  0  0  0
M  END
> <s_m_source_file>
AV-unprocessed.smi

> <i_m_source_file_index>
2569

> <i_lp_mmshare_version>
43012

> <i_f3d_flags>
0

> <s_epik_input>
W0NIM11jKFtjSF0xKWMoW0NIM10pW2NIXWMoYzEyKW4oW2NIXW4yKVtDSDJdW0NASF0oW09IXSlbQ0gyXW4zbm5uYzNbQ0gzXQ==

> <s_epik_cmdline>
J2VwaWtfcHl0aG9uJywgJy1waCcsICc3LjAnLCAnLXRuJywgJzgnLCAnLW1hJywgJzIwMCcsICctbWV0YWxfYmluZGluZycsICctaW1hZScsICc8aW5maWxlLm1hZT4nLCAnLW9tYWUnLCAnPG91dGZpbGUubWFlPic=

> <r_lp_tautomer_probability>
1

> <r_epik_Ionization_Penalty>
0.0946713

> <r_epik_Ionization_Penalty_Charging>
0

> <r_epik_Ionization_Penalty_Neutral>
0.0946713

> <r_epik_State_Penalty>
0.0848712

> <r_epik_Charging_Adjusted_Penalty>
0.0848712

> <i_epik_Tot_Q>
0

> <i_epik_Tot_abs_Q>
0

> <r_epik_Metal_State_Penalty>
0.0730911

> <b_epik_Metal_Only>
0

> <s_lp_Force_Field>
OPLS_2005

> <r_lp_Energy>
9.8023

> <b_lp_Chiralities_Consistent>
1

> <s_lp_Variant>
AV-unprocessed.smi:2569-1

> <Gold.Version>
5.8.1

> <Gold.Id.Protein>
6NUR|6NUR_protein|mol2

> <Gold.PLP.Fitness>
52.9014

> <Gold.PLP.PLP>
-46.0564

> <Gold.PLP.part.hbond>
-2.9764

> <Gold.PLP.part.metal>
0.0000

> <Gold.PLP.part.buried>
-6.1074

> <Gold.PLP.part.nonpolar>
-37.5545

> <Gold.PLP.part.repulsive>
0.3537

> <Gold.PLP.ligand.clash>
0.0000

> <Gold.PLP.ligand.torsion>
0.8812

> <Gold.PLP.Chemscore.Hbond>
2.8640

> <Gold.PLP.Chemscore.CHOScore>
0.0000

> <Gold.PLP.Chemscore.Metal>
0.0000

> <Gold.Chemscore.Hbonds>
donor molecule, donor type, donor heavy atom, donor atom, acceptor molecule, acceptor atom, score
      L1  H    10    30       P1  7957  1.00
      P1  H  7989  7998       L1    10  0.86
      P1  H  7997  8010       L1     5  1.00

> <Gold.PLP.Chemscore.Internal.Correction>
0.0154

> <Gold.Rescore>
     Score         DG    S(hbond)    S(metal)    S(lipo)     H(rot)  DE(clash)    DE(int)     intcor
     17.17     -18.39       2.20        0.00     102.97       2.53       0.24       0.98       ----

> <Gold.Chemscore.Fitness>
17.1667

> <Gold.Chemscore.DG>
-18.3928

> <Gold.Chemscore.ZeroCoef>
-5.4800

> <Gold.Chemscore.Hbond>
2.1958

> <Gold.Chemscore.Metal>
0.0000

> <Gold.Chemscore.Lipo>
102.9745

> <Gold.Chemscore.Internal_Hbond>
0.0000

> <Gold.Chemscore.DEClash>
0.2431

> <Gold.Chemscore.DEInternal>
0.9829

> <Gold.Chemscore.Rot>
2.5270

> <Gold.Chemscore.Internal.Correction>
   9.000000E+99

> <Gold.Chemscore.Hbonds>
donor molecule, donor type, donor heavy atom, donor atom, acceptor molecule, acceptor atom, score
      L1  H    10    30       P1  7957  0.96
      P1  H  7989  7998       L1    10  0.49
      P1  H  7997  8010       L1     5  0.08

> <Gold.Chemscore.Hbond.Weighted>
-7.3339

> <Gold.Chemscore.Metal.Weighted>
-0.0000

> <Gold.Chemscore.Lipo.Weighted>
-12.0480

> <Gold.Chemscore.Internal_Hbond.Weighted>
0.0000

> <Gold.Chemscore.DEClash.Weighted>
0.2431

> <Gold.Chemscore.DEInternal.Weighted>
0.9829

> <Gold.Chemscore.Rot.Weighted>
6.4691

> <Gold.Chemscore.Internal.Correction.Weighted>
   9.000000E+99

> <Gold.Protein.RotatedTorsions>
[ 6907 6896 6895 6894 ] final   24.52 input  -60.11 | X-H torsion
[ 7974 7965 7964 7962 ] final -173.26 input  175.53 | X-H torsion
[ 8008 7997 7996 7995 ] final   65.20 input   59.86 | X-H torsion
[ 10167 10162 10161 10158 ] final  -51.77 input  -65.29 | X-H torsion
[ 10718 10713 10712 10709 ] final -131.38 input   66.30 | X-H torsion
[ 10763 10752 10751 10750 ] final -103.42 input  -60.55 | X-H torsion
[ 11005 11000 10999 10996 ] final -161.50 input  -57.11 | X-H torsion

> <Gold.Protein.ActiveResidues>
 VAL166  LYS551  ARG553  GLY616  TRP617  ASP618  TYR619  PRO620  LYS621  CYS622 
 ASP623  PHE694  ASN695  SER759  ASP760  ASP761  ALA762  ILE779  LEU786  VAL792 
 PHE793  MET794  SER795  GLU796  ALA797  LYS798  CYS799  TRP800  GLU811  SER814 

> <Gold.Protein.RotatedAtoms>
  151.9587  135.0134  160.0546 H   0  0  0  0  0  0  0  0  0  0  0  0  # atno 6907 bound_to 6896
  152.1888  133.4754  159.5005 H   0  0  0  0  0  0  0  0  0  0  0  0  # atno 6908 bound_to 6896
  150.6931  134.1656  159.4235 H   0  0  0  0  0  0  0  0  0  0  0  0  # atno 6909 bound_to 6896
  144.7139  140.1648  143.6373 H   0  0  0  0  0  0  0  0  0  0  0  0  # atno 7974 bound_to 7965
  155.6580  140.3497  155.4772 H   0  0  0  0  0  0  0  0  0  0  0  0  # atno 8008 bound_to 7997
  155.9792  140.1171  157.0765 H   0  0  0  0  0  0  0  0  0  0  0  0  # atno 8009 bound_to 7997
  154.4187  140.1141  156.5398 H   0  0  0  0  0  0  0  0  0  0  0  0  # atno 8010 bound_to 7997
  140.6571  143.2607  151.4552 H   0  0  0  0  0  0  0  0  0  0  0  0  # atno 10167 bound_to 10162
  156.2239  130.6995  151.0785 H   0  0  0  0  0  0  0  0  0  0  0  0  # atno 10718 bound_to 10713
  154.7806  135.4824  153.9837 H   0  0  0  0  0  0  0  0  0  0  0  0  # atno 10763 bound_to 10752
  153.1489  135.6787  153.8920 H   0  0  0  0  0  0  0  0  0  0  0  0  # atno 10764 bound_to 10752
  153.8571  135.3160  155.3414 H   0  0  0  0  0  0  0  0  0  0  0  0  # atno 10765 bound_to 10752
  140.6197  134.4763  157.5222 H   0  0  0  0  0  0  0  0  0  0  0  0  # atno 11005 bound_to 11000
  145.8997  139.2423  143.1501 LP  0  0  0  0  0  0  0  0  0  0  0  0  # atno 17320 bound_to 7965
  145.9823  140.8672  143.0108 LP  0  0  0  0  0  0  0  0  0  0  0  0  # atno 17321 bound_to 7965
  139.5796  144.1739  152.1950 LP  0  0  0  0  0  0  0  0  0  0  0  0  # atno 17342 bound_to 10162
  140.1061  144.5498  150.6956 LP  0  0  0  0  0  0  0  0  0  0  0  0  # atno 17343 bound_to 10162
  157.7101  131.0738  150.6531 LP  0  0  0  0  0  0  0  0  0  0  0  0  # atno 17370 bound_to 10713
  156.6596  130.4508  149.5692 LP  0  0  0  0  0  0  0  0  0  0  0  0  # atno 17371 bound_to 10713
  139.9158  134.8249  156.1371 LP  0  0  0  0  0  0  0  0  0  0  0  0  # atno 17394 bound_to 11000
  141.0751  133.6779  156.2219 LP  0  0  0  0  0  0  0  0  0  0  0  0  # atno 17395 bound_to 11000

$$$$
