AV-unprocessed.smi:2038|AV-procd|sdf|8280|dock9
  -GOLD-   2272010553D 1   1.00000     0.00000
 Structure written by MMmdl.
 33 34  0  0  0  0  0  0  0  0  1 V2000
  150.8364  136.0804  158.0765 O   0  0  0  0  0  0  0  0  0  0  0  0
  150.9780  136.0163  156.8551 C   0  0  0  0  0  0  0  0  0  0  0  0
  151.1367  137.0820  156.0488 N   0  0  0  0  0  0  0  0  0  0  0  0
  151.1969  138.4562  156.4048 C   0  0  0  0  0  0  0  0  0  0  0  0
  150.9236  138.8087  157.7417 C   0  0  0  0  0  0  0  0  0  0  0  0
  150.9569  140.1656  158.1147 C   0  0  0  0  0  0  0  0  0  0  0  0
  151.2521  141.1324  157.1334 C   0  0  0  0  0  0  0  0  0  0  0  0
  151.2841  142.4606  157.5045 O   0  0  0  0  0  0  0  0  0  0  0  0
  151.5658  142.7799  158.8648 C   0  0  0  0  0  0  0  0  0  0  0  0
  151.8472  144.2823  158.9839 C   0  0  0  0  0  0  0  0  0  0  0  0
  150.7704  144.9644  158.5953 F   0  0  0  0  0  0  0  0  0  0  0  0
  152.1217  144.6010  160.2486 F   0  0  0  0  0  0  0  0  0  0  0  0
  152.8728  144.6224  158.2037 F   0  0  0  0  0  0  0  0  0  0  0  0
  151.5000  140.8057  155.8410 N   0  0  0  0  0  0  0  0  0  0  0  0
  151.4690  139.5022  155.4898 C   0  0  0  0  0  0  0  0  0  0  0  0
  150.9690  134.6502  156.1589 C   0  0  2  0  0  0  0  0  0  0  0  0
  149.9067  134.5227  155.0509 C   0  0  0  0  0  0  0  0  0  0  0  0
  148.8842  133.5721  155.6413 C   0  0  0  0  0  0  0  0  0  0  0  0
  149.7483  132.7167  156.5562 C   0  0  0  0  0  0  0  0  0  0  0  0
  150.6390  133.6598  157.1315 O   0  0  0  0  0  0  0  0  0  0  0  0
  151.1559  136.8873  155.0582 H   0  0  0  0  0  0  0  0  0  0  0  0
  150.6959  138.0503  158.4766 H   0  0  0  0  0  0  0  0  0  0  0  0
  150.7583  140.4597  159.1348 H   0  0  0  0  0  0  0  0  0  0  0  0
  150.7180  142.5149  159.4991 H   0  0  0  0  0  0  0  0  0  0  0  0
  152.4328  142.2158  159.2130 H   0  0  0  0  0  0  0  0  0  0  0  0
  151.6466  139.3128  154.4427 H   0  0  0  0  0  0  0  0  0  0  0  0
  151.9555  134.4287  155.7475 H   0  0  0  0  0  0  0  0  0  0  0  0
  149.4578  135.4709  154.7506 H   0  0  0  0  0  0  0  0  0  0  0  0
  150.3566  134.0805  154.1612 H   0  0  0  0  0  0  0  0  0  0  0  0
  148.1519  134.1264  156.2299 H   0  0  0  0  0  0  0  0  0  0  0  0
  148.3522  132.9913  154.8875 H   0  0  0  0  0  0  0  0  0  0  0  0
  149.1694  132.1933  157.3175 H   0  0  0  0  0  0  0  0  0  0  0  0
  150.3144  131.9811  155.9828 H   0  0  0  0  0  0  0  0  0  0  0  0
  1  2  2  0  0  0  0
  2  3  1  0  0  0  0
  2 16  1  0  0  0  0
  3  4  1  0  0  0  0
  3 21  1  0  0  0  0
  4 15  1  0  0  0  0
  4  5  2  0  0  0  0
  5  6  1  0  0  0  0
  5 22  1  0  0  0  0
  6  7  2  0  0  0  0
  6 23  1  0  0  0  0
  7  8  1  0  0  0  0
  7 14  1  0  0  0  0
  8  9  1  0  0  0  0
  9 10  1  0  0  0  0
  9 24  1  0  0  0  0
  9 25  1  0  0  0  0
 10 11  1  0  0  0  0
 10 12  1  0  0  0  0
 10 13  1  0  0  0  0
 14 15  2  0  0  0  0
 15 26  1  0  0  0  0
 16 20  1  0  0  0  0
 16 17  1  0  0  0  0
 16 27  1  0  0  0  0
 17 18  1  0  0  0  0
 17 28  1  0  0  0  0
 17 29  1  0  0  0  0
 18 19  1  0  0  0  0
 18 30  1  0  0  0  0
 18 31  1  0  0  0  0
 19 20  1  0  0  0  0
 19 32  1  0  0  0  0
 19 33  1  0  0  0  0
M  END
> <s_m_source_file>
AV-unprocessed.smi

> <i_m_source_file_index>
2038

> <i_lp_mmshare_version>
43012

> <i_f3d_flags>
0

> <s_epik_input>
TzFbQ0gyXVtDSDJdW0NIMl1bQ0BIXTFDKD1PKVtOSF1jMltjSF1bY0hdYyhuW2NIXTIpT1tDSDJdQyhGKShGKUY=

> <s_epik_cmdline>
J2VwaWtfcHl0aG9uJywgJy1waCcsICc3LjAnLCAnLXRuJywgJzgnLCAnLW1hJywgJzIwMCcsICctbWV0YWxfYmluZGluZycsICctaW1hZScsICc8aW5maWxlLm1hZT4nLCAnLW9tYWUnLCAnPG91dGZpbGUubWFlPic=

> <r_lp_tautomer_probability>
1

> <r_epik_Ionization_Penalty>
2.73305e-06

> <r_epik_Ionization_Penalty_Charging>
0

> <r_epik_Ionization_Penalty_Neutral>
2.73305e-06

> <r_epik_State_Penalty>
-0

> <r_epik_Charging_Adjusted_Penalty>
0

> <i_epik_Tot_Q>
0

> <i_epik_Tot_abs_Q>
0

> <r_epik_Metal_State_Penalty>
-0

> <b_epik_Metal_Only>
0

> <s_lp_Force_Field>
OPLS_2005

> <r_lp_Energy>
22.8429

> <b_lp_Chiralities_Consistent>
1

> <s_lp_Variant>
AV-unprocessed.smi:2038-1

> <Gold.Version>
5.8.1

> <Gold.Id.Protein>
6NUR|6NUR_protein|mol2

> <Gold.PLP.Fitness>
38.2605

> <Gold.PLP.PLP>
-35.5409

> <Gold.PLP.part.hbond>
-2.7211

> <Gold.PLP.part.metal>
0.0000

> <Gold.PLP.part.buried>
-4.8103

> <Gold.PLP.part.nonpolar>
-29.4169

> <Gold.PLP.part.repulsive>
0.1626

> <Gold.PLP.ligand.clash>
0.0000

> <Gold.PLP.ligand.torsion>
0.4506

> <Gold.PLP.Chemscore.Hbond>
1.2000

> <Gold.PLP.Chemscore.CHOScore>
0.0000

> <Gold.PLP.Chemscore.Metal>
0.0000

> <Gold.Chemscore.Hbonds>
donor molecule, donor type, donor heavy atom, donor atom, acceptor molecule, acceptor atom, score
      P1  H  6896  6908       L1    20  0.60
      P1  H  6896  6909       L1     1  0.47

> <Gold.PLP.Chemscore.Internal.Correction>
0.0208

> <Gold.Rescore>
     Score         DG    S(hbond)    S(metal)    S(lipo)     H(rot)  DE(clash)    DE(int)     intcor
     10.93     -12.88       1.47        0.00      58.34       1.69       0.06       1.89       ----

> <Gold.Chemscore.Fitness>
10.9331

> <Gold.Chemscore.DG>
-12.8775

> <Gold.Chemscore.ZeroCoef>
-5.4800

> <Gold.Chemscore.Hbond>
1.4680

> <Gold.Chemscore.Metal>
0.0000

> <Gold.Chemscore.Lipo>
58.3388

> <Gold.Chemscore.Internal_Hbond>
0.0000

> <Gold.Chemscore.DEClash>
0.0580

> <Gold.Chemscore.DEInternal>
1.8865

> <Gold.Chemscore.Rot>
1.6919

> <Gold.Chemscore.Internal.Correction>
   9.000000E+99

> <Gold.Chemscore.Hbonds>
donor molecule, donor type, donor heavy atom, donor atom, acceptor molecule, acceptor atom, score
      P1  H  6896  6908       L1    20  0.58
      P1  H  6896  6909       L1     1  0.45

> <Gold.Chemscore.Hbond.Weighted>
-4.9032

> <Gold.Chemscore.Metal.Weighted>
-0.0000

> <Gold.Chemscore.Lipo.Weighted>
-6.8256

> <Gold.Chemscore.Internal_Hbond.Weighted>
0.0000

> <Gold.Chemscore.DEClash.Weighted>
0.0580

> <Gold.Chemscore.DEInternal.Weighted>
1.8865

> <Gold.Chemscore.Rot.Weighted>
4.3313

> <Gold.Chemscore.Internal.Correction.Weighted>
   9.000000E+99

> <Gold.Protein.RotatedTorsions>
[ 6907 6896 6895 6894 ] final   97.19 input  -60.11 | X-H torsion
[ 7974 7965 7964 7962 ] final    9.13 input  175.53 | X-H torsion
[ 8008 7997 7996 7995 ] final   29.56 input   59.86 | X-H torsion
[ 10167 10162 10161 10158 ] final   -5.81 input  -65.29 | X-H torsion
[ 10718 10713 10712 10709 ] final    8.06 input   66.30 | X-H torsion
[ 10763 10752 10751 10750 ] final  106.66 input  -60.55 | X-H torsion
[ 11005 11000 10999 10996 ] final  162.10 input  -57.11 | X-H torsion

> <Gold.Protein.ActiveResidues>
 VAL166  LYS551  ARG553  GLY616  TRP617  ASP618  TYR619  PRO620  LYS621  CYS622 
 ASP623  PHE694  ASN695  SER759  ASP760  ASP761  ALA762  ILE779  LEU786  VAL792 
 PHE793  MET794  SER795  GLU796  ALA797  LYS798  CYS799  TRP800  GLU811  SER814 

> <Gold.Protein.RotatedAtoms>
  152.5426  134.0771  159.8218 H   0  0  0  0  0  0  0  0  0  0  0  0  # atno 6907 bound_to 6896
  151.0877  133.5332  159.2624 H   0  0  0  0  0  0  0  0  0  0  0  0  # atno 6908 bound_to 6896
  151.2135  135.0499  159.8975 H   0  0  0  0  0  0  0  0  0  0  0  0  # atno 6909 bound_to 6896
  146.2407  139.9829  142.8434 H   0  0  0  0  0  0  0  0  0  0  0  0  # atno 7974 bound_to 7965
  155.0765  140.3206  155.4614 H   0  0  0  0  0  0  0  0  0  0  0  0  # atno 8008 bound_to 7997
  156.2778  140.2102  156.5838 H   0  0  0  0  0  0  0  0  0  0  0  0  # atno 8009 bound_to 7997
  154.7013  140.0507  157.0448 H   0  0  0  0  0  0  0  0  0  0  0  0  # atno 8010 bound_to 7997
  140.6976  143.6265  150.8563 H   0  0  0  0  0  0  0  0  0  0  0  0  # atno 10167 bound_to 10162
  156.9461  130.5879  149.5654 H   0  0  0  0  0  0  0  0  0  0  0  0  # atno 10718 bound_to 10713
  153.3960  135.3869  155.1956 H   0  0  0  0  0  0  0  0  0  0  0  0  # atno 10763 bound_to 10752
  154.8724  135.3760  154.4678 H   0  0  0  0  0  0  0  0  0  0  0  0  # atno 10764 bound_to 10752
  153.5169  135.7087  153.5813 H   0  0  0  0  0  0  0  0  0  0  0  0  # atno 10765 bound_to 10752
  140.2223  134.8186  157.3233 H   0  0  0  0  0  0  0  0  0  0  0  0  # atno 11005 bound_to 11000
  145.1575  140.9655  143.4397 LP  0  0  0  0  0  0  0  0  0  0  0  0  # atno 17320 bound_to 7965
  145.0147  139.3478  143.6102 LP  0  0  0  0  0  0  0  0  0  0  0  0  # atno 17321 bound_to 7965
  139.9985  143.5770  152.2884 LP  0  0  0  0  0  0  0  0  0  0  0  0  # atno 17342 bound_to 10162
  139.6451  144.7657  151.2261 LP  0  0  0  0  0  0  0  0  0  0  0  0  # atno 17343 bound_to 10162
  156.0383  130.5468  150.8708 LP  0  0  0  0  0  0  0  0  0  0  0  0  # atno 17370 bound_to 10713
  157.5753  131.0946  150.9356 LP  0  0  0  0  0  0  0  0  0  0  0  0  # atno 17371 bound_to 10713
  140.1836  134.4459  155.7757 LP  0  0  0  0  0  0  0  0  0  0  0  0  # atno 17394 bound_to 11000
  141.2222  133.6995  156.7910 LP  0  0  0  0  0  0  0  0  0  0  0  0  # atno 17395 bound_to 11000

$$$$
