AV-unprocessed.smi:1230|AV-procd|sdf|5155|dock6
  -GOLD-   22720 4223D 1   1.00000     0.00000
 Structure written by MMmdl.
 38 39  0  0  0  0  0  0  0  0  2 V2000
  150.6372  141.0921  157.4703 C   0  0  0  0  0  0  0  0  0  0  0  0
  151.6555  141.9661  158.2207 C   0  0  1  0  0  0  0  0  0  0  0  0
  151.0241  143.3158  158.6172 C   0  0  0  0  0  0  0  0  0  0  0  0
  152.0165  144.2090  159.3765 C   0  0  0  0  0  0  0  0  0  0  0  0
  152.5689  143.4884  160.6138 C   0  0  0  0  0  0  0  0  0  0  0  0
  153.2131  142.1487  160.2285 C   0  0  0  0  0  0  0  0  0  0  0  0
  152.2269  141.2421  159.4612 C   0  0  2  0  0  0  0  0  0  0  0  0
  152.9065  140.0770  159.0096 O   0  0  0  0  0  0  0  0  0  0  0  0
  153.7190  139.4514  159.9911 C   0  0  0  0  0  0  0  0  0  0  0  0
  153.1469  138.0561  160.2780 C   0  0  0  0  0  0  0  0  0  0  0  0
  153.9781  137.3218  161.2405 N   0  0  0  0  0  0  0  0  0  0  0  0
  154.3119  137.9729  162.4402 C   0  0  0  0  0  0  0  0  0  0  0  0
  155.0693  137.3767  163.3803 C   0  0  0  0  0  0  0  0  0  0  0  0
  155.4226  138.0150  164.6055 C   0  0  0  0  0  0  0  0  0  0  0  0
  155.7220  138.5568  165.5840 N   0  0  0  0  0  0  0  0  0  0  0  0
  155.5518  136.0200  163.1337 C   0  0  0  0  0  0  0  0  0  0  0  0
  156.2394  135.4481  163.9788 O   0  0  0  0  0  0  0  0  0  0  0  0
  155.2072  135.4398  161.9463 N   0  5  0  0  0  0  0  0  0  0  0  0
  154.4378  136.0580  160.9962 C   0  0  0  0  0  0  0  0  0  0  0  0
  154.1473  135.5153  159.9299 O   0  0  0  0  0  0  0  0  0  0  0  0
  149.7871  140.8403  158.1052 H   0  0  0  0  0  0  0  0  0  0  0  0
  151.0874  140.1586  157.1319 H   0  0  0  0  0  0  0  0  0  0  0  0
  150.2533  141.6065  156.5890 H   0  0  0  0  0  0  0  0  0  0  0  0
  152.4818  142.1719  157.5385 H   0  0  0  0  0  0  0  0  0  0  0  0
  150.6733  143.8386  157.7268 H   0  0  0  0  0  0  0  0  0  0  0  0
  150.1443  143.1429  159.2387 H   0  0  0  0  0  0  0  0  0  0  0  0
  152.8389  144.4879  158.7163 H   0  0  0  0  0  0  0  0  0  0  0  0
  151.5291  145.1380  159.6736 H   0  0  0  0  0  0  0  0  0  0  0  0
  153.3001  144.1212  161.1174 H   0  0  0  0  0  0  0  0  0  0  0  0
  151.7634  143.3155  161.3286 H   0  0  0  0  0  0  0  0  0  0  0  0
  154.0929  142.3350  159.6110 H   0  0  0  0  0  0  0  0  0  0  0  0
  153.5705  141.6520  161.1301 H   0  0  0  0  0  0  0  0  0  0  0  0
  151.3962  140.9671  160.1143 H   0  0  0  0  0  0  0  0  0  0  0  0
  154.7496  139.3712  159.6455 H   0  0  0  0  0  0  0  0  0  0  0  0
  153.7228  140.0486  160.9042 H   0  0  0  0  0  0  0  0  0  0  0  0
  152.1293  138.1520  160.6591 H   0  0  0  0  0  0  0  0  0  0  0  0
  153.0503  137.4936  159.3479 H   0  0  0  0  0  0  0  0  0  0  0  0
  153.9214  138.9747  162.5449 H   0  0  0  0  0  0  0  0  0  0  0  0
  1  2  1  0  0  0  0
  1 21  1  0  0  0  0
  1 22  1  0  0  0  0
  1 23  1  0  0  0  0
  2  7  1  0  0  0  0
  2  3  1  0  0  0  0
  2 24  1  0  0  0  0
  3  4  1  0  0  0  0
  3 25  1  0  0  0  0
  3 26  1  0  0  0  0
  4  5  1  0  0  0  0
  4 27  1  0  0  0  0
  4 28  1  0  0  0  0
  5  6  1  0  0  0  0
  5 29  1  0  0  0  0
  5 30  1  0  0  0  0
  6  7  1  0  0  0  0
  6 31  1  0  0  0  0
  6 32  1  0  0  0  0
  7  8  1  0  0  0  0
  7 33  1  0  0  0  0
  8  9  1  0  0  0  0
  9 10  1  0  0  0  0
  9 34  1  0  0  0  0
  9 35  1  0  0  0  0
 10 11  1  0  0  0  0
 10 36  1  0  0  0  0
 10 37  1  0  0  0  0
 11 19  1  0  0  0  0
 11 12  1  0  0  0  0
 12 13  2  0  0  0  0
 12 38  1  0  0  0  0
 13 14  1  0  0  0  0
 13 16  1  0  0  0  0
 14 15  3  0  0  0  0
 16 17  2  0  0  0  0
 16 18  1  0  0  0  0
 18 19  1  0  0  0  0
 19 20  2  0  0  0  0
M  CHG  1  18  -1
M  END
> <s_m_source_file>
AV-unprocessed.smi

> <i_m_source_file_index>
1230

> <i_lp_mmshare_version>
43012

> <i_f3d_flags>
0

> <s_epik_input>
W0NIM11bQ0BASF0xW0NIMl1bQ0gyXVtDSDJdW0NIMl1bQ0BIXTFPW0NIMl1bQ0gyXW4yW2NIXWMoQyNOKWMoPU8pW25IXWMyPU8=

> <s_epik_cmdline>
J2VwaWtfcHl0aG9uJywgJy1waCcsICc3LjAnLCAnLXRuJywgJzgnLCAnLW1hJywgJzIwMCcsICctbWV0YWxfYmluZGluZycsICctaW1hZScsICc8aW5maWxlLm1hZT4nLCAnLW9tYWUnLCAnPG91dGZpbGUubWFlPic=

> <r_epik_Ionization_Penalty>
0.400014

> <r_epik_Ionization_Penalty_Charging>
4.81474e-10

> <r_epik_Ionization_Penalty_Neutral>
0.400014

> <r_epik_State_Penalty>
0.399305

> <r_epik_Charging_Adjusted_Penalty>
0.399305

> <i_epik_Tot_Q>
-1

> <i_epik_Tot_abs_Q>
1

> <r_epik_Metal_State_Penalty>
0.00056968

> <b_epik_Metal_Only>
0

> <s_lp_Force_Field>
OPLS_2005

> <r_lp_Energy>
22.5171

> <b_lp_Chiralities_Consistent>
1

> <s_lp_Variant>
AV-unprocessed.smi:1230-4

> <Gold.Version>
5.8.1

> <Gold.Id.Protein>
6NUR|6NUR_protein|mol2

> <Gold.PLP.Fitness>
40.2568

> <Gold.PLP.PLP>
-38.2998

> <Gold.PLP.part.hbond>
-1.0000

> <Gold.PLP.part.metal>
0.0000

> <Gold.PLP.part.buried>
-5.6075

> <Gold.PLP.part.nonpolar>
-32.0193

> <Gold.PLP.part.repulsive>
0.1822

> <Gold.PLP.ligand.clash>
0.0000

> <Gold.PLP.ligand.torsion>
0.5256

> <Gold.PLP.Chemscore.Hbond>
1.0000

> <Gold.PLP.Chemscore.CHOScore>
0.0000

> <Gold.PLP.Chemscore.Metal>
0.0000

> <Gold.Chemscore.Hbonds>
donor molecule, donor type, donor heavy atom, donor atom, acceptor molecule, acceptor atom, score
      P1  H  6896  6909       L1    20  1.00

> <Gold.PLP.Chemscore.Internal.Correction>
0.0083

> <Gold.Rescore>
     Score         DG    S(hbond)    S(metal)    S(lipo)     H(rot)  DE(clash)    DE(int)     intcor
     15.05     -15.51       0.99        0.00      98.98       1.90       0.01       0.45       ----

> <Gold.Chemscore.Fitness>
15.0480

> <Gold.Chemscore.DG>
-15.5114

> <Gold.Chemscore.ZeroCoef>
-5.4800

> <Gold.Chemscore.Hbond>
0.9913

> <Gold.Chemscore.Metal>
0.0000

> <Gold.Chemscore.Lipo>
98.9758

> <Gold.Chemscore.Internal_Hbond>
0.0000

> <Gold.Chemscore.DEClash>
0.0110

> <Gold.Chemscore.DEInternal>
0.4523

> <Gold.Chemscore.Rot>
1.8984

> <Gold.Chemscore.Internal.Correction>
   9.000000E+99

> <Gold.Chemscore.Hbonds>
donor molecule, donor type, donor heavy atom, donor atom, acceptor molecule, acceptor atom, score
      P1  H  6896  6909       L1    20  0.90

> <Gold.Chemscore.Hbond.Weighted>
-3.3110

> <Gold.Chemscore.Metal.Weighted>
-0.0000

> <Gold.Chemscore.Lipo.Weighted>
-11.5802

> <Gold.Chemscore.Internal_Hbond.Weighted>
0.0000

> <Gold.Chemscore.DEClash.Weighted>
0.0110

> <Gold.Chemscore.DEInternal.Weighted>
0.4523

> <Gold.Chemscore.Rot.Weighted>
4.8598

> <Gold.Chemscore.Internal.Correction.Weighted>
   9.000000E+99

> <Gold.Protein.RotatedTorsions>
[ 6907 6896 6895 6894 ] final -168.75 input  -60.11 | X-H torsion
[ 7974 7965 7964 7962 ] final  173.63 input  175.53 | X-H torsion
[ 8008 7997 7996 7995 ] final  -47.06 input   59.86 | X-H torsion
[ 10167 10162 10161 10158 ] final   76.80 input  -65.29 | X-H torsion
[ 10718 10713 10712 10709 ] final   77.23 input   66.30 | X-H torsion
[ 10763 10752 10751 10750 ] final -176.21 input  -60.55 | X-H torsion
[ 11005 11000 10999 10996 ] final  -25.70 input  -57.11 | X-H torsion

> <Gold.Protein.ActiveResidues>
 VAL166  LYS551  ARG553  GLY616  TRP617  ASP618  TYR619  PRO620  LYS621  CYS622 
 ASP623  PHE694  ASN695  SER759  ASP760  ASP761  ALA762  ILE779  LEU786  VAL792 
 PHE793  MET794  SER795  GLU796  ALA797  LYS798  CYS799  TRP800  GLU811  SER814 

> <Gold.Protein.RotatedAtoms>
  151.4806  133.3547  159.2837 H   0  0  0  0  0  0  0  0  0  0  0  0  # atno 6907 bound_to 6896
  150.8900  134.8304  159.7297 H   0  0  0  0  0  0  0  0  0  0  0  0  # atno 6908 bound_to 6896
  152.4817  134.4714  159.9688 H   0  0  0  0  0  0  0  0  0  0  0  0  # atno 6909 bound_to 6896
  144.7239  139.9676  143.6436 H   0  0  0  0  0  0  0  0  0  0  0  0  # atno 7974 bound_to 7965
  154.4013  140.1356  156.4114 H   0  0  0  0  0  0  0  0  0  0  0  0  # atno 8008 bound_to 7997
  155.7730  140.3483  155.5237 H   0  0  0  0  0  0  0  0  0  0  0  0  # atno 8009 bound_to 7997
  155.8748  140.0977  157.1516 H   0  0  0  0  0  0  0  0  0  0  0  0  # atno 8010 bound_to 7997
  139.9884  144.5775  150.7839 H   0  0  0  0  0  0  0  0  0  0  0  0  # atno 10167 bound_to 10162
  157.6703  130.9811  150.1610 H   0  0  0  0  0  0  0  0  0  0  0  0  # atno 10718 bound_to 10713
  154.5751  135.2831  155.0789 H   0  0  0  0  0  0  0  0  0  0  0  0  # atno 10763 bound_to 10752
  154.2146  135.6402  153.5129 H   0  0  0  0  0  0  0  0  0  0  0  0  # atno 10764 bound_to 10752
  153.0070  135.5500  154.6387 H   0  0  0  0  0  0  0  0  0  0  0  0  # atno 10765 bound_to 10752
  140.8962  133.7555  156.0484 H   0  0  0  0  0  0  0  0  0  0  0  0  # atno 11005 bound_to 11000
  146.0588  139.3583  143.0594 LP  0  0  0  0  0  0  0  0  0  0  0  0  # atno 17320 bound_to 7965
  145.8120  140.9721  143.0944 LP  0  0  0  0  0  0  0  0  0  0  0  0  # atno 17321 bound_to 7965
  140.7464  143.2890  151.3383 LP  0  0  0  0  0  0  0  0  0  0  0  0  # atno 17342 bound_to 10162
  139.6358  144.0633  152.2514 LP  0  0  0  0  0  0  0  0  0  0  0  0  # atno 17343 bound_to 10162
  156.2387  130.3689  149.8362 LP  0  0  0  0  0  0  0  0  0  0  0  0  # atno 17370 bound_to 10713
  156.6168  130.8610  151.3466 LP  0  0  0  0  0  0  0  0  0  0  0  0  # atno 17371 bound_to 10713
  140.8287  134.3204  157.5356 LP  0  0  0  0  0  0  0  0  0  0  0  0  # atno 17394 bound_to 11000
  139.8736  134.9351  156.3623 LP  0  0  0  0  0  0  0  0  0  0  0  0  # atno 17395 bound_to 11000

$$$$
