AV-unprocessed.smi:2115|AV-procd|sdf|8623|dock1
  -GOLD-   2272011363D 1   1.00000     0.00000
 Structure written by MMmdl.
 37 38  0  0  0  0  0  0  0  0  1 V2000
  152.0704  144.9729  159.1385 C   0  0  0  0  0  0  0  0  0  0  0  0
  151.6207  143.6447  158.9376 O   0  0  0  0  0  0  0  0  0  0  0  0
  151.4923  143.3162  157.5640 C   0  0  0  0  0  0  0  0  0  0  0  0
  150.9763  141.8798  157.4382 C   0  0  0  0  0  0  0  0  0  0  0  0
  150.7559  141.5892  156.0611 O   0  0  0  0  0  0  0  0  0  0  0  0
  150.6335  140.2696  155.6774 C   0  0  0  0  0  0  0  0  0  0  0  0
  150.9371  139.2644  156.6167 C   0  0  0  0  0  0  0  0  0  0  0  0
  150.8115  137.9164  156.2317 C   0  0  0  0  0  0  0  0  0  0  0  0
  150.3776  137.6105  154.9260 C   0  0  0  0  0  0  0  0  0  0  0  0
  150.2751  136.2400  154.5630 N   0  0  0  0  0  0  0  0  0  0  0  0
  150.4836  135.1475  155.3222 C   0  0  0  0  0  0  0  0  0  0  0  0
  150.8076  135.1765  156.5091 O   0  0  0  0  0  0  0  0  0  0  0  0
  150.2918  133.7940  154.6228 C   0  0  2  0  0  0  0  0  0  0  0  0
  148.9081  133.5968  153.9949 C   0  0  0  0  0  0  0  0  0  0  0  0
  148.7751  132.0909  154.0124 C   0  0  0  0  0  0  0  0  0  0  0  0
  149.4391  131.7304  155.3370 C   0  0  0  0  0  0  0  0  0  0  0  0
  150.4320  132.7274  155.5633 O   0  0  0  0  0  0  0  0  0  0  0  0
  150.1095  138.6920  154.0516 C   0  0  0  0  0  0  0  0  0  0  0  0
  150.2310  139.9871  154.4139 N   0  0  0  0  0  0  0  0  0  0  0  0
  152.1560  145.1731  160.2065 H   0  0  0  0  0  0  0  0  0  0  0  0
  151.3698  145.6945  158.7158 H   0  0  0  0  0  0  0  0  0  0  0  0
  153.0510  145.1301  158.6871 H   0  0  0  0  0  0  0  0  0  0  0  0
  150.7815  143.9993  157.0968 H   0  0  0  0  0  0  0  0  0  0  0  0
  152.4443  143.4279  157.0428 H   0  0  0  0  0  0  0  0  0  0  0  0
  151.6898  141.1850  157.8844 H   0  0  0  0  0  0  0  0  0  0  0  0
  150.0341  141.7888  157.9810 H   0  0  0  0  0  0  0  0  0  0  0  0
  151.2604  139.5230  157.6140 H   0  0  0  0  0  0  0  0  0  0  0  0
  151.0416  137.1294  156.9349 H   0  0  0  0  0  0  0  0  0  0  0  0
  150.0849  136.0625  153.5871 H   0  0  0  0  0  0  0  0  0  0  0  0
  151.0625  133.6730  153.8600 H   0  0  0  0  0  0  0  0  0  0  0  0
  148.1246  134.0474  154.6067 H   0  0  0  0  0  0  0  0  0  0  0  0
  148.8374  134.0105  152.9882 H   0  0  0  0  0  0  0  0  0  0  0  0
  147.7419  131.7494  153.9457 H   0  0  0  0  0  0  0  0  0  0  0  0
  149.3340  131.6575  153.1820 H   0  0  0  0  0  0  0  0  0  0  0  0
  148.7136  131.7765  156.1500 H   0  0  0  0  0  0  0  0  0  0  0  0
  149.8729  130.7302  155.3263 H   0  0  0  0  0  0  0  0  0  0  0  0
  149.8087  138.5401  153.0271 H   0  0  0  0  0  0  0  0  0  0  0  0
  1  2  1  0  0  0  0
  1 20  1  0  0  0  0
  1 21  1  0  0  0  0
  1 22  1  0  0  0  0
  2  3  1  0  0  0  0
  3  4  1  0  0  0  0
  3 23  1  0  0  0  0
  3 24  1  0  0  0  0
  4  5  1  0  0  0  0
  4 25  1  0  0  0  0
  4 26  1  0  0  0  0
  5  6  1  0  0  0  0
  6 19  1  0  0  0  0
  6  7  2  0  0  0  0
  7  8  1  0  0  0  0
  7 27  1  0  0  0  0
  8  9  2  0  0  0  0
  8 28  1  0  0  0  0
  9 10  1  0  0  0  0
  9 18  1  0  0  0  0
 10 11  1  0  0  0  0
 10 29  1  0  0  0  0
 11 12  2  0  0  0  0
 11 13  1  0  0  0  0
 13 17  1  0  0  0  0
 13 14  1  0  0  0  0
 13 30  1  0  0  0  0
 14 15  1  0  0  0  0
 14 31  1  0  0  0  0
 14 32  1  0  0  0  0
 15 16  1  0  0  0  0
 15 33  1  0  0  0  0
 15 34  1  0  0  0  0
 16 17  1  0  0  0  0
 16 35  1  0  0  0  0
 16 36  1  0  0  0  0
 18 19  2  0  0  0  0
 18 37  1  0  0  0  0
M  END
> <s_m_source_file>
AV-unprocessed.smi

> <i_m_source_file_index>
2115

> <i_lp_mmshare_version>
43012

> <i_f3d_flags>
0

> <s_epik_input>
W0NIM11PW0NIMl1bQ0gyXU9jMVtjSF1bY0hdYyhbY0hdbjEpW05IXUMoPU8pW0NAQEhdMltDSDJdW0NIMl1bQ0gyXU8y

> <s_epik_cmdline>
J2VwaWtfcHl0aG9uJywgJy1waCcsICc3LjAnLCAnLXRuJywgJzgnLCAnLW1hJywgJzIwMCcsICctbWV0YWxfYmluZGluZycsICctaW1hZScsICc8aW5maWxlLm1hZT4nLCAnLW9tYWUnLCAnPG91dGZpbGUubWFlPic=

> <r_lp_tautomer_probability>
1

> <r_epik_Ionization_Penalty>
1.60185e-05

> <r_epik_Ionization_Penalty_Charging>
0

> <r_epik_Ionization_Penalty_Neutral>
1.60185e-05

> <r_epik_State_Penalty>
-0

> <r_epik_Charging_Adjusted_Penalty>
0

> <i_epik_Tot_Q>
0

> <i_epik_Tot_abs_Q>
0

> <r_epik_Metal_State_Penalty>
-0

> <b_epik_Metal_Only>
0

> <s_lp_Force_Field>
OPLS_2005

> <r_lp_Energy>
24.9122

> <b_lp_Chiralities_Consistent>
1

> <s_lp_Variant>
AV-unprocessed.smi:2115-1

> <Gold.Version>
5.8.1

> <Gold.Id.Protein>
6NUR|6NUR_protein|mol2

> <Gold.PLP.Fitness>
40.9070

> <Gold.PLP.PLP>
-31.9213

> <Gold.PLP.part.hbond>
-2.3121

> <Gold.PLP.part.metal>
0.0000

> <Gold.PLP.part.buried>
-6.1635

> <Gold.PLP.part.nonpolar>
-24.8260

> <Gold.PLP.part.repulsive>
0.2837

> <Gold.PLP.ligand.clash>
0.3050

> <Gold.PLP.ligand.torsion>
0.1951

> <Gold.PLP.Chemscore.Hbond>
1.6000

> <Gold.PLP.Chemscore.CHOScore>
1.5856

> <Gold.PLP.Chemscore.Metal>
0.0000

> <Gold.Chemscore.Hbonds>
donor molecule, donor type, donor heavy atom, donor atom, acceptor molecule, acceptor atom, score
      L1  H    10    29       P1  7948  0.55
      P1  H  7989  7998       L1    19  0.90
      L1  C    18    37       P1  7948  0.61
      L1  C    18    37       P1  7957  1.00

> <Gold.PLP.Chemscore.Internal.Correction>
0.1239

> <Gold.Rescore>
     Score         DG    S(hbond)    S(metal)    S(lipo)     H(rot)  DE(clash)    DE(int)     intcor
     10.90     -12.46       0.92        0.00      73.60       1.84       0.00       1.56       ----

> <Gold.Chemscore.Fitness>
10.9005

> <Gold.Chemscore.DG>
-12.4619

> <Gold.Chemscore.ZeroCoef>
-5.4800

> <Gold.Chemscore.Hbond>
0.9225

> <Gold.Chemscore.Metal>
0.0000

> <Gold.Chemscore.Lipo>
73.5957

> <Gold.Chemscore.Internal_Hbond>
0.0000

> <Gold.Chemscore.DEClash>
0.0000

> <Gold.Chemscore.DEInternal>
1.5614

> <Gold.Chemscore.Rot>
1.8398

> <Gold.Chemscore.Internal.Correction>
   9.000000E+99

> <Gold.Chemscore.Hbonds>
donor molecule, donor type, donor heavy atom, donor atom, acceptor molecule, acceptor atom, score
      L1  H    10    29       P1  7948  0.03
      P1  H  7989  7998       L1    19  0.15

> <Gold.Chemscore.Hbond.Weighted>
-3.0811

> <Gold.Chemscore.Metal.Weighted>
-0.0000

> <Gold.Chemscore.Lipo.Weighted>
-8.6107

> <Gold.Chemscore.Internal_Hbond.Weighted>
0.0000

> <Gold.Chemscore.DEClash.Weighted>
0.0000

> <Gold.Chemscore.DEInternal.Weighted>
1.5614

> <Gold.Chemscore.Rot.Weighted>
4.7099

> <Gold.Chemscore.Internal.Correction.Weighted>
   9.000000E+99

> <Gold.Protein.RotatedTorsions>
[ 6907 6896 6895 6894 ] final   32.25 input  -60.11 | X-H torsion
[ 7974 7965 7964 7962 ] final   68.94 input  175.53 | X-H torsion
[ 8008 7997 7996 7995 ] final -121.49 input   59.86 | X-H torsion
[ 10167 10162 10161 10158 ] final -113.56 input  -65.29 | X-H torsion
[ 10718 10713 10712 10709 ] final  117.74 input   66.30 | X-H torsion
[ 10763 10752 10751 10750 ] final   69.48 input  -60.55 | X-H torsion
[ 11005 11000 10999 10996 ] final   50.89 input  -57.11 | X-H torsion

> <Gold.Protein.ActiveResidues>
 VAL166  LYS551  ARG553  GLY616  TRP617  ASP618  TYR619  PRO620  LYS621  CYS622 
 ASP623  PHE694  ASN695  SER759  ASP760  ASP761  ALA762  ILE779  LEU786  VAL792 
 PHE793  MET794  SER795  GLU796  ALA797  LYS798  CYS799  TRP800  GLU811  SER814 

> <Gold.Protein.RotatedAtoms>
  152.0718  134.9528  160.0574 H   0  0  0  0  0  0  0  0  0  0  0  0  # atno 6907 bound_to 6896
  152.0851  133.4167  159.4527 H   0  0  0  0  0  0  0  0  0  0  0  0  # atno 6908 bound_to 6896
  150.6836  134.2856  159.4689 H   0  0  0  0  0  0  0  0  0  0  0  0  # atno 6909 bound_to 6896
  145.7965  139.2960  143.1179 H   0  0  0  0  0  0  0  0  0  0  0  0  # atno 7974 bound_to 7965
  155.1488  140.0403  157.2816 H   0  0  0  0  0  0  0  0  0  0  0  0  # atno 8008 bound_to 7997
  154.6419  140.2549  155.7285 H   0  0  0  0  0  0  0  0  0  0  0  0  # atno 8009 bound_to 7997
  156.2536  140.2854  156.0816 H   0  0  0  0  0  0  0  0  0  0  0  0  # atno 8010 bound_to 7997
  140.1105  143.4532  152.1756 H   0  0  0  0  0  0  0  0  0  0  0  0  # atno 10167 bound_to 10162
  157.6076  131.1040  150.7658 H   0  0  0  0  0  0  0  0  0  0  0  0  # atno 10718 bound_to 10713
  153.0290  135.5209  154.7295 H   0  0  0  0  0  0  0  0  0  0  0  0  # atno 10763 bound_to 10752
  154.6327  135.2902  155.0200 H   0  0  0  0  0  0  0  0  0  0  0  0  # atno 10764 bound_to 10752
  154.1146  135.6617  153.4944 H   0  0  0  0  0  0  0  0  0  0  0  0  # atno 10765 bound_to 10752
  140.0979  134.5121  155.8790 H   0  0  0  0  0  0  0  0  0  0  0  0  # atno 11005 bound_to 11000
  145.9922  140.8593  143.0060 LP  0  0  0  0  0  0  0  0  0  0  0  0  # atno 17320 bound_to 7965
  144.6774  140.2232  143.7364 LP  0  0  0  0  0  0  0  0  0  0  0  0  # atno 17321 bound_to 7965
  139.5622  144.7413  151.4123 LP  0  0  0  0  0  0  0  0  0  0  0  0  # atno 17342 bound_to 10162
  140.6928  143.7820  150.7281 LP  0  0  0  0  0  0  0  0  0  0  0  0  # atno 17343 bound_to 10162
  156.8043  130.4931  149.5365 LP  0  0  0  0  0  0  0  0  0  0  0  0  # atno 17370 bound_to 10713
  156.1168  130.6080  151.0132 LP  0  0  0  0  0  0  0  0  0  0  0  0  # atno 17371 bound_to 10713
  141.2097  133.6687  156.6459 LP  0  0  0  0  0  0  0  0  0  0  0  0  # atno 17394 bound_to 11000
  140.3261  134.7968  157.4290 LP  0  0  0  0  0  0  0  0  0  0  0  0  # atno 17395 bound_to 11000

$$$$
