AV-unprocessed.smi:2850|AV-procd|sdf|10965|dock3
  -GOLD-   2272015413D 1   1.00000     0.00000
 Structure written by MMmdl.
 45 46  0  0  0  0  0  0  0  0  2 V2000
  154.7262  140.3368  160.7687 C   0  0  0  0  0  0  0  0  0  0  0  0
  154.0654  141.8358  159.9891 S   0  0  0  0  0  0  0  0  0  0  0  0
  152.8648  141.3212  158.7989 C   0  0  0  0  0  0  0  0  0  0  0  0
  151.6129  141.9572  158.7235 C   0  0  0  0  0  0  0  0  0  0  0  0
  150.7172  141.4896  157.7464 C   0  0  0  0  0  0  0  0  0  0  0  0
  151.1409  140.4275  156.9223 C   0  0  0  0  0  0  0  0  0  0  0  0
  150.2672  139.9500  155.9350 N   0  0  0  0  0  0  0  0  0  0  0  0
  150.7544  139.3911  154.6787 C   0  0  0  0  0  0  0  0  0  0  0  0
  150.1288  138.0252  154.3394 C   0  0  2  0  0  0  0  0  0  0  0  0
  148.5935  138.0116  154.4914 C   0  0  0  0  0  0  0  0  0  0  0  0
  148.0579  136.6553  154.2272 N   0  3  2  0  0  0  0  0  0  0  0  0
  146.5739  136.6097  154.2777 C   0  0  0  0  0  0  0  0  0  0  0  0
  145.9120  136.8746  152.9078 C   0  0  0  0  0  0  0  0  0  0  0  0
  146.3177  138.2397  152.3264 C   0  0  0  0  0  0  0  0  0  0  0  0
  144.3834  136.7734  153.0190 C   0  0  0  0  0  0  0  0  0  0  0  0
  148.7181  135.6611  155.1081 C   0  0  0  0  0  0  0  0  0  0  0  0
  150.2455  135.7453  154.9562 C   0  0  0  0  0  0  0  0  0  0  0  0
  150.6815  137.0693  155.2377 O   0  0  0  0  0  0  0  0  0  0  0  0
  152.3673  139.8616  157.0561 N   0  0  0  0  0  0  0  0  0  0  0  0
  153.2239  140.3036  157.9835 N   0  0  0  0  0  0  0  0  0  0  0  0
  155.4734  140.6023  161.5164 H   0  0  0  0  0  0  0  0  0  0  0  0
  155.1970  139.6939  160.0247 H   0  0  0  0  0  0  0  0  0  0  0  0
  153.9290  139.7791  161.2607 H   0  0  0  0  0  0  0  0  0  0  0  0
  151.3497  142.7689  159.3855 H   0  0  0  0  0  0  0  0  0  0  0  0
  149.7394  141.9348  157.6342 H   0  0  0  0  0  0  0  0  0  0  0  0
  149.2704  139.9890  156.0931 H   0  0  0  0  0  0  0  0  0  0  0  0
  150.5678  140.1006  153.8716 H   0  0  0  0  0  0  0  0  0  0  0  0
  151.8380  139.2916  154.7488 H   0  0  0  0  0  0  0  0  0  0  0  0
  150.3991  137.7434  153.3205 H   0  0  0  0  0  0  0  0  0  0  0  0
  148.3075  138.3299  155.4954 H   0  0  0  0  0  0  0  0  0  0  0  0
  148.1476  138.7183  153.7905 H   0  0  0  0  0  0  0  0  0  0  0  0
  146.2584  135.6451  154.6781 H   0  0  0  0  0  0  0  0  0  0  0  0
  146.2133  137.3620  154.9812 H   0  0  0  0  0  0  0  0  0  0  0  0
  146.2252  136.1038  152.2042 H   0  0  0  0  0  0  0  0  0  0  0  0
  146.0289  139.0559  152.9895 H   0  0  0  0  0  0  0  0  0  0  0  0
  145.8393  138.4119  151.3617 H   0  0  0  0  0  0  0  0  0  0  0  0
  147.3945  138.3039  152.1681 H   0  0  0  0  0  0  0  0  0  0  0  0
  143.9842  137.5246  153.7012 H   0  0  0  0  0  0  0  0  0  0  0  0
  144.0785  135.7935  153.3874 H   0  0  0  0  0  0  0  0  0  0  0  0
  143.9078  136.9202  152.0487 H   0  0  0  0  0  0  0  0  0  0  0  0
  148.4366  135.8467  156.1457 H   0  0  0  0  0  0  0  0  0  0  0  0
  148.3899  134.6516  154.8635 H   0  0  0  0  0  0  0  0  0  0  0  0
  150.7303  135.0589  155.6505 H   0  0  0  0  0  0  0  0  0  0  0  0
  150.5546  135.4525  153.9514 H   0  0  0  0  0  0  0  0  0  0  0  0
  148.3191  136.4306  153.2776 H   0  0  0  0  0  0  0  0  0  0  0  0
  1  2  1  0  0  0  0
  1 21  1  0  0  0  0
  1 22  1  0  0  0  0
  1 23  1  0  0  0  0
  2  3  1  0  0  0  0
  3 20  1  0  0  0  0
  3  4  2  0  0  0  0
  4  5  1  0  0  0  0
  4 24  1  0  0  0  0
  5  6  2  0  0  0  0
  5 25  1  0  0  0  0
  6  7  1  0  0  0  0
  6 19  1  0  0  0  0
  7  8  1  0  0  0  0
  7 26  1  0  0  0  0
  8  9  1  0  0  0  0
  8 27  1  0  0  0  0
  8 28  1  0  0  0  0
  9 18  1  0  0  0  0
  9 10  1  0  0  0  0
  9 29  1  0  0  0  0
 10 11  1  0  0  0  0
 10 30  1  0  0  0  0
 10 31  1  0  0  0  0
 11 12  1  0  0  0  0
 11 16  1  0  0  0  0
 11 45  1  0  0  0  0
 12 13  1  0  0  0  0
 12 32  1  0  0  0  0
 12 33  1  0  0  0  0
 13 14  1  0  0  0  0
 13 15  1  0  0  0  0
 13 34  1  0  0  0  0
 14 35  1  0  0  0  0
 14 36  1  0  0  0  0
 14 37  1  0  0  0  0
 15 38  1  0  0  0  0
 15 39  1  0  0  0  0
 15 40  1  0  0  0  0
 16 17  1  0  0  0  0
 16 41  1  0  0  0  0
 16 42  1  0  0  0  0
 17 18  1  0  0  0  0
 17 43  1  0  0  0  0
 17 44  1  0  0  0  0
 19 20  2  0  0  0  0
M  CHG  1  11   1
M  END
> <s_m_source_file>
AV-unprocessed.smi

> <i_m_source_file_index>
2850

> <i_lp_mmshare_version>
43012

> <i_f3d_flags>
0

> <s_epik_input>
W0NIM11TYzFbY0hdW2NIXWMobm4xKVtOSF1bQ0gyXVtDQEBIXTJbQ0gyXU4oW0NIMl1bQ0gyXU8yKVtDSDJdW0NIXShbQ0gzXSlbQ0gzXQ==

> <s_epik_cmdline>
J2VwaWtfcHl0aG9uJywgJy1waCcsICc3LjAnLCAnLXRuJywgJzgnLCAnLW1hJywgJzIwMCcsICctbWV0YWxfYmluZGluZycsICctaW1hZScsICc8aW5maWxlLm1hZT4nLCAnLW9tYWUnLCAnPG91dGZpbGUubWFlPic=

> <r_lp_tautomer_probability>
0.999978

> <r_epik_Ionization_Penalty>
0.0874875

> <r_epik_Ionization_Penalty_Charging>
0.0831532

> <r_epik_Ionization_Penalty_Neutral>
0.00433433

> <r_epik_State_Penalty>
0.0738301

> <r_epik_Charging_Adjusted_Penalty>
0.156983

> <i_epik_Tot_Q>
1

> <i_epik_Tot_abs_Q>
1

> <r_epik_Metal_State_Penalty>
0.073888

> <b_epik_Metal_Only>
0

> <s_lp_Force_Field>
OPLS_2005

> <r_lp_Energy>
24.5925

> <b_lp_Chiralities_Consistent>
1

> <s_lp_Variant>
AV-unprocessed.smi:2850-1

> <Gold.Version>
5.8.1

> <Gold.Id.Protein>
6NUR|6NUR_protein|mol2

> <Gold.PLP.Fitness>
37.3137

> <Gold.PLP.PLP>
-30.9034

> <Gold.PLP.part.hbond>
-2.5205

> <Gold.PLP.part.metal>
0.0000

> <Gold.PLP.part.buried>
-0.7835

> <Gold.PLP.part.nonpolar>
-27.5781

> <Gold.PLP.part.repulsive>
0.1648

> <Gold.PLP.ligand.clash>
0.0000

> <Gold.PLP.ligand.torsion>
0.9246

> <Gold.PLP.Chemscore.Hbond>
2.7040

> <Gold.PLP.Chemscore.CHOScore>
0.0000

> <Gold.PLP.Chemscore.Metal>
0.0000

> <Gold.Chemscore.Hbonds>
donor molecule, donor type, donor heavy atom, donor atom, acceptor molecule, acceptor atom, score
      L1  H    11    45       P1  7948  2.00
      P1  H  7997  8008       L1    20  0.75

> <Gold.PLP.Chemscore.Internal.Correction>
0.1475

> <Gold.Rescore>
     Score         DG    S(hbond)    S(metal)    S(lipo)     H(rot)  DE(clash)    DE(int)     intcor
     14.55     -15.74       1.23        0.00      87.53       1.60       0.07       1.11       ----

> <Gold.Chemscore.Fitness>
14.5494

> <Gold.Chemscore.DG>
-15.7366

> <Gold.Chemscore.ZeroCoef>
-5.4800

> <Gold.Chemscore.Hbond>
1.2311

> <Gold.Chemscore.Metal>
0.0000

> <Gold.Chemscore.Lipo>
87.5341

> <Gold.Chemscore.Internal_Hbond>
0.0000

> <Gold.Chemscore.DEClash>
0.0746

> <Gold.Chemscore.DEInternal>
1.1126

> <Gold.Chemscore.Rot>
1.6003

> <Gold.Chemscore.Internal.Correction>
   9.000000E+99

> <Gold.Chemscore.Hbonds>
donor molecule, donor type, donor heavy atom, donor atom, acceptor molecule, acceptor atom, score
      L1  H    11    45       P1  7948  0.96
      P1  H  7997  8008       L1    20  0.19

> <Gold.Chemscore.Hbond.Weighted>
-4.1119

> <Gold.Chemscore.Metal.Weighted>
-0.0000

> <Gold.Chemscore.Lipo.Weighted>
-10.2415

> <Gold.Chemscore.Internal_Hbond.Weighted>
0.0000

> <Gold.Chemscore.DEClash.Weighted>
0.0746

> <Gold.Chemscore.DEInternal.Weighted>
1.1126

> <Gold.Chemscore.Rot.Weighted>
4.0968

> <Gold.Chemscore.Internal.Correction.Weighted>
   9.000000E+99

> <Gold.Protein.RotatedTorsions>
[ 6907 6896 6895 6894 ] final  129.67 input  -60.11 | X-H torsion
[ 7974 7965 7964 7962 ] final  162.10 input  175.53 | X-H torsion
[ 8008 7997 7996 7995 ] final  -96.75 input   59.86 | X-H torsion
[ 10167 10162 10161 10158 ] final -172.47 input  -65.29 | X-H torsion
[ 10718 10713 10712 10709 ] final   10.93 input   66.30 | X-H torsion
[ 10763 10752 10751 10750 ] final   70.37 input  -60.55 | X-H torsion
[ 11005 11000 10999 10996 ] final  161.05 input  -57.11 | X-H torsion

> <Gold.Protein.ActiveResidues>
 VAL166  LYS551  ARG553  GLY616  TRP617  ASP618  TYR619  PRO620  LYS621  CYS622 
 ASP623  PHE694  ASN695  SER759  ASP760  ASP761  ALA762  ILE779  LEU786  VAL792 
 PHE793  MET794  SER795  GLU796  ALA797  LYS798  CYS799  TRP800  GLU811  SER814 

> <Gold.Protein.RotatedAtoms>
  152.3601  133.6286  159.6008 H   0  0  0  0  0  0  0  0  0  0  0  0  # atno 6907 bound_to 6896
  150.7595  133.9437  159.3473 H   0  0  0  0  0  0  0  0  0  0  0  0  # atno 6908 bound_to 6896
  151.7276  135.0882  160.0346 H   0  0  0  0  0  0  0  0  0  0  0  0  # atno 6909 bound_to 6896
  144.7653  139.7992  143.6317 H   0  0  0  0  0  0  0  0  0  0  0  0  # atno 7974 bound_to 7965
  154.7786  140.0469  157.1109 H   0  0  0  0  0  0  0  0  0  0  0  0  # atno 8008 bound_to 7997
  154.9733  140.3092  155.4959 H   0  0  0  0  0  0  0  0  0  0  0  0  # atno 8009 bound_to 7997
  156.2933  140.2249  156.4827 H   0  0  0  0  0  0  0  0  0  0  0  0  # atno 8010 bound_to 7997
  139.5742  144.1570  152.1427 H   0  0  0  0  0  0  0  0  0  0  0  0  # atno 10167 bound_to 10162
  156.9882  130.6032  149.5683 H   0  0  0  0  0  0  0  0  0  0  0  0  # atno 10718 bound_to 10713
  153.0338  135.5176  154.7430 H   0  0  0  0  0  0  0  0  0  0  0  0  # atno 10763 bound_to 10752
  154.6424  135.2914  155.0090 H   0  0  0  0  0  0  0  0  0  0  0  0  # atno 10764 bound_to 10752
  154.1003  135.6637  153.4919 H   0  0  0  0  0  0  0  0  0  0  0  0  # atno 10765 bound_to 10752
  140.2120  134.8260  157.3130 H   0  0  0  0  0  0  0  0  0  0  0  0  # atno 11005 bound_to 11000
  146.1755  139.4923  142.9900 LP  0  0  0  0  0  0  0  0  0  0  0  0  # atno 17320 bound_to 7965
  145.6490  141.0267  143.1771 LP  0  0  0  0  0  0  0  0  0  0  0  0  # atno 17321 bound_to 7965
  140.1109  144.5457  150.6925 LP  0  0  0  0  0  0  0  0  0  0  0  0  # atno 17342 bound_to 10162
  140.7026  143.2445  151.4821 LP  0  0  0  0  0  0  0  0  0  0  0  0  # atno 17343 bound_to 10162
  156.0217  130.5312  150.8295 LP  0  0  0  0  0  0  0  0  0  0  0  0  # atno 17370 bound_to 10713
  157.5478  131.0943  150.9739 LP  0  0  0  0  0  0  0  0  0  0  0  0  # atno 17371 bound_to 10713
  140.1941  134.4335  155.7699 LP  0  0  0  0  0  0  0  0  0  0  0  0  # atno 17394 bound_to 11000
  141.2226  133.7041  156.8076 LP  0  0  0  0  0  0  0  0  0  0  0  0  # atno 17395 bound_to 11000

$$$$
