AV-unprocessed.smi:3303|AV-procd|sdf|12696|dock7
  -GOLD-   2272019 33D 1   1.00000     0.00000
 Structure written by MMmdl.
 44 45  0  0  0  0  0  0  0  0  2 V2000
  152.6029  138.6651  154.8819 C   0  0  0  0  0  0  0  0  0  0  0  0
  151.1877  138.1746  154.5289 C   0  0  1  0  0  0  0  0  0  0  0  0
  151.0522  136.6748  154.8596 C   0  0  0  0  0  0  0  0  0  0  0  0
  149.7039  136.1438  154.5313 N   0  3  1  0  0  0  0  0  0  0  0  0
  149.6564  134.6716  154.7059 C   0  0  0  0  0  0  0  0  0  0  0  0
  148.6269  136.8785  155.2584 C   0  0  2  0  0  0  0  0  0  0  0  0
  147.2162  136.3526  154.9268 C   0  0  0  0  0  0  0  0  0  0  0  0
  148.7058  138.3829  154.9345 C   0  0  0  0  0  0  0  0  0  0  0  0
  150.0865  138.9773  155.2560 C   0  0  2  0  0  0  0  0  0  0  0  0
  150.0812  140.3604  154.7930 N   0  0  0  0  0  0  0  0  0  0  0  0
  149.9672  141.2893  155.9069 C   0  0  0  0  0  0  0  0  0  0  0  0
  151.0397  140.9693  156.9570 C   0  0  0  0  0  0  0  0  0  0  0  0
  151.1200  142.0323  158.0359 C   0  0  0  0  0  0  0  0  0  0  0  0
  152.0496  141.9195  159.0919 C   0  0  0  0  0  0  0  0  0  0  0  0
  152.0816  142.9341  160.0682 C   0  0  0  0  0  0  0  0  0  0  0  0
  151.1871  144.0156  159.9526 C   0  0  0  0  0  0  0  0  0  0  0  0
  150.2956  144.0342  158.8614 C   0  0  0  0  0  0  0  0  0  0  0  0
  150.2569  143.0668  157.9196 N   0  0  0  0  0  0  0  0  0  0  0  0
  152.7876  138.6075  155.9552 H   0  0  0  0  0  0  0  0  0  0  0  0
  152.7572  139.6991  154.5727 H   0  0  0  0  0  0  0  0  0  0  0  0
  153.3628  138.0645  154.3810 H   0  0  0  0  0  0  0  0  0  0  0  0
  151.0520  138.2920  153.4522 H   0  0  0  0  0  0  0  0  0  0  0  0
  151.8029  136.1174  154.2974 H   0  0  0  0  0  0  0  0  0  0  0  0
  151.2600  136.5010  155.9169 H   0  0  0  0  0  0  0  0  0  0  0  0
  149.6914  134.4013  155.7620 H   0  0  0  0  0  0  0  0  0  0  0  0
  150.4999  134.1942  154.2061 H   0  0  0  0  0  0  0  0  0  0  0  0
  148.7547  134.2450  154.2676 H   0  0  0  0  0  0  0  0  0  0  0  0
  148.7916  136.7474  156.3294 H   0  0  0  0  0  0  0  0  0  0  0  0
  146.4510  136.9723  155.3950 H   0  0  0  0  0  0  0  0  0  0  0  0
  147.0593  135.3388  155.2944 H   0  0  0  0  0  0  0  0  0  0  0  0
  147.0304  136.3575  153.8522 H   0  0  0  0  0  0  0  0  0  0  0  0
  148.4739  138.5347  153.8786 H   0  0  0  0  0  0  0  0  0  0  0  0
  147.9406  138.9202  155.4970 H   0  0  0  0  0  0  0  0  0  0  0  0
  150.2478  138.9241  156.3346 H   0  0  0  0  0  0  0  0  0  0  0  0
  149.3049  140.5059  154.1633 H   0  0  0  0  0  0  0  0  0  0  0  0
  150.0925  142.3101  155.5430 H   0  0  0  0  0  0  0  0  0  0  0  0
  148.9737  141.2170  156.3510 H   0  0  0  0  0  0  0  0  0  0  0  0
  150.8324  140.0036  157.4205 H   0  0  0  0  0  0  0  0  0  0  0  0
  152.0175  140.8786  156.4810 H   0  0  0  0  0  0  0  0  0  0  0  0
  152.7231  141.0772  159.1539 H   0  0  0  0  0  0  0  0  0  0  0  0
  152.7794  142.8836  160.8911 H   0  0  0  0  0  0  0  0  0  0  0  0
  151.1832  144.8112  160.6829 H   0  0  0  0  0  0  0  0  0  0  0  0
  149.5947  144.8472  158.7421 H   0  0  0  0  0  0  0  0  0  0  0  0
  149.5609  136.3186  153.5467 H   0  0  0  0  0  0  0  0  0  0  0  0
  1  2  1  0  0  0  0
  1 19  1  0  0  0  0
  1 20  1  0  0  0  0
  1 21  1  0  0  0  0
  2  9  1  0  0  0  0
  2  3  1  0  0  0  0
  2 22  1  0  0  0  0
  3  4  1  0  0  0  0
  3 23  1  0  0  0  0
  3 24  1  0  0  0  0
  4  5  1  0  0  0  0
  4  6  1  0  0  0  0
  4 44  1  0  0  0  0
  5 25  1  0  0  0  0
  5 26  1  0  0  0  0
  5 27  1  0  0  0  0
  6  7  1  0  0  0  0
  6  8  1  0  0  0  0
  6 28  1  0  0  0  0
  7 29  1  0  0  0  0
  7 30  1  0  0  0  0
  7 31  1  0  0  0  0
  8  9  1  0  0  0  0
  8 32  1  0  0  0  0
  8 33  1  0  0  0  0
  9 10  1  0  0  0  0
  9 34  1  0  0  0  0
 10 11  1  0  0  0  0
 10 35  1  0  0  0  0
 11 12  1  0  0  0  0
 11 36  1  0  0  0  0
 11 37  1  0  0  0  0
 12 13  1  0  0  0  0
 12 38  1  0  0  0  0
 12 39  1  0  0  0  0
 13 18  1  0  0  0  0
 13 14  2  0  0  0  0
 14 15  1  0  0  0  0
 14 40  1  0  0  0  0
 15 16  2  0  0  0  0
 15 41  1  0  0  0  0
 16 17  1  0  0  0  0
 16 42  1  0  0  0  0
 17 18  2  0  0  0  0
 17 43  1  0  0  0  0
M  CHG  1   4   1
M  END
> <s_m_source_file>
AV-unprocessed.smi

> <i_m_source_file_index>
3303

> <i_lp_mmshare_version>
43012

> <i_f3d_flags>
0

> <s_epik_input>
W0NIM11bQ0BASF0xW0NIMl1OKFtDSDNdKVtDQEBIXShbQ0gzXSlbQ0gyXVtDQEhdMVtOSF1bQ0gyXVtDSDJdYzJbY0hdW2NIXVtjSF1bY0hdbjI=

> <s_epik_cmdline>
J2VwaWtfcHl0aG9uJywgJy1waCcsICc3LjAnLCAnLXRuJywgJzgnLCAnLW1hJywgJzIwMCcsICctbWV0YWxfYmluZGluZycsICctaW1hZScsICc8aW5maWxlLm1hZT4nLCAnLW9tYWUnLCAnPG91dGZpbGUubWFlPic=

> <r_epik_Ionization_Penalty>
2.31085

> <r_epik_Ionization_Penalty_Charging>
0.000313057

> <r_epik_Ionization_Penalty_Neutral>
2.31054

> <r_epik_State_Penalty>
2.4087

> <r_epik_Charging_Adjusted_Penalty>
2.40902

> <i_epik_Tot_Q>
1

> <i_epik_Tot_abs_Q>
1

> <r_epik_Metal_State_Penalty>
2.30979

> <b_epik_Metal_Only>
0

> <s_lp_Force_Field>
OPLS_2005

> <r_lp_Energy>
23.6085

> <b_lp_Chiralities_Consistent>
1

> <s_lp_Variant>
AV-unprocessed.smi:3303-40

> <Gold.Version>
5.8.1

> <Gold.Id.Protein>
6NUR|6NUR_protein|mol2

> <Gold.PLP.Fitness>
46.5832

> <Gold.PLP.PLP>
-36.0136

> <Gold.PLP.part.hbond>
-2.0000

> <Gold.PLP.part.metal>
0.0000

> <Gold.PLP.part.buried>
-5.0250

> <Gold.PLP.part.nonpolar>
-30.5697

> <Gold.PLP.part.repulsive>
1.4030

> <Gold.PLP.ligand.clash>
0.0000

> <Gold.PLP.ligand.torsion>
0.6729

> <Gold.PLP.Chemscore.Hbond>
2.9600

> <Gold.PLP.Chemscore.CHOScore>
1.0062

> <Gold.PLP.Chemscore.Metal>
0.0000

> <Gold.Chemscore.Hbonds>
donor molecule, donor type, donor heavy atom, donor atom, acceptor molecule, acceptor atom, score
      L1  H     4    44       P1  7948  2.00
      P1  H  7989  7998       L1    10  0.78
      L1  C    17    43       P1  8029  1.00

> <Gold.PLP.Chemscore.Internal.Correction>
0.0168

> <Gold.Rescore>
     Score         DG    S(hbond)    S(metal)    S(lipo)     H(rot)  DE(clash)    DE(int)     intcor
     17.90     -18.70       1.24        0.00     106.71       1.33       0.09       0.71       ----

> <Gold.Chemscore.Fitness>
17.8958

> <Gold.Chemscore.DG>
-18.6962

> <Gold.Chemscore.ZeroCoef>
-5.4800

> <Gold.Chemscore.Hbond>
1.2361

> <Gold.Chemscore.Metal>
0.0000

> <Gold.Chemscore.Lipo>
106.7127

> <Gold.Chemscore.Internal_Hbond>
0.0000

> <Gold.Chemscore.DEClash>
0.0913

> <Gold.Chemscore.DEInternal>
0.7092

> <Gold.Chemscore.Rot>
1.3272

> <Gold.Chemscore.Internal.Correction>
   9.000000E+99

> <Gold.Chemscore.Hbonds>
donor molecule, donor type, donor heavy atom, donor atom, acceptor molecule, acceptor atom, score
      L1  H     4    44       P1  7948  0.55
      P1  H  7989  7998       L1    10  0.11

> <Gold.Chemscore.Hbond.Weighted>
-4.1284

> <Gold.Chemscore.Metal.Weighted>
-0.0000

> <Gold.Chemscore.Lipo.Weighted>
-12.4854

> <Gold.Chemscore.Internal_Hbond.Weighted>
0.0000

> <Gold.Chemscore.DEClash.Weighted>
0.0913

> <Gold.Chemscore.DEInternal.Weighted>
0.7092

> <Gold.Chemscore.Rot.Weighted>
3.3976

> <Gold.Chemscore.Internal.Correction.Weighted>
   9.000000E+99

> <Gold.Protein.RotatedTorsions>
[ 6907 6896 6895 6894 ] final   84.26 input  -60.11 | X-H torsion
[ 7974 7965 7964 7962 ] final  -61.16 input  175.53 | X-H torsion
[ 8008 7997 7996 7995 ] final  -40.84 input   59.86 | X-H torsion
[ 10167 10162 10161 10158 ] final  121.44 input  -65.29 | X-H torsion
[ 10718 10713 10712 10709 ] final -136.61 input   66.30 | X-H torsion
[ 10763 10752 10751 10750 ] final   99.56 input  -60.55 | X-H torsion
[ 11005 11000 10999 10996 ] final -127.33 input  -57.11 | X-H torsion

> <Gold.Protein.ActiveResidues>
 VAL166  LYS551  ARG553  GLY616  TRP617  ASP618  TYR619  PRO620  LYS621  CYS622 
 ASP623  PHE694  ASN695  SER759  ASP760  ASP761  ALA762  ILE779  LEU786  VAL792 
 PHE793  MET794  SER795  GLU796  ALA797  LYS798  CYS799  TRP800  GLU811  SER814 

> <Gold.Protein.RotatedAtoms>
  152.5348  134.2768  159.8992 H   0  0  0  0  0  0  0  0  0  0  0  0  # atno 6907 bound_to 6896
  151.2723  133.4242  159.2629 H   0  0  0  0  0  0  0  0  0  0  0  0  # atno 6908 bound_to 6896
  151.0356  134.9586  159.8191 H   0  0  0  0  0  0  0  0  0  0  0  0  # atno 6909 bound_to 6896
  145.8068  140.8622  143.0203 H   0  0  0  0  0  0  0  0  0  0  0  0  # atno 7974 bound_to 7965
  154.4008  140.1515  156.3093 H   0  0  0  0  0  0  0  0  0  0  0  0  # atno 8008 bound_to 7997
  155.8629  140.3452  155.5747 H   0  0  0  0  0  0  0  0  0  0  0  0  # atno 8009 bound_to 7997
  155.7859  140.0850  157.2025 H   0  0  0  0  0  0  0  0  0  0  0  0  # atno 8010 bound_to 7997
  139.5919  144.7028  151.3268 H   0  0  0  0  0  0  0  0  0  0  0  0  # atno 10167 bound_to 10162
  156.2789  130.7309  151.1300 H   0  0  0  0  0  0  0  0  0  0  0  0  # atno 10718 bound_to 10713
  153.3029  135.4109  155.1269 H   0  0  0  0  0  0  0  0  0  0  0  0  # atno 10763 bound_to 10752
  154.8554  135.3546  154.5827 H   0  0  0  0  0  0  0  0  0  0  0  0  # atno 10764 bound_to 10752
  153.6253  135.7063  153.5354 H   0  0  0  0  0  0  0  0  0  0  0  0  # atno 10765 bound_to 10752
  140.9608  134.0938  157.3970 H   0  0  0  0  0  0  0  0  0  0  0  0  # atno 11005 bound_to 11000
  144.6762  140.0338  143.7482 LP  0  0  0  0  0  0  0  0  0  0  0  0  # atno 17320 bound_to 7965
  145.9820  139.2948  143.1036 LP  0  0  0  0  0  0  0  0  0  0  0  0  # atno 17321 bound_to 7965
  140.7180  143.7213  150.7694 LP  0  0  0  0  0  0  0  0  0  0  0  0  # atno 17342 bound_to 10162
  140.0770  143.5005  152.2550 LP  0  0  0  0  0  0  0  0  0  0  0  0  # atno 17343 bound_to 10162
  157.7308  131.0613  150.5708 LP  0  0  0  0  0  0  0  0  0  0  0  0  # atno 17370 bound_to 10713
  156.5812  130.4305  149.5976 LP  0  0  0  0  0  0  0  0  0  0  0  0  # atno 17371 bound_to 10713
  139.8877  135.0092  156.6579 LP  0  0  0  0  0  0  0  0  0  0  0  0  # atno 17394 bound_to 11000
  140.7469  133.8930  155.8319 LP  0  0  0  0  0  0  0  0  0  0  0  0  # atno 17395 bound_to 11000

$$$$
