AV-unprocessed.smi:2160|AV-procd|sdf|8797|dock1
  -GOLD-   2272011583D 1   1.00000     0.00000
 Structure written by MMmdl.
 43 45  0  0  0  0  0  0  0  0  1 V2000
  142.3018  145.5499  155.9888 C   0  0  0  0  0  0  0  0  0  0  0  0
  143.0071  144.5183  156.6633 O   0  0  0  0  0  0  0  0  0  0  0  0
  144.1296  143.9964  156.0567 C   0  0  0  0  0  0  0  0  0  0  0  0
  144.6414  144.4400  154.8114 C   0  0  0  0  0  0  0  0  0  0  0  0
  145.7964  143.8488  154.2632 C   0  0  0  0  0  0  0  0  0  0  0  0
  146.4618  142.8132  154.9493 C   0  0  0  0  0  0  0  0  0  0  0  0
  147.6939  142.1696  154.3404 C   0  0  0  0  0  0  0  0  0  0  0  0
  148.1154  141.0281  155.0687 O   0  0  0  0  0  0  0  0  0  0  0  0
  149.3225  140.4704  154.5770 C   0  0  0  0  0  0  0  0  0  0  0  0
  150.4365  140.7194  155.6037 C   0  0  2  0  0  0  0  0  0  0  0  0
  151.6620  140.2678  155.0620 O   0  0  0  0  0  0  0  0  0  0  0  0
  150.1682  140.0133  156.9471 C   0  0  0  0  0  0  0  0  0  0  0  0
  151.1368  140.3787  157.9642 N   0  0  0  0  0  0  0  0  0  0  0  0
  151.8528  139.5494  158.7477 C   0  0  0  0  0  0  0  0  0  0  0  0
  152.6898  140.1061  159.6194 N   0  0  0  0  0  0  0  0  0  0  0  0
  152.4942  141.4543  159.3722 C   0  0  0  0  0  0  0  0  0  0  0  0
  153.0861  142.5923  159.9660 C   0  0  0  0  0  0  0  0  0  0  0  0
  152.7234  143.8887  159.5442 C   0  0  0  0  0  0  0  0  0  0  0  0
  151.7657  144.0676  158.5247 C   0  0  0  0  0  0  0  0  0  0  0  0
  151.1624  142.9492  157.9182 C   0  0  0  0  0  0  0  0  0  0  0  0
  151.5273  141.6580  158.3420 C   0  0  0  0  0  0  0  0  0  0  0  0
  145.9513  142.3619  156.1838 C   0  0  0  0  0  0  0  0  0  0  0  0
  144.7966  142.9533  156.7311 C   0  0  0  0  0  0  0  0  0  0  0  0
  141.4474  145.8558  156.5924 H   0  0  0  0  0  0  0  0  0  0  0  0
  141.9189  145.2081  155.0261 H   0  0  0  0  0  0  0  0  0  0  0  0
  142.9292  146.4292  155.8372 H   0  0  0  0  0  0  0  0  0  0  0  0
  144.1647  145.2324  154.2547 H   0  0  0  0  0  0  0  0  0  0  0  0
  146.1705  144.1956  153.3112 H   0  0  0  0  0  0  0  0  0  0  0  0
  147.4606  141.8907  153.3117 H   0  0  0  0  0  0  0  0  0  0  0  0
  148.5038  142.9003  154.3061 H   0  0  0  0  0  0  0  0  0  0  0  0
  149.2047  139.4012  154.3921 H   0  0  0  0  0  0  0  0  0  0  0  0
  149.5752  140.9437  153.6266 H   0  0  0  0  0  0  0  0  0  0  0  0
  150.5282  141.7940  155.7679 H   0  0  0  0  0  0  0  0  0  0  0  0
  152.1906  139.9197  155.7635 H   0  0  0  0  0  0  0  0  0  0  0  0
  149.1766  140.2735  157.3196 H   0  0  0  0  0  0  0  0  0  0  0  0
  150.1785  138.9295  156.8224 H   0  0  0  0  0  0  0  0  0  0  0  0
  151.7555  138.4762  158.6725 H   0  0  0  0  0  0  0  0  0  0  0  0
  153.8208  142.4674  160.7473 H   0  0  0  0  0  0  0  0  0  0  0  0
  153.1829  144.7505  160.0055 H   0  0  0  0  0  0  0  0  0  0  0  0
  151.4942  145.0640  158.2080 H   0  0  0  0  0  0  0  0  0  0  0  0
  150.4292  143.0805  157.1363 H   0  0  0  0  0  0  0  0  0  0  0  0
  146.4411  141.5608  156.7177 H   0  0  0  0  0  0  0  0  0  0  0  0
  144.4173  142.6006  157.6790 H   0  0  0  0  0  0  0  0  0  0  0  0
  1  2  1  0  0  0  0
  1 24  1  0  0  0  0
  1 25  1  0  0  0  0
  1 26  1  0  0  0  0
  2  3  1  0  0  0  0
  3 23  1  0  0  0  0
  3  4  2  0  0  0  0
  4  5  1  0  0  0  0
  4 27  1  0  0  0  0
  5  6  2  0  0  0  0
  5 28  1  0  0  0  0
  6  7  1  0  0  0  0
  6 22  1  0  0  0  0
  7  8  1  0  0  0  0
  7 29  1  0  0  0  0
  7 30  1  0  0  0  0
  8  9  1  0  0  0  0
  9 10  1  0  0  0  0
  9 31  1  0  0  0  0
  9 32  1  0  0  0  0
 10 11  1  0  0  0  0
 10 12  1  0  0  0  0
 10 33  1  0  0  0  0
 11 34  1  0  0  0  0
 12 13  1  0  0  0  0
 12 35  1  0  0  0  0
 12 36  1  0  0  0  0
 13 21  1  0  0  0  0
 13 14  1  0  0  0  0
 14 15  2  0  0  0  0
 14 37  1  0  0  0  0
 15 16  1  0  0  0  0
 16 21  2  0  0  0  0
 16 17  1  0  0  0  0
 17 18  2  0  0  0  0
 17 38  1  0  0  0  0
 18 19  1  0  0  0  0
 18 39  1  0  0  0  0
 19 20  2  0  0  0  0
 19 40  1  0  0  0  0
 20 21  1  0  0  0  0
 20 41  1  0  0  0  0
 22 23  2  0  0  0  0
 22 42  1  0  0  0  0
 23 43  1  0  0  0  0
M  END
> <s_m_source_file>
AV-unprocessed.smi

> <i_m_source_file_index>
2160

> <i_lp_mmshare_version>
43012

> <i_f3d_flags>
0

> <s_epik_input>
W0NIM11PYzFbY0hdW2NIXWMoW2NIXVtjSF0xKVtDSDJdT1tDSDJdW0NASF0oW09IXSlbQ0gyXW4oW2NIXW4yKWMoYzIzKVtjSF1bY0hdW2NIXVtjSF0z

> <s_epik_cmdline>
J2VwaWtfcHl0aG9uJywgJy1waCcsICc3LjAnLCAnLXRuJywgJzgnLCAnLW1hJywgJzIwMCcsICctbWV0YWxfYmluZGluZycsICctaW1hZScsICc8aW5maWxlLm1hZT4nLCAnLW9tYWUnLCAnPG91dGZpbGUubWFlPic=

> <r_lp_tautomer_probability>
1

> <r_epik_Ionization_Penalty>
0.0713119

> <r_epik_Ionization_Penalty_Charging>
0

> <r_epik_Ionization_Penalty_Neutral>
0.0713119

> <r_epik_State_Penalty>
0.06259

> <r_epik_Charging_Adjusted_Penalty>
0.06259

> <i_epik_Tot_Q>
0

> <i_epik_Tot_abs_Q>
0

> <r_epik_Metal_State_Penalty>
6.60119e-05

> <b_epik_Metal_Only>
0

> <s_lp_Force_Field>
OPLS_2005

> <r_lp_Energy>
16.653

> <b_lp_Chiralities_Consistent>
1

> <s_lp_Variant>
AV-unprocessed.smi:2160-1

> <Gold.Version>
5.8.1

> <Gold.Id.Protein>
6NUR|6NUR_protein|mol2

> <Gold.PLP.Fitness>
52.8676

> <Gold.PLP.PLP>
-51.2649

> <Gold.PLP.part.hbond>
-1.0000

> <Gold.PLP.part.metal>
0.0000

> <Gold.PLP.part.buried>
-7.1823

> <Gold.PLP.part.nonpolar>
-43.8228

> <Gold.PLP.part.repulsive>
0.1293

> <Gold.PLP.ligand.clash>
0.0000

> <Gold.PLP.ligand.torsion>
0.5306

> <Gold.PLP.Chemscore.Hbond>
0.8500

> <Gold.PLP.Chemscore.CHOScore>
0.0000

> <Gold.PLP.Chemscore.Metal>
0.0000

> <Gold.Chemscore.Hbonds>
donor molecule, donor type, donor heavy atom, donor atom, acceptor molecule, acceptor atom, score
      P1  H  7989  7998       L1    11  0.93

> <Gold.PLP.Chemscore.Internal.Correction>
0.1139

> <Gold.Rescore>
     Score         DG    S(hbond)    S(metal)    S(lipo)     H(rot)  DE(clash)    DE(int)     intcor
     15.03     -15.55       0.86        0.00     118.91       2.63       0.01       0.51       ----

> <Gold.Chemscore.Fitness>
15.0265

> <Gold.Chemscore.DG>
-15.5451

> <Gold.Chemscore.ZeroCoef>
-5.4800

> <Gold.Chemscore.Hbond>
0.8646

> <Gold.Chemscore.Metal>
0.0000

> <Gold.Chemscore.Lipo>
118.9060

> <Gold.Chemscore.Internal_Hbond>
0.0000

> <Gold.Chemscore.DEClash>
0.0063

> <Gold.Chemscore.DEInternal>
0.5124

> <Gold.Chemscore.Rot>
2.6308

> <Gold.Chemscore.Internal.Correction>
   9.000000E+99

> <Gold.Chemscore.Hbonds>
donor molecule, donor type, donor heavy atom, donor atom, acceptor molecule, acceptor atom, score
      P1  H  7989  7998       L1    11  0.40

> <Gold.Chemscore.Hbond.Weighted>
-2.8879

> <Gold.Chemscore.Metal.Weighted>
-0.0000

> <Gold.Chemscore.Lipo.Weighted>
-13.9120

> <Gold.Chemscore.Internal_Hbond.Weighted>
0.0000

> <Gold.Chemscore.DEClash.Weighted>
0.0063

> <Gold.Chemscore.DEInternal.Weighted>
0.5124

> <Gold.Chemscore.Rot.Weighted>
6.7347

> <Gold.Chemscore.Internal.Correction.Weighted>
   9.000000E+99

> <Gold.Protein.RotatedTorsions>
[ 6907 6896 6895 6894 ] final   28.34 input  -60.11 | X-H torsion
[ 7974 7965 7964 7962 ] final -110.54 input  175.53 | X-H torsion
[ 8008 7997 7996 7995 ] final  -28.69 input   59.86 | X-H torsion
[ 10167 10162 10161 10158 ] final  123.07 input  -65.29 | X-H torsion
[ 10718 10713 10712 10709 ] final   24.93 input   66.30 | X-H torsion
[ 10763 10752 10751 10750 ] final -118.26 input  -60.55 | X-H torsion
[ 11005 11000 10999 10996 ] final  149.46 input  -57.11 | X-H torsion

> <Gold.Protein.ActiveResidues>
 VAL166  LYS551  ARG553  GLY616  TRP617  ASP618  TYR619  PRO620  LYS621  CYS622 
 ASP623  PHE694  ASN695  SER759  ASP760  ASP761  ALA762  ILE779  LEU786  VAL792 
 PHE793  MET794  SER795  GLU796  ALA797  LYS798  CYS799  TRP800  GLU811  SER814 

> <Gold.Protein.RotatedAtoms>
  152.0155  134.9852  160.0569 H   0  0  0  0  0  0  0  0  0  0  0  0  # atno 6907 bound_to 6896
  152.1388  133.4446  159.4765 H   0  0  0  0  0  0  0  0  0  0  0  0  # atno 6908 bound_to 6896
  150.6863  134.2249  159.4454 H   0  0  0  0  0  0  0  0  0  0  0  0  # atno 6909 bound_to 6896
  145.1670  140.8907  143.3557 H   0  0  0  0  0  0  0  0  0  0  0  0  # atno 7974 bound_to 7965
  154.4321  140.1838  156.1129 H   0  0  0  0  0  0  0  0  0  0  0  0  # atno 8008 bound_to 7997
  156.0203  140.3341  155.7007 H   0  0  0  0  0  0  0  0  0  0  0  0  # atno 8009 bound_to 7997
  155.5985  140.0638  157.2730 H   0  0  0  0  0  0  0  0  0  0  0  0  # atno 8010 bound_to 7997
  139.5821  144.6990  151.3502 H   0  0  0  0  0  0  0  0  0  0  0  0  # atno 10167 bound_to 10162
  157.1864  130.6826  149.6133 H   0  0  0  0  0  0  0  0  0  0  0  0  # atno 10718 bound_to 10713
  154.8581  135.4280  154.2110 H   0  0  0  0  0  0  0  0  0  0  0  0  # atno 10763 bound_to 10752
  153.3135  135.6977  153.7100 H   0  0  0  0  0  0  0  0  0  0  0  0  # atno 10764 bound_to 10752
  153.6183  135.3506  155.2976 H   0  0  0  0  0  0  0  0  0  0  0  0  # atno 10765 bound_to 10752
  140.1047  134.8961  157.1848 H   0  0  0  0  0  0  0  0  0  0  0  0  # atno 11005 bound_to 11000
  145.0272  139.3373  143.6043 LP  0  0  0  0  0  0  0  0  0  0  0  0  # atno 17320 bound_to 7965
  146.3474  139.9595  142.8719 LP  0  0  0  0  0  0  0  0  0  0  0  0  # atno 17321 bound_to 7965
  140.7098  143.7421  150.7546 LP  0  0  0  0  0  0  0  0  0  0  0  0  # atno 17342 bound_to 10162
  140.0956  143.4836  152.2454 LP  0  0  0  0  0  0  0  0  0  0  0  0  # atno 17343 bound_to 10162
  155.9717  130.4629  150.6163 LP  0  0  0  0  0  0  0  0  0  0  0  0  # atno 17370 bound_to 10713
  157.3903  131.0794  151.1400 LP  0  0  0  0  0  0  0  0  0  0  0  0  # atno 17371 bound_to 10713
  140.3172  134.2957  155.7254 LP  0  0  0  0  0  0  0  0  0  0  0  0  # atno 17394 bound_to 11000
  141.2115  133.7687  156.9860 LP  0  0  0  0  0  0  0  0  0  0  0  0  # atno 17395 bound_to 11000

$$$$
