AV-unprocessed.smi:3328|AV-procd|sdf|12792|dock2
  -GOLD-   2272019143D 1   1.00000     0.00000
 Structure written by MMmdl.
 41 42  0  0  0  0  0  0  0  0  2 V2000
  143.8135  132.6568  149.8869 C   0  0  0  0  0  0  0  0  0  0  0  0
  144.2267  133.7738  150.8015 C   0  0  0  0  0  0  0  0  0  0  0  0
  144.0360  133.8674  152.2094 C   0  0  0  0  0  0  0  0  0  0  0  0
  144.5226  134.9866  152.7207 N   0  0  0  0  0  0  0  0  0  0  0  0
  145.0339  135.6474  151.6603 N   0  0  0  0  0  0  0  0  0  0  0  0
  145.6686  136.9399  151.8517 C   0  0  0  0  0  0  0  0  0  0  0  0
  145.6129  137.4081  153.3192 C   0  0  1  0  0  0  0  0  0  0  0  0
  146.6286  136.6352  154.1767 C   0  0  0  0  0  0  0  0  0  0  0  0
  145.8516  138.8678  153.3995 N   0  3  0  0  0  0  0  0  0  0  0  0
  147.2396  139.2996  153.1388 C   0  0  0  0  0  0  0  0  0  0  0  0
  147.4186  140.7875  153.4758 C   0  0  0  0  0  0  0  0  0  0  0  0
  148.2142  140.9708  154.6863 N   0  0  0  0  0  0  0  0  0  0  0  0
  147.6765  141.6879  155.8302 C   0  0  0  0  0  0  0  0  0  0  0  0
  148.7088  141.4813  156.9478 C   0  0  0  0  0  0  0  0  0  0  0  0
  149.9736  140.9644  156.2537 C   0  0  0  0  0  0  0  0  0  0  0  0
  149.4770  140.5700  154.8730 C   0  0  0  0  0  0  0  0  0  0  0  0
  150.1715  139.9624  154.0595 O   0  0  0  0  0  0  0  0  0  0  0  0
  144.8700  134.9380  150.4895 C   0  0  0  0  0  0  0  0  0  0  0  0
  143.2719  131.8752  150.4203 H   0  0  0  0  0  0  0  0  0  0  0  0
  144.6747  132.1847  149.4140 H   0  0  0  0  0  0  0  0  0  0  0  0
  143.1611  133.0108  149.0885 H   0  0  0  0  0  0  0  0  0  0  0  0
  143.5628  133.1572  152.8717 H   0  0  0  0  0  0  0  0  0  0  0  0
  146.7058  136.8532  151.5246 H   0  0  0  0  0  0  0  0  0  0  0  0
  145.1964  137.6706  151.1929 H   0  0  0  0  0  0  0  0  0  0  0  0
  144.6108  137.2000  153.6979 H   0  0  0  0  0  0  0  0  0  0  0  0
  146.4677  135.5596  154.0968 H   0  0  0  0  0  0  0  0  0  0  0  0
  146.5467  136.8925  155.2326 H   0  0  0  0  0  0  0  0  0  0  0  0
  147.6518  136.8402  153.8607 H   0  0  0  0  0  0  0  0  0  0  0  0
  145.2273  139.3404  152.7614 H   0  0  0  0  0  0  0  0  0  0  0  0
  147.9245  138.7030  153.7430 H   0  0  0  0  0  0  0  0  0  0  0  0
  147.4862  139.1175  152.0928 H   0  0  0  0  0  0  0  0  0  0  0  0
  147.9000  141.3082  152.6462 H   0  0  0  0  0  0  0  0  0  0  0  0
  146.4439  141.2588  153.6110 H   0  0  0  0  0  0  0  0  0  0  0  0
  147.5786  142.7449  155.5789 H   0  0  0  0  0  0  0  0  0  0  0  0
  146.6932  141.3095  156.1122 H   0  0  0  0  0  0  0  0  0  0  0  0
  148.8926  142.4010  157.5039 H   0  0  0  0  0  0  0  0  0  0  0  0
  148.3476  140.7362  157.6582 H   0  0  0  0  0  0  0  0  0  0  0  0
  150.7240  141.7500  156.1581 H   0  0  0  0  0  0  0  0  0  0  0  0
  150.4167  140.1172  156.7782 H   0  0  0  0  0  0  0  0  0  0  0  0
  145.2222  135.3148  149.5402 H   0  0  0  0  0  0  0  0  0  0  0  0
  145.6201  139.1555  154.3403 H   0  0  0  0  0  0  0  0  0  0  0  0
  1  2  1  0  0  0  0
  1 19  1  0  0  0  0
  1 20  1  0  0  0  0
  1 21  1  0  0  0  0
  2 18  2  0  0  0  0
  2  3  1  0  0  0  0
  3  4  2  0  0  0  0
  3 22  1  0  0  0  0
  4  5  1  0  0  0  0
  5  6  1  0  0  0  0
  5 18  1  0  0  0  0
  6  7  1  0  0  0  0
  6 23  1  0  0  0  0
  6 24  1  0  0  0  0
  7  8  1  0  0  0  0
  7  9  1  0  0  0  0
  7 25  1  0  0  0  0
  8 26  1  0  0  0  0
  8 27  1  0  0  0  0
  8 28  1  0  0  0  0
  9 10  1  0  0  0  0
  9 29  1  0  0  0  0
  9 41  1  0  0  0  0
 10 11  1  0  0  0  0
 10 30  1  0  0  0  0
 10 31  1  0  0  0  0
 11 12  1  0  0  0  0
 11 32  1  0  0  0  0
 11 33  1  0  0  0  0
 12 16  1  0  0  0  0
 12 13  1  0  0  0  0
 13 14  1  0  0  0  0
 13 34  1  0  0  0  0
 13 35  1  0  0  0  0
 14 15  1  0  0  0  0
 14 36  1  0  0  0  0
 14 37  1  0  0  0  0
 15 16  1  0  0  0  0
 15 38  1  0  0  0  0
 15 39  1  0  0  0  0
 16 17  2  0  0  0  0
 18 40  1  0  0  0  0
M  CHG  1   9   1
M  END
> <s_m_source_file>
AV-unprocessed.smi

> <i_m_source_file_index>
3328

> <i_lp_mmshare_version>
43012

> <i_f3d_flags>
0

> <s_epik_input>
W0NIM11jMVtjSF1ubihbY0hdMSlbQ0gyXVtDQEhdKFtDSDNdKVtOSF1bQ0gyXVtDSDJdTjJbQ0gyXVtDSDJdW0NIMl1DMj1P

> <s_epik_cmdline>
J2VwaWtfcHl0aG9uJywgJy1waCcsICc3LjAnLCAnLXRuJywgJzgnLCAnLW1hJywgJzIwMCcsICctbWV0YWxfYmluZGluZycsICctaW1hZScsICc8aW5maWxlLm1hZT4nLCAnLW9tYWUnLCAnPG91dGZpbGUubWFlPic=

> <r_lp_tautomer_probability>
1

> <r_epik_Ionization_Penalty>
0.00826719

> <r_epik_Ionization_Penalty_Charging>
0.00825899

> <r_epik_Ionization_Penalty_Neutral>
8.19932e-06

> <r_epik_State_Penalty>
0.00621436

> <r_epik_Charging_Adjusted_Penalty>
0.0144734

> <i_epik_Tot_Q>
1

> <i_epik_Tot_abs_Q>
1

> <r_epik_Metal_State_Penalty>
0.00621509

> <b_epik_Metal_Only>
0

> <s_lp_Force_Field>
OPLS_2005

> <r_lp_Energy>
19.1629

> <b_lp_Chiralities_Consistent>
1

> <s_lp_Variant>
AV-unprocessed.smi:3328-2

> <Gold.Version>
5.8.1

> <Gold.Id.Protein>
6NUR|6NUR_protein|mol2

> <Gold.PLP.Fitness>
44.9977

> <Gold.PLP.PLP>
-30.9578

> <Gold.PLP.part.hbond>
-2.0000

> <Gold.PLP.part.metal>
0.0000

> <Gold.PLP.part.buried>
-3.1086

> <Gold.PLP.part.nonpolar>
-27.2370

> <Gold.PLP.part.repulsive>
1.1678

> <Gold.PLP.ligand.clash>
0.0000

> <Gold.PLP.ligand.torsion>
0.5626

> <Gold.PLP.Chemscore.Hbond>
2.9920

> <Gold.PLP.Chemscore.CHOScore>
2.0000

> <Gold.PLP.Chemscore.Metal>
0.0000

> <Gold.Chemscore.Hbonds>
donor molecule, donor type, donor heavy atom, donor atom, acceptor molecule, acceptor atom, score
      L1  H     9    29       P1 10175  1.98
      P1  H  7989  7998       L1    17  0.99
      L1  C     3    22       P1 10957  1.00
      L1  C    18    40       P1  7921  1.00

> <Gold.PLP.Chemscore.Internal.Correction>
0.1891

> <Gold.Rescore>
     Score         DG    S(hbond)    S(metal)    S(lipo)     H(rot)  DE(clash)    DE(int)     intcor
     13.78     -14.48       1.93        0.00      64.86       1.97       0.07       0.64       ----

> <Gold.Chemscore.Fitness>
13.7755

> <Gold.Chemscore.DG>
-14.4846

> <Gold.Chemscore.ZeroCoef>
-5.4800

> <Gold.Chemscore.Hbond>
1.9349

> <Gold.Chemscore.Metal>
0.0000

> <Gold.Chemscore.Lipo>
64.8620

> <Gold.Chemscore.Internal_Hbond>
0.0000

> <Gold.Chemscore.DEClash>
0.0677

> <Gold.Chemscore.DEInternal>
0.6414

> <Gold.Chemscore.Rot>
1.9714

> <Gold.Chemscore.Internal.Correction>
   9.000000E+99

> <Gold.Chemscore.Hbonds>
donor molecule, donor type, donor heavy atom, donor atom, acceptor molecule, acceptor atom, score
      L1  H     9    29       P1 10175  0.94
      P1  H  7989  7998       L1    17  0.86

> <Gold.Chemscore.Hbond.Weighted>
-6.4626

> <Gold.Chemscore.Metal.Weighted>
-0.0000

> <Gold.Chemscore.Lipo.Weighted>
-7.5889

> <Gold.Chemscore.Internal_Hbond.Weighted>
0.0000

> <Gold.Chemscore.DEClash.Weighted>
0.0677

> <Gold.Chemscore.DEInternal.Weighted>
0.6414

> <Gold.Chemscore.Rot.Weighted>
5.0468

> <Gold.Chemscore.Internal.Correction.Weighted>
   9.000000E+99

> <Gold.Protein.RotatedTorsions>
[ 6907 6896 6895 6894 ] final -124.95 input  -60.11 | X-H torsion
[ 7974 7965 7964 7962 ] final  142.59 input  175.53 | X-H torsion
[ 8008 7997 7996 7995 ] final  -73.16 input   59.86 | X-H torsion
[ 10167 10162 10161 10158 ] final  141.88 input  -65.29 | X-H torsion
[ 10718 10713 10712 10709 ] final -133.91 input   66.30 | X-H torsion
[ 10763 10752 10751 10750 ] final  -49.08 input  -60.55 | X-H torsion
[ 11005 11000 10999 10996 ] final    1.00 input  -57.11 | X-H torsion

> <Gold.Protein.ActiveResidues>
 VAL166  LYS551  ARG553  GLY616  TRP617  ASP618  TYR619  PRO620  LYS621  CYS622 
 ASP623  PHE694  ASN695  SER759  ASP760  ASP761  ALA762  ILE779  LEU786  VAL792 
 PHE793  MET794  SER795  GLU796  ALA797  LYS798  CYS799  TRP800  GLU811  SER814 

> <Gold.Protein.RotatedAtoms>
  150.8819  133.7361  159.2929 H   0  0  0  0  0  0  0  0  0  0  0  0  # atno 6907 bound_to 6896
  151.4939  135.1057  159.9820 H   0  0  0  0  0  0  0  0  0  0  0  0  # atno 6908 bound_to 6896
  152.4765  133.8105  159.7056 H   0  0  0  0  0  0  0  0  0  0  0  0  # atno 6909 bound_to 6896
  144.8995  139.5444  143.5760 H   0  0  0  0  0  0  0  0  0  0  0  0  # atno 7974 bound_to 7965
  154.5225  140.0784  156.8197 H   0  0  0  0  0  0  0  0  0  0  0  0  # atno 8008 bound_to 7997
  155.3546  140.3414  155.4221 H   0  0  0  0  0  0  0  0  0  0  0  0  # atno 8009 bound_to 7997
  156.1696  140.1615  156.8458 H   0  0  0  0  0  0  0  0  0  0  0  0  # atno 8010 bound_to 7997
  139.5009  144.6143  151.6200 H   0  0  0  0  0  0  0  0  0  0  0  0  # atno 10167 bound_to 10162
  156.2499  130.7147  151.1042 H   0  0  0  0  0  0  0  0  0  0  0  0  # atno 10718 bound_to 10713
  154.0883  135.6581  153.4848 H   0  0  0  0  0  0  0  0  0  0  0  0  # atno 10763 bound_to 10752
  153.0331  135.5196  154.7405 H   0  0  0  0  0  0  0  0  0  0  0  0  # atno 10764 bound_to 10752
  154.6521  135.3003  154.9942 H   0  0  0  0  0  0  0  0  0  0  0  0  # atno 10765 bound_to 10752
  140.6203  133.9667  155.8221 H   0  0  0  0  0  0  0  0  0  0  0  0  # atno 11005 bound_to 11000
  146.3100  139.7713  142.9027 LP  0  0  0  0  0  0  0  0  0  0  0  0  # atno 17320 bound_to 7965
  145.3642  141.0331  143.3267 LP  0  0  0  0  0  0  0  0  0  0  0  0  # atno 17321 bound_to 7965
  140.5826  143.9919  150.6277 LP  0  0  0  0  0  0  0  0  0  0  0  0  # atno 17342 bound_to 10162
  140.3073  143.3221  152.0913 LP  0  0  0  0  0  0  0  0  0  0  0  0  # atno 17343 bound_to 10162
  157.7210  131.0681  150.6134 LP  0  0  0  0  0  0  0  0  0  0  0  0  # atno 17370 bound_to 10713
  156.6213  130.4407  149.5821 LP  0  0  0  0  0  0  0  0  0  0  0  0  # atno 17371 bound_to 10713
  141.0747  134.0153  157.3475 LP  0  0  0  0  0  0  0  0  0  0  0  0  # atno 17394 bound_to 11000
  139.9156  135.0196  156.7867 LP  0  0  0  0  0  0  0  0  0  0  0  0  # atno 17395 bound_to 11000

$$$$
