AV-unprocessed.smi:233|AV-procd|sdf|1784|dock8
  -GOLD-   2262020333D 1   1.00000     0.00000
 Structure written by MMmdl.
 59 62  0  0  0  0  0  0  0  0  1 V2000
  151.9252  139.5559  159.4202 C   0  0  0  0  0  0  0  0  0  0  0  0
  151.9899  139.6292  157.8986 C   0  0  0  0  0  0  0  0  0  0  0  0
  152.8874  139.0469  157.2903 O   0  0  0  0  0  0  0  0  0  0  0  0
  151.0299  140.3491  157.2985 N   0  0  0  0  0  0  0  0  0  0  0  0
  150.8978  140.5562  155.8570 C   0  0  2  0  0  0  0  0  0  0  0  0
  149.7320  141.5073  155.5245 C   0  0  0  0  0  0  0  0  0  0  0  0
  148.3610  140.8752  155.8194 C   0  0  0  0  0  0  0  0  0  0  0  0
  148.1636  139.5333  155.0748 C   0  0  2  0  0  0  0  0  0  0  0  0
  146.8475  138.9459  155.3713 N   0  0  0  0  0  0  0  0  0  0  0  0
  145.6710  139.7808  155.1475 C   0  0  0  0  0  0  0  0  0  0  0  0
  146.6369  137.7041  154.8795 C   0  0  0  0  0  0  0  0  0  0  0  0
  146.7656  136.6638  155.7392 N   0  0  0  0  0  0  0  0  0  0  0  0
  146.5677  135.4143  155.3077 C   0  0  0  0  0  0  0  0  0  0  0  0
  146.2423  134.9951  154.0825 N   0  0  0  0  0  0  0  0  0  0  0  0
  146.1084  136.0421  153.2182 C   0  0  0  0  0  0  0  0  0  0  0  0
  146.2784  137.4193  153.5320 C   0  0  0  0  0  0  0  0  0  0  0  0
  146.0388  138.1965  152.4056 N   0  0  0  0  0  0  0  0  0  0  0  0
  145.7431  137.3273  151.4781 C   0  0  0  0  0  0  0  0  0  0  0  0
  145.7894  136.0086  151.8726 N   0  0  0  0  0  0  0  0  0  0  0  0
  145.4835  134.8569  151.0764 C   0  0  0  0  0  0  0  0  0  0  0  0
  144.4581  133.8261  151.5525 C   0  0  0  0  0  0  0  0  0  0  0  0
  145.2601  132.7111  150.8438 C   0  0  0  0  0  0  0  0  0  0  0  0
  145.4044  131.3964  151.6278 C   0  0  0  0  0  0  0  0  0  0  0  0
  146.4529  130.6043  151.1083 O   0  0  0  0  0  0  0  0  0  0  0  0
  144.8132  132.3955  149.4021 C   0  0  0  0  0  0  0  0  0  0  0  0
  143.5218  131.8218  149.3753 O   0  0  0  0  0  0  0  0  0  0  0  0
  146.4567  133.6808  150.9637 C   0  0  0  0  0  0  0  0  0  0  0  0
  149.3345  138.5783  155.4276 C   0  0  0  0  0  0  0  0  0  0  0  0
  150.7083  139.2087  155.1391 C   0  0  0  0  0  0  0  0  0  0  0  0
  151.7229  140.5394  159.8462 H   0  0  0  0  0  0  0  0  0  0  0  0
  152.8692  139.1956  159.8302 H   0  0  0  0  0  0  0  0  0  0  0  0
  151.1333  138.8744  159.7321 H   0  0  0  0  0  0  0  0  0  0  0  0
  150.3361  140.7908  157.8841 H   0  0  0  0  0  0  0  0  0  0  0  0
  151.8260  141.0010  155.4939 H   0  0  0  0  0  0  0  0  0  0  0  0
  149.8347  142.4448  156.0719 H   0  0  0  0  0  0  0  0  0  0  0  0
  149.7791  141.7716  154.4674 H   0  0  0  0  0  0  0  0  0  0  0  0
  148.2503  140.7219  156.8937 H   0  0  0  0  0  0  0  0  0  0  0  0
  147.5913  141.5910  155.5312 H   0  0  0  0  0  0  0  0  0  0  0  0
  148.2031  139.7411  154.0050 H   0  0  0  0  0  0  0  0  0  0  0  0
  144.7507  139.1946  155.1177 H   0  0  0  0  0  0  0  0  0  0  0  0
  145.7566  140.3252  154.2063 H   0  0  0  0  0  0  0  0  0  0  0  0
  145.5655  140.5055  155.9548 H   0  0  0  0  0  0  0  0  0  0  0  0
  146.6886  134.6392  156.0500 H   0  0  0  0  0  0  0  0  0  0  0  0
  145.4881  137.6290  150.4726 H   0  0  0  0  0  0  0  0  0  0  0  0
  145.2194  135.2357  150.0876 H   0  0  0  0  0  0  0  0  0  0  0  0
  144.4488  133.7222  152.6393 H   0  0  0  0  0  0  0  0  0  0  0  0
  143.4496  133.9873  151.1704 H   0  0  0  0  0  0  0  0  0  0  0  0
  145.6266  131.5940  152.6769 H   0  0  0  0  0  0  0  0  0  0  0  0
  144.4814  130.8166  151.6164 H   0  0  0  0  0  0  0  0  0  0  0  0
  147.1985  131.1623  150.9470 H   0  0  0  0  0  0  0  0  0  0  0  0
  144.7869  133.2981  148.7914 H   0  0  0  0  0  0  0  0  0  0  0  0
  145.5092  131.7175  148.9078 H   0  0  0  0  0  0  0  0  0  0  0  0
  142.9576  132.3269  149.9404 H   0  0  0  0  0  0  0  0  0  0  0  0
  147.1080  133.7149  150.0899 H   0  0  0  0  0  0  0  0  0  0  0  0
  147.0355  133.5256  151.8763 H   0  0  0  0  0  0  0  0  0  0  0  0
  149.2733  138.2950  156.4793 H   0  0  0  0  0  0  0  0  0  0  0  0
  149.2659  137.6510  154.8585 H   0  0  0  0  0  0  0  0  0  0  0  0
  150.8078  139.3600  154.0635 H   0  0  0  0  0  0  0  0  0  0  0  0
  151.5028  138.5166  155.4211 H   0  0  0  0  0  0  0  0  0  0  0  0
  1  2  1  0  0  0  0
  1 30  1  0  0  0  0
  1 31  1  0  0  0  0
  1 32  1  0  0  0  0
  2  3  2  0  0  0  0
  2  4  1  0  0  0  0
  4  5  1  0  0  0  0
  4 33  1  0  0  0  0
  5 29  1  0  0  0  0
  5  6  1  0  0  0  0
  5 34  1  0  0  0  0
  6  7  1  0  0  0  0
  6 35  1  0  0  0  0
  6 36  1  0  0  0  0
  7  8  1  0  0  0  0
  7 37  1  0  0  0  0
  7 38  1  0  0  0  0
  8  9  1  0  0  0  0
  8 28  1  0  0  0  0
  8 39  1  0  0  0  0
  9 10  1  0  0  0  0
  9 11  1  0  0  0  0
 10 40  1  0  0  0  0
 10 41  1  0  0  0  0
 10 42  1  0  0  0  0
 11 16  1  0  0  0  0
 11 12  2  0  0  0  0
 12 13  1  0  0  0  0
 13 14  2  0  0  0  0
 13 43  1  0  0  0  0
 14 15  1  0  0  0  0
 15 19  1  0  0  0  0
 15 16  2  0  0  0  0
 16 17  1  0  0  0  0
 17 18  2  0  0  0  0
 18 19  1  0  0  0  0
 18 44  1  0  0  0  0
 19 20  1  0  0  0  0
 20 27  1  0  0  0  0
 20 21  1  0  0  0  0
 20 45  1  0  0  0  0
 21 22  1  0  0  0  0
 21 46  1  0  0  0  0
 21 47  1  0  0  0  0
 22 23  1  0  0  0  0
 22 25  1  0  0  0  0
 22 27  1  0  0  0  0
 23 24  1  0  0  0  0
 23 48  1  0  0  0  0
 23 49  1  0  0  0  0
 24 50  1  0  0  0  0
 25 26  1  0  0  0  0
 25 51  1  0  0  0  0
 25 52  1  0  0  0  0
 26 53  1  0  0  0  0
 27 54  1  0  0  0  0
 27 55  1  0  0  0  0
 28 29  1  0  0  0  0
 28 56  1  0  0  0  0
 28 57  1  0  0  0  0
 29 58  1  0  0  0  0
 29 59  1  0  0  0  0
M  END
> <s_m_source_file>
AV-unprocessed.smi

> <i_m_source_file_index>
233

> <i_lp_mmshare_version>
43012

> <i_f3d_flags>
0

> <s_epik_input>
W0NIM11DKD1PKVtOSF1bQ0BASF0xW0NIMl1bQ0gyXVtDQEhdKFtDSDJdW0NIMl0xKU4oW0NIM10pYyhuW2NIXW4yKWMoYzIzKW5bY0hdbjNbQ0hdKFtDSDJdNClbQ0gyXUM0KFtDSDJdW09IXSlbQ0gyXVtPSF0=

> <s_epik_cmdline>
J2VwaWtfcHl0aG9uJywgJy1waCcsICc3LjAnLCAnLXRuJywgJzgnLCAnLW1hJywgJzIwMCcsICctbWV0YWxfYmluZGluZycsICctaW1hZScsICc8aW5maWxlLm1hZT4nLCAnLW9tYWUnLCAnPG91dGZpbGUubWFlPic=

> <r_lp_tautomer_probability>
1

> <r_epik_Ionization_Penalty>
0.0029036

> <r_epik_Ionization_Penalty_Charging>
0

> <r_epik_Ionization_Penalty_Neutral>
0.0029036

> <r_epik_State_Penalty>
0.00183591

> <r_epik_Charging_Adjusted_Penalty>
0.00183591

> <i_epik_Tot_Q>
0

> <i_epik_Tot_abs_Q>
0

> <r_epik_Metal_State_Penalty>
-0

> <b_epik_Metal_Only>
0

> <s_lp_Force_Field>
OPLS_2005

> <r_lp_Energy>
38.4195

> <b_lp_Chiralities_Consistent>
1

> <s_lp_Variant>
AV-unprocessed.smi:233-2

> <Gold.Version>
5.8.1

> <Gold.Id.Protein>
6NUR|6NUR_protein|mol2

> <Gold.PLP.Fitness>
49.3722

> <Gold.PLP.PLP>
-38.4245

> <Gold.PLP.part.hbond>
-4.0000

> <Gold.PLP.part.metal>
0.0000

> <Gold.PLP.part.buried>
-1.5823

> <Gold.PLP.part.nonpolar>
-32.7970

> <Gold.PLP.part.repulsive>
0.5195

> <Gold.PLP.ligand.clash>
0.0000

> <Gold.PLP.ligand.torsion>
0.6186

> <Gold.PLP.Chemscore.Hbond>
2.8000

> <Gold.PLP.Chemscore.CHOScore>
0.9602

> <Gold.PLP.Chemscore.Metal>
0.0000

> <Gold.Chemscore.Hbonds>
donor molecule, donor type, donor heavy atom, donor atom, acceptor molecule, acceptor atom, score
      L1  H    24    50       P1 10747  0.67
      P1  H  7997  8009       L1     3  1.00
      P1  H 10785 10796       L1    26  0.98
      L1  C    18    44       P1 10171  0.88

> <Gold.PLP.Chemscore.Internal.Correction>
0.9041

> <Gold.Rescore>
     Score         DG    S(hbond)    S(metal)    S(lipo)     H(rot)  DE(clash)    DE(int)     intcor
     13.23     -14.87       2.72        0.00      88.01       3.91       0.72       0.92       ----

> <Gold.Chemscore.Fitness>
13.2339

> <Gold.Chemscore.DG>
-14.8735

> <Gold.Chemscore.ZeroCoef>
-5.4800

> <Gold.Chemscore.Hbond>
2.7227

> <Gold.Chemscore.Metal>
0.0000

> <Gold.Chemscore.Lipo>
88.0062

> <Gold.Chemscore.Internal_Hbond>
0.0000

> <Gold.Chemscore.DEClash>
0.7200

> <Gold.Chemscore.DEInternal>
0.9196

> <Gold.Chemscore.Rot>
3.9050

> <Gold.Chemscore.Internal.Correction>
   9.000000E+99

> <Gold.Chemscore.Hbonds>
donor molecule, donor type, donor heavy atom, donor atom, acceptor molecule, acceptor atom, score
      L1  H    24    50       P1 10747  0.66
      P1  H  7997  8009       L1     3  0.97
      P1  H 10785 10796       L1    26  0.92

> <Gold.Chemscore.Hbond.Weighted>
-9.0937

> <Gold.Chemscore.Metal.Weighted>
-0.0000

> <Gold.Chemscore.Lipo.Weighted>
-10.2967

> <Gold.Chemscore.Internal_Hbond.Weighted>
0.0000

> <Gold.Chemscore.DEClash.Weighted>
0.7200

> <Gold.Chemscore.DEInternal.Weighted>
0.9196

> <Gold.Chemscore.Rot.Weighted>
9.9969

> <Gold.Chemscore.Internal.Correction.Weighted>
   9.000000E+99

> <Gold.Protein.RotatedTorsions>
[ 6907 6896 6895 6894 ] final -149.34 input  -60.11 | X-H torsion
[ 7974 7965 7964 7962 ] final  -92.45 input  175.53 | X-H torsion
[ 8008 7997 7996 7995 ] final  175.91 input   59.86 | X-H torsion
[ 10167 10162 10161 10158 ] final  -26.50 input  -65.29 | X-H torsion
[ 10718 10713 10712 10709 ] final  -29.24 input   66.30 | X-H torsion
[ 10763 10752 10751 10750 ] final   42.06 input  -60.55 | X-H torsion
[ 11005 11000 10999 10996 ] final  -42.56 input  -57.11 | X-H torsion

> <Gold.Protein.ActiveResidues>
 VAL166  LYS551  ARG553  GLY616  TRP617  ASP618  TYR619  PRO620  LYS621  CYS622 
 ASP623  PHE694  ASN695  SER759  ASP760  ASP761  ALA762  ILE779  LEU786  VAL792 
 PHE793  MET794  SER795  GLU796  ALA797  LYS798  CYS799  TRP800  GLU811  SER814 

> <Gold.Protein.RotatedAtoms>
  151.1828  133.4715  159.2593 H   0  0  0  0  0  0  0  0  0  0  0  0  # atno 6907 bound_to 6896
  151.1242  135.0096  159.8563 H   0  0  0  0  0  0  0  0  0  0  0  0  # atno 6908 bound_to 6896
  152.5457  134.1736  159.8660 H   0  0  0  0  0  0  0  0  0  0  0  0  # atno 6909 bound_to 6896
  145.3996  140.9536  143.2294 H   0  0  0  0  0  0  0  0  0  0  0  0  # atno 7974 bound_to 7965
  156.0821  140.1397  156.9699 H   0  0  0  0  0  0  0  0  0  0  0  0  # atno 8008 bound_to 7997
  154.4591  140.0950  156.6891 H   0  0  0  0  0  0  0  0  0  0  0  0  # atno 8009 bound_to 7997
  155.5059  140.3452  155.4381 H   0  0  0  0  0  0  0  0  0  0  0  0  # atno 8010 bound_to 7997
  140.7282  143.4173  151.1008 H   0  0  0  0  0  0  0  0  0  0  0  0  # atno 10167 bound_to 10162
  156.4150  130.4415  149.7225 H   0  0  0  0  0  0  0  0  0  0  0  0  # atno 10718 bound_to 10713
  152.9892  135.6143  154.2889 H   0  0  0  0  0  0  0  0  0  0  0  0  # atno 10763 bound_to 10752
  154.2615  135.2782  155.2778 H   0  0  0  0  0  0  0  0  0  0  0  0  # atno 10764 bound_to 10752
  154.5202  135.5817  153.6731 H   0  0  0  0  0  0  0  0  0  0  0  0  # atno 10765 bound_to 10752
  141.0324  133.6814  156.2612 H   0  0  0  0  0  0  0  0  0  0  0  0  # atno 11005 bound_to 11000
  144.8383  139.5514  143.6912 LP  0  0  0  0  0  0  0  0  0  0  0  0  # atno 17320 bound_to 7965
  146.2758  139.6749  142.9264 LP  0  0  0  0  0  0  0  0  0  0  0  0  # atno 17321 bound_to 7965
  139.7814  143.8349  152.3138 LP  0  0  0  0  0  0  0  0  0  0  0  0  # atno 17342 bound_to 10162
  139.8302  144.7257  150.9460 LP  0  0  0  0  0  0  0  0  0  0  0  0  # atno 17343 bound_to 10162
  156.4188  130.7759  151.2775 LP  0  0  0  0  0  0  0  0  0  0  0  0  # atno 17370 bound_to 10713
  157.7507  131.0189  150.3645 LP  0  0  0  0  0  0  0  0  0  0  0  0  # atno 17371 bound_to 10713
  140.6383  134.5193  157.5567 LP  0  0  0  0  0  0  0  0  0  0  0  0  # atno 17394 bound_to 11000
  139.9217  134.8136  156.1191 LP  0  0  0  0  0  0  0  0  0  0  0  0  # atno 17395 bound_to 11000

$$$$
