AV-unprocessed.smi:1311|AV-procd|sdf|5447|dock9
  -GOLD-   22720 5 13D 1   1.00000     0.00000
 Structure written by MMmdl.
 46 47  0  0  0  0  0  0  0  0  2 V2000
  146.7621  139.7920  152.4623 C   0  0  0  0  0  0  0  0  0  0  0  0
  147.0315  140.2893  153.8915 C   0  0  0  0  0  0  0  0  0  0  0  0
  147.5622  141.7477  153.9897 C   0  0  1  0  0  0  0  0  0  0  0  0
  146.3887  142.7524  153.7944 C   0  0  0  0  0  0  0  0  0  0  0  0
  145.1147  142.3087  154.3503 N   0  0  0  0  0  0  0  0  0  0  0  0
  144.4704  142.8988  155.3705 C   0  0  0  0  0  0  0  0  0  0  0  0
  144.9010  143.8949  155.9501 O   0  0  0  0  0  0  0  0  0  0  0  0
  143.1597  142.2553  155.8328 C   0  0  0  0  0  0  0  0  0  0  0  0
  141.9685  142.9464  155.2160 C   0  0  0  0  0  0  0  0  0  0  0  0
  141.6683  144.3395  155.2059 C   0  0  0  0  0  0  0  0  0  0  0  0
  142.4504  145.4739  155.8032 C   0  0  0  0  0  0  0  0  0  0  0  0
  140.5381  144.5955  154.5691 N   0  0  0  0  0  0  0  0  0  0  0  0
  140.0531  143.3584  154.1345 O   0  0  0  0  0  0  0  0  0  0  0  0
  140.9196  142.3934  154.5336 C   0  0  0  0  0  0  0  0  0  0  0  0
  140.5792  140.9905  154.1582 C   0  0  0  0  0  0  0  0  0  0  0  0
  148.2759  141.9952  155.2868 N   0  3  0  0  0  0  0  0  0  0  0  0
  147.5297  141.6810  156.5263 C   0  0  0  0  0  0  0  0  0  0  0  0
  148.5868  141.6076  157.6207 C   0  0  0  0  0  0  0  0  0  0  0  0
  149.7658  140.9534  156.9132 C   0  0  0  0  0  0  0  0  0  0  0  0
  149.6029  141.3414  155.4374 C   0  0  0  0  0  0  0  0  0  0  0  0
  146.5661  138.7196  152.4628 H   0  0  0  0  0  0  0  0  0  0  0  0
  147.6206  139.9685  151.8135 H   0  0  0  0  0  0  0  0  0  0  0  0
  145.8922  140.2703  152.0136 H   0  0  0  0  0  0  0  0  0  0  0  0
  146.1280  140.1777  154.4925 H   0  0  0  0  0  0  0  0  0  0  0  0
  147.7593  139.5930  154.3056 H   0  0  0  0  0  0  0  0  0  0  0  0
  148.2861  141.8765  153.1836 H   0  0  0  0  0  0  0  0  0  0  0  0
  146.6118  143.7184  154.2454 H   0  0  0  0  0  0  0  0  0  0  0  0
  146.2444  142.9487  152.7314 H   0  0  0  0  0  0  0  0  0  0  0  0
  144.6822  141.5026  153.9226 H   0  0  0  0  0  0  0  0  0  0  0  0
  143.1872  141.1975  155.5695 H   0  0  0  0  0  0  0  0  0  0  0  0
  143.1099  142.2919  156.9219 H   0  0  0  0  0  0  0  0  0  0  0  0
  143.4931  145.1981  155.9606 H   0  0  0  0  0  0  0  0  0  0  0  0
  142.0355  145.7681  156.7675 H   0  0  0  0  0  0  0  0  0  0  0  0
  142.4386  146.3498  155.1537 H   0  0  0  0  0  0  0  0  0  0  0  0
  140.8011  140.3045  154.9758 H   0  0  0  0  0  0  0  0  0  0  0  0
  141.1531  140.6756  153.2869 H   0  0  0  0  0  0  0  0  0  0  0  0
  139.5200  140.8946  153.9185 H   0  0  0  0  0  0  0  0  0  0  0  0
  146.7708  142.4309  156.7517 H   0  0  0  0  0  0  0  0  0  0  0  0
  147.0408  140.7102  156.4266 H   0  0  0  0  0  0  0  0  0  0  0  0
  148.8582  142.6140  157.9429 H   0  0  0  0  0  0  0  0  0  0  0  0
  148.2539  141.0504  158.4970 H   0  0  0  0  0  0  0  0  0  0  0  0
  150.7239  141.2706  157.3266 H   0  0  0  0  0  0  0  0  0  0  0  0
  149.7035  139.8694  157.0176 H   0  0  0  0  0  0  0  0  0  0  0  0
  149.6797  140.4449  154.8210 H   0  0  0  0  0  0  0  0  0  0  0  0
  150.3875  142.0318  155.1268 H   0  0  0  0  0  0  0  0  0  0  0  0
  148.4488  142.9893  155.3334 H   0  0  0  0  0  0  0  0  0  0  0  0
  1  2  1  0  0  0  0
  1 21  1  0  0  0  0
  1 22  1  0  0  0  0
  1 23  1  0  0  0  0
  2  3  1  0  0  0  0
  2 24  1  0  0  0  0
  2 25  1  0  0  0  0
  3  4  1  0  0  0  0
  3 16  1  0  0  0  0
  3 26  1  0  0  0  0
  4  5  1  0  0  0  0
  4 27  1  0  0  0  0
  4 28  1  0  0  0  0
  5  6  1  0  0  0  0
  5 29  1  0  0  0  0
  6  7  2  0  0  0  0
  6  8  1  0  0  0  0
  8  9  1  0  0  0  0
  8 30  1  0  0  0  0
  8 31  1  0  0  0  0
  9 14  2  0  0  0  0
  9 10  1  0  0  0  0
 10 11  1  0  0  0  0
 10 12  2  0  0  0  0
 11 32  1  0  0  0  0
 11 33  1  0  0  0  0
 11 34  1  0  0  0  0
 12 13  1  0  0  0  0
 13 14  1  0  0  0  0
 14 15  1  0  0  0  0
 15 35  1  0  0  0  0
 15 36  1  0  0  0  0
 15 37  1  0  0  0  0
 16 20  1  0  0  0  0
 16 17  1  0  0  0  0
 16 46  1  0  0  0  0
 17 18  1  0  0  0  0
 17 38  1  0  0  0  0
 17 39  1  0  0  0  0
 18 19  1  0  0  0  0
 18 40  1  0  0  0  0
 18 41  1  0  0  0  0
 19 20  1  0  0  0  0
 19 42  1  0  0  0  0
 19 43  1  0  0  0  0
 20 44  1  0  0  0  0
 20 45  1  0  0  0  0
M  CHG  1  16   1
M  END
> <s_m_source_file>
AV-unprocessed.smi

> <i_m_source_file_index>
1311

> <i_lp_mmshare_version>
43012

> <i_f3d_flags>
0

> <s_epik_input>
W0NIMl0xW0NIMl1bQ0gyXVtDSDJdTjFbQ0BIXShbQ0gyXVtDSDNdKVtDSDJdW05IXUMoPU8pW0NIMl1jMmMoW0NIM10pbm9jMltDSDNd

> <s_epik_cmdline>
J2VwaWtfcHl0aG9uJywgJy1waCcsICc3LjAnLCAnLXRuJywgJzgnLCAnLW1hJywgJzIwMCcsICctbWV0YWxfYmluZGluZycsICctaW1hZScsICc8aW5maWxlLm1hZT4nLCAnLW9tYWUnLCAnPG91dGZpbGUubWFlPic=

> <r_epik_Ionization_Penalty>
0.00366311

> <r_epik_Ionization_Penalty_Charging>
0.00366302

> <r_epik_Ionization_Penalty_Neutral>
9.25085e-08

> <r_epik_State_Penalty>
0.00260703

> <r_epik_Charging_Adjusted_Penalty>
0.00627005

> <i_epik_Tot_Q>
1

> <i_epik_Tot_abs_Q>
1

> <r_epik_Metal_State_Penalty>
-0

> <b_epik_Metal_Only>
0

> <s_lp_Force_Field>
OPLS_2005

> <r_lp_Energy>
34.8572

> <b_lp_Chiralities_Consistent>
1

> <s_lp_Variant>
AV-unprocessed.smi:1311-2

> <Gold.Version>
5.8.1

> <Gold.Id.Protein>
6NUR|6NUR_protein|mol2

> <Gold.PLP.Fitness>
36.8433

> <Gold.PLP.PLP>
-26.7730

> <Gold.PLP.part.hbond>
-3.0000

> <Gold.PLP.part.metal>
0.0000

> <Gold.PLP.part.buried>
-2.3477

> <Gold.PLP.part.nonpolar>
-21.3853

> <Gold.PLP.part.repulsive>
0.4631

> <Gold.PLP.ligand.clash>
0.0000

> <Gold.PLP.ligand.torsion>
1.0201

> <Gold.PLP.Chemscore.Hbond>
3.9913

> <Gold.PLP.Chemscore.CHOScore>
0.0000

> <Gold.PLP.Chemscore.Metal>
0.0000

> <Gold.Chemscore.Hbonds>
donor molecule, donor type, donor heavy atom, donor atom, acceptor molecule, acceptor atom, score
      L1  H     5    29       P1 10175  0.95
      L1  H    16    46       P1  8028  2.00
      P1  H 10162 10167       L1    13  1.00

> <Gold.PLP.Chemscore.Internal.Correction>
0.1368

> <Gold.Rescore>
     Score         DG    S(hbond)    S(metal)    S(lipo)     H(rot)  DE(clash)    DE(int)     intcor
     11.14     -13.61       1.57        0.00      63.93       1.80       0.49       1.98       ----

> <Gold.Chemscore.Fitness>
11.1409

> <Gold.Chemscore.DG>
-13.6114

> <Gold.Chemscore.ZeroCoef>
-5.4800

> <Gold.Chemscore.Hbond>
1.5750

> <Gold.Chemscore.Metal>
0.0000

> <Gold.Chemscore.Lipo>
63.9311

> <Gold.Chemscore.Internal_Hbond>
0.0000

> <Gold.Chemscore.DEClash>
0.4868

> <Gold.Chemscore.DEInternal>
1.9837

> <Gold.Chemscore.Rot>
1.8004

> <Gold.Chemscore.Internal.Correction>
   9.000000E+99

> <Gold.Chemscore.Hbonds>
donor molecule, donor type, donor heavy atom, donor atom, acceptor molecule, acceptor atom, score
      L1  H     5    29       P1 10175  0.20
      L1  H    16    46       P1  8028  1.00
      P1  H 10162 10167       L1    13  0.29

> <Gold.Chemscore.Hbond.Weighted>
-5.2604

> <Gold.Chemscore.Metal.Weighted>
-0.0000

> <Gold.Chemscore.Lipo.Weighted>
-7.4799

> <Gold.Chemscore.Internal_Hbond.Weighted>
0.0000

> <Gold.Chemscore.DEClash.Weighted>
0.4868

> <Gold.Chemscore.DEInternal.Weighted>
1.9837

> <Gold.Chemscore.Rot.Weighted>
4.6090

> <Gold.Chemscore.Internal.Correction.Weighted>
   9.000000E+99

> <Gold.Protein.RotatedTorsions>
[ 6907 6896 6895 6894 ] final  -57.51 input  -60.11 | X-H torsion
[ 7974 7965 7964 7962 ] final -171.35 input  175.53 | X-H torsion
[ 8008 7997 7996 7995 ] final   63.48 input   59.86 | X-H torsion
[ 10167 10162 10161 10158 ] final -111.70 input  -65.29 | X-H torsion
[ 10718 10713 10712 10709 ] final   18.68 input   66.30 | X-H torsion
[ 10763 10752 10751 10750 ] final  -90.62 input  -60.55 | X-H torsion
[ 11005 11000 10999 10996 ] final   88.34 input  -57.11 | X-H torsion

> <Gold.Protein.ActiveResidues>
 VAL166  LYS551  ARG553  GLY616  TRP617  ASP618  TYR619  PRO620  LYS621  CYS622 
 ASP623  PHE694  ASN695  SER759  ASP760  ASP761  ALA762  ILE779  LEU786  VAL792 
 PHE793  MET794  SER795  GLU796  ALA797  LYS798  CYS799  TRP800  GLU811  SER814 

> <Gold.Protein.RotatedAtoms>
  150.8080  134.7218  159.6661 H   0  0  0  0  0  0  0  0  0  0  0  0  # atno 6907 bound_to 6896
  152.4200  134.5969  159.9999 H   0  0  0  0  0  0  0  0  0  0  0  0  # atno 6908 bound_to 6896
  151.6187  133.3304  159.3119 H   0  0  0  0  0  0  0  0  0  0  0  0  # atno 6909 bound_to 6896
  144.7158  140.1935  143.6346 H   0  0  0  0  0  0  0  0  0  0  0  0  # atno 7974 bound_to 7965
  155.6309  140.3496  155.4683 H   0  0  0  0  0  0  0  0  0  0  0  0  # atno 8008 bound_to 7997
  156.0003  140.1212  157.0577 H   0  0  0  0  0  0  0  0  0  0  0  0  # atno 8009 bound_to 7997
  154.4247  140.1102  156.5674 H   0  0  0  0  0  0  0  0  0  0  0  0  # atno 8010 bound_to 7997
  140.1307  143.4363  152.1629 H   0  0  0  0  0  0  0  0  0  0  0  0  # atno 10167 bound_to 10162
  157.0998  130.6463  149.5869 H   0  0  0  0  0  0  0  0  0  0  0  0  # atno 10718 bound_to 10713
  154.6676  135.5298  153.8097 H   0  0  0  0  0  0  0  0  0  0  0  0  # atno 10763 bound_to 10752
  153.0481  135.6521  154.0775 H   0  0  0  0  0  0  0  0  0  0  0  0  # atno 10764 bound_to 10752
  154.0677  135.2956  155.3293 H   0  0  0  0  0  0  0  0  0  0  0  0  # atno 10765 bound_to 10752
  139.8899  134.8481  156.2987 H   0  0  0  0  0  0  0  0  0  0  0  0  # atno 11005 bound_to 11000
  145.8746  139.2290  143.1641 LP  0  0  0  0  0  0  0  0  0  0  0  0  # atno 17320 bound_to 7965
  146.0052  140.8485  142.9998 LP  0  0  0  0  0  0  0  0  0  0  0  0  # atno 17321 bound_to 7965
  139.5521  144.7345  151.4404 LP  0  0  0  0  0  0  0  0  0  0  0  0  # atno 17342 bound_to 10162
  140.6818  143.8063  150.7132 LP  0  0  0  0  0  0  0  0  0  0  0  0  # atno 17343 bound_to 10162
  155.9876  130.4916  150.7135 LP  0  0  0  0  0  0  0  0  0  0  0  0  # atno 17370 bound_to 10713
  157.4650  131.0887  151.0704 LP  0  0  0  0  0  0  0  0  0  0  0  0  # atno 17371 bound_to 10713
  140.9928  133.7198  156.0840 LP  0  0  0  0  0  0  0  0  0  0  0  0  # atno 17394 bound_to 11000
  140.7602  134.3947  157.5527 LP  0  0  0  0  0  0  0  0  0  0  0  0  # atno 17395 bound_to 11000

$$$$
