AV-unprocessed.smi:3350|AV-procd|sdf|12944|dock6
  -GOLD-   2272019373D 1   1.00000     0.00000
 Structure written by MMmdl.
 41 42  0  0  0  0  0  0  0  0  1 V2000
  146.4921  132.6327  153.7317 C   0  0  0  0  0  0  0  0  0  0  0  0
  147.6343  132.9373  152.7530 C   0  0  1  0  0  0  0  0  0  0  0  0
  147.0978  133.2019  151.3293 C   0  0  0  0  0  0  0  0  0  0  0  0
  145.7034  132.8267  151.1747 N   0  0  0  0  0  0  0  0  0  0  0  0
  145.1579  131.5617  151.1096 C   0  0  0  0  0  0  0  0  0  0  0  0
  143.8064  131.7079  150.9847 C   0  0  0  0  0  0  0  0  0  0  0  0
  143.6191  133.1184  150.9769 C   0  0  0  0  0  0  0  0  0  0  0  0
  144.7567  133.7855  151.0863 N   0  0  0  0  0  0  0  0  0  0  0  0
  148.3878  134.0889  153.2483 N   0  0  0  0  0  0  0  0  0  0  0  0
  148.8882  134.2220  154.4854 C   0  0  0  0  0  0  0  0  0  0  0  0
  148.7504  133.3862  155.3785 O   0  0  0  0  0  0  0  0  0  0  0  0
  149.5758  135.3668  154.6172 N   0  0  0  0  0  0  0  0  0  0  0  0
  150.3012  135.8360  155.8003 C   0  0  2  0  0  0  0  0  0  0  0  0
  149.4256  135.7363  157.0643 C   0  0  0  0  0  0  0  0  0  0  0  0
  150.8977  137.2454  155.5874 C   0  0  1  0  0  0  0  0  0  0  0  0
  151.7584  137.7532  156.7446 C   0  0  0  0  0  0  0  0  0  0  0  0
  152.6849  138.7620  156.0843 C   0  0  0  0  0  0  0  0  0  0  0  0
  152.5710  138.4505  154.5893 C   0  0  0  0  0  0  0  0  0  0  0  0
  151.8285  137.2414  154.5158 O   0  0  0  0  0  0  0  0  0  0  0  0
  145.9301  131.7534  153.4160 H   0  0  0  0  0  0  0  0  0  0  0  0
  145.7932  133.4671  153.8005 H   0  0  0  0  0  0  0  0  0  0  0  0
  146.8751  132.4343  154.7334 H   0  0  0  0  0  0  0  0  0  0  0  0
  148.2788  132.0564  152.7281 H   0  0  0  0  0  0  0  0  0  0  0  0
  147.1902  134.2609  151.0839 H   0  0  0  0  0  0  0  0  0  0  0  0
  147.6893  132.6603  150.5896 H   0  0  0  0  0  0  0  0  0  0  0  0
  145.7691  130.6733  151.1670 H   0  0  0  0  0  0  0  0  0  0  0  0
  143.0643  130.9270  150.9131 H   0  0  0  0  0  0  0  0  0  0  0  0
  142.6965  133.6738  150.8955 H   0  0  0  0  0  0  0  0  0  0  0  0
  148.5582  134.8338  152.5888 H   0  0  0  0  0  0  0  0  0  0  0  0
  149.6126  135.9749  153.8125 H   0  0  0  0  0  0  0  0  0  0  0  0
  151.1301  135.1386  155.9246 H   0  0  0  0  0  0  0  0  0  0  0  0
  150.0096  135.9308  157.9637 H   0  0  0  0  0  0  0  0  0  0  0  0
  148.9954  134.7394  157.1663 H   0  0  0  0  0  0  0  0  0  0  0  0
  148.6045  136.4533  157.0474 H   0  0  0  0  0  0  0  0  0  0  0  0
  150.1154  137.9754  155.3728 H   0  0  0  0  0  0  0  0  0  0  0  0
  151.1671  138.1874  157.5512 H   0  0  0  0  0  0  0  0  0  0  0  0
  152.3490  136.9367  157.1627 H   0  0  0  0  0  0  0  0  0  0  0  0
  152.3678  139.7855  156.2873 H   0  0  0  0  0  0  0  0  0  0  0  0
  153.7076  138.6488  156.4456 H   0  0  0  0  0  0  0  0  0  0  0  0
  152.0230  139.2404  154.0739 H   0  0  0  0  0  0  0  0  0  0  0  0
  153.5432  138.3416  154.1084 H   0  0  0  0  0  0  0  0  0  0  0  0
  1  2  1  0  0  0  0
  1 20  1  0  0  0  0
  1 21  1  0  0  0  0
  1 22  1  0  0  0  0
  2  3  1  0  0  0  0
  2  9  1  0  0  0  0
  2 23  1  0  0  0  0
  3  4  1  0  0  0  0
  3 24  1  0  0  0  0
  3 25  1  0  0  0  0
  4  8  1  0  0  0  0
  4  5  1  0  0  0  0
  5  6  2  0  0  0  0
  5 26  1  0  0  0  0
  6  7  1  0  0  0  0
  6 27  1  0  0  0  0
  7  8  2  0  0  0  0
  7 28  1  0  0  0  0
  9 10  1  0  0  0  0
  9 29  1  0  0  0  0
 10 11  2  0  0  0  0
 10 12  1  0  0  0  0
 12 13  1  0  0  0  0
 12 30  1  0  0  0  0
 13 14  1  0  0  0  0
 13 15  1  0  0  0  0
 13 31  1  0  0  0  0
 14 32  1  0  0  0  0
 14 33  1  0  0  0  0
 14 34  1  0  0  0  0
 15 19  1  0  0  0  0
 15 16  1  0  0  0  0
 15 35  1  0  0  0  0
 16 17  1  0  0  0  0
 16 36  1  0  0  0  0
 16 37  1  0  0  0  0
 17 18  1  0  0  0  0
 17 38  1  0  0  0  0
 17 39  1  0  0  0  0
 18 19  1  0  0  0  0
 18 40  1  0  0  0  0
 18 41  1  0  0  0  0
M  END
> <s_m_source_file>
AV-unprocessed.smi

> <i_m_source_file_index>
3350

> <i_lp_mmshare_version>
43012

> <i_f3d_flags>
0

> <s_epik_input>
bjFbY0hdW2NIXVtjSF1uMVtDSDJdW0NAQEhdKFtDSDNdKVtOSF1DKD1PKVtOSF1bQ0BIXShbQ0gzXSlbQ0BASF0yW0NIMl1bQ0gyXVtDSDJdTzI=

> <s_epik_cmdline>
J2VwaWtfcHl0aG9uJywgJy1waCcsICc3LjAnLCAnLXRuJywgJzgnLCAnLW1hJywgJzIwMCcsICctbWV0YWxfYmluZGluZycsICctaW1hZScsICc8aW5maWxlLm1hZT4nLCAnLW9tYWUnLCAnPG91dGZpbGUubWFlPic=

> <r_lp_tautomer_probability>
1

> <r_epik_Ionization_Penalty>
6.42349e-05

> <r_epik_Ionization_Penalty_Charging>
0

> <r_epik_Ionization_Penalty_Neutral>
6.42349e-05

> <r_epik_State_Penalty>
-0

> <r_epik_Charging_Adjusted_Penalty>
0

> <i_epik_Tot_Q>
0

> <i_epik_Tot_abs_Q>
0

> <r_epik_Metal_State_Penalty>
-0

> <b_epik_Metal_Only>
0

> <s_lp_Force_Field>
OPLS_2005

> <r_lp_Energy>
15.9813

> <b_lp_Chiralities_Consistent>
1

> <s_lp_Variant>
AV-unprocessed.smi:3350-6

> <Gold.Version>
5.8.1

> <Gold.Id.Protein>
6NUR|6NUR_protein|mol2

> <Gold.PLP.Fitness>
39.3254

> <Gold.PLP.PLP>
-29.8558

> <Gold.PLP.part.hbond>
-3.0000

> <Gold.PLP.part.metal>
0.0000

> <Gold.PLP.part.buried>
-3.0033

> <Gold.PLP.part.nonpolar>
-24.4348

> <Gold.PLP.part.repulsive>
0.3229

> <Gold.PLP.ligand.clash>
0.0000

> <Gold.PLP.ligand.torsion>
0.9411

> <Gold.PLP.Chemscore.Hbond>
2.7533

> <Gold.PLP.Chemscore.CHOScore>
1.0000

> <Gold.PLP.Chemscore.Metal>
0.0000

> <Gold.Chemscore.Hbonds>
donor molecule, donor type, donor heavy atom, donor atom, acceptor molecule, acceptor atom, score
      L1  H     9    29       P1  7948  0.90
      L1  H    12    30       P1  7948  0.87
      P1  H 10752 10764       L1    19  0.99
      L1  C     7    28       P1 10186  1.00

> <Gold.PLP.Chemscore.Internal.Correction>
0.0922

> <Gold.Rescore>
     Score         DG    S(hbond)    S(metal)    S(lipo)     H(rot)  DE(clash)    DE(int)     intcor
     13.36     -15.62       1.84        0.00      73.90       1.82       0.04       2.22       ----

> <Gold.Chemscore.Fitness>
13.3551

> <Gold.Chemscore.DG>
-15.6165

> <Gold.Chemscore.ZeroCoef>
-5.4800

> <Gold.Chemscore.Hbond>
1.8409

> <Gold.Chemscore.Metal>
0.0000

> <Gold.Chemscore.Lipo>
73.8985

> <Gold.Chemscore.Internal_Hbond>
0.0000

> <Gold.Chemscore.DEClash>
0.0402

> <Gold.Chemscore.DEInternal>
2.2212

> <Gold.Chemscore.Rot>
1.8197

> <Gold.Chemscore.Internal.Correction>
   9.000000E+99

> <Gold.Chemscore.Hbonds>
donor molecule, donor type, donor heavy atom, donor atom, acceptor molecule, acceptor atom, score
      L1  H     9    29       P1  7948  0.17
      L1  H    12    30       P1  7948  0.32
      P1  H 10752 10764       L1    19  0.73

> <Gold.Chemscore.Hbond.Weighted>
-6.1488

> <Gold.Chemscore.Metal.Weighted>
-0.0000

> <Gold.Chemscore.Lipo.Weighted>
-8.6461

> <Gold.Chemscore.Internal_Hbond.Weighted>
0.0000

> <Gold.Chemscore.DEClash.Weighted>
0.0402

> <Gold.Chemscore.DEInternal.Weighted>
2.2212

> <Gold.Chemscore.Rot.Weighted>
4.6583

> <Gold.Chemscore.Internal.Correction.Weighted>
   9.000000E+99

> <Gold.Protein.RotatedTorsions>
[ 6907 6896 6895 6894 ] final   -2.10 input  -60.11 | X-H torsion
[ 7974 7965 7964 7962 ] final   93.65 input  175.53 | X-H torsion
[ 8008 7997 7996 7995 ] final  143.35 input   59.86 | X-H torsion
[ 10167 10162 10161 10158 ] final -143.19 input  -65.29 | X-H torsion
[ 10718 10713 10712 10709 ] final  -78.63 input   66.30 | X-H torsion
[ 10763 10752 10751 10750 ] final  -68.53 input  -60.55 | X-H torsion
[ 11005 11000 10999 10996 ] final  135.70 input  -57.11 | X-H torsion

> <Gold.Protein.ActiveResidues>
 VAL166  LYS551  ARG553  GLY616  TRP617  ASP618  TYR619  PRO620  LYS621  CYS622 
 ASP623  PHE694  ASN695  SER759  ASP760  ASP761  ALA762  ILE779  LEU786  VAL792 
 PHE793  MET794  SER795  GLU796  ALA797  LYS798  CYS799  TRP800  GLU811  SER814 

> <Gold.Protein.RotatedAtoms>
  151.5354  135.1068  159.9912 H   0  0  0  0  0  0  0  0  0  0  0  0  # atno 6907 bound_to 6896
  152.4559  133.7719  159.6814 H   0  0  0  0  0  0  0  0  0  0  0  0  # atno 6908 bound_to 6896
  150.8503  133.7731  159.3052 H   0  0  0  0  0  0  0  0  0  0  0  0  # atno 6909 bound_to 6896
  145.4761  139.2280  143.2908 H   0  0  0  0  0  0  0  0  0  0  0  0  # atno 7974 bound_to 7965
  156.2932  140.2265  156.4876 H   0  0  0  0  0  0  0  0  0  0  0  0  # atno 8008 bound_to 7997
  154.7799  140.0461  157.1140 H   0  0  0  0  0  0  0  0  0  0  0  0  # atno 8009 bound_to 7997
  154.9771  140.3074  155.4966 H   0  0  0  0  0  0  0  0  0  0  0  0  # atno 8010 bound_to 7997
  139.8017  143.7824  152.2658 H   0  0  0  0  0  0  0  0  0  0  0  0  # atno 10167 bound_to 10162
  156.0112  130.4523  150.3526 H   0  0  0  0  0  0  0  0  0  0  0  0  # atno 10718 bound_to 10713
  154.3904  135.6054  153.5840 H   0  0  0  0  0  0  0  0  0  0  0  0  # atno 10763 bound_to 10752
  152.9787  135.5882  154.4304 H   0  0  0  0  0  0  0  0  0  0  0  0  # atno 10764 bound_to 10752
  154.4088  135.2844  155.2028 H   0  0  0  0  0  0  0  0  0  0  0  0  # atno 10765 bound_to 10752
  139.9997  134.9483  157.0043 H   0  0  0  0  0  0  0  0  0  0  0  0  # atno 11005 bound_to 11000
  146.2368  140.5544  142.8951 LP  0  0  0  0  0  0  0  0  0  0  0  0  # atno 17320 bound_to 7965
  144.7916  140.6043  143.6537 LP  0  0  0  0  0  0  0  0  0  0  0  0  # atno 17321 bound_to 7965
  139.7946  144.7397  150.9908 LP  0  0  0  0  0  0  0  0  0  0  0  0  # atno 17342 bound_to 10162
  140.7820  143.4407  151.0556 LP  0  0  0  0  0  0  0  0  0  0  0  0  # atno 17343 bound_to 10162
  157.1618  131.0347  151.2837 LP  0  0  0  0  0  0  0  0  0  0  0  0  # atno 17370 bound_to 10713
  157.4305  130.7487  149.6986 LP  0  0  0  0  0  0  0  0  0  0  0  0  # atno 17371 bound_to 10713
  140.4752  134.1346  155.7208 LP  0  0  0  0  0  0  0  0  0  0  0  0  # atno 17394 bound_to 11000
  141.1632  133.8753  157.1789 LP  0  0  0  0  0  0  0  0  0  0  0  0  # atno 17395 bound_to 11000

$$$$
