AV-unprocessed.smi:2417|AV-procd|sdf|9548|dock10
  -GOLD-   2272013183D 1   1.00000     0.00000
 Structure written by MMmdl.
 38 39  0  0  0  0  0  0  0  0  1 V2000
  145.3783  139.5217  155.3673 C   0  0  0  0  0  0  0  0  0  0  0  0
  146.8729  139.5100  155.0985 C   0  0  0  0  0  0  0  0  0  0  0  0
  147.5473  138.3493  155.4884 N   0  0  0  0  0  0  0  0  0  0  0  0
  148.8226  138.2502  155.3000 C   0  0  0  0  0  0  0  0  0  0  0  0
  149.5635  139.2863  154.7083 N   0  0  0  0  0  0  0  0  0  0  0  0
  151.0076  139.0470  154.5502 C   0  0  0  0  0  0  0  0  0  0  0  0
  151.8588  140.0302  155.3851 C   0  0  2  0  0  0  0  0  0  0  0  0
  153.2116  139.6203  155.4055 O   0  0  0  0  0  0  0  0  0  0  0  0
  151.3817  140.1512  156.8424 C   0  0  0  0  0  0  0  0  0  0  0  0
  152.4036  140.7343  157.6423 O   0  0  0  0  0  0  0  0  0  0  0  0
  152.1671  141.9682  158.2084 C   0  0  0  0  0  0  0  0  0  0  0  0
  151.2805  142.8253  157.5240 C   0  0  0  0  0  0  0  0  0  0  0  0
  150.9807  144.1052  158.0289 C   0  0  0  0  0  0  0  0  0  0  0  0
  151.5685  144.5424  159.2301 C   0  0  0  0  0  0  0  0  0  0  0  0
  151.2816  145.7726  159.7176 F   0  0  0  0  0  0  0  0  0  0  0  0
  152.4551  143.6979  159.9237 C   0  0  0  0  0  0  0  0  0  0  0  0
  152.7547  142.4174  159.4185 C   0  0  0  0  0  0  0  0  0  0  0  0
  148.9833  140.4488  154.2918 C   0  0  0  0  0  0  0  0  0  0  0  0
  149.6414  141.3458  153.7613 O   0  0  0  0  0  0  0  0  0  0  0  0
  147.5319  140.5487  154.5159 C   0  0  0  0  0  0  0  0  0  0  0  0
  146.8503  141.8361  154.0692 C   0  0  0  0  0  0  0  0  0  0  0  0
  145.1157  140.3434  156.0342 H   0  0  0  0  0  0  0  0  0  0  0  0
  145.0519  138.5932  155.8372 H   0  0  0  0  0  0  0  0  0  0  0  0
  144.8237  139.6361  154.4356 H   0  0  0  0  0  0  0  0  0  0  0  0
  149.3945  137.3645  155.5821 H   0  0  0  0  0  0  0  0  0  0  0  0
  151.2226  138.0253  154.8690 H   0  0  0  0  0  0  0  0  0  0  0  0
  151.3161  139.0704  153.5028 H   0  0  0  0  0  0  0  0  0  0  0  0
  151.8294  141.0273  154.9441 H   0  0  0  0  0  0  0  0  0  0  0  0
  153.3001  138.8461  154.8708 H   0  0  0  0  0  0  0  0  0  0  0  0
  150.4595  140.7328  156.8946 H   0  0  0  0  0  0  0  0  0  0  0  0
  151.1642  139.1508  157.2205 H   0  0  0  0  0  0  0  0  0  0  0  0
  150.8249  142.4974  156.6010 H   0  0  0  0  0  0  0  0  0  0  0  0
  150.2998  144.7510  157.4942 H   0  0  0  0  0  0  0  0  0  0  0  0
  152.9067  144.0321  160.8460 H   0  0  0  0  0  0  0  0  0  0  0  0
  153.4388  141.7991  159.9791 H   0  0  0  0  0  0  0  0  0  0  0  0
  146.9913  141.9839  152.9981 H   0  0  0  0  0  0  0  0  0  0  0  0
  147.2835  142.6910  154.5893 H   0  0  0  0  0  0  0  0  0  0  0  0
  145.7789  141.8444  154.2624 H   0  0  0  0  0  0  0  0  0  0  0  0
  1  2  1  0  0  0  0
  1 22  1  0  0  0  0
  1 23  1  0  0  0  0
  1 24  1  0  0  0  0
  2 20  2  0  0  0  0
  2  3  1  0  0  0  0
  3  4  2  0  0  0  0
  4  5  1  0  0  0  0
  4 25  1  0  0  0  0
  5  6  1  0  0  0  0
  5 18  1  0  0  0  0
  6  7  1  0  0  0  0
  6 26  1  0  0  0  0
  6 27  1  0  0  0  0
  7  8  1  0  0  0  0
  7  9  1  0  0  0  0
  7 28  1  0  0  0  0
  8 29  1  0  0  0  0
  9 10  1  0  0  0  0
  9 30  1  0  0  0  0
  9 31  1  0  0  0  0
 10 11  1  0  0  0  0
 11 17  1  0  0  0  0
 11 12  2  0  0  0  0
 12 13  1  0  0  0  0
 12 32  1  0  0  0  0
 13 14  2  0  0  0  0
 13 33  1  0  0  0  0
 14 15  1  0  0  0  0
 14 16  1  0  0  0  0
 16 17  2  0  0  0  0
 16 34  1  0  0  0  0
 17 35  1  0  0  0  0
 18 19  2  0  0  0  0
 18 20  1  0  0  0  0
 20 21  1  0  0  0  0
 21 36  1  0  0  0  0
 21 37  1  0  0  0  0
 21 38  1  0  0  0  0
M  END
> <s_m_source_file>
AV-unprocessed.smi

> <i_m_source_file_index>
2417

> <i_lp_mmshare_version>
43012

> <i_f3d_flags>
0

> <s_epik_input>
W0NIM11jMW5bY0hdbihjKD1PKWMxW0NIM10pW0NIMl1bQ0BIXShbT0hdKVtDSDJdT2MyW2NIXVtjSF1jKEYpW2NIXVtjSF0y

> <s_epik_cmdline>
J2VwaWtfcHl0aG9uJywgJy1waCcsICc3LjAnLCAnLXRuJywgJzgnLCAnLW1hJywgJzIwMCcsICctbWV0YWxfYmluZGluZycsICctaW1hZScsICc8aW5maWxlLm1hZT4nLCAnLW9tYWUnLCAnPG91dGZpbGUubWFlPic=

> <r_lp_tautomer_probability>
1

> <r_epik_Ionization_Penalty>
3.65384e-05

> <r_epik_Ionization_Penalty_Charging>
8.23007e-08

> <r_epik_Ionization_Penalty_Neutral>
3.64561e-05

> <r_epik_State_Penalty>
-0

> <r_epik_Charging_Adjusted_Penalty>
8.23007e-08

> <i_epik_Tot_Q>
0

> <i_epik_Tot_abs_Q>
0

> <r_epik_Metal_State_Penalty>
-0

> <b_epik_Metal_Only>
0

> <s_lp_Force_Field>
OPLS_2005

> <r_lp_Energy>
23.7128

> <b_lp_Chiralities_Consistent>
1

> <s_lp_Variant>
AV-unprocessed.smi:2417-1

> <Gold.Version>
5.8.1

> <Gold.Id.Protein>
6NUR|6NUR_protein|mol2

> <Gold.PLP.Fitness>
48.0335

> <Gold.PLP.PLP>
-44.0262

> <Gold.PLP.part.hbond>
-3.3479

> <Gold.PLP.part.metal>
0.0000

> <Gold.PLP.part.buried>
-3.2790

> <Gold.PLP.part.nonpolar>
-37.8121

> <Gold.PLP.part.repulsive>
0.8934

> <Gold.PLP.ligand.clash>
0.0000

> <Gold.PLP.ligand.torsion>
0.9842

> <Gold.PLP.Chemscore.Hbond>
1.9740

> <Gold.PLP.Chemscore.CHOScore>
0.0000

> <Gold.PLP.Chemscore.Metal>
0.0000

> <Gold.Chemscore.Hbonds>
donor molecule, donor type, donor heavy atom, donor atom, acceptor molecule, acceptor atom, score
      P1  H  7989  7998       L1    19  0.21
      P1  H  7997  8008       L1     8  0.78
      P1  H  8011  8017       L1    19  0.82

> <Gold.PLP.Chemscore.Internal.Correction>
0.0536

> <Gold.Rescore>
     Score         DG    S(hbond)    S(metal)    S(lipo)     H(rot)  DE(clash)    DE(int)     intcor
     15.23     -17.29       2.04        0.00      98.13       2.54       0.47       1.59       ----

> <Gold.Chemscore.Fitness>
15.2286

> <Gold.Chemscore.DG>
-17.2892

> <Gold.Chemscore.ZeroCoef>
-5.4800

> <Gold.Chemscore.Hbond>
2.0414

> <Gold.Chemscore.Metal>
0.0000

> <Gold.Chemscore.Lipo>
98.1336

> <Gold.Chemscore.Internal_Hbond>
0.0000

> <Gold.Chemscore.DEClash>
0.4656

> <Gold.Chemscore.DEInternal>
1.5950

> <Gold.Chemscore.Rot>
2.5355

> <Gold.Chemscore.Internal.Correction>
   9.000000E+99

> <Gold.Chemscore.Hbonds>
donor molecule, donor type, donor heavy atom, donor atom, acceptor molecule, acceptor atom, score
      P1  H  7989  7998       L1    19  0.17
      P1  H  7997  8008       L1     8  0.73
      P1  H  8011  8017       L1    19  0.81

> <Gold.Chemscore.Hbond.Weighted>
-6.8184

> <Gold.Chemscore.Metal.Weighted>
-0.0000

> <Gold.Chemscore.Lipo.Weighted>
-11.4816

> <Gold.Chemscore.Internal_Hbond.Weighted>
0.0000

> <Gold.Chemscore.DEClash.Weighted>
0.4656

> <Gold.Chemscore.DEInternal.Weighted>
1.5950

> <Gold.Chemscore.Rot.Weighted>
6.4908

> <Gold.Chemscore.Internal.Correction.Weighted>
   9.000000E+99

> <Gold.Protein.RotatedTorsions>
[ 6907 6896 6895 6894 ] final  -52.17 input  -60.11 | X-H torsion
[ 7974 7965 7964 7962 ] final  -95.82 input  175.53 | X-H torsion
[ 8008 7997 7996 7995 ] final  -21.92 input   59.86 | X-H torsion
[ 10167 10162 10161 10158 ] final   92.11 input  -65.29 | X-H torsion
[ 10718 10713 10712 10709 ] final -106.54 input   66.30 | X-H torsion
[ 10763 10752 10751 10750 ] final  -13.76 input  -60.55 | X-H torsion
[ 11005 11000 10999 10996 ] final   86.21 input  -57.11 | X-H torsion

> <Gold.Protein.ActiveResidues>
 VAL166  LYS551  ARG553  GLY616  TRP617  ASP618  TYR619  PRO620  LYS621  CYS622 
 ASP623  PHE694  ASN695  SER759  ASP760  ASP761  ALA762  ILE779  LEU786  VAL792 
 PHE793  MET794  SER795  GLU796  ALA797  LYS798  CYS799  TRP800  GLU811  SER814 

> <Gold.Protein.RotatedAtoms>
  150.8543  134.7877  159.7033 H   0  0  0  0  0  0  0  0  0  0  0  0  # atno 6907 bound_to 6896
  152.4599  134.5204  159.9791 H   0  0  0  0  0  0  0  0  0  0  0  0  # atno 6908 bound_to 6896
  151.5319  133.3409  159.2955 H   0  0  0  0  0  0  0  0  0  0  0  0  # atno 6909 bound_to 6896
  145.3550  140.9483  143.2533 H   0  0  0  0  0  0  0  0  0  0  0  0  # atno 7974 bound_to 7965
  154.4675  140.2021  156.0079 H   0  0  0  0  0  0  0  0  0  0  0  0  # atno 8008 bound_to 7997
  156.0953  140.3252  155.7841 H   0  0  0  0  0  0  0  0  0  0  0  0  # atno 8009 bound_to 7997
  155.4888  140.0544  157.2947 H   0  0  0  0  0  0  0  0  0  0  0  0  # atno 8010 bound_to 7997
  139.8308  144.6688  150.9402 H   0  0  0  0  0  0  0  0  0  0  0  0  # atno 10167 bound_to 10162
  156.0395  130.5618  150.7695 H   0  0  0  0  0  0  0  0  0  0  0  0  # atno 10718 bound_to 10713
  153.5181  135.7016  153.5745 H   0  0  0  0  0  0  0  0  0  0  0  0  # atno 10763 bound_to 10752
  153.3806  135.3921  155.1854 H   0  0  0  0  0  0  0  0  0  0  0  0  # atno 10764 bound_to 10752
  154.8697  135.3834  154.4668 H   0  0  0  0  0  0  0  0  0  0  0  0  # atno 10765 bound_to 10752
  139.8950  134.8340  156.2689 H   0  0  0  0  0  0  0  0  0  0  0  0  # atno 11005 bound_to 11000
  144.8689  139.5067  143.6777 LP  0  0  0  0  0  0  0  0  0  0  0  0  # atno 17320 bound_to 7965
  146.2952  139.7256  142.9132 LP  0  0  0  0  0  0  0  0  0  0  0  0  # atno 17321 bound_to 7965
  140.7807  143.4002  151.1161 LP  0  0  0  0  0  0  0  0  0  0  0  0  # atno 17342 bound_to 10162
  139.7656  143.8570  152.3110 LP  0  0  0  0  0  0  0  0  0  0  0  0  # atno 17343 bound_to 10162
  157.5193  131.0930  151.0099 LP  0  0  0  0  0  0  0  0  0  0  0  0  # atno 17370 bound_to 10713
  157.0434  130.5758  149.5359 LP  0  0  0  0  0  0  0  0  0  0  0  0  # atno 17371 bound_to 10713
  141.0114  133.7093  156.1117 LP  0  0  0  0  0  0  0  0  0  0  0  0  # atno 17394 bound_to 11000
  140.7362  134.4200  157.5560 LP  0  0  0  0  0  0  0  0  0  0  0  0  # atno 17395 bound_to 11000

$$$$
