AV-unprocessed.smi:2282|AV-procd|sdf|9195|dock4
  -GOLD-   2272012413D 1   1.00000     0.00000
 Structure written by MMmdl.
 32 33  0  0  0  0  0  0  0  0  1 V2000
  152.8027  144.0992  162.7025 C   0  0  0  0  0  0  0  0  0  0  0  0
  153.0286  142.9339  161.7573 C   0  0  0  0  0  0  0  0  0  0  0  0
  153.7636  141.9139  162.2518 N   0  0  0  0  0  0  0  0  0  0  0  0
  154.0011  140.8559  161.4499 C   0  0  0  0  0  0  0  0  0  0  0  0
  153.5179  140.7592  160.1312 C   0  0  0  0  0  0  0  0  0  0  0  0
  152.7329  141.8181  159.6155 C   0  0  0  0  0  0  0  0  0  0  0  0
  152.2137  141.8328  158.2911 N   0  0  0  0  0  0  0  0  0  0  0  0
  151.8290  140.7970  157.5232 C   0  0  0  0  0  0  0  0  0  0  0  0
  151.8680  139.6170  157.8734 O   0  0  0  0  0  0  0  0  0  0  0  0
  151.3084  141.1734  156.1259 C   0  0  2  0  0  0  0  0  0  0  0  0
  149.7789  141.3576  156.0462 C   0  0  0  0  0  0  0  0  0  0  0  0
  149.3233  140.3019  155.0521 C   0  0  0  0  0  0  0  0  0  0  0  0
  150.4584  139.2845  155.0825 C   0  0  1  0  0  0  0  0  0  0  0  0
  150.5644  138.4232  153.8197 C   0  0  0  0  0  0  0  0  0  0  0  0
  151.6060  140.1091  155.2242 O   0  0  0  0  0  0  0  0  0  0  0  0
  152.4952  142.9378  160.4468 C   0  0  0  0  0  0  0  0  0  0  0  0
  151.5649  144.2832  159.8764 Cl  0  0  0  0  0  0  0  0  0  0  0  0
  151.7365  144.2410  162.8813 H   0  0  0  0  0  0  0  0  0  0  0  0
  153.2061  145.0175  162.2755 H   0  0  0  0  0  0  0  0  0  0  0  0
  153.2872  143.9347  163.6659 H   0  0  0  0  0  0  0  0  0  0  0  0
  154.6014  140.0630  161.8702 H   0  0  0  0  0  0  0  0  0  0  0  0
  153.7688  139.8899  159.5438 H   0  0  0  0  0  0  0  0  0  0  0  0
  152.0480  142.7508  157.9046 H   0  0  0  0  0  0  0  0  0  0  0  0
  151.8153  142.0734  155.7744 H   0  0  0  0  0  0  0  0  0  0  0  0
  149.2886  141.2079  157.0090 H   0  0  0  0  0  0  0  0  0  0  0  0
  149.5114  142.3584  155.7051 H   0  0  0  0  0  0  0  0  0  0  0  0
  148.3567  139.8661  155.3063 H   0  0  0  0  0  0  0  0  0  0  0  0
  149.2426  140.7467  154.0593 H   0  0  0  0  0  0  0  0  0  0  0  0
  150.3648  138.6462  155.9625 H   0  0  0  0  0  0  0  0  0  0  0  0
  149.6691  137.8158  153.6852 H   0  0  0  0  0  0  0  0  0  0  0  0
  151.4190  137.7489  153.8807 H   0  0  0  0  0  0  0  0  0  0  0  0
  150.6895  139.0394  152.9290 H   0  0  0  0  0  0  0  0  0  0  0  0
  1  2  1  0  0  0  0
  1 18  1  0  0  0  0
  1 19  1  0  0  0  0
  1 20  1  0  0  0  0
  2 16  1  0  0  0  0
  2  3  2  0  0  0  0
  3  4  1  0  0  0  0
  4  5  2  0  0  0  0
  4 21  1  0  0  0  0
  5  6  1  0  0  0  0
  5 22  1  0  0  0  0
  6  7  1  0  0  0  0
  6 16  2  0  0  0  0
  7  8  1  0  0  0  0
  7 23  1  0  0  0  0
  8  9  2  0  0  0  0
  8 10  1  0  0  0  0
 10 15  1  0  0  0  0
 10 11  1  0  0  0  0
 10 24  1  0  0  0  0
 11 12  1  0  0  0  0
 11 25  1  0  0  0  0
 11 26  1  0  0  0  0
 12 13  1  0  0  0  0
 12 27  1  0  0  0  0
 12 28  1  0  0  0  0
 13 14  1  0  0  0  0
 13 15  1  0  0  0  0
 13 29  1  0  0  0  0
 14 30  1  0  0  0  0
 14 31  1  0  0  0  0
 14 32  1  0  0  0  0
 16 17  1  0  0  0  0
M  END
> <s_m_source_file>
AV-unprocessed.smi

> <i_m_source_file_index>
2282

> <i_lp_mmshare_version>
43012

> <i_f3d_flags>
0

> <s_epik_input>
W0NIM11jMW5bY0hdW2NIXWMoYzFDbClbTkhdQyg9TylbQ0BASF0yW0NIMl1bQ0gyXVtDQEhdKE8yKVtDSDNd

> <s_epik_cmdline>
J2VwaWtfcHl0aG9uJywgJy1waCcsICc3LjAnLCAnLXRuJywgJzgnLCAnLW1hJywgJzIwMCcsICctbWV0YWxfYmluZGluZycsICctaW1hZScsICc8aW5maWxlLm1hZT4nLCAnLW9tYWUnLCAnPG91dGZpbGUubWFlPic=

> <r_epik_Ionization_Penalty>
0.00037231

> <r_epik_Ionization_Penalty_Charging>
0

> <r_epik_Ionization_Penalty_Neutral>
0.00037231

> <r_epik_State_Penalty>
0.000225113

> <r_epik_Charging_Adjusted_Penalty>
0.000225113

> <i_epik_Tot_Q>
0

> <i_epik_Tot_abs_Q>
0

> <r_epik_Metal_State_Penalty>
-0

> <b_epik_Metal_Only>
0

> <s_lp_Force_Field>
OPLS_2005

> <r_lp_Energy>
24.6828

> <b_lp_Chiralities_Consistent>
1

> <s_lp_Variant>
AV-unprocessed.smi:2282-1

> <Gold.Version>
5.8.1

> <Gold.Id.Protein>
6NUR|6NUR_protein|mol2

> <Gold.PLP.Fitness>
38.4497

> <Gold.PLP.PLP>
-37.3261

> <Gold.PLP.part.hbond>
-1.2902

> <Gold.PLP.part.metal>
0.0000

> <Gold.PLP.part.buried>
-5.3579

> <Gold.PLP.part.nonpolar>
-29.9593

> <Gold.PLP.part.repulsive>
0.1284

> <Gold.PLP.ligand.clash>
0.0000

> <Gold.PLP.ligand.torsion>
0.9303

> <Gold.PLP.Chemscore.Hbond>
0.9920

> <Gold.PLP.Chemscore.CHOScore>
0.0000

> <Gold.PLP.Chemscore.Metal>
0.0000

> <Gold.Chemscore.Hbonds>
donor molecule, donor type, donor heavy atom, donor atom, acceptor molecule, acceptor atom, score
      P1  H  7989  7998       L1    15  0.98

> <Gold.PLP.Chemscore.Internal.Correction>
0.0083

> <Gold.Rescore>
     Score         DG    S(hbond)    S(metal)    S(lipo)     H(rot)  DE(clash)    DE(int)     intcor
     14.46     -16.46       0.23        0.00     109.03       1.00       0.23       1.77       ----

> <Gold.Chemscore.Fitness>
14.4576

> <Gold.Chemscore.DG>
-16.4586

> <Gold.Chemscore.ZeroCoef>
-5.4800

> <Gold.Chemscore.Hbond>
0.2341

> <Gold.Chemscore.Metal>
0.0000

> <Gold.Chemscore.Lipo>
109.0313

> <Gold.Chemscore.Internal_Hbond>
0.0000

> <Gold.Chemscore.DEClash>
0.2295

> <Gold.Chemscore.DEInternal>
1.7715

> <Gold.Chemscore.Rot>
1.0000

> <Gold.Chemscore.Internal.Correction>
   9.000000E+99

> <Gold.Chemscore.Hbonds>
donor molecule, donor type, donor heavy atom, donor atom, acceptor molecule, acceptor atom, score
      P1  H  7989  7998       L1    15  0.13

> <Gold.Chemscore.Hbond.Weighted>
-0.7819

> <Gold.Chemscore.Metal.Weighted>
-0.0000

> <Gold.Chemscore.Lipo.Weighted>
-12.7567

> <Gold.Chemscore.Internal_Hbond.Weighted>
0.0000

> <Gold.Chemscore.DEClash.Weighted>
0.2295

> <Gold.Chemscore.DEInternal.Weighted>
1.7715

> <Gold.Chemscore.Rot.Weighted>
2.5600

> <Gold.Chemscore.Internal.Correction.Weighted>
   9.000000E+99

> <Gold.Protein.RotatedTorsions>
[ 6907 6896 6895 6894 ] final -118.79 input  -60.11 | X-H torsion
[ 7974 7965 7964 7962 ] final   98.40 input  175.53 | X-H torsion
[ 8008 7997 7996 7995 ] final -123.22 input   59.86 | X-H torsion
[ 10167 10162 10161 10158 ] final  -46.15 input  -65.29 | X-H torsion
[ 10718 10713 10712 10709 ] final   88.52 input   66.30 | X-H torsion
[ 10763 10752 10751 10750 ] final  -39.98 input  -60.55 | X-H torsion
[ 11005 11000 10999 10996 ] final  178.11 input  -57.11 | X-H torsion

> <Gold.Protein.ActiveResidues>
 VAL166  LYS551  ARG553  GLY616  TRP617  ASP618  TYR619  PRO620  LYS621  CYS622 
 ASP623  PHE694  ASN695  SER759  ASP760  ASP761  ALA762  ILE779  LEU786  VAL792 
 PHE793  MET794  SER795  GLU796  ALA797  LYS798  CYS799  TRP800  GLU811  SER814 

> <Gold.Protein.RotatedAtoms>
  150.8249  133.8189  159.3122 H   0  0  0  0  0  0  0  0  0  0  0  0  # atno 6907 bound_to 6896
  151.5936  135.1050  160.0054 H   0  0  0  0  0  0  0  0  0  0  0  0  # atno 6908 bound_to 6896
  152.4335  133.7278  159.6627 H   0  0  0  0  0  0  0  0  0  0  0  0  # atno 6909 bound_to 6896
  145.4127  139.2331  143.3239 H   0  0  0  0  0  0  0  0  0  0  0  0  # atno 7974 bound_to 7965
  155.1770  140.0409  157.2874 H   0  0  0  0  0  0  0  0  0  0  0  0  # atno 8008 bound_to 7997
  154.6230  140.2505  155.7499 H   0  0  0  0  0  0  0  0  0  0  0  0  # atno 8009 bound_to 7997
  156.2444  140.2891  156.0546 H   0  0  0  0  0  0  0  0  0  0  0  0  # atno 8010 bound_to 7997
  140.6829  143.2845  151.3741 H   0  0  0  0  0  0  0  0  0  0  0  0  # atno 10167 bound_to 10162
  157.6949  131.0298  150.3287 H   0  0  0  0  0  0  0  0  0  0  0  0  # atno 10718 bound_to 10713
  153.9384  135.6764  153.4744 H   0  0  0  0  0  0  0  0  0  0  0  0  # atno 10763 bound_to 10752
  153.0944  135.4859  154.8747 H   0  0  0  0  0  0  0  0  0  0  0  0  # atno 10764 bound_to 10752
  154.7390  135.3156  154.8719 H   0  0  0  0  0  0  0  0  0  0  0  0  # atno 10765 bound_to 10752
  140.3915  134.6857  157.4510 H   0  0  0  0  0  0  0  0  0  0  0  0  # atno 11005 bound_to 11000
  146.2697  140.4840  142.8819 LP  0  0  0  0  0  0  0  0  0  0  0  0  # atno 17320 bound_to 7965
  144.8298  140.6688  143.6298 LP  0  0  0  0  0  0  0  0  0  0  0  0  # atno 17321 bound_to 7965
  139.6165  144.0993  152.2350 LP  0  0  0  0  0  0  0  0  0  0  0  0  # atno 17342 bound_to 10162
  140.0423  144.5997  150.7401 LP  0  0  0  0  0  0  0  0  0  0  0  0  # atno 17343 bound_to 10162
  156.3764  130.3872  149.7136 LP  0  0  0  0  0  0  0  0  0  0  0  0  # atno 17370 bound_to 10713
  156.4533  130.7917  151.2938 LP  0  0  0  0  0  0  0  0  0  0  0  0  # atno 17371 bound_to 10713
  140.0403  134.6277  155.8990 LP  0  0  0  0  0  0  0  0  0  0  0  0  # atno 17394 bound_to 11000
  141.1889  133.6564  156.5344 LP  0  0  0  0  0  0  0  0  0  0  0  0  # atno 17395 bound_to 11000

$$$$
