AV-unprocessed.smi:2623|AV-procd|sdf|10232|dock4
  -GOLD-   2272014243D 1   1.00000     0.00000
 Structure written by MMmdl.
 41 43  0  0  0  0  0  0  0  0  2 V2000
  150.8091  139.3387  153.8486 O   0  0  0  0  0  0  0  0  0  0  0  0
  150.0582  138.8499  154.9402 C   0  0  0  0  0  0  0  0  0  0  0  0
  150.1303  137.3629  155.0874 C   0  0  0  0  0  0  0  0  0  0  0  0
  149.6888  136.4390  154.1862 N   0  3  0  0  0  0  0  0  0  0  0  0
  149.9205  135.1521  154.6732 C   0  0  0  0  0  0  0  0  0  0  0  0
  149.6472  133.9045  154.1210 C   0  0  0  0  0  0  0  0  0  0  0  0
  150.0137  132.7792  154.8885 C   0  0  0  0  0  0  0  0  0  0  0  0
  150.6259  132.9191  156.1512 C   0  0  0  0  0  0  0  0  0  0  0  0
  150.8981  134.1894  156.7004 C   0  0  0  0  0  0  0  0  0  0  0  0
  150.5331  135.2962  155.9347 C   0  0  0  0  0  0  0  0  0  0  0  0
  150.6452  136.6746  156.1470 N   0  0  0  0  0  0  0  0  0  0  0  0
  151.2530  137.1598  157.3962 C   0  0  0  0  0  0  0  0  0  0  0  0
  150.6181  138.4691  157.9075 C   0  0  1  0  0  0  0  0  0  0  0  0
  149.9221  138.2010  159.1090 O   0  0  0  0  0  0  0  0  0  0  0  0
  151.6761  139.5499  158.1810 C   0  0  0  0  0  0  0  0  0  0  0  0
  151.1096  140.8255  157.9113 O   0  0  0  0  0  0  0  0  0  0  0  0
  151.5088  141.8948  158.6842 C   0  0  0  0  0  0  0  0  0  0  0  0
  150.8945  143.1374  158.4230 C   0  0  0  0  0  0  0  0  0  0  0  0
  151.2414  144.2838  159.1638 C   0  0  0  0  0  0  0  0  0  0  0  0
  152.2119  144.1980  160.1786 C   0  0  0  0  0  0  0  0  0  0  0  0
  152.8340  142.9651  160.4497 C   0  0  0  0  0  0  0  0  0  0  0  0
  152.4864  141.8183  159.7090 C   0  0  0  0  0  0  0  0  0  0  0  0
  150.2393  139.4002  153.0967 H   0  0  0  0  0  0  0  0  0  0  0  0
  150.4207  139.3214  155.8539 H   0  0  0  0  0  0  0  0  0  0  0  0
  149.0160  139.1446  154.8139 H   0  0  0  0  0  0  0  0  0  0  0  0
  149.1778  133.7954  153.1544 H   0  0  0  0  0  0  0  0  0  0  0  0
  149.8213  131.7891  154.5011 H   0  0  0  0  0  0  0  0  0  0  0  0
  150.8924  132.0338  156.7104 H   0  0  0  0  0  0  0  0  0  0  0  0
  151.3679  134.2861  157.6682 H   0  0  0  0  0  0  0  0  0  0  0  0
  151.1516  136.3723  158.1441 H   0  0  0  0  0  0  0  0  0  0  0  0
  152.3236  137.2850  157.2289 H   0  0  0  0  0  0  0  0  0  0  0  0
  149.9075  138.8366  157.1665 H   0  0  0  0  0  0  0  0  0  0  0  0
  149.4045  138.9596  159.3312 H   0  0  0  0  0  0  0  0  0  0  0  0
  152.0471  139.4800  159.2052 H   0  0  0  0  0  0  0  0  0  0  0  0
  152.5228  139.4022  157.5084 H   0  0  0  0  0  0  0  0  0  0  0  0
  150.1479  143.2125  157.6461 H   0  0  0  0  0  0  0  0  0  0  0  0
  150.7623  145.2286  158.9528 H   0  0  0  0  0  0  0  0  0  0  0  0
  152.4789  145.0762  160.7480 H   0  0  0  0  0  0  0  0  0  0  0  0
  153.5798  142.8975  161.2279 H   0  0  0  0  0  0  0  0  0  0  0  0
  152.9855  140.8915  159.9471 H   0  0  0  0  0  0  0  0  0  0  0  0
  149.2602  136.6802  153.3018 H   0  0  0  0  0  0  0  0  0  0  0  0
  1  2  1  0  0  0  0
  1 23  1  0  0  0  0
  2  3  1  0  0  0  0
  2 24  1  0  0  0  0
  2 25  1  0  0  0  0
  3 11  1  0  0  0  0
  3  4  2  0  0  0  0
  4  5  1  0  0  0  0
  4 41  1  0  0  0  0
  5 10  2  0  0  0  0
  5  6  1  0  0  0  0
  6  7  2  0  0  0  0
  6 26  1  0  0  0  0
  7  8  1  0  0  0  0
  7 27  1  0  0  0  0
  8  9  2  0  0  0  0
  8 28  1  0  0  0  0
  9 10  1  0  0  0  0
  9 29  1  0  0  0  0
 10 11  1  0  0  0  0
 11 12  1  0  0  0  0
 12 13  1  0  0  0  0
 12 30  1  0  0  0  0
 12 31  1  0  0  0  0
 13 14  1  0  0  0  0
 13 15  1  0  0  0  0
 13 32  1  0  0  0  0
 14 33  1  0  0  0  0
 15 16  1  0  0  0  0
 15 34  1  0  0  0  0
 15 35  1  0  0  0  0
 16 17  1  0  0  0  0
 17 22  1  0  0  0  0
 17 18  2  0  0  0  0
 18 19  1  0  0  0  0
 18 36  1  0  0  0  0
 19 20  2  0  0  0  0
 19 37  1  0  0  0  0
 20 21  1  0  0  0  0
 20 38  1  0  0  0  0
 21 22  2  0  0  0  0
 21 39  1  0  0  0  0
 22 40  1  0  0  0  0
M  CHG  1   4   1
M  END
> <s_m_source_file>
AV-unprocessed.smi

> <i_m_source_file_index>
2623

> <i_lp_mmshare_version>
43012

> <i_f3d_flags>
0

> <s_epik_input>
W2NIXTFbY0hdW2NIXVtjSF1jKGMxMiluKGMobjIpW0NIMl1bT0hdKVtDSDJdW0NASF0oW09IXSlbQ0gyXU9jM1tjSF1bY0hdW2NIXVtjSF1bY0hdMw==

> <s_epik_cmdline>
J2VwaWtfcHl0aG9uJywgJy1waCcsICc3LjAnLCAnLXRuJywgJzgnLCAnLW1hJywgJzIwMCcsICctbWV0YWxfYmluZGluZycsICctaW1hZScsICc8aW5maWxlLm1hZT4nLCAnLW9tYWUnLCAnPG91dGZpbGUubWFlPic=

> <r_lp_tautomer_probability>
1

> <r_epik_Ionization_Penalty>
1.40416

> <r_epik_Ionization_Penalty_Charging>
1.4033

> <r_epik_Ionization_Penalty_Neutral>
0.000858184

> <r_epik_State_Penalty>
1.48564

> <r_epik_Charging_Adjusted_Penalty>
2.88894

> <i_epik_Tot_Q>
1

> <i_epik_Tot_abs_Q>
1

> <r_epik_Metal_State_Penalty>
5.52809

> <b_epik_Metal_Only>
0

> <s_lp_Force_Field>
OPLS_2005

> <r_lp_Energy>
19.2357

> <b_lp_Chiralities_Consistent>
1

> <s_lp_Variant>
AV-unprocessed.smi:2623-4

> <Gold.Version>
5.8.1

> <Gold.Id.Protein>
6NUR|6NUR_protein|mol2

> <Gold.PLP.Fitness>
46.1625

> <Gold.PLP.PLP>
-38.3276

> <Gold.PLP.part.hbond>
-4.2074

> <Gold.PLP.part.metal>
0.0000

> <Gold.PLP.part.buried>
-1.2223

> <Gold.PLP.part.nonpolar>
-31.5300

> <Gold.PLP.part.repulsive>
0.0376

> <Gold.PLP.ligand.clash>
0.0000

> <Gold.PLP.ligand.torsion>
1.7320

> <Gold.PLP.Chemscore.Hbond>
3.7567

> <Gold.PLP.Chemscore.CHOScore>
0.0000

> <Gold.PLP.Chemscore.Metal>
0.0000

> <Gold.Chemscore.Hbonds>
donor molecule, donor type, donor heavy atom, donor atom, acceptor molecule, acceptor atom, score
      L1  H     1    23       P1  7957  0.76
      L1  H     4    41       P1  7948  1.75
      P1  H  7989  7998       L1     1  0.65

> <Gold.PLP.Chemscore.Internal.Correction>
0.0286

> <Gold.Rescore>
     Score         DG    S(hbond)    S(metal)    S(lipo)     H(rot)  DE(clash)    DE(int)     intcor
     13.86     -16.60       1.71        0.00     114.66       3.13       0.28       2.47       ----

> <Gold.Chemscore.Fitness>
13.8574

> <Gold.Chemscore.DG>
-16.6038

> <Gold.Chemscore.ZeroCoef>
-5.4800

> <Gold.Chemscore.Hbond>
1.7134

> <Gold.Chemscore.Metal>
0.0000

> <Gold.Chemscore.Lipo>
114.6610

> <Gold.Chemscore.Internal_Hbond>
0.0000

> <Gold.Chemscore.DEClash>
0.2772

> <Gold.Chemscore.DEInternal>
2.4692

> <Gold.Chemscore.Rot>
3.1305

> <Gold.Chemscore.Internal.Correction>
   9.000000E+99

> <Gold.Chemscore.Hbonds>
donor molecule, donor type, donor heavy atom, donor atom, acceptor molecule, acceptor atom, score
      L1  H     1    23       P1  7957  0.71
      L1  H     4    41       P1  7948  0.77
      P1  H  7989  7998       L1     1  0.05

> <Gold.Chemscore.Hbond.Weighted>
-5.7226

> <Gold.Chemscore.Metal.Weighted>
-0.0000

> <Gold.Chemscore.Lipo.Weighted>
-13.4153

> <Gold.Chemscore.Internal_Hbond.Weighted>
0.0000

> <Gold.Chemscore.DEClash.Weighted>
0.2772

> <Gold.Chemscore.DEInternal.Weighted>
2.4692

> <Gold.Chemscore.Rot.Weighted>
8.0141

> <Gold.Chemscore.Internal.Correction.Weighted>
   9.000000E+99

> <Gold.Protein.RotatedTorsions>
[ 6907 6896 6895 6894 ] final -147.14 input  -60.11 | X-H torsion
[ 7974 7965 7964 7962 ] final  -21.62 input  175.53 | X-H torsion
[ 8008 7997 7996 7995 ] final   62.06 input   59.86 | X-H torsion
[ 10167 10162 10161 10158 ] final -170.37 input  -65.29 | X-H torsion
[ 10718 10713 10712 10709 ] final  122.14 input   66.30 | X-H torsion
[ 10763 10752 10751 10750 ] final  134.16 input  -60.55 | X-H torsion
[ 11005 11000 10999 10996 ] final    2.43 input  -57.11 | X-H torsion

> <Gold.Protein.ActiveResidues>
 VAL166  LYS551  ARG553  GLY616  TRP617  ASP618  TYR619  PRO620  LYS621  CYS622 
 ASP623  PHE694  ASN695  SER759  ASP760  ASP761  ALA762  ILE779  LEU786  VAL792 
 PHE793  MET794  SER795  GLU796  ALA797  LYS798  CYS799  TRP800  GLU811  SER814 

> <Gold.Protein.RotatedAtoms>
  151.1515  133.4904  159.2595 H   0  0  0  0  0  0  0  0  0  0  0  0  # atno 6907 bound_to 6896
  151.1549  135.0245  159.8694 H   0  0  0  0  0  0  0  0  0  0  0  0  # atno 6908 bound_to 6896
  152.5463  134.1395  159.8526 H   0  0  0  0  0  0  0  0  0  0  0  0  # atno 6909 bound_to 6896
  146.1722  140.4366  142.8527 H   0  0  0  0  0  0  0  0  0  0  0  0  # atno 7974 bound_to 7965
  155.6082  140.3494  155.4614 H   0  0  0  0  0  0  0  0  0  0  0  0  # atno 8008 bound_to 7997
  156.0175  140.1246  157.0416 H   0  0  0  0  0  0  0  0  0  0  0  0  # atno 8009 bound_to 7997
  154.4303  140.1069  156.5902 H   0  0  0  0  0  0  0  0  0  0  0  0  # atno 8010 bound_to 7997
  139.5866  144.1305  152.1583 H   0  0  0  0  0  0  0  0  0  0  0  0  # atno 10167 bound_to 10162
  157.5765  131.1079  150.8270 H   0  0  0  0  0  0  0  0  0  0  0  0  # atno 10718 bound_to 10713
  153.8190  135.3118  155.3408 H   0  0  0  0  0  0  0  0  0  0  0  0  # atno 10763 bound_to 10752
  154.8020  135.4721  154.0302 H   0  0  0  0  0  0  0  0  0  0  0  0  # atno 10764 bound_to 10752
  153.1705  135.6877  153.8704 H   0  0  0  0  0  0  0  0  0  0  0  0  # atno 10765 bound_to 10752
  140.6044  133.9806  155.8147 H   0  0  0  0  0  0  0  0  0  0  0  0  # atno 11005 bound_to 11000
  144.8181  140.6503  143.6371 LP  0  0  0  0  0  0  0  0  0  0  0  0  # atno 17320 bound_to 7965
  145.4308  139.1549  143.4023 LP  0  0  0  0  0  0  0  0  0  0  0  0  # atno 17321 bound_to 7965
  140.0870  144.5653  150.7081 LP  0  0  0  0  0  0  0  0  0  0  0  0  # atno 17342 bound_to 10162
  140.7136  143.2526  151.4503 LP  0  0  0  0  0  0  0  0  0  0  0  0  # atno 17343 bound_to 10162
  156.8727  130.5152  149.5295 LP  0  0  0  0  0  0  0  0  0  0  0  0  # atno 17370 bound_to 10713
  156.0809  130.5820  150.9562 LP  0  0  0  0  0  0  0  0  0  0  0  0  # atno 17371 bound_to 10713
  141.0851  134.0003  157.3326 LP  0  0  0  0  0  0  0  0  0  0  0  0  # atno 17394 bound_to 11000
  139.9219  135.0200  156.8094 LP  0  0  0  0  0  0  0  0  0  0  0  0  # atno 17395 bound_to 11000

$$$$
