AV-unprocessed.smi:583|AV-procd|sdf|2998|dock2
  -GOLD-   2262023503D 1   1.00000     0.00000
 Structure written by MMmdl.
 35 36  0  0  0  0  0  0  0  0  1 V2000
  147.6420  140.5398  155.0434 O   0  0  0  0  0  0  0  0  0  0  0  0
  148.3338  141.3812  155.6187 C   0  0  0  0  0  0  0  0  0  0  0  0
  149.8206  141.5512  155.2742 C   0  0  0  0  0  0  0  0  0  0  0  0
  150.7112  141.4248  156.4405 N   0  0  0  0  0  0  0  0  0  0  0  0
  151.0777  142.6145  157.1003 C   0  0  0  0  0  0  0  0  0  0  0  0
  151.8732  142.6349  158.1871 C   0  0  0  0  0  0  0  0  0  0  0  0
  152.2946  143.9391  158.8461 C   0  0  0  0  0  0  0  0  0  0  0  0
  151.2326  144.6631  159.2002 F   0  0  0  0  0  0  0  0  0  0  0  0
  153.0295  143.7126  159.9360 F   0  0  0  0  0  0  0  0  0  0  0  0
  153.0245  144.6606  157.9965 F   0  0  0  0  0  0  0  0  0  0  0  0
  152.3766  141.3538  158.6422 C   0  0  0  0  0  0  0  0  0  0  0  0
  152.0409  140.2073  158.0192 C   0  0  0  0  0  0  0  0  0  0  0  0
  151.1558  140.1995  156.8523 C   0  0  0  0  0  0  0  0  0  0  0  0
  150.8346  139.1576  156.2799 O   0  0  0  0  0  0  0  0  0  0  0  0
  147.8600  142.1853  156.5823 N   0  0  0  0  0  0  0  0  0  0  0  0
  146.4827  142.1945  157.0654 C   0  0  1  0  0  0  0  0  0  0  0  0
  146.0156  140.7980  157.5256 C   0  0  0  0  0  0  0  0  0  0  0  0
  144.7324  140.9550  158.3509 C   0  0  0  0  0  0  0  0  0  0  0  0
  144.8462  142.5937  159.1645 S   0  0  0  0  0  0  0  0  0  0  0  0
  143.6877  143.4058  158.7632 O   0  0  0  0  0  0  0  0  0  0  0  0
  145.1930  142.4180  160.5830 O   0  0  0  0  0  0  0  0  0  0  0  0
  146.3311  143.1574  158.2509 C   0  0  0  0  0  0  0  0  0  0  0  0
  150.0990  140.8231  154.5101 H   0  0  0  0  0  0  0  0  0  0  0  0
  149.9491  142.5245  154.7985 H   0  0  0  0  0  0  0  0  0  0  0  0
  150.6663  143.5145  156.6668 H   0  0  0  0  0  0  0  0  0  0  0  0
  153.0302  141.3114  159.5011 H   0  0  0  0  0  0  0  0  0  0  0  0
  152.4319  139.2704  158.3879 H   0  0  0  0  0  0  0  0  0  0  0  0
  148.4979  142.8430  157.0067 H   0  0  0  0  0  0  0  0  0  0  0  0
  145.8193  142.5360  156.2683 H   0  0  0  0  0  0  0  0  0  0  0  0
  145.8663  140.1199  156.6847 H   0  0  0  0  0  0  0  0  0  0  0  0
  146.7847  140.3538  158.1590 H   0  0  0  0  0  0  0  0  0  0  0  0
  143.8549  140.9625  157.7037 H   0  0  0  0  0  0  0  0  0  0  0  0
  144.6081  140.1700  159.0971 H   0  0  0  0  0  0  0  0  0  0  0  0
  147.1819  143.0887  158.9296 H   0  0  0  0  0  0  0  0  0  0  0  0
  146.2124  144.1970  157.9448 H   0  0  0  0  0  0  0  0  0  0  0  0
  1  2  2  0  0  0  0
  2  3  1  0  0  0  0
  2 15  1  0  0  0  0
  3  4  1  0  0  0  0
  3 23  1  0  0  0  0
  3 24  1  0  0  0  0
  4 13  1  0  0  0  0
  4  5  1  0  0  0  0
  5  6  2  0  0  0  0
  5 25  1  0  0  0  0
  6  7  1  0  0  0  0
  6 11  1  0  0  0  0
  7  8  1  0  0  0  0
  7  9  1  0  0  0  0
  7 10  1  0  0  0  0
 11 12  2  0  0  0  0
 11 26  1  0  0  0  0
 12 13  1  0  0  0  0
 12 27  1  0  0  0  0
 13 14  2  0  0  0  0
 15 16  1  0  0  0  0
 15 28  1  0  0  0  0
 16 22  1  0  0  0  0
 16 17  1  0  0  0  0
 16 29  1  0  0  0  0
 17 18  1  0  0  0  0
 17 30  1  0  0  0  0
 17 31  1  0  0  0  0
 18 19  1  0  0  0  0
 18 32  1  0  0  0  0
 18 33  1  0  0  0  0
 19 20  2  0  0  0  0
 19 21  2  0  0  0  0
 19 22  1  0  0  0  0
 22 34  1  0  0  0  0
 22 35  1  0  0  0  0
M  END
> <s_m_source_file>
AV-unprocessed.smi

> <i_m_source_file_index>
583

> <i_lp_mmshare_version>
43012

> <i_f3d_flags>
0

> <s_epik_input>
Tz1TMSg9TylbQ0gyXVtDSDJdW0NASF0oW0NIMl0xKVtOSF1DKD1PKVtDSDJdbjJbY0hdYyhDKEYpKEYpRilbY0hdW2NIXWMyPU8=

> <s_epik_cmdline>
J2VwaWtfcHl0aG9uJywgJy1waCcsICc3LjAnLCAnLXRuJywgJzgnLCAnLW1hJywgJzIwMCcsICctbWV0YWxfYmluZGluZycsICctaW1hZScsICc8aW5maWxlLm1hZT4nLCAnLW9tYWUnLCAnPG91dGZpbGUubWFlPic=

> <r_lp_tautomer_probability>
1

> <r_epik_Ionization_Penalty>
1.22016e-07

> <r_epik_Ionization_Penalty_Charging>
1.48237e-08

> <r_epik_Ionization_Penalty_Neutral>
1.07193e-07

> <r_epik_State_Penalty>
-0

> <r_epik_Charging_Adjusted_Penalty>
1.48237e-08

> <i_epik_Tot_Q>
0

> <i_epik_Tot_abs_Q>
0

> <r_epik_Metal_State_Penalty>
-0

> <b_epik_Metal_Only>
0

> <s_lp_Force_Field>
OPLS_2005

> <r_lp_Energy>
16.0517

> <b_lp_Chiralities_Consistent>
1

> <s_lp_Variant>
AV-unprocessed.smi:583-2

> <Gold.Version>
5.8.1

> <Gold.Id.Protein>
6NUR|6NUR_protein|mol2

> <Gold.PLP.Fitness>
42.3565

> <Gold.PLP.PLP>
-37.3176

> <Gold.PLP.part.hbond>
-1.8190

> <Gold.PLP.part.metal>
0.0000

> <Gold.PLP.part.buried>
-5.6476

> <Gold.PLP.part.nonpolar>
-31.1753

> <Gold.PLP.part.repulsive>
0.0778

> <Gold.PLP.ligand.clash>
0.0000

> <Gold.PLP.ligand.torsion>
0.5032

> <Gold.PLP.Chemscore.Hbond>
1.0000

> <Gold.PLP.Chemscore.CHOScore>
1.0000

> <Gold.PLP.Chemscore.Metal>
0.0000

> <Gold.Chemscore.Hbonds>
donor molecule, donor type, donor heavy atom, donor atom, acceptor molecule, acceptor atom, score
      L1  H    15    28       P1  8028  0.06
      P1  H  6934  6946       L1    21  0.29
      L1  C     5    25       P1  8028  1.00

> <Gold.PLP.Chemscore.Internal.Correction>
0.0453

> <Gold.Rescore>
     Score         DG    S(hbond)    S(metal)    S(lipo)     H(rot)  DE(clash)    DE(int)     intcor
      9.30     -10.84       0.87        0.00      58.83       1.73       0.06       1.49       ----

> <Gold.Chemscore.Fitness>
9.2981

> <Gold.Chemscore.DG>
-10.8439

> <Gold.Chemscore.ZeroCoef>
-5.4800

> <Gold.Chemscore.Hbond>
0.8722

> <Gold.Chemscore.Metal>
0.0000

> <Gold.Chemscore.Lipo>
58.8303

> <Gold.Chemscore.Internal_Hbond>
0.0000

> <Gold.Chemscore.DEClash>
0.0594

> <Gold.Chemscore.DEInternal>
1.4864

> <Gold.Chemscore.Rot>
1.7314

> <Gold.Chemscore.Internal.Correction>
   9.000000E+99

> <Gold.Chemscore.Hbonds>
donor molecule, donor type, donor heavy atom, donor atom, acceptor molecule, acceptor atom, score
      L1  H    15    28       P1  8028  0.04
      P1  H  6934  6946       L1    21  0.20

> <Gold.Chemscore.Hbond.Weighted>
-2.9132

> <Gold.Chemscore.Metal.Weighted>
-0.0000

> <Gold.Chemscore.Lipo.Weighted>
-6.8831

> <Gold.Chemscore.Internal_Hbond.Weighted>
0.0000

> <Gold.Chemscore.DEClash.Weighted>
0.0594

> <Gold.Chemscore.DEInternal.Weighted>
1.4864

> <Gold.Chemscore.Rot.Weighted>
4.4324

> <Gold.Chemscore.Internal.Correction.Weighted>
   9.000000E+99

> <Gold.Protein.RotatedTorsions>
[ 6907 6896 6895 6894 ] final -130.71 input  -60.11 | X-H torsion
[ 7974 7965 7964 7962 ] final   84.80 input  175.53 | X-H torsion
[ 8008 7997 7996 7995 ] final  -78.59 input   59.86 | X-H torsion
[ 10167 10162 10161 10158 ] final  138.22 input  -65.29 | X-H torsion
[ 10718 10713 10712 10709 ] final  140.01 input   66.30 | X-H torsion
[ 10763 10752 10751 10750 ] final  111.15 input  -60.55 | X-H torsion
[ 11005 11000 10999 10996 ] final -116.78 input  -57.11 | X-H torsion

> <Gold.Protein.ActiveResidues>
 VAL166  LYS551  ARG553  GLY616  TRP617  ASP618  TYR619  PRO620  LYS621  CYS622 
 ASP623  PHE694  ASN695  SER759  ASP760  ASP761  ALA762  ILE779  LEU786  VAL792 
 PHE793  MET794  SER795  GLU796  ALA797  LYS798  CYS799  TRP800  GLU811  SER814 

> <Gold.Protein.RotatedAtoms>
  150.9428  133.6637  159.2787 H   0  0  0  0  0  0  0  0  0  0  0  0  # atno 6907 bound_to 6896
  151.4020  135.0971  159.9568 H   0  0  0  0  0  0  0  0  0  0  0  0  # atno 6908 bound_to 6896
  152.5077  133.8920  159.7453 H   0  0  0  0  0  0  0  0  0  0  0  0  # atno 6909 bound_to 6896
  145.5939  139.2342  143.2284 H   0  0  0  0  0  0  0  0  0  0  0  0  # atno 7974 bound_to 7965
  154.5704  140.0692  156.8955 H   0  0  0  0  0  0  0  0  0  0  0  0  # atno 8008 bound_to 7997
  155.2645  140.3361  155.4252 H   0  0  0  0  0  0  0  0  0  0  0  0  # atno 8009 bound_to 7997
  156.2113  140.1760  156.7673 H   0  0  0  0  0  0  0  0  0  0  0  0  # atno 8010 bound_to 7997
  139.5118  144.6365  151.5681 H   0  0  0  0  0  0  0  0  0  0  0  0  # atno 10167 bound_to 10162
  157.4081  131.1025  151.0483 H   0  0  0  0  0  0  0  0  0  0  0  0  # atno 10718 bound_to 10713
  153.4592  135.3726  155.2328 H   0  0  0  0  0  0  0  0  0  0  0  0  # atno 10763 bound_to 10752
  154.8757  135.3904  154.3945 H   0  0  0  0  0  0  0  0  0  0  0  0  # atno 10764 bound_to 10752
  153.4516  135.7085  153.6169 H   0  0  0  0  0  0  0  0  0  0  0  0  # atno 10765 bound_to 10752
  141.0399  133.9852  157.3011 H   0  0  0  0  0  0  0  0  0  0  0  0  # atno 11005 bound_to 11000
  146.1626  140.6765  142.9270 LP  0  0  0  0  0  0  0  0  0  0  0  0  # atno 17320 bound_to 7965
  144.7339  140.4752  143.6918 LP  0  0  0  0  0  0  0  0  0  0  0  0  # atno 17321 bound_to 7965
  140.6117  143.9424  150.6458 LP  0  0  0  0  0  0  0  0  0  0  0  0  # atno 17342 bound_to 10162
  140.2669  143.3483  152.1273 LP  0  0  0  0  0  0  0  0  0  0  0  0  # atno 17343 bound_to 10162
  157.1458  130.6162  149.5568 LP  0  0  0  0  0  0  0  0  0  0  0  0  # atno 17370 bound_to 10713
  155.9842  130.4866  150.6972 LP  0  0  0  0  0  0  0  0  0  0  0  0  # atno 17371 bound_to 10713
  139.9268  135.0201  156.8261 LP  0  0  0  0  0  0  0  0  0  0  0  0  # atno 17394 bound_to 11000
  140.6254  133.9955  155.7637 LP  0  0  0  0  0  0  0  0  0  0  0  0  # atno 17395 bound_to 11000

$$$$
