AV-unprocessed.smi:111|AV-procd|sdf|1079|dock10
  -GOLD-   2262018173D 1   1.00000     0.00000
 Structure written by MMmdl.
 46 48  0  0  0  0  0  0  0  0  1 V2000
  148.0617  138.7158  155.5041 O   0  0  0  0  0  0  0  0  0  0  0  0
  148.1726  138.1275  156.5813 C   0  0  0  0  0  0  0  0  0  0  0  0
  147.0468  137.8710  157.4722 C   0  0  0  0  0  0  0  0  0  0  0  0
  145.8138  138.2700  157.1173 F   0  0  0  0  0  0  0  0  0  0  0  0
  147.2230  137.2434  158.6542 C   0  0  0  0  0  0  0  0  0  0  0  0
  148.4585  136.8060  159.0999 N   0  0  0  0  0  0  0  0  0  0  0  0
  148.6097  136.1264  160.4420 C   0  0  2  0  0  0  0  0  0  0  0  0
  147.8501  134.7956  160.4514 C   0  0  0  0  0  0  0  0  0  0  0  0
  146.5280  135.1945  161.0705 C   0  0  0  0  0  0  0  0  0  0  0  0
  146.9648  136.2670  162.0619 C   0  0  0  0  0  0  0  0  0  0  0  0
  148.0498  136.9420  161.4310 O   0  0  0  0  0  0  0  0  0  0  0  0
  149.6009  136.9842  158.2892 C   0  0  0  0  0  0  0  0  0  0  0  0
  150.7024  136.5712  158.6584 O   0  0  0  0  0  0  0  0  0  0  0  0
  149.4212  137.6508  157.0529 N   0  0  0  0  0  0  0  0  0  0  0  0
  150.5860  137.8912  156.2123 C   0  0  0  0  0  0  0  0  0  0  0  0
  150.7741  139.3717  155.8035 C   0  0  2  0  0  0  0  0  0  0  0  0
  151.8769  139.4422  154.9229 O   0  0  0  0  0  0  0  0  0  0  0  0
  151.0082  140.3425  156.9861 C   0  0  0  0  0  0  0  0  0  0  0  0
  150.9630  141.8295  156.5937 C   0  0  0  0  0  0  0  0  0  0  0  0
  151.3381  142.7612  157.7337 C   0  0  0  0  0  0  0  0  0  0  0  0
  151.7024  142.2399  158.9934 C   0  0  0  0  0  0  0  0  0  0  0  0
  152.0505  143.1090  160.0456 C   0  0  0  0  0  0  0  0  0  0  0  0
  152.0316  144.5027  159.8445 C   0  0  0  0  0  0  0  0  0  0  0  0
  151.6652  145.0271  158.5902 C   0  0  0  0  0  0  0  0  0  0  0  0
  151.3194  144.1583  157.5371 C   0  0  0  0  0  0  0  0  0  0  0  0
  146.3513  137.0837  159.2707 H   0  0  0  0  0  0  0  0  0  0  0  0
  149.6817  136.0270  160.6193 H   0  0  0  0  0  0  0  0  0  0  0  0
  147.7635  134.3580  159.4559 H   0  0  0  0  0  0  0  0  0  0  0  0
  148.3805  134.0977  161.1002 H   0  0  0  0  0  0  0  0  0  0  0  0
  145.8696  135.6223  160.3135 H   0  0  0  0  0  0  0  0  0  0  0  0
  146.0079  134.3620  161.5445 H   0  0  0  0  0  0  0  0  0  0  0  0
  146.1600  136.9562  162.3185 H   0  0  0  0  0  0  0  0  0  0  0  0
  147.3268  135.8075  162.9827 H   0  0  0  0  0  0  0  0  0  0  0  0
  151.4741  137.4917  156.7029 H   0  0  0  0  0  0  0  0  0  0  0  0
  150.4517  137.2562  155.3340 H   0  0  0  0  0  0  0  0  0  0  0  0
  149.9147  139.6965  155.2181 H   0  0  0  0  0  0  0  0  0  0  0  0
  152.4981  138.7726  155.1655 H   0  0  0  0  0  0  0  0  0  0  0  0
  150.2892  140.1661  157.7838 H   0  0  0  0  0  0  0  0  0  0  0  0
  151.9776  140.1375  157.4429 H   0  0  0  0  0  0  0  0  0  0  0  0
  151.6571  142.0065  155.7714 H   0  0  0  0  0  0  0  0  0  0  0  0
  149.9738  142.0874  156.2130 H   0  0  0  0  0  0  0  0  0  0  0  0
  151.7219  141.1721  159.1553 H   0  0  0  0  0  0  0  0  0  0  0  0
  152.3352  142.7059  161.0062 H   0  0  0  0  0  0  0  0  0  0  0  0
  152.3022  145.1689  160.6504 H   0  0  0  0  0  0  0  0  0  0  0  0
  151.6556  146.0956  158.4335 H   0  0  0  0  0  0  0  0  0  0  0  0
  151.0451  144.5669  156.5757 H   0  0  0  0  0  0  0  0  0  0  0  0
  1  2  2  0  0  0  0
  2 14  1  0  0  0  0
  2  3  1  0  0  0  0
  3  4  1  0  0  0  0
  3  5  2  0  0  0  0
  5  6  1  0  0  0  0
  5 26  1  0  0  0  0
  6  7  1  0  0  0  0
  6 12  1  0  0  0  0
  7 11  1  0  0  0  0
  7  8  1  0  0  0  0
  7 27  1  0  0  0  0
  8  9  1  0  0  0  0
  8 28  1  0  0  0  0
  8 29  1  0  0  0  0
  9 10  1  0  0  0  0
  9 30  1  0  0  0  0
  9 31  1  0  0  0  0
 10 11  1  0  0  0  0
 10 32  1  0  0  0  0
 10 33  1  0  0  0  0
 12 13  2  0  0  0  0
 12 14  1  0  0  0  0
 14 15  1  0  0  0  0
 15 16  1  0  0  0  0
 15 34  1  0  0  0  0
 15 35  1  0  0  0  0
 16 17  1  0  0  0  0
 16 18  1  0  0  0  0
 16 36  1  0  0  0  0
 17 37  1  0  0  0  0
 18 19  1  0  0  0  0
 18 38  1  0  0  0  0
 18 39  1  0  0  0  0
 19 20  1  0  0  0  0
 19 40  1  0  0  0  0
 19 41  1  0  0  0  0
 20 25  1  0  0  0  0
 20 21  2  0  0  0  0
 21 22  1  0  0  0  0
 21 42  1  0  0  0  0
 22 23  2  0  0  0  0
 22 43  1  0  0  0  0
 23 24  1  0  0  0  0
 23 44  1  0  0  0  0
 24 25  2  0  0  0  0
 24 45  1  0  0  0  0
 25 46  1  0  0  0  0
M  END
> <s_m_source_file>
AV-unprocessed.smi

> <i_m_source_file_index>
111

> <i_lp_mmshare_version>
43012

> <i_f3d_flags>
0

> <s_epik_input>
TzFbQ0gyXVtDSDJdW0NIMl1bQ0BIXTFuKFtjSF1jKEYpYzI9TyljKD1PKW4yW0NIMl1bQ0BIXShbT0hdKVtDSDJdW0NIMl1jM1tjSF1bY0hdW2NIXVtjSF1bY0hdMw==

> <s_epik_cmdline>
J2VwaWtfcHl0aG9uJywgJy1waCcsICc3LjAnLCAnLXRuJywgJzgnLCAnLW1hJywgJzIwMCcsICctbWV0YWxfYmluZGluZycsICctaW1hZScsICc8aW5maWxlLm1hZT4nLCAnLW9tYWUnLCAnPG91dGZpbGUubWFlPic=

> <r_lp_tautomer_probability>
1

> <r_epik_Ionization_Penalty>
1.88248e-07

> <r_epik_Ionization_Penalty_Charging>
4.03974e-08

> <r_epik_Ionization_Penalty_Neutral>
1.47851e-07

> <r_epik_State_Penalty>
-0

> <r_epik_Charging_Adjusted_Penalty>
4.03974e-08

> <i_epik_Tot_Q>
0

> <i_epik_Tot_abs_Q>
0

> <r_epik_Metal_State_Penalty>
-0

> <b_epik_Metal_Only>
0

> <s_epik_Chemistry_Notes>
This compound contains an acetal/aminal-like group ( X-CH(R)-Y where X, Y are N, S, or O) that may be acid/base labile, releasing an aldehyde.

> <s_lp_Force_Field>
OPLS_2005

> <r_lp_Energy>
34.4162

> <b_lp_Chiralities_Consistent>
1

> <s_lp_Variant>
AV-unprocessed.smi:111-1

> <Gold.Version>
5.8.1

> <Gold.Id.Protein>
6NUR|6NUR_protein|mol2

> <Gold.PLP.Fitness>
53.6405

> <Gold.PLP.PLP>
-44.0726

> <Gold.PLP.part.hbond>
-3.9307

> <Gold.PLP.part.metal>
0.0000

> <Gold.PLP.part.buried>
-6.2434

> <Gold.PLP.part.nonpolar>
-34.3446

> <Gold.PLP.part.repulsive>
0.0041

> <Gold.PLP.ligand.clash>
0.0000

> <Gold.PLP.ligand.torsion>
0.1651

> <Gold.PLP.Chemscore.Hbond>
3.2778

> <Gold.PLP.Chemscore.CHOScore>
0.0000

> <Gold.PLP.Chemscore.Metal>
0.0000

> <Gold.Chemscore.Hbonds>
donor molecule, donor type, donor heavy atom, donor atom, acceptor molecule, acceptor atom, score
      P1  H  6896  6908       L1    13  0.94
      P1  H  6931  6943       L1    11  1.00
      P1  H  6934  6947       L1    11  0.22
      P1  H  7989  7998       L1    17  1.00

> <Gold.PLP.Chemscore.Internal.Correction>
0.0649

> <Gold.Rescore>
     Score         DG    S(hbond)    S(metal)    S(lipo)     H(rot)  DE(clash)    DE(int)     intcor
     19.80     -21.38       2.81        0.00     114.14       2.67       0.02       1.56       ----

> <Gold.Chemscore.Fitness>
19.7961

> <Gold.Chemscore.DG>
-21.3797

> <Gold.Chemscore.ZeroCoef>
-5.4800

> <Gold.Chemscore.Hbond>
2.8119

> <Gold.Chemscore.Metal>
0.0000

> <Gold.Chemscore.Lipo>
114.1379

> <Gold.Chemscore.Internal_Hbond>
0.0000

> <Gold.Chemscore.DEClash>
0.0239

> <Gold.Chemscore.DEInternal>
1.5597

> <Gold.Chemscore.Rot>
2.6743

> <Gold.Chemscore.Internal.Correction>
   9.000000E+99

> <Gold.Chemscore.Hbonds>
donor molecule, donor type, donor heavy atom, donor atom, acceptor molecule, acceptor atom, score
      P1  H  6896  6908       L1    13  0.90
      P1  H  6931  6943       L1    11  0.88
      P1  H  6934  6947       L1    11  0.10
      P1  H  7989  7998       L1    17  0.76

> <Gold.Chemscore.Hbond.Weighted>
-9.3918

> <Gold.Chemscore.Metal.Weighted>
-0.0000

> <Gold.Chemscore.Lipo.Weighted>
-13.3541

> <Gold.Chemscore.Internal_Hbond.Weighted>
0.0000

> <Gold.Chemscore.DEClash.Weighted>
0.0239

> <Gold.Chemscore.DEInternal.Weighted>
1.5597

> <Gold.Chemscore.Rot.Weighted>
6.8463

> <Gold.Chemscore.Internal.Correction.Weighted>
   9.000000E+99

> <Gold.Protein.RotatedTorsions>
[ 6907 6896 6895 6894 ] final -160.99 input  -60.11 | X-H torsion
[ 7974 7965 7964 7962 ] final -131.71 input  175.53 | X-H torsion
[ 8008 7997 7996 7995 ] final   66.69 input   59.86 | X-H torsion
[ 10167 10162 10161 10158 ] final   -8.92 input  -65.29 | X-H torsion
[ 10718 10713 10712 10709 ] final -138.73 input   66.30 | X-H torsion
[ 10763 10752 10751 10750 ] final -172.91 input  -60.55 | X-H torsion
[ 11005 11000 10999 10996 ] final -168.48 input  -57.11 | X-H torsion

> <Gold.Protein.ActiveResidues>
 VAL166  LYS551  ARG553  GLY616  TRP617  ASP618  TYR619  PRO620  LYS621  CYS622 
 ASP623  PHE694  ASN695  SER759  ASP760  ASP761  ALA762  ILE779  LEU786  VAL792 
 PHE793  MET794  SER795  GLU796  ALA797  LYS798  CYS799  TRP800  GLU811  SER814 

> <Gold.Protein.RotatedAtoms>
  151.3576  133.3901  159.2686 H   0  0  0  0  0  0  0  0  0  0  0  0  # atno 6907 bound_to 6896
  150.9751  134.9118  159.7821 H   0  0  0  0  0  0  0  0  0  0  0  0  # atno 6908 bound_to 6896
  152.5198  134.3539  159.9313 H   0  0  0  0  0  0  0  0  0  0  0  0  # atno 6909 bound_to 6896
  144.9354  140.7177  143.4880 H   0  0  0  0  0  0  0  0  0  0  0  0  # atno 7974 bound_to 7965
  155.6813  140.3496  155.4856 H   0  0  0  0  0  0  0  0  0  0  0  0  # atno 8008 bound_to 7997
  155.9604  140.1136  157.0923 H   0  0  0  0  0  0  0  0  0  0  0  0  # atno 8009 bound_to 7997
  154.4142  140.1177  156.5158 H   0  0  0  0  0  0  0  0  0  0  0  0  # atno 8010 bound_to 7997
  140.7073  143.5915  150.8889 H   0  0  0  0  0  0  0  0  0  0  0  0  # atno 10167 bound_to 10162
  156.3027  130.7438  151.1494 H   0  0  0  0  0  0  0  0  0  0  0  0  # atno 10718 bound_to 10713
  154.6139  135.2867  155.0402 H   0  0  0  0  0  0  0  0  0  0  0  0  # atno 10763 bound_to 10752
  154.1621  135.6486  153.4992 H   0  0  0  0  0  0  0  0  0  0  0  0  # atno 10764 bound_to 10752
  153.0206  135.5381  154.6903 H   0  0  0  0  0  0  0  0  0  0  0  0  # atno 10765 bound_to 10752
  140.5416  134.5517  157.5101 H   0  0  0  0  0  0  0  0  0  0  0  0  # atno 11005 bound_to 11000
  145.3075  139.1829  143.4656 LP  0  0  0  0  0  0  0  0  0  0  0  0  # atno 17320 bound_to 7965
  146.3264  140.3075  142.8624 LP  0  0  0  0  0  0  0  0  0  0  0  0  # atno 17321 bound_to 7965
  139.9640  143.6131  152.2994 LP  0  0  0  0  0  0  0  0  0  0  0  0  # atno 17342 bound_to 10162
  139.6694  144.7661  151.1812 LP  0  0  0  0  0  0  0  0  0  0  0  0  # atno 17343 bound_to 10162
  157.7372  131.0554  150.5370 LP  0  0  0  0  0  0  0  0  0  0  0  0  # atno 17370 bound_to 10713
  156.5499  130.4229  149.6113 LP  0  0  0  0  0  0  0  0  0  0  0  0  # atno 17371 bound_to 10713
  139.9501  134.7632  156.0468 LP  0  0  0  0  0  0  0  0  0  0  0  0  # atno 17394 bound_to 11000
  141.1224  133.6609  156.3249 LP  0  0  0  0  0  0  0  0  0  0  0  0  # atno 17395 bound_to 11000

$$$$
