AV-unprocessed.smi:114|AV-procd|sdf|1120|dock3
  -GOLD-   2262018243D 1   1.00000     0.00000
 Structure written by MMmdl.
 32 34  0  0  0  0  0  0  0  0  1 V2000
  146.8410  133.3636  159.3676 N   0  0  0  0  0  0  0  0  0  0  0  0
  146.7572  134.4713  158.6171 C   0  0  0  0  0  0  0  0  0  0  0  0
  145.5419  134.8451  158.1523 N   0  0  0  0  0  0  0  0  0  0  0  0
  145.4145  135.9443  157.3979 C   0  0  0  0  0  0  0  0  0  0  0  0
  144.1630  136.2424  156.9769 F   0  0  0  0  0  0  0  0  0  0  0  0
  146.3846  136.7810  157.0121 N   0  0  0  0  0  0  0  0  0  0  0  0
  147.6093  136.4057  157.4813 C   0  0  0  0  0  0  0  0  0  0  0  0
  147.8800  135.2683  158.2864 C   0  0  0  0  0  0  0  0  0  0  0  0
  149.2375  135.2033  158.5702 N   0  0  0  0  0  0  0  0  0  0  0  0
  149.7369  136.2466  157.9617 C   0  0  0  0  0  0  0  0  0  0  0  0
  148.8239  137.0219  157.2760 N   0  0  0  0  0  0  0  0  0  0  0  0
  149.0402  138.2740  156.4792 C   0  0  1  0  0  0  0  0  0  0  0  0
  150.3861  138.6317  156.5746 O   0  0  0  0  0  0  0  0  0  0  0  0
  151.0687  138.2559  155.3838 C   0  0  2  0  0  0  0  0  0  0  0  0
  152.3934  139.0229  155.2332 C   0  0  0  0  0  0  0  0  0  0  0  0
  153.2568  138.7060  156.3038 O   0  0  0  0  0  0  0  0  0  0  0  0
  150.0157  138.5280  154.3024 C   0  0  2  0  0  0  0  0  0  0  0  0
  149.9618  139.9053  153.9765 O   0  0  0  0  0  0  0  0  0  0  0  0
  148.7208  138.0869  154.9748 C   0  0  1  0  0  0  0  0  0  0  0  0
  148.4233  136.7503  154.6072 O   0  0  0  0  0  0  0  0  0  0  0  0
  148.4176  139.0229  156.9701 H   0  0  0  0  0  0  0  0  0  0  0  0
  151.2608  137.1815  155.4049 H   0  0  0  0  0  0  0  0  0  0  0  0
  150.2234  137.9748  153.3853 H   0  0  0  0  0  0  0  0  0  0  0  0
  147.8745  138.7172  154.6980 H   0  0  0  0  0  0  0  0  0  0  0  0
  147.7379  133.0658  159.7241 H   0  0  0  0  0  0  0  0  0  0  0  0
  146.0096  132.8290  159.5738 H   0  0  0  0  0  0  0  0  0  0  0  0
  150.7918  136.4756  158.0019 H   0  0  0  0  0  0  0  0  0  0  0  0
  152.8955  138.7283  154.3112 H   0  0  0  0  0  0  0  0  0  0  0  0
  152.2286  140.0999  155.1871 H   0  0  0  0  0  0  0  0  0  0  0  0
  152.8787  137.9922  156.7943 H   0  0  0  0  0  0  0  0  0  0  0  0
  149.5335  140.0001  153.1395 H   0  0  0  0  0  0  0  0  0  0  0  0
  148.6337  136.6404  153.6923 H   0  0  0  0  0  0  0  0  0  0  0  0
  1  2  1  0  0  0  0
  1 25  1  0  0  0  0
  1 26  1  0  0  0  0
  2  8  1  0  0  0  0
  2  3  2  0  0  0  0
  3  4  1  0  0  0  0
  4  5  1  0  0  0  0
  4  6  2  0  0  0  0
  6  7  1  0  0  0  0
  7 11  1  0  0  0  0
  7  8  2  0  0  0  0
  8  9  1  0  0  0  0
  9 10  2  0  0  0  0
 10 11  1  0  0  0  0
 10 27  1  0  0  0  0
 11 12  1  0  0  0  0
 12 21  1  0  0  0  0
 12 19  1  0  0  0  0
 12 13  1  0  0  0  0
 13 14  1  0  0  0  0
 14 22  1  0  0  0  0
 14 15  1  0  0  0  0
 14 17  1  0  0  0  0
 15 16  1  0  0  0  0
 15 28  1  0  0  0  0
 15 29  1  0  0  0  0
 16 30  1  0  0  0  0
 17 23  1  0  0  0  0
 17 18  1  0  0  0  0
 17 19  1  0  0  0  0
 18 31  1  0  0  0  0
 19 24  1  0  0  0  0
 19 20  1  0  0  0  0
 20 32  1  0  0  0  0
M  END
> <s_m_source_file>
AV-unprocessed.smi

> <i_m_source_file_index>
114

> <i_lp_mmshare_version>
43012

> <i_f3d_flags>
0

> <s_epik_input>
RmMobjEpbmMoW05IMl0pYyhjMTIpbltjSF1uMltDQEBIXTNPW0NASF0oW0NIMl1bT0hdKVtDQEBIXShbT0hdKVtDQEBIXTNbT0hd

> <s_epik_cmdline>
J2VwaWtfcHl0aG9uJywgJy1waCcsICc3LjAnLCAnLXRuJywgJzgnLCAnLW1hJywgJzIwMCcsICctbWV0YWxfYmluZGluZycsICctaW1hZScsICc8aW5maWxlLm1hZT4nLCAnLW9tYWUnLCAnPG91dGZpbGUubWFlPic=

> <r_lp_tautomer_probability>
1

> <r_epik_Ionization_Penalty>
1.13199e-05

> <r_epik_Ionization_Penalty_Charging>
0

> <r_epik_Ionization_Penalty_Neutral>
1.13199e-05

> <r_epik_State_Penalty>
-0

> <r_epik_Charging_Adjusted_Penalty>
0

> <i_epik_Tot_Q>
0

> <i_epik_Tot_abs_Q>
0

> <r_epik_Metal_State_Penalty>
-0

> <b_epik_Metal_Only>
0

> <s_epik_Chemistry_Notes>
This compound contains an acetal/aminal-like group ( X-CH(R)-Y where X, Y are N, S, or O) that may be acid/base labile, releasing an aldehyde.

> <s_lp_Force_Field>
OPLS_2005

> <r_lp_Energy>
38.7556

> <b_lp_Chiralities_Consistent>
1

> <s_lp_Variant>
AV-unprocessed.smi:114-14

> <Gold.Version>
5.8.1

> <Gold.Id.Protein>
6NUR|6NUR_protein|mol2

> <Gold.PLP.Fitness>
32.2831

> <Gold.PLP.PLP>
-17.7550

> <Gold.PLP.part.hbond>
-4.7622

> <Gold.PLP.part.metal>
0.0000

> <Gold.PLP.part.buried>
-3.4548

> <Gold.PLP.part.nonpolar>
-9.7119

> <Gold.PLP.part.repulsive>
0.0215

> <Gold.PLP.ligand.clash>
0.0000

> <Gold.PLP.ligand.torsion>
0.0386

> <Gold.PLP.Chemscore.Hbond>
4.8480

> <Gold.PLP.Chemscore.CHOScore>
0.0000

> <Gold.PLP.Chemscore.Metal>
0.0000

> <Gold.Chemscore.Hbonds>
donor molecule, donor type, donor heavy atom, donor atom, acceptor molecule, acceptor atom, score
      L1  H    18    31       P1  7957  1.00
      L1  H    20    32       P1  7948  1.00
      P1  H  6896  6907       L1     9  1.00
      P1  H  7989  7998       L1    18  0.73
      P1  H  7997  8010       L1    16  0.96

> <Gold.PLP.Chemscore.Internal.Correction>
0.0612

> <Gold.Rescore>
     Score         DG    S(hbond)    S(metal)    S(lipo)     H(rot)  DE(clash)    DE(int)     intcor
     12.10     -13.11       4.33        0.00      29.70       4.03       0.04       0.97       ----

> <Gold.Chemscore.Fitness>
12.1043

> <Gold.Chemscore.DG>
-13.1092

> <Gold.Chemscore.ZeroCoef>
-5.4800

> <Gold.Chemscore.Hbond>
4.3308

> <Gold.Chemscore.Metal>
0.0000

> <Gold.Chemscore.Lipo>
29.7038

> <Gold.Chemscore.Internal_Hbond>
0.0000

> <Gold.Chemscore.DEClash>
0.0363

> <Gold.Chemscore.DEInternal>
0.9686

> <Gold.Chemscore.Rot>
4.0277

> <Gold.Chemscore.Internal.Correction>
   9.000000E+99

> <Gold.Chemscore.Hbonds>
donor molecule, donor type, donor heavy atom, donor atom, acceptor molecule, acceptor atom, score
      L1  H    18    31       P1  7957  0.92
      L1  H    20    32       P1  7948  1.00
      P1  H  6896  6907       L1     9  0.50
      P1  H  7989  7998       L1    18  0.10
      P1  H  7997  8010       L1    16  0.28

> <Gold.Chemscore.Hbond.Weighted>
-14.4648

> <Gold.Chemscore.Metal.Weighted>
-0.0000

> <Gold.Chemscore.Lipo.Weighted>
-3.4754

> <Gold.Chemscore.Internal_Hbond.Weighted>
0.0000

> <Gold.Chemscore.DEClash.Weighted>
0.0363

> <Gold.Chemscore.DEInternal.Weighted>
0.9686

> <Gold.Chemscore.Rot.Weighted>
10.3110

> <Gold.Chemscore.Internal.Correction.Weighted>
   9.000000E+99

> <Gold.Protein.RotatedTorsions>
[ 6907 6896 6895 6894 ] final  -77.85 input  -60.11 | X-H torsion
[ 7974 7965 7964 7962 ] final   -5.54 input  175.53 | X-H torsion
[ 8008 7997 7996 7995 ] final   82.69 input   59.86 | X-H torsion
[ 10167 10162 10161 10158 ] final -141.82 input  -65.29 | X-H torsion
[ 10718 10713 10712 10709 ] final  119.06 input   66.30 | X-H torsion
[ 10763 10752 10751 10750 ] final   15.99 input  -60.55 | X-H torsion
[ 11005 11000 10999 10996 ] final  -46.73 input  -57.11 | X-H torsion

> <Gold.Protein.ActiveResidues>
 VAL166  LYS551  ARG553  GLY616  TRP617  ASP618  TYR619  PRO620  LYS621  CYS622 
 ASP623  PHE694  ASN695  SER759  ASP760  ASP761  ALA762  ILE779  LEU786  VAL792 
 PHE793  MET794  SER795  GLU796  ALA797  LYS798  CYS799  TRP800  GLU811  SER814 

> <Gold.Protein.RotatedAtoms>
  150.6988  134.4361  159.5270 H   0  0  0  0  0  0  0  0  0  0  0  0  # atno 6907 bound_to 6896
  152.2079  134.8525  160.0510 H   0  0  0  0  0  0  0  0  0  0  0  0  # atno 6908 bound_to 6896
  151.9422  133.3606  159.4006 H   0  0  0  0  0  0  0  0  0  0  0  0  # atno 6909 bound_to 6896
  146.2350  140.2036  142.8334 H   0  0  0  0  0  0  0  0  0  0  0  0  # atno 7974 bound_to 7965
  155.9140  140.3425  155.6121 H   0  0  0  0  0  0  0  0  0  0  0  0  # atno 8008 bound_to 7997
  155.7353  140.0800  157.2289 H   0  0  0  0  0  0  0  0  0  0  0  0  # atno 8009 bound_to 7997
  154.4060  140.1580  156.2542 H   0  0  0  0  0  0  0  0  0  0  0  0  # atno 8010 bound_to 7997
  139.8148  143.7653  152.2664 H   0  0  0  0  0  0  0  0  0  0  0  0  # atno 10167 bound_to 10162
  157.5988  131.1054  150.7843 H   0  0  0  0  0  0  0  0  0  0  0  0  # atno 10718 bound_to 10713
  153.1473  135.6772  153.8935 H   0  0  0  0  0  0  0  0  0  0  0  0  # atno 10763 bound_to 10752
  153.8373  135.3110  155.3424 H   0  0  0  0  0  0  0  0  0  0  0  0  # atno 10764 bound_to 10752
  154.7835  135.4875  153.9981 H   0  0  0  0  0  0  0  0  0  0  0  0  # atno 10765 bound_to 10752
  141.0597  133.6713  156.3196 H   0  0  0  0  0  0  0  0  0  0  0  0  # atno 11005 bound_to 11000
  144.9762  140.8416  143.5425 LP  0  0  0  0  0  0  0  0  0  0  0  0  # atno 17320 bound_to 7965
  145.2023  139.2246  143.5186 LP  0  0  0  0  0  0  0  0  0  0  0  0  # atno 17321 bound_to 7965
  139.7813  144.7443  151.0084 LP  0  0  0  0  0  0  0  0  0  0  0  0  # atno 17342 bound_to 10162
  140.7816  143.4539  151.0374 LP  0  0  0  0  0  0  0  0  0  0  0  0  # atno 17343 bound_to 10162
  156.8247  130.4995  149.5339 LP  0  0  0  0  0  0  0  0  0  0  0  0  # atno 17370 bound_to 10713
  156.1056  130.6002  150.9965 LP  0  0  0  0  0  0  0  0  0  0  0  0  # atno 17371 bound_to 10713
  140.5894  134.5666  157.5496 LP  0  0  0  0  0  0  0  0  0  0  0  0  # atno 17394 bound_to 11000
  139.9421  134.7768  156.0652 LP  0  0  0  0  0  0  0  0  0  0  0  0  # atno 17395 bound_to 11000

$$$$
