AV-unprocessed.smi:1087|AV-procd|sdf|4726|dock4
  -GOLD-   22720 3253D 1   1.00000     0.00000
 Structure written by MMmdl.
 47 48  0  0  0  0  0  0  0  0  2 V2000
  145.4586  134.6324  154.1299 C   0  0  0  0  0  0  0  0  0  0  0  0
  145.2480  135.9979  154.4444 O   0  0  0  0  0  0  0  0  0  0  0  0
  146.3188  136.8255  154.0218 C   0  0  0  0  0  0  0  0  0  0  0  0
  147.5895  136.4224  154.7856 C   0  0  0  0  0  0  0  0  0  0  0  0
  148.7705  137.2322  154.3914 N   0  3  2  0  0  0  0  0  0  0  0  0
  150.0268  136.7225  154.9980 C   0  0  0  0  0  0  0  0  0  0  0  0
  151.2493  137.4889  154.4652 C   0  0  0  0  0  0  0  0  0  0  0  0
  151.1320  139.0081  154.7096 C   0  0  2  0  0  0  0  0  0  0  0  0
  151.2980  139.4396  156.1868 C   0  0  0  0  0  0  0  0  0  0  0  0
  151.4728  140.8821  156.3260 N   0  0  0  0  0  0  0  0  0  0  0  0
  150.7273  141.6848  157.1012 C   0  0  0  0  0  0  0  0  0  0  0  0
  149.7692  141.2864  157.7646 O   0  0  0  0  0  0  0  0  0  0  0  0
  151.1273  143.1658  157.1260 C   0  0  0  0  0  0  0  0  0  0  0  0
  151.3720  143.6600  158.4904 N   0  0  0  0  0  0  0  0  0  0  0  0
  150.6788  144.8109  158.9011 C   0  0  0  0  0  0  0  0  0  0  0  0
  150.8469  145.3126  160.1331 C   0  0  0  0  0  0  0  0  0  0  0  0
  151.7839  144.5958  161.0077 C   0  0  0  0  0  0  0  0  0  0  0  0
  152.4142  143.5440  160.6380 N   0  0  0  0  0  0  0  0  0  0  0  0
  152.2341  143.0176  159.3449 C   0  0  0  0  0  0  0  0  0  0  0  0
  152.8326  142.0036  158.9846 O   0  0  0  0  0  0  0  0  0  0  0  0
  149.7987  139.4953  154.1118 C   0  0  0  0  0  0  0  0  0  0  0  0
  148.5941  138.6891  154.6339 C   0  0  0  0  0  0  0  0  0  0  0  0
  144.6094  134.0425  154.4746 H   0  0  0  0  0  0  0  0  0  0  0  0
  146.3553  134.2490  154.6187 H   0  0  0  0  0  0  0  0  0  0  0  0
  145.5558  134.4854  153.0535 H   0  0  0  0  0  0  0  0  0  0  0  0
  146.4583  136.7565  152.9430 H   0  0  0  0  0  0  0  0  0  0  0  0
  146.0804  137.8665  154.2451 H   0  0  0  0  0  0  0  0  0  0  0  0
  147.4311  136.5054  155.8618 H   0  0  0  0  0  0  0  0  0  0  0  0
  147.7812  135.3671  154.5856 H   0  0  0  0  0  0  0  0  0  0  0  0
  149.9670  136.7963  156.0845 H   0  0  0  0  0  0  0  0  0  0  0  0
  150.1446  135.6644  154.7619 H   0  0  0  0  0  0  0  0  0  0  0  0
  152.1645  137.0881  154.8994 H   0  0  0  0  0  0  0  0  0  0  0  0
  151.3342  137.3083  153.3928 H   0  0  0  0  0  0  0  0  0  0  0  0
  151.9351  139.4916  154.1513 H   0  0  0  0  0  0  0  0  0  0  0  0
  150.4016  139.1686  156.7454 H   0  0  0  0  0  0  0  0  0  0  0  0
  152.1175  138.9031  156.6660 H   0  0  0  0  0  0  0  0  0  0  0  0
  152.2345  141.2998  155.8108 H   0  0  0  0  0  0  0  0  0  0  0  0
  152.0143  143.3250  156.5096 H   0  0  0  0  0  0  0  0  0  0  0  0
  150.3346  143.7392  156.6436 H   0  0  0  0  0  0  0  0  0  0  0  0
  150.0129  145.2425  158.1680 H   0  0  0  0  0  0  0  0  0  0  0  0
  150.3436  146.1892  160.5131 H   0  0  0  0  0  0  0  0  0  0  0  0
  151.9098  145.0215  162.0066 H   0  0  0  0  0  0  0  0  0  0  0  0
  149.6565  140.5566  154.3190 H   0  0  0  0  0  0  0  0  0  0  0  0
  149.8397  139.4043  153.0254 H   0  0  0  0  0  0  0  0  0  0  0  0
  147.6950  139.0472  154.1342 H   0  0  0  0  0  0  0  0  0  0  0  0
  148.4473  138.8680  155.6998 H   0  0  0  0  0  0  0  0  0  0  0  0
  148.8754  137.1096  153.3940 H   0  0  0  0  0  0  0  0  0  0  0  0
  1  2  1  0  0  0  0
  1 23  1  0  0  0  0
  1 24  1  0  0  0  0
  1 25  1  0  0  0  0
  2  3  1  0  0  0  0
  3  4  1  0  0  0  0
  3 26  1  0  0  0  0
  3 27  1  0  0  0  0
  4  5  1  0  0  0  0
  4 28  1  0  0  0  0
  4 29  1  0  0  0  0
  5 22  1  0  0  0  0
  5  6  1  0  0  0  0
  5 47  1  0  0  0  0
  6  7  1  0  0  0  0
  6 30  1  0  0  0  0
  6 31  1  0  0  0  0
  7  8  1  0  0  0  0
  7 32  1  0  0  0  0
  7 33  1  0  0  0  0
  8  9  1  0  0  0  0
  8 21  1  0  0  0  0
  8 34  1  0  0  0  0
  9 10  1  0  0  0  0
  9 35  1  0  0  0  0
  9 36  1  0  0  0  0
 10 11  1  0  0  0  0
 10 37  1  0  0  0  0
 11 12  2  0  0  0  0
 11 13  1  0  0  0  0
 13 14  1  0  0  0  0
 13 38  1  0  0  0  0
 13 39  1  0  0  0  0
 14 19  1  0  0  0  0
 14 15  1  0  0  0  0
 15 16  2  0  0  0  0
 15 40  1  0  0  0  0
 16 17  1  0  0  0  0
 16 41  1  0  0  0  0
 17 18  2  0  0  0  0
 17 42  1  0  0  0  0
 18 19  1  0  0  0  0
 19 20  2  0  0  0  0
 21 22  1  0  0  0  0
 21 43  1  0  0  0  0
 21 44  1  0  0  0  0
 22 45  1  0  0  0  0
 22 46  1  0  0  0  0
M  CHG  1   5   1
M  END
> <s_m_source_file>
AV-unprocessed.smi

> <i_m_source_file_index>
1087

> <i_lp_mmshare_version>
43012

> <i_f3d_flags>
0

> <s_epik_input>
W0NIM11PW0NIMl1bQ0gyXU4xW0NIMl1bQ0gyXVtDSF0oW0NIMl1bQ0gyXTEpW0NIMl1bTkhdQyg9TylbQ0gyXW4yW2NIXVtjSF1bY0hdbmMyPU8=

> <s_epik_cmdline>
J2VwaWtfcHl0aG9uJywgJy1waCcsICc3LjAnLCAnLXRuJywgJzgnLCAnLW1hJywgJzIwMCcsICctbWV0YWxfYmluZGluZycsICctaW1hZScsICc8aW5maWxlLm1hZT4nLCAnLW9tYWUnLCAnPG91dGZpbGUubWFlPic=

> <r_lp_tautomer_probability>
1

> <r_epik_Ionization_Penalty>
0.00982698

> <r_epik_Ionization_Penalty_Charging>
0.00982062

> <r_epik_Ionization_Penalty_Neutral>
6.35787e-06

> <r_epik_State_Penalty>
0.00747828

> <r_epik_Charging_Adjusted_Penalty>
0.0172989

> <i_epik_Tot_Q>
1

> <i_epik_Tot_abs_Q>
1

> <r_epik_Metal_State_Penalty>
0.00747829

> <b_epik_Metal_Only>
0

> <s_lp_Force_Field>
OPLS_2005

> <r_lp_Energy>
23.2089

> <b_lp_Chiralities_Consistent>
1

> <s_lp_Variant>
AV-unprocessed.smi:1087-2

> <Gold.Version>
5.8.1

> <Gold.Id.Protein>
6NUR|6NUR_protein|mol2

> <Gold.PLP.Fitness>
45.3623

> <Gold.PLP.PLP>
-36.7183

> <Gold.PLP.part.hbond>
-1.0000

> <Gold.PLP.part.metal>
0.0000

> <Gold.PLP.part.buried>
-1.6775

> <Gold.PLP.part.nonpolar>
-33.9560

> <Gold.PLP.part.repulsive>
0.2613

> <Gold.PLP.ligand.clash>
0.0000

> <Gold.PLP.ligand.torsion>
0.1651

> <Gold.PLP.Chemscore.Hbond>
2.0000

> <Gold.PLP.Chemscore.CHOScore>
0.9232

> <Gold.PLP.Chemscore.Metal>
0.0000

> <Gold.Chemscore.Hbonds>
donor molecule, donor type, donor heavy atom, donor atom, acceptor molecule, acceptor atom, score
      L1  H     5    47       P1  7948  2.00
      L1  C    15    40       P1  8028  0.06
      L1  C    15    40       P1  8029  0.96

> <Gold.PLP.Chemscore.Internal.Correction>
0.2045

> <Gold.Rescore>
     Score         DG    S(hbond)    S(metal)    S(lipo)     H(rot)  DE(clash)    DE(int)     intcor
     11.04     -12.50       0.98        0.00      85.43       2.45       0.05       1.41       ----

> <Gold.Chemscore.Fitness>
11.0431

> <Gold.Chemscore.DG>
-12.4998

> <Gold.Chemscore.ZeroCoef>
-5.4800

> <Gold.Chemscore.Hbond>
0.9833

> <Gold.Chemscore.Metal>
0.0000

> <Gold.Chemscore.Lipo>
85.4335

> <Gold.Chemscore.Internal_Hbond>
0.0000

> <Gold.Chemscore.DEClash>
0.0495

> <Gold.Chemscore.DEInternal>
1.4072

> <Gold.Chemscore.Rot>
2.4454

> <Gold.Chemscore.Internal.Correction>
   9.000000E+99

> <Gold.Chemscore.Hbonds>
donor molecule, donor type, donor heavy atom, donor atom, acceptor molecule, acceptor atom, score
      L1  H     5    47       P1  7948  0.99

> <Gold.Chemscore.Hbond.Weighted>
-3.2844

> <Gold.Chemscore.Metal.Weighted>
-0.0000

> <Gold.Chemscore.Lipo.Weighted>
-9.9957

> <Gold.Chemscore.Internal_Hbond.Weighted>
0.0000

> <Gold.Chemscore.DEClash.Weighted>
0.0495

> <Gold.Chemscore.DEInternal.Weighted>
1.4072

> <Gold.Chemscore.Rot.Weighted>
6.2603

> <Gold.Chemscore.Internal.Correction.Weighted>
   9.000000E+99

> <Gold.Protein.RotatedTorsions>
[ 6907 6896 6895 6894 ] final   70.08 input  -60.11 | X-H torsion
[ 7974 7965 7964 7962 ] final -175.62 input  175.53 | X-H torsion
[ 8008 7997 7996 7995 ] final   30.33 input   59.86 | X-H torsion
[ 10167 10162 10161 10158 ] final -117.20 input  -65.29 | X-H torsion
[ 10718 10713 10712 10709 ] final   72.35 input   66.30 | X-H torsion
[ 10763 10752 10751 10750 ] final -112.52 input  -60.55 | X-H torsion
[ 11005 11000 10999 10996 ] final   79.54 input  -57.11 | X-H torsion

> <Gold.Protein.ActiveResidues>
 VAL166  LYS551  ARG553  GLY616  TRP617  ASP618  TYR619  PRO620  LYS621  CYS622 
 ASP623  PHE694  ASN695  SER759  ASP760  ASP761  ALA762  ILE779  LEU786  VAL792 
 PHE793  MET794  SER795  GLU796  ALA797  LYS798  CYS799  TRP800  GLU811  SER814 

> <Gold.Protein.RotatedAtoms>
  152.4727  134.4922  159.9698 H   0  0  0  0  0  0  0  0  0  0  0  0  # atno 6907 bound_to 6896
  151.4945  133.3512  159.2866 H   0  0  0  0  0  0  0  0  0  0  0  0  # atno 6908 bound_to 6896
  150.8746  134.8153  159.7241 H   0  0  0  0  0  0  0  0  0  0  0  0  # atno 6909 bound_to 6896
  144.7128  140.1293  143.6400 H   0  0  0  0  0  0  0  0  0  0  0  0  # atno 7974 bound_to 7965
  155.0888  140.3218  155.4580 H   0  0  0  0  0  0  0  0  0  0  0  0  # atno 8008 bound_to 7997
  156.2748  140.2081  156.5961 H   0  0  0  0  0  0  0  0  0  0  0  0  # atno 8009 bound_to 7997
  154.6920  140.0515  157.0360 H   0  0  0  0  0  0  0  0  0  0  0  0  # atno 8010 bound_to 7997
  140.0709  143.4878  152.1980 H   0  0  0  0  0  0  0  0  0  0  0  0  # atno 10167 bound_to 10162
  157.6497  130.9574  150.0917 H   0  0  0  0  0  0  0  0  0  0  0  0  # atno 10718 bound_to 10713
  154.8353  135.4487  154.1207 H   0  0  0  0  0  0  0  0  0  0  0  0  # atno 10763 bound_to 10752
  153.2444  135.6920  153.7754 H   0  0  0  0  0  0  0  0  0  0  0  0  # atno 10764 bound_to 10752
  153.7090  135.3360  155.3218 H   0  0  0  0  0  0  0  0  0  0  0  0  # atno 10765 bound_to 10752
  139.9169  134.7850  156.1792 H   0  0  0  0  0  0  0  0  0  0  0  0  # atno 11005 bound_to 11000
  145.9301  139.2601  143.1330 LP  0  0  0  0  0  0  0  0  0  0  0  0  # atno 17320 bound_to 7965
  145.9532  140.8893  143.0249 LP  0  0  0  0  0  0  0  0  0  0  0  0  # atno 17321 bound_to 7965
  139.5837  144.7521  151.3576 LP  0  0  0  0  0  0  0  0  0  0  0  0  # atno 17342 bound_to 10162
  140.7126  143.7351  150.7595 LP  0  0  0  0  0  0  0  0  0  0  0  0  # atno 17343 bound_to 10162
  156.1864  130.3652  149.8967 LP  0  0  0  0  0  0  0  0  0  0  0  0  # atno 17370 bound_to 10713
  156.6906  130.8894  151.3588 LP  0  0  0  0  0  0  0  0  0  0  0  0  # atno 17371 bound_to 10713
  141.0653  133.6822  156.2032 LP  0  0  0  0  0  0  0  0  0  0  0  0  # atno 17394 bound_to 11000
  140.6596  134.4982  157.5582 LP  0  0  0  0  0  0  0  0  0  0  0  0  # atno 17395 bound_to 11000

$$$$
