AV-unprocessed.smi:72|AV-procd|sdf|753|dock7
  -GOLD-   2262017 93D 1   1.00000     0.00000
 Structure written by MMmdl.
 29 30  0  0  0  0  0  0  0  0  1 V2000
  154.0324  138.9151  159.1781 N   0  0  0  0  0  0  0  0  0  0  0  0
  153.2456  138.9210  158.0452 C   0  0  0  0  0  0  0  0  0  0  0  0
  152.5909  140.1240  157.7477 N   0  0  0  0  0  0  0  0  0  0  0  0
  151.8532  140.1357  156.6828 C   0  0  0  0  0  0  0  0  0  0  0  0
  151.7160  138.9551  155.8464 N   0  0  0  0  0  0  0  0  0  0  0  0
  150.8615  138.9385  154.5899 C   0  0  2  0  0  0  0  0  0  0  0  0
  150.3216  140.2083  154.3593 O   0  0  0  0  0  0  0  0  0  0  0  0
  148.9223  140.2045  154.6274 C   0  0  1  0  0  0  0  0  0  0  0  0
  148.2099  141.3523  153.8910 C   0  0  0  0  0  0  0  0  0  0  0  0
  147.5941  142.2172  154.8214 O   0  0  0  0  0  0  0  0  0  0  0  0
  148.4988  138.7892  154.2154 C   0  0  1  0  0  0  0  0  0  0  0  0
  148.3233  138.6951  152.8131 O   0  0  0  0  0  0  0  0  0  0  0  0
  149.6806  137.9388  154.6622 C   0  0  2  0  0  0  0  0  0  0  0  0
  149.4353  137.4308  155.9625 O   0  0  0  0  0  0  0  0  0  0  0  0
  152.4064  137.7669  156.2120 C   0  0  0  0  0  0  0  0  0  0  0  0
  152.2936  136.7518  155.5247 O   0  0  0  0  0  0  0  0  0  0  0  0
  153.1923  137.8092  157.3696 N   0  0  0  0  0  0  0  0  0  0  0  0
  151.5517  138.7282  153.7713 H   0  0  0  0  0  0  0  0  0  0  0  0
  148.7651  140.2993  155.7033 H   0  0  0  0  0  0  0  0  0  0  0  0
  147.5629  138.4918  154.6906 H   0  0  0  0  0  0  0  0  0  0  0  0
  149.8674  137.0972  153.9938 H   0  0  0  0  0  0  0  0  0  0  0  0
  154.5497  138.1058  159.4894 H   0  0  0  0  0  0  0  0  0  0  0  0
  154.1477  139.7171  159.7804 H   0  0  0  0  0  0  0  0  0  0  0  0
  151.3016  141.0176  156.3576 H   0  0  0  0  0  0  0  0  0  0  0  0
  148.9011  141.9095  153.2579 H   0  0  0  0  0  0  0  0  0  0  0  0
  147.4245  140.9549  153.2474 H   0  0  0  0  0  0  0  0  0  0  0  0
  148.1738  142.9453  154.9854 H   0  0  0  0  0  0  0  0  0  0  0  0
  148.5856  137.8309  152.5353 H   0  0  0  0  0  0  0  0  0  0  0  0
  149.9830  136.6720  156.0946 H   0  0  0  0  0  0  0  0  0  0  0  0
  1  2  1  0  0  0  0
  1 22  1  0  0  0  0
  1 23  1  0  0  0  0
  2 17  2  0  0  0  0
  2  3  1  0  0  0  0
  3  4  2  0  0  0  0
  4  5  1  0  0  0  0
  4 24  1  0  0  0  0
  5  6  1  0  0  0  0
  5 15  1  0  0  0  0
  6 18  1  0  0  0  0
  6 13  1  0  0  0  0
  6  7  1  0  0  0  0
  7  8  1  0  0  0  0
  8 19  1  0  0  0  0
  8  9  1  0  0  0  0
  8 11  1  0  0  0  0
  9 10  1  0  0  0  0
  9 25  1  0  0  0  0
  9 26  1  0  0  0  0
 10 27  1  0  0  0  0
 11 20  1  0  0  0  0
 11 12  1  0  0  0  0
 11 13  1  0  0  0  0
 12 28  1  0  0  0  0
 13 21  1  0  0  0  0
 13 14  1  0  0  0  0
 14 29  1  0  0  0  0
 15 16  2  0  0  0  0
 15 17  1  0  0  0  0
M  END
> <s_m_source_file>
AV-unprocessed.smi

> <i_m_source_file_index>
72

> <i_lp_mmshare_version>
43012

> <i_f3d_flags>
0

> <s_epik_input>
W05IMl1jMW5bY0hdbihjKD1PKW4xKVtDQEBIXTJPW0NASF0oW0NIMl1bT0hdKVtDQEBIXShbT0hdKVtDQEhdMltPSF0=

> <s_epik_cmdline>
J2VwaWtfcHl0aG9uJywgJy1waCcsICc3LjAnLCAnLXRuJywgJzgnLCAnLW1hJywgJzIwMCcsICctbWV0YWxfYmluZGluZycsICctaW1hZScsICc8aW5maWxlLm1hZT4nLCAnLW9tYWUnLCAnPG91dGZpbGUubWFlPic=

> <r_lp_tautomer_probability>
4.77166e-05

> <r_epik_Ionization_Penalty>
1.3546

> <r_epik_Ionization_Penalty_Charging>
1.46833e-10

> <r_epik_Ionization_Penalty_Neutral>
1.3546

> <r_epik_State_Penalty>
3.51908

> <r_epik_Charging_Adjusted_Penalty>
3.51908

> <i_epik_Tot_Q>
0

> <i_epik_Tot_abs_Q>
0

> <r_epik_Metal_State_Penalty>
3.44088

> <b_epik_Metal_Only>
1

> <s_epik_Chemistry_Notes>
This compound contains an acetal/aminal-like group ( X-CH(R)-Y where X, Y are N, S, or O) that may be acid/base labile, releasing an aldehyde.

> <s_lp_Force_Field>
OPLS_2005

> <r_lp_Energy>
33.7938

> <b_lp_Chiralities_Consistent>
1

> <s_lp_Variant>
AV-unprocessed.smi:72-91

> <Gold.Version>
5.8.1

> <Gold.Id.Protein>
6NUR|6NUR_protein|mol2

> <Gold.PLP.Fitness>
35.2221

> <Gold.PLP.PLP>
-24.7010

> <Gold.PLP.part.hbond>
-5.7472

> <Gold.PLP.part.metal>
0.0000

> <Gold.PLP.part.buried>
-2.6695

> <Gold.PLP.part.nonpolar>
-16.5907

> <Gold.PLP.part.repulsive>
0.2310

> <Gold.PLP.ligand.clash>
0.0000

> <Gold.PLP.ligand.torsion>
0.7633

> <Gold.PLP.Chemscore.Hbond>
4.0000

> <Gold.PLP.Chemscore.CHOScore>
0.0000

> <Gold.PLP.Chemscore.Metal>
0.0000

> <Gold.Chemscore.Hbonds>
donor molecule, donor type, donor heavy atom, donor atom, acceptor molecule, acceptor atom, score
      L1  H    10    27       P1  8028  1.00
      L1  H    12    28       P1  7948  1.00
      P1  H  7989  7998       L1     7  0.95
      P1  H 10752 10765       L1    16  0.93

> <Gold.PLP.Chemscore.Internal.Correction>
0.0477

> <Gold.Rescore>
     Score         DG    S(hbond)    S(metal)    S(lipo)     H(rot)  DE(clash)    DE(int)     intcor
      9.47     -10.68       3.82        0.00      24.09       4.06       0.32       0.89       ----

> <Gold.Chemscore.Fitness>
9.4706

> <Gold.Chemscore.DG>
-10.6799

> <Gold.Chemscore.ZeroCoef>
-5.4800

> <Gold.Chemscore.Hbond>
3.8250

> <Gold.Chemscore.Metal>
0.0000

> <Gold.Chemscore.Lipo>
24.0859

> <Gold.Chemscore.Internal_Hbond>
0.0000

> <Gold.Chemscore.DEClash>
0.3205

> <Gold.Chemscore.DEInternal>
0.8888

> <Gold.Chemscore.Rot>
4.0600

> <Gold.Chemscore.Internal.Correction>
   9.000000E+99

> <Gold.Chemscore.Hbonds>
donor molecule, donor type, donor heavy atom, donor atom, acceptor molecule, acceptor atom, score
      L1  H    10    27       P1  8028  0.94
      L1  H    12    28       P1  7948  1.00
      P1  H  7989  7998       L1     7  0.21
      P1  H 10752 10765       L1    16  0.88

> <Gold.Chemscore.Hbond.Weighted>
-12.7755

> <Gold.Chemscore.Metal.Weighted>
-0.0000

> <Gold.Chemscore.Lipo.Weighted>
-2.8180

> <Gold.Chemscore.Internal_Hbond.Weighted>
0.0000

> <Gold.Chemscore.DEClash.Weighted>
0.3205

> <Gold.Chemscore.DEInternal.Weighted>
0.8888

> <Gold.Chemscore.Rot.Weighted>
10.3936

> <Gold.Chemscore.Internal.Correction.Weighted>
   9.000000E+99

> <Gold.Protein.RotatedTorsions>
[ 6907 6896 6895 6894 ] final   35.75 input  -60.11 | X-H torsion
[ 7974 7965 7964 7962 ] final   66.81 input  175.53 | X-H torsion
[ 8008 7997 7996 7995 ] final  161.31 input   59.86 | X-H torsion
[ 10167 10162 10161 10158 ] final  -56.35 input  -65.29 | X-H torsion
[ 10718 10713 10712 10709 ] final -163.51 input   66.30 | X-H torsion
[ 10763 10752 10751 10750 ] final -155.89 input  -60.55 | X-H torsion
[ 11005 11000 10999 10996 ] final -114.87 input  -57.11 | X-H torsion

> <Gold.Protein.ActiveResidues>
 VAL166  LYS551  ARG553  GLY616  TRP617  ASP618  TYR619  PRO620  LYS621  CYS622 
 ASP623  PHE694  ASN695  SER759  ASP760  ASP761  ALA762  ILE779  LEU786  VAL792 
 PHE793  MET794  SER795  GLU796  ALA797  LYS798  CYS799  TRP800  GLU811  SER814 

> <Gold.Protein.RotatedAtoms>
  152.1203  134.9210  160.0563 H   0  0  0  0  0  0  0  0  0  0  0  0  # atno 6907 bound_to 6896
  152.0353  133.3949  159.4322 H   0  0  0  0  0  0  0  0  0  0  0  0  # atno 6908 bound_to 6896
  150.6849  134.3396  159.4906 H   0  0  0  0  0  0  0  0  0  0  0  0  # atno 6909 bound_to 6896
  145.8222  139.3091  143.1036 H   0  0  0  0  0  0  0  0  0  0  0  0  # atno 7974 bound_to 7965
  156.2112  140.1781  156.7690 H   0  0  0  0  0  0  0  0  0  0  0  0  # atno 8008 bound_to 7997
  154.5725  140.0680  156.9015 H   0  0  0  0  0  0  0  0  0  0  0  0  # atno 8009 bound_to 7997
  155.2647  140.3338  155.4272 H   0  0  0  0  0  0  0  0  0  0  0  0  # atno 8010 bound_to 7997
  140.6322  143.2465  151.5211 H   0  0  0  0  0  0  0  0  0  0  0  0  # atno 10167 bound_to 10162
  156.6257  130.8909  151.2967 H   0  0  0  0  0  0  0  0  0  0  0  0  # atno 10718 bound_to 10713
  154.7753  135.3157  154.8104 H   0  0  0  0  0  0  0  0  0  0  0  0  # atno 10763 bound_to 10752
  153.8829  135.6833  153.4770 H   0  0  0  0  0  0  0  0  0  0  0  0  # atno 10764 bound_to 10752
  153.1376  135.4753  154.9381 H   0  0  0  0  0  0  0  0  0  0  0  0  # atno 10765 bound_to 10752
  141.0524  133.9666  157.2813 H   0  0  0  0  0  0  0  0  0  0  0  0  # atno 11005 bound_to 11000
  145.9662  140.8796  143.0185 LP  0  0  0  0  0  0  0  0  0  0  0  0  # atno 17320 bound_to 7965
  144.6746  140.1882  143.7399 LP  0  0  0  0  0  0  0  0  0  0  0  0  # atno 17321 bound_to 7965
  139.5535  144.2334  152.1572 LP  0  0  0  0  0  0  0  0  0  0  0  0  # atno 17342 bound_to 10162
  140.1581  144.5051  150.6648 LP  0  0  0  0  0  0  0  0  0  0  0  0  # atno 17343 bound_to 10162
  157.7214  130.9564  150.1456 LP  0  0  0  0  0  0  0  0  0  0  0  0  # atno 17370 bound_to 10713
  156.2275  130.3679  149.8483 LP  0  0  0  0  0  0  0  0  0  0  0  0  # atno 17371 bound_to 10713
  139.9362  135.0196  156.8562 LP  0  0  0  0  0  0  0  0  0  0  0  0  # atno 17394 bound_to 11000
  140.6029  134.0155  155.7544 LP  0  0  0  0  0  0  0  0  0  0  0  0  # atno 17395 bound_to 11000

$$$$
