AV-unprocessed.smi:290|AV-procd|sdf|2241|dock5
  -GOLD-   2262022113D 1   1.00000     0.00000
 Structure written by MMmdl.
 59 62  0  0  0  0  0  0  0  0  2 V2000
  151.8946  145.6388  159.6903 C   0  0  0  0  0  0  0  0  0  0  0  0
  151.9710  144.3880  158.7996 C   0  0  2  0  0  0  0  0  0  0  0  0
  150.7454  144.1878  158.1111 O   0  0  0  0  0  0  0  0  0  0  0  0
  150.7541  142.8554  157.6314 C   0  0  0  0  0  0  0  0  0  0  0  0
  151.2847  142.0696  158.8247 C   0  0  0  0  0  0  0  0  0  0  0  0
  152.2625  143.0357  159.5017 C   0  0  2  0  0  0  0  0  0  0  0  0
  151.9463  143.0855  160.8832 O   0  0  0  0  0  0  0  0  0  0  0  0
  153.7327  142.5711  159.3553 C   0  0  0  0  0  0  0  0  0  0  0  0
  154.0867  141.4625  160.2297 N   0  0  0  0  0  0  0  0  0  0  0  0
  154.4564  141.5439  161.5520 C   0  0  0  0  0  0  0  0  0  0  0  0
  154.7305  140.4034  162.1224 N   0  0  0  0  0  0  0  0  0  0  0  0
  154.5145  139.4549  161.1280 C   0  0  0  0  0  0  0  0  0  0  0  0
  154.6151  138.0323  161.0558 C   0  0  0  0  0  0  0  0  0  0  0  0
  154.9684  137.2159  162.0840 N   0  0  0  0  0  0  0  0  0  0  0  0
  155.0960  137.7105  163.4428 C   0  0  0  0  0  0  0  0  0  0  0  0
  154.7349  136.5150  164.3139 C   0  0  0  0  0  0  0  0  0  0  0  0
  155.2088  135.2984  163.5008 C   0  0  1  0  0  0  0  0  0  0  0  0
  154.4920  134.0425  163.8903 N   0  3  2  0  0  0  0  0  0  0  0  0
  154.6326  133.7621  165.3435 C   0  0  0  0  0  0  0  0  0  0  0  0
  154.8250  132.8547  163.0514 C   0  0  0  0  0  0  0  0  0  0  0  0
  154.1259  131.5544  163.4926 C   0  0  0  0  0  0  0  0  0  0  0  0
  154.4146  130.5120  162.5849 O   0  0  0  0  0  0  0  0  0  0  0  0
  155.0123  135.7577  162.0298 C   0  0  2  0  0  0  0  0  0  0  0  0
  156.1600  135.2918  161.1064 C   0  0  0  0  0  0  0  0  0  0  0  0
  154.3314  137.4506  159.8610 N   0  0  0  0  0  0  0  0  0  0  0  0
  153.9608  138.1911  158.8135 C   0  0  0  0  0  0  0  0  0  0  0  0
  153.8143  139.5138  158.7399 N   0  0  0  0  0  0  0  0  0  0  0  0
  154.1097  140.1114  159.9289 C   0  0  0  0  0  0  0  0  0  0  0  0
  156.2764  135.1635  163.6855 H   0  0  0  0  0  0  0  0  0  0  0  0
  154.0470  135.4056  161.6681 H   0  0  0  0  0  0  0  0  0  0  0  0
  152.8264  145.7932  160.2347 H   0  0  0  0  0  0  0  0  0  0  0  0
  151.0848  145.5662  160.4168 H   0  0  0  0  0  0  0  0  0  0  0  0
  151.7138  146.5290  159.0878 H   0  0  0  0  0  0  0  0  0  0  0  0
  152.7205  144.5606  158.0267 H   0  0  0  0  0  0  0  0  0  0  0  0
  149.7611  142.5308  157.3198 H   0  0  0  0  0  0  0  0  0  0  0  0
  151.4289  142.7744  156.7776 H   0  0  0  0  0  0  0  0  0  0  0  0
  150.4500  141.8284  159.4855 H   0  0  0  0  0  0  0  0  0  0  0  0
  151.7418  141.1260  158.5249 H   0  0  0  0  0  0  0  0  0  0  0  0
  152.7359  142.9220  161.3755 H   0  0  0  0  0  0  0  0  0  0  0  0
  153.9316  142.2677  158.3265 H   0  0  0  0  0  0  0  0  0  0  0  0
  154.4102  143.4006  159.5614 H   0  0  0  0  0  0  0  0  0  0  0  0
  154.5232  142.4834  162.0817 H   0  0  0  0  0  0  0  0  0  0  0  0
  156.1270  138.0225  163.6130 H   0  0  0  0  0  0  0  0  0  0  0  0
  154.4396  138.5576  163.6466 H   0  0  0  0  0  0  0  0  0  0  0  0
  155.1924  136.5834  165.3010 H   0  0  0  0  0  0  0  0  0  0  0  0
  153.6521  136.4799  164.4452 H   0  0  0  0  0  0  0  0  0  0  0  0
  155.6574  133.4797  165.5879 H   0  0  0  0  0  0  0  0  0  0  0  0
  153.9698  132.9615  165.6670 H   0  0  0  0  0  0  0  0  0  0  0  0
  154.3674  134.6246  165.9533 H   0  0  0  0  0  0  0  0  0  0  0  0
  154.5224  133.0256  162.0202 H   0  0  0  0  0  0  0  0  0  0  0  0
  155.9063  132.7109  163.0442 H   0  0  0  0  0  0  0  0  0  0  0  0
  154.4983  131.2588  164.4739 H   0  0  0  0  0  0  0  0  0  0  0  0
  153.0486  131.6714  163.6018 H   0  0  0  0  0  0  0  0  0  0  0  0
  155.1943  130.0641  162.8778 H   0  0  0  0  0  0  0  0  0  0  0  0
  156.2545  134.2082  161.0715 H   0  0  0  0  0  0  0  0  0  0  0  0
  157.1180  135.6874  161.4457 H   0  0  0  0  0  0  0  0  0  0  0  0
  156.0188  135.6318  160.0811 H   0  0  0  0  0  0  0  0  0  0  0  0
  153.7507  137.6457  157.9054 H   0  0  0  0  0  0  0  0  0  0  0  0
  153.5115  134.2220  163.7261 H   0  0  0  0  0  0  0  0  0  0  0  0
  1  2  1  0  0  0  0
  1 31  1  0  0  0  0
  1 32  1  0  0  0  0
  1 33  1  0  0  0  0
  2  6  1  0  0  0  0
  2  3  1  0  0  0  0
  2 34  1  0  0  0  0
  3  4  1  0  0  0  0
  4  5  1  0  0  0  0
  4 35  1  0  0  0  0
  4 36  1  0  0  0  0
  5  6  1  0  0  0  0
  5 37  1  0  0  0  0
  5 38  1  0  0  0  0
  6  7  1  0  0  0  0
  6  8  1  0  0  0  0
  7 39  1  0  0  0  0
  8  9  1  0  0  0  0
  8 40  1  0  0  0  0
  8 41  1  0  0  0  0
  9 28  1  0  0  0  0
  9 10  1  0  0  0  0
 10 11  2  0  0  0  0
 10 42  1  0  0  0  0
 11 12  1  0  0  0  0
 12 28  2  0  0  0  0
 12 13  1  0  0  0  0
 13 14  1  0  0  0  0
 13 25  2  0  0  0  0
 14 23  1  0  0  0  0
 14 15  1  0  0  0  0
 15 16  1  0  0  0  0
 15 43  1  0  0  0  0
 15 44  1  0  0  0  0
 16 17  1  0  0  0  0
 16 45  1  0  0  0  0
 16 46  1  0  0  0  0
 17 29  1  0  0  0  0
 17 18  1  0  0  0  0
 17 23  1  0  0  0  0
 18 19  1  0  0  0  0
 18 20  1  0  0  0  0
 18 59  1  0  0  0  0
 19 47  1  0  0  0  0
 19 48  1  0  0  0  0
 19 49  1  0  0  0  0
 20 21  1  0  0  0  0
 20 50  1  0  0  0  0
 20 51  1  0  0  0  0
 21 22  1  0  0  0  0
 21 52  1  0  0  0  0
 21 53  1  0  0  0  0
 22 54  1  0  0  0  0
 23 30  1  0  0  0  0
 23 24  1  0  0  0  0
 24 55  1  0  0  0  0
 24 56  1  0  0  0  0
 24 57  1  0  0  0  0
 25 26  1  0  0  0  0
 26 27  2  0  0  0  0
 26 58  1  0  0  0  0
 27 28  1  0  0  0  0
M  CHG  1  18   1
M  END
> <s_m_source_file>
AV-unprocessed.smi

> <i_m_source_file_index>
290

> <i_lp_mmshare_version>
43012

> <i_f3d_flags>
0

> <s_epik_input>
W0NIMl0xW0NIMl1PW0NAQEhdKFtDSDNdKVtDQEBdMShbT0hdKVtDSDJdbihbY0hdbjIpYyhjMjMpbltjSF1uYzNONFtDSDJdW0NIMl1bQ0BIXShbQ0BIXTRbQ0gzXSlOKFtDSDNdKVtDSDJdW0NIMl1bT0hd

> <s_epik_cmdline>
J2VwaWtfcHl0aG9uJywgJy1waCcsICc3LjAnLCAnLXRuJywgJzgnLCAnLW1hJywgJzIwMCcsICctbWV0YWxfYmluZGluZycsICctaW1hZScsICc8aW5maWxlLm1hZT4nLCAnLW9tYWUnLCAnPG91dGZpbGUubWFlPic=

> <r_lp_tautomer_probability>
1

> <r_epik_Ionization_Penalty>
0.0036983

> <r_epik_Ionization_Penalty_Charging>
0.0032725

> <r_epik_Ionization_Penalty_Neutral>
0.000425798

> <r_epik_State_Penalty>
-0

> <r_epik_Charging_Adjusted_Penalty>
0.0032725

> <i_epik_Tot_Q>
1

> <i_epik_Tot_abs_Q>
1

> <r_epik_Metal_State_Penalty>
-0

> <b_epik_Metal_Only>
0

> <s_lp_Force_Field>
OPLS_2005

> <r_lp_Energy>
64.4963

> <b_lp_Chiralities_Consistent>
1

> <s_lp_Variant>
AV-unprocessed.smi:290-27

> <Gold.Version>
5.8.1

> <Gold.Id.Protein>
6NUR|6NUR_protein|mol2

> <Gold.PLP.Fitness>
55.9962

> <Gold.PLP.PLP>
-53.9649

> <Gold.PLP.part.hbond>
-1.9138

> <Gold.PLP.part.metal>
0.0000

> <Gold.PLP.part.buried>
-4.6700

> <Gold.PLP.part.nonpolar>
-47.9049

> <Gold.PLP.part.repulsive>
0.3013

> <Gold.PLP.ligand.clash>
0.0000

> <Gold.PLP.ligand.torsion>
0.5656

> <Gold.PLP.Chemscore.Hbond>
1.0000

> <Gold.PLP.Chemscore.CHOScore>
0.0000

> <Gold.PLP.Chemscore.Metal>
0.0000

> <Gold.Chemscore.Hbonds>
donor molecule, donor type, donor heavy atom, donor atom, acceptor molecule, acceptor atom, score
      P1  H  7997  8010       L1    27  1.00

> <Gold.PLP.Chemscore.Internal.Correction>
0.1624

> <Gold.Rescore>
     Score         DG    S(hbond)    S(metal)    S(lipo)     H(rot)  DE(clash)    DE(int)     intcor
     13.02     -14.58       0.93        0.00     124.48       3.35       0.17       1.39       ----

> <Gold.Chemscore.Fitness>
13.0180

> <Gold.Chemscore.DG>
-14.5776

> <Gold.Chemscore.ZeroCoef>
-5.4800

> <Gold.Chemscore.Hbond>
0.9324

> <Gold.Chemscore.Metal>
0.0000

> <Gold.Chemscore.Lipo>
124.4794

> <Gold.Chemscore.Internal_Hbond>
0.0000

> <Gold.Chemscore.DEClash>
0.1724

> <Gold.Chemscore.DEInternal>
1.3872

> <Gold.Chemscore.Rot>
3.3518

> <Gold.Chemscore.Internal.Correction>
   9.000000E+99

> <Gold.Chemscore.Hbonds>
donor molecule, donor type, donor heavy atom, donor atom, acceptor molecule, acceptor atom, score
      P1  H  7997  8010       L1    27  0.42

> <Gold.Chemscore.Hbond.Weighted>
-3.1141

> <Gold.Chemscore.Metal.Weighted>
-0.0000

> <Gold.Chemscore.Lipo.Weighted>
-14.5641

> <Gold.Chemscore.Internal_Hbond.Weighted>
0.0000

> <Gold.Chemscore.DEClash.Weighted>
0.1724

> <Gold.Chemscore.DEInternal.Weighted>
1.3872

> <Gold.Chemscore.Rot.Weighted>
8.5806

> <Gold.Chemscore.Internal.Correction.Weighted>
   9.000000E+99

> <Gold.Protein.RotatedTorsions>
[ 6907 6896 6895 6894 ] final  -74.36 input  -60.11 | X-H torsion
[ 7974 7965 7964 7962 ] final   44.94 input  175.53 | X-H torsion
[ 8008 7997 7996 7995 ] final   14.14 input   59.86 | X-H torsion
[ 10167 10162 10161 10158 ] final   21.46 input  -65.29 | X-H torsion
[ 10718 10713 10712 10709 ] final  -33.49 input   66.30 | X-H torsion
[ 10763 10752 10751 10750 ] final  147.73 input  -60.55 | X-H torsion
[ 11005 11000 10999 10996 ] final -155.87 input  -57.11 | X-H torsion

> <Gold.Protein.ActiveResidues>
 VAL166  LYS551  ARG553  GLY616  TRP617  ASP618  TYR619  PRO620  LYS621  CYS622 
 ASP623  PHE694  ASN695  SER759  ASP760  ASP761  ALA762  ILE779  LEU786  VAL792 
 PHE793  MET794  SER795  GLU796  ALA797  LYS798  CYS799  TRP800  GLU811  SER814 

> <Gold.Protein.RotatedAtoms>
  150.7096  134.4880  159.5501 H   0  0  0  0  0  0  0  0  0  0  0  0  # atno 6907 bound_to 6896
  152.2503  134.8136  160.0456 H   0  0  0  0  0  0  0  0  0  0  0  0  # atno 6908 bound_to 6896
  151.8886  133.3476  159.3827 H   0  0  0  0  0  0  0  0  0  0  0  0  # atno 6909 bound_to 6896
  146.0524  139.5019  142.9710 H   0  0  0  0  0  0  0  0  0  0  0  0  # atno 7974 bound_to 7965
  154.8443  140.2919  155.5639 H   0  0  0  0  0  0  0  0  0  0  0  0  # atno 8008 bound_to 7997
  156.3013  140.2508  156.3322 H   0  0  0  0  0  0  0  0  0  0  0  0  # atno 8009 bound_to 7997
  154.9091  140.0389  157.1925 H   0  0  0  0  0  0  0  0  0  0  0  0  # atno 8010 bound_to 7997
  140.5425  143.9652  150.6528 H   0  0  0  0  0  0  0  0  0  0  0  0  # atno 10167 bound_to 10162
  156.3620  130.4325  149.7616 H   0  0  0  0  0  0  0  0  0  0  0  0  # atno 10718 bound_to 10713
  154.0431  135.2888  155.3352 H   0  0  0  0  0  0  0  0  0  0  0  0  # atno 10763 bound_to 10752
  154.6917  135.5224  153.8404 H   0  0  0  0  0  0  0  0  0  0  0  0  # atno 10764 bound_to 10752
  153.0592  135.6607  154.0633 H   0  0  0  0  0  0  0  0  0  0  0  0  # atno 10765 bound_to 10752
  140.6818  134.4137  157.5226 H   0  0  0  0  0  0  0  0  0  0  0  0  # atno 11005 bound_to 11000
  145.6702  141.0218  143.1662 LP  0  0  0  0  0  0  0  0  0  0  0  0  # atno 17320 bound_to 7965
  144.7129  139.8301  143.7408 LP  0  0  0  0  0  0  0  0  0  0  0  0  # atno 17321 bound_to 7965
  140.3056  143.3231  152.0929 LP  0  0  0  0  0  0  0  0  0  0  0  0  # atno 17342 bound_to 10162
  139.4994  144.6669  151.6335 LP  0  0  0  0  0  0  0  0  0  0  0  0  # atno 17343 bound_to 10162
  156.4776  130.8026  151.3041 LP  0  0  0  0  0  0  0  0  0  0  0  0  # atno 17370 bound_to 10713
  157.7474  131.0016  150.2969 LP  0  0  0  0  0  0  0  0  0  0  0  0  # atno 17371 bound_to 10713
  139.8949  134.8694  156.2154 LP  0  0  0  0  0  0  0  0  0  0  0  0  # atno 17394 bound_to 11000
  141.0312  133.6988  156.1433 LP  0  0  0  0  0  0  0  0  0  0  0  0  # atno 17395 bound_to 11000

$$$$
