AV-unprocessed.smi:1715|AV-procd|sdf|6913|dock2
  -GOLD-   22720 8113D 1   1.00000     0.00000
 Structure written by MMmdl.
 41 42  0  0  0  0  0  0  0  0  2 V2000
  148.3134  141.7285  154.8260 C   0  0  0  0  0  0  0  0  0  0  0  0
  146.8875  141.1781  154.7134 C   0  0  1  0  0  0  0  0  0  0  0  0
  146.8550  139.7662  154.0989 C   0  0  0  0  0  0  0  0  0  0  0  0
  145.4696  139.2395  154.0748 N   0  3  1  0  0  0  0  0  0  0  0  0
  145.3866  137.9036  153.4333 C   0  0  0  0  0  0  0  0  0  0  0  0
  146.2335  137.8099  152.1490 C   0  0  0  0  0  0  0  0  0  0  0  0
  146.4232  136.4251  151.7322 N   0  0  0  0  0  0  0  0  0  0  0  0
  145.4390  135.5966  151.3548 C   0  0  0  0  0  0  0  0  0  0  0  0
  144.2521  135.9227  151.3271 O   0  0  0  0  0  0  0  0  0  0  0  0
  145.9172  134.3869  151.0203 N   0  0  0  0  0  0  0  0  0  0  0  0
  145.1758  133.2595  150.5841 C   0  0  0  0  0  0  0  0  0  0  0  0
  145.7333  131.9817  150.3076 C   0  0  0  0  0  0  0  0  0  0  0  0
  144.8027  131.1212  149.9206 N   0  0  0  0  0  0  0  0  0  0  0  0
  143.6562  131.8373  149.9480 N   0  0  0  0  0  0  0  0  0  0  0  0
  143.8351  133.1440  150.3451 C   0  0  0  0  0  0  0  0  0  0  0  0
  144.8802  139.2830  155.4359 C   0  0  0  0  0  0  0  0  0  0  0  0
  144.9676  140.7072  156.0173 C   0  0  1  0  0  0  0  0  0  0  0  0
  144.4442  140.7785  157.4558 C   0  0  0  0  0  0  0  0  0  0  0  0
  146.3274  141.1269  156.0206 O   0  0  0  0  0  0  0  0  0  0  0  0
  142.7693  131.4243  149.6961 H   0  0  0  0  0  0  0  0  0  0  0  0
  148.7863  141.7990  153.8462 H   0  0  0  0  0  0  0  0  0  0  0  0
  148.9358  141.0898  155.4533 H   0  0  0  0  0  0  0  0  0  0  0  0
  148.3119  142.7261  155.2657 H   0  0  0  0  0  0  0  0  0  0  0  0
  146.3002  141.8616  154.0976 H   0  0  0  0  0  0  0  0  0  0  0  0
  147.2547  139.7990  153.0844 H   0  0  0  0  0  0  0  0  0  0  0  0
  147.4905  139.0891  154.6727 H   0  0  0  0  0  0  0  0  0  0  0  0
  145.7502  137.1497  154.1332 H   0  0  0  0  0  0  0  0  0  0  0  0
  144.3415  137.6602  153.2348 H   0  0  0  0  0  0  0  0  0  0  0  0
  145.7805  138.3673  151.3285 H   0  0  0  0  0  0  0  0  0  0  0  0
  147.2165  138.2503  152.3185 H   0  0  0  0  0  0  0  0  0  0  0  0
  147.3703  136.0750  151.7240 H   0  0  0  0  0  0  0  0  0  0  0  0
  146.9163  134.2565  151.0840 H   0  0  0  0  0  0  0  0  0  0  0  0
  146.7611  131.6562  150.3734 H   0  0  0  0  0  0  0  0  0  0  0  0
  143.0156  133.8434  150.4178 H   0  0  0  0  0  0  0  0  0  0  0  0
  143.8367  138.9711  155.4083 H   0  0  0  0  0  0  0  0  0  0  0  0
  145.4062  138.5790  156.0832 H   0  0  0  0  0  0  0  0  0  0  0  0
  144.3821  141.3925  155.4014 H   0  0  0  0  0  0  0  0  0  0  0  0
  143.3972  140.4792  157.5085 H   0  0  0  0  0  0  0  0  0  0  0  0
  144.5194  141.7932  157.8473 H   0  0  0  0  0  0  0  0  0  0  0  0
  145.0138  140.1241  158.1163 H   0  0  0  0  0  0  0  0  0  0  0  0
  144.9350  139.8735  153.4981 H   0  0  0  0  0  0  0  0  0  0  0  0
  1  2  1  0  0  0  0
  1 21  1  0  0  0  0
  1 22  1  0  0  0  0
  1 23  1  0  0  0  0
  2 19  1  0  0  0  0
  2  3  1  0  0  0  0
  2 24  1  0  0  0  0
  3  4  1  0  0  0  0
  3 25  1  0  0  0  0
  3 26  1  0  0  0  0
  4  5  1  0  0  0  0
  4 16  1  0  0  0  0
  4 41  1  0  0  0  0
  5  6  1  0  0  0  0
  5 27  1  0  0  0  0
  5 28  1  0  0  0  0
  6  7  1  0  0  0  0
  6 29  1  0  0  0  0
  6 30  1  0  0  0  0
  7  8  1  0  0  0  0
  7 31  1  0  0  0  0
  8  9  2  0  0  0  0
  8 10  1  0  0  0  0
 10 11  1  0  0  0  0
 10 32  1  0  0  0  0
 11 15  2  0  0  0  0
 11 12  1  0  0  0  0
 12 13  2  0  0  0  0
 12 33  1  0  0  0  0
 13 14  1  0  0  0  0
 14 20  1  0  0  0  0
 14 15  1  0  0  0  0
 15 34  1  0  0  0  0
 16 17  1  0  0  0  0
 16 35  1  0  0  0  0
 16 36  1  0  0  0  0
 17 18  1  0  0  0  0
 17 19  1  0  0  0  0
 17 37  1  0  0  0  0
 18 38  1  0  0  0  0
 18 39  1  0  0  0  0
 18 40  1  0  0  0  0
M  CHG  1   4   1
M  END
> <s_m_source_file>
AV-unprocessed.smi

> <i_m_source_file_index>
1715

> <i_lp_mmshare_version>
43012

> <i_f3d_flags>
0

> <s_epik_input>
W0NIM11bQ0BASF0xW0NIMl1OKFtDSDJdW0NASF0oTzEpW0NIM10pW0NIMl1bQ0gyXVtOSF1DKD1PKVtOSF1jMltjSF1uW25IXVtjSF0y

> <s_epik_cmdline>
J2VwaWtfcHl0aG9uJywgJy1waCcsICc3LjAnLCAnLXRuJywgJzgnLCAnLW1hJywgJzIwMCcsICctbWV0YWxfYmluZGluZycsICctaW1hZScsICc8aW5maWxlLm1hZT4nLCAnLW9tYWUnLCAnPG91dGZpbGUubWFlPic=

> <r_lp_tautomer_probability>
0.5

> <r_epik_Ionization_Penalty>
0.646007

> <r_epik_Ionization_Penalty_Charging>
0.645968

> <r_epik_Ionization_Penalty_Neutral>
3.91671e-05

> <r_epik_State_Penalty>
0.664063

> <r_epik_Charging_Adjusted_Penalty>
1.31003

> <i_epik_Tot_Q>
1

> <i_epik_Tot_abs_Q>
1

> <r_epik_Metal_State_Penalty>
0.664064

> <b_epik_Metal_Only>
0

> <s_lp_Force_Field>
OPLS_2005

> <r_lp_Energy>
16.9027

> <b_lp_Chiralities_Consistent>
1

> <s_lp_Variant>
AV-unprocessed.smi:1715-5

> <Gold.Version>
5.8.1

> <Gold.Id.Protein>
6NUR|6NUR_protein|mol2

> <Gold.PLP.Fitness>
41.0447

> <Gold.PLP.PLP>
-23.5643

> <Gold.PLP.part.hbond>
-3.8879

> <Gold.PLP.part.metal>
0.0000

> <Gold.PLP.part.buried>
0.4791

> <Gold.PLP.part.nonpolar>
-21.0170

> <Gold.PLP.part.repulsive>
0.6340

> <Gold.PLP.ligand.clash>
0.0000

> <Gold.PLP.ligand.torsion>
0.1613

> <Gold.PLP.Chemscore.Hbond>
3.9263

> <Gold.PLP.Chemscore.CHOScore>
2.0000

> <Gold.PLP.Chemscore.Metal>
0.0000

> <Gold.Chemscore.Hbonds>
donor molecule, donor type, donor heavy atom, donor atom, acceptor molecule, acceptor atom, score
      L1  H     4    41       P1 10175  2.00
      L1  H     7    31       P1  7948  1.00
      L1  H    14    20       P1 10952  0.50
      L1  C    12    33       P1 10747  1.00
      L1  C    15    34       P1 10186  1.00

> <Gold.PLP.Chemscore.Internal.Correction>
0.0242

> <Gold.Rescore>
     Score         DG    S(hbond)    S(metal)    S(lipo)     H(rot)  DE(clash)    DE(int)     intcor
     14.69     -17.78       2.87        0.00      59.66       1.67       1.76       1.33       ----

> <Gold.Chemscore.Fitness>
14.6929

> <Gold.Chemscore.DG>
-17.7843

> <Gold.Chemscore.ZeroCoef>
-5.4800

> <Gold.Chemscore.Hbond>
2.8719

> <Gold.Chemscore.Metal>
0.0000

> <Gold.Chemscore.Lipo>
59.6579

> <Gold.Chemscore.Internal_Hbond>
0.0000

> <Gold.Chemscore.DEClash>
1.7622

> <Gold.Chemscore.DEInternal>
1.3292

> <Gold.Chemscore.Rot>
1.6671

> <Gold.Chemscore.Internal.Correction>
   9.000000E+99

> <Gold.Chemscore.Hbonds>
donor molecule, donor type, donor heavy atom, donor atom, acceptor molecule, acceptor atom, score
      L1  H     4    41       P1 10175  1.00
      L1  H     7    31       P1  7948  0.95
      L1  H    14    20       P1 10952  0.50

> <Gold.Chemscore.Hbond.Weighted>
-9.5920

> <Gold.Chemscore.Metal.Weighted>
-0.0000

> <Gold.Chemscore.Lipo.Weighted>
-6.9800

> <Gold.Chemscore.Internal_Hbond.Weighted>
0.0000

> <Gold.Chemscore.DEClash.Weighted>
1.7622

> <Gold.Chemscore.DEInternal.Weighted>
1.3292

> <Gold.Chemscore.Rot.Weighted>
4.2677

> <Gold.Chemscore.Internal.Correction.Weighted>
   9.000000E+99

> <Gold.Protein.RotatedTorsions>
[ 6907 6896 6895 6894 ] final  -16.65 input  -60.11 | X-H torsion
[ 7974 7965 7964 7962 ] final  -33.28 input  175.53 | X-H torsion
[ 8008 7997 7996 7995 ] final   -2.93 input   59.86 | X-H torsion
[ 10167 10162 10161 10158 ] final -161.31 input  -65.29 | X-H torsion
[ 10718 10713 10712 10709 ] final  -47.96 input   66.30 | X-H torsion
[ 10763 10752 10751 10750 ] final  -76.99 input  -60.55 | X-H torsion
[ 11005 11000 10999 10996 ] final  177.27 input  -57.11 | X-H torsion

> <Gold.Protein.ActiveResidues>
 VAL166  LYS551  ARG553  GLY616  TRP617  ASP618  TYR619  PRO620  LYS621  CYS622 
 ASP623  PHE694  ASN695  SER759  ASP760  ASP761  ALA762  ILE779  LEU786  VAL792 
 PHE793  MET794  SER795  GLU796  ALA797  LYS798  CYS799  TRP800  GLU811  SER814 

> <Gold.Protein.RotatedAtoms>
  151.3053  135.0780  159.9252 H   0  0  0  0  0  0  0  0  0  0  0  0  # atno 6907 bound_to 6896
  152.5289  133.9791  159.7808 H   0  0  0  0  0  0  0  0  0  0  0  0  # atno 6908 bound_to 6896
  151.0085  133.5936  159.2716 H   0  0  0  0  0  0  0  0  0  0  0  0  # atno 6909 bound_to 6896
  146.0923  140.5897  142.8859 H   0  0  0  0  0  0  0  0  0  0  0  0  # atno 7974 bound_to 7965
  154.6304  140.2522  155.7441 H   0  0  0  0  0  0  0  0  0  0  0  0  # atno 8008 bound_to 7997
  156.2476  140.2908  156.0573 H   0  0  0  0  0  0  0  0  0  0  0  0  # atno 8009 bound_to 7997
  155.1754  140.0387  157.2862 H   0  0  0  0  0  0  0  0  0  0  0  0  # atno 8010 bound_to 7997
  139.6474  144.0146  152.2137 H   0  0  0  0  0  0  0  0  0  0  0  0  # atno 10167 bound_to 10162
  156.2034  130.4157  149.9210 H   0  0  0  0  0  0  0  0  0  0  0  0  # atno 10718 bound_to 10713
  154.5071  135.5779  153.6576 H   0  0  0  0  0  0  0  0  0  0  0  0  # atno 10763 bound_to 10752
  152.9890  135.6150  154.2927 H   0  0  0  0  0  0  0  0  0  0  0  0  # atno 10764 bound_to 10752
  154.2839  135.2850  155.2664 H   0  0  0  0  0  0  0  0  0  0  0  0  # atno 10765 bound_to 10752
  140.3822  134.6936  157.4458 H   0  0  0  0  0  0  0  0  0  0  0  0  # atno 11005 bound_to 11000
  144.7369  140.4834  143.6897 LP  0  0  0  0  0  0  0  0  0  0  0  0  # atno 17320 bound_to 7965
  145.6015  139.1504  143.3126 LP  0  0  0  0  0  0  0  0  0  0  0  0  # atno 17321 bound_to 7965
  139.9852  144.6400  150.7864 LP  0  0  0  0  0  0  0  0  0  0  0  0  # atno 17342 bound_to 10162
  140.7521  143.2985  151.3142 LP  0  0  0  0  0  0  0  0  0  0  0  0  # atno 17343 bound_to 10162
  156.6912  130.8896  151.3588 LP  0  0  0  0  0  0  0  0  0  0  0  0  # atno 17370 bound_to 10713
  157.6998  130.9321  150.0753 LP  0  0  0  0  0  0  0  0  0  0  0  0  # atno 17371 bound_to 10713
  140.0470  134.6186  155.8909 LP  0  0  0  0  0  0  0  0  0  0  0  0  # atno 17394 bound_to 11000
  141.1919  133.6573  156.5479 LP  0  0  0  0  0  0  0  0  0  0  0  0  # atno 17395 bound_to 11000

$$$$
