AV-unprocessed.smi:2288|AV-procd|sdf|9206|dock4
  -GOLD-   2272012423D 1   1.00000     0.00000
 Structure written by MMmdl.
 40 41  0  0  0  0  0  0  0  0  1 V2000
  153.7305  141.6192  161.9050 C   0  0  0  0  0  0  0  0  0  0  0  0
  153.0488  142.0548  160.6245 C   0  0  0  0  0  0  0  0  0  0  0  0
  152.7876  143.4192  160.3844 C   0  0  0  0  0  0  0  0  0  0  0  0
  152.1532  143.8204  159.1916 C   0  0  0  0  0  0  0  0  0  0  0  0
  151.8746  145.2887  158.9444 C   0  0  0  0  0  0  0  0  0  0  0  0
  151.7793  142.8523  158.2368 C   0  0  0  0  0  0  0  0  0  0  0  0
  152.0366  141.4844  158.4694 C   0  0  0  0  0  0  0  0  0  0  0  0
  151.6382  140.4495  157.4281 C   0  0  2  0  0  0  0  0  0  0  0  0
  152.6917  139.5387  157.1842 O   0  0  0  0  0  0  0  0  0  0  0  0
  151.2412  141.1292  156.0980 C   0  0  0  0  0  0  0  0  0  0  0  0
  149.7933  141.3877  156.0119 N   0  0  0  0  0  0  0  0  0  0  0  0
  149.1575  141.7713  157.2049 C   0  0  0  0  0  0  0  0  0  0  0  0
  147.8888  142.0148  157.2516 N   0  0  0  0  0  0  0  0  0  0  0  0
  147.1138  141.8964  156.0944 C   0  0  0  0  0  0  0  0  0  0  0  0
  145.6359  142.2023  156.2616 C   0  0  0  0  0  0  0  0  0  0  0  0
  147.6678  141.5286  154.9069 C   0  0  0  0  0  0  0  0  0  0  0  0
  146.8737  141.3860  153.6143 C   0  0  0  0  0  0  0  0  0  0  0  0
  149.1118  141.2501  154.8379 C   0  0  0  0  0  0  0  0  0  0  0  0
  149.6761  140.9138  153.7954 O   0  0  0  0  0  0  0  0  0  0  0  0
  152.6762  141.0915  159.6655 C   0  0  0  0  0  0  0  0  0  0  0  0
  153.7362  142.4216  162.6434 H   0  0  0  0  0  0  0  0  0  0  0  0
  154.7621  141.3311  161.7031 H   0  0  0  0  0  0  0  0  0  0  0  0
  153.2132  140.7636  162.3397 H   0  0  0  0  0  0  0  0  0  0  0  0
  153.0744  144.1615  161.1153 H   0  0  0  0  0  0  0  0  0  0  0  0
  151.4617  145.4546  157.9489 H   0  0  0  0  0  0  0  0  0  0  0  0
  152.7934  145.8691  159.0319 H   0  0  0  0  0  0  0  0  0  0  0  0
  151.1598  145.6644  159.6769 H   0  0  0  0  0  0  0  0  0  0  0  0
  151.2944  143.1602  157.3218 H   0  0  0  0  0  0  0  0  0  0  0  0
  150.7966  139.8779  157.8218 H   0  0  0  0  0  0  0  0  0  0  0  0
  152.3209  138.6790  157.0562 H   0  0  0  0  0  0  0  0  0  0  0  0
  151.7639  142.0849  156.0178 H   0  0  0  0  0  0  0  0  0  0  0  0
  151.6089  140.5537  155.2464 H   0  0  0  0  0  0  0  0  0  0  0  0
  149.8066  141.8428  158.0795 H   0  0  0  0  0  0  0  0  0  0  0  0
  145.0342  141.3302  156.0047 H   0  0  0  0  0  0  0  0  0  0  0  0
  145.3413  143.0317  155.6181 H   0  0  0  0  0  0  0  0  0  0  0  0
  145.4013  142.4777  157.2905 H   0  0  0  0  0  0  0  0  0  0  0  0
  147.2497  142.0831  152.8648 H   0  0  0  0  0  0  0  0  0  0  0  0
  145.8102  141.5816  153.7395 H   0  0  0  0  0  0  0  0  0  0  0  0
  146.9764  140.3751  153.2183 H   0  0  0  0  0  0  0  0  0  0  0  0
  152.8828  140.0468  159.8483 H   0  0  0  0  0  0  0  0  0  0  0  0
  1  2  1  0  0  0  0
  1 21  1  0  0  0  0
  1 22  1  0  0  0  0
  1 23  1  0  0  0  0
  2 20  1  0  0  0  0
  2  3  2  0  0  0  0
  3  4  1  0  0  0  0
  3 24  1  0  0  0  0
  4  5  1  0  0  0  0
  4  6  2  0  0  0  0
  5 25  1  0  0  0  0
  5 26  1  0  0  0  0
  5 27  1  0  0  0  0
  6  7  1  0  0  0  0
  6 28  1  0  0  0  0
  7  8  1  0  0  0  0
  7 20  2  0  0  0  0
  8  9  1  0  0  0  0
  8 10  1  0  0  0  0
  8 29  1  0  0  0  0
  9 30  1  0  0  0  0
 10 11  1  0  0  0  0
 10 31  1  0  0  0  0
 10 32  1  0  0  0  0
 11 18  1  0  0  0  0
 11 12  1  0  0  0  0
 12 13  2  0  0  0  0
 12 33  1  0  0  0  0
 13 14  1  0  0  0  0
 14 15  1  0  0  0  0
 14 16  2  0  0  0  0
 15 34  1  0  0  0  0
 15 35  1  0  0  0  0
 15 36  1  0  0  0  0
 16 17  1  0  0  0  0
 16 18  1  0  0  0  0
 17 37  1  0  0  0  0
 17 38  1  0  0  0  0
 17 39  1  0  0  0  0
 18 19  2  0  0  0  0
 20 40  1  0  0  0  0
M  END
> <s_m_source_file>
AV-unprocessed.smi

> <i_m_source_file_index>
2288

> <i_lp_mmshare_version>
43012

> <i_f3d_flags>
0

> <s_epik_input>
W0NIM11jMVtjSF1jKFtDSDNdKVtjSF1jKFtjSF0xKVtDQEhdKFtPSF0pW0NIMl1uMltjSF1uYyhbQ0gzXSljKFtDSDNdKWMyPU8=

> <s_epik_cmdline>
J2VwaWtfcHl0aG9uJywgJy1waCcsICc3LjAnLCAnLXRuJywgJzgnLCAnLW1hJywgJzIwMCcsICctbWV0YWxfYmluZGluZycsICctaW1hZScsICc8aW5maWxlLm1hZT4nLCAnLW9tYWUnLCAnPG91dGZpbGUubWFlPic=

> <r_lp_tautomer_probability>
1

> <r_epik_Ionization_Penalty>
5.07027e-05

> <r_epik_Ionization_Penalty_Charging>
7.56727e-08

> <r_epik_Ionization_Penalty_Neutral>
5.06271e-05

> <r_epik_State_Penalty>
-0

> <r_epik_Charging_Adjusted_Penalty>
7.56727e-08

> <i_epik_Tot_Q>
0

> <i_epik_Tot_abs_Q>
0

> <r_epik_Metal_State_Penalty>
-0

> <b_epik_Metal_Only>
0

> <s_lp_Force_Field>
OPLS_2005

> <r_lp_Energy>
20.195

> <b_lp_Chiralities_Consistent>
1

> <s_lp_Variant>
AV-unprocessed.smi:2288-1

> <Gold.Version>
5.8.1

> <Gold.Id.Protein>
6NUR|6NUR_protein|mol2

> <Gold.PLP.Fitness>
50.3182

> <Gold.PLP.PLP>
-45.4524

> <Gold.PLP.part.hbond>
-3.0000

> <Gold.PLP.part.metal>
0.0000

> <Gold.PLP.part.buried>
-5.5889

> <Gold.PLP.part.nonpolar>
-39.4800

> <Gold.PLP.part.repulsive>
2.5835

> <Gold.PLP.ligand.clash>
0.0000

> <Gold.PLP.ligand.torsion>
1.0664

> <Gold.PLP.Chemscore.Hbond>
2.3280

> <Gold.PLP.Chemscore.CHOScore>
0.0000

> <Gold.PLP.Chemscore.Metal>
0.0000

> <Gold.Chemscore.Hbonds>
donor molecule, donor type, donor heavy atom, donor atom, acceptor molecule, acceptor atom, score
      P1  H  7989  7998       L1    19  0.42
      P1  H  7997  8009       L1     9  1.00
      P1  H  8011  8017       L1    19  0.81

> <Gold.PLP.Chemscore.Internal.Correction>
0.0145

> <Gold.Rescore>
     Score         DG    S(hbond)    S(metal)    S(lipo)     H(rot)  DE(clash)    DE(int)     intcor
     19.73     -21.91       2.20        0.00     118.91       1.89       1.31       0.87       ----

> <Gold.Chemscore.Fitness>
19.7333

> <Gold.Chemscore.DG>
-21.9129

> <Gold.Chemscore.ZeroCoef>
-5.4800

> <Gold.Chemscore.Hbond>
2.2038

> <Gold.Chemscore.Metal>
0.0000

> <Gold.Chemscore.Lipo>
118.9078

> <Gold.Chemscore.Internal_Hbond>
0.0000

> <Gold.Chemscore.DEClash>
1.3110

> <Gold.Chemscore.DEInternal>
0.8687

> <Gold.Chemscore.Rot>
1.8907

> <Gold.Chemscore.Internal.Correction>
   9.000000E+99

> <Gold.Chemscore.Hbonds>
donor molecule, donor type, donor heavy atom, donor atom, acceptor molecule, acceptor atom, score
      P1  H  7989  7998       L1    19  0.42
      P1  H  7997  8009       L1     9  0.99
      P1  H  8011  8017       L1    19  0.69

> <Gold.Chemscore.Hbond.Weighted>
-7.3608

> <Gold.Chemscore.Metal.Weighted>
-0.0000

> <Gold.Chemscore.Lipo.Weighted>
-13.9122

> <Gold.Chemscore.Internal_Hbond.Weighted>
0.0000

> <Gold.Chemscore.DEClash.Weighted>
1.3110

> <Gold.Chemscore.DEInternal.Weighted>
0.8687

> <Gold.Chemscore.Rot.Weighted>
4.8401

> <Gold.Chemscore.Internal.Correction.Weighted>
   9.000000E+99

> <Gold.Protein.RotatedTorsions>
[ 6907 6896 6895 6894 ] final  171.43 input  -60.11 | X-H torsion
[ 7974 7965 7964 7962 ] final -153.99 input  175.53 | X-H torsion
[ 8008 7997 7996 7995 ] final  172.35 input   59.86 | X-H torsion
[ 10167 10162 10161 10158 ] final -172.60 input  -65.29 | X-H torsion
[ 10718 10713 10712 10709 ] final -126.54 input   66.30 | X-H torsion
[ 10763 10752 10751 10750 ] final   56.61 input  -60.55 | X-H torsion
[ 11005 11000 10999 10996 ] final    6.97 input  -57.11 | X-H torsion

> <Gold.Protein.ActiveResidues>
 VAL166  LYS551  ARG553  GLY616  TRP617  ASP618  TYR619  PRO620  LYS621  CYS622 
 ASP623  PHE694  ASN695  SER759  ASP760  ASP761  ALA762  ILE779  LEU786  VAL792 
 PHE793  MET794  SER795  GLU796  ALA797  LYS798  CYS799  TRP800  GLU811  SER814 

> <Gold.Protein.RotatedAtoms>
  151.8003  133.3369  159.3524 H   0  0  0  0  0  0  0  0  0  0  0  0  # atno 6907 bound_to 6896
  150.7361  134.5760  159.5924 H   0  0  0  0  0  0  0  0  0  0  0  0  # atno 6908 bound_to 6896
  152.3148  134.7455  160.0379 H   0  0  0  0  0  0  0  0  0  0  0  0  # atno 6909 bound_to 6896
  144.7712  140.4450  143.5906 H   0  0  0  0  0  0  0  0  0  0  0  0  # atno 7974 bound_to 7965
  156.1183  140.1488  156.9242 H   0  0  0  0  0  0  0  0  0  0  0  0  # atno 8008 bound_to 7997
  154.4816  140.0877  156.7433 H   0  0  0  0  0  0  0  0  0  0  0  0  # atno 8009 bound_to 7997
  155.4475  140.3433  155.4299 H   0  0  0  0  0  0  0  0  0  0  0  0  # atno 8010 bound_to 7997
  139.5735  144.1585  152.1418 H   0  0  0  0  0  0  0  0  0  0  0  0  # atno 10167 bound_to 10162
  156.1774  130.6709  151.0260 H   0  0  0  0  0  0  0  0  0  0  0  0  # atno 10718 bound_to 10713
  152.9835  135.5670  154.5256 H   0  0  0  0  0  0  0  0  0  0  0  0  # atno 10763 bound_to 10752
  154.4737  135.2786  155.1625 H   0  0  0  0  0  0  0  0  0  0  0  0  # atno 10764 bound_to 10752
  154.3163  135.6278  153.5541 H   0  0  0  0  0  0  0  0  0  0  0  0  # atno 10765 bound_to 10752
  140.5535  134.0261  155.7945 H   0  0  0  0  0  0  0  0  0  0  0  0  # atno 11005 bound_to 11000
  145.6318  139.1537  143.2964 LP  0  0  0  0  0  0  0  0  0  0  0  0  # atno 17320 bound_to 7965
  146.1860  140.6421  142.9167 LP  0  0  0  0  0  0  0  0  0  0  0  0  # atno 17321 bound_to 7965
  140.1123  144.5446  150.6916 LP  0  0  0  0  0  0  0  0  0  0  0  0  # atno 17342 bound_to 10162
  140.7019  143.2441  151.4839 LP  0  0  0  0  0  0  0  0  0  0  0  0  # atno 17343 bound_to 10162
  157.6845  131.0829  150.7280 LP  0  0  0  0  0  0  0  0  0  0  0  0  # atno 17370 bound_to 10713
  156.7338  130.4718  149.5493 LP  0  0  0  0  0  0  0  0  0  0  0  0  # atno 17371 bound_to 10713
  141.1157  133.9543  157.2826 LP  0  0  0  0  0  0  0  0  0  0  0  0  # atno 17394 bound_to 11000
  139.9443  135.0186  156.8805 LP  0  0  0  0  0  0  0  0  0  0  0  0  # atno 17395 bound_to 11000

$$$$
