AV-unprocessed.smi:1959|AV-procd|sdf|7913|dock9
  -GOLD-   2272010 83D 1   1.00000     0.00000
 Structure written by MMmdl.
 44 45  0  0  0  0  0  0  0  0  1 V2000
  153.7110  140.7296  160.5794 C   0  0  0  0  0  0  0  0  0  0  0  0
  153.0202  141.9226  159.9875 C   0  0  0  0  0  0  0  0  0  0  0  0
  152.7798  143.1902  160.5876 C   0  0  0  0  0  0  0  0  0  0  0  0
  152.1226  143.9007  159.6231 C   0  0  0  0  0  0  0  0  0  0  0  0
  151.5991  145.2992  159.6445 C   0  0  0  0  0  0  0  0  0  0  0  0
  151.9974  143.0674  158.5255 N   0  0  0  0  0  0  0  0  0  0  0  0
  151.3787  143.3351  157.2343 C   0  0  0  0  0  0  0  0  0  0  0  0
  150.7679  142.0856  156.5875 C   0  0  0  0  0  0  0  0  0  0  0  0
  151.2698  140.9716  156.7460 O   0  0  0  0  0  0  0  0  0  0  0  0
  149.6668  142.2959  155.8502 N   0  0  0  0  0  0  0  0  0  0  0  0
  148.9114  141.2705  155.1339 C   0  0  1  0  0  0  0  0  0  0  0  0
  147.9810  141.9157  154.0951 C   0  0  0  0  0  0  0  0  0  0  0  0
  149.8234  140.1654  154.5452 C   0  0  0  0  0  0  0  0  0  0  0  0
  150.1846  139.0569  155.4345 N   0  0  0  0  0  0  0  0  0  0  0  0
  150.8908  138.0136  154.6973 C   0  0  0  0  0  0  0  0  0  0  0  0
  151.2928  136.8365  155.6018 C   0  0  0  0  0  0  0  0  0  0  0  0
  150.1323  136.3029  156.2294 O   0  0  0  0  0  0  0  0  0  0  0  0
  149.4327  137.2737  157.0005 C   0  0  0  0  0  0  0  0  0  0  0  0
  149.0312  138.4600  156.1058 C   0  0  0  0  0  0  0  0  0  0  0  0
  152.5502  141.8558  158.7528 N   0  0  0  0  0  0  0  0  0  0  0  0
  154.1074  140.9537  161.5700 H   0  0  0  0  0  0  0  0  0  0  0  0
  154.5447  140.4078  159.9547 H   0  0  0  0  0  0  0  0  0  0  0  0
  153.0241  139.8890  160.6799 H   0  0  0  0  0  0  0  0  0  0  0  0
  153.0487  143.5273  161.5778 H   0  0  0  0  0  0  0  0  0  0  0  0
  151.8038  145.7771  160.6026 H   0  0  0  0  0  0  0  0  0  0  0  0
  150.5205  145.3134  159.4871 H   0  0  0  0  0  0  0  0  0  0  0  0
  152.0651  145.9007  158.8640 H   0  0  0  0  0  0  0  0  0  0  0  0
  150.6046  144.0915  157.3678 H   0  0  0  0  0  0  0  0  0  0  0  0
  152.1244  143.7604  156.5603 H   0  0  0  0  0  0  0  0  0  0  0  0
  149.3256  143.2432  155.7731 H   0  0  0  0  0  0  0  0  0  0  0  0
  148.2647  140.7871  155.8687 H   0  0  0  0  0  0  0  0  0  0  0  0
  147.3865  141.1598  153.5814 H   0  0  0  0  0  0  0  0  0  0  0  0
  148.5408  142.4691  153.3403 H   0  0  0  0  0  0  0  0  0  0  0  0
  147.2891  142.6126  154.5691 H   0  0  0  0  0  0  0  0  0  0  0  0
  149.3947  139.7757  153.6206 H   0  0  0  0  0  0  0  0  0  0  0  0
  150.7457  140.6630  154.2417 H   0  0  0  0  0  0  0  0  0  0  0  0
  150.2626  137.6448  153.8847 H   0  0  0  0  0  0  0  0  0  0  0  0
  151.7863  138.4291  154.2337 H   0  0  0  0  0  0  0  0  0  0  0  0
  151.7725  136.0532  155.0147 H   0  0  0  0  0  0  0  0  0  0  0  0
  152.0113  137.1567  156.3580 H   0  0  0  0  0  0  0  0  0  0  0  0
  148.5470  136.8114  157.4365 H   0  0  0  0  0  0  0  0  0  0  0  0
  150.0598  137.6096  157.8279 H   0  0  0  0  0  0  0  0  0  0  0  0
  148.5306  139.1993  156.7287 H   0  0  0  0  0  0  0  0  0  0  0  0
  148.3032  138.1258  155.3651 H   0  0  0  0  0  0  0  0  0  0  0  0
  1  2  1  0  0  0  0
  1 21  1  0  0  0  0
  1 22  1  0  0  0  0
  1 23  1  0  0  0  0
  2 20  2  0  0  0  0
  2  3  1  0  0  0  0
  3  4  2  0  0  0  0
  3 24  1  0  0  0  0
  4  5  1  0  0  0  0
  4  6  1  0  0  0  0
  5 25  1  0  0  0  0
  5 26  1  0  0  0  0
  5 27  1  0  0  0  0
  6  7  1  0  0  0  0
  6 20  1  0  0  0  0
  7  8  1  0  0  0  0
  7 28  1  0  0  0  0
  7 29  1  0  0  0  0
  8  9  2  0  0  0  0
  8 10  1  0  0  0  0
 10 11  1  0  0  0  0
 10 30  1  0  0  0  0
 11 12  1  0  0  0  0
 11 13  1  0  0  0  0
 11 31  1  0  0  0  0
 12 32  1  0  0  0  0
 12 33  1  0  0  0  0
 12 34  1  0  0  0  0
 13 14  1  0  0  0  0
 13 35  1  0  0  0  0
 13 36  1  0  0  0  0
 14 19  1  0  0  0  0
 14 15  1  0  0  0  0
 15 16  1  0  0  0  0
 15 37  1  0  0  0  0
 15 38  1  0  0  0  0
 16 17  1  0  0  0  0
 16 39  1  0  0  0  0
 16 40  1  0  0  0  0
 17 18  1  0  0  0  0
 18 19  1  0  0  0  0
 18 41  1  0  0  0  0
 18 42  1  0  0  0  0
 19 43  1  0  0  0  0
 19 44  1  0  0  0  0
M  END
> <s_m_source_file>
AV-unprocessed.smi

> <i_m_source_file_index>
1959

> <i_lp_mmshare_version>
43012

> <i_f3d_flags>
0

> <s_epik_input>
W0NIM11jMVtjSF1jKFtDSDNdKW4objEpW0NIMl1DKD1PKVtOSF1bQ0BIXShbQ0gzXSlbQ0gyXU4yW0NIMl1bQ0gyXU9bQ0gyXVtDSDJdMg==

> <s_epik_cmdline>
J2VwaWtfcHl0aG9uJywgJy1waCcsICc3LjAnLCAnLXRuJywgJzgnLCAnLW1hJywgJzIwMCcsICctbWV0YWxfYmluZGluZycsICctaW1hZScsICc8aW5maWxlLm1hZT4nLCAnLW9tYWUnLCAnPG91dGZpbGUubWFlPic=

> <r_lp_tautomer_probability>
1

> <r_epik_Ionization_Penalty>
0.197284

> <r_epik_Ionization_Penalty_Charging>
0

> <r_epik_Ionization_Penalty_Neutral>
0.197284

> <r_epik_State_Penalty>
0.186684

> <r_epik_Charging_Adjusted_Penalty>
0.186684

> <i_epik_Tot_Q>
0

> <i_epik_Tot_abs_Q>
0

> <r_epik_Metal_State_Penalty>
0.186639

> <b_epik_Metal_Only>
0

> <s_lp_Force_Field>
OPLS_2005

> <r_lp_Energy>
28.5782

> <b_lp_Chiralities_Consistent>
1

> <s_lp_Variant>
AV-unprocessed.smi:1959-2

> <Gold.Version>
5.8.1

> <Gold.Id.Protein>
6NUR|6NUR_protein|mol2

> <Gold.PLP.Fitness>
41.9031

> <Gold.PLP.PLP>
-41.6444

> <Gold.PLP.part.hbond>
-1.0000

> <Gold.PLP.part.metal>
0.0000

> <Gold.PLP.part.buried>
-3.9823

> <Gold.PLP.part.nonpolar>
-36.9633

> <Gold.PLP.part.repulsive>
0.2291

> <Gold.PLP.ligand.clash>
0.0000

> <Gold.PLP.ligand.torsion>
1.4023

> <Gold.PLP.Chemscore.Hbond>
1.0000

> <Gold.PLP.Chemscore.CHOScore>
0.0000

> <Gold.PLP.Chemscore.Metal>
0.0000

> <Gold.Chemscore.Hbonds>
donor molecule, donor type, donor heavy atom, donor atom, acceptor molecule, acceptor atom, score
      L1  H    10    30       P1  8028  1.00

> <Gold.PLP.Chemscore.Internal.Correction>
0.0633

> <Gold.Rescore>
     Score         DG    S(hbond)    S(metal)    S(lipo)     H(rot)  DE(clash)    DE(int)     intcor
     10.61     -16.56       1.00        0.00     103.38       1.70       0.00       5.95       ----

> <Gold.Chemscore.Fitness>
10.6091

> <Gold.Chemscore.DG>
-16.5640

> <Gold.Chemscore.ZeroCoef>
-5.4800

> <Gold.Chemscore.Hbond>
0.9966

> <Gold.Chemscore.Metal>
0.0000

> <Gold.Chemscore.Lipo>
103.3783

> <Gold.Chemscore.Internal_Hbond>
0.0000

> <Gold.Chemscore.DEClash>
0.0004

> <Gold.Chemscore.DEInternal>
5.9545

> <Gold.Chemscore.Rot>
1.6952

> <Gold.Chemscore.Internal.Correction>
   9.000000E+99

> <Gold.Chemscore.Hbonds>
donor molecule, donor type, donor heavy atom, donor atom, acceptor molecule, acceptor atom, score
      L1  H    10    30       P1  8028  0.94

> <Gold.Chemscore.Hbond.Weighted>
-3.3286

> <Gold.Chemscore.Metal.Weighted>
-0.0000

> <Gold.Chemscore.Lipo.Weighted>
-12.0953

> <Gold.Chemscore.Internal_Hbond.Weighted>
0.0000

> <Gold.Chemscore.DEClash.Weighted>
0.0004

> <Gold.Chemscore.DEInternal.Weighted>
5.9545

> <Gold.Chemscore.Rot.Weighted>
4.3398

> <Gold.Chemscore.Internal.Correction.Weighted>
   9.000000E+99

> <Gold.Protein.RotatedTorsions>
[ 6907 6896 6895 6894 ] final   40.24 input  -60.11 | X-H torsion
[ 7974 7965 7964 7962 ] final -107.32 input  175.53 | X-H torsion
[ 8008 7997 7996 7995 ] final  156.98 input   59.86 | X-H torsion
[ 10167 10162 10161 10158 ] final   36.73 input  -65.29 | X-H torsion
[ 10718 10713 10712 10709 ] final   11.26 input   66.30 | X-H torsion
[ 10763 10752 10751 10750 ] final   14.75 input  -60.55 | X-H torsion
[ 11005 11000 10999 10996 ] final  -28.54 input  -57.11 | X-H torsion

> <Gold.Protein.ActiveResidues>
 VAL166  LYS551  ARG553  GLY616  TRP617  ASP618  TYR619  PRO620  LYS621  CYS622 
 ASP623  PHE694  ASN695  SER759  ASP760  ASP761  ALA762  ILE779  LEU786  VAL792 
 PHE793  MET794  SER795  GLU796  ALA797  LYS798  CYS799  TRP800  GLU811  SER814 

> <Gold.Protein.RotatedAtoms>
  152.1800  134.8762  160.0526 H   0  0  0  0  0  0  0  0  0  0  0  0  # atno 6907 bound_to 6896
  151.9690  133.3715  159.4072 H   0  0  0  0  0  0  0  0  0  0  0  0  # atno 6908 bound_to 6896
  150.6916  134.4083  159.5194 H   0  0  0  0  0  0  0  0  0  0  0  0  # atno 6909 bound_to 6896
  145.2069  140.9080  143.3337 H   0  0  0  0  0  0  0  0  0  0  0  0  # atno 7974 bound_to 7965
  156.2391  140.1897  156.7039 H   0  0  0  0  0  0  0  0  0  0  0  0  # atno 8008 bound_to 7997
  154.6162  140.0615  156.9584 H   0  0  0  0  0  0  0  0  0  0  0  0  # atno 8009 bound_to 7997
  155.1936  140.3286  155.4357 H   0  0  0  0  0  0  0  0  0  0  0  0  # atno 8010 bound_to 7997
  140.4100  144.1606  150.6139 H   0  0  0  0  0  0  0  0  0  0  0  0  # atno 10167 bound_to 10162
  156.9930  130.6050  149.5688 H   0  0  0  0  0  0  0  0  0  0  0  0  # atno 10718 bound_to 10713
  153.1591  135.6792  153.8769 H   0  0  0  0  0  0  0  0  0  0  0  0  # atno 10763 bound_to 10752
  153.8170  135.3135  155.3407 H   0  0  0  0  0  0  0  0  0  0  0  0  # atno 10764 bound_to 10752
  154.7919  135.4829  154.0161 H   0  0  0  0  0  0  0  0  0  0  0  0  # atno 10765 bound_to 10752
  140.9217  133.7394  156.0811 H   0  0  0  0  0  0  0  0  0  0  0  0  # atno 11005 bound_to 11000
  144.9894  139.3704  143.6222 LP  0  0  0  0  0  0  0  0  0  0  0  0  # atno 17320 bound_to 7965
  146.3406  139.9070  142.8786 LP  0  0  0  0  0  0  0  0  0  0  0  0  # atno 17321 bound_to 7965
  140.4648  143.2435  151.9170 LP  0  0  0  0  0  0  0  0  0  0  0  0  # atno 17342 bound_to 10162
  139.4783  144.5430  151.8499 LP  0  0  0  0  0  0  0  0  0  0  0  0  # atno 17343 bound_to 10162
  156.0200  130.5295  150.8247 LP  0  0  0  0  0  0  0  0  0  0  0  0  # atno 17370 bound_to 10713
  157.5445  131.0942  150.9781 LP  0  0  0  0  0  0  0  0  0  0  0  0  # atno 17371 bound_to 10713
  140.7978  134.3543  157.5447 LP  0  0  0  0  0  0  0  0  0  0  0  0  # atno 17394 bound_to 11000
  139.8777  134.9179  156.3191 LP  0  0  0  0  0  0  0  0  0  0  0  0  # atno 17395 bound_to 11000

$$$$
