AV-unprocessed.smi:486|AV-procd|sdf|2696|dock5
  -GOLD-   2262023133D 1   1.00000     0.00000
 Structure written by MMmdl.
 43 45  0  0  0  0  0  0  0  0  1 V2000
  142.9170  145.3737  154.3314 C   0  0  0  0  0  0  0  0  0  0  0  0
  143.3547  144.9205  155.6042 O   0  0  0  0  0  0  0  0  0  0  0  0
  144.4731  144.1165  155.6570 C   0  0  0  0  0  0  0  0  0  0  0  0
  144.8892  143.6787  156.9296 C   0  0  0  0  0  0  0  0  0  0  0  0
  146.0214  142.8552  157.0738 C   0  0  0  0  0  0  0  0  0  0  0  0
  146.7652  142.4485  155.9491 C   0  0  0  0  0  0  0  0  0  0  0  0
  147.8597  141.6429  156.1801 O   0  0  0  0  0  0  0  0  0  0  0  0
  148.5724  141.1399  155.0580 C   0  0  0  0  0  0  0  0  0  0  0  0
  149.9492  140.6360  155.5282 C   0  0  1  0  0  0  0  0  0  0  0  0
  150.5413  139.9122  154.4697 O   0  0  0  0  0  0  0  0  0  0  0  0
  150.9355  141.7607  155.9094 C   0  0  0  0  0  0  0  0  0  0  0  0
  151.5648  141.5619  157.2080 N   0  0  0  0  0  0  0  0  0  0  0  0
  152.1254  140.4291  157.6986 C   0  0  0  0  0  0  0  0  0  0  0  0
  152.1715  139.1617  156.9054 C   0  0  0  0  0  0  0  0  0  0  0  0
  152.6340  140.5168  158.9278 N   0  0  0  0  0  0  0  0  0  0  0  0
  152.3852  141.8331  159.2656 C   0  0  0  0  0  0  0  0  0  0  0  0
  152.6805  142.5498  160.4473 C   0  0  0  0  0  0  0  0  0  0  0  0
  152.3211  143.9083  160.5672 C   0  0  0  0  0  0  0  0  0  0  0  0
  151.6651  144.5694  159.5088 C   0  0  0  0  0  0  0  0  0  0  0  0
  151.3623  143.8744  158.3222 C   0  0  0  0  0  0  0  0  0  0  0  0
  151.7209  142.5175  158.2085 C   0  0  0  0  0  0  0  0  0  0  0  0
  146.3511  142.8862  154.6667 C   0  0  0  0  0  0  0  0  0  0  0  0
  145.2181  143.7108  154.5224 C   0  0  0  0  0  0  0  0  0  0  0  0
  142.0310  145.9959  154.4569 H   0  0  0  0  0  0  0  0  0  0  0  0
  142.6450  144.5396  153.6831 H   0  0  0  0  0  0  0  0  0  0  0  0
  143.6785  145.9804  153.8396 H   0  0  0  0  0  0  0  0  0  0  0  0
  144.3337  143.9776  157.8065 H   0  0  0  0  0  0  0  0  0  0  0  0
  146.3219  142.5318  158.0597 H   0  0  0  0  0  0  0  0  0  0  0  0
  148.0204  140.3455  154.5523 H   0  0  0  0  0  0  0  0  0  0  0  0
  148.6987  141.9616  154.3536 H   0  0  0  0  0  0  0  0  0  0  0  0
  149.8200  139.9657  156.3779 H   0  0  0  0  0  0  0  0  0  0  0  0
  150.9709  139.1525  154.8328 H   0  0  0  0  0  0  0  0  0  0  0  0
  151.7168  141.8507  155.1542 H   0  0  0  0  0  0  0  0  0  0  0  0
  150.4198  142.7219  155.9218 H   0  0  0  0  0  0  0  0  0  0  0  0
  152.6791  138.3775  157.4681 H   0  0  0  0  0  0  0  0  0  0  0  0
  152.7141  139.3175  155.9729 H   0  0  0  0  0  0  0  0  0  0  0  0
  151.1631  138.8184  156.6768 H   0  0  0  0  0  0  0  0  0  0  0  0
  153.1836  142.0525  161.2635 H   0  0  0  0  0  0  0  0  0  0  0  0
  152.5497  144.4454  161.4759 H   0  0  0  0  0  0  0  0  0  0  0  0
  151.3933  145.6102  159.6087 H   0  0  0  0  0  0  0  0  0  0  0  0
  150.8564  144.3773  157.5117 H   0  0  0  0  0  0  0  0  0  0  0  0
  146.8869  142.6042  153.7733 H   0  0  0  0  0  0  0  0  0  0  0  0
  144.9412  144.0196  153.5260 H   0  0  0  0  0  0  0  0  0  0  0  0
  1  2  1  0  0  0  0
  1 24  1  0  0  0  0
  1 25  1  0  0  0  0
  1 26  1  0  0  0  0
  2  3  1  0  0  0  0
  3 23  1  0  0  0  0
  3  4  2  0  0  0  0
  4  5  1  0  0  0  0
  4 27  1  0  0  0  0
  5  6  2  0  0  0  0
  5 28  1  0  0  0  0
  6  7  1  0  0  0  0
  6 22  1  0  0  0  0
  7  8  1  0  0  0  0
  8  9  1  0  0  0  0
  8 29  1  0  0  0  0
  8 30  1  0  0  0  0
  9 10  1  0  0  0  0
  9 11  1  0  0  0  0
  9 31  1  0  0  0  0
 10 32  1  0  0  0  0
 11 12  1  0  0  0  0
 11 33  1  0  0  0  0
 11 34  1  0  0  0  0
 12 21  1  0  0  0  0
 12 13  1  0  0  0  0
 13 14  1  0  0  0  0
 13 15  2  0  0  0  0
 14 35  1  0  0  0  0
 14 36  1  0  0  0  0
 14 37  1  0  0  0  0
 15 16  1  0  0  0  0
 16 21  2  0  0  0  0
 16 17  1  0  0  0  0
 17 18  2  0  0  0  0
 17 38  1  0  0  0  0
 18 19  1  0  0  0  0
 18 39  1  0  0  0  0
 19 20  2  0  0  0  0
 19 40  1  0  0  0  0
 20 21  1  0  0  0  0
 20 41  1  0  0  0  0
 22 23  2  0  0  0  0
 22 42  1  0  0  0  0
 23 43  1  0  0  0  0
M  END
> <s_m_source_file>
AV-unprocessed.smi

> <i_m_source_file_index>
486

> <i_lp_mmshare_version>
43012

> <i_f3d_flags>
0

> <s_epik_input>
W0NIM11PYzFbY0hdW2NIXWMoW2NIXVtjSF0xKU9bQ0gyXVtDQEhdKFtPSF0pW0NIMl1uKGMobjIpW0NIM10pYyhjMjMpW2NIXVtjSF1bY0hdW2NIXTM=

> <s_epik_cmdline>
J2VwaWtfcHl0aG9uJywgJy1waCcsICc3LjAnLCAnLXRuJywgJzgnLCAnLW1hJywgJzIwMCcsICctbWV0YWxfYmluZGluZycsICctaW1hZScsICc8aW5maWxlLm1hZT4nLCAnLW9tYWUnLCAnPG91dGZpbGUubWFlPic=

> <r_lp_tautomer_probability>
1

> <r_epik_Ionization_Penalty>
0.114052

> <r_epik_Ionization_Penalty_Charging>
0

> <r_epik_Ionization_Penalty_Neutral>
0.114052

> <r_epik_State_Penalty>
0.103717

> <r_epik_Charging_Adjusted_Penalty>
0.103717

> <i_epik_Tot_Q>
0

> <i_epik_Tot_abs_Q>
0

> <r_epik_Metal_State_Penalty>
0.000113338

> <b_epik_Metal_Only>
0

> <s_lp_Force_Field>
OPLS_2005

> <r_lp_Energy>
20.3049

> <b_lp_Chiralities_Consistent>
1

> <s_lp_Variant>
AV-unprocessed.smi:486-2

> <Gold.Version>
5.8.1

> <Gold.Id.Protein>
6NUR|6NUR_protein|mol2

> <Gold.PLP.Fitness>
45.5472

> <Gold.PLP.PLP>
-44.4797

> <Gold.PLP.part.hbond>
-1.0000

> <Gold.PLP.part.metal>
0.0000

> <Gold.PLP.part.buried>
-6.0125

> <Gold.PLP.part.nonpolar>
-36.8229

> <Gold.PLP.part.repulsive>
0.1668

> <Gold.PLP.ligand.clash>
0.0000

> <Gold.PLP.ligand.torsion>
1.0161

> <Gold.PLP.Chemscore.Hbond>
1.0000

> <Gold.PLP.Chemscore.CHOScore>
0.0000

> <Gold.PLP.Chemscore.Metal>
0.0000

> <Gold.Chemscore.Hbonds>
donor molecule, donor type, donor heavy atom, donor atom, acceptor molecule, acceptor atom, score
      P1  H  7989  7998       L1    10  1.00

> <Gold.PLP.Chemscore.Internal.Correction>
0.0997

> <Gold.Rescore>
     Score         DG    S(hbond)    S(metal)    S(lipo)     H(rot)  DE(clash)    DE(int)     intcor
     14.58     -16.98       0.90        0.00     122.90       2.30       0.24       2.16       ----

> <Gold.Chemscore.Fitness>
14.5810

> <Gold.Chemscore.DG>
-16.9821

> <Gold.Chemscore.ZeroCoef>
-5.4800

> <Gold.Chemscore.Hbond>
0.9032

> <Gold.Chemscore.Metal>
0.0000

> <Gold.Chemscore.Lipo>
122.8998

> <Gold.Chemscore.Internal_Hbond>
0.0000

> <Gold.Chemscore.DEClash>
0.2378

> <Gold.Chemscore.DEInternal>
2.1633

> <Gold.Chemscore.Rot>
2.3023

> <Gold.Chemscore.Internal.Correction>
   9.000000E+99

> <Gold.Chemscore.Hbonds>
donor molecule, donor type, donor heavy atom, donor atom, acceptor molecule, acceptor atom, score
      P1  H  7989  7998       L1    10  0.72

> <Gold.Chemscore.Hbond.Weighted>
-3.0168

> <Gold.Chemscore.Metal.Weighted>
-0.0000

> <Gold.Chemscore.Lipo.Weighted>
-14.3793

> <Gold.Chemscore.Internal_Hbond.Weighted>
0.0000

> <Gold.Chemscore.DEClash.Weighted>
0.2378

> <Gold.Chemscore.DEInternal.Weighted>
2.1633

> <Gold.Chemscore.Rot.Weighted>
5.8940

> <Gold.Chemscore.Internal.Correction.Weighted>
   9.000000E+99

> <Gold.Protein.RotatedTorsions>
[ 6907 6896 6895 6894 ] final  137.47 input  -60.11 | X-H torsion
[ 7974 7965 7964 7962 ] final   96.97 input  175.53 | X-H torsion
[ 8008 7997 7996 7995 ] final  -76.92 input   59.86 | X-H torsion
[ 10167 10162 10161 10158 ] final -149.65 input  -65.29 | X-H torsion
[ 10718 10713 10712 10709 ] final  166.71 input   66.30 | X-H torsion
[ 10763 10752 10751 10750 ] final   55.66 input  -60.55 | X-H torsion
[ 11005 11000 10999 10996 ] final -141.47 input  -57.11 | X-H torsion

> <Gold.Protein.ActiveResidues>
 VAL166  LYS551  ARG553  GLY616  TRP617  ASP618  TYR619  PRO620  LYS621  CYS622 
 ASP623  PHE694  ASN695  SER759  ASP760  ASP761  ALA762  ILE779  LEU786  VAL792 
 PHE793  MET794  SER795  GLU796  ALA797  LYS798  CYS799  TRP800  GLU811  SER814 

> <Gold.Protein.RotatedAtoms>
  152.2777  133.5441  159.5478 H   0  0  0  0  0  0  0  0  0  0  0  0  # atno 6907 bound_to 6896
  150.7184  134.0608  159.3839 H   0  0  0  0  0  0  0  0  0  0  0  0  # atno 6908 bound_to 6896
  151.8520  135.0554  160.0511 H   0  0  0  0  0  0  0  0  0  0  0  0  # atno 6909 bound_to 6896
  145.4317  139.2310  143.3140 H   0  0  0  0  0  0  0  0  0  0  0  0  # atno 7974 bound_to 7965
  154.5549  140.0719  156.8727 H   0  0  0  0  0  0  0  0  0  0  0  0  # atno 8008 bound_to 7997
  155.2922  140.3379  155.4233 H   0  0  0  0  0  0  0  0  0  0  0  0  # atno 8009 bound_to 7997
  156.1993  140.1715  156.7919 H   0  0  0  0  0  0  0  0  0  0  0  0  # atno 8010 bound_to 7997
  139.7424  143.8642  152.2566 H   0  0  0  0  0  0  0  0  0  0  0  0  # atno 10167 bound_to 10162
  157.0619  131.0342  151.2644 H   0  0  0  0  0  0  0  0  0  0  0  0  # atno 10718 bound_to 10713
  152.9820  135.5703  154.5102 H   0  0  0  0  0  0  0  0  0  0  0  0  # atno 10763 bound_to 10752
  154.4607  135.2781  155.1716 H   0  0  0  0  0  0  0  0  0  0  0  0  # atno 10764 bound_to 10752
  154.3305  135.6250  153.5603 H   0  0  0  0  0  0  0  0  0  0  0  0  # atno 10765 bound_to 10752
  140.8321  134.2504  157.4851 H   0  0  0  0  0  0  0  0  0  0  0  0  # atno 11005 bound_to 11000
  146.2603  140.5055  142.8856 LP  0  0  0  0  0  0  0  0  0  0  0  0  # atno 17320 bound_to 7965
  144.8178  140.6498  143.6373 LP  0  0  0  0  0  0  0  0  0  0  0  0  # atno 17321 bound_to 7965
  139.8596  144.7123  150.9115 LP  0  0  0  0  0  0  0  0  0  0  0  0  # atno 17342 bound_to 10162
  140.7787  143.3828  151.1446 LP  0  0  0  0  0  0  0  0  0  0  0  0  # atno 17343 bound_to 10162
  157.4948  130.7844  149.7544 LP  0  0  0  0  0  0  0  0  0  0  0  0  # atno 17370 bound_to 10713
  155.9976  130.3899  150.2734 LP  0  0  0  0  0  0  0  0  0  0  0  0  # atno 17371 bound_to 10713
  139.8704  134.9591  156.4323 LP  0  0  0  0  0  0  0  0  0  0  0  0  # atno 17394 bound_to 11000
  140.8987  133.7795  155.9655 LP  0  0  0  0  0  0  0  0  0  0  0  0  # atno 17395 bound_to 11000

$$$$
