AV-unprocessed.smi:1195|AV-procd|sdf|4994|dock4
  -GOLD-   22720 3593D 1   1.00000     0.00000
 Structure written by MMmdl.
 39 40  0  0  0  0  0  0  0  0  1 V2000
  151.7859  129.2129  154.0601 N   0  0  0  0  0  0  0  0  0  0  0  0
  151.1592  129.1894  155.2389 C   0  0  0  0  0  0  0  0  0  0  0  0
  150.4640  128.2360  155.5872 O   0  0  0  0  0  0  0  0  0  0  0  0
  151.3541  130.4173  156.1380 C   0  0  0  0  0  0  0  0  0  0  0  0
  150.6975  131.6077  155.6221 N   0  0  0  0  0  0  0  0  0  0  0  0
  149.9442  131.7356  154.4712 C   0  0  0  0  0  0  0  0  0  0  0  0
  149.5500  133.0430  154.4305 C   0  0  0  0  0  0  0  0  0  0  0  0
  148.7557  133.7134  153.4668 N   0  0  0  0  0  0  0  0  0  0  0  0
  147.6972  133.2245  152.8004 C   0  0  0  0  0  0  0  0  0  0  0  0
  147.2464  132.0856  152.9250 O   0  0  0  0  0  0  0  0  0  0  0  0
  147.1810  134.1405  151.9683 N   0  0  0  0  0  0  0  0  0  0  0  0
  146.0283  133.9336  151.0970 C   0  0  2  0  0  0  0  0  0  0  0  0
  144.7685  133.7127  151.9560 C   0  0  0  0  0  0  0  0  0  0  0  0
  143.5349  133.4231  151.0854 C   0  0  0  0  0  0  0  0  0  0  0  0
  143.7831  132.2230  150.1558 C   0  0  1  0  0  0  0  0  0  0  0  0
  142.6574  132.0290  149.3260 O   0  0  0  0  0  0  0  0  0  0  0  0
  145.0312  132.4483  149.2856 C   0  0  0  0  0  0  0  0  0  0  0  0
  146.2666  132.7350  150.1544 C   0  0  0  0  0  0  0  0  0  0  0  0
  150.0994  133.6495  155.5898 C   0  0  0  0  0  0  0  0  0  0  0  0
  150.7938  132.7769  156.3039 N   0  0  0  0  0  0  0  0  0  0  0  0
  151.6933  128.4299  153.4291 H   0  0  0  0  0  0  0  0  0  0  0  0
  152.3502  130.0099  153.8032 H   0  0  0  0  0  0  0  0  0  0  0  0
  150.9733  130.2003  157.1373 H   0  0  0  0  0  0  0  0  0  0  0  0
  152.4192  130.6292  156.2387 H   0  0  0  0  0  0  0  0  0  0  0  0
  149.7629  130.9018  153.8092 H   0  0  0  0  0  0  0  0  0  0  0  0
  149.0243  134.6645  153.2607 H   0  0  0  0  0  0  0  0  0  0  0  0
  147.6174  135.0502  151.9339 H   0  0  0  0  0  0  0  0  0  0  0  0
  145.8742  134.8313  150.4946 H   0  0  0  0  0  0  0  0  0  0  0  0
  144.9292  132.8783  152.6403 H   0  0  0  0  0  0  0  0  0  0  0  0
  144.5808  134.5896  152.5769 H   0  0  0  0  0  0  0  0  0  0  0  0
  142.6708  133.2318  151.7226 H   0  0  0  0  0  0  0  0  0  0  0  0
  143.2940  134.3077  150.4942 H   0  0  0  0  0  0  0  0  0  0  0  0
  143.9172  131.3220  150.7559 H   0  0  0  0  0  0  0  0  0  0  0  0
  142.1472  132.8246  149.3212 H   0  0  0  0  0  0  0  0  0  0  0  0
  145.2166  131.5750  148.6591 H   0  0  0  0  0  0  0  0  0  0  0  0
  144.8648  133.2867  148.6076 H   0  0  0  0  0  0  0  0  0  0  0  0
  147.1266  132.9247  149.5110 H   0  0  0  0  0  0  0  0  0  0  0  0
  146.5098  131.8472  150.7400 H   0  0  0  0  0  0  0  0  0  0  0  0
  150.0215  134.6717  155.9292 H   0  0  0  0  0  0  0  0  0  0  0  0
  1  2  1  0  0  0  0
  1 21  1  0  0  0  0
  1 22  1  0  0  0  0
  2  3  2  0  0  0  0
  2  4  1  0  0  0  0
  4  5  1  0  0  0  0
  4 23  1  0  0  0  0
  4 24  1  0  0  0  0
  5 20  1  0  0  0  0
  5  6  1  0  0  0  0
  6  7  2  0  0  0  0
  6 25  1  0  0  0  0
  7  8  1  0  0  0  0
  7 19  1  0  0  0  0
  8  9  1  0  0  0  0
  8 26  1  0  0  0  0
  9 10  2  0  0  0  0
  9 11  1  0  0  0  0
 11 12  1  0  0  0  0
 11 27  1  0  0  0  0
 12 18  1  0  0  0  0
 12 13  1  0  0  0  0
 12 28  1  0  0  0  0
 13 14  1  0  0  0  0
 13 29  1  0  0  0  0
 13 30  1  0  0  0  0
 14 15  1  0  0  0  0
 14 31  1  0  0  0  0
 14 32  1  0  0  0  0
 15 16  1  0  0  0  0
 15 17  1  0  0  0  0
 15 33  1  0  0  0  0
 16 34  1  0  0  0  0
 17 18  1  0  0  0  0
 17 35  1  0  0  0  0
 17 36  1  0  0  0  0
 18 37  1  0  0  0  0
 18 38  1  0  0  0  0
 19 20  2  0  0  0  0
 19 39  1  0  0  0  0
M  END
> <s_m_source_file>
AV-unprocessed.smi

> <i_m_source_file_index>
1195

> <i_lp_mmshare_version>
43012

> <i_f3d_flags>
0

> <s_epik_input>
W05IMl1DKD1PKVtDSDJdbjFbY0hdYyhbY0hdbjEpW05IXUMoPU8pW05IXVtDQEBIXTJbQ0gyXVtDSDJdW0NAQEhdKFtPSF0pW0NIMl1bQ0gyXTI=

> <s_epik_cmdline>
J2VwaWtfcHl0aG9uJywgJy1waCcsICc3LjAnLCAnLXRuJywgJzgnLCAnLW1hJywgJzIwMCcsICctbWV0YWxfYmluZGluZycsICctaW1hZScsICc8aW5maWxlLm1hZT4nLCAnLW9tYWUnLCAnPG91dGZpbGUubWFlPic=

> <r_lp_tautomer_probability>
1

> <r_epik_Ionization_Penalty>
4.75851e-05

> <r_epik_Ionization_Penalty_Charging>
0

> <r_epik_Ionization_Penalty_Neutral>
4.75851e-05

> <r_epik_State_Penalty>
-0

> <r_epik_Charging_Adjusted_Penalty>
0

> <i_epik_Tot_Q>
0

> <i_epik_Tot_abs_Q>
0

> <r_epik_Metal_State_Penalty>
-0

> <b_epik_Metal_Only>
0

> <s_lp_Force_Field>
OPLS_2005

> <r_lp_Energy>
13.1232

> <b_lp_Chiralities_Consistent>
1

> <s_lp_Variant>
AV-unprocessed.smi:1195-1

> <Gold.Version>
5.8.1

> <Gold.Id.Protein>
6NUR|6NUR_protein|mol2

> <Gold.PLP.Fitness>
48.6138

> <Gold.PLP.PLP>
-35.5218

> <Gold.PLP.part.hbond>
-5.6744

> <Gold.PLP.part.metal>
0.0000

> <Gold.PLP.part.buried>
-2.0740

> <Gold.PLP.part.nonpolar>
-27.4548

> <Gold.PLP.part.repulsive>
0.2608

> <Gold.PLP.ligand.clash>
0.0000

> <Gold.PLP.ligand.torsion>
0.3769

> <Gold.PLP.Chemscore.Hbond>
4.6128

> <Gold.PLP.Chemscore.CHOScore>
0.0000

> <Gold.PLP.Chemscore.Metal>
0.0000

> <Gold.Chemscore.Hbonds>
donor molecule, donor type, donor heavy atom, donor atom, acceptor molecule, acceptor atom, score
      L1  H     1    21       P1 10737  0.93
      L1  H     8    26       P1  7948  0.60
      L1  H    11    27       P1  7948  1.00
      L1  H    16    34       P1 10186  1.00
      P1  H 10785 10796       L1    16  0.72

> <Gold.PLP.Chemscore.Internal.Correction>
0.0074

> <Gold.Rescore>
     Score         DG    S(hbond)    S(metal)    S(lipo)     H(rot)  DE(clash)    DE(int)     intcor
     14.67     -16.25       2.84        0.00      68.41       2.62       0.03       1.55       ----

> <Gold.Chemscore.Fitness>
14.6676

> <Gold.Chemscore.DG>
-16.2549

> <Gold.Chemscore.ZeroCoef>
-5.4800

> <Gold.Chemscore.Hbond>
2.8388

> <Gold.Chemscore.Metal>
0.0000

> <Gold.Chemscore.Lipo>
68.4056

> <Gold.Chemscore.Internal_Hbond>
0.0000

> <Gold.Chemscore.DEClash>
0.0334

> <Gold.Chemscore.DEInternal>
1.5539

> <Gold.Chemscore.Rot>
2.6212

> <Gold.Chemscore.Internal.Correction>
   9.000000E+99

> <Gold.Chemscore.Hbonds>
donor molecule, donor type, donor heavy atom, donor atom, acceptor molecule, acceptor atom, score
      L1  H     1    21       P1 10737  0.84
      L1  H     8    26       P1  7948  0.06
      L1  H    11    27       P1  7948  0.84
      L1  H    16    34       P1 10186  0.98
      P1  H 10785 10796       L1    16  0.09

> <Gold.Chemscore.Hbond.Weighted>
-9.4817

> <Gold.Chemscore.Metal.Weighted>
-0.0000

> <Gold.Chemscore.Lipo.Weighted>
-8.0035

> <Gold.Chemscore.Internal_Hbond.Weighted>
0.0000

> <Gold.Chemscore.DEClash.Weighted>
0.0334

> <Gold.Chemscore.DEInternal.Weighted>
1.5539

> <Gold.Chemscore.Rot.Weighted>
6.7103

> <Gold.Chemscore.Internal.Correction.Weighted>
   9.000000E+99

> <Gold.Protein.RotatedTorsions>
[ 6907 6896 6895 6894 ] final  -43.71 input  -60.11 | X-H torsion
[ 7974 7965 7964 7962 ] final -107.72 input  175.53 | X-H torsion
[ 8008 7997 7996 7995 ] final  -26.46 input   59.86 | X-H torsion
[ 10167 10162 10161 10158 ] final  -73.37 input  -65.29 | X-H torsion
[ 10718 10713 10712 10709 ] final -125.97 input   66.30 | X-H torsion
[ 10763 10752 10751 10750 ] final -156.07 input  -60.55 | X-H torsion
[ 11005 11000 10999 10996 ] final  155.45 input  -57.11 | X-H torsion

> <Gold.Protein.ActiveResidues>
 VAL166  LYS551  ARG553  GLY616  TRP617  ASP618  TYR619  PRO620  LYS621  CYS622 
 ASP623  PHE694  ASN695  SER759  ASP760  ASP761  ALA762  ILE779  LEU786  VAL792 
 PHE793  MET794  SER795  GLU796  ALA797  LYS798  CYS799  TRP800  GLU811  SER814 

> <Gold.Protein.RotatedAtoms>
  150.9408  134.8817  159.7610 H   0  0  0  0  0  0  0  0  0  0  0  0  # atno 6907 bound_to 6896
  152.5079  134.3944  159.9405 H   0  0  0  0  0  0  0  0  0  0  0  0  # atno 6908 bound_to 6896
  151.3965  133.3731  159.2762 H   0  0  0  0  0  0  0  0  0  0  0  0  # atno 6909 bound_to 6896
  145.2018  140.9059  143.3365 H   0  0  0  0  0  0  0  0  0  0  0  0  # atno 7974 bound_to 7965
  154.4424  140.1898  156.0779 H   0  0  0  0  0  0  0  0  0  0  0  0  # atno 8008 bound_to 7997
  156.0461  140.3314  155.7271 H   0  0  0  0  0  0  0  0  0  0  0  0  # atno 8009 bound_to 7997
  155.5627  140.0605  157.2816 H   0  0  0  0  0  0  0  0  0  0  0  0  # atno 8010 bound_to 7997
  140.5116  143.2344  151.7584 H   0  0  0  0  0  0  0  0  0  0  0  0  # atno 10167 bound_to 10162
  156.1723  130.6676  151.0196 H   0  0  0  0  0  0  0  0  0  0  0  0  # atno 10718 bound_to 10713
  154.7740  135.3154  154.8130 H   0  0  0  0  0  0  0  0  0  0  0  0  # atno 10763 bound_to 10752
  153.8858  135.6830  153.4768 H   0  0  0  0  0  0  0  0  0  0  0  0  # atno 10764 bound_to 10752
  153.1360  135.4759  154.9358 H   0  0  0  0  0  0  0  0  0  0  0  0  # atno 10765 bound_to 10752
  140.1583  134.8627  157.2542 H   0  0  0  0  0  0  0  0  0  0  0  0  # atno 11005 bound_to 11000
  144.9940  139.3662  143.6200 LP  0  0  0  0  0  0  0  0  0  0  0  0  # atno 17320 bound_to 7965
  146.3416  139.9135  142.8777 LP  0  0  0  0  0  0  0  0  0  0  0  0  # atno 17321 bound_to 7965
  139.4897  144.4383  151.9794 LP  0  0  0  0  0  0  0  0  0  0  0  0  # atno 17342 bound_to 10162
  140.3475  144.3129  150.5955 LP  0  0  0  0  0  0  0  0  0  0  0  0  # atno 17343 bound_to 10162
  157.6811  131.0837  150.7367 LP  0  0  0  0  0  0  0  0  0  0  0  0  # atno 17370 bound_to 10713
  156.7425  130.4743  149.5474 LP  0  0  0  0  0  0  0  0  0  0  0  0  # atno 17371 bound_to 10713
  140.2521  134.3671  155.7438 LP  0  0  0  0  0  0  0  0  0  0  0  0  # atno 17394 bound_to 11000
  141.2207  133.7322  156.8951 LP  0  0  0  0  0  0  0  0  0  0  0  0  # atno 17395 bound_to 11000

$$$$
