AV-unprocessed.smi:2774|AV-procd|sdf|10687|dock4
  -GOLD-   2272015133D 1   1.00000     0.00000
 Structure written by MMmdl.
 34 35  0  0  0  0  0  0  0  0  1 V2000
  151.6073  140.1610  155.2685 O   0  0  0  0  0  0  0  0  0  0  0  0
  150.4270  140.7979  155.7179 C   0  0  1  0  0  0  0  0  0  0  0  0
  150.6967  142.3047  155.8977 C   0  0  0  0  0  0  0  0  0  0  0  0
  150.1939  142.8052  157.1796 N   0  0  0  0  0  0  0  0  0  0  0  0
  151.2014  143.3442  158.0966 C   0  0  1  0  0  0  0  0  0  0  0  0
  150.7203  144.6468  158.7789 C   0  0  0  0  0  0  0  0  0  0  0  0
  151.7745  145.2546  159.7191 C   0  0  0  0  0  0  0  0  0  0  0  0
  152.1607  144.3094  160.8639 C   0  0  0  0  0  0  0  0  0  0  0  0
  152.9047  142.7871  160.2241 S   0  0  0  0  0  0  0  0  0  0  0  0
  151.5461  142.2670  159.1420 C   0  0  0  0  0  0  0  0  0  0  0  0
  149.2010  140.4962  154.8639 C   0  0  0  0  0  0  0  0  0  0  0  0
  148.3144  141.5165  154.4529 C   0  0  0  0  0  0  0  0  0  0  0  0
  147.1964  141.1644  153.6712 C   0  0  0  0  0  0  0  0  0  0  0  0
  146.9271  139.8977  153.2894 N   0  0  0  0  0  0  0  0  0  0  0  0
  147.7765  138.9261  153.6858 C   0  0  0  0  0  0  0  0  0  0  0  0
  148.9214  139.1707  154.4699 C   0  0  0  0  0  0  0  0  0  0  0  0
  151.4389  139.2334  155.2051 H   0  0  0  0  0  0  0  0  0  0  0  0
  150.2357  140.3797  156.7070 H   0  0  0  0  0  0  0  0  0  0  0  0
  151.7718  142.4792  155.8432 H   0  0  0  0  0  0  0  0  0  0  0  0
  150.2531  142.8452  155.0623 H   0  0  0  0  0  0  0  0  0  0  0  0
  149.4767  143.5032  157.0088 H   0  0  0  0  0  0  0  0  0  0  0  0
  152.1076  143.5631  157.5299 H   0  0  0  0  0  0  0  0  0  0  0  0
  150.4740  145.4005  158.0323 H   0  0  0  0  0  0  0  0  0  0  0  0
  149.8011  144.4566  159.3351 H   0  0  0  0  0  0  0  0  0  0  0  0
  152.6642  145.5243  159.1489 H   0  0  0  0  0  0  0  0  0  0  0  0
  151.3875  146.1840  160.1378 H   0  0  0  0  0  0  0  0  0  0  0  0
  152.8742  144.7942  161.5302 H   0  0  0  0  0  0  0  0  0  0  0  0
  151.2845  144.0553  161.4613 H   0  0  0  0  0  0  0  0  0  0  0  0
  150.6755  142.0327  159.7560 H   0  0  0  0  0  0  0  0  0  0  0  0
  151.8454  141.3416  158.6481 H   0  0  0  0  0  0  0  0  0  0  0  0
  148.4769  142.5463  154.7346 H   0  0  0  0  0  0  0  0  0  0  0  0
  146.4988  141.9215  153.3448 H   0  0  0  0  0  0  0  0  0  0  0  0
  147.5366  137.9219  153.3689 H   0  0  0  0  0  0  0  0  0  0  0  0
  149.5674  138.3560  154.7631 H   0  0  0  0  0  0  0  0  0  0  0  0
  1  2  1  0  0  0  0
  1 17  1  0  0  0  0
  2  3  1  0  0  0  0
  2 11  1  0  0  0  0
  2 18  1  0  0  0  0
  3  4  1  0  0  0  0
  3 19  1  0  0  0  0
  3 20  1  0  0  0  0
  4  5  1  0  0  0  0
  4 21  1  0  0  0  0
  5 10  1  0  0  0  0
  5  6  1  0  0  0  0
  5 22  1  0  0  0  0
  6  7  1  0  0  0  0
  6 23  1  0  0  0  0
  6 24  1  0  0  0  0
  7  8  1  0  0  0  0
  7 25  1  0  0  0  0
  7 26  1  0  0  0  0
  8  9  1  0  0  0  0
  8 27  1  0  0  0  0
  8 28  1  0  0  0  0
  9 10  1  0  0  0  0
 10 29  1  0  0  0  0
 10 30  1  0  0  0  0
 11 16  1  0  0  0  0
 11 12  2  0  0  0  0
 12 13  1  0  0  0  0
 12 31  1  0  0  0  0
 13 14  2  0  0  0  0
 13 32  1  0  0  0  0
 14 15  1  0  0  0  0
 15 16  2  0  0  0  0
 15 33  1  0  0  0  0
 16 34  1  0  0  0  0
M  END
> <s_m_source_file>
AV-unprocessed.smi

> <i_m_source_file_index>
2774

> <i_lp_mmshare_version>
43012

> <i_f3d_flags>
0

> <s_epik_input>
W2NIXTFbY0hdbltjSF1bY0hdYzFbQ0BIXShbT0hdKVtDSDJdW05IXVtDQEBIXTJbQ0gyXVtDSDJdW0NIMl1TW0NIMl0y

> <s_epik_cmdline>
J2VwaWtfcHl0aG9uJywgJy1waCcsICc3LjAnLCAnLXRuJywgJzgnLCAnLW1hJywgJzIwMCcsICctbWV0YWxfYmluZGluZycsICctaW1hZScsICc8aW5maWxlLm1hZT4nLCAnLW9tYWUnLCAnPG91dGZpbGUubWFlPic=

> <r_epik_Ionization_Penalty>
2.08116

> <r_epik_Ionization_Penalty_Charging>
0

> <r_epik_Ionization_Penalty_Neutral>
2.08116

> <r_epik_State_Penalty>
2.1944

> <r_epik_Charging_Adjusted_Penalty>
2.1944

> <i_epik_Tot_Q>
0

> <i_epik_Tot_abs_Q>
0

> <r_epik_Metal_State_Penalty>
2.1769

> <b_epik_Metal_Only>
0

> <s_lp_Force_Field>
OPLS_2005

> <r_lp_Energy>
17.4731

> <b_lp_Chiralities_Consistent>
1

> <s_lp_Variant>
AV-unprocessed.smi:2774-8

> <Gold.Version>
5.8.1

> <Gold.Id.Protein>
6NUR|6NUR_protein|mol2

> <Gold.PLP.Fitness>
42.1867

> <Gold.PLP.PLP>
-37.7371

> <Gold.PLP.part.hbond>
-2.0000

> <Gold.PLP.part.metal>
0.0000

> <Gold.PLP.part.buried>
-3.6999

> <Gold.PLP.part.nonpolar>
-31.7030

> <Gold.PLP.part.repulsive>
0.2160

> <Gold.PLP.ligand.clash>
0.0000

> <Gold.PLP.ligand.torsion>
1.7952

> <Gold.PLP.Chemscore.Hbond>
1.6672

> <Gold.PLP.Chemscore.CHOScore>
0.9918

> <Gold.PLP.Chemscore.Metal>
0.0000

> <Gold.Chemscore.Hbonds>
donor molecule, donor type, donor heavy atom, donor atom, acceptor molecule, acceptor atom, score
      L1  H     4    21       P1  8028  0.83
      P1  H  7989  7998       L1     1  0.91
      L1  C    15    33       P1  7948  0.65

> <Gold.PLP.Chemscore.Internal.Correction>
0.0630

> <Gold.Rescore>
     Score         DG    S(hbond)    S(metal)    S(lipo)     H(rot)  DE(clash)    DE(int)     intcor
     16.68     -18.47       1.71        0.00     103.62       1.89       0.39       1.39       ----

> <Gold.Chemscore.Fitness>
16.6822

> <Gold.Chemscore.DG>
-18.4655

> <Gold.Chemscore.ZeroCoef>
-5.4800

> <Gold.Chemscore.Hbond>
1.7087

> <Gold.Chemscore.Metal>
0.0000

> <Gold.Chemscore.Lipo>
103.6249

> <Gold.Chemscore.Internal_Hbond>
0.0000

> <Gold.Chemscore.DEClash>
0.3885

> <Gold.Chemscore.DEInternal>
1.3947

> <Gold.Chemscore.Rot>
1.8928

> <Gold.Chemscore.Internal.Correction>
   9.000000E+99

> <Gold.Chemscore.Hbonds>
donor molecule, donor type, donor heavy atom, donor atom, acceptor molecule, acceptor atom, score
      L1  H     4    21       P1  8028  0.77
      P1  H  7989  7998       L1     1  0.13

> <Gold.Chemscore.Hbond.Weighted>
-5.7069

> <Gold.Chemscore.Metal.Weighted>
-0.0000

> <Gold.Chemscore.Lipo.Weighted>
-12.1241

> <Gold.Chemscore.Internal_Hbond.Weighted>
0.0000

> <Gold.Chemscore.DEClash.Weighted>
0.3885

> <Gold.Chemscore.DEInternal.Weighted>
1.3947

> <Gold.Chemscore.Rot.Weighted>
4.8455

> <Gold.Chemscore.Internal.Correction.Weighted>
   9.000000E+99

> <Gold.Protein.RotatedTorsions>
[ 6907 6896 6895 6894 ] final   30.60 input  -60.11 | X-H torsion
[ 7974 7965 7964 7962 ] final -176.75 input  175.53 | X-H torsion
[ 8008 7997 7996 7995 ] final -140.90 input   59.86 | X-H torsion
[ 10167 10162 10161 10158 ] final -113.24 input  -65.29 | X-H torsion
[ 10718 10713 10712 10709 ] final   96.48 input   66.30 | X-H torsion
[ 10763 10752 10751 10750 ] final  -40.12 input  -60.55 | X-H torsion
[ 11005 11000 10999 10996 ] final  160.62 input  -57.11 | X-H torsion

> <Gold.Protein.ActiveResidues>
 VAL166  LYS551  ARG553  GLY616  TRP617  ASP618  TYR619  PRO620  LYS621  CYS622 
 ASP623  PHE694  ASN695  SER759  ASP760  ASP761  ALA762  ILE779  LEU786  VAL792 
 PHE793  MET794  SER795  GLU796  ALA797  LYS798  CYS799  TRP800  GLU811  SER814 

> <Gold.Protein.RotatedAtoms>
  152.0483  134.9669  160.0574 H   0  0  0  0  0  0  0  0  0  0  0  0  # atno 6907 bound_to 6896
  152.1080  133.4281  159.4626 H   0  0  0  0  0  0  0  0  0  0  0  0  # atno 6908 bound_to 6896
  150.6842  134.2600  159.4589 H   0  0  0  0  0  0  0  0  0  0  0  0  # atno 6909 bound_to 6896
  144.7127  140.1124  143.6410 H   0  0  0  0  0  0  0  0  0  0  0  0  # atno 7974 bound_to 7965
  155.4690  140.0551  157.2982 H   0  0  0  0  0  0  0  0  0  0  0  0  # atno 8008 bound_to 7997
  154.4706  140.2038  155.9958 H   0  0  0  0  0  0  0  0  0  0  0  0  # atno 8009 bound_to 7997
  156.1049  140.3213  155.7997 H   0  0  0  0  0  0  0  0  0  0  0  0  # atno 8010 bound_to 7997
  140.1140  143.4502  152.1734 H   0  0  0  0  0  0  0  0  0  0  0  0  # atno 10167 bound_to 10162
  157.6926  131.0579  150.4497 H   0  0  0  0  0  0  0  0  0  0  0  0  # atno 10718 bound_to 10713
  153.9407  135.6761  153.4744 H   0  0  0  0  0  0  0  0  0  0  0  0  # atno 10763 bound_to 10752
  153.0933  135.4864  154.8728 H   0  0  0  0  0  0  0  0  0  0  0  0  # atno 10764 bound_to 10752
  154.7378  135.3153  154.8739 H   0  0  0  0  0  0  0  0  0  0  0  0  # atno 10765 bound_to 10752
  140.2078  134.8290  157.3088 H   0  0  0  0  0  0  0  0  0  0  0  0  # atno 11005 bound_to 11000
  145.9443  139.2690  143.1250 LP  0  0  0  0  0  0  0  0  0  0  0  0  # atno 17320 bound_to 7965
  145.9390  140.8993  143.0317 LP  0  0  0  0  0  0  0  0  0  0  0  0  # atno 17321 bound_to 7965
  139.5604  144.7402  151.4172 LP  0  0  0  0  0  0  0  0  0  0  0  0  # atno 17342 bound_to 10162
  140.6910  143.7862  150.7255 LP  0  0  0  0  0  0  0  0  0  0  0  0  # atno 17343 bound_to 10162
  156.4850  130.4082  149.6440 LP  0  0  0  0  0  0  0  0  0  0  0  0  # atno 17370 bound_to 10713
  156.3471  130.7412  151.2367 LP  0  0  0  0  0  0  0  0  0  0  0  0  # atno 17371 bound_to 10713
  140.1984  134.4285  155.7676 LP  0  0  0  0  0  0  0  0  0  0  0  0  # atno 17394 bound_to 11000
  141.2227  133.7060  156.8143 LP  0  0  0  0  0  0  0  0  0  0  0  0  # atno 17395 bound_to 11000

$$$$
