AV-unprocessed.smi:72|AV-procd|sdf|671|dock3
  -GOLD-   2262016573D 1   1.00000     0.00000
 Structure written by MMmdl.
 29 30  0  0  0  0  0  0  0  0  1 V2000
  152.9957  136.6831  159.4466 N   0  0  0  0  0  0  0  0  0  0  0  0
  152.4856  137.2635  158.4197 C   0  0  0  0  0  0  0  0  0  0  0  0
  151.1333  137.6075  158.2719 N   0  0  0  0  0  0  0  0  0  0  0  0
  150.7580  138.1976  157.1792 C   0  0  0  0  0  0  0  0  0  0  0  0
  151.6921  138.5174  156.1106 N   0  0  0  0  0  0  0  0  0  0  0  0
  151.2185  139.2148  154.8522 C   0  0  2  0  0  0  0  0  0  0  0  0
  150.5659  140.3897  155.2236 O   0  0  0  0  0  0  0  0  0  0  0  0
  149.4302  140.5827  154.3947 C   0  0  2  0  0  0  0  0  0  0  0  0
  148.4188  141.4784  155.1275 C   0  0  0  0  0  0  0  0  0  0  0  0
  148.2105  142.6797  154.4165 O   0  0  0  0  0  0  0  0  0  0  0  0
  148.9429  139.1579  154.1051 C   0  0  1  0  0  0  0  0  0  0  0  0
  148.2399  139.1099  152.8795 O   0  0  0  0  0  0  0  0  0  0  0  0
  150.2408  138.3648  154.0075 C   0  0  2  0  0  0  0  0  0  0  0  0
  150.0582  137.0385  154.4700 O   0  0  0  0  0  0  0  0  0  0  0  0
  153.0570  138.1618  156.2357 C   0  0  0  0  0  0  0  0  0  0  0  0
  153.8837  138.3795  155.3506 O   0  0  0  0  0  0  0  0  0  0  0  0
  153.3953  137.5525  157.3929 N   0  0  0  0  0  0  0  0  0  0  0  0
  152.1106  139.4972  154.2919 H   0  0  0  0  0  0  0  0  0  0  0  0
  149.7786  141.0636  153.4783 H   0  0  0  0  0  0  0  0  0  0  0  0
  148.3216  138.7923  154.9243 H   0  0  0  0  0  0  0  0  0  0  0  0
  150.6179  138.3486  152.9838 H   0  0  0  0  0  0  0  0  0  0  0  0
  153.9866  136.5396  159.3174 H   0  0  0  0  0  0  0  0  0  0  0  0
  149.7238  138.4873  156.9876 H   0  0  0  0  0  0  0  0  0  0  0  0
  147.4688  140.9631  155.2704 H   0  0  0  0  0  0  0  0  0  0  0  0
  148.7973  141.7348  156.1173 H   0  0  0  0  0  0  0  0  0  0  0  0
  148.5463  143.3966  154.9322 H   0  0  0  0  0  0  0  0  0  0  0  0
  148.8503  139.2681  152.1760 H   0  0  0  0  0  0  0  0  0  0  0  0
  149.6742  136.5285  153.7735 H   0  0  0  0  0  0  0  0  0  0  0  0
  154.3619  137.2878  157.5134 H   0  0  0  0  0  0  0  0  0  0  0  0
  1  2  2  0  0  0  0
  1 22  1  0  0  0  0
  2 17  1  0  0  0  0
  2  3  1  0  0  0  0
  3  4  2  0  0  0  0
  4  5  1  0  0  0  0
  4 23  1  0  0  0  0
  5  6  1  0  0  0  0
  5 15  1  0  0  0  0
  6 18  1  0  0  0  0
  6 13  1  0  0  0  0
  6  7  1  0  0  0  0
  7  8  1  0  0  0  0
  8 19  1  0  0  0  0
  8  9  1  0  0  0  0
  8 11  1  0  0  0  0
  9 10  1  0  0  0  0
  9 24  1  0  0  0  0
  9 25  1  0  0  0  0
 10 26  1  0  0  0  0
 11 20  1  0  0  0  0
 11 12  1  0  0  0  0
 11 13  1  0  0  0  0
 12 27  1  0  0  0  0
 13 21  1  0  0  0  0
 13 14  1  0  0  0  0
 14 28  1  0  0  0  0
 15 16  2  0  0  0  0
 15 17  1  0  0  0  0
 17 29  1  0  0  0  0
M  END
> <s_m_source_file>
AV-unprocessed.smi

> <i_m_source_file_index>
72

> <i_lp_mmshare_version>
43012

> <i_f3d_flags>
0

> <s_epik_input>
W05IMl1jMW5bY0hdbihjKD1PKW4xKVtDQEBIXTJPW0NASF0oW0NIMl1bT0hdKVtDQEBIXShbT0hdKVtDQEhdMltPSF0=

> <s_epik_cmdline>
J2VwaWtfcHl0aG9uJywgJy1waCcsICc3LjAnLCAnLXRuJywgJzgnLCAnLW1hJywgJzIwMCcsICctbWV0YWxfYmluZGluZycsICctaW1hZScsICc8aW5maWxlLm1hZT4nLCAnLW9tYWUnLCAnPG91dGZpbGUubWFlPic=

> <r_lp_tautomer_probability>
7.17554e-07

> <r_epik_Ionization_Penalty>
0.0066451

> <r_epik_Ionization_Penalty_Charging>
0.00663793

> <r_epik_Ionization_Penalty_Neutral>
7.17052e-06

> <r_epik_State_Penalty>
0.419231

> <r_epik_Charging_Adjusted_Penalty>
0.425868

> <i_epik_Tot_Q>
0

> <i_epik_Tot_abs_Q>
0

> <r_epik_Metal_State_Penalty>
1.44144

> <b_epik_Metal_Only>
0

> <s_epik_Chemistry_Notes>
This compound contains an acetal/aminal-like group ( X-CH(R)-Y where X, Y are N, S, or O) that may be acid/base labile, releasing an aldehyde.

> <s_lp_Force_Field>
OPLS_2005

> <r_lp_Energy>
42.2993

> <b_lp_Chiralities_Consistent>
1

> <s_lp_Variant>
AV-unprocessed.smi:72-9

> <Gold.Version>
5.8.1

> <Gold.Id.Protein>
6NUR|6NUR_protein|mol2

> <Gold.PLP.Fitness>
38.7187

> <Gold.PLP.PLP>
-26.7327

> <Gold.PLP.part.hbond>
-8.2691

> <Gold.PLP.part.metal>
0.0000

> <Gold.PLP.part.buried>
-2.0613

> <Gold.PLP.part.nonpolar>
-16.4777

> <Gold.PLP.part.repulsive>
0.2069

> <Gold.PLP.ligand.clash>
0.0000

> <Gold.PLP.ligand.torsion>
0.8006

> <Gold.PLP.Chemscore.Hbond>
4.4935

> <Gold.PLP.Chemscore.CHOScore>
0.0000

> <Gold.PLP.Chemscore.Metal>
0.0000

> <Gold.Chemscore.Hbonds>
donor molecule, donor type, donor heavy atom, donor atom, acceptor molecule, acceptor atom, score
      L1  H    10    26       P1  8028  0.98
      L1  H    12    27       P1  7957  0.84
      L1  H    14    28       P1  7948  0.99
      P1  H  6896  6907       L1     1  1.00
      P1  H  7997  8010       L1    16  0.61

> <Gold.PLP.Chemscore.Internal.Correction>
0.1066

> <Gold.Rescore>
     Score         DG    S(hbond)    S(metal)    S(lipo)     H(rot)  DE(clash)    DE(int)     intcor
     10.52     -12.44       4.30        0.00      25.56       4.06       0.01       1.91       ----

> <Gold.Chemscore.Fitness>
10.5215

> <Gold.Chemscore.DG>
-12.4442

> <Gold.Chemscore.ZeroCoef>
-5.4800

> <Gold.Chemscore.Hbond>
4.3017

> <Gold.Chemscore.Metal>
0.0000

> <Gold.Chemscore.Lipo>
25.5572

> <Gold.Chemscore.Internal_Hbond>
0.0000

> <Gold.Chemscore.DEClash>
0.0126

> <Gold.Chemscore.DEInternal>
1.9100

> <Gold.Chemscore.Rot>
4.0600

> <Gold.Chemscore.Internal.Correction>
   9.000000E+99

> <Gold.Chemscore.Hbonds>
donor molecule, donor type, donor heavy atom, donor atom, acceptor molecule, acceptor atom, score
      L1  H    10    26       P1  8028  0.91
      L1  H    12    27       P1  7957  0.82
      L1  H    14    28       P1  7948  0.54
      P1  H  6896  6907       L1     1  0.73
      P1  H  7997  8010       L1    16  0.24

> <Gold.Chemscore.Hbond.Weighted>
-14.3676

> <Gold.Chemscore.Metal.Weighted>
-0.0000

> <Gold.Chemscore.Lipo.Weighted>
-2.9902

> <Gold.Chemscore.Internal_Hbond.Weighted>
0.0000

> <Gold.Chemscore.DEClash.Weighted>
0.0126

> <Gold.Chemscore.DEInternal.Weighted>
1.9100

> <Gold.Chemscore.Rot.Weighted>
10.3936

> <Gold.Chemscore.Internal.Correction.Weighted>
   9.000000E+99

> <Gold.Protein.RotatedTorsions>
[ 6907 6896 6895 6894 ] final   30.80 input  -60.11 | X-H torsion
[ 7974 7965 7964 7962 ] final  138.73 input  175.53 | X-H torsion
[ 8008 7997 7996 7995 ] final  111.94 input   59.86 | X-H torsion
[ 10167 10162 10161 10158 ] final  -61.16 input  -65.29 | X-H torsion
[ 10718 10713 10712 10709 ] final -130.93 input   66.30 | X-H torsion
[ 10763 10752 10751 10750 ] final  108.62 input  -60.55 | X-H torsion
[ 11005 11000 10999 10996 ] final  -91.84 input  -57.11 | X-H torsion

> <Gold.Protein.ActiveResidues>
 VAL166  LYS551  ARG553  GLY616  TRP617  ASP618  TYR619  PRO620  LYS621  CYS622 
 ASP623  PHE694  ASN695  SER759  ASP760  ASP761  ALA762  ILE779  LEU786  VAL792 
 PHE793  MET794  SER795  GLU796  ALA797  LYS798  CYS799  TRP800  GLU811  SER814 

> <Gold.Protein.RotatedAtoms>
  152.0511  134.9653  160.0574 H   0  0  0  0  0  0  0  0  0  0  0  0  # atno 6907 bound_to 6896
  152.1053  133.4267  159.4614 H   0  0  0  0  0  0  0  0  0  0  0  0  # atno 6908 bound_to 6896
  150.6841  134.2631  159.4601 H   0  0  0  0  0  0  0  0  0  0  0  0  # atno 6909 bound_to 6896
  144.9344  139.5007  143.5602 H   0  0  0  0  0  0  0  0  0  0  0  0  # atno 7974 bound_to 7965
  156.2158  140.3009  155.9837 H   0  0  0  0  0  0  0  0  0  0  0  0  # atno 8008 bound_to 7997
  155.2608  140.0429  157.3014 H   0  0  0  0  0  0  0  0  0  0  0  0  # atno 8009 bound_to 7997
  154.5766  140.2363  155.8122 H   0  0  0  0  0  0  0  0  0  0  0  0  # atno 8010 bound_to 7997
  140.6024  143.2365  151.5898 H   0  0  0  0  0  0  0  0  0  0  0  0  # atno 10167 bound_to 10162
  156.2193  130.6968  151.0738 H   0  0  0  0  0  0  0  0  0  0  0  0  # atno 10718 bound_to 10713
  153.4232  135.3806  155.2124 H   0  0  0  0  0  0  0  0  0  0  0  0  # atno 10763 bound_to 10752
  154.8746  135.3822  154.4359 H   0  0  0  0  0  0  0  0  0  0  0  0  # atno 10764 bound_to 10752
  153.4882  135.7088  153.5962 H   0  0  0  0  0  0  0  0  0  0  0  0  # atno 10765 bound_to 10752
  141.1536  133.7781  156.9935 H   0  0  0  0  0  0  0  0  0  0  0  0  # atno 11005 bound_to 11000
  146.3260  139.8319  142.8907 LP  0  0  0  0  0  0  0  0  0  0  0  0  # atno 17320 bound_to 7965
  145.3090  141.0214  143.3565 LP  0  0  0  0  0  0  0  0  0  0  0  0  # atno 17321 bound_to 7965
  139.5301  144.2943  152.1127 LP  0  0  0  0  0  0  0  0  0  0  0  0  # atno 17342 bound_to 10162
  140.2126  144.4547  150.6379 LP  0  0  0  0  0  0  0  0  0  0  0  0  # atno 17343 bound_to 10162
  157.7079  131.0748  150.6602 LP  0  0  0  0  0  0  0  0  0  0  0  0  # atno 17370 bound_to 10713
  156.6665  130.4527  149.5671 LP  0  0  0  0  0  0  0  0  0  0  0  0  # atno 17371 bound_to 10713
  140.0987  134.9549  157.1889 LP  0  0  0  0  0  0  0  0  0  0  0  0  # atno 17394 bound_to 11000
  140.3348  134.2770  155.7222 LP  0  0  0  0  0  0  0  0  0  0  0  0  # atno 17395 bound_to 11000

$$$$
