AV-unprocessed.smi:213|AV-procd|sdf|1638|dock1
  -GOLD-   2262020 03D 1   1.00000     0.00000
 Structure written by MMmdl.
 59 62  0  0  0  0  0  0  0  0  2 V2000
  150.5737  131.9819  155.9307 C   0  0  0  0  0  0  0  0  0  0  0  0
  149.8489  133.1291  155.2030 C   0  0  1  0  0  0  0  0  0  0  0  0
  148.6667  132.6291  154.3426 C   0  0  0  0  0  0  0  0  0  0  0  0
  147.9013  133.7359  153.7137 N   0  3  0  0  0  0  0  0  0  0  0  0
  147.0917  133.2804  152.5582 C   0  0  0  0  0  0  0  0  0  0  0  0
  146.3676  134.4698  151.9048 C   0  0  0  0  0  0  0  0  0  0  0  0
  145.5601  135.1270  152.8733 O   0  0  0  0  0  0  0  0  0  0  0  0
  146.3342  135.6466  153.9470 C   0  0  0  0  0  0  0  0  0  0  0  0
  147.0562  134.4959  154.6684 C   0  0  0  0  0  0  0  0  0  0  0  0
  149.4162  134.1583  156.1567 N   0  0  0  0  0  0  0  0  0  0  0  0
  148.5480  133.8164  157.2801 C   0  0  0  0  0  0  0  0  0  0  0  0
  150.1669  135.2864  156.2525 C   0  0  0  0  0  0  0  0  0  0  0  0
  150.9088  135.6471  155.1725 N   0  0  0  0  0  0  0  0  0  0  0  0
  151.6594  136.7520  155.2043 C   0  0  0  0  0  0  0  0  0  0  0  0
  151.8144  137.6263  156.1994 N   0  0  0  0  0  0  0  0  0  0  0  0
  151.0772  137.2697  157.2893 C   0  0  0  0  0  0  0  0  0  0  0  0
  150.2317  136.1287  157.4024 C   0  0  0  0  0  0  0  0  0  0  0  0
  149.6577  136.0988  158.6696 N   0  0  0  0  0  0  0  0  0  0  0  0
  150.1296  137.1601  159.2647 C   0  0  0  0  0  0  0  0  0  0  0  0
  150.9926  137.9182  158.5079 N   0  0  0  0  0  0  0  0  0  0  0  0
  151.6692  139.1379  158.9125 C   0  0  0  0  0  0  0  0  0  0  0  0
  151.4094  140.3031  157.9373 C   0  0  2  0  0  0  0  0  0  0  0  0
  152.3395  140.2339  156.8728 O   0  0  0  0  0  0  0  0  0  0  0  0
  151.5352  141.6776  158.6197 C   0  0  1  0  0  0  0  0  0  0  0  0
  152.8915  141.9358  159.2810 C   0  0  0  0  0  0  0  0  0  0  0  0
  153.0357  143.4502  159.2443 C   0  0  0  0  0  0  0  0  0  0  0  0
  151.9229  143.9088  158.2992 C   0  0  0  0  0  0  0  0  0  0  0  0
  151.4754  142.7221  157.6606 O   0  0  0  0  0  0  0  0  0  0  0  0
  150.9945  131.2671  155.2236 H   0  0  0  0  0  0  0  0  0  0  0  0
  149.9008  131.4350  156.5915 H   0  0  0  0  0  0  0  0  0  0  0  0
  151.3980  132.3622  156.5352 H   0  0  0  0  0  0  0  0  0  0  0  0
  150.5810  133.5719  154.5300 H   0  0  0  0  0  0  0  0  0  0  0  0
  149.0525  131.9796  153.5565 H   0  0  0  0  0  0  0  0  0  0  0  0
  147.9887  132.0177  154.9408 H   0  0  0  0  0  0  0  0  0  0  0  0
  147.7338  132.7959  151.8217 H   0  0  0  0  0  0  0  0  0  0  0  0
  146.3653  132.5368  152.8904 H   0  0  0  0  0  0  0  0  0  0  0  0
  147.0825  135.1716  151.4718 H   0  0  0  0  0  0  0  0  0  0  0  0
  145.7309  134.1215  151.0913 H   0  0  0  0  0  0  0  0  0  0  0  0
  147.0487  136.3826  153.5744 H   0  0  0  0  0  0  0  0  0  0  0  0
  145.6726  136.1677  154.6391 H   0  0  0  0  0  0  0  0  0  0  0  0
  146.3248  133.8265  155.1241 H   0  0  0  0  0  0  0  0  0  0  0  0
  147.6606  134.9053  155.4767 H   0  0  0  0  0  0  0  0  0  0  0  0
  148.1256  134.7132  157.7346 H   0  0  0  0  0  0  0  0  0  0  0  0
  149.1013  133.2704  158.0444 H   0  0  0  0  0  0  0  0  0  0  0  0
  147.7133  133.1951  156.9592 H   0  0  0  0  0  0  0  0  0  0  0  0
  152.2146  136.9668  154.3031 H   0  0  0  0  0  0  0  0  0  0  0  0
  149.8647  137.4159  160.2804 H   0  0  0  0  0  0  0  0  0  0  0  0
  151.3242  139.3971  159.9142 H   0  0  0  0  0  0  0  0  0  0  0  0
  152.7382  138.9363  158.9937 H   0  0  0  0  0  0  0  0  0  0  0  0
  150.4083  140.2029  157.5155 H   0  0  0  0  0  0  0  0  0  0  0  0
  151.9579  139.7253  156.1739 H   0  0  0  0  0  0  0  0  0  0  0  0
  150.7324  141.8207  159.3461 H   0  0  0  0  0  0  0  0  0  0  0  0
  152.9472  141.5302  160.2916 H   0  0  0  0  0  0  0  0  0  0  0  0
  153.6914  141.4814  158.6945 H   0  0  0  0  0  0  0  0  0  0  0  0
  152.9118  143.8934  160.2329 H   0  0  0  0  0  0  0  0  0  0  0  0
  154.0200  143.7331  158.8698 H   0  0  0  0  0  0  0  0  0  0  0  0
  151.0970  144.3456  158.8626 H   0  0  0  0  0  0  0  0  0  0  0  0
  152.2655  144.6450  157.5718 H   0  0  0  0  0  0  0  0  0  0  0  0
  148.5840  134.3815  153.3428 H   0  0  0  0  0  0  0  0  0  0  0  0
  1  2  1  0  0  0  0
  1 29  1  0  0  0  0
  1 30  1  0  0  0  0
  1 31  1  0  0  0  0
  2  3  1  0  0  0  0
  2 10  1  0  0  0  0
  2 32  1  0  0  0  0
  3  4  1  0  0  0  0
  3 33  1  0  0  0  0
  3 34  1  0  0  0  0
  4  9  1  0  0  0  0
  4  5  1  0  0  0  0
  4 59  1  0  0  0  0
  5  6  1  0  0  0  0
  5 35  1  0  0  0  0
  5 36  1  0  0  0  0
  6  7  1  0  0  0  0
  6 37  1  0  0  0  0
  6 38  1  0  0  0  0
  7  8  1  0  0  0  0
  8  9  1  0  0  0  0
  8 39  1  0  0  0  0
  8 40  1  0  0  0  0
  9 41  1  0  0  0  0
  9 42  1  0  0  0  0
 10 11  1  0  0  0  0
 10 12  1  0  0  0  0
 11 43  1  0  0  0  0
 11 44  1  0  0  0  0
 11 45  1  0  0  0  0
 12 17  1  0  0  0  0
 12 13  2  0  0  0  0
 13 14  1  0  0  0  0
 14 15  2  0  0  0  0
 14 46  1  0  0  0  0
 15 16  1  0  0  0  0
 16 20  1  0  0  0  0
 16 17  2  0  0  0  0
 17 18  1  0  0  0  0
 18 19  2  0  0  0  0
 19 20  1  0  0  0  0
 19 47  1  0  0  0  0
 20 21  1  0  0  0  0
 21 22  1  0  0  0  0
 21 48  1  0  0  0  0
 21 49  1  0  0  0  0
 22 23  1  0  0  0  0
 22 24  1  0  0  0  0
 22 50  1  0  0  0  0
 23 51  1  0  0  0  0
 24 28  1  0  0  0  0
 24 25  1  0  0  0  0
 24 52  1  0  0  0  0
 25 26  1  0  0  0  0
 25 53  1  0  0  0  0
 25 54  1  0  0  0  0
 26 27  1  0  0  0  0
 26 55  1  0  0  0  0
 26 56  1  0  0  0  0
 27 28  1  0  0  0  0
 27 57  1  0  0  0  0
 27 58  1  0  0  0  0
M  CHG  1   4   1
M  END
> <s_m_source_file>
AV-unprocessed.smi

> <i_m_source_file_index>
213

> <i_lp_mmshare_version>
43012

> <i_f3d_flags>
0

> <s_epik_input>
W0NIMl0xW0NIMl1PW0NIMl1bQ0gyXU4xW0NIMl1bQ0BASF0oW0NIM10pTihbQ0gzXSljKG5bY0hdbjIpYyhjMjMpbltjSF1uM1tDSDJdW0NASF0oW09IXSlbQ0BASF00W0NIMl1bQ0gyXVtDSDJdTzQ=

> <s_epik_cmdline>
J2VwaWtfcHl0aG9uJywgJy1waCcsICc3LjAnLCAnLXRuJywgJzgnLCAnLW1hJywgJzIwMCcsICctbWV0YWxfYmluZGluZycsICctaW1hZScsICc8aW5maWxlLm1hZT4nLCAnLW9tYWUnLCAnPG91dGZpbGUubWFlPic=

> <r_lp_tautomer_probability>
1

> <r_epik_Ionization_Penalty>
0.399679

> <r_epik_Ionization_Penalty_Charging>
0.399433

> <r_epik_Ionization_Penalty_Neutral>
0.000246213

> <r_epik_State_Penalty>
0.286032

> <r_epik_Charging_Adjusted_Penalty>
0.685465

> <i_epik_Tot_Q>
1

> <i_epik_Tot_abs_Q>
1

> <r_epik_Metal_State_Penalty>
0.286072

> <b_epik_Metal_Only>
0

> <s_lp_Force_Field>
OPLS_2005

> <r_lp_Energy>
45.5564

> <b_lp_Chiralities_Consistent>
1

> <s_lp_Variant>
AV-unprocessed.smi:213-6

> <Gold.Version>
5.8.1

> <Gold.Id.Protein>
6NUR|6NUR_protein|mol2

> <Gold.PLP.Fitness>
48.5409

> <Gold.PLP.PLP>
-37.3812

> <Gold.PLP.part.hbond>
-4.0000

> <Gold.PLP.part.metal>
0.0000

> <Gold.PLP.part.buried>
-1.1851

> <Gold.PLP.part.nonpolar>
-32.8428

> <Gold.PLP.part.repulsive>
0.3413

> <Gold.PLP.ligand.clash>
0.0000

> <Gold.PLP.ligand.torsion>
0.9138

> <Gold.PLP.Chemscore.Hbond>
3.8147

> <Gold.PLP.Chemscore.CHOScore>
0.1658

> <Gold.PLP.Chemscore.Metal>
0.0000

> <Gold.Chemscore.Hbonds>
donor molecule, donor type, donor heavy atom, donor atom, acceptor molecule, acceptor atom, score
      L1  H     4    59       P1  7948  0.33
      P1  H  6896  6908       L1    18  1.00
      P1  H  7997  8010       L1    23  0.94

> <Gold.PLP.Chemscore.Internal.Correction>
1.0456

> <Gold.Rescore>
     Score         DG    S(hbond)    S(metal)    S(lipo)     H(rot)  DE(clash)    DE(int)     intcor
     10.46     -14.00       1.77        0.00      84.04       2.83       0.11       3.43       ----

> <Gold.Chemscore.Fitness>
10.4576

> <Gold.Chemscore.DG>
-13.9959

> <Gold.Chemscore.ZeroCoef>
-5.4800

> <Gold.Chemscore.Hbond>
1.7712

> <Gold.Chemscore.Metal>
0.0000

> <Gold.Chemscore.Lipo>
84.0431

> <Gold.Chemscore.Internal_Hbond>
0.0000

> <Gold.Chemscore.DEClash>
0.1107

> <Gold.Chemscore.DEInternal>
3.4276

> <Gold.Chemscore.Rot>
2.8254

> <Gold.Chemscore.Internal.Correction>
   9.000000E+99

> <Gold.Chemscore.Hbonds>
donor molecule, donor type, donor heavy atom, donor atom, acceptor molecule, acceptor atom, score
      L1  H     4    59       P1  7948  0.05
      P1  H  6896  6908       L1    18  0.11
      P1  H  7997  8010       L1    23  0.25

> <Gold.Chemscore.Hbond.Weighted>
-5.9158

> <Gold.Chemscore.Metal.Weighted>
-0.0000

> <Gold.Chemscore.Lipo.Weighted>
-9.8330

> <Gold.Chemscore.Internal_Hbond.Weighted>
0.0000

> <Gold.Chemscore.DEClash.Weighted>
0.1107

> <Gold.Chemscore.DEInternal.Weighted>
3.4276

> <Gold.Chemscore.Rot.Weighted>
7.2330

> <Gold.Chemscore.Internal.Correction.Weighted>
   9.000000E+99

> <Gold.Protein.RotatedTorsions>
[ 6907 6896 6895 6894 ] final  168.54 input  -60.11 | X-H torsion
[ 7974 7965 7964 7962 ] final  175.98 input  175.53 | X-H torsion
[ 8008 7997 7996 7995 ] final   75.42 input   59.86 | X-H torsion
[ 10167 10162 10161 10158 ] final  101.08 input  -65.29 | X-H torsion
[ 10718 10713 10712 10709 ] final  120.12 input   66.30 | X-H torsion
[ 10763 10752 10751 10750 ] final   -9.94 input  -60.55 | X-H torsion
[ 11005 11000 10999 10996 ] final -152.17 input  -57.11 | X-H torsion

> <Gold.Protein.ActiveResidues>
 VAL166  LYS551  ARG553  GLY616  TRP617  ASP618  TYR619  PRO620  LYS621  CYS622 
 ASP623  PHE694  ASN695  SER759  ASP760  ASP761  ALA762  ILE779  LEU786  VAL792 
 PHE793  MET794  SER795  GLU796  ALA797  LYS798  CYS799  TRP800  GLU811  SER814 

> <Gold.Protein.RotatedAtoms>
  151.8460  133.3431  159.3657 H   0  0  0  0  0  0  0  0  0  0  0  0  # atno 6907 bound_to 6896
  150.7220  134.5345  159.5726 H   0  0  0  0  0  0  0  0  0  0  0  0  # atno 6908 bound_to 6896
  152.2829  134.7809  160.0444 H   0  0  0  0  0  0  0  0  0  0  0  0  # atno 6909 bound_to 6896
  144.7192  140.0028  143.6440 H   0  0  0  0  0  0  0  0  0  0  0  0  # atno 7974 bound_to 7965
  155.8127  140.3472  155.5467 H   0  0  0  0  0  0  0  0  0  0  0  0  # atno 8008 bound_to 7997
  155.8424  140.0943  157.1746 H   0  0  0  0  0  0  0  0  0  0  0  0  # atno 8009 bound_to 7997
  154.4005  140.1392  156.3732 H   0  0  0  0  0  0  0  0  0  0  0  0  # atno 8010 bound_to 7997
  139.7470  144.6995  151.0490 H   0  0  0  0  0  0  0  0  0  0  0  0  # atno 10167 bound_to 10162
  157.5913  131.1064  150.7991 H   0  0  0  0  0  0  0  0  0  0  0  0  # atno 10718 bound_to 10713
  153.4619  135.7016  153.6045 H   0  0  0  0  0  0  0  0  0  0  0  0  # atno 10763 bound_to 10752
  153.4336  135.3797  155.2185 H   0  0  0  0  0  0  0  0  0  0  0  0  # atno 10764 bound_to 10752
  154.8727  135.3956  154.4046 H   0  0  0  0  0  0  0  0  0  0  0  0  # atno 10765 bound_to 10752
  140.7217  134.3720  157.5182 H   0  0  0  0  0  0  0  0  0  0  0  0  # atno 11005 bound_to 11000
  146.0322  139.3345  143.0748 LP  0  0  0  0  0  0  0  0  0  0  0  0  # atno 17320 bound_to 7965
  145.8439  140.9566  143.0785 LP  0  0  0  0  0  0  0  0  0  0  0  0  # atno 17321 bound_to 7965
  140.7793  143.4855  150.9961 LP  0  0  0  0  0  0  0  0  0  0  0  0  # atno 17342 bound_to 10162
  139.8543  143.7397  152.3176 LP  0  0  0  0  0  0  0  0  0  0  0  0  # atno 17343 bound_to 10162
  156.8413  130.5049  149.5321 LP  0  0  0  0  0  0  0  0  0  0  0  0  # atno 17370 bound_to 10713
  156.0968  130.5939  150.9828 LP  0  0  0  0  0  0  0  0  0  0  0  0  # atno 17371 bound_to 10713
  139.8846  134.8959  156.2690 LP  0  0  0  0  0  0  0  0  0  0  0  0  # atno 17394 bound_to 11000
  140.9998  133.7158  156.0942 LP  0  0  0  0  0  0  0  0  0  0  0  0  # atno 17395 bound_to 11000

$$$$
