AV-unprocessed.smi:268|AV-procd|sdf|2040|dock10
  -GOLD-   2262021253D 1   1.00000     0.00000
 Structure written by MMmdl.
 50 53  0  0  0  0  0  0  0  0  1 V2000
  151.8444  145.5138  160.1287 C   0  0  0  0  0  0  0  0  0  0  0  0
  151.9130  144.8793  158.7377 C   0  0  0  0  0  0  0  0  0  0  0  0
  152.2423  143.5071  158.8745 O   0  0  0  0  0  0  0  0  0  0  0  0
  151.7172  142.7107  157.8252 C   0  0  2  0  0  0  0  0  0  0  0  0
  150.2175  142.4118  157.9517 C   0  0  0  0  0  0  0  0  0  0  0  0
  150.5159  140.9305  157.6531 C   0  0  1  0  0  0  0  0  0  0  0  0
  150.3358  140.5882  156.2361 N   0  0  0  0  0  0  0  0  0  0  0  0
  149.0105  140.7984  155.6592 C   0  0  0  0  0  0  0  0  0  0  0  0
  150.9286  139.4590  155.7679 C   0  0  0  0  0  0  0  0  0  0  0  0
  151.8675  139.5355  154.7865 N   0  0  0  0  0  0  0  0  0  0  0  0
  152.4590  138.4275  154.3307 C   0  0  0  0  0  0  0  0  0  0  0  0
  152.2669  137.1627  154.7101 N   0  0  0  0  0  0  0  0  0  0  0  0
  151.3297  137.0797  155.6974 C   0  0  0  0  0  0  0  0  0  0  0  0
  150.6218  138.1676  156.2811 C   0  0  0  0  0  0  0  0  0  0  0  0
  149.7487  137.6965  157.2541 N   0  0  0  0  0  0  0  0  0  0  0  0
  149.9309  136.4042  157.2467 C   0  0  0  0  0  0  0  0  0  0  0  0
  150.8548  135.9459  156.3345 N   0  0  0  0  0  0  0  0  0  0  0  0
  151.2476  134.5633  156.1090 C   0  0  0  0  0  0  0  0  0  0  0  0
  150.0782  133.6407  155.7171 C   0  0  0  0  0  0  0  0  0  0  0  0
  149.1103  133.5362  156.9138 C   0  0  0  0  0  0  0  0  0  0  0  0
  149.7568  133.1128  158.0976 O   0  0  0  0  0  0  0  0  0  0  0  0
  149.4429  133.9473  154.3533 C   0  0  0  0  0  0  0  0  0  0  0  0
  149.6135  132.5860  153.9004 O   0  0  0  0  0  0  0  0  0  0  0  0
  150.4582  132.3155  155.0408 C   0  0  0  0  0  0  0  0  0  0  0  0
  151.9816  141.2177  158.0417 C   0  0  0  0  0  0  0  0  0  0  0  0
  151.5951  146.5728  160.0619 H   0  0  0  0  0  0  0  0  0  0  0  0
  152.8002  145.4268  160.6461 H   0  0  0  0  0  0  0  0  0  0  0  0
  151.0849  145.0289  160.7424 H   0  0  0  0  0  0  0  0  0  0  0  0
  150.9533  144.9911  158.2313 H   0  0  0  0  0  0  0  0  0  0  0  0
  152.6664  145.3875  158.1341 H   0  0  0  0  0  0  0  0  0  0  0  0
  152.0086  143.0350  156.8243 H   0  0  0  0  0  0  0  0  0  0  0  0
  149.8436  142.5607  158.9659 H   0  0  0  0  0  0  0  0  0  0  0  0
  149.5972  142.9338  157.2225 H   0  0  0  0  0  0  0  0  0  0  0  0
  150.0122  140.2479  158.3389 H   0  0  0  0  0  0  0  0  0  0  0  0
  149.0666  141.5372  154.8593 H   0  0  0  0  0  0  0  0  0  0  0  0
  148.3089  141.1664  156.4083 H   0  0  0  0  0  0  0  0  0  0  0  0
  148.5896  139.8799  155.2458 H   0  0  0  0  0  0  0  0  0  0  0  0
  153.1906  138.5762  153.5504 H   0  0  0  0  0  0  0  0  0  0  0  0
  149.3888  135.7470  157.9107 H   0  0  0  0  0  0  0  0  0  0  0  0
  152.0228  134.5442  155.3419 H   0  0  0  0  0  0  0  0  0  0  0  0
  151.7285  134.2053  157.0202 H   0  0  0  0  0  0  0  0  0  0  0  0
  148.6457  134.4982  157.1301 H   0  0  0  0  0  0  0  0  0  0  0  0
  148.3029  132.8352  156.7000 H   0  0  0  0  0  0  0  0  0  0  0  0
  149.4629  132.2390  158.3051 H   0  0  0  0  0  0  0  0  0  0  0  0
  148.3954  134.2471  154.3997 H   0  0  0  0  0  0  0  0  0  0  0  0
  150.0160  134.6486  153.7449 H   0  0  0  0  0  0  0  0  0  0  0  0
  151.5073  132.2459  154.7517 H   0  0  0  0  0  0  0  0  0  0  0  0
  150.1485  131.4267  155.5919 H   0  0  0  0  0  0  0  0  0  0  0  0
  152.7478  140.8043  157.3851 H   0  0  0  0  0  0  0  0  0  0  0  0
  152.1861  140.9740  159.0855 H   0  0  0  0  0  0  0  0  0  0  0  0
  1  2  1  0  0  0  0
  1 26  1  0  0  0  0
  1 27  1  0  0  0  0
  1 28  1  0  0  0  0
  2  3  1  0  0  0  0
  2 29  1  0  0  0  0
  2 30  1  0  0  0  0
  3  4  1  0  0  0  0
  4 25  1  0  0  0  0
  4  5  1  0  0  0  0
  4 31  1  0  0  0  0
  5  6  1  0  0  0  0
  5 32  1  0  0  0  0
  5 33  1  0  0  0  0
  6  7  1  0  0  0  0
  6 25  1  0  0  0  0
  6 34  1  0  0  0  0
  7  8  1  0  0  0  0
  7  9  1  0  0  0  0
  8 35  1  0  0  0  0
  8 36  1  0  0  0  0
  8 37  1  0  0  0  0
  9 14  1  0  0  0  0
  9 10  2  0  0  0  0
 10 11  1  0  0  0  0
 11 12  2  0  0  0  0
 11 38  1  0  0  0  0
 12 13  1  0  0  0  0
 13 17  1  0  0  0  0
 13 14  2  0  0  0  0
 14 15  1  0  0  0  0
 15 16  2  0  0  0  0
 16 17  1  0  0  0  0
 16 39  1  0  0  0  0
 17 18  1  0  0  0  0
 18 19  1  0  0  0  0
 18 40  1  0  0  0  0
 18 41  1  0  0  0  0
 19 24  1  0  0  0  0
 19 20  1  0  0  0  0
 19 22  1  0  0  0  0
 20 21  1  0  0  0  0
 20 42  1  0  0  0  0
 20 43  1  0  0  0  0
 21 44  1  0  0  0  0
 22 23  1  0  0  0  0
 22 45  1  0  0  0  0
 22 46  1  0  0  0  0
 23 24  1  0  0  0  0
 24 47  1  0  0  0  0
 24 48  1  0  0  0  0
 25 49  1  0  0  0  0
 25 50  1  0  0  0  0
M  END
> <s_m_source_file>
AV-unprocessed.smi

> <i_m_source_file_index>
268

> <i_lp_mmshare_version>
43012

> <i_f3d_flags>
0

> <s_epik_input>
W0NIM11bQ0gyXU9bQ0BASF0xW0NIMl1bQ0BIXShbQ0gyXTEpTihbQ0gzXSljKG5bY0hdbjIpYyhjMjMpbltjSF1uM1tDSDJdQzQoW0NIMl1bT0hdKVtDSDJdT1tDSDJdNA==

> <s_epik_cmdline>
J2VwaWtfcHl0aG9uJywgJy1waCcsICc3LjAnLCAnLXRuJywgJzgnLCAnLW1hJywgJzIwMCcsICctbWV0YWxfYmluZGluZycsICctaW1hZScsICc8aW5maWxlLm1hZT4nLCAnLW9tYWUnLCAnPG91dGZpbGUubWFlPic=

> <r_lp_tautomer_probability>
1

> <r_epik_Ionization_Penalty>
0.00205824

> <r_epik_Ionization_Penalty_Charging>
0

> <r_epik_Ionization_Penalty_Neutral>
0.00205824

> <r_epik_State_Penalty>
0.00125218

> <r_epik_Charging_Adjusted_Penalty>
0.00125218

> <i_epik_Tot_Q>
0

> <i_epik_Tot_abs_Q>
0

> <r_epik_Metal_State_Penalty>
-0

> <b_epik_Metal_Only>
0

> <s_lp_Force_Field>
OPLS_2005

> <r_lp_Energy>
42.2334

> <b_lp_Chiralities_Consistent>
1

> <s_lp_Variant>
AV-unprocessed.smi:268-1

> <Gold.Version>
5.8.1

> <Gold.Id.Protein>
6NUR|6NUR_protein|mol2

> <Gold.PLP.Fitness>
47.9945

> <Gold.PLP.PLP>
-40.1137

> <Gold.PLP.part.hbond>
-3.0000

> <Gold.PLP.part.metal>
0.0000

> <Gold.PLP.part.buried>
-9.1828

> <Gold.PLP.part.nonpolar>
-28.2876

> <Gold.PLP.part.repulsive>
0.3165

> <Gold.PLP.ligand.clash>
0.0000

> <Gold.PLP.ligand.torsion>
0.9480

> <Gold.PLP.Chemscore.Hbond>
2.8160

> <Gold.PLP.Chemscore.CHOScore>
0.0000

> <Gold.PLP.Chemscore.Metal>
0.0000

> <Gold.Chemscore.Hbonds>
donor molecule, donor type, donor heavy atom, donor atom, acceptor molecule, acceptor atom, score
      P1  H  6896  6907       L1    21  1.00
      P1  H  7989  7998       L1    10  0.99
      P1  H 10752 10764       L1    12  0.77

> <Gold.PLP.Chemscore.Internal.Correction>
1.3288

> <Gold.Rescore>
     Score         DG    S(hbond)    S(metal)    S(lipo)     H(rot)  DE(clash)    DE(int)     intcor
     15.45     -16.55       2.81        0.00      83.39       3.15       0.10       1.00       ----

> <Gold.Chemscore.Fitness>
15.4517

> <Gold.Chemscore.DG>
-16.5540

> <Gold.Chemscore.ZeroCoef>
-5.4800

> <Gold.Chemscore.Hbond>
2.8119

> <Gold.Chemscore.Metal>
0.0000

> <Gold.Chemscore.Lipo>
83.3941

> <Gold.Chemscore.Internal_Hbond>
0.0000

> <Gold.Chemscore.DEClash>
0.1007

> <Gold.Chemscore.DEInternal>
1.0016

> <Gold.Chemscore.Rot>
3.1542

> <Gold.Chemscore.Internal.Correction>
   9.000000E+99

> <Gold.Chemscore.Hbonds>
donor molecule, donor type, donor heavy atom, donor atom, acceptor molecule, acceptor atom, score
      P1  H  6896  6907       L1    21  0.70
      P1  H  7989  7998       L1    10  0.80
      P1  H 10752 10764       L1    12  0.66

> <Gold.Chemscore.Hbond.Weighted>
-9.3917

> <Gold.Chemscore.Metal.Weighted>
-0.0000

> <Gold.Chemscore.Lipo.Weighted>
-9.7571

> <Gold.Chemscore.Internal_Hbond.Weighted>
0.0000

> <Gold.Chemscore.DEClash.Weighted>
0.1007

> <Gold.Chemscore.DEInternal.Weighted>
1.0016

> <Gold.Chemscore.Rot.Weighted>
8.0748

> <Gold.Chemscore.Internal.Correction.Weighted>
   9.000000E+99

> <Gold.Protein.RotatedTorsions>
[ 6907 6896 6895 6894 ] final -136.05 input  -60.11 | X-H torsion
[ 7974 7965 7964 7962 ] final   82.49 input  175.53 | X-H torsion
[ 8008 7997 7996 7995 ] final -104.51 input   59.86 | X-H torsion
[ 10167 10162 10161 10158 ] final  143.84 input  -65.29 | X-H torsion
[ 10718 10713 10712 10709 ] final -114.23 input   66.30 | X-H torsion
[ 10763 10752 10751 10750 ] final  -75.98 input  -60.55 | X-H torsion
[ 11005 11000 10999 10996 ] final -142.49 input  -57.11 | X-H torsion

> <Gold.Protein.ActiveResidues>
 VAL166  LYS551  ARG553  GLY616  TRP617  ASP618  TYR619  PRO620  LYS621  CYS622 
 ASP623  PHE694  ASN695  SER759  ASP760  ASP761  ALA762  ILE779  LEU786  VAL792 
 PHE793  MET794  SER795  GLU796  ALA797  LYS798  CYS799  TRP800  GLU811  SER814 

> <Gold.Protein.RotatedAtoms>
  151.0054  133.6016  159.2689 H   0  0  0  0  0  0  0  0  0  0  0  0  # atno 6907 bound_to 6896
  151.3187  135.0812  159.9308 H   0  0  0  0  0  0  0  0  0  0  0  0  # atno 6908 bound_to 6896
  152.5285  133.9705  159.7814 H   0  0  0  0  0  0  0  0  0  0  0  0  # atno 6909 bound_to 6896
  145.6244  139.2392  143.2120 H   0  0  0  0  0  0  0  0  0  0  0  0  # atno 7974 bound_to 7965
  154.8864  140.0417  157.1812 H   0  0  0  0  0  0  0  0  0  0  0  0  # atno 8008 bound_to 7997
  154.8586  140.2940  155.5532 H   0  0  0  0  0  0  0  0  0  0  0  0  # atno 8009 bound_to 7997
  156.2998  140.2451  156.3557 H   0  0  0  0  0  0  0  0  0  0  0  0  # atno 8010 bound_to 7997
  139.4960  144.6013  151.6475 H   0  0  0  0  0  0  0  0  0  0  0  0  # atno 10167 bound_to 10162
  156.0816  130.6015  150.8747 H   0  0  0  0  0  0  0  0  0  0  0  0  # atno 10718 bound_to 10713
  154.4937  135.5813  153.6478 H   0  0  0  0  0  0  0  0  0  0  0  0  # atno 10763 bound_to 10752
  152.9866  135.6119  154.3092 H   0  0  0  0  0  0  0  0  0  0  0  0  # atno 10764 bound_to 10752
  154.2993  135.2847  155.2597 H   0  0  0  0  0  0  0  0  0  0  0  0  # atno 10765 bound_to 10752
  140.8219  134.2620  157.4896 H   0  0  0  0  0  0  0  0  0  0  0  0  # atno 11005 bound_to 11000
  146.1406  140.7063  142.9369 LP  0  0  0  0  0  0  0  0  0  0  0  0  # atno 17320 bound_to 7965
  144.7218  140.4398  143.7002 LP  0  0  0  0  0  0  0  0  0  0  0  0  # atno 17321 bound_to 7965
  140.5663  144.0184  150.6194 LP  0  0  0  0  0  0  0  0  0  0  0  0  # atno 17342 bound_to 10162
  140.3287  143.3091  152.0710 LP  0  0  0  0  0  0  0  0  0  0  0  0  # atno 17343 bound_to 10162
  157.5935  131.0944  150.9079 LP  0  0  0  0  0  0  0  0  0  0  0  0  # atno 17370 bound_to 10713
  156.9250  130.5329  149.5279 LP  0  0  0  0  0  0  0  0  0  0  0  0  # atno 17371 bound_to 10713
  139.8708  134.9540  156.4162 LP  0  0  0  0  0  0  0  0  0  0  0  0  # atno 17394 bound_to 11000
  140.9089  133.7726  155.9768 LP  0  0  0  0  0  0  0  0  0  0  0  0  # atno 17395 bound_to 11000

$$$$
