AV-unprocessed.smi:2995|AV-procd|sdf|11409|dock3
  -GOLD-   2272016333D 1   1.00000     0.00000
 Structure written by MMmdl.
 50 52  0  0  0  0  0  0  0  0  3 V2000
  147.1869  132.9233  152.2105 C   0  0  0  0  0  0  0  0  0  0  0  0
  145.8927  133.2610  151.4907 C   0  0  0  0  0  0  0  0  0  0  0  0
  145.1314  132.2251  150.9049 C   0  0  0  0  0  0  0  0  0  0  0  0
  143.9308  132.5396  150.2396 C   0  0  0  0  0  0  0  0  0  0  0  0
  143.5195  133.8225  150.1716 N   0  3  0  0  0  0  0  0  0  0  0  0
  144.2131  134.8456  150.7151 C   0  0  0  0  0  0  0  0  0  0  0  0
  145.4358  134.6006  151.3904 C   0  0  0  0  0  0  0  0  0  0  0  0
  146.2023  135.6327  152.0037 N   0  0  0  0  0  0  0  0  0  0  0  0
  145.7785  136.7968  152.5260 C   0  0  0  0  0  0  0  0  0  0  0  0
  144.6102  137.1827  152.5430 O   0  0  0  0  0  0  0  0  0  0  0  0
  146.8038  137.5075  153.0184 N   0  0  0  0  0  0  0  0  0  0  0  0
  146.7083  138.8250  153.6431 C   0  0  2  0  0  0  0  0  0  0  0  0
  147.5054  139.8555  152.8235 C   0  0  0  0  0  0  0  0  0  0  0  0
  147.5487  141.2227  153.5334 C   0  0  0  0  0  0  0  0  0  0  0  0
  148.0926  141.1190  154.9163 N   0  3  2  0  0  0  0  0  0  0  0  0
  149.5691  140.9002  154.9846 C   0  0  0  0  0  0  0  0  0  0  0  0
  150.0210  139.5431  154.4277 C   0  0  0  0  0  0  0  0  0  0  0  0
  151.4151  139.3179  155.0188 C   0  0  0  0  0  0  0  0  0  0  0  0
  151.4536  140.1152  156.3293 C   0  0  0  0  0  0  0  0  0  0  0  0
  150.1159  140.8589  156.4192 C   0  0  0  0  0  0  0  0  0  0  0  0
  147.2841  140.1633  155.7236 C   0  0  0  0  0  0  0  0  0  0  0  0
  147.2396  138.7617  155.0856 C   0  0  0  0  0  0  0  0  0  0  0  0
  147.3935  131.8531  152.1788 H   0  0  0  0  0  0  0  0  0  0  0  0
  147.1304  133.2243  153.2570 H   0  0  0  0  0  0  0  0  0  0  0  0
  148.0265  133.4413  151.7459 H   0  0  0  0  0  0  0  0  0  0  0  0
  145.4602  131.1974  150.9637 H   0  0  0  0  0  0  0  0  0  0  0  0
  143.2897  131.8091  149.7677 H   0  0  0  0  0  0  0  0  0  0  0  0
  143.7500  135.8133  150.5966 H   0  0  0  0  0  0  0  0  0  0  0  0
  147.2020  135.4910  151.9931 H   0  0  0  0  0  0  0  0  0  0  0  0
  147.7280  137.1060  152.9543 H   0  0  0  0  0  0  0  0  0  0  0  0
  145.6688  139.1563  153.6824 H   0  0  0  0  0  0  0  0  0  0  0  0
  148.5204  139.4957  152.6509 H   0  0  0  0  0  0  0  0  0  0  0  0
  147.0538  139.9711  151.8372 H   0  0  0  0  0  0  0  0  0  0  0  0
  148.1103  141.9437  152.9407 H   0  0  0  0  0  0  0  0  0  0  0  0
  146.5363  141.6239  153.5959 H   0  0  0  0  0  0  0  0  0  0  0  0
  150.0892  141.6867  154.4370 H   0  0  0  0  0  0  0  0  0  0  0  0
  149.3498  138.7545  154.7719 H   0  0  0  0  0  0  0  0  0  0  0  0
  150.0381  139.5152  153.3378 H   0  0  0  0  0  0  0  0  0  0  0  0
  151.6211  138.2584  155.1743 H   0  0  0  0  0  0  0  0  0  0  0  0
  152.1743  139.7009  154.3355 H   0  0  0  0  0  0  0  0  0  0  0  0
  151.6008  139.4663  157.1935 H   0  0  0  0  0  0  0  0  0  0  0  0
  152.2834  140.8230  156.3090 H   0  0  0  0  0  0  0  0  0  0  0  0
  150.2364  141.8514  156.8542 H   0  0  0  0  0  0  0  0  0  0  0  0
  149.4358  140.2966  157.0611 H   0  0  0  0  0  0  0  0  0  0  0  0
  147.6439  140.1061  156.7501 H   0  0  0  0  0  0  0  0  0  0  0  0
  146.2681  140.5545  155.7957 H   0  0  0  0  0  0  0  0  0  0  0  0
  146.6035  138.1088  155.6844 H   0  0  0  0  0  0  0  0  0  0  0  0
  148.2343  138.3151  155.1028 H   0  0  0  0  0  0  0  0  0  0  0  0
  147.9455  142.0250  155.3381 H   0  0  0  0  0  0  0  0  0  0  0  0
  142.6433  134.0297  149.6915 H   0  0  0  0  0  0  0  0  0  0  0  0
  1  2  1  0  0  0  0
  1 23  1  0  0  0  0
  1 24  1  0  0  0  0
  1 25  1  0  0  0  0
  2  7  1  0  0  0  0
  2  3  2  0  0  0  0
  3  4  1  0  0  0  0
  3 26  1  0  0  0  0
  4  5  2  0  0  0  0
  4 27  1  0  0  0  0
  5  6  1  0  0  0  0
  5 50  1  0  0  0  0
  6  7  2  0  0  0  0
  6 28  1  0  0  0  0
  7  8  1  0  0  0  0
  8  9  1  0  0  0  0
  8 29  1  0  0  0  0
  9 10  2  0  0  0  0
  9 11  1  0  0  0  0
 11 12  1  0  0  0  0
 11 30  1  0  0  0  0
 12 22  1  0  0  0  0
 12 13  1  0  0  0  0
 12 31  1  0  0  0  0
 13 14  1  0  0  0  0
 13 32  1  0  0  0  0
 13 33  1  0  0  0  0
 14 15  1  0  0  0  0
 14 34  1  0  0  0  0
 14 35  1  0  0  0  0
 15 16  1  0  0  0  0
 15 21  1  0  0  0  0
 15 49  1  0  0  0  0
 16 20  1  0  0  0  0
 16 17  1  0  0  0  0
 16 36  1  0  0  0  0
 17 18  1  0  0  0  0
 17 37  1  0  0  0  0
 17 38  1  0  0  0  0
 18 19  1  0  0  0  0
 18 39  1  0  0  0  0
 18 40  1  0  0  0  0
 19 20  1  0  0  0  0
 19 41  1  0  0  0  0
 19 42  1  0  0  0  0
 20 43  1  0  0  0  0
 20 44  1  0  0  0  0
 21 22  1  0  0  0  0
 21 45  1  0  0  0  0
 21 46  1  0  0  0  0
 22 47  1  0  0  0  0
 22 48  1  0  0  0  0
M  CHG  1   5   1
M  CHG  1  15   1
M  END
> <s_m_source_file>
AV-unprocessed.smi

> <i_m_source_file_index>
2995

> <i_lp_mmshare_version>
43012

> <i_f3d_flags>
0

> <s_epik_input>
W0NIM11jMVtjSF1bY0hdbltjSF1jMVtOSF1DKD1PKVtOSF1bQ0hdMltDSDJdW0NIMl1OKFtDSDJdW0NIMl0yKVtDSF0zW0NIMl1bQ0gyXVtDSDJdW0NIMl0z

> <s_epik_cmdline>
J2VwaWtfcHl0aG9uJywgJy1waCcsICc3LjAnLCAnLXRuJywgJzgnLCAnLW1hJywgJzIwMCcsICctbWV0YWxfYmluZGluZycsICctaW1hZScsICc8aW5maWxlLm1hZT4nLCAnLW9tYWUnLCAnPG91dGZpbGUubWFlPic=

> <r_epik_Ionization_Penalty>
2.08537

> <r_epik_Ionization_Penalty_Charging>
2.08535

> <r_epik_Ionization_Penalty_Neutral>
2.13957e-05

> <r_epik_State_Penalty>
2.21824

> <r_epik_Charging_Adjusted_Penalty>
4.30358

> <i_epik_Tot_Q>
2

> <i_epik_Tot_abs_Q>
2

> <r_epik_Metal_State_Penalty>
2.23856

> <b_epik_Metal_Only>
0

> <s_lp_Force_Field>
OPLS_2005

> <r_lp_Energy>
50.6964

> <b_lp_Chiralities_Consistent>
1

> <s_lp_Variant>
AV-unprocessed.smi:2995-4

> <Gold.Version>
5.8.1

> <Gold.Id.Protein>
6NUR|6NUR_protein|mol2

> <Gold.PLP.Fitness>
47.8922

> <Gold.PLP.PLP>
-37.7733

> <Gold.PLP.part.hbond>
-3.0000

> <Gold.PLP.part.metal>
0.0000

> <Gold.PLP.part.buried>
-2.1016

> <Gold.PLP.part.nonpolar>
-33.2824

> <Gold.PLP.part.repulsive>
0.3628

> <Gold.PLP.ligand.clash>
1.2276

> <Gold.PLP.ligand.torsion>
0.2089

> <Gold.PLP.Chemscore.Hbond>
3.9040

> <Gold.PLP.Chemscore.CHOScore>
0.0000

> <Gold.PLP.Chemscore.Metal>
0.0000

> <Gold.Chemscore.Hbonds>
donor molecule, donor type, donor heavy atom, donor atom, acceptor molecule, acceptor atom, score
      L1  H     5    50       P1 10186  2.00
      L1  H     8    29       P1  7948  0.99
      L1  H    11    30       P1  7948  0.91

> <Gold.PLP.Chemscore.Internal.Correction>
0.0523

> <Gold.Rescore>
     Score         DG    S(hbond)    S(metal)    S(lipo)     H(rot)  DE(clash)    DE(int)     intcor
     20.01     -23.88       2.91        0.00     100.20       1.19       1.23       2.64       ----

> <Gold.Chemscore.Fitness>
20.0070

> <Gold.Chemscore.DG>
-23.8765

> <Gold.Chemscore.ZeroCoef>
-5.4800

> <Gold.Chemscore.Hbond>
2.9071

> <Gold.Chemscore.Metal>
0.0000

> <Gold.Chemscore.Lipo>
100.1977

> <Gold.Chemscore.Internal_Hbond>
0.0000

> <Gold.Chemscore.DEClash>
1.2273

> <Gold.Chemscore.DEInternal>
2.6422

> <Gold.Chemscore.Rot>
1.1861

> <Gold.Chemscore.Internal.Correction>
   9.000000E+99

> <Gold.Chemscore.Hbonds>
donor molecule, donor type, donor heavy atom, donor atom, acceptor molecule, acceptor atom, score
      L1  H     5    50       P1 10186  0.99
      L1  H     8    29       P1  7948  0.94
      L1  H    11    30       P1  7948  0.88

> <Gold.Chemscore.Hbond.Weighted>
-9.7099

> <Gold.Chemscore.Metal.Weighted>
-0.0000

> <Gold.Chemscore.Lipo.Weighted>
-11.7231

> <Gold.Chemscore.Internal_Hbond.Weighted>
0.0000

> <Gold.Chemscore.DEClash.Weighted>
1.2273

> <Gold.Chemscore.DEInternal.Weighted>
2.6422

> <Gold.Chemscore.Rot.Weighted>
3.0364

> <Gold.Chemscore.Internal.Correction.Weighted>
   9.000000E+99

> <Gold.Protein.RotatedTorsions>
[ 6907 6896 6895 6894 ] final  -78.43 input  -60.11 | X-H torsion
[ 7974 7965 7964 7962 ] final -106.60 input  175.53 | X-H torsion
[ 8008 7997 7996 7995 ] final  -91.82 input   59.86 | X-H torsion
[ 10167 10162 10161 10158 ] final  -53.65 input  -65.29 | X-H torsion
[ 10718 10713 10712 10709 ] final  174.22 input   66.30 | X-H torsion
[ 10763 10752 10751 10750 ] final   24.44 input  -60.55 | X-H torsion
[ 11005 11000 10999 10996 ] final  -62.57 input  -57.11 | X-H torsion

> <Gold.Protein.ActiveResidues>
 VAL166  LYS551  ARG553  GLY616  TRP617  ASP618  TYR619  PRO620  LYS621  CYS622 
 ASP623  PHE694  ASN695  SER759  ASP760  ASP761  ALA762  ILE779  LEU786  VAL792 
 PHE793  MET794  SER795  GLU796  ALA797  LYS798  CYS799  TRP800  GLU811  SER814 

> <Gold.Protein.RotatedAtoms>
  150.6973  134.4274  159.5232 H   0  0  0  0  0  0  0  0  0  0  0  0  # atno 6907 bound_to 6896
  152.2006  134.8588  160.0517 H   0  0  0  0  0  0  0  0  0  0  0  0  # atno 6908 bound_to 6896
  151.9510  133.3631  159.4037 H   0  0  0  0  0  0  0  0  0  0  0  0  # atno 6909 bound_to 6896
  145.2158  140.9114  143.3288 H   0  0  0  0  0  0  0  0  0  0  0  0  # atno 7974 bound_to 7965
  154.7154  140.0515  157.0589 H   0  0  0  0  0  0  0  0  0  0  0  0  # atno 8008 bound_to 7997
  155.0498  140.3178  155.4677 H   0  0  0  0  0  0  0  0  0  0  0  0  # atno 8009 bound_to 7997
  156.2801  140.2118  156.5624 H   0  0  0  0  0  0  0  0  0  0  0  0  # atno 8010 bound_to 7997
  140.6473  143.2543  151.4822 H   0  0  0  0  0  0  0  0  0  0  0  0  # atno 10167 bound_to 10162
  156.9527  131.0036  151.2945 H   0  0  0  0  0  0  0  0  0  0  0  0  # atno 10718 bound_to 10713
  153.0764  135.6605  154.0138 H   0  0  0  0  0  0  0  0  0  0  0  0  # atno 10763 bound_to 10752
  153.9771  135.2959  155.3424 H   0  0  0  0  0  0  0  0  0  0  0  0  # atno 10764 bound_to 10752
  154.7153  135.5188  153.8798 H   0  0  0  0  0  0  0  0  0  0  0  0  # atno 10765 bound_to 10752
  141.1364  133.6641  156.5548 H   0  0  0  0  0  0  0  0  0  0  0  0  # atno 11005 bound_to 11000
  144.9812  139.3781  143.6261 LP  0  0  0  0  0  0  0  0  0  0  0  0  # atno 17320 bound_to 7965
  146.3387  139.8954  142.8802 LP  0  0  0  0  0  0  0  0  0  0  0  0  # atno 17321 bound_to 7965
  139.5685  144.1985  152.1801 LP  0  0  0  0  0  0  0  0  0  0  0  0  # atno 17342 bound_to 10162
  140.1274  144.5319  150.6824 LP  0  0  0  0  0  0  0  0  0  0  0  0  # atno 17343 bound_to 10162
  157.5711  130.8311  149.8392 LP  0  0  0  0  0  0  0  0  0  0  0  0  # atno 17370 bound_to 10713
  156.0356  130.3752  150.1571 LP  0  0  0  0  0  0  0  0  0  0  0  0  # atno 17371 bound_to 10713
  140.4035  134.7336  157.4793 LP  0  0  0  0  0  0  0  0  0  0  0  0  # atno 17394 bound_to 11000
  140.0479  134.6173  155.8898 LP  0  0  0  0  0  0  0  0  0  0  0  0  # atno 17395 bound_to 11000

$$$$
