AV-unprocessed.smi:3112|AV-procd|sdf|11838|dock2
  -GOLD-   2272017213D 1   1.00000     0.00000
 Structure written by MMmdl.
 37 37  0  0  0  0  0  0  0  0  2 V2000
  145.2751  135.6408  150.9868 C   0  0  0  0  0  0  0  0  0  0  0  0
  146.0045  136.3613  152.1292 C   0  0  0  0  0  0  0  0  0  0  0  0
  145.9430  137.8959  152.0235 C   0  0  2  0  0  0  0  0  0  0  0  0
  146.5988  138.2994  150.8374 O   0  0  0  0  0  0  0  0  0  0  0  0
  146.6315  138.5834  153.2146 C   0  0  0  0  0  0  0  0  0  0  0  0
  148.0997  138.4293  153.1397 N   0  3  0  0  0  0  0  0  0  0  0  0
  148.8322  138.5889  154.4184 C   0  0  1  0  0  0  0  0  0  0  0  0
  150.3473  138.3930  154.2140 C   0  0  0  0  0  0  0  0  0  0  0  0
  148.5063  139.9549  155.0786 C   0  0  2  0  0  0  0  0  0  0  0  0
  148.2578  141.0769  154.0526 C   0  0  0  0  0  0  0  0  0  0  0  0
  149.4830  140.3512  156.0890 N   0  0  0  0  0  0  0  0  0  0  0  0
  150.1077  141.5735  156.2347 C   0  0  0  0  0  0  0  0  0  0  0  0
  150.9237  141.4901  157.3262 C   0  0  0  0  0  0  0  0  0  0  0  0
  150.7277  140.1616  157.7939 C   0  0  0  0  0  0  0  0  0  0  0  0
  149.8639  139.4844  157.0553 N   0  0  0  0  0  0  0  0  0  0  0  0
  145.3131  134.5601  151.1250 H   0  0  0  0  0  0  0  0  0  0  0  0
  145.7261  135.8646  150.0200 H   0  0  0  0  0  0  0  0  0  0  0  0
  144.2254  135.9324  150.9434 H   0  0  0  0  0  0  0  0  0  0  0  0
  145.5528  136.0494  153.0716 H   0  0  0  0  0  0  0  0  0  0  0  0
  147.0432  136.0300  152.1675 H   0  0  0  0  0  0  0  0  0  0  0  0
  144.8997  138.2117  151.9733 H   0  0  0  0  0  0  0  0  0  0  0  0
  145.9474  138.5900  150.2166 H   0  0  0  0  0  0  0  0  0  0  0  0
  146.3979  139.6487  153.2092 H   0  0  0  0  0  0  0  0  0  0  0  0
  146.2505  138.1767  154.1515 H   0  0  0  0  0  0  0  0  0  0  0  0
  148.3161  137.5217  152.7522 H   0  0  0  0  0  0  0  0  0  0  0  0
  148.4806  137.8122  155.0993 H   0  0  0  0  0  0  0  0  0  0  0  0
  150.8913  138.5718  155.1419 H   0  0  0  0  0  0  0  0  0  0  0  0
  150.7442  139.0751  153.4613 H   0  0  0  0  0  0  0  0  0  0  0  0
  150.5853  137.3780  153.8973 H   0  0  0  0  0  0  0  0  0  0  0  0
  147.5621  139.8243  155.6099 H   0  0  0  0  0  0  0  0  0  0  0  0
  147.4640  140.8017  153.3577 H   0  0  0  0  0  0  0  0  0  0  0  0
  149.1487  141.3003  153.4652 H   0  0  0  0  0  0  0  0  0  0  0  0
  147.9524  141.9982  154.5495 H   0  0  0  0  0  0  0  0  0  0  0  0
  149.9217  142.3940  155.5571 H   0  0  0  0  0  0  0  0  0  0  0  0
  151.5628  142.2614  157.7300 H   0  0  0  0  0  0  0  0  0  0  0  0
  151.1826  139.6732  158.6431 H   0  0  0  0  0  0  0  0  0  0  0  0
  148.4438  139.1322  152.5016 H   0  0  0  0  0  0  0  0  0  0  0  0
  1  2  1  0  0  0  0
  1 16  1  0  0  0  0
  1 17  1  0  0  0  0
  1 18  1  0  0  0  0
  2  3  1  0  0  0  0
  2 19  1  0  0  0  0
  2 20  1  0  0  0  0
  3  4  1  0  0  0  0
  3  5  1  0  0  0  0
  3 21  1  0  0  0  0
  4 22  1  0  0  0  0
  5  6  1  0  0  0  0
  5 23  1  0  0  0  0
  5 24  1  0  0  0  0
  6  7  1  0  0  0  0
  6 25  1  0  0  0  0
  6 37  1  0  0  0  0
  7  8  1  0  0  0  0
  7  9  1  0  0  0  0
  7 26  1  0  0  0  0
  8 27  1  0  0  0  0
  8 28  1  0  0  0  0
  8 29  1  0  0  0  0
  9 10  1  0  0  0  0
  9 11  1  0  0  0  0
  9 30  1  0  0  0  0
 10 31  1  0  0  0  0
 10 32  1  0  0  0  0
 10 33  1  0  0  0  0
 11 15  1  0  0  0  0
 11 12  1  0  0  0  0
 12 13  2  0  0  0  0
 12 34  1  0  0  0  0
 13 14  1  0  0  0  0
 13 35  1  0  0  0  0
 14 15  2  0  0  0  0
 14 36  1  0  0  0  0
M  CHG  1   6   1
M  END
> <s_m_source_file>
AV-unprocessed.smi

> <i_m_source_file_index>
3112

> <i_lp_mmshare_version>
43012

> <i_f3d_flags>
0

> <s_epik_input>
W0NIM11bQ0gyXVtDQEhdKFtPSF0pW0NIMl1bTkhdW0NASF0oW0NIM10pW0NASF0oW0NIM10pbjFbY0hdW2NIXVtjSF1uMQ==

> <s_epik_cmdline>
J2VwaWtfcHl0aG9uJywgJy1waCcsICc3LjAnLCAnLXRuJywgJzgnLCAnLW1hJywgJzIwMCcsICctbWV0YWxfYmluZGluZycsICctaW1hZScsICc8aW5maWxlLm1hZT4nLCAnLW9tYWUnLCAnPG91dGZpbGUubWFlPic=

> <r_lp_tautomer_probability>
1

> <r_epik_Ionization_Penalty>
0.0154842

> <r_epik_Ionization_Penalty_Charging>
0.0154724

> <r_epik_Ionization_Penalty_Neutral>
1.17979e-05

> <r_epik_State_Penalty>
0.0121607

> <r_epik_Charging_Adjusted_Penalty>
0.0276331

> <i_epik_Tot_Q>
1

> <i_epik_Tot_abs_Q>
1

> <r_epik_Metal_State_Penalty>
0.0121863

> <b_epik_Metal_Only>
0

> <s_lp_Force_Field>
OPLS_2005

> <r_lp_Energy>
12.0711

> <b_lp_Chiralities_Consistent>
1

> <s_lp_Variant>
AV-unprocessed.smi:3112-3

> <Gold.Version>
5.8.1

> <Gold.Id.Protein>
6NUR|6NUR_protein|mol2

> <Gold.PLP.Fitness>
45.0729

> <Gold.PLP.PLP>
-28.8651

> <Gold.PLP.part.hbond>
-4.2461

> <Gold.PLP.part.metal>
0.0000

> <Gold.PLP.part.buried>
-1.4597

> <Gold.PLP.part.nonpolar>
-24.4126

> <Gold.PLP.part.repulsive>
0.0503

> <Gold.PLP.ligand.clash>
0.0000

> <Gold.PLP.ligand.torsion>
0.8559

> <Gold.PLP.Chemscore.Hbond>
4.9600

> <Gold.PLP.Chemscore.CHOScore>
0.9369

> <Gold.PLP.Chemscore.Metal>
0.0000

> <Gold.Chemscore.Hbonds>
donor molecule, donor type, donor heavy atom, donor atom, acceptor molecule, acceptor atom, score
      L1  H     4    22       P1 10171  0.77
      L1  H     6    25       P1  7948  2.00
      L1  H     6    37       P1  7957  1.00
      P1  H  7954  7966       L1     4  1.00
      L1  C    12    34       P1  8028  0.96

> <Gold.PLP.Chemscore.Internal.Correction>
0.2289

> <Gold.Rescore>
     Score         DG    S(hbond)    S(metal)    S(lipo)     H(rot)  DE(clash)    DE(int)     intcor
     18.39     -19.67       3.64        0.00      70.09       2.41       0.62       0.66       ----

> <Gold.Chemscore.Fitness>
18.3908

> <Gold.Chemscore.DG>
-19.6675

> <Gold.Chemscore.ZeroCoef>
-5.4800

> <Gold.Chemscore.Hbond>
3.6389

> <Gold.Chemscore.Metal>
0.0000

> <Gold.Chemscore.Lipo>
70.0867

> <Gold.Chemscore.Internal_Hbond>
0.0000

> <Gold.Chemscore.DEClash>
0.6161

> <Gold.Chemscore.DEInternal>
0.6605

> <Gold.Chemscore.Rot>
2.4089

> <Gold.Chemscore.Internal.Correction>
   9.000000E+99

> <Gold.Chemscore.Hbonds>
donor molecule, donor type, donor heavy atom, donor atom, acceptor molecule, acceptor atom, score
      L1  H     4    22       P1 10171  0.74
      L1  H     6    25       P1  7948  1.00
      L1  H     6    37       P1  7957  0.97
      P1  H  7954  7966       L1     4  0.63

> <Gold.Chemscore.Hbond.Weighted>
-12.1540

> <Gold.Chemscore.Metal.Weighted>
-0.0000

> <Gold.Chemscore.Lipo.Weighted>
-8.2001

> <Gold.Chemscore.Internal_Hbond.Weighted>
0.0000

> <Gold.Chemscore.DEClash.Weighted>
0.6161

> <Gold.Chemscore.DEInternal.Weighted>
0.6605

> <Gold.Chemscore.Rot.Weighted>
6.1667

> <Gold.Chemscore.Internal.Correction.Weighted>
   9.000000E+99

> <Gold.Protein.RotatedTorsions>
[ 6907 6896 6895 6894 ] final  -96.64 input  -60.11 | X-H torsion
[ 7974 7965 7964 7962 ] final  124.71 input  175.53 | X-H torsion
[ 8008 7997 7996 7995 ] final -120.98 input   59.86 | X-H torsion
[ 10167 10162 10161 10158 ] final   -3.55 input  -65.29 | X-H torsion
[ 10718 10713 10712 10709 ] final    9.21 input   66.30 | X-H torsion
[ 10763 10752 10751 10750 ] final  100.75 input  -60.55 | X-H torsion
[ 11005 11000 10999 10996 ] final -144.73 input  -57.11 | X-H torsion

> <Gold.Protein.ActiveResidues>
 VAL166  LYS551  ARG553  GLY616  TRP617  ASP618  TYR619  PRO620  LYS621  CYS622 
 ASP623  PHE694  ASN695  SER759  ASP760  ASP761  ALA762  ILE779  LEU786  VAL792 
 PHE793  MET794  SER795  GLU796  ALA797  LYS798  CYS799  TRP800  GLU811  SER814 

> <Gold.Protein.RotatedAtoms>
  150.6994  134.1472  159.4126 H   0  0  0  0  0  0  0  0  0  0  0  0  # atno 6907 bound_to 6896
  151.9456  135.0191  160.0548 H   0  0  0  0  0  0  0  0  0  0  0  0  # atno 6908 bound_to 6896
  152.2056  133.4838  159.5119 H   0  0  0  0  0  0  0  0  0  0  0  0  # atno 6909 bound_to 6896
  145.0813  139.3655  143.4907 H   0  0  0  0  0  0  0  0  0  0  0  0  # atno 7974 bound_to 7965
  155.1406  140.0402  157.2797 H   0  0  0  0  0  0  0  0  0  0  0  0  # atno 8008 bound_to 7997
  154.6475  140.2561  155.7224 H   0  0  0  0  0  0  0  0  0  0  0  0  # atno 8009 bound_to 7997
  156.2562  140.2843  156.0895 H   0  0  0  0  0  0  0  0  0  0  0  0  # atno 8010 bound_to 7997
  140.6894  143.6527  150.8336 H   0  0  0  0  0  0  0  0  0  0  0  0  # atno 10167 bound_to 10162
  156.9630  130.5940  149.5663 H   0  0  0  0  0  0  0  0  0  0  0  0  # atno 10718 bound_to 10713
  153.3179  135.4068  155.1392 H   0  0  0  0  0  0  0  0  0  0  0  0  # atno 10763 bound_to 10752
  154.8593  135.3580  154.5635 H   0  0  0  0  0  0  0  0  0  0  0  0  # atno 10764 bound_to 10752
  153.6067  135.7069  153.5421 H   0  0  0  0  0  0  0  0  0  0  0  0  # atno 10765 bound_to 10752
  140.7995  134.2874  157.4984 H   0  0  0  0  0  0  0  0  0  0  0  0  # atno 11005 bound_to 11000
  146.3531  140.0605  142.8629 LP  0  0  0  0  0  0  0  0  0  0  0  0  # atno 17320 bound_to 7965
  145.1174  140.9442  143.4620 LP  0  0  0  0  0  0  0  0  0  0  0  0  # atno 17321 bound_to 7965
  140.0238  143.5515  152.2789 LP  0  0  0  0  0  0  0  0  0  0  0  0  # atno 17342 bound_to 10162
  139.6283  144.7640  151.2591 LP  0  0  0  0  0  0  0  0  0  0  0  0  # atno 17343 bound_to 10162
  156.0314  130.5405  150.8543 LP  0  0  0  0  0  0  0  0  0  0  0  0  # atno 17370 bound_to 10713
  157.5644  131.0946  150.9511 LP  0  0  0  0  0  0  0  0  0  0  0  0  # atno 17371 bound_to 10713
  139.8723  134.9421  156.3815 LP  0  0  0  0  0  0  0  0  0  0  0  0  # atno 17394 bound_to 11000
  140.9309  133.7580  156.0024 LP  0  0  0  0  0  0  0  0  0  0  0  0  # atno 17395 bound_to 11000

$$$$
