AV-unprocessed.smi:548|AV-procd|sdf|2891|dock7
  -GOLD-   2262023383D 1   1.00000     0.00000
 Structure written by MMmdl.
 24 24  0  0  0  0  0  0  0  0  2 V2000
  150.7229  136.5021  154.7198 C   0  0  0  0  0  0  0  0  0  0  0  0
  150.9713  137.5636  155.8198 C   0  0  0  0  0  0  0  0  0  0  0  0
  150.3912  137.0410  157.1571 C   0  0  0  0  0  0  0  0  0  0  0  0
  152.5043  137.7661  155.9830 C   0  0  0  0  0  0  0  0  0  0  0  0
  153.1974  136.7722  156.2974 O   0  0  0  0  0  0  0  0  0  0  0  0
  152.9638  138.9201  155.8268 O   0  5  0  0  0  0  0  0  0  0  0  0
  150.2826  138.8931  155.4326 C   0  0  0  0  0  0  0  0  0  0  0  0
  150.4750  140.1251  156.1131 C   0  0  0  0  0  0  0  0  0  0  0  0
  149.7942  141.2763  155.6721 C   0  0  0  0  0  0  0  0  0  0  0  0
  148.9373  141.1670  154.5614 C   0  0  0  0  0  0  0  0  0  0  0  0
  148.2473  142.2837  154.0964 N   0  0  0  0  0  0  0  0  0  0  0  0
  148.7376  140.0107  153.8996 N   0  0  0  0  0  0  0  0  0  0  0  0
  149.3948  138.9127  154.3300 C   0  0  0  0  0  0  0  0  0  0  0  0
  151.0398  136.8551  153.7375 H   0  0  0  0  0  0  0  0  0  0  0  0
  149.6674  136.2419  154.6397 H   0  0  0  0  0  0  0  0  0  0  0  0
  151.2617  135.5767  154.9289 H   0  0  0  0  0  0  0  0  0  0  0  0
  150.4681  137.7861  157.9504 H   0  0  0  0  0  0  0  0  0  0  0  0
  150.9114  136.1432  157.4943 H   0  0  0  0  0  0  0  0  0  0  0  0
  149.3369  136.7801  157.0660 H   0  0  0  0  0  0  0  0  0  0  0  0
  151.1289  140.2230  156.9660 H   0  0  0  0  0  0  0  0  0  0  0  0
  149.9311  142.2197  156.1799 H   0  0  0  0  0  0  0  0  0  0  0  0
  148.3440  143.1859  154.5390 H   0  0  0  0  0  0  0  0  0  0  0  0
  147.6300  142.2241  153.2997 H   0  0  0  0  0  0  0  0  0  0  0  0
  149.1985  138.0140  153.7648 H   0  0  0  0  0  0  0  0  0  0  0  0
  1  2  1  0  0  0  0
  1 14  1  0  0  0  0
  1 15  1  0  0  0  0
  1 16  1  0  0  0  0
  2  3  1  0  0  0  0
  2  4  1  0  0  0  0
  2  7  1  0  0  0  0
  3 17  1  0  0  0  0
  3 18  1  0  0  0  0
  3 19  1  0  0  0  0
  4  5  2  0  0  0  0
  4  6  1  0  0  0  0
  7 13  1  0  0  0  0
  7  8  2  0  0  0  0
  8  9  1  0  0  0  0
  8 20  1  0  0  0  0
  9 10  2  0  0  0  0
  9 21  1  0  0  0  0
 10 11  1  0  0  0  0
 10 12  1  0  0  0  0
 11 22  1  0  0  0  0
 11 23  1  0  0  0  0
 12 13  2  0  0  0  0
 13 24  1  0  0  0  0
M  CHG  1   6  -1
M  END
> <s_m_source_file>
AV-unprocessed.smi

> <i_m_source_file_index>
548

> <i_lp_mmshare_version>
43012

> <i_f3d_flags>
0

> <s_epik_input>
Tz1DKFtPSF0pQyhbQ0gzXSkoW0NIM10pYzFbY0hdW2NIXWMoW05IMl0pbltjSF0x

> <s_epik_cmdline>
J2VwaWtfcHl0aG9uJywgJy1waCcsICc3LjAnLCAnLXRuJywgJzgnLCAnLW1hJywgJzIwMCcsICctbWV0YWxfYmluZGluZycsICctaW1hZScsICc8aW5maWxlLm1hZT4nLCAnLW9tYWUnLCAnPG91dGZpbGUubWFlPic=

> <r_lp_tautomer_probability>
1

> <r_epik_Ionization_Penalty>
1.52711

> <r_epik_Ionization_Penalty_Charging>
0.000624596

> <r_epik_Ionization_Penalty_Neutral>
1.52649

> <r_epik_State_Penalty>
1.61852

> <r_epik_Charging_Adjusted_Penalty>
1.61914

> <i_epik_Tot_Q>
-1

> <i_epik_Tot_abs_Q>
1

> <r_epik_Metal_State_Penalty>
0.00844734

> <b_epik_Metal_Only>
0

> <s_lp_Force_Field>
OPLS_2005

> <r_lp_Energy>
9.30736

> <b_lp_Chiralities_Consistent>
1

> <s_lp_Variant>
AV-unprocessed.smi:548-2

> <Gold.Version>
5.8.1

> <Gold.Id.Protein>
6NUR|6NUR_protein|mol2

> <Gold.PLP.Fitness>
32.5434

> <Gold.PLP.PLP>
-16.8314

> <Gold.PLP.part.hbond>
-3.0000

> <Gold.PLP.part.metal>
0.0000

> <Gold.PLP.part.buried>
-3.9865

> <Gold.PLP.part.nonpolar>
-13.6682

> <Gold.PLP.part.repulsive>
3.5411

> <Gold.PLP.ligand.clash>
0.0000

> <Gold.PLP.ligand.torsion>
0.2865

> <Gold.PLP.Chemscore.Hbond>
4.5680

> <Gold.PLP.Chemscore.CHOScore>
0.8574

> <Gold.PLP.Chemscore.Metal>
0.0000

> <Gold.Chemscore.Hbonds>
donor molecule, donor type, donor heavy atom, donor atom, acceptor molecule, acceptor atom, score
      L1  H    11    22       P1  8028  1.00
      P1  H  7997  8008       L1     6  2.00
      P1  H 10752 10765       L1     5  1.57
      L1  C    13    24       P1  7948  0.84

> <Gold.PLP.Chemscore.Internal.Correction>
0.0087

> <Gold.Rescore>
     Score         DG    S(hbond)    S(metal)    S(lipo)     H(rot)  DE(clash)    DE(int)     intcor
     13.50     -15.32       2.86        0.00      34.66       1.48       0.04       1.78       ----

> <Gold.Chemscore.Fitness>
13.4990

> <Gold.Chemscore.DG>
-15.3204

> <Gold.Chemscore.ZeroCoef>
-5.4800

> <Gold.Chemscore.Hbond>
2.8634

> <Gold.Chemscore.Metal>
0.0000

> <Gold.Chemscore.Lipo>
34.6649

> <Gold.Chemscore.Internal_Hbond>
0.0000

> <Gold.Chemscore.DEClash>
0.0402

> <Gold.Chemscore.DEInternal>
1.7811

> <Gold.Chemscore.Rot>
1.4762

> <Gold.Chemscore.Internal.Correction>
   9.000000E+99

> <Gold.Chemscore.Hbonds>
donor molecule, donor type, donor heavy atom, donor atom, acceptor molecule, acceptor atom, score
      L1  H    11    22       P1  8028  0.99
      P1  H  7997  8008       L1     6  0.99
      P1  H 10752 10765       L1     5  0.79

> <Gold.Chemscore.Hbond.Weighted>
-9.5636

> <Gold.Chemscore.Metal.Weighted>
-0.0000

> <Gold.Chemscore.Lipo.Weighted>
-4.0558

> <Gold.Chemscore.Internal_Hbond.Weighted>
0.0000

> <Gold.Chemscore.DEClash.Weighted>
0.0402

> <Gold.Chemscore.DEInternal.Weighted>
1.7811

> <Gold.Chemscore.Rot.Weighted>
3.7790

> <Gold.Chemscore.Internal.Correction.Weighted>
   9.000000E+99

> <Gold.Protein.RotatedTorsions>
[ 6907 6896 6895 6894 ] final   -7.93 input  -60.11 | X-H torsion
[ 7974 7965 7964 7962 ] final -150.66 input  175.53 | X-H torsion
[ 8008 7997 7996 7995 ] final  -41.44 input   59.86 | X-H torsion
[ 10167 10162 10161 10158 ] final  171.06 input  -65.29 | X-H torsion
[ 10718 10713 10712 10709 ] final   12.74 input   66.30 | X-H torsion
[ 10763 10752 10751 10750 ] final -127.08 input  -60.55 | X-H torsion
[ 11005 11000 10999 10996 ] final -158.75 input  -57.11 | X-H torsion

> <Gold.Protein.ActiveResidues>
 VAL166  LYS551  ARG553  GLY616  TRP617  ASP618  TYR619  PRO620  LYS621  CYS622 
 ASP623  PHE694  ASN695  SER759  ASP760  ASP761  ALA762  ILE779  LEU786  VAL792 
 PHE793  MET794  SER795  GLU796  ALA797  LYS798  CYS799  TRP800  GLU811  SER814 

> <Gold.Protein.RotatedAtoms>
  151.4417  135.1021  159.9671 H   0  0  0  0  0  0  0  0  0  0  0  0  # atno 6907 bound_to 6896
  152.4920  133.8522  159.7218 H   0  0  0  0  0  0  0  0  0  0  0  0  # atno 6908 bound_to 6896
  150.9083  133.6970  159.2888 H   0  0  0  0  0  0  0  0  0  0  0  0  # atno 6909 bound_to 6896
  144.7895  140.4902  143.5783 H   0  0  0  0  0  0  0  0  0  0  0  0  # atno 7974 bound_to 7965
  154.4004  140.1499  156.3192 H   0  0  0  0  0  0  0  0  0  0  0  0  # atno 8008 bound_to 7997
  155.8545  140.3456  155.5694 H   0  0  0  0  0  0  0  0  0  0  0  0  # atno 8009 bound_to 7997
  155.7947  140.0862  157.1980 H   0  0  0  0  0  0  0  0  0  0  0  0  # atno 8010 bound_to 7997
  139.5036  144.3527  151.9906 H   0  0  0  0  0  0  0  0  0  0  0  0  # atno 10167 bound_to 10162
  157.0145  130.6130  149.5712 H   0  0  0  0  0  0  0  0  0  0  0  0  # atno 10718 bound_to 10713
  154.8750  135.3974  154.3535 H   0  0  0  0  0  0  0  0  0  0  0  0  # atno 10763 bound_to 10752
  153.4317  135.7025  153.6231 H   0  0  0  0  0  0  0  0  0  0  0  0  # atno 10764 bound_to 10752
  153.4850  135.3761  155.2431 H   0  0  0  0  0  0  0  0  0  0  0  0  # atno 10765 bound_to 10752
  140.6501  134.4459  157.5235 H   0  0  0  0  0  0  0  0  0  0  0  0  # atno 11005 bound_to 11000
  145.5833  139.1490  143.3223 LP  0  0  0  0  0  0  0  0  0  0  0  0  # atno 17320 bound_to 7965
  146.2141  140.5962  142.9046 LP  0  0  0  0  0  0  0  0  0  0  0  0  # atno 17321 bound_to 7965
  140.2964  144.3696  150.6073 LP  0  0  0  0  0  0  0  0  0  0  0  0  # atno 17342 bound_to 10162
  140.5907  143.2168  151.7258 LP  0  0  0  0  0  0  0  0  0  0  0  0  # atno 17343 bound_to 10162
  156.0124  130.5216  150.8030 LP  0  0  0  0  0  0  0  0  0  0  0  0  # atno 17370 bound_to 10713
  157.5296  131.0936  150.9973 LP  0  0  0  0  0  0  0  0  0  0  0  0  # atno 17371 bound_to 10713
  139.9049  134.8472  156.1747 LP  0  0  0  0  0  0  0  0  0  0  0  0  # atno 17394 bound_to 11000
  141.0543  133.6873  156.1830 LP  0  0  0  0  0  0  0  0  0  0  0  0  # atno 17395 bound_to 11000

$$$$
