AV-unprocessed.smi:2171|AV-procd|sdf|8832|dock6
  -GOLD-   2272012 23D 1   1.00000     0.00000
 Structure written by MMmdl.
 39 41  0  0  0  0  0  0  0  0  2 V2000
  149.2288  140.8515  157.4036 O   0  0  0  0  0  0  0  0  0  0  0  0
  149.8727  141.3570  156.4836 C   0  0  0  0  0  0  0  0  0  0  0  0
  149.8097  140.7698  155.0700 C   0  0  0  0  0  0  0  0  0  0  0  0
  148.4939  140.9247  154.4733 N   0  0  0  0  0  0  0  0  0  0  0  0
  147.6139  141.9799  154.5991 C   0  0  0  0  0  0  0  0  0  0  0  0
  146.5089  141.6790  153.8556 C   0  0  0  0  0  0  0  0  0  0  0  0
  146.8099  140.4019  153.3049 C   0  0  0  0  0  0  0  0  0  0  0  0
  147.9990  139.9539  153.6745 N   0  0  0  0  0  0  0  0  0  0  0  0
  150.6697  142.4237  156.6496 N   0  0  0  0  0  0  0  0  0  0  0  0
  150.8698  143.1233  157.9161 C   0  0  2  0  0  0  0  0  0  0  0  0
  151.7695  144.3468  157.7964 C   0  0  0  0  0  0  0  0  0  0  0  0
  152.1970  144.6037  159.2454 C   0  0  0  0  0  0  0  0  0  0  0  0
  152.1310  143.3000  159.9513 N   0  3  2  0  0  0  0  0  0  0  0  0
  153.4018  142.9069  160.6175 C   0  0  0  0  0  0  0  0  0  0  0  0
  153.4007  141.4111  160.9658 C   0  0  0  0  0  0  0  0  0  0  0  0
  153.2939  140.5386  159.7007 C   0  0  0  0  0  0  0  0  0  0  0  0
  152.6280  141.2820  158.5266 C   0  0  0  0  0  0  0  0  0  0  0  0
  151.5590  142.2908  159.0149 C   0  0  2  0  0  0  0  0  0  0  0  0
  150.5394  141.2568  154.4214 H   0  0  0  0  0  0  0  0  0  0  0  0
  150.0696  139.7109  155.1087 H   0  0  0  0  0  0  0  0  0  0  0  0
  147.8449  142.8468  155.2004 H   0  0  0  0  0  0  0  0  0  0  0  0
  145.6210  142.2795  153.7245 H   0  0  0  0  0  0  0  0  0  0  0  0
  146.2045  139.7917  152.6507 H   0  0  0  0  0  0  0  0  0  0  0  0
  151.1675  142.7764  155.8447 H   0  0  0  0  0  0  0  0  0  0  0  0
  149.9000  143.4606  158.2884 H   0  0  0  0  0  0  0  0  0  0  0  0
  152.6457  144.1154  157.1887 H   0  0  0  0  0  0  0  0  0  0  0  0
  151.2656  145.2036  157.3475 H   0  0  0  0  0  0  0  0  0  0  0  0
  153.1814  145.0711  159.2954 H   0  0  0  0  0  0  0  0  0  0  0  0
  151.4923  145.2814  159.7285 H   0  0  0  0  0  0  0  0  0  0  0  0
  154.2510  143.1205  159.9659 H   0  0  0  0  0  0  0  0  0  0  0  0
  153.5332  143.5112  161.5156 H   0  0  0  0  0  0  0  0  0  0  0  0
  154.2979  141.1466  161.5263 H   0  0  0  0  0  0  0  0  0  0  0  0
  152.5571  141.2022  161.6253 H   0  0  0  0  0  0  0  0  0  0  0  0
  154.2846  140.2047  159.3903 H   0  0  0  0  0  0  0  0  0  0  0  0
  152.7319  139.6347  159.9393 H   0  0  0  0  0  0  0  0  0  0  0  0
  153.3913  141.8143  157.9572 H   0  0  0  0  0  0  0  0  0  0  0  0
  152.1977  140.5493  157.8439 H   0  0  0  0  0  0  0  0  0  0  0  0
  150.7983  141.7252  159.5553 H   0  0  0  0  0  0  0  0  0  0  0  0
  151.4445  143.4107  160.6840 H   0  0  0  0  0  0  0  0  0  0  0  0
  1  2  2  0  0  0  0
  2  3  1  0  0  0  0
  2  9  1  0  0  0  0
  3  4  1  0  0  0  0
  3 19  1  0  0  0  0
  3 20  1  0  0  0  0
  4  8  1  0  0  0  0
  4  5  1  0  0  0  0
  5  6  2  0  0  0  0
  5 21  1  0  0  0  0
  6  7  1  0  0  0  0
  6 22  1  0  0  0  0
  7  8  2  0  0  0  0
  7 23  1  0  0  0  0
  9 10  1  0  0  0  0
  9 24  1  0  0  0  0
 10 18  1  0  0  0  0
 10 11  1  0  0  0  0
 10 25  1  0  0  0  0
 11 12  1  0  0  0  0
 11 26  1  0  0  0  0
 11 27  1  0  0  0  0
 12 13  1  0  0  0  0
 12 28  1  0  0  0  0
 12 29  1  0  0  0  0
 13 18  1  0  0  0  0
 13 14  1  0  0  0  0
 13 39  1  0  0  0  0
 14 15  1  0  0  0  0
 14 30  1  0  0  0  0
 14 31  1  0  0  0  0
 15 16  1  0  0  0  0
 15 32  1  0  0  0  0
 15 33  1  0  0  0  0
 16 17  1  0  0  0  0
 16 34  1  0  0  0  0
 16 35  1  0  0  0  0
 17 18  1  0  0  0  0
 17 36  1  0  0  0  0
 17 37  1  0  0  0  0
 18 38  1  0  0  0  0
M  CHG  1  13   1
M  END
> <s_m_source_file>
AV-unprocessed.smi

> <i_m_source_file_index>
2171

> <i_lp_mmshare_version>
43012

> <i_f3d_flags>
0

> <s_epik_input>
bjFbY0hdW2NIXVtjSF1uMVtDSDJdQyg9TylbTkhdW0NASF0oW0NIMl1bQ0gyXTIpW0NAQEhdKE4yMylbQ0gyXVtDSDJdW0NIMl1bQ0gyXTM=

> <s_epik_cmdline>
J2VwaWtfcHl0aG9uJywgJy1waCcsICc3LjAnLCAnLXRuJywgJzgnLCAnLW1hJywgJzIwMCcsICctbWV0YWxfYmluZGluZycsICctaW1hZScsICc8aW5maWxlLm1hZT4nLCAnLW9tYWUnLCAnPG91dGZpbGUubWFlPic=

> <r_lp_tautomer_probability>
1

> <r_epik_Ionization_Penalty>
0.00204179

> <r_epik_Ionization_Penalty_Charging>
0.00203239

> <r_epik_Ionization_Penalty_Neutral>
9.40205e-06

> <r_epik_State_Penalty>
0.00138983

> <r_epik_Charging_Adjusted_Penalty>
0.00342221

> <i_epik_Tot_Q>
1

> <i_epik_Tot_abs_Q>
1

> <r_epik_Metal_State_Penalty>
-0

> <b_epik_Metal_Only>
0

> <s_lp_Force_Field>
OPLS_2005

> <r_lp_Energy>
41.0306

> <b_lp_Chiralities_Consistent>
1

> <s_lp_Variant>
AV-unprocessed.smi:2171-7

> <Gold.Version>
5.8.1

> <Gold.Id.Protein>
6NUR|6NUR_protein|mol2

> <Gold.PLP.Fitness>
43.6203

> <Gold.PLP.PLP>
-39.0736

> <Gold.PLP.part.hbond>
-1.0000

> <Gold.PLP.part.metal>
0.0000

> <Gold.PLP.part.buried>
-4.0933

> <Gold.PLP.part.nonpolar>
-35.2657

> <Gold.PLP.part.repulsive>
1.5705

> <Gold.PLP.ligand.clash>
0.0000

> <Gold.PLP.ligand.torsion>
0.3948

> <Gold.PLP.Chemscore.Hbond>
0.0000

> <Gold.PLP.Chemscore.CHOScore>
1.7777

> <Gold.PLP.Chemscore.Metal>
0.0000

> <Gold.Chemscore.Hbonds>
donor molecule, donor type, donor heavy atom, donor atom, acceptor molecule, acceptor atom, score
      L1  C     5    21       P1  8028  1.00
      L1  C     7    23       P1 10175  0.57

> <Gold.PLP.Chemscore.Internal.Correction>
0.0031

> <Gold.Rescore>
     Score         DG    S(hbond)    S(metal)    S(lipo)     H(rot)  DE(clash)    DE(int)     intcor
     14.38     -14.89       0.00        0.00     111.94       1.44       0.21       0.30       ----

> <Gold.Chemscore.Fitness>
14.3797

> <Gold.Chemscore.DG>
-14.8880

> <Gold.Chemscore.ZeroCoef>
-5.4800

> <Gold.Chemscore.Hbond>
0.0000

> <Gold.Chemscore.Metal>
0.0000

> <Gold.Chemscore.Lipo>
111.9397

> <Gold.Chemscore.Internal_Hbond>
0.0000

> <Gold.Chemscore.DEClash>
0.2080

> <Gold.Chemscore.DEInternal>
0.3003

> <Gold.Chemscore.Rot>
1.4410

> <Gold.Chemscore.Internal.Correction>
   9.000000E+99

> <Gold.Chemscore.Hbond.Weighted>
-0.0000

> <Gold.Chemscore.Metal.Weighted>
-0.0000

> <Gold.Chemscore.Lipo.Weighted>
-13.0970

> <Gold.Chemscore.Internal_Hbond.Weighted>
0.0000

> <Gold.Chemscore.DEClash.Weighted>
0.2080

> <Gold.Chemscore.DEInternal.Weighted>
0.3003

> <Gold.Chemscore.Rot.Weighted>
3.6889

> <Gold.Chemscore.Internal.Correction.Weighted>
   9.000000E+99

> <Gold.Protein.RotatedTorsions>
[ 6907 6896 6895 6894 ] final   -4.86 input  -60.11 | X-H torsion
[ 7974 7965 7964 7962 ] final  170.98 input  175.53 | X-H torsion
[ 8008 7997 7996 7995 ] final  -14.65 input   59.86 | X-H torsion
[ 10167 10162 10161 10158 ] final  159.15 input  -65.29 | X-H torsion
[ 10718 10713 10712 10709 ] final  -54.88 input   66.30 | X-H torsion
[ 10763 10752 10751 10750 ] final  134.93 input  -60.55 | X-H torsion
[ 11005 11000 10999 10996 ] final  103.03 input  -57.11 | X-H torsion

> <Gold.Protein.ActiveResidues>
 VAL166  LYS551  ARG553  GLY616  TRP617  ASP618  TYR619  PRO620  LYS621  CYS622 
 ASP623  PHE694  ASN695  SER759  ASP760  ASP761  ALA762  ILE779  LEU786  VAL792 
 PHE793  MET794  SER795  GLU796  ALA797  LYS798  CYS799  TRP800  GLU811  SER814 

> <Gold.Protein.RotatedAtoms>
  151.4909  135.1057  159.9802 H   0  0  0  0  0  0  0  0  0  0  0  0  # atno 6907 bound_to 6896
  152.4741  133.8094  159.7006 H   0  0  0  0  0  0  0  0  0  0  0  0  # atno 6908 bound_to 6896
  150.8768  133.7365  159.2970 H   0  0  0  0  0  0  0  0  0  0  0  0  # atno 6909 bound_to 6896
  144.7308  139.9282  143.6423 H   0  0  0  0  0  0  0  0  0  0  0  0  # atno 7974 bound_to 7965
  154.5193  140.2217  155.9006 H   0  0  0  0  0  0  0  0  0  0  0  0  # atno 8008 bound_to 7997
  156.1643  140.3135  155.8827 H   0  0  0  0  0  0  0  0  0  0  0  0  # atno 8009 bound_to 7997
  155.3687  140.0465  157.3036 H   0  0  0  0  0  0  0  0  0  0  0  0  # atno 8010 bound_to 7997
  139.4830  144.4757  151.8514 H   0  0  0  0  0  0  0  0  0  0  0  0  # atno 10167 bound_to 10162
  156.1414  130.4154  150.0097 H   0  0  0  0  0  0  0  0  0  0  0  0  # atno 10718 bound_to 10713
  153.8317  135.3103  155.3419 H   0  0  0  0  0  0  0  0  0  0  0  0  # atno 10763 bound_to 10752
  154.7970  135.4749  154.0188 H   0  0  0  0  0  0  0  0  0  0  0  0  # atno 10764 bound_to 10752
  153.1630  135.6864  153.8806 H   0  0  0  0  0  0  0  0  0  0  0  0  # atno 10765 bound_to 10752
  139.8781  134.9247  156.5148 H   0  0  0  0  0  0  0  0  0  0  0  0  # atno 11005 bound_to 11000
  146.0878  139.3866  143.0425 LP  0  0  0  0  0  0  0  0  0  0  0  0  # atno 17320 bound_to 7965
  145.7753  140.9879  143.1128 LP  0  0  0  0  0  0  0  0  0  0  0  0  # atno 17321 bound_to 7965
  140.4229  144.2219  150.5887 LP  0  0  0  0  0  0  0  0  0  0  0  0  # atno 17342 bound_to 10162
  140.4856  143.2364  151.8893 LP  0  0  0  0  0  0  0  0  0  0  0  0  # atno 17343 bound_to 10162
  156.7981  130.9280  151.3646 LP  0  0  0  0  0  0  0  0  0  0  0  0  # atno 17370 bound_to 10713
  157.6579  130.8940  149.9767 LP  0  0  0  0  0  0  0  0  0  0  0  0  # atno 17371 bound_to 10713
  140.8493  133.8144  155.9153 LP  0  0  0  0  0  0  0  0  0  0  0  0  # atno 17394 bound_to 11000
  140.9160  134.2202  157.4956 LP  0  0  0  0  0  0  0  0  0  0  0  0  # atno 17395 bound_to 11000

$$$$
