AV-unprocessed.smi:1167|AV-procd|sdf|4938|dock1
  -GOLD-   22720 3523D 1   1.00000     0.00000
 Structure written by MMmdl.
 41 42  0  0  0  0  0  0  0  0  1 V2000
  150.4048  142.6160  157.5015 C   0  0  0  0  0  0  0  0  0  0  0  0
  151.0026  142.0184  156.3563 O   0  0  0  0  0  0  0  0  0  0  0  0
  150.2800  141.0731  155.6576 C   0  0  0  0  0  0  0  0  0  0  0  0
  148.8745  141.1658  155.6546 C   0  0  0  0  0  0  0  0  0  0  0  0
  148.1281  140.2042  154.9463 C   0  0  0  0  0  0  0  0  0  0  0  0
  148.8151  139.1738  154.2589 C   0  0  0  0  0  0  0  0  0  0  0  0
  148.1957  138.1382  153.5047 N   0  0  0  0  0  0  0  0  0  0  0  0
  146.8935  137.8261  153.3827 C   0  0  0  0  0  0  0  0  0  0  0  0
  145.9594  138.4123  153.9279 O   0  0  0  0  0  0  0  0  0  0  0  0
  146.7272  136.7701  152.5735 N   0  0  0  0  0  0  0  0  0  0  0  0
  145.4432  136.1688  152.2253 C   0  0  0  0  0  0  0  0  0  0  0  0
  145.2416  134.8719  153.0382 C   0  0  0  0  0  0  0  0  0  0  0  0
  143.9938  134.1037  152.5674 C   0  0  0  0  0  0  0  0  0  0  0  0
  144.1153  133.8384  151.1293 N   0  0  0  0  0  0  0  0  0  0  0  0
  144.3385  132.5993  150.6291 C   0  0  0  0  0  0  0  0  0  0  0  0
  144.5209  132.4226  149.1199 C   0  0  0  0  0  0  0  0  0  0  0  0
  144.4033  131.5964  151.3403 O   0  0  0  0  0  0  0  0  0  0  0  0
  144.1067  135.0816  150.3483 C   0  0  0  0  0  0  0  0  0  0  0  0
  145.3604  135.9002  150.7045 C   0  0  0  0  0  0  0  0  0  0  0  0
  150.2241  139.1738  154.3235 C   0  0  0  0  0  0  0  0  0  0  0  0
  150.9455  140.0915  155.0009 N   0  0  0  0  0  0  0  0  0  0  0  0
  151.0983  143.3361  157.9356 H   0  0  0  0  0  0  0  0  0  0  0  0
  150.1778  141.8727  158.2672 H   0  0  0  0  0  0  0  0  0  0  0  0
  149.4912  143.1524  157.2406 H   0  0  0  0  0  0  0  0  0  0  0  0
  148.3753  141.9615  156.1878 H   0  0  0  0  0  0  0  0  0  0  0  0
  147.0538  140.2876  154.9514 H   0  0  0  0  0  0  0  0  0  0  0  0
  148.8342  137.5480  152.9918 H   0  0  0  0  0  0  0  0  0  0  0  0
  147.5498  136.3490  152.1669 H   0  0  0  0  0  0  0  0  0  0  0  0
  144.6404  136.8565  152.4982 H   0  0  0  0  0  0  0  0  0  0  0  0
  146.1161  134.2278  152.9319 H   0  0  0  0  0  0  0  0  0  0  0  0
  145.1561  135.1044  154.1002 H   0  0  0  0  0  0  0  0  0  0  0  0
  143.8740  133.1936  153.1567 H   0  0  0  0  0  0  0  0  0  0  0  0
  143.0963  134.6960  152.7520 H   0  0  0  0  0  0  0  0  0  0  0  0
  145.3660  133.0103  148.7603 H   0  0  0  0  0  0  0  0  0  0  0  0
  143.6216  132.7276  148.5838 H   0  0  0  0  0  0  0  0  0  0  0  0
  144.7146  131.3774  148.8761 H   0  0  0  0  0  0  0  0  0  0  0  0
  144.0623  134.9222  149.2720 H   0  0  0  0  0  0  0  0  0  0  0  0
  143.2097  135.6519  150.5935 H   0  0  0  0  0  0  0  0  0  0  0  0
  145.3542  136.8422  150.1549 H   0  0  0  0  0  0  0  0  0  0  0  0
  146.2475  135.3567  150.3754 H   0  0  0  0  0  0  0  0  0  0  0  0
  150.7953  138.4107  153.8148 H   0  0  0  0  0  0  0  0  0  0  0  0
  1  2  1  0  0  0  0
  1 22  1  0  0  0  0
  1 23  1  0  0  0  0
  1 24  1  0  0  0  0
  2  3  1  0  0  0  0
  3 21  1  0  0  0  0
  3  4  2  0  0  0  0
  4  5  1  0  0  0  0
  4 25  1  0  0  0  0
  5  6  2  0  0  0  0
  5 26  1  0  0  0  0
  6  7  1  0  0  0  0
  6 20  1  0  0  0  0
  7  8  1  0  0  0  0
  7 27  1  0  0  0  0
  8  9  2  0  0  0  0
  8 10  1  0  0  0  0
 10 11  1  0  0  0  0
 10 28  1  0  0  0  0
 11 19  1  0  0  0  0
 11 12  1  0  0  0  0
 11 29  1  0  0  0  0
 12 13  1  0  0  0  0
 12 30  1  0  0  0  0
 12 31  1  0  0  0  0
 13 14  1  0  0  0  0
 13 32  1  0  0  0  0
 13 33  1  0  0  0  0
 14 15  1  0  0  0  0
 14 18  1  0  0  0  0
 15 16  1  0  0  0  0
 15 17  2  0  0  0  0
 16 34  1  0  0  0  0
 16 35  1  0  0  0  0
 16 36  1  0  0  0  0
 18 19  1  0  0  0  0
 18 37  1  0  0  0  0
 18 38  1  0  0  0  0
 19 39  1  0  0  0  0
 19 40  1  0  0  0  0
 20 21  2  0  0  0  0
 20 41  1  0  0  0  0
M  END
> <s_m_source_file>
AV-unprocessed.smi

> <i_m_source_file_index>
1167

> <i_lp_mmshare_version>
43012

> <i_f3d_flags>
0

> <s_epik_input>
W0NIM11PYzFbY0hdW2NIXWMoW2NIXW4xKVtOSF1DKD1PKVtOSF1bQ0hdMltDSDJdW0NIMl1OKEMoPU8pW0NIM10pW0NIMl1bQ0gyXTI=

> <s_epik_cmdline>
J2VwaWtfcHl0aG9uJywgJy1waCcsICc3LjAnLCAnLXRuJywgJzgnLCAnLW1hJywgJzIwMCcsICctbWV0YWxfYmluZGluZycsICctaW1hZScsICc8aW5maWxlLm1hZT4nLCAnLW9tYWUnLCAnPG91dGZpbGUubWFlPic=

> <r_lp_tautomer_probability>
1

> <r_epik_Ionization_Penalty>
9.6092e-05

> <r_epik_Ionization_Penalty_Charging>
0

> <r_epik_Ionization_Penalty_Neutral>
9.6092e-05

> <r_epik_State_Penalty>
-0

> <r_epik_Charging_Adjusted_Penalty>
0

> <i_epik_Tot_Q>
0

> <i_epik_Tot_abs_Q>
0

> <r_epik_Metal_State_Penalty>
-0

> <b_epik_Metal_Only>
0

> <s_lp_Force_Field>
OPLS_2005

> <r_lp_Energy>
24.5609

> <b_lp_Chiralities_Consistent>
1

> <s_lp_Variant>
AV-unprocessed.smi:1167-1

> <Gold.Version>
5.8.1

> <Gold.Id.Protein>
6NUR|6NUR_protein|mol2

> <Gold.PLP.Fitness>
38.4545

> <Gold.PLP.PLP>
-32.3500

> <Gold.PLP.part.hbond>
-2.5754

> <Gold.PLP.part.metal>
0.0000

> <Gold.PLP.part.buried>
-3.4537

> <Gold.PLP.part.nonpolar>
-28.0303

> <Gold.PLP.part.repulsive>
0.5088

> <Gold.PLP.ligand.clash>
0.0000

> <Gold.PLP.ligand.torsion>
0.5944

> <Gold.PLP.Chemscore.Hbond>
2.4255

> <Gold.PLP.Chemscore.CHOScore>
0.0000

> <Gold.PLP.Chemscore.Metal>
0.0000

> <Gold.Chemscore.Hbonds>
donor molecule, donor type, donor heavy atom, donor atom, acceptor molecule, acceptor atom, score
      L1  H     7    27       P1  7948  0.91
      L1  H    10    28       P1  7948  0.75
      P1  H  7989  7998       L1    21  0.75

> <Gold.PLP.Chemscore.Internal.Correction>
0.0168

> <Gold.Rescore>
     Score         DG    S(hbond)    S(metal)    S(lipo)     H(rot)  DE(clash)    DE(int)     intcor
     15.17     -17.29       2.11        0.00      68.62       1.27       0.42       1.70       ----

> <Gold.Chemscore.Fitness>
15.1718

> <Gold.Chemscore.DG>
-17.2937

> <Gold.Chemscore.ZeroCoef>
-5.4800

> <Gold.Chemscore.Hbond>
2.1103

> <Gold.Chemscore.Metal>
0.0000

> <Gold.Chemscore.Lipo>
68.6182

> <Gold.Chemscore.Internal_Hbond>
0.0000

> <Gold.Chemscore.DEClash>
0.4232

> <Gold.Chemscore.DEInternal>
1.6987

> <Gold.Chemscore.Rot>
1.2746

> <Gold.Chemscore.Internal.Correction>
   9.000000E+99

> <Gold.Chemscore.Hbonds>
donor molecule, donor type, donor heavy atom, donor atom, acceptor molecule, acceptor atom, score
      L1  H     7    27       P1  7948  0.90
      L1  H    10    28       P1  7948  0.72
      P1  H  7989  7998       L1    21  0.05

> <Gold.Chemscore.Hbond.Weighted>
-7.0484

> <Gold.Chemscore.Metal.Weighted>
-0.0000

> <Gold.Chemscore.Lipo.Weighted>
-8.0283

> <Gold.Chemscore.Internal_Hbond.Weighted>
0.0000

> <Gold.Chemscore.DEClash.Weighted>
0.4232

> <Gold.Chemscore.DEInternal.Weighted>
1.6987

> <Gold.Chemscore.Rot.Weighted>
3.2630

> <Gold.Chemscore.Internal.Correction.Weighted>
   9.000000E+99

> <Gold.Protein.RotatedTorsions>
[ 6907 6896 6895 6894 ] final  128.07 input  -60.11 | X-H torsion
[ 7974 7965 7964 7962 ] final   78.51 input  175.53 | X-H torsion
[ 8008 7997 7996 7995 ] final  -11.70 input   59.86 | X-H torsion
[ 10167 10162 10161 10158 ] final -146.83 input  -65.29 | X-H torsion
[ 10718 10713 10712 10709 ] final  -19.28 input   66.30 | X-H torsion
[ 10763 10752 10751 10750 ] final -144.90 input  -60.55 | X-H torsion
[ 11005 11000 10999 10996 ] final   38.34 input  -57.11 | X-H torsion

> <Gold.Protein.ActiveResidues>
 VAL166  LYS551  ARG553  GLY616  TRP617  ASP618  TYR619  PRO620  LYS621  CYS622 
 ASP623  PHE694  ASN695  SER759  ASP760  ASP761  ALA762  ILE779  LEU786  VAL792 
 PHE793  MET794  SER795  GLU796  ALA797  LYS798  CYS799  TRP800  GLU811  SER814 

> <Gold.Protein.RotatedAtoms>
  152.3754  133.6474  159.6119 H   0  0  0  0  0  0  0  0  0  0  0  0  # atno 6907 bound_to 6896
  150.7700  133.9202  159.3404 H   0  0  0  0  0  0  0  0  0  0  0  0  # atno 6908 bound_to 6896
  151.7017  135.0930  160.0303 H   0  0  0  0  0  0  0  0  0  0  0  0  # atno 6909 bound_to 6896
  145.6763  139.2511  143.1840 H   0  0  0  0  0  0  0  0  0  0  0  0  # atno 7974 bound_to 7965
  154.5442  140.2295  155.8591 H   0  0  0  0  0  0  0  0  0  0  0  0  # atno 8008 bound_to 7997
  156.1887  140.3082  155.9251 H   0  0  0  0  0  0  0  0  0  0  0  0  # atno 8009 bound_to 7997
  155.3198  140.0440  157.3029 H   0  0  0  0  0  0  0  0  0  0  0  0  # atno 8010 bound_to 7997
  139.7677  143.8283  152.2619 H   0  0  0  0  0  0  0  0  0  0  0  0  # atno 10167 bound_to 10162
  156.5478  130.4694  149.6467 H   0  0  0  0  0  0  0  0  0  0  0  0  # atno 10718 bound_to 10713
  154.8407  135.3427  154.6420 H   0  0  0  0  0  0  0  0  0  0  0  0  # atno 10763 bound_to 10752
  153.7031  135.6968  153.5062 H   0  0  0  0  0  0  0  0  0  0  0  0  # atno 10764 bound_to 10752
  153.2508  135.4354  155.0749 H   0  0  0  0  0  0  0  0  0  0  0  0  # atno 10765 bound_to 10752
  140.2136  134.3725  155.8037 H   0  0  0  0  0  0  0  0  0  0  0  0  # atno 11005 bound_to 11000
  146.1003  140.7552  142.9552 LP  0  0  0  0  0  0  0  0  0  0  0  0  # atno 17320 bound_to 7965
  144.7040  140.3776  143.7133 LP  0  0  0  0  0  0  0  0  0  0  0  0  # atno 17321 bound_to 7965
  139.8308  144.7254  150.9453 LP  0  0  0  0  0  0  0  0  0  0  0  0  # atno 17342 bound_to 10162
  140.7812  143.4072  151.1052 LP  0  0  0  0  0  0  0  0  0  0  0  0  # atno 17343 bound_to 10162
  156.2912  130.7125  151.1974 LP  0  0  0  0  0  0  0  0  0  0  0  0  # atno 17370 bound_to 10713
  157.7393  131.0530  150.5239 LP  0  0  0  0  0  0  0  0  0  0  0  0  # atno 17371 bound_to 10713
  141.2225  133.7156  156.8459 LP  0  0  0  0  0  0  0  0  0  0  0  0  # atno 17394 bound_to 11000
  140.1924  134.8956  157.3076 LP  0  0  0  0  0  0  0  0  0  0  0  0  # atno 17395 bound_to 11000

$$$$
