AV-unprocessed.smi:483|AV-procd|sdf|2685|dock5
  -GOLD-   2262023113D 1   1.00000     0.00000
 Structure written by MMmdl.
 44 44  0  0  0  0  0  0  0  0  1 V2000
  145.4585  132.8295  151.3295 C   0  0  0  0  0  0  0  0  0  0  0  0
  146.1414  134.2002  151.3814 C   0  0  0  0  0  0  0  0  0  0  0  0
  145.5205  135.1249  152.4410 C   0  0  0  0  0  0  0  0  0  0  0  0
  146.1765  136.4268  152.4688 N   0  0  0  0  0  0  0  0  0  0  0  0
  145.7067  137.5140  153.0995 C   0  0  0  0  0  0  0  0  0  0  0  0
  144.6548  137.5195  153.7414 O   0  0  0  0  0  0  0  0  0  0  0  0
  146.5728  138.7807  153.0033 C   0  0  2  0  0  0  0  0  0  0  0  0
  146.5587  139.2538  151.5401 C   0  0  0  0  0  0  0  0  0  0  0  0
  147.9578  138.4871  153.3693 N   0  0  0  0  0  0  0  0  0  0  0  0
  148.6225  139.0416  154.3951 C   0  0  0  0  0  0  0  0  0  0  0  0
  148.1221  139.8770  155.1496 O   0  0  0  0  0  0  0  0  0  0  0  0
  150.0632  138.5550  154.6075 C   0  0  0  0  0  0  0  0  0  0  0  0
  150.6348  138.9837  155.8926 N   0  0  0  0  0  0  0  0  0  0  0  0
  150.5711  140.3462  156.1124 N   0  0  0  0  0  0  0  0  0  0  0  0
  151.0486  140.8774  157.1897 C   0  0  0  0  0  0  0  0  0  0  0  0
  150.9328  142.3729  157.3138 C   0  0  0  0  0  0  0  0  0  0  0  0
  151.6590  140.0263  158.2066 C   0  0  0  0  0  0  0  0  0  0  0  0
  152.2018  140.7048  159.4571 C   0  0  0  0  0  0  0  0  0  0  0  0
  151.7164  138.6904  157.9787 C   0  0  0  0  0  0  0  0  0  0  0  0
  152.3023  137.7819  158.9111 C   0  0  0  0  0  0  0  0  0  0  0  0
  152.7599  137.0352  159.6683 N   0  0  0  0  0  0  0  0  0  0  0  0
  151.1837  138.0825  156.7573 C   0  0  0  0  0  0  0  0  0  0  0  0
  151.2220  136.8742  156.5188 O   0  0  0  0  0  0  0  0  0  0  0  0
  145.9164  132.1962  150.5694 H   0  0  0  0  0  0  0  0  0  0  0  0
  144.3993  132.9257  151.0893 H   0  0  0  0  0  0  0  0  0  0  0  0
  145.5406  132.3134  152.2864 H   0  0  0  0  0  0  0  0  0  0  0  0
  147.2033  134.0598  151.5871 H   0  0  0  0  0  0  0  0  0  0  0  0
  146.0769  134.6711  150.3996 H   0  0  0  0  0  0  0  0  0  0  0  0
  144.4644  135.2842  152.2218 H   0  0  0  0  0  0  0  0  0  0  0  0
  145.5657  134.6613  153.4281 H   0  0  0  0  0  0  0  0  0  0  0  0
  147.0489  136.5098  151.9668 H   0  0  0  0  0  0  0  0  0  0  0  0
  146.1714  139.5661  153.6471 H   0  0  0  0  0  0  0  0  0  0  0  0
  145.5472  139.4982  151.2130 H   0  0  0  0  0  0  0  0  0  0  0  0
  146.9536  138.4951  150.8622 H   0  0  0  0  0  0  0  0  0  0  0  0
  147.1638  140.1525  151.4162 H   0  0  0  0  0  0  0  0  0  0  0  0
  148.4392  137.7993  152.8083 H   0  0  0  0  0  0  0  0  0  0  0  0
  150.0632  137.4657  154.5387 H   0  0  0  0  0  0  0  0  0  0  0  0
  150.6941  138.8985  153.7853 H   0  0  0  0  0  0  0  0  0  0  0  0
  150.2491  142.6419  158.1191 H   0  0  0  0  0  0  0  0  0  0  0  0
  150.5581  142.8289  156.3960 H   0  0  0  0  0  0  0  0  0  0  0  0
  151.9031  142.8214  157.5285 H   0  0  0  0  0  0  0  0  0  0  0  0
  152.4951  139.9849  160.2204 H   0  0  0  0  0  0  0  0  0  0  0  0
  151.4508  141.3579  159.9027 H   0  0  0  0  0  0  0  0  0  0  0  0
  153.0788  141.3049  159.2121 H   0  0  0  0  0  0  0  0  0  0  0  0
  1  2  1  0  0  0  0
  1 24  1  0  0  0  0
  1 25  1  0  0  0  0
  1 26  1  0  0  0  0
  2  3  1  0  0  0  0
  2 27  1  0  0  0  0
  2 28  1  0  0  0  0
  3  4  1  0  0  0  0
  3 29  1  0  0  0  0
  3 30  1  0  0  0  0
  4  5  1  0  0  0  0
  4 31  1  0  0  0  0
  5  6  2  0  0  0  0
  5  7  1  0  0  0  0
  7  8  1  0  0  0  0
  7  9  1  0  0  0  0
  7 32  1  0  0  0  0
  8 33  1  0  0  0  0
  8 34  1  0  0  0  0
  8 35  1  0  0  0  0
  9 10  1  0  0  0  0
  9 36  1  0  0  0  0
 10 11  2  0  0  0  0
 10 12  1  0  0  0  0
 12 13  1  0  0  0  0
 12 37  1  0  0  0  0
 12 38  1  0  0  0  0
 13 22  1  0  0  0  0
 13 14  1  0  0  0  0
 14 15  2  0  0  0  0
 15 16  1  0  0  0  0
 15 17  1  0  0  0  0
 16 39  1  0  0  0  0
 16 40  1  0  0  0  0
 16 41  1  0  0  0  0
 17 18  1  0  0  0  0
 17 19  2  0  0  0  0
 18 42  1  0  0  0  0
 18 43  1  0  0  0  0
 18 44  1  0  0  0  0
 19 20  1  0  0  0  0
 19 22  1  0  0  0  0
 20 21  3  0  0  0  0
 22 23  2  0  0  0  0
M  END
> <s_m_source_file>
AV-unprocessed.smi

> <i_m_source_file_index>
483

> <i_lp_mmshare_version>
43012

> <i_f3d_flags>
0

> <s_epik_input>
W0NIM11bQ0gyXVtDSDJdW05IXUMoPU8pW0NASF0oW0NIM10pW05IXUMoPU8pW0NIMl1uMW5jKFtDSDNdKWMoW0NIM10pYyhDI04pYzE9Tw==

> <s_epik_cmdline>
J2VwaWtfcHl0aG9uJywgJy1waCcsICc3LjAnLCAnLXRuJywgJzgnLCAnLW1hJywgJzIwMCcsICctbWV0YWxfYmluZGluZycsICctaW1hZScsICc8aW5maWxlLm1hZT4nLCAnLW9tYWUnLCAnPG91dGZpbGUubWFlPic=

> <r_lp_tautomer_probability>
1

> <r_epik_Ionization_Penalty>
5.96698e-08

> <r_epik_Ionization_Penalty_Charging>
1.88177e-11

> <r_epik_Ionization_Penalty_Neutral>
5.9651e-08

> <r_epik_State_Penalty>
-0

> <r_epik_Charging_Adjusted_Penalty>
1.88177e-11

> <i_epik_Tot_Q>
0

> <i_epik_Tot_abs_Q>
0

> <r_epik_Metal_State_Penalty>
-0

> <b_epik_Metal_Only>
0

> <s_lp_Force_Field>
OPLS_2005

> <r_lp_Energy>
17.9954

> <b_lp_Chiralities_Consistent>
1

> <s_lp_Variant>
AV-unprocessed.smi:483-1

> <Gold.Version>
5.8.1

> <Gold.Id.Protein>
6NUR|6NUR_protein|mol2

> <Gold.PLP.Fitness>
42.2719

> <Gold.PLP.PLP>
-34.0970

> <Gold.PLP.part.hbond>
-4.0000

> <Gold.PLP.part.metal>
0.0000

> <Gold.PLP.part.buried>
-4.6865

> <Gold.PLP.part.nonpolar>
-27.0723

> <Gold.PLP.part.repulsive>
0.7499

> <Gold.PLP.ligand.clash>
0.0000

> <Gold.PLP.ligand.torsion>
0.3597

> <Gold.PLP.Chemscore.Hbond>
2.9280

> <Gold.PLP.Chemscore.CHOScore>
0.0000

> <Gold.PLP.Chemscore.Metal>
0.0000

> <Gold.Chemscore.Hbonds>
donor molecule, donor type, donor heavy atom, donor atom, acceptor molecule, acceptor atom, score
      L1  H     4    31       P1  7948  1.00
      L1  H     9    36       P1  7948  1.00
      P1  H  6896  6907       L1    21  0.73

> <Gold.PLP.Chemscore.Internal.Correction>
0.1103

> <Gold.Rescore>
     Score         DG    S(hbond)    S(metal)    S(lipo)     H(rot)  DE(clash)    DE(int)     intcor
     15.09     -17.18       2.99        0.00      66.80       2.38       0.08       2.01       ----

> <Gold.Chemscore.Fitness>
15.0901

> <Gold.Chemscore.DG>
-17.1783

> <Gold.Chemscore.ZeroCoef>
-5.4800

> <Gold.Chemscore.Hbond>
2.9855

> <Gold.Chemscore.Metal>
0.0000

> <Gold.Chemscore.Lipo>
66.8011

> <Gold.Chemscore.Internal_Hbond>
0.0000

> <Gold.Chemscore.DEClash>
0.0785

> <Gold.Chemscore.DEInternal>
2.0097

> <Gold.Chemscore.Rot>
2.3785

> <Gold.Chemscore.Internal.Correction>
   9.000000E+99

> <Gold.Chemscore.Hbonds>
donor molecule, donor type, donor heavy atom, donor atom, acceptor molecule, acceptor atom, score
      L1  H     4    31       P1  7948  0.96
      L1  H     9    36       P1  7948  1.00
      P1  H  6896  6907       L1    21  0.72

> <Gold.Chemscore.Hbond.Weighted>
-9.9716

> <Gold.Chemscore.Metal.Weighted>
-0.0000

> <Gold.Chemscore.Lipo.Weighted>
-7.8157

> <Gold.Chemscore.Internal_Hbond.Weighted>
0.0000

> <Gold.Chemscore.DEClash.Weighted>
0.0785

> <Gold.Chemscore.DEInternal.Weighted>
2.0097

> <Gold.Chemscore.Rot.Weighted>
6.0890

> <Gold.Chemscore.Internal.Correction.Weighted>
   9.000000E+99

> <Gold.Protein.RotatedTorsions>
[ 6907 6896 6895 6894 ] final   24.00 input  -60.11 | X-H torsion
[ 7974 7965 7964 7962 ] final  -97.34 input  175.53 | X-H torsion
[ 8008 7997 7996 7995 ] final  172.08 input   59.86 | X-H torsion
[ 10167 10162 10161 10158 ] final  -14.02 input  -65.29 | X-H torsion
[ 10718 10713 10712 10709 ] final  -26.71 input   66.30 | X-H torsion
[ 10763 10752 10751 10750 ] final -170.85 input  -60.55 | X-H torsion
[ 11005 11000 10999 10996 ] final  -19.97 input  -57.11 | X-H torsion

> <Gold.Protein.ActiveResidues>
 VAL166  LYS551  ARG553  GLY616  TRP617  ASP618  TYR619  PRO620  LYS621  CYS622 
 ASP623  PHE694  ASN695  SER759  ASP760  ASP761  ALA762  ILE779  LEU786  VAL792 
 PHE793  MET794  SER795  GLU796  ALA797  LYS798  CYS799  TRP800  GLU811  SER814 

> <Gold.Protein.RotatedAtoms>
  151.9509  135.0169  160.0541 H   0  0  0  0  0  0  0  0  0  0  0  0  # atno 6907 bound_to 6896
  152.1953  133.4798  159.5038 H   0  0  0  0  0  0  0  0  0  0  0  0  # atno 6908 bound_to 6896
  150.6943  134.1577  159.4207 H   0  0  0  0  0  0  0  0  0  0  0  0  # atno 6909 bound_to 6896
  145.3350  140.9449  143.2640 H   0  0  0  0  0  0  0  0  0  0  0  0  # atno 7974 bound_to 7965
  156.1209  140.1495  156.9206 H   0  0  0  0  0  0  0  0  0  0  0  0  # atno 8008 bound_to 7997
  154.4835  140.0872  156.7474 H   0  0  0  0  0  0  0  0  0  0  0  0  # atno 8009 bound_to 7997
  155.4430  140.3432  155.4294 H   0  0  0  0  0  0  0  0  0  0  0  0  # atno 8010 bound_to 7997
  140.7193  143.5365  150.9459 H   0  0  0  0  0  0  0  0  0  0  0  0  # atno 10167 bound_to 10162
  156.4477  130.4477  149.7011 H   0  0  0  0  0  0  0  0  0  0  0  0  # atno 10718 bound_to 10713
  154.6370  135.2894  155.0149 H   0  0  0  0  0  0  0  0  0  0  0  0  # atno 10763 bound_to 10752
  154.1289  135.6536  153.4922 H   0  0  0  0  0  0  0  0  0  0  0  0  # atno 10764 bound_to 10752
  153.0307  135.5305  154.7221 H   0  0  0  0  0  0  0  0  0  0  0  0  # atno 10765 bound_to 10752
  140.8419  133.7920  155.9870 H   0  0  0  0  0  0  0  0  0  0  0  0  # atno 11005 bound_to 11000
  144.8834  139.4872  143.6712 LP  0  0  0  0  0  0  0  0  0  0  0  0  # atno 17320 bound_to 7965
  146.3030  139.7489  142.9077 LP  0  0  0  0  0  0  0  0  0  0  0  0  # atno 17321 bound_to 7965
  139.9086  143.6747  152.3119 LP  0  0  0  0  0  0  0  0  0  0  0  0  # atno 17342 bound_to 10162
  139.7122  144.7618  151.1092 LP  0  0  0  0  0  0  0  0  0  0  0  0  # atno 17343 bound_to 10162
  156.3850  130.7598  151.2594 LP  0  0  0  0  0  0  0  0  0  0  0  0  # atno 17370 bound_to 10713
  157.7504  131.0284  150.4050 LP  0  0  0  0  0  0  0  0  0  0  0  0  # atno 17371 bound_to 10713
  140.8886  134.2524  157.5107 LP  0  0  0  0  0  0  0  0  0  0  0  0  # atno 17394 bound_to 11000
  139.8703  134.9650  156.4514 LP  0  0  0  0  0  0  0  0  0  0  0  0  # atno 17395 bound_to 11000

$$$$
