AV-unprocessed.smi:2562|AV-procd|sdf|10042|dock5
  -GOLD-   2272014 83D 1   1.00000     0.00000
 Structure written by MMmdl.
 31 32  0  0  0  0  0  0  0  0  2 V2000
  152.6668  143.7788  159.9198 C   0  0  0  0  0  0  0  0  0  0  0  0
  152.7070  142.5382  160.8187 C   0  0  0  0  0  0  0  0  0  0  0  0
  153.1821  141.2840  160.0713 C   0  0  0  0  0  0  0  0  0  0  0  0
  152.4417  141.0636  158.7929 C   0  0  0  0  0  0  0  0  0  0  0  0
  152.6891  140.0223  157.9955 N   0  0  0  0  0  0  0  0  0  0  0  0
  151.8664  140.0726  156.9264 N   0  0  0  0  0  0  0  0  0  0  0  0
  151.1454  141.1638  157.1812 C   0  0  0  0  0  0  0  0  0  0  0  0
  150.1064  141.6378  156.2132 C   0  0  2  0  0  0  0  0  0  0  0  0
  148.7018  141.6886  156.8437 C   0  0  0  0  0  0  0  0  0  0  0  0
  147.7060  142.0646  155.8214 N   0  3  0  0  0  0  0  0  0  0  0  0
  147.7653  141.1652  154.6517 C   0  0  0  0  0  0  0  0  0  0  0  0
  149.1983  141.1151  154.0922 C   0  0  0  0  0  0  0  0  0  0  0  0
  150.1032  140.7227  155.1194 O   0  0  0  0  0  0  0  0  0  0  0  0
  151.4679  141.8386  158.3273 N   0  0  0  0  0  0  0  0  0  0  0  0
  153.3767  139.2943  158.1304 H   0  0  0  0  0  0  0  0  0  0  0  0
  152.3228  144.6507  160.4765 H   0  0  0  0  0  0  0  0  0  0  0  0
  151.9891  143.6328  159.0782 H   0  0  0  0  0  0  0  0  0  0  0  0
  153.6550  144.0081  159.5200 H   0  0  0  0  0  0  0  0  0  0  0  0
  153.3658  142.7307  161.6662 H   0  0  0  0  0  0  0  0  0  0  0  0
  151.7133  142.3632  161.2326 H   0  0  0  0  0  0  0  0  0  0  0  0
  154.2463  141.3648  159.8460 H   0  0  0  0  0  0  0  0  0  0  0  0
  153.0649  140.4033  160.7043 H   0  0  0  0  0  0  0  0  0  0  0  0
  150.3915  142.6276  155.8507 H   0  0  0  0  0  0  0  0  0  0  0  0
  148.4345  140.7162  157.2604 H   0  0  0  0  0  0  0  0  0  0  0  0
  148.6707  142.4093  157.6613 H   0  0  0  0  0  0  0  0  0  0  0  0
  146.7804  142.0312  156.2248 H   0  0  0  0  0  0  0  0  0  0  0  0
  147.4429  140.1666  154.9500 H   0  0  0  0  0  0  0  0  0  0  0  0
  147.0673  141.5148  153.8906 H   0  0  0  0  0  0  0  0  0  0  0  0
  149.2576  140.3964  153.2747 H   0  0  0  0  0  0  0  0  0  0  0  0
  149.4920  142.0840  153.6852 H   0  0  0  0  0  0  0  0  0  0  0  0
  147.8984  143.0076  155.5146 H   0  0  0  0  0  0  0  0  0  0  0  0
  1  2  1  0  0  0  0
  1 16  1  0  0  0  0
  1 17  1  0  0  0  0
  1 18  1  0  0  0  0
  2  3  1  0  0  0  0
  2 19  1  0  0  0  0
  2 20  1  0  0  0  0
  3 21  1  0  0  0  0
  3 22  1  0  0  0  0
  3  4  1  0  0  0  0
  4 14  2  0  0  0  0
  4  5  1  0  0  0  0
  5  6  1  0  0  0  0
  5 15  1  0  0  0  0
  6  7  2  0  0  0  0
  7 14  1  0  0  0  0
  7  8  1  0  0  0  0
  8 13  1  0  0  0  0
  8  9  1  0  0  0  0
  8 23  1  0  0  0  0
  9 10  1  0  0  0  0
  9 24  1  0  0  0  0
  9 25  1  0  0  0  0
 10 11  1  0  0  0  0
 10 26  1  0  0  0  0
 10 31  1  0  0  0  0
 11 12  1  0  0  0  0
 11 27  1  0  0  0  0
 11 28  1  0  0  0  0
 12 13  1  0  0  0  0
 12 29  1  0  0  0  0
 12 30  1  0  0  0  0
M  CHG  1  10   1
M  END
> <s_m_source_file>
AV-unprocessed.smi

> <i_m_source_file_index>
2562

> <i_lp_mmshare_version>
43012

> <i_f3d_flags>
0

> <s_epik_input>
W0NIM11bQ0gyXVtDSDJdYzFuW25IXWMobjEpW0NAQEhdMltDSDJdW05IXVtDSDJdW0NIMl1PMg==

> <s_epik_cmdline>
J2VwaWtfcHl0aG9uJywgJy1waCcsICc3LjAnLCAnLXRuJywgJzgnLCAnLW1hJywgJzIwMCcsICctbWV0YWxfYmluZGluZycsICctaW1hZScsICc8aW5maWxlLm1hZT4nLCAnLW9tYWUnLCAnPG91dGZpbGUubWFlPic=

> <r_lp_tautomer_probability>
0.948284

> <r_epik_Ionization_Penalty>
0.10647

> <r_epik_Ionization_Penalty_Charging>
0.100865

> <r_epik_Ionization_Penalty_Neutral>
0.0056057

> <r_epik_State_Penalty>
0.375056

> <r_epik_Charging_Adjusted_Penalty>
0.47592

> <i_epik_Tot_Q>
1

> <i_epik_Tot_abs_Q>
1

> <r_epik_Metal_State_Penalty>
0.497514

> <b_epik_Metal_Only>
0

> <s_lp_Force_Field>
OPLS_2005

> <r_lp_Energy>
10.3016

> <b_lp_Chiralities_Consistent>
1

> <s_lp_Variant>
AV-unprocessed.smi:2562-1

> <Gold.Version>
5.8.1

> <Gold.Id.Protein>
6NUR|6NUR_protein|mol2

> <Gold.PLP.Fitness>
31.9381

> <Gold.PLP.PLP>
-25.7495

> <Gold.PLP.part.hbond>
-1.7591

> <Gold.PLP.part.metal>
0.0000

> <Gold.PLP.part.buried>
-1.3148

> <Gold.PLP.part.nonpolar>
-22.2607

> <Gold.PLP.part.repulsive>
0.7123

> <Gold.PLP.ligand.clash>
0.0000

> <Gold.PLP.ligand.torsion>
0.0330

> <Gold.PLP.Chemscore.Hbond>
2.0799

> <Gold.PLP.Chemscore.CHOScore>
0.0000

> <Gold.PLP.Chemscore.Metal>
0.0000

> <Gold.Chemscore.Hbonds>
donor molecule, donor type, donor heavy atom, donor atom, acceptor molecule, acceptor atom, score
      L1  H    10    31       P1  8028  2.00
      P1  H  7989  7998       L1    13  0.07

> <Gold.PLP.Chemscore.Internal.Correction>
0.0148

> <Gold.Rescore>
     Score         DG    S(hbond)    S(metal)    S(lipo)     H(rot)  DE(clash)    DE(int)     intcor
     10.08     -11.56       0.87        0.00      60.36       1.51       0.11       1.38       ----

> <Gold.Chemscore.Fitness>
10.0795

> <Gold.Chemscore.DG>
-11.5632

> <Gold.Chemscore.ZeroCoef>
-5.4800

> <Gold.Chemscore.Hbond>
0.8654

> <Gold.Chemscore.Metal>
0.0000

> <Gold.Chemscore.Lipo>
60.3619

> <Gold.Chemscore.Internal_Hbond>
0.0000

> <Gold.Chemscore.DEClash>
0.1077

> <Gold.Chemscore.DEInternal>
1.3760

> <Gold.Chemscore.Rot>
1.5115

> <Gold.Chemscore.Internal.Correction>
   9.000000E+99

> <Gold.Chemscore.Hbonds>
donor molecule, donor type, donor heavy atom, donor atom, acceptor molecule, acceptor atom, score
      L1  H    10    31       P1  8028  0.67

> <Gold.Chemscore.Hbond.Weighted>
-2.8903

> <Gold.Chemscore.Metal.Weighted>
-0.0000

> <Gold.Chemscore.Lipo.Weighted>
-7.0623

> <Gold.Chemscore.Internal_Hbond.Weighted>
0.0000

> <Gold.Chemscore.DEClash.Weighted>
0.1077

> <Gold.Chemscore.DEInternal.Weighted>
1.3760

> <Gold.Chemscore.Rot.Weighted>
3.8695

> <Gold.Chemscore.Internal.Correction.Weighted>
   9.000000E+99

> <Gold.Protein.RotatedTorsions>
[ 6907 6896 6895 6894 ] final  -68.20 input  -60.11 | X-H torsion
[ 7974 7965 7964 7962 ] final  -45.14 input  175.53 | X-H torsion
[ 8008 7997 7996 7995 ] final  112.11 input   59.86 | X-H torsion
[ 10167 10162 10161 10158 ] final  -61.83 input  -65.29 | X-H torsion
[ 10718 10713 10712 10709 ] final   75.40 input   66.30 | X-H torsion
[ 10763 10752 10751 10750 ] final  122.79 input  -60.55 | X-H torsion
[ 11005 11000 10999 10996 ] final   19.91 input  -57.11 | X-H torsion

> <Gold.Protein.ActiveResidues>
 VAL166  LYS551  ARG553  GLY616  TRP617  ASP618  TYR619  PRO620  LYS621  CYS622 
 ASP623  PHE694  ASN695  SER759  ASP760  ASP761  ALA762  ILE779  LEU786  VAL792 
 PHE793  MET794  SER795  GLU796  ALA797  LYS798  CYS799  TRP800  GLU811  SER814 

> <Gold.Protein.RotatedAtoms>
  150.7368  134.5772  159.5920 H   0  0  0  0  0  0  0  0  0  0  0  0  # atno 6907 bound_to 6896
  152.3195  134.7394  160.0326 H   0  0  0  0  0  0  0  0  0  0  0  0  # atno 6908 bound_to 6896
  151.7915  133.3324  159.3537 H   0  0  0  0  0  0  0  0  0  0  0  0  # atno 6909 bound_to 6896
  145.9850  140.7243  142.9345 H   0  0  0  0  0  0  0  0  0  0  0  0  # atno 7974 bound_to 7965
  156.2170  140.3006  155.9863 H   0  0  0  0  0  0  0  0  0  0  0  0  # atno 8008 bound_to 7997
  155.2579  140.0428  157.3011 H   0  0  0  0  0  0  0  0  0  0  0  0  # atno 8009 bound_to 7997
  154.5783  140.2368  155.8099 H   0  0  0  0  0  0  0  0  0  0  0  0  # atno 8010 bound_to 7997
  140.5980  143.2355  151.5993 H   0  0  0  0  0  0  0  0  0  0  0  0  # atno 10167 bound_to 10162
  157.6632  130.9724  150.1348 H   0  0  0  0  0  0  0  0  0  0  0  0  # atno 10718 bound_to 10713
  153.6353  135.3389  155.3054 H   0  0  0  0  0  0  0  0  0  0  0  0  # atno 10763 bound_to 10752
  154.8571  135.4305  154.2062 H   0  0  0  0  0  0  0  0  0  0  0  0  # atno 10764 bound_to 10752
  153.2967  135.7021  153.7315 H   0  0  0  0  0  0  0  0  0  0  0  0  # atno 10765 bound_to 10752
  140.4085  134.1644  155.7666 H   0  0  0  0  0  0  0  0  0  0  0  0  # atno 11005 bound_to 11000
  144.6872  140.2972  143.7269 LP  0  0  0  0  0  0  0  0  0  0  0  0  # atno 17320 bound_to 7965
  145.7714  139.1858  143.2210 LP  0  0  0  0  0  0  0  0  0  0  0  0  # atno 17321 bound_to 7965
  139.5271  144.3026  152.1060 LP  0  0  0  0  0  0  0  0  0  0  0  0  # atno 17342 bound_to 10162
  140.2202  144.4474  150.6345 LP  0  0  0  0  0  0  0  0  0  0  0  0  # atno 17343 bound_to 10162
  156.2185  130.3672  149.8584 LP  0  0  0  0  0  0  0  0  0  0  0  0  # atno 17370 bound_to 10713
  156.6443  130.8718  151.3520 LP  0  0  0  0  0  0  0  0  0  0  0  0  # atno 17371 bound_to 10713
  141.1830  133.8373  157.1189 LP  0  0  0  0  0  0  0  0  0  0  0  0  # atno 17394 bound_to 11000
  140.0285  134.9912  157.0733 LP  0  0  0  0  0  0  0  0  0  0  0  0  # atno 17395 bound_to 11000

$$$$
