AV-unprocessed.smi:153|AV-procd|sdf|1253|dock7
  -GOLD-   2262018483D 1   1.00000     0.00000
 Structure written by MMmdl.
 60 63  0  0  0  0  0  0  0  0  2 V2000
  152.8497  141.6386  159.3664 C   0  0  0  0  0  0  0  0  0  0  0  0
  151.7894  142.7493  159.4367 C   0  0  1  0  0  0  0  0  0  0  0  0
  152.4428  143.8394  160.0911 O   0  0  0  0  0  0  0  0  0  0  0  0
  152.2292  145.0507  159.3843 C   0  0  0  0  0  0  0  0  0  0  0  0
  152.0709  144.6011  157.9395 C   0  0  0  0  0  0  0  0  0  0  0  0
  151.2784  143.3096  158.0798 C   0  0  2  0  0  0  0  0  0  0  0  0
  149.9169  143.6700  158.2415 O   0  0  0  0  0  0  0  0  0  0  0  0
  151.3882  142.4077  156.8183 C   0  0  0  0  0  0  0  0  0  0  0  0
  150.3224  141.4245  156.6428 N   0  0  0  0  0  0  0  0  0  0  0  0
  149.2588  141.4748  155.7684 C   0  0  0  0  0  0  0  0  0  0  0  0
  148.4641  140.4413  155.7970 N   0  0  0  0  0  0  0  0  0  0  0  0
  149.0250  139.5955  156.7466 C   0  0  0  0  0  0  0  0  0  0  0  0
  148.6935  138.3052  157.2623 C   0  0  0  0  0  0  0  0  0  0  0  0
  147.6116  137.5697  156.8860 N   0  0  0  0  0  0  0  0  0  0  0  0
  146.5201  138.2097  156.1626 C   0  0  0  0  0  0  0  0  0  0  0  0
  147.6911  136.1072  156.8791 C   0  0  0  0  0  0  0  0  0  0  0  0
  147.7964  135.5217  155.4561 C   0  0  2  0  0  0  0  0  0  0  0  0
  148.7791  136.2706  154.7694 O   0  0  0  0  0  0  0  0  0  0  0  0
  146.4737  135.6118  154.6622 C   0  0  0  0  0  0  0  0  0  0  0  0
  146.6130  135.1545  153.2568 N   0  3  0  0  0  0  0  0  0  0  0  0
  146.9462  133.7128  153.1365 C   0  0  0  0  0  0  0  0  0  0  0  0
  147.1047  133.3195  151.6581 C   0  0  0  0  0  0  0  0  0  0  0  0
  145.9128  133.6343  150.9495 O   0  0  0  0  0  0  0  0  0  0  0  0
  145.6275  135.0269  150.9814 C   0  0  0  0  0  0  0  0  0  0  0  0
  145.4211  135.4780  152.4373 C   0  0  0  0  0  0  0  0  0  0  0  0
  149.5413  137.7721  158.1809 N   0  0  0  0  0  0  0  0  0  0  0  0
  150.6235  138.4433  158.5819 C   0  0  0  0  0  0  0  0  0  0  0  0
  151.0473  139.6460  158.1947 N   0  0  0  0  0  0  0  0  0  0  0  0
  150.2099  140.1923  157.2674 C   0  0  0  0  0  0  0  0  0  0  0  0
  152.4251  140.6950  159.0319 H   0  0  0  0  0  0  0  0  0  0  0  0
  153.2774  141.4544  160.3523 H   0  0  0  0  0  0  0  0  0  0  0  0
  153.6682  141.9062  158.6977 H   0  0  0  0  0  0  0  0  0  0  0  0
  150.9598  142.4049  160.0563 H   0  0  0  0  0  0  0  0  0  0  0  0
  151.3170  145.5259  159.7479 H   0  0  0  0  0  0  0  0  0  0  0  0
  153.0565  145.7468  159.5224 H   0  0  0  0  0  0  0  0  0  0  0  0
  151.5869  145.3485  157.3096 H   0  0  0  0  0  0  0  0  0  0  0  0
  153.0561  144.3967  157.5180 H   0  0  0  0  0  0  0  0  0  0  0  0
  149.5994  144.0169  157.4220 H   0  0  0  0  0  0  0  0  0  0  0  0
  151.4176  143.0269  155.9208 H   0  0  0  0  0  0  0  0  0  0  0  0
  152.3404  141.8774  156.8375 H   0  0  0  0  0  0  0  0  0  0  0  0
  149.0806  142.2993  155.0949 H   0  0  0  0  0  0  0  0  0  0  0  0
  146.2691  139.1734  156.6072 H   0  0  0  0  0  0  0  0  0  0  0  0
  145.6237  137.5899  156.1933 H   0  0  0  0  0  0  0  0  0  0  0  0
  146.7863  138.3628  155.1165 H   0  0  0  0  0  0  0  0  0  0  0  0
  148.5043  135.7355  157.5031 H   0  0  0  0  0  0  0  0  0  0  0  0
  146.7795  135.7369  157.3501 H   0  0  0  0  0  0  0  0  0  0  0  0
  148.1499  134.4935  155.5226 H   0  0  0  0  0  0  0  0  0  0  0  0
  148.5363  136.3356  153.8589 H   0  0  0  0  0  0  0  0  0  0  0  0
  145.6896  135.0181  155.1306 H   0  0  0  0  0  0  0  0  0  0  0  0
  146.1208  136.6443  154.6882 H   0  0  0  0  0  0  0  0  0  0  0  0
  147.8683  133.4856  153.6701 H   0  0  0  0  0  0  0  0  0  0  0  0
  146.1580  133.1140  153.5958 H   0  0  0  0  0  0  0  0  0  0  0  0
  147.9572  133.8307  151.2079 H   0  0  0  0  0  0  0  0  0  0  0  0
  147.2939  132.2494  151.5726 H   0  0  0  0  0  0  0  0  0  0  0  0
  146.4362  135.5875  150.5095 H   0  0  0  0  0  0  0  0  0  0  0  0
  144.7263  135.2166  150.3981 H   0  0  0  0  0  0  0  0  0  0  0  0
  144.5424  134.9876  152.8594 H   0  0  0  0  0  0  0  0  0  0  0  0
  145.2337  136.5521  152.4640 H   0  0  0  0  0  0  0  0  0  0  0  0
  151.2366  137.9462  159.3192 H   0  0  0  0  0  0  0  0  0  0  0  0
  147.3802  135.6747  152.8559 H   0  0  0  0  0  0  0  0  0  0  0  0
  1  2  1  0  0  0  0
  1 30  1  0  0  0  0
  1 31  1  0  0  0  0
  1 32  1  0  0  0  0
  2  6  1  0  0  0  0
  2  3  1  0  0  0  0
  2 33  1  0  0  0  0
  3  4  1  0  0  0  0
  4  5  1  0  0  0  0
  4 34  1  0  0  0  0
  4 35  1  0  0  0  0
  5  6  1  0  0  0  0
  5 36  1  0  0  0  0
  5 37  1  0  0  0  0
  6  7  1  0  0  0  0
  6  8  1  0  0  0  0
  7 38  1  0  0  0  0
  8  9  1  0  0  0  0
  8 39  1  0  0  0  0
  8 40  1  0  0  0  0
  9 29  1  0  0  0  0
  9 10  1  0  0  0  0
 10 11  2  0  0  0  0
 10 41  1  0  0  0  0
 11 12  1  0  0  0  0
 12 29  2  0  0  0  0
 12 13  1  0  0  0  0
 13 14  1  0  0  0  0
 13 26  2  0  0  0  0
 14 15  1  0  0  0  0
 14 16  1  0  0  0  0
 15 42  1  0  0  0  0
 15 43  1  0  0  0  0
 15 44  1  0  0  0  0
 16 17  1  0  0  0  0
 16 45  1  0  0  0  0
 16 46  1  0  0  0  0
 17 18  1  0  0  0  0
 17 19  1  0  0  0  0
 17 47  1  0  0  0  0
 18 48  1  0  0  0  0
 19 20  1  0  0  0  0
 19 49  1  0  0  0  0
 19 50  1  0  0  0  0
 20 25  1  0  0  0  0
 20 21  1  0  0  0  0
 20 60  1  0  0  0  0
 21 22  1  0  0  0  0
 21 51  1  0  0  0  0
 21 52  1  0  0  0  0
 22 23  1  0  0  0  0
 22 53  1  0  0  0  0
 22 54  1  0  0  0  0
 23 24  1  0  0  0  0
 24 25  1  0  0  0  0
 24 55  1  0  0  0  0
 24 56  1  0  0  0  0
 25 57  1  0  0  0  0
 25 58  1  0  0  0  0
 26 27  1  0  0  0  0
 27 28  2  0  0  0  0
 27 59  1  0  0  0  0
 28 29  1  0  0  0  0
M  CHG  1  20   1
M  END
> <s_m_source_file>
AV-unprocessed.smi

> <i_m_source_file_index>
153

> <i_lp_mmshare_version>
43012

> <i_f3d_flags>
0

> <s_epik_input>
W0NIMl0xW0NIMl1PW0NAQEhdKFtDSDNdKVtDQEBdMShbT0hdKVtDSDJdbihbY0hdbjIpYyhjMjMpbltjSF1uYzNOKFtDSDNdKVtDSDJdW0NASF0oW09IXSlbQ0gyXU40W0NIMl1bQ0gyXU9bQ0gyXVtDSDJdNA==

> <s_epik_cmdline>
J2VwaWtfcHl0aG9uJywgJy1waCcsICc3LjAnLCAnLXRuJywgJzgnLCAnLW1hJywgJzIwMCcsICctbWV0YWxfYmluZGluZycsICctaW1hZScsICc8aW5maWxlLm1hZT4nLCAnLW9tYWUnLCAnPG91dGZpbGUubWFlPic=

> <r_lp_tautomer_probability>
1

> <r_epik_Ionization_Penalty>
0.403509

> <r_epik_Ionization_Penalty_Charging>
0.40072

> <r_epik_Ionization_Penalty_Neutral>
0.00278876

> <r_epik_State_Penalty>
0.400058

> <r_epik_Charging_Adjusted_Penalty>
0.800778

> <i_epik_Tot_Q>
1

> <i_epik_Tot_abs_Q>
1

> <r_epik_Metal_State_Penalty>
0.400321

> <b_epik_Metal_Only>
0

> <s_lp_Force_Field>
OPLS_2005

> <r_lp_Energy>
47.2205

> <b_lp_Chiralities_Consistent>
1

> <s_lp_Variant>
AV-unprocessed.smi:153-4

> <Gold.Version>
5.8.1

> <Gold.Id.Protein>
6NUR|6NUR_protein|mol2

> <Gold.PLP.Fitness>
52.4467

> <Gold.PLP.PLP>
-39.2502

> <Gold.PLP.part.hbond>
-3.7810

> <Gold.PLP.part.metal>
0.0000

> <Gold.PLP.part.buried>
-6.6138

> <Gold.PLP.part.nonpolar>
-28.8666

> <Gold.PLP.part.repulsive>
0.2608

> <Gold.PLP.ligand.clash>
0.0000

> <Gold.PLP.ligand.torsion>
1.0312

> <Gold.PLP.Chemscore.Hbond>
3.9920

> <Gold.PLP.Chemscore.CHOScore>
0.9398

> <Gold.PLP.Chemscore.Metal>
0.0000

> <Gold.Chemscore.Hbonds>
donor molecule, donor type, donor heavy atom, donor atom, acceptor molecule, acceptor atom, score
      L1  H     7    38       P1  8028  1.00
      L1  H    18    48       P1  7948  0.99
      L1  H    20    60       P1  7948  2.00
      L1  C    10    41       P1  8028  0.97

> <Gold.PLP.Chemscore.Internal.Correction>
0.4634

> <Gold.Rescore>
     Score         DG    S(hbond)    S(metal)    S(lipo)     H(rot)  DE(clash)    DE(int)     intcor
     11.96     -15.44       2.62        0.00      89.38       3.62       0.17       3.31       ----

> <Gold.Chemscore.Fitness>
11.9569

> <Gold.Chemscore.DG>
-15.4404

> <Gold.Chemscore.ZeroCoef>
-5.4800

> <Gold.Chemscore.Hbond>
2.6242

> <Gold.Chemscore.Metal>
0.0000

> <Gold.Chemscore.Lipo>
89.3837

> <Gold.Chemscore.Internal_Hbond>
0.0000

> <Gold.Chemscore.DEClash>
0.1733

> <Gold.Chemscore.DEInternal>
3.3102

> <Gold.Chemscore.Rot>
3.6182

> <Gold.Chemscore.Internal.Correction>
   9.000000E+99

> <Gold.Chemscore.Hbonds>
donor molecule, donor type, donor heavy atom, donor atom, acceptor molecule, acceptor atom, score
      L1  H     7    38       P1  8028  0.38
      L1  H    18    48       P1  7948  0.89
      L1  H    20    60       P1  7948  0.99

> <Gold.Chemscore.Hbond.Weighted>
-8.7650

> <Gold.Chemscore.Metal.Weighted>
-0.0000

> <Gold.Chemscore.Lipo.Weighted>
-10.4579

> <Gold.Chemscore.Internal_Hbond.Weighted>
0.0000

> <Gold.Chemscore.DEClash.Weighted>
0.1733

> <Gold.Chemscore.DEInternal.Weighted>
3.3102

> <Gold.Chemscore.Rot.Weighted>
9.2625

> <Gold.Chemscore.Internal.Correction.Weighted>
   9.000000E+99

> <Gold.Protein.RotatedTorsions>
[ 6907 6896 6895 6894 ] final   33.60 input  -60.11 | X-H torsion
[ 7974 7965 7964 7962 ] final   14.81 input  175.53 | X-H torsion
[ 8008 7997 7996 7995 ] final  -49.12 input   59.86 | X-H torsion
[ 10167 10162 10161 10158 ] final   89.85 input  -65.29 | X-H torsion
[ 10718 10713 10712 10709 ] final   33.26 input   66.30 | X-H torsion
[ 10763 10752 10751 10750 ] final  -10.04 input  -60.55 | X-H torsion
[ 11005 11000 10999 10996 ] final -103.76 input  -57.11 | X-H torsion

> <Gold.Protein.ActiveResidues>
 VAL166  LYS551  ARG553  GLY616  TRP617  ASP618  TYR619  PRO620  LYS621  CYS622 
 ASP623  PHE694  ASN695  SER759  ASP760  ASP761  ALA762  ILE779  LEU786  VAL792 
 PHE793  MET794  SER795  GLU796  ALA797  LYS798  CYS799  TRP800  GLU811  SER814 

> <Gold.Protein.RotatedAtoms>
  152.0908  134.9408  160.0571 H   0  0  0  0  0  0  0  0  0  0  0  0  # atno 6907 bound_to 6896
  152.0660  133.4079  159.4447 H   0  0  0  0  0  0  0  0  0  0  0  0  # atno 6908 bound_to 6896
  150.6837  134.3066  159.4772 H   0  0  0  0  0  0  0  0  0  0  0  0  # atno 6909 bound_to 6896
  146.2295  139.8986  142.8543 H   0  0  0  0  0  0  0  0  0  0  0  0  # atno 7974 bound_to 7965
  154.4039  140.1304  156.4451 H   0  0  0  0  0  0  0  0  0  0  0  0  # atno 8008 bound_to 7997
  155.7421  140.3489  155.5089 H   0  0  0  0  0  0  0  0  0  0  0  0  # atno 8009 bound_to 7997
  155.9030  140.1022  157.1326 H   0  0  0  0  0  0  0  0  0  0  0  0  # atno 8010 bound_to 7997
  139.8532  144.6583  150.9145 H   0  0  0  0  0  0  0  0  0  0  0  0  # atno 10167 bound_to 10162
  157.2956  130.7324  149.6636 H   0  0  0  0  0  0  0  0  0  0  0  0  # atno 10718 bound_to 10713
  153.4634  135.7016  153.6036 H   0  0  0  0  0  0  0  0  0  0  0  0  # atno 10763 bound_to 10752
  153.4321  135.3800  155.2177 H   0  0  0  0  0  0  0  0  0  0  0  0  # atno 10764 bound_to 10752
  154.8727  135.3953  154.4063 H   0  0  0  0  0  0  0  0  0  0  0  0  # atno 10765 bound_to 10752
  141.1131  133.8667  157.1526 H   0  0  0  0  0  0  0  0  0  0  0  0  # atno 11005 bound_to 11000
  145.2346  140.9986  143.3971 LP  0  0  0  0  0  0  0  0  0  0  0  0  # atno 17320 bound_to 7965
  144.9502  139.4091  143.6406 LP  0  0  0  0  0  0  0  0  0  0  0  0  # atno 17321 bound_to 7965
  140.7785  143.3809  151.1479 LP  0  0  0  0  0  0  0  0  0  0  0  0  # atno 17342 bound_to 10162
  139.7445  143.8873  152.3059 LP  0  0  0  0  0  0  0  0  0  0  0  0  # atno 17343 bound_to 10162
  155.9669  130.4295  150.4837 LP  0  0  0  0  0  0  0  0  0  0  0  0  # atno 17370 bound_to 10713
  157.2808  131.0606  151.2199 LP  0  0  0  0  0  0  0  0  0  0  0  0  # atno 17371 bound_to 10713
  140.0037  135.0017  157.0245 LP  0  0  0  0  0  0  0  0  0  0  0  0  # atno 17394 bound_to 11000
  140.4720  134.1376  155.7204 LP  0  0  0  0  0  0  0  0  0  0  0  0  # atno 17395 bound_to 11000

$$$$
