AV-unprocessed.smi:2999|AV-procd|sdf|11423|dock3
  -GOLD-   2272016343D 1   1.00000     0.00000
 Structure written by MMmdl.
 36 38  0  0  0  0  0  0  0  0  2 V2000
  149.4003  135.5450  158.6731 O   0  0  0  0  0  0  0  0  0  0  0  0
  149.3650  136.5939  159.3209 C   0  0  0  0  0  0  0  0  0  0  0  0
  150.2520  137.5642  159.0663 N   0  0  0  0  0  0  0  0  0  0  0  0
  151.2932  137.5039  158.0477 C   0  0  0  0  0  0  0  0  0  0  0  0
  151.7457  138.9106  157.6266 C   0  0  2  0  0  0  0  0  0  0  0  0
  151.7359  139.9218  158.7938 C   0  0  0  0  0  0  0  0  0  0  0  0
  152.0868  141.2668  158.3544 N   0  0  0  0  0  0  0  0  0  0  0  0
  152.0509  142.2036  159.4672 C   0  0  0  0  0  0  0  0  0  0  0  0
  152.9476  143.4145  159.4476 C   0  0  0  0  0  0  0  0  0  0  0  0
  153.2243  142.2740  160.4101 C   0  0  0  0  0  0  0  0  0  0  0  0
  151.1672  141.6691  157.2987 C   0  0  0  0  0  0  0  0  0  0  0  0
  151.1791  140.6720  156.1281 C   0  0  0  0  0  0  0  0  0  0  0  0
  150.8576  139.3709  156.6097 O   0  0  0  0  0  0  0  0  0  0  0  0
  148.4932  136.8979  160.3093 N   0  5  0  0  0  0  0  0  0  0  0  0
  147.8781  135.9163  160.9888 C   0  0  0  0  0  0  0  0  0  0  0  0
  147.5428  134.7451  160.4350 N   0  0  0  0  0  0  0  0  0  0  0  0
  146.9073  133.8734  161.3211 C   0  0  0  0  0  0  0  0  0  0  0  0
  146.7483  134.3960  162.5771 C   0  0  0  0  0  0  0  0  0  0  0  0
  147.3927  136.0092  162.6844 S   0  0  0  0  0  0  0  0  0  0  0  0
  150.1935  138.4079  159.6175 H   0  0  0  0  0  0  0  0  0  0  0  0
  152.1425  136.9446  158.4430 H   0  0  0  0  0  0  0  0  0  0  0  0
  150.9246  136.9554  157.1795 H   0  0  0  0  0  0  0  0  0  0  0  0
  152.7518  138.8481  157.2077 H   0  0  0  0  0  0  0  0  0  0  0  0
  150.7478  139.9299  159.2573 H   0  0  0  0  0  0  0  0  0  0  0  0
  152.4364  139.5993  159.5648 H   0  0  0  0  0  0  0  0  0  0  0  0
  151.0514  142.3138  159.8852 H   0  0  0  0  0  0  0  0  0  0  0  0
  153.6236  143.5337  158.6031 H   0  0  0  0  0  0  0  0  0  0  0  0
  152.5515  144.3384  159.8635 H   0  0  0  0  0  0  0  0  0  0  0  0
  153.0112  142.4404  161.4640 H   0  0  0  0  0  0  0  0  0  0  0  0
  154.0840  141.6397  160.2016 H   0  0  0  0  0  0  0  0  0  0  0  0
  150.1542  141.7463  157.6970 H   0  0  0  0  0  0  0  0  0  0  0  0
  151.4350  142.6611  156.9338 H   0  0  0  0  0  0  0  0  0  0  0  0
  150.4488  140.9635  155.3733 H   0  0  0  0  0  0  0  0  0  0  0  0
  152.1560  140.6569  155.6422 H   0  0  0  0  0  0  0  0  0  0  0  0
  146.6013  132.8985  160.9718 H   0  0  0  0  0  0  0  0  0  0  0  0
  146.2931  133.9348  163.4403 H   0  0  0  0  0  0  0  0  0  0  0  0
  1  2  2  0  0  0  0
  2  3  1  0  0  0  0
  2 14  1  0  0  0  0
  3  4  1  0  0  0  0
  3 20  1  0  0  0  0
  4  5  1  0  0  0  0
  4 21  1  0  0  0  0
  4 22  1  0  0  0  0
  5 13  1  0  0  0  0
  5  6  1  0  0  0  0
  5 23  1  0  0  0  0
  6  7  1  0  0  0  0
  6 24  1  0  0  0  0
  6 25  1  0  0  0  0
  7  8  1  0  0  0  0
  7 11  1  0  0  0  0
  8 10  1  0  0  0  0
  8  9  1  0  0  0  0
  8 26  1  0  0  0  0
  9 10  1  0  0  0  0
  9 27  1  0  0  0  0
  9 28  1  0  0  0  0
 10 29  1  0  0  0  0
 10 30  1  0  0  0  0
 11 12  1  0  0  0  0
 11 31  1  0  0  0  0
 11 32  1  0  0  0  0
 12 13  1  0  0  0  0
 12 33  1  0  0  0  0
 12 34  1  0  0  0  0
 14 15  1  0  0  0  0
 15 19  1  0  0  0  0
 15 16  2  0  0  0  0
 16 17  1  0  0  0  0
 17 18  2  0  0  0  0
 17 35  1  0  0  0  0
 18 19  1  0  0  0  0
 18 36  1  0  0  0  0
M  CHG  1  14  -1
M  END
> <s_m_source_file>
AV-unprocessed.smi

> <i_m_source_file_index>
2999

> <i_lp_mmshare_version>
43012

> <i_f3d_flags>
0

> <s_epik_input>
czFbY0hdW2NIXW5jMVtOSF1DKD1PKVtOSF1bQ0gyXVtDQEBIXTJbQ0gyXU4oW0NIMl1bQ0gyXU8yKVtDSF0zW0NIMl1bQ0gyXTM=

> <s_epik_cmdline>
J2VwaWtfcHl0aG9uJywgJy1waCcsICc3LjAnLCAnLXRuJywgJzgnLCAnLW1hJywgJzIwMCcsICctbWV0YWxfYmluZGluZycsICctaW1hZScsICc8aW5maWxlLm1hZT4nLCAnLW9tYWUnLCAnPG91dGZpbGUubWFlPic=

> <r_lp_tautomer_probability>
0.999

> <r_epik_Ionization_Penalty>
6.67591

> <r_epik_Ionization_Penalty_Charging>
5.6519

> <r_epik_Ionization_Penalty_Neutral>
1.024

> <r_epik_State_Penalty>
5.68985

> <r_epik_Charging_Adjusted_Penalty>
11.3418

> <i_epik_Tot_Q>
-1

> <i_epik_Tot_abs_Q>
1

> <r_epik_Metal_State_Penalty>
1.67789

> <b_epik_Metal_Only>
1

> <s_lp_Force_Field>
OPLS_2005

> <r_lp_Energy>
28.4873

> <b_lp_Chiralities_Consistent>
1

> <s_lp_Variant>
AV-unprocessed.smi:2999-7

> <Gold.Version>
5.8.1

> <Gold.Id.Protein>
6NUR|6NUR_protein|mol2

> <Gold.PLP.Fitness>
47.1238

> <Gold.PLP.PLP>
-40.2226

> <Gold.PLP.part.hbond>
-3.0000

> <Gold.PLP.part.metal>
0.0000

> <Gold.PLP.part.buried>
-5.1069

> <Gold.PLP.part.nonpolar>
-32.4663

> <Gold.PLP.part.repulsive>
0.2232

> <Gold.PLP.ligand.clash>
0.0000

> <Gold.PLP.ligand.torsion>
1.3209

> <Gold.PLP.Chemscore.Hbond>
2.7746

> <Gold.PLP.Chemscore.CHOScore>
0.0000

> <Gold.PLP.Chemscore.Metal>
0.0000

> <Gold.Chemscore.Hbonds>
donor molecule, donor type, donor heavy atom, donor atom, acceptor molecule, acceptor atom, score
      P1  H  6896  6907       L1     1  1.00
      P1  H  6931  6943       L1    14  1.07

> <Gold.PLP.Chemscore.Internal.Correction>
1.2191

> <Gold.Rescore>
     Score         DG    S(hbond)    S(metal)    S(lipo)     H(rot)  DE(clash)    DE(int)     intcor
     13.59     -16.43       1.26        0.00      90.92       1.52       0.02       2.82       ----

> <Gold.Chemscore.Fitness>
13.5867

> <Gold.Chemscore.DG>
-16.4272

> <Gold.Chemscore.ZeroCoef>
-5.4800

> <Gold.Chemscore.Hbond>
1.2552

> <Gold.Chemscore.Metal>
0.0000

> <Gold.Chemscore.Lipo>
90.9190

> <Gold.Chemscore.Internal_Hbond>
0.0000

> <Gold.Chemscore.DEClash>
0.0202

> <Gold.Chemscore.DEInternal>
2.8203

> <Gold.Chemscore.Rot>
1.5167

> <Gold.Chemscore.Internal.Correction>
   9.000000E+99

> <Gold.Chemscore.Hbonds>
donor molecule, donor type, donor heavy atom, donor atom, acceptor molecule, acceptor atom, score
      P1  H  6896  6907       L1     1  0.60
      P1  H  6931  6943       L1    14  0.19

> <Gold.Chemscore.Hbond.Weighted>
-4.1924

> <Gold.Chemscore.Metal.Weighted>
-0.0000

> <Gold.Chemscore.Lipo.Weighted>
-10.6375

> <Gold.Chemscore.Internal_Hbond.Weighted>
0.0000

> <Gold.Chemscore.DEClash.Weighted>
0.0202

> <Gold.Chemscore.DEInternal.Weighted>
2.8203

> <Gold.Chemscore.Rot.Weighted>
3.8827

> <Gold.Chemscore.Internal.Correction.Weighted>
   9.000000E+99

> <Gold.Protein.RotatedTorsions>
[ 6907 6896 6895 6894 ] final  -79.68 input  -60.11 | X-H torsion
[ 7974 7965 7964 7962 ] final -100.06 input  175.53 | X-H torsion
[ 8008 7997 7996 7995 ] final  178.50 input   59.86 | X-H torsion
[ 10167 10162 10161 10158 ] final  -12.58 input  -65.29 | X-H torsion
[ 10718 10713 10712 10709 ] final  -76.76 input   66.30 | X-H torsion
[ 10763 10752 10751 10750 ] final    7.13 input  -60.55 | X-H torsion
[ 11005 11000 10999 10996 ] final  -85.32 input  -57.11 | X-H torsion

> <Gold.Protein.ActiveResidues>
 VAL166  LYS551  ARG553  GLY616  TRP617  ASP618  TYR619  PRO620  LYS621  CYS622 
 ASP623  PHE694  ASN695  SER759  ASP760  ASP761  ALA762  ILE779  LEU786  VAL792 
 PHE793  MET794  SER795  GLU796  ALA797  LYS798  CYS799  TRP800  GLU811  SER814 

> <Gold.Protein.RotatedAtoms>
  150.6945  134.4085  159.5150 H   0  0  0  0  0  0  0  0  0  0  0  0  # atno 6907 bound_to 6896
  152.1847  134.8721  160.0532 H   0  0  0  0  0  0  0  0  0  0  0  0  # atno 6908 bound_to 6896
  151.9698  133.3687  159.4104 H   0  0  0  0  0  0  0  0  0  0  0  0  # atno 6909 bound_to 6896
  145.2995  140.9374  143.2831 H   0  0  0  0  0  0  0  0  0  0  0  0  # atno 7974 bound_to 7965
  156.0539  140.1332  157.0018 H   0  0  0  0  0  0  0  0  0  0  0  0  # atno 8008 bound_to 7997
  154.4448  140.1005  156.6488 H   0  0  0  0  0  0  0  0  0  0  0  0  # atno 8009 bound_to 7997
  155.5481  140.3462  155.4464 H   0  0  0  0  0  0  0  0  0  0  0  0  # atno 8010 bound_to 7997
  140.7164  143.5518  150.9293 H   0  0  0  0  0  0  0  0  0  0  0  0  # atno 10167 bound_to 10162
  156.0165  130.4474  150.3242 H   0  0  0  0  0  0  0  0  0  0  0  0  # atno 10718 bound_to 10713
  153.2398  135.6902  153.7795 H   0  0  0  0  0  0  0  0  0  0  0  0  # atno 10763 bound_to 10752
  153.6929  135.3310  155.3207 H   0  0  0  0  0  0  0  0  0  0  0  0  # atno 10764 bound_to 10752
  154.8350  135.4549  154.1316 H   0  0  0  0  0  0  0  0  0  0  0  0  # atno 10765 bound_to 10752
  141.1642  133.7393  156.8998 H   0  0  0  0  0  0  0  0  0  0  0  0  # atno 11005 bound_to 11000
  144.9105  139.4534  143.6589 LP  0  0  0  0  0  0  0  0  0  0  0  0  # atno 17320 bound_to 7965
  146.3157  139.7910  142.8985 LP  0  0  0  0  0  0  0  0  0  0  0  0  # atno 17321 bound_to 7965
  139.9242  143.6570  152.3090 LP  0  0  0  0  0  0  0  0  0  0  0  0  # atno 17342 bound_to 10162
  139.6997  144.7636  151.1294 LP  0  0  0  0  0  0  0  0  0  0  0  0  # atno 17343 bound_to 10162
  157.1341  131.0279  151.2956 LP  0  0  0  0  0  0  0  0  0  0  0  0  # atno 17370 bound_to 10713
  157.4526  130.7607  149.7165 LP  0  0  0  0  0  0  0  0  0  0  0  0  # atno 17371 bound_to 10713
  140.1590  134.9178  157.2691 LP  0  0  0  0  0  0  0  0  0  0  0  0  # atno 17394 bound_to 11000
  140.2633  134.3546  155.7399 LP  0  0  0  0  0  0  0  0  0  0  0  0  # atno 17395 bound_to 11000

$$$$
