AV-unprocessed.smi:2997|AV-procd|sdf|11412|dock5
  -GOLD-   2272016333D 1   1.00000     0.00000
 Structure written by MMmdl.
 38 40  0  0  0  0  0  0  0  0  1 V2000
  153.0296  142.8910  161.4262 C   0  0  0  0  0  0  0  0  0  0  0  0
  152.4795  142.5601  160.0501 C   0  0  0  0  0  0  0  0  0  0  0  0
  152.8247  141.3281  159.4502 C   0  0  0  0  0  0  0  0  0  0  0  0
  152.3309  140.9804  158.1737 C   0  0  0  0  0  0  0  0  0  0  0  0
  152.5352  139.8443  157.4093 N   0  0  0  0  0  0  0  0  0  0  0  0
  151.8087  140.1146  156.3284 C   0  0  0  0  0  0  0  0  0  0  0  0
  151.1589  141.2942  156.3016 N   0  0  0  0  0  0  0  0  0  0  0  0
  150.3109  141.8060  155.2403 C   0  0  0  0  0  0  0  0  0  0  0  0
  149.3886  140.7225  154.6511 C   0  0  2  0  0  0  0  0  0  0  0  0
  150.1475  139.8400  153.8454 O   0  0  0  0  0  0  0  0  0  0  0  0
  148.2418  141.3315  153.8225 C   0  0  0  0  0  0  0  0  0  0  0  0
  147.2543  142.0016  154.6506 N   0  0  0  0  0  0  0  0  0  0  0  0
  146.1928  142.7847  154.2487 C   0  0  0  0  0  0  0  0  0  0  0  0
  145.5453  143.2015  155.3763 C   0  0  0  0  0  0  0  0  0  0  0  0
  146.2951  142.6138  156.4333 C   0  0  0  0  0  0  0  0  0  0  0  0
  147.3173  141.8963  155.9958 N   0  0  0  0  0  0  0  0  0  0  0  0
  151.4756  141.9068  157.5087 C   0  0  0  0  0  0  0  0  0  0  0  0
  151.1261  143.1364  158.0943 C   0  0  0  0  0  0  0  0  0  0  0  0
  151.6289  143.4683  159.3699 C   0  0  0  0  0  0  0  0  0  0  0  0
  151.2486  144.7999  159.9928 C   0  0  0  0  0  0  0  0  0  0  0  0
  153.6715  142.0932  161.8010 H   0  0  0  0  0  0  0  0  0  0  0  0
  152.2163  143.0285  162.1393 H   0  0  0  0  0  0  0  0  0  0  0  0
  153.6196  143.8070  161.3928 H   0  0  0  0  0  0  0  0  0  0  0  0
  153.4734  140.6366  159.9677 H   0  0  0  0  0  0  0  0  0  0  0  0
  151.7415  139.4138  155.5089 H   0  0  0  0  0  0  0  0  0  0  0  0
  149.7174  142.6256  155.6468 H   0  0  0  0  0  0  0  0  0  0  0  0
  150.9439  142.2355  154.4623 H   0  0  0  0  0  0  0  0  0  0  0  0
  148.9605  140.1396  155.4679 H   0  0  0  0  0  0  0  0  0  0  0  0
  149.7434  139.7910  152.9921 H   0  0  0  0  0  0  0  0  0  0  0  0
  148.6388  142.0620  153.1167 H   0  0  0  0  0  0  0  0  0  0  0  0
  147.7471  140.5616  153.2276 H   0  0  0  0  0  0  0  0  0  0  0  0
  145.9903  142.9790  153.2057 H   0  0  0  0  0  0  0  0  0  0  0  0
  144.6697  143.8307  155.4371 H   0  0  0  0  0  0  0  0  0  0  0  0
  146.1281  142.6874  157.4978 H   0  0  0  0  0  0  0  0  0  0  0  0
  150.4763  143.8174  157.5649 H   0  0  0  0  0  0  0  0  0  0  0  0
  150.5717  145.3616  159.3484 H   0  0  0  0  0  0  0  0  0  0  0  0
  152.1364  145.4108  160.1583 H   0  0  0  0  0  0  0  0  0  0  0  0
  150.7496  144.6474  160.9498 H   0  0  0  0  0  0  0  0  0  0  0  0
  1  2  1  0  0  0  0
  1 21  1  0  0  0  0
  1 22  1  0  0  0  0
  1 23  1  0  0  0  0
  2 19  1  0  0  0  0
  2  3  2  0  0  0  0
  3  4  1  0  0  0  0
  3 24  1  0  0  0  0
  4 17  2  0  0  0  0
  4  5  1  0  0  0  0
  5  6  2  0  0  0  0
  6  7  1  0  0  0  0
  6 25  1  0  0  0  0
  7  8  1  0  0  0  0
  7 17  1  0  0  0  0
  8  9  1  0  0  0  0
  8 26  1  0  0  0  0
  8 27  1  0  0  0  0
  9 10  1  0  0  0  0
  9 11  1  0  0  0  0
  9 28  1  0  0  0  0
 10 29  1  0  0  0  0
 11 12  1  0  0  0  0
 11 30  1  0  0  0  0
 11 31  1  0  0  0  0
 12 16  1  0  0  0  0
 12 13  1  0  0  0  0
 13 14  2  0  0  0  0
 13 32  1  0  0  0  0
 14 15  1  0  0  0  0
 14 33  1  0  0  0  0
 15 16  2  0  0  0  0
 15 34  1  0  0  0  0
 17 18  1  0  0  0  0
 18 19  2  0  0  0  0
 18 35  1  0  0  0  0
 19 20  1  0  0  0  0
 20 36  1  0  0  0  0
 20 37  1  0  0  0  0
 20 38  1  0  0  0  0
M  END
> <s_m_source_file>
AV-unprocessed.smi

> <i_m_source_file_index>
2997

> <i_lp_mmshare_version>
43012

> <i_f3d_flags>
0

> <s_epik_input>
W0NIM11jKFtjSF0xKWMoW0NIM10pW2NIXWMoYzEyKW4oW2NIXW4yKVtDSDJdW0NASF0oW09IXSlbQ0gyXW4zW2NIXVtjSF1bY0hdbjM=

> <s_epik_cmdline>
J2VwaWtfcHl0aG9uJywgJy1waCcsICc3LjAnLCAnLXRuJywgJzgnLCAnLW1hJywgJzIwMCcsICctbWV0YWxfYmluZGluZycsICctaW1hZScsICc8aW5maWxlLm1hZT4nLCAnLW9tYWUnLCAnPG91dGZpbGUubWFlPic=

> <r_lp_tautomer_probability>
1

> <r_epik_Ionization_Penalty>
0.102113

> <r_epik_Ionization_Penalty_Charging>
0

> <r_epik_Ionization_Penalty_Neutral>
0.102113

> <r_epik_State_Penalty>
0.0920694

> <r_epik_Charging_Adjusted_Penalty>
0.0920694

> <i_epik_Tot_Q>
0

> <i_epik_Tot_abs_Q>
0

> <r_epik_Metal_State_Penalty>
0.0784306

> <b_epik_Metal_Only>
0

> <s_lp_Force_Field>
OPLS_2005

> <r_lp_Energy>
8.0564

> <b_lp_Chiralities_Consistent>
1

> <s_lp_Variant>
AV-unprocessed.smi:2997-1

> <Gold.Version>
5.8.1

> <Gold.Id.Protein>
6NUR|6NUR_protein|mol2

> <Gold.PLP.Fitness>
54.2566

> <Gold.PLP.PLP>
-46.4629

> <Gold.PLP.part.hbond>
-3.0000

> <Gold.PLP.part.metal>
0.0000

> <Gold.PLP.part.buried>
-4.5234

> <Gold.PLP.part.nonpolar>
-38.2406

> <Gold.PLP.part.repulsive>
0.1315

> <Gold.PLP.ligand.clash>
0.0000

> <Gold.PLP.ligand.torsion>
0.4994

> <Gold.PLP.Chemscore.Hbond>
2.9280

> <Gold.PLP.Chemscore.CHOScore>
0.0000

> <Gold.PLP.Chemscore.Metal>
0.0000

> <Gold.Chemscore.Hbonds>
donor molecule, donor type, donor heavy atom, donor atom, acceptor molecule, acceptor atom, score
      L1  H    10    29       P1  7957  1.00
      P1  H  7989  7998       L1    10  0.93
      P1  H  7997  8010       L1     5  0.95

> <Gold.PLP.Chemscore.Internal.Correction>
0.0086

> <Gold.Rescore>
     Score         DG    S(hbond)    S(metal)    S(lipo)     H(rot)  DE(clash)    DE(int)     intcor
     17.10     -18.27       1.66        0.00     109.15       2.15       0.53       0.64       ----

> <Gold.Chemscore.Fitness>
17.0959

> <Gold.Chemscore.DG>
-18.2676

> <Gold.Chemscore.ZeroCoef>
-5.4800

> <Gold.Chemscore.Hbond>
1.6557

> <Gold.Chemscore.Metal>
0.0000

> <Gold.Chemscore.Lipo>
109.1484

> <Gold.Chemscore.Internal_Hbond>
0.0000

> <Gold.Chemscore.DEClash>
0.5329

> <Gold.Chemscore.DEInternal>
0.6388

> <Gold.Chemscore.Rot>
2.1534

> <Gold.Chemscore.Internal.Correction>
   9.000000E+99

> <Gold.Chemscore.Hbonds>
donor molecule, donor type, donor heavy atom, donor atom, acceptor molecule, acceptor atom, score
      L1  H    10    29       P1  7957  0.98
      P1  H  7989  7998       L1    10  0.07
      P1  H  7997  8010       L1     5  0.09

> <Gold.Chemscore.Hbond.Weighted>
-5.5300

> <Gold.Chemscore.Metal.Weighted>
-0.0000

> <Gold.Chemscore.Lipo.Weighted>
-12.7704

> <Gold.Chemscore.Internal_Hbond.Weighted>
0.0000

> <Gold.Chemscore.DEClash.Weighted>
0.5329

> <Gold.Chemscore.DEInternal.Weighted>
0.6388

> <Gold.Chemscore.Rot.Weighted>
5.5127

> <Gold.Chemscore.Internal.Correction.Weighted>
   9.000000E+99

> <Gold.Protein.RotatedTorsions>
[ 6907 6896 6895 6894 ] final -153.31 input  -60.11 | X-H torsion
[ 7974 7965 7964 7962 ] final   94.95 input  175.53 | X-H torsion
[ 8008 7997 7996 7995 ] final   61.80 input   59.86 | X-H torsion
[ 10167 10162 10161 10158 ] final -146.11 input  -65.29 | X-H torsion
[ 10718 10713 10712 10709 ] final  -64.25 input   66.30 | X-H torsion
[ 10763 10752 10751 10750 ] final -140.15 input  -60.55 | X-H torsion
[ 11005 11000 10999 10996 ] final -115.88 input  -57.11 | X-H torsion

> <Gold.Protein.ActiveResidues>
 VAL166  LYS551  ARG553  GLY616  TRP617  ASP618  TYR619  PRO620  LYS621  CYS622 
 ASP623  PHE694  ASN695  SER759  ASP760  ASP761  ALA762  ILE779  LEU786  VAL792 
 PHE793  MET794  SER795  GLU796  ALA797  LYS798  CYS799  TRP800  GLU811  SER814 

> <Gold.Protein.RotatedAtoms>
  151.2407  133.4401  159.2607 H   0  0  0  0  0  0  0  0  0  0  0  0  # atno 6907 bound_to 6896
  151.0708  134.9797  159.8317 H   0  0  0  0  0  0  0  0  0  0  0  0  # atno 6908 bound_to 6896
  152.5412  134.2353  159.8893 H   0  0  0  0  0  0  0  0  0  0  0  0  # atno 6909 bound_to 6896
  145.4587  139.2288  143.2999 H   0  0  0  0  0  0  0  0  0  0  0  0  # atno 7974 bound_to 7965
  155.6041  140.3494  155.4602 H   0  0  0  0  0  0  0  0  0  0  0  0  # atno 8008 bound_to 7997
  156.0206  140.1253  157.0386 H   0  0  0  0  0  0  0  0  0  0  0  0  # atno 8009 bound_to 7997
  154.4313  140.1063  156.5944 H   0  0  0  0  0  0  0  0  0  0  0  0  # atno 8010 bound_to 7997
  139.7744  143.8192  152.2629 H   0  0  0  0  0  0  0  0  0  0  0  0  # atno 10167 bound_to 10162
  156.0740  130.4231  150.1393 H   0  0  0  0  0  0  0  0  0  0  0  0  # atno 10718 bound_to 10713
  154.8587  135.3561  154.5661 H   0  0  0  0  0  0  0  0  0  0  0  0  # atno 10763 bound_to 10752
  153.6275  135.7003  153.5292 H   0  0  0  0  0  0  0  0  0  0  0  0  # atno 10764 bound_to 10752
  153.3077  135.4187  155.1268 H   0  0  0  0  0  0  0  0  0  0  0  0  # atno 10765 bound_to 10752
  141.0459  133.9763  157.2918 H   0  0  0  0  0  0  0  0  0  0  0  0  # atno 11005 bound_to 11000
  146.2463  140.5354  142.8912 LP  0  0  0  0  0  0  0  0  0  0  0  0  # atno 17320 bound_to 7965
  144.8016  140.6223  143.6474 LP  0  0  0  0  0  0  0  0  0  0  0  0  # atno 17321 bound_to 7965
  139.8235  144.7285  150.9541 LP  0  0  0  0  0  0  0  0  0  0  0  0  # atno 17342 bound_to 10162
  140.7815  143.4136  151.0953 LP  0  0  0  0  0  0  0  0  0  0  0  0  # atno 17343 bound_to 10162
  156.9438  130.9753  151.3511 LP  0  0  0  0  0  0  0  0  0  0  0  0  # atno 17370 bound_to 10713
  157.5827  130.8387  149.8545 LP  0  0  0  0  0  0  0  0  0  0  0  0  # atno 17371 bound_to 10713
  139.9311  135.0200  156.8404 LP  0  0  0  0  0  0  0  0  0  0  0  0  # atno 17394 bound_to 11000
  140.6147  134.0049  155.7592 LP  0  0  0  0  0  0  0  0  0  0  0  0  # atno 17395 bound_to 11000

$$$$
