AV-unprocessed.smi:1830|AV-procd|sdf|7442|dock9
  -GOLD-   22720 9133D 1   1.00000     0.00000
 Structure written by MMmdl.
 52 55  0  0  0  0  0  0  0  0  1 V2000
  149.9555  135.9387  158.1347 O   0  0  0  0  0  0  0  0  0  0  0  0
  149.2950  136.9738  158.2142 C   0  0  0  0  0  0  0  0  0  0  0  0
  148.1874  137.0936  158.9592 N   0  0  0  0  0  0  0  0  0  0  0  0
  147.5628  136.0187  159.7231 C   0  0  0  0  0  0  0  0  0  0  0  0
  147.5886  136.3292  161.2334 C   0  0  2  0  0  0  0  0  0  0  0  0
  147.0139  135.1777  162.0925 C   0  0  0  0  0  0  0  0  0  0  0  0
  145.5656  135.1474  162.0071 N   0  0  0  0  0  0  0  0  0  0  0  0
  144.8849  134.1795  162.8354 C   0  0  0  0  0  0  0  0  0  0  0  0
  143.4210  134.6528  162.8486 C   0  0  0  0  0  0  0  0  0  0  0  0
  143.4950  136.1433  162.4505 C   0  0  0  0  0  0  0  0  0  0  0  0
  145.0008  136.4087  162.4026 C   0  0  2  0  0  0  0  0  0  0  0  0
  145.4893  137.5335  161.4816 C   0  0  0  0  0  0  0  0  0  0  0  0
  146.9190  137.5653  161.5317 O   0  0  0  0  0  0  0  0  0  0  0  0
  149.5792  138.1279  157.5878 N   0  0  0  0  0  0  0  0  0  0  0  0
  150.6881  138.4409  156.7494 C   0  0  0  0  0  0  0  0  0  0  0  0
  151.9027  137.7120  156.7821 C   0  0  0  0  0  0  0  0  0  0  0  0
  152.9404  138.0647  155.9013 C   0  0  0  0  0  0  0  0  0  0  0  0
  152.7253  139.1292  155.0095 C   0  0  0  0  0  0  0  0  0  0  0  0
  151.5705  139.8224  154.9544 N   0  0  0  0  0  0  0  0  0  0  0  0
  150.5620  139.4884  155.7962 C   0  0  0  0  0  0  0  0  0  0  0  0
  149.3749  140.2486  155.7278 N   0  0  0  0  0  0  0  0  0  0  0  0
  149.5005  141.4712  154.9392 C   0  0  0  0  0  0  0  0  0  0  0  0
  148.1527  141.6778  154.2462 C   0  0  0  0  0  0  0  0  0  0  0  0
  147.6181  140.2580  154.1082 C   0  0  0  0  0  0  0  0  0  0  0  0
  148.1120  139.5918  155.3912 C   0  0  0  0  0  0  0  0  0  0  0  0
  147.7171  137.9865  158.9684 H   0  0  0  0  0  0  0  0  0  0  0  0
  146.5467  135.8196  159.3800 H   0  0  0  0  0  0  0  0  0  0  0  0
  148.1265  135.1059  159.5297 H   0  0  0  0  0  0  0  0  0  0  0  0
  148.6325  136.4654  161.5186 H   0  0  0  0  0  0  0  0  0  0  0  0
  147.4304  134.2204  161.7775 H   0  0  0  0  0  0  0  0  0  0  0  0
  147.3151  135.3219  163.1311 H   0  0  0  0  0  0  0  0  0  0  0  0
  144.9960  133.1668  162.4466 H   0  0  0  0  0  0  0  0  0  0  0  0
  145.2901  134.2002  163.8486 H   0  0  0  0  0  0  0  0  0  0  0  0
  142.8244  134.0969  162.1245 H   0  0  0  0  0  0  0  0  0  0  0  0
  142.9712  134.5135  163.8319 H   0  0  0  0  0  0  0  0  0  0  0  0
  143.0445  136.2932  161.4682 H   0  0  0  0  0  0  0  0  0  0  0  0
  142.9858  136.7948  163.1611 H   0  0  0  0  0  0  0  0  0  0  0  0
  145.3286  136.6383  163.4190 H   0  0  0  0  0  0  0  0  0  0  0  0
  145.1463  137.3798  160.4583 H   0  0  0  0  0  0  0  0  0  0  0  0
  145.0986  138.4968  161.8096 H   0  0  0  0  0  0  0  0  0  0  0  0
  148.9774  138.9081  157.8077 H   0  0  0  0  0  0  0  0  0  0  0  0
  152.0548  136.8803  157.4518 H   0  0  0  0  0  0  0  0  0  0  0  0
  153.8770  137.5273  155.9062 H   0  0  0  0  0  0  0  0  0  0  0  0
  153.4987  139.4290  154.3178 H   0  0  0  0  0  0  0  0  0  0  0  0
  149.7563  142.3237  155.5690 H   0  0  0  0  0  0  0  0  0  0  0  0
  150.2897  141.3570  154.1941 H   0  0  0  0  0  0  0  0  0  0  0  0
  147.4905  142.2601  154.8885 H   0  0  0  0  0  0  0  0  0  0  0  0
  148.2414  142.1970  153.2917 H   0  0  0  0  0  0  0  0  0  0  0  0
  146.5344  140.2163  153.9970 H   0  0  0  0  0  0  0  0  0  0  0  0
  148.0689  139.7737  153.2407 H   0  0  0  0  0  0  0  0  0  0  0  0
  148.1753  138.5088  155.2855 H   0  0  0  0  0  0  0  0  0  0  0  0
  147.4121  139.7885  156.2038 H   0  0  0  0  0  0  0  0  0  0  0  0
  1  2  2  0  0  0  0
  2  3  1  0  0  0  0
  2 14  1  0  0  0  0
  3  4  1  0  0  0  0
  3 26  1  0  0  0  0
  4  5  1  0  0  0  0
  4 27  1  0  0  0  0
  4 28  1  0  0  0  0
  5 13  1  0  0  0  0
  5  6  1  0  0  0  0
  5 29  1  0  0  0  0
  6  7  1  0  0  0  0
  6 30  1  0  0  0  0
  6 31  1  0  0  0  0
  7 11  1  0  0  0  0
  7  8  1  0  0  0  0
  8  9  1  0  0  0  0
  8 32  1  0  0  0  0
  8 33  1  0  0  0  0
  9 10  1  0  0  0  0
  9 34  1  0  0  0  0
  9 35  1  0  0  0  0
 10 11  1  0  0  0  0
 10 36  1  0  0  0  0
 10 37  1  0  0  0  0
 11 12  1  0  0  0  0
 11 38  1  0  0  0  0
 12 13  1  0  0  0  0
 12 39  1  0  0  0  0
 12 40  1  0  0  0  0
 14 15  1  0  0  0  0
 14 41  1  0  0  0  0
 15 20  1  0  0  0  0
 15 16  2  0  0  0  0
 16 17  1  0  0  0  0
 16 42  1  0  0  0  0
 17 18  2  0  0  0  0
 17 43  1  0  0  0  0
 18 19  1  0  0  0  0
 18 44  1  0  0  0  0
 19 20  2  0  0  0  0
 20 21  1  0  0  0  0
 21 25  1  0  0  0  0
 21 22  1  0  0  0  0
 22 23  1  0  0  0  0
 22 45  1  0  0  0  0
 22 46  1  0  0  0  0
 23 24  1  0  0  0  0
 23 47  1  0  0  0  0
 23 48  1  0  0  0  0
 24 25  1  0  0  0  0
 24 49  1  0  0  0  0
 24 50  1  0  0  0  0
 25 51  1  0  0  0  0
 25 52  1  0  0  0  0
M  END
> <s_m_source_file>
AV-unprocessed.smi

> <i_m_source_file_index>
1830

> <i_lp_mmshare_version>
43012

> <i_f3d_flags>
0

> <s_epik_input>
W0NIMl0xW0NIMl1bQ0gyXVtDQEhdKE4xMilbQ0gyXU9bQ0BASF0oW0NIMl0yKVtDSDJdW05IXUMoPU8pW05IXWMzW2NIXVtjSF1bY0hdbmMzTjRbQ0gyXVtDSDJdW0NIMl1bQ0gyXTQ=

> <s_epik_cmdline>
J2VwaWtfcHl0aG9uJywgJy1waCcsICc3LjAnLCAnLXRuJywgJzgnLCAnLW1hJywgJzIwMCcsICctbWV0YWxfYmluZGluZycsICctaW1hZScsICc8aW5maWxlLm1hZT4nLCAnLW9tYWUnLCAnPG91dGZpbGUubWFlPic=

> <r_lp_tautomer_probability>
1

> <r_epik_Ionization_Penalty>
1.16487

> <r_epik_Ionization_Penalty_Charging>
0

> <r_epik_Ionization_Penalty_Neutral>
1.16487

> <r_epik_State_Penalty>
1.21807

> <r_epik_Charging_Adjusted_Penalty>
1.21807

> <i_epik_Tot_Q>
0

> <i_epik_Tot_abs_Q>
0

> <r_epik_Metal_State_Penalty>
1.19922

> <b_epik_Metal_Only>
0

> <s_lp_Force_Field>
OPLS_2005

> <r_lp_Energy>
77.9026

> <b_lp_Chiralities_Consistent>
1

> <s_lp_Variant>
AV-unprocessed.smi:1830-11

> <Gold.Version>
5.8.1

> <Gold.Id.Protein>
6NUR|6NUR_protein|mol2

> <Gold.PLP.Fitness>
48.6346

> <Gold.PLP.PLP>
-40.0248

> <Gold.PLP.part.hbond>
-4.0000

> <Gold.PLP.part.metal>
0.0000

> <Gold.PLP.part.buried>
-5.6417

> <Gold.PLP.part.nonpolar>
-31.1276

> <Gold.PLP.part.repulsive>
0.2944

> <Gold.PLP.ligand.clash>
0.0000

> <Gold.PLP.ligand.torsion>
0.2705

> <Gold.PLP.Chemscore.Hbond>
3.0016

> <Gold.PLP.Chemscore.CHOScore>
0.0000

> <Gold.PLP.Chemscore.Metal>
0.0000

> <Gold.Chemscore.Hbonds>
donor molecule, donor type, donor heavy atom, donor atom, acceptor molecule, acceptor atom, score
      P1  H  6896  6907       L1     1  0.90
      P1  H  6931  6943       L1    13  0.04
      P1  H  6934  6947       L1    13  0.99
      P1  H  7989  7998       L1    19  1.00

> <Gold.PLP.Chemscore.Internal.Correction>
0.1460

> <Gold.Rescore>
     Score         DG    S(hbond)    S(metal)    S(lipo)     H(rot)  DE(clash)    DE(int)     intcor
     19.73     -21.31       2.59        0.00      91.59       1.37       0.01       1.57       ----

> <Gold.Chemscore.Fitness>
19.7345

> <Gold.Chemscore.DG>
-21.3123

> <Gold.Chemscore.ZeroCoef>
-5.4800

> <Gold.Chemscore.Hbond>
2.5853

> <Gold.Chemscore.Metal>
0.0000

> <Gold.Chemscore.Lipo>
91.5906

> <Gold.Chemscore.Internal_Hbond>
0.0000

> <Gold.Chemscore.DEClash>
0.0077

> <Gold.Chemscore.DEInternal>
1.5701

> <Gold.Chemscore.Rot>
1.3746

> <Gold.Chemscore.Internal.Correction>
   9.000000E+99

> <Gold.Chemscore.Hbonds>
donor molecule, donor type, donor heavy atom, donor atom, acceptor molecule, acceptor atom, score
      P1  H  6896  6907       L1     1  0.83
      P1  H  6934  6947       L1    13  0.24
      P1  H  7989  7998       L1    19  0.60

> <Gold.Chemscore.Hbond.Weighted>
-8.6351

> <Gold.Chemscore.Metal.Weighted>
-0.0000

> <Gold.Chemscore.Lipo.Weighted>
-10.7161

> <Gold.Chemscore.Internal_Hbond.Weighted>
0.0000

> <Gold.Chemscore.DEClash.Weighted>
0.0077

> <Gold.Chemscore.DEInternal.Weighted>
1.5701

> <Gold.Chemscore.Rot.Weighted>
3.5189

> <Gold.Chemscore.Internal.Correction.Weighted>
   9.000000E+99

> <Gold.Protein.RotatedTorsions>
[ 6907 6896 6895 6894 ] final  -60.13 input  -60.11 | X-H torsion
[ 7974 7965 7964 7962 ] final -152.60 input  175.53 | X-H torsion
[ 8008 7997 7996 7995 ] final   55.11 input   59.86 | X-H torsion
[ 10167 10162 10161 10158 ] final  174.29 input  -65.29 | X-H torsion
[ 10718 10713 10712 10709 ] final  -36.82 input   66.30 | X-H torsion
[ 10763 10752 10751 10750 ] final -163.16 input  -60.55 | X-H torsion
[ 11005 11000 10999 10996 ] final -147.26 input  -57.11 | X-H torsion

> <Gold.Protein.ActiveResidues>
 VAL166  LYS551  ARG553  GLY616  TRP617  ASP618  TYR619  PRO620  LYS621  CYS622 
 ASP623  PHE694  ASN695  SER759  ASP760  ASP761  ALA762  ILE779  LEU786  VAL792 
 PHE793  MET794  SER795  GLU796  ALA797  LYS798  CYS799  TRP800  GLU811  SER814 

> <Gold.Protein.RotatedAtoms>
  150.7879  134.6878  159.6479 H   0  0  0  0  0  0  0  0  0  0  0  0  # atno 6907 bound_to 6896
  152.3979  134.6332  160.0090 H   0  0  0  0  0  0  0  0  0  0  0  0  # atno 6908 bound_to 6896
  151.6612  133.3280  159.3211 H   0  0  0  0  0  0  0  0  0  0  0  0  # atno 6909 bound_to 6896
  144.7785  140.4640  143.5856 H   0  0  0  0  0  0  0  0  0  0  0  0  # atno 7974 bound_to 7965
  155.4958  140.3473  155.4362 H   0  0  0  0  0  0  0  0  0  0  0  0  # atno 8008 bound_to 7997
  156.0947  140.1419  156.9575 H   0  0  0  0  0  0  0  0  0  0  0  0  # atno 8009 bound_to 7997
  154.4656  140.0919  156.6988 H   0  0  0  0  0  0  0  0  0  0  0  0  # atno 8010 bound_to 7997
  139.5137  144.3163  152.0245 H   0  0  0  0  0  0  0  0  0  0  0  0  # atno 10167 bound_to 10162
  156.3224  130.4267  149.7948 H   0  0  0  0  0  0  0  0  0  0  0  0  # atno 10718 bound_to 10713
  154.7148  135.3013  154.9140 H   0  0  0  0  0  0  0  0  0  0  0  0  # atno 10763 bound_to 10752
  154.0030  135.6704  153.4764 H   0  0  0  0  0  0  0  0  0  0  0  0  # atno 10764 bound_to 10752
  153.0785  135.5022  154.8368 H   0  0  0  0  0  0  0  0  0  0  0  0  # atno 10765 bound_to 10752
  140.7735  134.3161  157.5067 H   0  0  0  0  0  0  0  0  0  0  0  0  # atno 11005 bound_to 11000
  145.6116  139.1514  143.3072 LP  0  0  0  0  0  0  0  0  0  0  0  0  # atno 17320 bound_to 7965
  146.1980  140.6232  142.9115 LP  0  0  0  0  0  0  0  0  0  0  0  0  # atno 17321 bound_to 7965
  140.2606  144.4071  150.6187 LP  0  0  0  0  0  0  0  0  0  0  0  0  # atno 17342 bound_to 10162
  140.6160  143.2172  151.6791 LP  0  0  0  0  0  0  0  0  0  0  0  0  # atno 17343 bound_to 10162
  156.5251  130.8232  151.3217 LP  0  0  0  0  0  0  0  0  0  0  0  0  # atno 17370 bound_to 10713
  157.7414  130.9870  150.2445 LP  0  0  0  0  0  0  0  0  0  0  0  0  # atno 17371 bound_to 10713
  139.8752  134.9275  156.3427 LP  0  0  0  0  0  0  0  0  0  0  0  0  # atno 17394 bound_to 11000
  140.9551  133.7425  156.0324 LP  0  0  0  0  0  0  0  0  0  0  0  0  # atno 17395 bound_to 11000

$$$$
