AV-unprocessed.smi:483|AV-procd|sdf|2686|dock7
  -GOLD-   2262023113D 1   1.00000     0.00000
 Structure written by MMmdl.
 44 44  0  0  0  0  0  0  0  0  1 V2000
  144.9409  142.5068  155.8268 C   0  0  0  0  0  0  0  0  0  0  0  0
  145.7695  143.2580  154.7737 C   0  0  0  0  0  0  0  0  0  0  0  0
  146.5461  142.3437  153.8080 C   0  0  0  0  0  0  0  0  0  0  0  0
  147.1267  141.1954  154.4970 N   0  0  0  0  0  0  0  0  0  0  0  0
  148.4144  140.8225  154.4371 C   0  0  0  0  0  0  0  0  0  0  0  0
  149.2501  141.3844  153.7271 O   0  0  0  0  0  0  0  0  0  0  0  0
  148.8261  139.6530  155.3459 C   0  0  1  0  0  0  0  0  0  0  0  0
  148.9091  138.3672  154.5056 C   0  0  0  0  0  0  0  0  0  0  0  0
  150.1512  139.9288  155.8967 N   0  0  0  0  0  0  0  0  0  0  0  0
  150.4911  141.0550  156.5441 C   0  0  0  0  0  0  0  0  0  0  0  0
  149.6793  141.9314  156.8445 O   0  0  0  0  0  0  0  0  0  0  0  0
  151.9750  141.2205  156.8970 C   0  0  0  0  0  0  0  0  0  0  0  0
  152.1608  141.7808  158.2437 N   0  0  0  0  0  0  0  0  0  0  0  0
  151.4585  142.9477  158.4734 N   0  0  0  0  0  0  0  0  0  0  0  0
  151.5664  143.5890  159.5905 C   0  0  0  0  0  0  0  0  0  0  0  0
  150.7610  144.8532  159.7245 C   0  0  0  0  0  0  0  0  0  0  0  0
  152.4406  143.0734  160.6395 C   0  0  0  0  0  0  0  0  0  0  0  0
  152.5350  143.8758  161.9298 C   0  0  0  0  0  0  0  0  0  0  0  0
  153.1139  141.9190  160.4074 C   0  0  0  0  0  0  0  0  0  0  0  0
  153.9988  141.3437  161.3682 C   0  0  0  0  0  0  0  0  0  0  0  0
  154.7309  140.8914  162.1425 N   0  0  0  0  0  0  0  0  0  0  0  0
  152.9886  141.1818  159.1486 C   0  0  0  0  0  0  0  0  0  0  0  0
  153.5762  140.1250  158.9112 O   0  0  0  0  0  0  0  0  0  0  0  0
  144.4767  143.2031  156.5254 H   0  0  0  0  0  0  0  0  0  0  0  0
  145.5621  141.8212  156.4036 H   0  0  0  0  0  0  0  0  0  0  0  0
  144.1413  141.9276  155.3659 H   0  0  0  0  0  0  0  0  0  0  0  0
  145.1130  143.9170  154.2042 H   0  0  0  0  0  0  0  0  0  0  0  0
  146.4796  143.9086  155.2852 H   0  0  0  0  0  0  0  0  0  0  0  0
  145.8666  141.9648  153.0445 H   0  0  0  0  0  0  0  0  0  0  0  0
  147.3079  142.9166  153.2767 H   0  0  0  0  0  0  0  0  0  0  0  0
  146.5148  140.6777  155.1112 H   0  0  0  0  0  0  0  0  0  0  0  0
  148.1009  139.5157  156.1508 H   0  0  0  0  0  0  0  0  0  0  0  0
  147.9457  138.1291  154.0529 H   0  0  0  0  0  0  0  0  0  0  0  0
  149.1948  137.5168  155.1254 H   0  0  0  0  0  0  0  0  0  0  0  0
  149.6437  138.4483  153.7028 H   0  0  0  0  0  0  0  0  0  0  0  0
  150.8780  139.2584  155.6926 H   0  0  0  0  0  0  0  0  0  0  0  0
  152.4541  140.2431  156.8175 H   0  0  0  0  0  0  0  0  0  0  0  0
  152.4711  141.8545  156.1592 H   0  0  0  0  0  0  0  0  0  0  0  0
  150.0288  144.7617  160.5267 H   0  0  0  0  0  0  0  0  0  0  0  0
  150.2179  145.0890  158.8079 H   0  0  0  0  0  0  0  0  0  0  0  0
  151.4068  145.7021  159.9499 H   0  0  0  0  0  0  0  0  0  0  0  0
  153.1565  143.3836  162.6771 H   0  0  0  0  0  0  0  0  0  0  0  0
  151.5472  144.0158  162.3698 H   0  0  0  0  0  0  0  0  0  0  0  0
  152.9682  144.8578  161.7367 H   0  0  0  0  0  0  0  0  0  0  0  0
  1  2  1  0  0  0  0
  1 24  1  0  0  0  0
  1 25  1  0  0  0  0
  1 26  1  0  0  0  0
  2  3  1  0  0  0  0
  2 27  1  0  0  0  0
  2 28  1  0  0  0  0
  3  4  1  0  0  0  0
  3 29  1  0  0  0  0
  3 30  1  0  0  0  0
  4  5  1  0  0  0  0
  4 31  1  0  0  0  0
  5  6  2  0  0  0  0
  5  7  1  0  0  0  0
  7  8  1  0  0  0  0
  7  9  1  0  0  0  0
  7 32  1  0  0  0  0
  8 33  1  0  0  0  0
  8 34  1  0  0  0  0
  8 35  1  0  0  0  0
  9 10  1  0  0  0  0
  9 36  1  0  0  0  0
 10 11  2  0  0  0  0
 10 12  1  0  0  0  0
 12 13  1  0  0  0  0
 12 37  1  0  0  0  0
 12 38  1  0  0  0  0
 13 22  1  0  0  0  0
 13 14  1  0  0  0  0
 14 15  2  0  0  0  0
 15 16  1  0  0  0  0
 15 17  1  0  0  0  0
 16 39  1  0  0  0  0
 16 40  1  0  0  0  0
 16 41  1  0  0  0  0
 17 18  1  0  0  0  0
 17 19  2  0  0  0  0
 18 42  1  0  0  0  0
 18 43  1  0  0  0  0
 18 44  1  0  0  0  0
 19 20  1  0  0  0  0
 19 22  1  0  0  0  0
 20 21  3  0  0  0  0
 22 23  2  0  0  0  0
M  END
> <s_m_source_file>
AV-unprocessed.smi

> <i_m_source_file_index>
483

> <i_lp_mmshare_version>
43012

> <i_f3d_flags>
0

> <s_epik_input>
W0NIM11bQ0gyXVtDSDJdW05IXUMoPU8pW0NASF0oW0NIM10pW05IXUMoPU8pW0NIMl1uMW5jKFtDSDNdKWMoW0NIM10pYyhDI04pYzE9Tw==

> <s_epik_cmdline>
J2VwaWtfcHl0aG9uJywgJy1waCcsICc3LjAnLCAnLXRuJywgJzgnLCAnLW1hJywgJzIwMCcsICctbWV0YWxfYmluZGluZycsICctaW1hZScsICc8aW5maWxlLm1hZT4nLCAnLW9tYWUnLCAnPG91dGZpbGUubWFlPic=

> <r_lp_tautomer_probability>
1

> <r_epik_Ionization_Penalty>
5.96698e-08

> <r_epik_Ionization_Penalty_Charging>
1.88177e-11

> <r_epik_Ionization_Penalty_Neutral>
5.9651e-08

> <r_epik_State_Penalty>
-0

> <r_epik_Charging_Adjusted_Penalty>
1.88177e-11

> <i_epik_Tot_Q>
0

> <i_epik_Tot_abs_Q>
0

> <r_epik_Metal_State_Penalty>
-0

> <b_epik_Metal_Only>
0

> <s_lp_Force_Field>
OPLS_2005

> <r_lp_Energy>
18.0289

> <b_lp_Chiralities_Consistent>
1

> <s_lp_Variant>
AV-unprocessed.smi:483-2

> <Gold.Version>
5.8.1

> <Gold.Id.Protein>
6NUR|6NUR_protein|mol2

> <Gold.PLP.Fitness>
46.0941

> <Gold.PLP.PLP>
-42.7665

> <Gold.PLP.part.hbond>
-3.9700

> <Gold.PLP.part.metal>
0.0000

> <Gold.PLP.part.buried>
-9.0085

> <Gold.PLP.part.nonpolar>
-31.5557

> <Gold.PLP.part.repulsive>
2.0381

> <Gold.PLP.ligand.clash>
0.0000

> <Gold.PLP.ligand.torsion>
1.0825

> <Gold.PLP.Chemscore.Hbond>
1.8080

> <Gold.PLP.Chemscore.CHOScore>
0.0000

> <Gold.PLP.Chemscore.Metal>
0.0000

> <Gold.Chemscore.Hbonds>
donor molecule, donor type, donor heavy atom, donor atom, acceptor molecule, acceptor atom, score
      P1  H  7989  7998       L1     6  0.01
      P1  H  7997  8009       L1    23  0.81
      P1  H  8011  8017       L1     6  0.83

> <Gold.PLP.Chemscore.Internal.Correction>
0.0687

> <Gold.Rescore>
     Score         DG    S(hbond)    S(metal)    S(lipo)     H(rot)  DE(clash)    DE(int)     intcor
      9.97     -14.82       1.84        0.00      79.43       2.38       1.52       3.34       ----

> <Gold.Chemscore.Fitness>
9.9691

> <Gold.Chemscore.DG>
-14.8230

> <Gold.Chemscore.ZeroCoef>
-5.4800

> <Gold.Chemscore.Hbond>
1.8379

> <Gold.Chemscore.Metal>
0.0000

> <Gold.Chemscore.Lipo>
79.4308

> <Gold.Chemscore.Internal_Hbond>
0.0000

> <Gold.Chemscore.DEClash>
1.5156

> <Gold.Chemscore.DEInternal>
3.3383

> <Gold.Chemscore.Rot>
2.3785

> <Gold.Chemscore.Internal.Correction>
   9.000000E+99

> <Gold.Chemscore.Hbonds>
donor molecule, donor type, donor heavy atom, donor atom, acceptor molecule, acceptor atom, score
      P1  H  7989  7998       L1     6  0.02
      P1  H  7997  8009       L1    23  0.72
      P1  H  8011  8017       L1     6  0.81

> <Gold.Chemscore.Hbond.Weighted>
-6.1386

> <Gold.Chemscore.Metal.Weighted>
-0.0000

> <Gold.Chemscore.Lipo.Weighted>
-9.2934

> <Gold.Chemscore.Internal_Hbond.Weighted>
0.0000

> <Gold.Chemscore.DEClash.Weighted>
1.5156

> <Gold.Chemscore.DEInternal.Weighted>
3.3383

> <Gold.Chemscore.Rot.Weighted>
6.0890

> <Gold.Chemscore.Internal.Correction.Weighted>
   9.000000E+99

> <Gold.Protein.RotatedTorsions>
[ 6907 6896 6895 6894 ] final  172.23 input  -60.11 | X-H torsion
[ 7974 7965 7964 7962 ] final  -87.65 input  175.53 | X-H torsion
[ 8008 7997 7996 7995 ] final  144.86 input   59.86 | X-H torsion
[ 10167 10162 10161 10158 ] final   70.19 input  -65.29 | X-H torsion
[ 10718 10713 10712 10709 ] final   -4.76 input   66.30 | X-H torsion
[ 10763 10752 10751 10750 ] final  -71.31 input  -60.55 | X-H torsion
[ 11005 11000 10999 10996 ] final   39.99 input  -57.11 | X-H torsion

> <Gold.Protein.ActiveResidues>
 VAL166  LYS551  ARG553  GLY616  TRP617  ASP618  TYR619  PRO620  LYS621  CYS622 
 ASP623  PHE694  ASN695  SER759  ASP760  ASP761  ALA762  ILE779  LEU786  VAL792 
 PHE793  MET794  SER795  GLU796  ALA797  LYS798  CYS799  TRP800  GLU811  SER814 

> <Gold.Protein.RotatedAtoms>
  151.7876  133.3356  159.3489 H   0  0  0  0  0  0  0  0  0  0  0  0  # atno 6907 bound_to 6896
  150.7403  134.5873  159.5979 H   0  0  0  0  0  0  0  0  0  0  0  0  # atno 6908 bound_to 6896
  152.3233  134.7354  160.0359 H   0  0  0  0  0  0  0  0  0  0  0  0  # atno 6909 bound_to 6896
  145.4637  140.9560  143.1955 H   0  0  0  0  0  0  0  0  0  0  0  0  # atno 7974 bound_to 7965
  156.2898  140.2224  156.5122 H   0  0  0  0  0  0  0  0  0  0  0  0  # atno 8008 bound_to 7997
  154.7599  140.0474  157.0986 H   0  0  0  0  0  0  0  0  0  0  0  0  # atno 8009 bound_to 7997
  155.0004  140.3101  155.4873 H   0  0  0  0  0  0  0  0  0  0  0  0  # atno 8010 bound_to 7997
  140.0596  144.5243  150.7303 H   0  0  0  0  0  0  0  0  0  0  0  0  # atno 10167 bound_to 10162
  156.7565  130.5256  149.5793 H   0  0  0  0  0  0  0  0  0  0  0  0  # atno 10718 bound_to 10713
  154.4300  135.5966  153.6062 H   0  0  0  0  0  0  0  0  0  0  0  0  # atno 10763 bound_to 10752
  152.9798  135.5973  154.3851 H   0  0  0  0  0  0  0  0  0  0  0  0  # atno 10764 bound_to 10752
  154.3688  135.2841  155.2257 H   0  0  0  0  0  0  0  0  0  0  0  0  # atno 10765 bound_to 10752
  140.1974  134.3912  155.8114 H   0  0  0  0  0  0  0  0  0  0  0  0  # atno 11005 bound_to 11000
  144.7987  139.6183  143.7081 LP  0  0  0  0  0  0  0  0  0  0  0  0  # atno 17320 bound_to 7965
  146.2437  139.6053  142.9474 LP  0  0  0  0  0  0  0  0  0  0  0  0  # atno 17321 bound_to 7965
  140.7178  143.2560  151.4378 LP  0  0  0  0  0  0  0  0  0  0  0  0  # atno 17342 bound_to 10162
  139.5902  144.1516  152.2078 LP  0  0  0  0  0  0  0  0  0  0  0  0  # atno 17343 bound_to 10162
  156.1367  130.6216  151.0410 LP  0  0  0  0  0  0  0  0  0  0  0  0  # atno 17370 bound_to 10713
  157.6754  131.0851  150.7509 LP  0  0  0  0  0  0  0  0  0  0  0  0  # atno 17371 bound_to 10713
  141.2227  133.7077  156.8199 LP  0  0  0  0  0  0  0  0  0  0  0  0  # atno 17394 bound_to 11000
  140.2092  134.8840  157.3255 LP  0  0  0  0  0  0  0  0  0  0  0  0  # atno 17395 bound_to 11000

$$$$
