AV-unprocessed.smi:2226|AV-procd|sdf|9018|dock2
  -GOLD-   2272012223D 1   1.00000     0.00000
 Structure written by MMmdl.
 39 41  0  0  0  0  0  0  0  0  3 V2000
  145.5023  142.8599  154.4234 C   0  0  0  0  0  0  0  0  0  0  0  0
  145.9397  141.4705  154.1486 N   0  3  2  0  0  0  0  0  0  0  0  0
  146.0667  140.6092  155.3492 C   0  0  1  0  0  0  0  0  0  0  0  0
  146.0943  139.1286  154.9026 C   0  0  0  0  0  0  0  0  0  0  0  0
  147.1661  138.8207  153.8375 C   0  0  0  0  0  0  0  0  0  0  0  0
  147.2452  139.9129  152.7513 C   0  0  0  0  0  0  0  0  0  0  0  0
  147.1550  141.3540  153.3062 C   0  0  2  0  0  0  0  0  0  0  0  0
  148.4146  141.8355  154.0674 C   0  0  0  0  0  0  0  0  0  0  0  0
  148.6039  141.2046  155.4659 C   0  0  1  0  0  0  0  0  0  0  0  0
  149.5258  142.0348  156.2380 N   0  0  0  0  0  0  0  0  0  0  0  0
  150.4554  141.5965  157.1002 C   0  0  0  0  0  0  0  0  0  0  0  0
  150.5781  140.3861  157.2974 O   0  0  0  0  0  0  0  0  0  0  0  0
  151.1688  142.6000  157.6677 N   0  5  0  0  0  0  0  0  0  0  0  0
  151.9088  142.4710  158.7898 C   0  0  0  0  0  0  0  0  0  0  0  0
  152.3857  143.4182  159.6074 N   0  0  0  0  0  0  0  0  0  0  0  0
  153.0783  142.7598  160.6105 C   0  0  0  0  0  0  0  0  0  0  0  0
  152.9953  141.4187  160.3607 C   0  0  0  0  0  0  0  0  0  0  0  0
  152.2643  141.2270  159.2214 O   0  0  0  0  0  0  0  0  0  0  0  0
  147.2650  141.0432  156.2286 C   0  0  0  0  0  0  0  0  0  0  0  0
  146.2284  143.4135  155.0184 H   0  0  0  0  0  0  0  0  0  0  0  0
  144.5548  142.8589  154.9631 H   0  0  0  0  0  0  0  0  0  0  0  0
  145.3486  143.4010  153.4894 H   0  0  0  0  0  0  0  0  0  0  0  0
  145.1630  140.7343  155.9474 H   0  0  0  0  0  0  0  0  0  0  0  0
  146.2231  138.4726  155.7641 H   0  0  0  0  0  0  0  0  0  0  0  0
  145.1179  138.8808  154.4836 H   0  0  0  0  0  0  0  0  0  0  0  0
  148.1363  138.6807  154.3064 H   0  0  0  0  0  0  0  0  0  0  0  0
  146.9485  137.8595  153.3707 H   0  0  0  0  0  0  0  0  0  0  0  0
  148.1525  139.7878  152.1596 H   0  0  0  0  0  0  0  0  0  0  0  0
  146.4162  139.7628  152.0585 H   0  0  0  0  0  0  0  0  0  0  0  0
  147.0267  142.0096  152.4438 H   0  0  0  0  0  0  0  0  0  0  0  0
  149.3051  141.6631  153.4618 H   0  0  0  0  0  0  0  0  0  0  0  0
  148.3490  142.9191  154.1751 H   0  0  0  0  0  0  0  0  0  0  0  0
  149.0732  140.2312  155.3445 H   0  0  0  0  0  0  0  0  0  0  0  0
  149.4621  143.0333  156.1031 H   0  0  0  0  0  0  0  0  0  0  0  0
  153.5684  143.2917  161.4123 H   0  0  0  0  0  0  0  0  0  0  0  0
  153.3699  140.5354  160.8557 H   0  0  0  0  0  0  0  0  0  0  0  0
  147.0122  141.9945  156.6986 H   0  0  0  0  0  0  0  0  0  0  0  0
  147.3900  140.3421  157.0544 H   0  0  0  0  0  0  0  0  0  0  0  0
  145.1904  141.0691  153.6032 H   0  0  0  0  0  0  0  0  0  0  0  0
  1  2  1  0  0  0  0
  1 20  1  0  0  0  0
  1 21  1  0  0  0  0
  1 22  1  0  0  0  0
  2  7  1  0  0  0  0
  2  3  1  0  0  0  0
  2 39  1  0  0  0  0
  3 19  1  0  0  0  0
  3  4  1  0  0  0  0
  3 23  1  0  0  0  0
  4  5  1  0  0  0  0
  4 24  1  0  0  0  0
  4 25  1  0  0  0  0
  5  6  1  0  0  0  0
  5 26  1  0  0  0  0
  5 27  1  0  0  0  0
  6  7  1  0  0  0  0
  6 28  1  0  0  0  0
  6 29  1  0  0  0  0
  7  8  1  0  0  0  0
  7 30  1  0  0  0  0
  8  9  1  0  0  0  0
  8 31  1  0  0  0  0
  8 32  1  0  0  0  0
  9 10  1  0  0  0  0
  9 19  1  0  0  0  0
  9 33  1  0  0  0  0
 10 34  1  0  0  0  0
 10 11  1  0  0  0  0
 11 13  1  0  0  0  0
 11 12  2  0  0  0  0
 13 14  1  0  0  0  0
 14 18  1  0  0  0  0
 14 15  2  0  0  0  0
 15 16  1  0  0  0  0
 16 35  1  0  0  0  0
 16 17  2  0  0  0  0
 17 36  1  0  0  0  0
 17 18  1  0  0  0  0
 19 37  1  0  0  0  0
 19 38  1  0  0  0  0
M  CHG  1   2   1
M  CHG  1  13  -1
M  END
> <s_m_source_file>
AV-unprocessed.smi

> <i_m_source_file_index>
2226

> <i_lp_mmshare_version>
43012

> <i_f3d_flags>
0

> <s_epik_input>
W0NIMl0xW0NIMl1bQ0gyXVtDQEhdKE4oW0NIM10pW0NIXTEyKVtDSDJdW0NASF0oW0NIMl0yKVtOSF1DKD1PKVtOSF1jM25bY0hdW2NIXW8z

> <s_epik_cmdline>
J2VwaWtfcHl0aG9uJywgJy1waCcsICc3LjAnLCAnLXRuJywgJzgnLCAnLW1hJywgJzIwMCcsICctbWV0YWxfYmluZGluZycsICctaW1hZScsICc8aW5maWxlLm1hZT4nLCAnLW9tYWUnLCAnPG91dGZpbGUubWFlPic=

> <r_lp_tautomer_probability>
0.107061

> <r_epik_Ionization_Penalty>
10.5612

> <r_epik_Ionization_Penalty_Charging>
7.48913

> <r_epik_Ionization_Penalty_Neutral>
3.07202

> <r_epik_State_Penalty>
5.6431

> <r_epik_Charging_Adjusted_Penalty>
13.1322

> <i_epik_Tot_Q>
0

> <i_epik_Tot_abs_Q>
2

> <r_epik_Metal_State_Penalty>
1.58163

> <b_epik_Metal_Only>
1

> <s_lp_Force_Field>
OPLS_2005

> <r_lp_Energy>
28.9751

> <b_lp_Chiralities_Consistent>
1

> <s_lp_Variant>
AV-unprocessed.smi:2226-18

> <Gold.Version>
5.8.1

> <Gold.Id.Protein>
6NUR|6NUR_protein|mol2

> <Gold.PLP.Fitness>
37.5139

> <Gold.PLP.PLP>
-29.4640

> <Gold.PLP.part.hbond>
-2.0000

> <Gold.PLP.part.metal>
0.0000

> <Gold.PLP.part.buried>
-3.6140

> <Gold.PLP.part.nonpolar>
-23.2702

> <Gold.PLP.part.repulsive>
0.1501

> <Gold.PLP.ligand.clash>
0.0000

> <Gold.PLP.ligand.torsion>
0.4806

> <Gold.PLP.Chemscore.Hbond>
3.0000

> <Gold.PLP.Chemscore.CHOScore>
0.0000

> <Gold.PLP.Chemscore.Metal>
0.0000

> <Gold.Chemscore.Hbonds>
donor molecule, donor type, donor heavy atom, donor atom, acceptor molecule, acceptor atom, score
      L1  H     2    39       P1 10175  2.00
      L1  H    10    34       P1  8028  1.00

> <Gold.PLP.Chemscore.Internal.Correction>
0.0112

> <Gold.Rescore>
     Score         DG    S(hbond)    S(metal)    S(lipo)     H(rot)  DE(clash)    DE(int)     intcor
     14.66     -16.97       1.96        0.00      64.23       1.00       0.29       2.02       ----

> <Gold.Chemscore.Fitness>
14.6631

> <Gold.Chemscore.DG>
-16.9743

> <Gold.Chemscore.ZeroCoef>
-5.4800

> <Gold.Chemscore.Hbond>
1.9581

> <Gold.Chemscore.Metal>
0.0000

> <Gold.Chemscore.Lipo>
64.2256

> <Gold.Chemscore.Internal_Hbond>
0.0000

> <Gold.Chemscore.DEClash>
0.2874

> <Gold.Chemscore.DEInternal>
2.0239

> <Gold.Chemscore.Rot>
1.0000

> <Gold.Chemscore.Internal.Correction>
   9.000000E+99

> <Gold.Chemscore.Hbonds>
donor molecule, donor type, donor heavy atom, donor atom, acceptor molecule, acceptor atom, score
      L1  H     2    39       P1 10175  0.60
      L1  H    10    34       P1  8028  1.00

> <Gold.Chemscore.Hbond.Weighted>
-6.5399

> <Gold.Chemscore.Metal.Weighted>
-0.0000

> <Gold.Chemscore.Lipo.Weighted>
-7.5144

> <Gold.Chemscore.Internal_Hbond.Weighted>
0.0000

> <Gold.Chemscore.DEClash.Weighted>
0.2874

> <Gold.Chemscore.DEInternal.Weighted>
2.0239

> <Gold.Chemscore.Rot.Weighted>
2.5600

> <Gold.Chemscore.Internal.Correction.Weighted>
   9.000000E+99

> <Gold.Protein.RotatedTorsions>
[ 6907 6896 6895 6894 ] final   51.99 input  -60.11 | X-H torsion
[ 7974 7965 7964 7962 ] final   59.85 input  175.53 | X-H torsion
[ 8008 7997 7996 7995 ] final  -60.85 input   59.86 | X-H torsion
[ 10167 10162 10161 10158 ] final  -62.68 input  -65.29 | X-H torsion
[ 10718 10713 10712 10709 ] final  -64.36 input   66.30 | X-H torsion
[ 10763 10752 10751 10750 ] final  -13.66 input  -60.55 | X-H torsion
[ 11005 11000 10999 10996 ] final  -96.23 input  -57.11 | X-H torsion

> <Gold.Protein.ActiveResidues>
 VAL166  LYS551  ARG553  GLY616  TRP617  ASP618  TYR619  PRO620  LYS621  CYS622 
 ASP623  PHE694  ASN695  SER759  ASP760  ASP761  ALA762  ILE779  LEU786  VAL792 
 PHE793  MET794  SER795  GLU796  ALA797  LYS798  CYS799  TRP800  GLU811  SER814 

> <Gold.Protein.RotatedAtoms>
  152.3186  134.7409  160.0319 H   0  0  0  0  0  0  0  0  0  0  0  0  # atno 6907 bound_to 6896
  151.7865  133.3349  159.3495 H   0  0  0  0  0  0  0  0  0  0  0  0  # atno 6908 bound_to 6896
  150.7357  134.5813  159.5984 H   0  0  0  0  0  0  0  0  0  0  0  0  # atno 6909 bound_to 6896
  145.9025  139.3592  143.0584 H   0  0  0  0  0  0  0  0  0  0  0  0  # atno 7974 bound_to 7965
  154.4418  140.1030  156.6338 H   0  0  0  0  0  0  0  0  0  0  0  0  # atno 8008 bound_to 7997
  155.5576  140.3487  155.4465 H   0  0  0  0  0  0  0  0  0  0  0  0  # atno 8009 bound_to 7997
  156.0483  140.1298  157.0068 H   0  0  0  0  0  0  0  0  0  0  0  0  # atno 8010 bound_to 7997
  140.5922  143.2344  151.6114 H   0  0  0  0  0  0  0  0  0  0  0  0  # atno 10167 bound_to 10162
  156.0734  130.4232  150.1409 H   0  0  0  0  0  0  0  0  0  0  0  0  # atno 10718 bound_to 10713
  153.5166  135.7016  153.5753 H   0  0  0  0  0  0  0  0  0  0  0  0  # atno 10763 bound_to 10752
  153.3820  135.3918  155.1863 H   0  0  0  0  0  0  0  0  0  0  0  0  # atno 10764 bound_to 10752
  154.8698  135.3837  154.4651 H   0  0  0  0  0  0  0  0  0  0  0  0  # atno 10765 bound_to 10752
  141.1418  133.8083  157.0543 H   0  0  0  0  0  0  0  0  0  0  0  0  # atno 11005 bound_to 11000
  145.8773  140.9384  143.0620 LP  0  0  0  0  0  0  0  0  0  0  0  0  # atno 17320 bound_to 7965
  144.6737  140.0733  143.7472 LP  0  0  0  0  0  0  0  0  0  0  0  0  # atno 17321 bound_to 7965
  139.5235  144.3131  152.0975 LP  0  0  0  0  0  0  0  0  0  0  0  0  # atno 17342 bound_to 10162
  140.2298  144.4380  150.6305 LP  0  0  0  0  0  0  0  0  0  0  0  0  # atno 17343 bound_to 10162
  156.9456  130.9758  151.3508 LP  0  0  0  0  0  0  0  0  0  0  0  0  # atno 17370 bound_to 10713
  157.5816  130.8381  149.8531 LP  0  0  0  0  0  0  0  0  0  0  0  0  # atno 17371 bound_to 10713
  140.0611  134.9754  157.1307 LP  0  0  0  0  0  0  0  0  0  0  0  0  # atno 17394 bound_to 11000
  140.3846  134.2250  155.7169 LP  0  0  0  0  0  0  0  0  0  0  0  0  # atno 17395 bound_to 11000

$$$$
