AV-unprocessed.smi:2710|AV-procd|sdf|10468|dock4
  -GOLD-   2272014503D 1   1.00000     0.00000
 Structure written by MMmdl.
 53 54  0  0  0  0  0  0  0  0  2 V2000
  146.9601  132.6231  152.0391 C   0  0  0  0  0  0  0  0  0  0  0  0
  148.1104  132.8413  153.0333 C   0  0  0  0  0  0  0  0  0  0  0  0
  148.1500  134.2191  153.5935 N   0  3  2  0  0  0  0  0  0  0  0  0
  149.2009  134.3690  154.6356 C   0  0  0  0  0  0  0  0  0  0  0  0
  149.3790  135.8393  155.0479 C   0  0  0  0  0  0  0  0  0  0  0  0
  148.0531  136.4467  155.5270 C   0  0  1  0  0  0  0  0  0  0  0  0
  148.2374  137.8605  155.8425 N   0  0  0  0  0  0  0  0  0  0  0  0
  149.2094  138.3542  156.6236 C   0  0  0  0  0  0  0  0  0  0  0  0
  150.0605  137.6518  157.1677 O   0  0  0  0  0  0  0  0  0  0  0  0
  149.1255  139.6924  156.7146 N   0  0  0  0  0  0  0  0  0  0  0  0
  149.9565  140.5919  157.4369 C   0  0  0  0  0  0  0  0  0  0  0  0
  150.6481  140.1144  158.5682 C   0  0  0  0  0  0  0  0  0  0  0  0
  151.4619  140.9055  159.2977 N   0  0  0  0  0  0  0  0  0  0  0  0
  151.5759  142.1881  158.9291 C   0  0  0  0  0  0  0  0  0  0  0  0
  152.6119  143.0452  159.6777 C   0  0  0  0  0  0  0  0  0  0  0  0
  152.1708  143.3018  161.1378 C   0  0  0  0  0  0  0  0  0  0  0  0
  152.7905  144.3898  158.9486 C   0  0  0  0  0  0  0  0  0  0  0  0
  153.9754  142.3202  159.7652 C   0  0  0  0  0  0  0  0  0  0  0  0
  151.0051  142.7292  157.8449 N   0  0  0  0  0  0  0  0  0  0  0  0
  150.1872  141.9492  157.1062 C   0  0  0  0  0  0  0  0  0  0  0  0
  146.9836  136.2608  154.4339 C   0  0  0  0  0  0  0  0  0  0  0  0
  146.8286  134.7847  154.0108 C   0  0  2  0  0  0  0  0  0  0  0  0
  146.1046  133.9449  155.0855 C   0  0  0  0  0  0  0  0  0  0  0  0
  147.0497  131.6477  151.5600 H   0  0  0  0  0  0  0  0  0  0  0  0
  146.9683  133.3784  151.2526 H   0  0  0  0  0  0  0  0  0  0  0  0
  145.9863  132.6498  152.5276 H   0  0  0  0  0  0  0  0  0  0  0  0
  148.0756  132.0994  153.8312 H   0  0  0  0  0  0  0  0  0  0  0  0
  149.0444  132.6607  152.4997 H   0  0  0  0  0  0  0  0  0  0  0  0
  148.9575  133.7566  155.5045 H   0  0  0  0  0  0  0  0  0  0  0  0
  150.1512  133.9958  154.2521 H   0  0  0  0  0  0  0  0  0  0  0  0
  150.1302  135.9121  155.8354 H   0  0  0  0  0  0  0  0  0  0  0  0
  149.7638  136.4083  154.2002 H   0  0  0  0  0  0  0  0  0  0  0  0
  147.7438  135.9237  156.4337 H   0  0  0  0  0  0  0  0  0  0  0  0
  147.5845  138.5106  155.4293 H   0  0  0  0  0  0  0  0  0  0  0  0
  148.3929  140.1270  156.1727 H   0  0  0  0  0  0  0  0  0  0  0  0
  150.5537  139.0874  158.8898 H   0  0  0  0  0  0  0  0  0  0  0  0
  152.9246  143.8677  161.6865 H   0  0  0  0  0  0  0  0  0  0  0  0
  152.0092  142.3660  161.6744 H   0  0  0  0  0  0  0  0  0  0  0  0
  151.2459  143.8774  161.1911 H   0  0  0  0  0  0  0  0  0  0  0  0
  151.8522  144.9437  158.9037 H   0  0  0  0  0  0  0  0  0  0  0  0
  153.1342  144.2419  157.9241 H   0  0  0  0  0  0  0  0  0  0  0  0
  153.5225  145.0216  159.4529 H   0  0  0  0  0  0  0  0  0  0  0  0
  154.6989  142.9026  160.3367 H   0  0  0  0  0  0  0  0  0  0  0  0
  154.4141  142.1540  158.7807 H   0  0  0  0  0  0  0  0  0  0  0  0
  153.8783  141.3496  160.2529 H   0  0  0  0  0  0  0  0  0  0  0  0
  149.7472  142.4293  156.2468 H   0  0  0  0  0  0  0  0  0  0  0  0
  146.0232  136.6529  154.7714 H   0  0  0  0  0  0  0  0  0  0  0  0
  147.2578  136.8529  153.5590 H   0  0  0  0  0  0  0  0  0  0  0  0
  146.1833  134.7966  153.1331 H   0  0  0  0  0  0  0  0  0  0  0  0
  145.1627  134.4150  155.3695 H   0  0  0  0  0  0  0  0  0  0  0  0
  146.6949  133.8324  155.9942 H   0  0  0  0  0  0  0  0  0  0  0  0
  145.8577  132.9476  154.7226 H   0  0  0  0  0  0  0  0  0  0  0  0
  148.4574  134.8029  152.8287 H   0  0  0  0  0  0  0  0  0  0  0  0
  1  2  1  0  0  0  0
  1 24  1  0  0  0  0
  1 25  1  0  0  0  0
  1 26  1  0  0  0  0
  2  3  1  0  0  0  0
  2 27  1  0  0  0  0
  2 28  1  0  0  0  0
  3 22  1  0  0  0  0
  3  4  1  0  0  0  0
  3 53  1  0  0  0  0
  4  5  1  0  0  0  0
  4 29  1  0  0  0  0
  4 30  1  0  0  0  0
  5  6  1  0  0  0  0
  5 31  1  0  0  0  0
  5 32  1  0  0  0  0
  6  7  1  0  0  0  0
  6 21  1  0  0  0  0
  6 33  1  0  0  0  0
  7  8  1  0  0  0  0
  7 34  1  0  0  0  0
  8  9  2  0  0  0  0
  8 10  1  0  0  0  0
 10 11  1  0  0  0  0
 10 35  1  0  0  0  0
 11 20  1  0  0  0  0
 11 12  2  0  0  0  0
 12 13  1  0  0  0  0
 12 36  1  0  0  0  0
 13 14  2  0  0  0  0
 14 15  1  0  0  0  0
 14 19  1  0  0  0  0
 15 16  1  0  0  0  0
 15 17  1  0  0  0  0
 15 18  1  0  0  0  0
 16 37  1  0  0  0  0
 16 38  1  0  0  0  0
 16 39  1  0  0  0  0
 17 40  1  0  0  0  0
 17 41  1  0  0  0  0
 17 42  1  0  0  0  0
 18 43  1  0  0  0  0
 18 44  1  0  0  0  0
 18 45  1  0  0  0  0
 19 20  2  0  0  0  0
 20 46  1  0  0  0  0
 21 22  1  0  0  0  0
 21 47  1  0  0  0  0
 21 48  1  0  0  0  0
 22 23  1  0  0  0  0
 22 49  1  0  0  0  0
 23 50  1  0  0  0  0
 23 51  1  0  0  0  0
 23 52  1  0  0  0  0
M  CHG  1   3   1
M  END
> <s_m_source_file>
AV-unprocessed.smi

> <i_m_source_file_index>
2710

> <i_lp_mmshare_version>
43012

> <i_f3d_flags>
0

> <s_epik_input>
W0NIM11bQ0gyXU4xW0NIMl1bQ0gyXVtDQEhdKFtDSDJdW0NASF0xW0NIM10pW05IXUMoPU8pW05IXWMyW2NIXW5jKEMoW0NIM10pKFtDSDNdKVtDSDNdKW5bY0hdMg==

> <s_epik_cmdline>
J2VwaWtfcHl0aG9uJywgJy1waCcsICc3LjAnLCAnLXRuJywgJzgnLCAnLW1hJywgJzIwMCcsICctbWV0YWxfYmluZGluZycsICctaW1hZScsICc8aW5maWxlLm1hZT4nLCAnLW9tYWUnLCAnPG91dGZpbGUubWFlPic=

> <r_lp_tautomer_probability>
1

> <r_epik_Ionization_Penalty>
0.00396003

> <r_epik_Ionization_Penalty_Charging>
0.0039379

> <r_epik_Ionization_Penalty_Neutral>
2.21316e-05

> <r_epik_State_Penalty>
0.00281651

> <r_epik_Charging_Adjusted_Penalty>
0.00675441

> <i_epik_Tot_Q>
1

> <i_epik_Tot_abs_Q>
1

> <r_epik_Metal_State_Penalty>
-0

> <b_epik_Metal_Only>
0

> <s_lp_Force_Field>
OPLS_2005

> <r_lp_Energy>
21.0502

> <b_lp_Chiralities_Consistent>
1

> <s_lp_Variant>
AV-unprocessed.smi:2710-5

> <Gold.Version>
5.8.1

> <Gold.Id.Protein>
6NUR|6NUR_protein|mol2

> <Gold.PLP.Fitness>
40.8096

> <Gold.PLP.PLP>
-32.5765

> <Gold.PLP.part.hbond>
-1.0000

> <Gold.PLP.part.metal>
0.0000

> <Gold.PLP.part.buried>
-3.7836

> <Gold.PLP.part.nonpolar>
-27.3425

> <Gold.PLP.part.repulsive>
0.1157

> <Gold.PLP.ligand.clash>
0.0000

> <Gold.PLP.ligand.torsion>
0.4679

> <Gold.PLP.Chemscore.Hbond>
2.0000

> <Gold.PLP.Chemscore.CHOScore>
0.9965

> <Gold.PLP.Chemscore.Metal>
0.0000

> <Gold.Chemscore.Hbonds>
donor molecule, donor type, donor heavy atom, donor atom, acceptor molecule, acceptor atom, score
      L1  H     3    53       P1  7948  2.00
      L1  C    20    46       P1  8028  1.00

> <Gold.PLP.Chemscore.Internal.Correction>
0.1795

> <Gold.Rescore>
     Score         DG    S(hbond)    S(metal)    S(lipo)     H(rot)  DE(clash)    DE(int)     intcor
     12.63     -15.51       0.94        0.00      87.46       1.31       0.12       2.76       ----

> <Gold.Chemscore.Fitness>
12.6316

> <Gold.Chemscore.DG>
-15.5110

> <Gold.Chemscore.ZeroCoef>
-5.4800

> <Gold.Chemscore.Hbond>
0.9422

> <Gold.Chemscore.Metal>
0.0000

> <Gold.Chemscore.Lipo>
87.4602

> <Gold.Chemscore.Internal_Hbond>
0.0000

> <Gold.Chemscore.DEClash>
0.1218

> <Gold.Chemscore.DEInternal>
2.7576

> <Gold.Chemscore.Rot>
1.3081

> <Gold.Chemscore.Internal.Correction>
   9.000000E+99

> <Gold.Chemscore.Hbonds>
donor molecule, donor type, donor heavy atom, donor atom, acceptor molecule, acceptor atom, score
      L1  H     3    53       P1  7948  0.45

> <Gold.Chemscore.Hbond.Weighted>
-3.1470

> <Gold.Chemscore.Metal.Weighted>
-0.0000

> <Gold.Chemscore.Lipo.Weighted>
-10.2328

> <Gold.Chemscore.Internal_Hbond.Weighted>
0.0000

> <Gold.Chemscore.DEClash.Weighted>
0.1218

> <Gold.Chemscore.DEInternal.Weighted>
2.7576

> <Gold.Chemscore.Rot.Weighted>
3.3488

> <Gold.Chemscore.Internal.Correction.Weighted>
   9.000000E+99

> <Gold.Protein.RotatedTorsions>
[ 6907 6896 6895 6894 ] final  161.27 input  -60.11 | X-H torsion
[ 7974 7965 7964 7962 ] final   72.80 input  175.53 | X-H torsion
[ 8008 7997 7996 7995 ] final   15.48 input   59.86 | X-H torsion
[ 10167 10162 10161 10158 ] final   -4.45 input  -65.29 | X-H torsion
[ 10718 10713 10712 10709 ] final -151.76 input   66.30 | X-H torsion
[ 10763 10752 10751 10750 ] final  -26.71 input  -60.55 | X-H torsion
[ 11005 11000 10999 10996 ] final   -4.99 input  -57.11 | X-H torsion

> <Gold.Protein.ActiveResidues>
 VAL166  LYS551  ARG553  GLY616  TRP617  ASP618  TYR619  PRO620  LYS621  CYS622 
 ASP623  PHE694  ASN695  SER759  ASP760  ASP761  ALA762  ILE779  LEU786  VAL792 
 PHE793  MET794  SER795  GLU796  ALA797  LYS798  CYS799  TRP800  GLU811  SER814 

> <Gold.Protein.RotatedAtoms>
  151.9581  133.3686  159.4024 H   0  0  0  0  0  0  0  0  0  0  0  0  # atno 6907 bound_to 6896
  150.6969  134.4270  159.5240 H   0  0  0  0  0  0  0  0  0  0  0  0  # atno 6908 bound_to 6896
  152.1954  134.8635  160.0564 H   0  0  0  0  0  0  0  0  0  0  0  0  # atno 6909 bound_to 6896
  145.7488  139.2751  143.1443 H   0  0  0  0  0  0  0  0  0  0  0  0  # atno 7974 bound_to 7965
  154.8633  140.2947  155.5525 H   0  0  0  0  0  0  0  0  0  0  0  0  # atno 8008 bound_to 7997
  156.3020  140.2474  156.3543 H   0  0  0  0  0  0  0  0  0  0  0  0  # atno 8009 bound_to 7997
  154.8895  140.0395  157.1819 H   0  0  0  0  0  0  0  0  0  0  0  0  # atno 8010 bound_to 7997
  140.6928  143.6422  150.8425 H   0  0  0  0  0  0  0  0  0  0  0  0  # atno 10167 bound_to 10162
  156.4635  130.8224  151.2455 H   0  0  0  0  0  0  0  0  0  0  0  0  # atno 10718 bound_to 10713
  153.7204  135.6945  153.5014 H   0  0  0  0  0  0  0  0  0  0  0  0  # atno 10763 bound_to 10752
  153.2208  135.4370  155.0486 H   0  0  0  0  0  0  0  0  0  0  0  0  # atno 10764 bound_to 10752
  154.8286  135.3460  154.6737 H   0  0  0  0  0  0  0  0  0  0  0  0  # atno 10765 bound_to 10752
  140.6863  133.9110  155.8588 H   0  0  0  0  0  0  0  0  0  0  0  0  # atno 11005 bound_to 11000
  146.0376  140.8196  142.9844 LP  0  0  0  0  0  0  0  0  0  0  0  0  # atno 17320 bound_to 7965
  144.6854  140.2863  143.7285 LP  0  0  0  0  0  0  0  0  0  0  0  0  # atno 17321 bound_to 7965
  140.0137  143.5615  152.2829 LP  0  0  0  0  0  0  0  0  0  0  0  0  # atno 17342 bound_to 10162
  139.6348  144.7649  151.2460 LP  0  0  0  0  0  0  0  0  0  0  0  0  # atno 17343 bound_to 10162
  157.7496  131.0099  150.3287 LP  0  0  0  0  0  0  0  0  0  0  0  0  # atno 17370 bound_to 10713
  156.3692  130.3860  149.7189 LP  0  0  0  0  0  0  0  0  0  0  0  0  # atno 17371 bound_to 10713
  141.0277  134.0799  157.4049 LP  0  0  0  0  0  0  0  0  0  0  0  0  # atno 17394 bound_to 11000
  139.8937  135.0131  156.6910 LP  0  0  0  0  0  0  0  0  0  0  0  0  # atno 17395 bound_to 11000

$$$$
