AV-unprocessed.smi:2103|AV-procd|sdf|8582|dock1
  -GOLD-   2272011313D 1   1.00000     0.00000
 Structure written by MMmdl.
 38 39  0  0  0  0  0  0  0  0  1 V2000
  152.2957  138.5828  154.6178 C   0  0  0  0  0  0  0  0  0  0  0  0
  150.9260  138.1147  154.6530 N   0  0  0  0  0  0  0  0  0  0  0  0
  149.8806  139.0203  154.3487 C   0  0  0  0  0  0  0  0  0  0  0  0
  150.0859  140.1990  154.0575 O   0  0  0  0  0  0  0  0  0  0  0  0
  148.5438  138.4421  154.4167 C   0  0  0  0  0  0  0  0  0  0  0  0
  148.3637  137.1461  154.7531 C   0  0  0  0  0  0  0  0  0  0  0  0
  149.4028  136.2854  155.0562 N   0  0  0  0  0  0  0  0  0  0  0  0
  149.1094  134.8899  155.4089 C   0  0  0  0  0  0  0  0  0  0  0  0
  147.7556  134.3923  154.8822 C   0  0  0  0  0  0  0  0  0  0  0  0
  146.8999  133.9430  155.6461 O   0  0  0  0  0  0  0  0  0  0  0  0
  147.5840  134.4746  153.5543 N   0  0  0  0  0  0  0  0  0  0  0  0
  146.3824  134.0737  152.8284 C   0  0  0  0  0  0  0  0  0  0  0  0
  146.6427  132.8054  151.9876 C   0  0  0  0  0  0  0  0  0  0  0  0
  145.4099  132.4207  151.1535 C   0  0  0  0  0  0  0  0  0  0  0  0
  144.9513  133.5863  150.2635 C   0  0  0  0  0  0  0  0  0  0  0  0
  144.6831  134.8481  151.0983 C   0  0  0  0  0  0  0  0  0  0  0  0
  145.9155  135.2361  151.9311 C   0  0  0  0  0  0  0  0  0  0  0  0
  150.7300  136.7638  155.0153 C   0  0  0  0  0  0  0  0  0  0  0  0
  151.6760  136.0208  155.2892 O   0  0  0  0  0  0  0  0  0  0  0  0
  152.3622  139.5755  154.1736 H   0  0  0  0  0  0  0  0  0  0  0  0
  152.8699  137.8834  154.0070 H   0  0  0  0  0  0  0  0  0  0  0  0
  152.6532  138.5990  155.6486 H   0  0  0  0  0  0  0  0  0  0  0  0
  147.6863  139.0604  154.1946 H   0  0  0  0  0  0  0  0  0  0  0  0
  147.3532  136.7650  154.7858 H   0  0  0  0  0  0  0  0  0  0  0  0
  149.8997  134.2339  155.0398 H   0  0  0  0  0  0  0  0  0  0  0  0
  149.1177  134.7761  156.4940 H   0  0  0  0  0  0  0  0  0  0  0  0
  148.3415  134.8520  153.0036 H   0  0  0  0  0  0  0  0  0  0  0  0
  145.5910  133.8630  153.5504 H   0  0  0  0  0  0  0  0  0  0  0  0
  147.4919  132.9703  151.3230 H   0  0  0  0  0  0  0  0  0  0  0  0
  146.9154  131.9708  152.6343 H   0  0  0  0  0  0  0  0  0  0  0  0
  145.6353  131.5494  150.5380 H   0  0  0  0  0  0  0  0  0  0  0  0
  144.5972  132.1272  151.8191 H   0  0  0  0  0  0  0  0  0  0  0  0
  145.7167  133.7985  149.5159 H   0  0  0  0  0  0  0  0  0  0  0  0
  144.0523  133.3045  149.7148 H   0  0  0  0  0  0  0  0  0  0  0  0
  144.4023  135.6732  150.4433 H   0  0  0  0  0  0  0  0  0  0  0  0
  143.8339  134.6758  151.7607 H   0  0  0  0  0  0  0  0  0  0  0  0
  145.6851  136.1108  152.5405 H   0  0  0  0  0  0  0  0  0  0  0  0
  146.7233  135.5318  151.2599 H   0  0  0  0  0  0  0  0  0  0  0  0
  1  2  1  0  0  0  0
  1 20  1  0  0  0  0
  1 21  1  0  0  0  0
  1 22  1  0  0  0  0
  2 18  1  0  0  0  0
  2  3  1  0  0  0  0
  3  4  2  0  0  0  0
  3  5  1  0  0  0  0
  5  6  2  0  0  0  0
  5 23  1  0  0  0  0
  6  7  1  0  0  0  0
  6 24  1  0  0  0  0
  7  8  1  0  0  0  0
  7 18  1  0  0  0  0
  8  9  1  0  0  0  0
  8 25  1  0  0  0  0
  8 26  1  0  0  0  0
  9 10  2  0  0  0  0
  9 11  1  0  0  0  0
 11 12  1  0  0  0  0
 11 27  1  0  0  0  0
 12 17  1  0  0  0  0
 12 13  1  0  0  0  0
 12 28  1  0  0  0  0
 13 14  1  0  0  0  0
 13 29  1  0  0  0  0
 13 30  1  0  0  0  0
 14 15  1  0  0  0  0
 14 31  1  0  0  0  0
 14 32  1  0  0  0  0
 15 16  1  0  0  0  0
 15 33  1  0  0  0  0
 15 34  1  0  0  0  0
 16 17  1  0  0  0  0
 16 35  1  0  0  0  0
 16 36  1  0  0  0  0
 17 37  1  0  0  0  0
 17 38  1  0  0  0  0
 18 19  2  0  0  0  0
M  END
> <s_m_source_file>
AV-unprocessed.smi

> <i_m_source_file_index>
2103

> <i_lp_mmshare_version>
43012

> <i_f3d_flags>
0

> <s_epik_input>
W0NIM11uMWMoPU8pW2NIXVtjSF1uKGMxPU8pW0NIMl1DKD1PKVtOSF1bQ0hdMltDSDJdW0NIMl1bQ0gyXVtDSDJdW0NIMl0y

> <s_epik_cmdline>
J2VwaWtfcHl0aG9uJywgJy1waCcsICc3LjAnLCAnLXRuJywgJzgnLCAnLW1hJywgJzIwMCcsICctbWV0YWxfYmluZGluZycsICctaW1hZScsICc8aW5maWxlLm1hZT4nLCAnLW9tYWUnLCAnPG91dGZpbGUubWFlPic=

> <r_lp_tautomer_probability>
1

> <r_epik_Ionization_Penalty>
3.18221e-08

> <r_epik_Ionization_Penalty_Charging>
1.27752e-08

> <r_epik_Ionization_Penalty_Neutral>
1.90469e-08

> <r_epik_State_Penalty>
-0

> <r_epik_Charging_Adjusted_Penalty>
1.27752e-08

> <i_epik_Tot_Q>
0

> <i_epik_Tot_abs_Q>
0

> <r_epik_Metal_State_Penalty>
-0

> <b_epik_Metal_Only>
0

> <s_lp_Force_Field>
OPLS_2005

> <r_lp_Energy>
16.4869

> <b_lp_Chiralities_Consistent>
1

> <s_lp_Variant>
AV-unprocessed.smi:2103-1

> <Gold.Version>
5.8.1

> <Gold.Id.Protein>
6NUR|6NUR_protein|mol2

> <Gold.PLP.Fitness>
36.7973

> <Gold.PLP.PLP>
-28.8687

> <Gold.PLP.part.hbond>
-2.9778

> <Gold.PLP.part.metal>
0.0000

> <Gold.PLP.part.buried>
-2.6000

> <Gold.PLP.part.nonpolar>
-24.0934

> <Gold.PLP.part.repulsive>
0.9201

> <Gold.PLP.ligand.clash>
0.0000

> <Gold.PLP.ligand.torsion>
0.4082

> <Gold.PLP.Chemscore.Hbond>
2.9120

> <Gold.PLP.Chemscore.CHOScore>
0.0000

> <Gold.PLP.Chemscore.Metal>
0.0000

> <Gold.Chemscore.Hbonds>
donor molecule, donor type, donor heavy atom, donor atom, acceptor molecule, acceptor atom, score
      L1  H    11    27       P1  7948  0.98
      P1  H  7989  7998       L1     4  0.90
      P1  H 10752 10765       L1    19  0.93

> <Gold.PLP.Chemscore.Internal.Correction>
0.0090

> <Gold.Rescore>
     Score         DG    S(hbond)    S(metal)    S(lipo)     H(rot)  DE(clash)    DE(int)     intcor
     16.27     -16.84       2.86        0.00      49.11       1.54       0.04       0.53       ----

> <Gold.Chemscore.Fitness>
16.2712

> <Gold.Chemscore.DG>
-16.8365

> <Gold.Chemscore.ZeroCoef>
-5.4800

> <Gold.Chemscore.Hbond>
2.8588

> <Gold.Chemscore.Metal>
0.0000

> <Gold.Chemscore.Lipo>
49.1129

> <Gold.Chemscore.Internal_Hbond>
0.0000

> <Gold.Chemscore.DEClash>
0.0354

> <Gold.Chemscore.DEInternal>
0.5299

> <Gold.Chemscore.Rot>
1.5383

> <Gold.Chemscore.Internal.Correction>
   9.000000E+99

> <Gold.Chemscore.Hbonds>
donor molecule, donor type, donor heavy atom, donor atom, acceptor molecule, acceptor atom, score
      L1  H    11    27       P1  7948  0.65
      P1  H  7989  7998       L1     4  0.88
      P1  H 10752 10765       L1    19  0.88

> <Gold.Chemscore.Hbond.Weighted>
-9.5483

> <Gold.Chemscore.Metal.Weighted>
-0.0000

> <Gold.Chemscore.Lipo.Weighted>
-5.7462

> <Gold.Chemscore.Internal_Hbond.Weighted>
0.0000

> <Gold.Chemscore.DEClash.Weighted>
0.0354

> <Gold.Chemscore.DEInternal.Weighted>
0.5299

> <Gold.Chemscore.Rot.Weighted>
3.9380

> <Gold.Chemscore.Internal.Correction.Weighted>
   9.000000E+99

> <Gold.Protein.RotatedTorsions>
[ 6907 6896 6895 6894 ] final -132.07 input  -60.11 | X-H torsion
[ 7974 7965 7964 7962 ] final  -77.44 input  175.53 | X-H torsion
[ 8008 7997 7996 7995 ] final    9.14 input   59.86 | X-H torsion
[ 10167 10162 10161 10158 ] final  131.13 input  -65.29 | X-H torsion
[ 10718 10713 10712 10709 ] final  -63.36 input   66.30 | X-H torsion
[ 10763 10752 10751 10750 ] final -160.37 input  -60.55 | X-H torsion
[ 11005 11000 10999 10996 ] final -137.50 input  -57.11 | X-H torsion

> <Gold.Protein.ActiveResidues>
 VAL166  LYS551  ARG553  GLY616  TRP617  ASP618  TYR619  PRO620  LYS621  CYS622 
 ASP623  PHE694  ASN695  SER759  ASP760  ASP761  ALA762  ILE779  LEU786  VAL792 
 PHE793  MET794  SER795  GLU796  ALA797  LYS798  CYS799  TRP800  GLU811  SER814 

> <Gold.Protein.RotatedAtoms>
  150.9582  133.6474  159.2759 H   0  0  0  0  0  0  0  0  0  0  0  0  # atno 6907 bound_to 6896
  151.3806  135.0938  159.9504 H   0  0  0  0  0  0  0  0  0  0  0  0  # atno 6908 bound_to 6896
  152.5137  133.9117  159.7546 H   0  0  0  0  0  0  0  0  0  0  0  0  # atno 6909 bound_to 6896
  145.5996  140.9411  143.1248 H   0  0  0  0  0  0  0  0  0  0  0  0  # atno 7974 bound_to 7965
  154.7761  140.2810  155.6100 H   0  0  0  0  0  0  0  0  0  0  0  0  # atno 8008 bound_to 7997
  156.2942  140.2632  156.2503 H   0  0  0  0  0  0  0  0  0  0  0  0  # atno 8009 bound_to 7997
  154.9841  140.0374  157.2280 H   0  0  0  0  0  0  0  0  0  0  0  0  # atno 8010 bound_to 7997
  139.5398  144.6719  151.4663 H   0  0  0  0  0  0  0  0  0  0  0  0  # atno 10167 bound_to 10162
  156.0796  130.4220  150.1266 H   0  0  0  0  0  0  0  0  0  0  0  0  # atno 10718 bound_to 10713
  154.7396  135.3065  154.8751 H   0  0  0  0  0  0  0  0  0  0  0  0  # atno 10763 bound_to 10752
  153.9569  135.6757  153.4749 H   0  0  0  0  0  0  0  0  0  0  0  0  # atno 10764 bound_to 10752
  153.0996  135.4918  154.8767 H   0  0  0  0  0  0  0  0  0  0  0  0  # atno 10765 bound_to 10752
  140.8705  134.2056  157.4653 H   0  0  0  0  0  0  0  0  0  0  0  0  # atno 11005 bound_to 11000
  144.7315  139.7710  143.7345 LP  0  0  0  0  0  0  0  0  0  0  0  0  # atno 17320 bound_to 7965
  146.1586  139.4692  143.0003 LP  0  0  0  0  0  0  0  0  0  0  0  0  # atno 17321 bound_to 7965
  140.6622  143.8474  150.6901 LP  0  0  0  0  0  0  0  0  0  0  0  0  # atno 17342 bound_to 10162
  140.1872  143.4066  152.1890 LP  0  0  0  0  0  0  0  0  0  0  0  0  # atno 17343 bound_to 10162
  156.9300  130.9711  151.3534 LP  0  0  0  0  0  0  0  0  0  0  0  0  # atno 17370 bound_to 10713
  157.5907  130.8441  149.8655 LP  0  0  0  0  0  0  0  0  0  0  0  0  # atno 17371 bound_to 10713
  139.8712  134.9772  156.4950 LP  0  0  0  0  0  0  0  0  0  0  0  0  # atno 17394 bound_to 11000
  140.8578  133.8083  155.9234 LP  0  0  0  0  0  0  0  0  0  0  0  0  # atno 17395 bound_to 11000

$$$$
