AV-unprocessed.smi:1945|AV-procd|sdf|7858|dock4
  -GOLD-   2272010 03D 1   1.00000     0.00000
 Structure written by MMmdl.
 47 48  0  0  0  0  0  0  0  0  1 V2000
  153.5019  141.7339  161.0772 C   0  0  0  0  0  0  0  0  0  0  0  0
  152.5745  142.3587  160.0773 C   0  0  0  0  0  0  0  0  0  0  0  0
  151.8476  141.7157  159.0338 C   0  0  0  0  0  0  0  0  0  0  0  0
  151.1787  142.7557  158.4482 C   0  0  0  0  0  0  0  0  0  0  0  0
  150.3456  142.7336  157.3743 N   0  0  0  0  0  0  0  0  0  0  0  0
  149.8483  141.6621  156.7339 C   0  0  0  0  0  0  0  0  0  0  0  0
  149.9025  140.5025  157.1444 O   0  0  0  0  0  0  0  0  0  0  0  0
  149.2855  142.0097  155.5674 N   0  0  0  0  0  0  0  0  0  0  0  0
  148.8043  141.0683  154.5607 C   0  0  0  0  0  0  0  0  0  0  0  0
  147.7844  140.0892  155.1637 C   0  0  0  0  0  0  0  0  0  0  0  0
  148.4872  138.9879  155.7184 O   0  0  0  0  0  0  0  0  0  0  0  0
  149.0194  138.0601  154.7822 C   0  0  1  0  0  0  0  0  0  0  0  0
  150.3927  138.5393  154.2603 C   0  0  0  0  0  0  0  0  0  0  0  0
  151.4426  138.6033  155.3828 C   0  0  0  0  0  0  0  0  0  0  0  0
  151.5670  137.2570  156.1111 C   0  0  0  0  0  0  0  0  0  0  0  0
  150.2041  136.7713  156.6295 C   0  0  0  0  0  0  0  0  0  0  0  0
  149.1597  136.6970  155.4963 C   0  0  1  0  0  0  0  0  0  0  0  0
  147.8079  136.1679  156.0002 C   0  0  0  0  0  0  0  0  0  0  0  0
  151.5104  143.9225  159.1002 N   0  0  0  0  0  0  0  0  0  0  0  0
  151.0723  145.2803  158.8429 C   0  0  0  0  0  0  0  0  0  0  0  0
  152.3673  143.6705  160.1134 N   0  0  0  0  0  0  0  0  0  0  0  0
  153.6564  140.6762  160.8636 H   0  0  0  0  0  0  0  0  0  0  0  0
  153.1000  141.8133  162.0875 H   0  0  0  0  0  0  0  0  0  0  0  0
  154.4779  142.2196  161.0662 H   0  0  0  0  0  0  0  0  0  0  0  0
  151.8384  140.6686  158.7705 H   0  0  0  0  0  0  0  0  0  0  0  0
  150.1408  143.6342  156.9677 H   0  0  0  0  0  0  0  0  0  0  0  0
  149.2679  142.9878  155.3191 H   0  0  0  0  0  0  0  0  0  0  0  0
  148.3766  141.5944  153.7054 H   0  0  0  0  0  0  0  0  0  0  0  0
  149.6637  140.5131  154.1847 H   0  0  0  0  0  0  0  0  0  0  0  0
  147.2091  140.5810  155.9489 H   0  0  0  0  0  0  0  0  0  0  0  0
  147.0795  139.7723  154.3954 H   0  0  0  0  0  0  0  0  0  0  0  0
  148.3268  137.9489  153.9460 H   0  0  0  0  0  0  0  0  0  0  0  0
  150.7395  137.8513  153.4885 H   0  0  0  0  0  0  0  0  0  0  0  0
  150.3118  139.5110  153.7747 H   0  0  0  0  0  0  0  0  0  0  0  0
  152.4098  138.8923  154.9710 H   0  0  0  0  0  0  0  0  0  0  0  0
  151.1705  139.3799  156.0969 H   0  0  0  0  0  0  0  0  0  0  0  0
  151.9843  136.5128  155.4319 H   0  0  0  0  0  0  0  0  0  0  0  0
  152.2690  137.3478  156.9407 H   0  0  0  0  0  0  0  0  0  0  0  0
  150.3211  135.7916  157.0940 H   0  0  0  0  0  0  0  0  0  0  0  0
  149.8542  137.4421  157.4153 H   0  0  0  0  0  0  0  0  0  0  0  0
  149.5255  135.9788  154.7609 H   0  0  0  0  0  0  0  0  0  0  0  0
  147.3819  136.8218  156.7619 H   0  0  0  0  0  0  0  0  0  0  0  0
  147.9144  135.1754  156.4387 H   0  0  0  0  0  0  0  0  0  0  0  0
  147.0873  136.0927  155.1853 H   0  0  0  0  0  0  0  0  0  0  0  0
  151.1245  145.4893  157.7742 H   0  0  0  0  0  0  0  0  0  0  0  0
  151.7069  145.9936  159.3707 H   0  0  0  0  0  0  0  0  0  0  0  0
  150.0431  145.4015  159.1813 H   0  0  0  0  0  0  0  0  0  0  0  0
  1  2  1  0  0  0  0
  1 22  1  0  0  0  0
  1 23  1  0  0  0  0
  1 24  1  0  0  0  0
  2 21  2  0  0  0  0
  2  3  1  0  0  0  0
  3  4  2  0  0  0  0
  3 25  1  0  0  0  0
  4  5  1  0  0  0  0
  4 19  1  0  0  0  0
  5  6  1  0  0  0  0
  5 26  1  0  0  0  0
  6  7  2  0  0  0  0
  6  8  1  0  0  0  0
  8  9  1  0  0  0  0
  8 27  1  0  0  0  0
  9 10  1  0  0  0  0
  9 28  1  0  0  0  0
  9 29  1  0  0  0  0
 10 11  1  0  0  0  0
 10 30  1  0  0  0  0
 10 31  1  0  0  0  0
 11 12  1  0  0  0  0
 12 17  1  0  0  0  0
 12 13  1  0  0  0  0
 12 32  1  0  0  0  0
 13 14  1  0  0  0  0
 13 33  1  0  0  0  0
 13 34  1  0  0  0  0
 14 15  1  0  0  0  0
 14 35  1  0  0  0  0
 14 36  1  0  0  0  0
 15 16  1  0  0  0  0
 15 37  1  0  0  0  0
 15 38  1  0  0  0  0
 16 17  1  0  0  0  0
 16 39  1  0  0  0  0
 16 40  1  0  0  0  0
 17 18  1  0  0  0  0
 17 41  1  0  0  0  0
 18 42  1  0  0  0  0
 18 43  1  0  0  0  0
 18 44  1  0  0  0  0
 19 20  1  0  0  0  0
 19 21  1  0  0  0  0
 20 45  1  0  0  0  0
 20 46  1  0  0  0  0
 20 47  1  0  0  0  0
M  END
> <s_m_source_file>
AV-unprocessed.smi

> <i_m_source_file_index>
1945

> <i_lp_mmshare_version>
43012

> <i_f3d_flags>
0

> <s_epik_input>
W0NIM11jMVtjSF1jKG4objEpW0NIM10pW05IXUMoPU8pW05IXVtDSDJdW0NIMl1PW0NAQEhdMltDSDJdW0NIMl1bQ0gyXVtDSDJdW0NASF0yW0NIM10=

> <s_epik_cmdline>
J2VwaWtfcHl0aG9uJywgJy1waCcsICc3LjAnLCAnLXRuJywgJzgnLCAnLW1hJywgJzIwMCcsICctbWV0YWxfYmluZGluZycsICctaW1hZScsICc8aW5maWxlLm1hZT4nLCAnLW9tYWUnLCAnPG91dGZpbGUubWFlPic=

> <r_lp_tautomer_probability>
1

> <r_epik_Ionization_Penalty>
9.47735e-05

> <r_epik_Ionization_Penalty_Charging>
0

> <r_epik_Ionization_Penalty_Neutral>
9.47735e-05

> <r_epik_State_Penalty>
-0

> <r_epik_Charging_Adjusted_Penalty>
0

> <i_epik_Tot_Q>
0

> <i_epik_Tot_abs_Q>
0

> <r_epik_Metal_State_Penalty>
-0

> <b_epik_Metal_Only>
0

> <s_lp_Force_Field>
OPLS_2005

> <r_lp_Energy>
11.3834

> <b_lp_Chiralities_Consistent>
1

> <s_lp_Variant>
AV-unprocessed.smi:1945-2

> <Gold.Version>
5.8.1

> <Gold.Id.Protein>
6NUR|6NUR_protein|mol2

> <Gold.PLP.Fitness>
41.4951

> <Gold.PLP.PLP>
-36.8418

> <Gold.PLP.part.hbond>
-2.0000

> <Gold.PLP.part.metal>
0.0000

> <Gold.PLP.part.buried>
-6.9908

> <Gold.PLP.part.nonpolar>
-29.7110

> <Gold.PLP.part.repulsive>
0.2169

> <Gold.PLP.ligand.clash>
0.0000

> <Gold.PLP.ligand.torsion>
0.5014

> <Gold.PLP.Chemscore.Hbond>
1.8736

> <Gold.PLP.Chemscore.CHOScore>
0.0000

> <Gold.PLP.Chemscore.Metal>
0.0000

> <Gold.Chemscore.Hbonds>
donor molecule, donor type, donor heavy atom, donor atom, acceptor molecule, acceptor atom, score
      L1  H     5    26       P1  8028  0.78
      L1  H     8    27       P1  8028  1.00

> <Gold.PLP.Chemscore.Internal.Correction>
0.0352

> <Gold.Rescore>
     Score         DG    S(hbond)    S(metal)    S(lipo)     H(rot)  DE(clash)    DE(int)     intcor
     12.44     -18.03       1.96        0.00      87.05       1.63       0.02       5.57       ----

> <Gold.Chemscore.Fitness>
12.4382

> <Gold.Chemscore.DG>
-18.0326

> <Gold.Chemscore.ZeroCoef>
-5.4800

> <Gold.Chemscore.Hbond>
1.9593

> <Gold.Chemscore.Metal>
0.0000

> <Gold.Chemscore.Lipo>
87.0540

> <Gold.Chemscore.Internal_Hbond>
0.0000

> <Gold.Chemscore.DEClash>
0.0235

> <Gold.Chemscore.DEInternal>
5.5710

> <Gold.Chemscore.Rot>
1.6316

> <Gold.Chemscore.Internal.Correction>
   9.000000E+99

> <Gold.Chemscore.Hbonds>
donor molecule, donor type, donor heavy atom, donor atom, acceptor molecule, acceptor atom, score
      L1  H     5    26       P1  8028  0.73
      L1  H     8    27       P1  8028  0.97

> <Gold.Chemscore.Hbond.Weighted>
-6.5441

> <Gold.Chemscore.Metal.Weighted>
-0.0000

> <Gold.Chemscore.Lipo.Weighted>
-10.1853

> <Gold.Chemscore.Internal_Hbond.Weighted>
0.0000

> <Gold.Chemscore.DEClash.Weighted>
0.0235

> <Gold.Chemscore.DEInternal.Weighted>
5.5710

> <Gold.Chemscore.Rot.Weighted>
4.1768

> <Gold.Chemscore.Internal.Correction.Weighted>
   9.000000E+99

> <Gold.Protein.RotatedTorsions>
[ 6907 6896 6895 6894 ] final  133.90 input  -60.11 | X-H torsion
[ 7974 7965 7964 7962 ] final  -48.46 input  175.53 | X-H torsion
[ 8008 7997 7996 7995 ] final   11.73 input   59.86 | X-H torsion
[ 10167 10162 10161 10158 ] final  -57.11 input  -65.29 | X-H torsion
[ 10718 10713 10712 10709 ] final   98.17 input   66.30 | X-H torsion
[ 10763 10752 10751 10750 ] final  118.20 input  -60.55 | X-H torsion
[ 11005 11000 10999 10996 ] final   10.74 input  -57.11 | X-H torsion

> <Gold.Protein.ActiveResidues>
 VAL166  LYS551  ARG553  GLY616  TRP617  ASP618  TYR619  PRO620  LYS621  CYS622 
 ASP623  PHE694  ASN695  SER759  ASP760  ASP761  ALA762  ILE779  LEU786  VAL792 
 PHE793  MET794  SER795  GLU796  ALA797  LYS798  CYS799  TRP800  GLU811  SER814 

> <Gold.Protein.RotatedAtoms>
  152.3170  133.5813  159.5718 H   0  0  0  0  0  0  0  0  0  0  0  0  # atno 6907 bound_to 6896
  150.7352  134.0067  159.3665 H   0  0  0  0  0  0  0  0  0  0  0  0  # atno 6908 bound_to 6896
  151.7955  135.0724  160.0444 H   0  0  0  0  0  0  0  0  0  0  0  0  # atno 6909 bound_to 6896
  145.9509  140.7573  142.9505 H   0  0  0  0  0  0  0  0  0  0  0  0  # atno 7974 bound_to 7965
  154.8108  140.2868  155.5854 H   0  0  0  0  0  0  0  0  0  0  0  0  # atno 8008 bound_to 7997
  156.2988  140.2568  156.2926 H   0  0  0  0  0  0  0  0  0  0  0  0  # atno 8009 bound_to 7997
  154.9449  140.0380  157.2105 H   0  0  0  0  0  0  0  0  0  0  0  0  # atno 8010 bound_to 7997
  140.6277  143.2445  151.5320 H   0  0  0  0  0  0  0  0  0  0  0  0  # atno 10167 bound_to 10162
  157.6900  131.0632  150.4756 H   0  0  0  0  0  0  0  0  0  0  0  0  # atno 10718 bound_to 10713
  153.5640  135.3515  155.2811 H   0  0  0  0  0  0  0  0  0  0  0  0  # atno 10763 bound_to 10752
  154.8691  135.4143  154.2799 H   0  0  0  0  0  0  0  0  0  0  0  0  # atno 10764 bound_to 10752
  153.3550  135.7057  153.6827 H   0  0  0  0  0  0  0  0  0  0  0  0  # atno 10765 bound_to 10752
  140.5111  134.0651  155.7818 H   0  0  0  0  0  0  0  0  0  0  0  0  # atno 11005 bound_to 11000
  144.6796  140.2434  143.7341 LP  0  0  0  0  0  0  0  0  0  0  0  0  # atno 17320 bound_to 7965
  145.8172  139.2028  143.1959 LP  0  0  0  0  0  0  0  0  0  0  0  0  # atno 17321 bound_to 7965
  139.5495  144.2431  152.1505 LP  0  0  0  0  0  0  0  0  0  0  0  0  # atno 17342 bound_to 10162
  140.1667  144.4974  150.6602 LP  0  0  0  0  0  0  0  0  0  0  0  0  # atno 17343 bound_to 10162
  156.5091  130.4135  149.6311 LP  0  0  0  0  0  0  0  0  0  0  0  0  # atno 17370 bound_to 10713
  156.3257  130.7305  151.2225 LP  0  0  0  0  0  0  0  0  0  0  0  0  # atno 17371 bound_to 10713
  141.1385  133.9180  157.2380 LP  0  0  0  0  0  0  0  0  0  0  0  0  # atno 17394 bound_to 11000
  139.9658  135.0142  156.9384 LP  0  0  0  0  0  0  0  0  0  0  0  0  # atno 17395 bound_to 11000

$$$$
