AV-unprocessed.smi:2377|AV-procd|sdf|9448|dock5
  -GOLD-   2272013 73D 1   1.00000     0.00000
 Structure written by MMmdl.
 23 23  0  0  0  0  0  0  0  0  1 V2000
  150.4681  143.9873  158.5682 C   0  0  0  0  0  0  0  0  0  0  0  0
  149.6418  143.1278  157.7303 N   0  0  0  0  0  0  0  0  0  0  0  0
  150.3764  142.0009  157.1608 C   0  0  0  0  0  0  0  0  0  0  0  0
  149.5340  141.2382  156.1219 C   0  0  1  0  0  0  0  0  0  0  0  0
  148.9715  142.1826  155.2354 O   0  0  0  0  0  0  0  0  0  0  0  0
  150.3374  140.1763  155.3852 C   0  0  0  0  0  0  0  0  0  0  0  0
  151.6914  139.9432  155.7060 C   0  0  0  0  0  0  0  0  0  0  0  0
  152.3999  138.9559  154.9945 C   0  0  0  0  0  0  0  0  0  0  0  0
  151.7236  138.2412  153.9862 C   0  0  0  0  0  0  0  0  0  0  0  0
  150.4295  138.4552  153.6669 N   0  0  0  0  0  0  0  0  0  0  0  0
  149.7576  139.4041  154.3541 C   0  0  0  0  0  0  0  0  0  0  0  0
  149.8765  144.8037  158.9822 H   0  0  0  0  0  0  0  0  0  0  0  0
  151.2870  144.4241  157.9959 H   0  0  0  0  0  0  0  0  0  0  0  0
  150.8959  143.4292  159.4015 H   0  0  0  0  0  0  0  0  0  0  0  0
  149.2329  143.6758  156.9802 H   0  0  0  0  0  0  0  0  0  0  0  0
  151.2874  142.3656  156.6841 H   0  0  0  0  0  0  0  0  0  0  0  0
  150.6930  141.3228  157.9545 H   0  0  0  0  0  0  0  0  0  0  0  0
  148.7002  140.7538  156.6324 H   0  0  0  0  0  0  0  0  0  0  0  0
  148.4002  142.7526  155.7274 H   0  0  0  0  0  0  0  0  0  0  0  0
  152.1824  140.5107  156.4827 H   0  0  0  0  0  0  0  0  0  0  0  0
  153.4373  138.7522  155.2147 H   0  0  0  0  0  0  0  0  0  0  0  0
  152.2367  137.4776  153.4206 H   0  0  0  0  0  0  0  0  0  0  0  0
  148.7257  139.5518  154.0714 H   0  0  0  0  0  0  0  0  0  0  0  0
  1  2  1  0  0  0  0
  1 12  1  0  0  0  0
  1 13  1  0  0  0  0
  1 14  1  0  0  0  0
  2  3  1  0  0  0  0
  2 15  1  0  0  0  0
  3  4  1  0  0  0  0
  3 16  1  0  0  0  0
  3 17  1  0  0  0  0
  4  5  1  0  0  0  0
  4  6  1  0  0  0  0
  4 18  1  0  0  0  0
  5 19  1  0  0  0  0
  6 11  1  0  0  0  0
  6  7  2  0  0  0  0
  7  8  1  0  0  0  0
  7 20  1  0  0  0  0
  8  9  2  0  0  0  0
  8 21  1  0  0  0  0
  9 10  1  0  0  0  0
  9 22  1  0  0  0  0
 10 11  2  0  0  0  0
 11 23  1  0  0  0  0
M  END
> <s_m_source_file>
AV-unprocessed.smi

> <i_m_source_file_index>
2377

> <i_lp_mmshare_version>
43012

> <i_f3d_flags>
0

> <s_epik_input>
W0NIM11bTkhdW0NIMl1bQ0BIXShbT0hdKWMxW2NIXVtjSF1bY0hdbltjSF0x

> <s_epik_cmdline>
J2VwaWtfcHl0aG9uJywgJy1waCcsICc3LjAnLCAnLXRuJywgJzgnLCAnLW1hJywgJzIwMCcsICctbWV0YWxfYmluZGluZycsICctaW1hZScsICc8aW5maWxlLm1hZT4nLCAnLW9tYWUnLCAnPG91dGZpbGUubWFlPic=

> <r_epik_Ionization_Penalty>
2.4626

> <r_epik_Ionization_Penalty_Charging>
0

> <r_epik_Ionization_Penalty_Neutral>
2.4626

> <r_epik_State_Penalty>
2.6219

> <r_epik_Charging_Adjusted_Penalty>
2.6219

> <i_epik_Tot_Q>
0

> <i_epik_Tot_abs_Q>
0

> <r_epik_Metal_State_Penalty>
2.61964

> <b_epik_Metal_Only>
0

> <s_lp_Force_Field>
OPLS_2005

> <r_lp_Energy>
6.69751

> <b_lp_Chiralities_Consistent>
1

> <s_lp_Variant>
AV-unprocessed.smi:2377-4

> <Gold.Version>
5.8.1

> <Gold.Id.Protein>
6NUR|6NUR_protein|mol2

> <Gold.PLP.Fitness>
36.0091

> <Gold.PLP.PLP>
-27.1983

> <Gold.PLP.part.hbond>
-2.4659

> <Gold.PLP.part.metal>
0.0000

> <Gold.PLP.part.buried>
-1.8120

> <Gold.PLP.part.nonpolar>
-22.7025

> <Gold.PLP.part.repulsive>
0.2699

> <Gold.PLP.ligand.clash>
0.0000

> <Gold.PLP.ligand.torsion>
0.0876

> <Gold.PLP.Chemscore.Hbond>
1.9920

> <Gold.PLP.Chemscore.CHOScore>
1.0000

> <Gold.PLP.Chemscore.Metal>
0.0000

> <Gold.Chemscore.Hbonds>
donor molecule, donor type, donor heavy atom, donor atom, acceptor molecule, acceptor atom, score
      L1  H     2    15       P1  8028  1.00
      L1  H     5    19       P1  8028  0.32
      L1  C     9    22       P1  7949  0.64

> <Gold.PLP.Chemscore.Internal.Correction>
0.0101

> <Gold.Rescore>
     Score         DG    S(hbond)    S(metal)    S(lipo)     H(rot)  DE(clash)    DE(int)     intcor
     14.44     -14.62       1.95        0.00      64.74       1.94       0.03       0.16       ----

> <Gold.Chemscore.Fitness>
14.4368

> <Gold.Chemscore.DG>
-14.6177

> <Gold.Chemscore.ZeroCoef>
-5.4800

> <Gold.Chemscore.Hbond>
1.9520

> <Gold.Chemscore.Metal>
0.0000

> <Gold.Chemscore.Lipo>
64.7442

> <Gold.Chemscore.Internal_Hbond>
0.0000

> <Gold.Chemscore.DEClash>
0.0251

> <Gold.Chemscore.DEInternal>
0.1559

> <Gold.Chemscore.Rot>
1.9363

> <Gold.Chemscore.Internal.Correction>
   9.000000E+99

> <Gold.Chemscore.Hbonds>
donor molecule, donor type, donor heavy atom, donor atom, acceptor molecule, acceptor atom, score
      L1  H     2    15       P1  8028  0.74
      L1  H     5    19       P1  8028  0.30

> <Gold.Chemscore.Hbond.Weighted>
-6.5196

> <Gold.Chemscore.Metal.Weighted>
-0.0000

> <Gold.Chemscore.Lipo.Weighted>
-7.5751

> <Gold.Chemscore.Internal_Hbond.Weighted>
0.0000

> <Gold.Chemscore.DEClash.Weighted>
0.0251

> <Gold.Chemscore.DEInternal.Weighted>
0.1559

> <Gold.Chemscore.Rot.Weighted>
4.9570

> <Gold.Chemscore.Internal.Correction.Weighted>
   9.000000E+99

> <Gold.Protein.RotatedTorsions>
[ 6907 6896 6895 6894 ] final  165.41 input  -60.11 | X-H torsion
[ 7974 7965 7964 7962 ] final   15.01 input  175.53 | X-H torsion
[ 8008 7997 7996 7995 ] final  165.65 input   59.86 | X-H torsion
[ 10167 10162 10161 10158 ] final  -15.82 input  -65.29 | X-H torsion
[ 10718 10713 10712 10709 ] final  155.43 input   66.30 | X-H torsion
[ 10763 10752 10751 10750 ] final  146.54 input  -60.55 | X-H torsion
[ 11005 11000 10999 10996 ] final  -83.00 input  -57.11 | X-H torsion

> <Gold.Protein.ActiveResidues>
 VAL166  LYS551  ARG553  GLY616  TRP617  ASP618  TYR619  PRO620  LYS621  CYS622 
 ASP623  PHE694  ASN695  SER759  ASP760  ASP761  ALA762  ILE779  LEU786  VAL792 
 PHE793  MET794  SER795  GLU796  ALA797  LYS798  CYS799  TRP800  GLU811  SER814 

> <Gold.Protein.RotatedAtoms>
  151.8949  133.3524  159.3810 H   0  0  0  0  0  0  0  0  0  0  0  0  # atno 6907 bound_to 6896
  150.7094  134.4886  159.5514 H   0  0  0  0  0  0  0  0  0  0  0  0  # atno 6908 bound_to 6896
  152.2464  134.8177  160.0503 H   0  0  0  0  0  0  0  0  0  0  0  0  # atno 6909 bound_to 6896
  146.2290  139.8957  142.8547 H   0  0  0  0  0  0  0  0  0  0  0  0  # atno 7974 bound_to 7965
  156.1783  140.1664  156.8322 H   0  0  0  0  0  0  0  0  0  0  0  0  # atno 8008 bound_to 7997
  154.5331  140.0752  156.8413 H   0  0  0  0  0  0  0  0  0  0  0  0  # atno 8009 bound_to 7997
  155.3366  140.3382  155.4241 H   0  0  0  0  0  0  0  0  0  0  0  0  # atno 8010 bound_to 7997
  140.7224  143.5179  150.9669 H   0  0  0  0  0  0  0  0  0  0  0  0  # atno 10167 bound_to 10162
  157.2184  131.0713  151.1927 H   0  0  0  0  0  0  0  0  0  0  0  0  # atno 10718 bound_to 10713
  154.0236  135.2904  155.3378 H   0  0  0  0  0  0  0  0  0  0  0  0  # atno 10763 bound_to 10752
  154.7031  135.5180  153.8559 H   0  0  0  0  0  0  0  0  0  0  0  0  # atno 10764 bound_to 10752
  153.0670  135.6634  154.0456 H   0  0  0  0  0  0  0  0  0  0  0  0  # atno 10765 bound_to 10752
  141.1660  133.7272  156.8655 H   0  0  0  0  0  0  0  0  0  0  0  0  # atno 11005 bound_to 11000
  145.2373  140.9996  143.3956 LP  0  0  0  0  0  0  0  0  0  0  0  0  # atno 17320 bound_to 7965
  144.9480  139.4114  143.6416 LP  0  0  0  0  0  0  0  0  0  0  0  0  # atno 17321 bound_to 7965
  139.8895  143.6970  152.3147 LP  0  0  0  0  0  0  0  0  0  0  0  0  # atno 17342 bound_to 10162
  139.7281  144.7588  151.0846 LP  0  0  0  0  0  0  0  0  0  0  0  0  # atno 17343 bound_to 10162
  157.3601  130.7127  149.6496 LP  0  0  0  0  0  0  0  0  0  0  0  0  # atno 17370 bound_to 10713
  155.9684  130.4228  150.4532 LP  0  0  0  0  0  0  0  0  0  0  0  0  # atno 17371 bound_to 10713
  140.1818  134.9027  157.2958 LP  0  0  0  0  0  0  0  0  0  0  0  0  # atno 17394 bound_to 11000
  140.2386  134.3823  155.7490 LP  0  0  0  0  0  0  0  0  0  0  0  0  # atno 17395 bound_to 11000

$$$$
