AV-unprocessed.smi:2855|AV-procd|sdf|10988|dock3
  -GOLD-   2272015443D 1   1.00000     0.00000
 Structure written by MMmdl.
 46 47  0  0  0  0  0  0  0  0  2 V2000
  152.0777  145.3113  159.1963 C   0  0  0  0  0  0  0  0  0  0  0  0
  152.4814  143.8569  158.9156 C   0  0  1  0  0  0  0  0  0  0  0  0
  152.8354  143.1112  160.2122 C   0  0  0  0  0  0  0  0  0  0  0  0
  153.2489  141.6604  159.9264 C   0  0  0  0  0  0  0  0  0  0  0  0
  152.1481  140.8803  159.1687 C   0  0  2  0  0  0  0  0  0  0  0  0
  152.5054  139.3783  158.9532 C   0  0  0  0  0  0  0  0  0  0  0  0
  151.2577  138.5007  158.7533 C   0  0  0  0  0  0  0  0  0  0  0  0
  153.4140  138.7848  160.0457 C   0  0  0  0  0  0  0  0  0  0  0  0
  151.7569  141.6375  157.8663 C   0  0  1  0  0  0  0  0  0  0  0  0
  150.6194  140.9998  157.2044 N   0  0  0  0  0  0  0  0  0  0  0  0
  150.6105  140.4742  155.9695 C   0  0  0  0  0  0  0  0  0  0  0  0
  151.5891  140.4821  155.2222 O   0  0  0  0  0  0  0  0  0  0  0  0
  149.2806  139.8537  155.5216 C   0  0  0  0  0  0  0  0  0  0  0  0
  148.2798  140.8597  155.1324 N   0  0  0  0  0  0  0  0  0  0  0  0
  147.9891  140.9800  153.7622 C   0  0  0  0  0  0  0  0  0  0  0  0
  147.0858  141.8659  153.3015 C   0  0  0  0  0  0  0  0  0  0  0  0
  146.4001  142.7161  154.2666 C   0  0  0  0  0  0  0  0  0  0  0  0
  145.5640  143.5233  153.8654 O   0  0  0  0  0  0  0  0  0  0  0  0
  146.7250  142.5701  155.5845 N   0  5  0  0  0  0  0  0  0  0  0  0
  147.6492  141.6668  156.0381 C   0  0  0  0  0  0  0  0  0  0  0  0
  147.9292  141.5555  157.2321 O   0  0  0  0  0  0  0  0  0  0  0  0
  151.3745  143.1022  158.1600 C   0  0  0  0  0  0  0  0  0  0  0  0
  151.1899  145.3621  159.8275 H   0  0  0  0  0  0  0  0  0  0  0  0
  151.8584  145.8435  158.2702 H   0  0  0  0  0  0  0  0  0  0  0  0
  152.8782  145.8502  159.7042 H   0  0  0  0  0  0  0  0  0  0  0  0
  153.3700  143.8777  158.2826 H   0  0  0  0  0  0  0  0  0  0  0  0
  153.6469  143.6255  160.7286 H   0  0  0  0  0  0  0  0  0  0  0  0
  151.9823  143.1206  160.8922 H   0  0  0  0  0  0  0  0  0  0  0  0
  154.1720  141.6663  159.3464 H   0  0  0  0  0  0  0  0  0  0  0  0
  153.4821  141.1740  160.8727 H   0  0  0  0  0  0  0  0  0  0  0  0
  151.2625  140.8944  159.8063 H   0  0  0  0  0  0  0  0  0  0  0  0
  153.0559  139.3012  158.0160 H   0  0  0  0  0  0  0  0  0  0  0  0
  150.6675  138.4167  159.6655 H   0  0  0  0  0  0  0  0  0  0  0  0
  151.5389  137.4900  158.4565 H   0  0  0  0  0  0  0  0  0  0  0  0
  150.6128  138.9016  157.9711 H   0  0  0  0  0  0  0  0  0  0  0  0
  152.9128  138.7457  161.0127 H   0  0  0  0  0  0  0  0  0  0  0  0
  154.3319  139.3580  160.1676 H   0  0  0  0  0  0  0  0  0  0  0  0
  153.7067  137.7656  159.7918 H   0  0  0  0  0  0  0  0  0  0  0  0
  152.6183  141.6574  157.1972 H   0  0  0  0  0  0  0  0  0  0  0  0
  149.7626  140.9495  157.7357 H   0  0  0  0  0  0  0  0  0  0  0  0
  149.4604  139.1816  154.6807 H   0  0  0  0  0  0  0  0  0  0  0  0
  148.9095  139.2120  156.3220 H   0  0  0  0  0  0  0  0  0  0  0  0
  148.5452  140.3165  153.1160 H   0  0  0  0  0  0  0  0  0  0  0  0
  146.8754  141.9467  152.2452 H   0  0  0  0  0  0  0  0  0  0  0  0
  150.4540  143.1300  158.7457 H   0  0  0  0  0  0  0  0  0  0  0  0
  151.1561  143.6169  157.2229 H   0  0  0  0  0  0  0  0  0  0  0  0
  1  2  1  0  0  0  0
  1 23  1  0  0  0  0
  1 24  1  0  0  0  0
  1 25  1  0  0  0  0
  2 22  1  0  0  0  0
  2  3  1  0  0  0  0
  2 26  1  0  0  0  0
  3  4  1  0  0  0  0
  3 27  1  0  0  0  0
  3 28  1  0  0  0  0
  4  5  1  0  0  0  0
  4 29  1  0  0  0  0
  4 30  1  0  0  0  0
  5  6  1  0  0  0  0
  5  9  1  0  0  0  0
  5 31  1  0  0  0  0
  6  7  1  0  0  0  0
  6  8  1  0  0  0  0
  6 32  1  0  0  0  0
  7 33  1  0  0  0  0
  7 34  1  0  0  0  0
  7 35  1  0  0  0  0
  8 36  1  0  0  0  0
  8 37  1  0  0  0  0
  8 38  1  0  0  0  0
  9 10  1  0  0  0  0
  9 22  1  0  0  0  0
  9 39  1  0  0  0  0
 10 11  1  0  0  0  0
 10 40  1  0  0  0  0
 11 12  2  0  0  0  0
 11 13  1  0  0  0  0
 13 14  1  0  0  0  0
 13 41  1  0  0  0  0
 13 42  1  0  0  0  0
 14 20  1  0  0  0  0
 14 15  1  0  0  0  0
 15 16  2  0  0  0  0
 15 43  1  0  0  0  0
 16 17  1  0  0  0  0
 16 44  1  0  0  0  0
 17 18  2  0  0  0  0
 17 19  1  0  0  0  0
 19 20  1  0  0  0  0
 20 21  2  0  0  0  0
 22 45  1  0  0  0  0
 22 46  1  0  0  0  0
M  CHG  1  19  -1
M  END
> <s_m_source_file>
AV-unprocessed.smi

> <i_m_source_file_index>
2855

> <i_lp_mmshare_version>
43012

> <i_f3d_flags>
0

> <s_epik_input>
W0NIM11bQ0BASF0xW0NIMl1bQ0gyXVtDQEBIXShbQ0hdKFtDSDNdKVtDSDNdKVtDQEhdKFtDSDJdMSlbTkhdQyg9TylbQ0gyXW4yW2NIXVtjSF1jKD1PKVtuSF1jMj1P

> <s_epik_cmdline>
J2VwaWtfcHl0aG9uJywgJy1waCcsICc3LjAnLCAnLXRuJywgJzgnLCAnLW1hJywgJzIwMCcsICctbWV0YWxfYmluZGluZycsICctaW1hZScsICc8aW5maWxlLm1hZT4nLCAnLW9tYWUnLCAnPG91dGZpbGUubWFlPic=

> <r_lp_tautomer_probability>
0.999537

> <r_epik_Ionization_Penalty>
3.12102

> <r_epik_Ionization_Penalty_Charging>
2.9581e-08

> <r_epik_Ionization_Penalty_Neutral>
3.12102

> <r_epik_State_Penalty>
3.12011

> <r_epik_Charging_Adjusted_Penalty>
3.12011

> <i_epik_Tot_Q>
-1

> <i_epik_Tot_abs_Q>
1

> <r_epik_Metal_State_Penalty>
0.463583

> <b_epik_Metal_Only>
1

> <s_lp_Force_Field>
OPLS_2005

> <r_lp_Energy>
25.0063

> <b_lp_Chiralities_Consistent>
1

> <s_lp_Variant>
AV-unprocessed.smi:2855-12

> <Gold.Version>
5.8.1

> <Gold.Id.Protein>
6NUR|6NUR_protein|mol2

> <Gold.PLP.Fitness>
46.9557

> <Gold.PLP.PLP>
-43.0545

> <Gold.PLP.part.hbond>
-1.0000

> <Gold.PLP.part.metal>
0.0000

> <Gold.PLP.part.buried>
-7.2296

> <Gold.PLP.part.nonpolar>
-35.5742

> <Gold.PLP.part.repulsive>
1.2034

> <Gold.PLP.ligand.clash>
0.0000

> <Gold.PLP.ligand.torsion>
0.8744

> <Gold.PLP.Chemscore.Hbond>
0.8480

> <Gold.PLP.Chemscore.CHOScore>
1.0000

> <Gold.PLP.Chemscore.Metal>
0.0000

> <Gold.Chemscore.Hbonds>
donor molecule, donor type, donor heavy atom, donor atom, acceptor molecule, acceptor atom, score
      P1  H  7989  7998       L1    12  0.83
      L1  C    15    43       P1  7957  1.00

> <Gold.PLP.Chemscore.Internal.Correction>
0.1060

> <Gold.Rescore>
     Score         DG    S(hbond)    S(metal)    S(lipo)     H(rot)  DE(clash)    DE(int)     intcor
     15.34     -16.79       0.94        0.00     109.31       1.81       0.01       1.44       ----

> <Gold.Chemscore.Fitness>
15.3364

> <Gold.Chemscore.DG>
-16.7894

> <Gold.Chemscore.ZeroCoef>
-5.4800

> <Gold.Chemscore.Hbond>
0.9443

> <Gold.Chemscore.Metal>
0.0000

> <Gold.Chemscore.Lipo>
109.3069

> <Gold.Chemscore.Internal_Hbond>
0.0000

> <Gold.Chemscore.DEClash>
0.0117

> <Gold.Chemscore.DEInternal>
1.4413

> <Gold.Chemscore.Rot>
1.8100

> <Gold.Chemscore.Internal.Correction>
   9.000000E+99

> <Gold.Chemscore.Hbonds>
donor molecule, donor type, donor heavy atom, donor atom, acceptor molecule, acceptor atom, score
      P1  H  7989  7998       L1    12  0.83

> <Gold.Chemscore.Hbond.Weighted>
-3.1540

> <Gold.Chemscore.Metal.Weighted>
-0.0000

> <Gold.Chemscore.Lipo.Weighted>
-12.7889

> <Gold.Chemscore.Internal_Hbond.Weighted>
0.0000

> <Gold.Chemscore.DEClash.Weighted>
0.0117

> <Gold.Chemscore.DEInternal.Weighted>
1.4413

> <Gold.Chemscore.Rot.Weighted>
4.6335

> <Gold.Chemscore.Internal.Correction.Weighted>
   9.000000E+99

> <Gold.Protein.RotatedTorsions>
[ 6907 6896 6895 6894 ] final  100.87 input  -60.11 | X-H torsion
[ 7974 7965 7964 7962 ] final  117.21 input  175.53 | X-H torsion
[ 8008 7997 7996 7995 ] final   15.40 input   59.86 | X-H torsion
[ 10167 10162 10161 10158 ] final  -25.15 input  -65.29 | X-H torsion
[ 10718 10713 10712 10709 ] final  -77.17 input   66.30 | X-H torsion
[ 10763 10752 10751 10750 ] final  135.65 input  -60.55 | X-H torsion
[ 11005 11000 10999 10996 ] final -104.88 input  -57.11 | X-H torsion

> <Gold.Protein.ActiveResidues>
 VAL166  LYS551  ARG553  GLY616  TRP617  ASP618  TYR619  PRO620  LYS621  CYS622 
 ASP623  PHE694  ASN695  SER759  ASP760  ASP761  ALA762  ILE779  LEU786  VAL792 
 PHE793  MET794  SER795  GLU796  ALA797  LYS798  CYS799  TRP800  GLU811  SER814 

> <Gold.Protein.RotatedAtoms>
  152.5362  134.0211  159.7981 H   0  0  0  0  0  0  0  0  0  0  0  0  # atno 6907 bound_to 6896
  151.0397  133.5709  159.2659 H   0  0  0  0  0  0  0  0  0  0  0  0  # atno 6908 bound_to 6896
  151.2683  135.0683  159.9178 H   0  0  0  0  0  0  0  0  0  0  0  0  # atno 6909 bound_to 6896
  145.1701  139.3106  143.4472 H   0  0  0  0  0  0  0  0  0  0  0  0  # atno 7974 bound_to 7965
  154.8622  140.2946  155.5532 H   0  0  0  0  0  0  0  0  0  0  0  0  # atno 8008 bound_to 7997
  156.3020  140.2476  156.3530 H   0  0  0  0  0  0  0  0  0  0  0  0  # atno 8009 bound_to 7997
  154.8906  140.0394  157.1825 H   0  0  0  0  0  0  0  0  0  0  0  0  # atno 8010 bound_to 7997
  140.7287  143.4290  151.0831 H   0  0  0  0  0  0  0  0  0  0  0  0  # atno 10167 bound_to 10162
  156.0153  130.4484  150.3305 H   0  0  0  0  0  0  0  0  0  0  0  0  # atno 10718 bound_to 10713
  153.8435  135.3088  155.3428 H   0  0  0  0  0  0  0  0  0  0  0  0  # atno 10763 bound_to 10752
  154.7922  135.4776  154.0082 H   0  0  0  0  0  0  0  0  0  0  0  0  # atno 10764 bound_to 10752
  153.1561  135.6852  153.8902 H   0  0  0  0  0  0  0  0  0  0  0  0  # atno 10765 bound_to 10752
  141.1079  133.8761  157.1666 H   0  0  0  0  0  0  0  0  0  0  0  0  # atno 11005 bound_to 11000
  146.3470  140.1843  142.8589 LP  0  0  0  0  0  0  0  0  0  0  0  0  # atno 17320 bound_to 7965
  145.0241  140.8818  143.5149 LP  0  0  0  0  0  0  0  0  0  0  0  0  # atno 17321 bound_to 7965
  139.7945  143.8171  152.3156 LP  0  0  0  0  0  0  0  0  0  0  0  0  # atno 17342 bound_to 10162
  139.8166  144.7313  150.9627 LP  0  0  0  0  0  0  0  0  0  0  0  0  # atno 17343 bound_to 10162
  157.1403  131.0295  151.2930 LP  0  0  0  0  0  0  0  0  0  0  0  0  # atno 17370 bound_to 10713
  157.4477  130.7580  149.7124 LP  0  0  0  0  0  0  0  0  0  0  0  0  # atno 17371 bound_to 10713
  139.9959  135.0047  157.0080 LP  0  0  0  0  0  0  0  0  0  0  0  0  # atno 17394 bound_to 11000
  140.4852  134.1249  155.7223 LP  0  0  0  0  0  0  0  0  0  0  0  0  # atno 17395 bound_to 11000

$$$$
