AV-unprocessed.smi:3342|AV-procd|sdf|12887|dock6
  -GOLD-   2272019293D 1   1.00000     0.00000
 Structure written by MMmdl.
 42 43  0  0  0  0  0  0  0  0  2 V2000
  148.6879  134.6317  156.4779 C   0  0  0  0  0  0  0  0  0  0  0  0
  148.8739  134.7284  154.9551 C   0  0  2  0  0  0  0  0  0  0  0  0
  149.5879  133.4988  154.3522 C   0  0  0  0  0  0  0  0  0  0  0  0
  148.6612  132.5429  153.7393 N   0  0  0  0  0  0  0  0  0  0  0  0
  148.4596  131.2370  154.1047 C   0  0  0  0  0  0  0  0  0  0  0  0
  147.4989  130.7393  153.2626 C   0  0  0  0  0  0  0  0  0  0  0  0
  147.1525  131.7631  152.4219 N   0  3  0  0  0  0  0  0  0  0  0  0
  147.8582  132.8601  152.7151 C   0  0  0  0  0  0  0  0  0  0  0  0
  149.6201  135.9425  154.6382 N   0  0  0  0  0  0  0  0  0  0  0  0
  150.7388  136.3555  155.2594 C   0  0  0  0  0  0  0  0  0  0  0  0
  151.2683  135.6968  156.1560 O   0  0  0  0  0  0  0  0  0  0  0  0
  151.2281  137.5423  154.8196 N   0  0  0  0  0  0  0  0  0  0  0  0
  150.6345  138.3970  153.7782 C   0  0  0  0  0  0  0  0  0  0  0  0
  149.9268  139.5811  154.4615 C   0  0  0  0  0  0  0  0  0  0  0  0
  150.9080  140.3745  155.3582 C   0  0  0  0  0  0  0  0  0  0  0  0
  150.1722  141.4624  156.1519 C   0  0  0  0  0  0  0  0  0  0  0  0
  149.5067  142.3832  155.4504 N   0  0  0  0  0  0  0  0  0  0  0  0
  150.2016  141.4728  157.3812 O   0  0  0  0  0  0  0  0  0  0  0  0
  151.6836  139.4273  156.3049 C   0  0  0  0  0  0  0  0  0  0  0  0
  152.3008  138.2484  155.5299 C   0  0  0  0  0  0  0  0  0  0  0  0
  148.0593  133.7841  156.7512 H   0  0  0  0  0  0  0  0  0  0  0  0
  148.2081  135.5287  156.8712 H   0  0  0  0  0  0  0  0  0  0  0  0
  149.6449  134.5161  156.9878 H   0  0  0  0  0  0  0  0  0  0  0  0
  147.8800  134.8090  154.5107 H   0  0  0  0  0  0  0  0  0  0  0  0
  150.2923  133.8029  153.5768 H   0  0  0  0  0  0  0  0  0  0  0  0
  150.1673  132.9780  155.1162 H   0  0  0  0  0  0  0  0  0  0  0  0
  149.0017  130.7722  154.9160 H   0  0  0  0  0  0  0  0  0  0  0  0
  147.0465  129.7602  153.2012 H   0  0  0  0  0  0  0  0  0  0  0  0
  147.7930  133.8129  152.2203 H   0  0  0  0  0  0  0  0  0  0  0  0
  149.2475  136.5289  153.9056 H   0  0  0  0  0  0  0  0  0  0  0  0
  151.4247  138.7659  153.1226 H   0  0  0  0  0  0  0  0  0  0  0  0
  149.9392  137.8754  153.1205 H   0  0  0  0  0  0  0  0  0  0  0  0
  149.4976  140.2388  153.7045 H   0  0  0  0  0  0  0  0  0  0  0  0
  149.0904  139.2028  155.0516 H   0  0  0  0  0  0  0  0  0  0  0  0
  151.6366  140.8568  154.7039 H   0  0  0  0  0  0  0  0  0  0  0  0
  149.0060  143.1181  155.9282 H   0  0  0  0  0  0  0  0  0  0  0  0
  149.5061  142.3393  154.4418 H   0  0  0  0  0  0  0  0  0  0  0  0
  152.4701  139.9774  156.8230 H   0  0  0  0  0  0  0  0  0  0  0  0
  151.0204  139.0366  157.0786 H   0  0  0  0  0  0  0  0  0  0  0  0
  152.8530  137.6004  156.2121 H   0  0  0  0  0  0  0  0  0  0  0  0
  153.0363  138.6136  154.8118 H   0  0  0  0  0  0  0  0  0  0  0  0
  146.4606  131.7019  151.6853 H   0  0  0  0  0  0  0  0  0  0  0  0
  1  2  1  0  0  0  0
  1 21  1  0  0  0  0
  1 22  1  0  0  0  0
  1 23  1  0  0  0  0
  2  3  1  0  0  0  0
  2  9  1  0  0  0  0
  2 24  1  0  0  0  0
  3  4  1  0  0  0  0
  3 25  1  0  0  0  0
  3 26  1  0  0  0  0
  4  8  1  0  0  0  0
  4  5  1  0  0  0  0
  5  6  2  0  0  0  0
  5 27  1  0  0  0  0
  6  7  1  0  0  0  0
  6 28  1  0  0  0  0
  7  8  2  0  0  0  0
  7 42  1  0  0  0  0
  8 29  1  0  0  0  0
  9 10  1  0  0  0  0
  9 30  1  0  0  0  0
 10 11  2  0  0  0  0
 10 12  1  0  0  0  0
 12 20  1  0  0  0  0
 12 13  1  0  0  0  0
 13 14  1  0  0  0  0
 13 31  1  0  0  0  0
 13 32  1  0  0  0  0
 14 15  1  0  0  0  0
 14 33  1  0  0  0  0
 14 34  1  0  0  0  0
 15 16  1  0  0  0  0
 15 19  1  0  0  0  0
 15 35  1  0  0  0  0
 16 17  1  0  0  0  0
 16 18  2  0  0  0  0
 17 36  1  0  0  0  0
 17 37  1  0  0  0  0
 19 20  1  0  0  0  0
 19 38  1  0  0  0  0
 19 39  1  0  0  0  0
 20 40  1  0  0  0  0
 20 41  1  0  0  0  0
M  CHG  1   7   1
M  END
> <s_m_source_file>
AV-unprocessed.smi

> <i_m_source_file_index>
3342

> <i_lp_mmshare_version>
43012

> <i_f3d_flags>
0

> <s_epik_input>
W2NIXTFuW2NIXVtjSF1uMVtDSDJdW0NAQEhdKFtDSDNdKVtOSF1DKD1PKU4yW0NIMl1bQ0gyXVtDSF0oQyg9TylbTkgyXSlbQ0gyXVtDSDJdMg==

> <s_epik_cmdline>
J2VwaWtfcHl0aG9uJywgJy1waCcsICc3LjAnLCAnLXRuJywgJzgnLCAnLW1hJywgJzIwMCcsICctbWV0YWxfYmluZGluZycsICctaW1hZScsICc8aW5maWxlLm1hZT4nLCAnLW9tYWUnLCAnPG91dGZpbGUubWFlPic=

> <r_lp_tautomer_probability>
1

> <r_epik_Ionization_Penalty>
0.254015

> <r_epik_Ionization_Penalty_Charging>
0

> <r_epik_Ionization_Penalty_Neutral>
0.254015

> <r_epik_State_Penalty>
0.245417

> <r_epik_Charging_Adjusted_Penalty>
0.245417

> <i_epik_Tot_Q>
1

> <i_epik_Tot_abs_Q>
1

> <r_epik_Metal_State_Penalty>
0.535589

> <b_epik_Metal_Only>
0

> <s_lp_Force_Field>
OPLS_2005

> <r_lp_Energy>
30.9276

> <b_lp_Chiralities_Consistent>
1

> <s_lp_Variant>
AV-unprocessed.smi:3342-1

> <Gold.Version>
5.8.1

> <Gold.Id.Protein>
6NUR|6NUR_protein|mol2

> <Gold.PLP.Fitness>
42.9457

> <Gold.PLP.PLP>
-35.6378

> <Gold.PLP.part.hbond>
-3.8863

> <Gold.PLP.part.metal>
0.0000

> <Gold.PLP.part.buried>
-2.4380

> <Gold.PLP.part.nonpolar>
-30.3632

> <Gold.PLP.part.repulsive>
0.2583

> <Gold.PLP.ligand.clash>
0.0000

> <Gold.PLP.ligand.torsion>
0.8150

> <Gold.PLP.Chemscore.Hbond>
1.9542

> <Gold.PLP.Chemscore.CHOScore>
0.9896

> <Gold.PLP.Chemscore.Metal>
0.0000

> <Gold.Chemscore.Hbonds>
donor molecule, donor type, donor heavy atom, donor atom, acceptor molecule, acceptor atom, score
      L1  H     9    30       P1  7948  0.58
      L1  H    17    36       P1  8028  0.66
      P1  H 10752 10765       L1    11  0.42
      L1  C     8    29       P1  7948  0.55

> <Gold.PLP.Chemscore.Internal.Correction>
0.1065

> <Gold.Rescore>
     Score         DG    S(hbond)    S(metal)    S(lipo)     H(rot)  DE(clash)    DE(int)     intcor
      8.18     -13.22       1.88        0.00      63.74       2.34       2.74       2.30       ----

> <Gold.Chemscore.Fitness>
8.1830

> <Gold.Chemscore.DG>
-13.2232

> <Gold.Chemscore.ZeroCoef>
-5.4800

> <Gold.Chemscore.Hbond>
1.8791

> <Gold.Chemscore.Metal>
0.0000

> <Gold.Chemscore.Lipo>
63.7392

> <Gold.Chemscore.Internal_Hbond>
0.0000

> <Gold.Chemscore.DEClash>
2.7400

> <Gold.Chemscore.DEInternal>
2.3001

> <Gold.Chemscore.Rot>
2.3400

> <Gold.Chemscore.Internal.Correction>
   9.000000E+99

> <Gold.Chemscore.Hbonds>
donor molecule, donor type, donor heavy atom, donor atom, acceptor molecule, acceptor atom, score
      L1  H     9    30       P1  7948  0.54
      L1  H    17    36       P1  8028  0.66
      P1  H 10752 10765       L1    11  0.06

> <Gold.Chemscore.Hbond.Weighted>
-6.2761

> <Gold.Chemscore.Metal.Weighted>
-0.0000

> <Gold.Chemscore.Lipo.Weighted>
-7.4575

> <Gold.Chemscore.Internal_Hbond.Weighted>
0.0000

> <Gold.Chemscore.DEClash.Weighted>
2.7400

> <Gold.Chemscore.DEInternal.Weighted>
2.3001

> <Gold.Chemscore.Rot.Weighted>
5.9904

> <Gold.Chemscore.Internal.Correction.Weighted>
   9.000000E+99

> <Gold.Protein.RotatedTorsions>
[ 6907 6896 6895 6894 ] final   29.55 input  -60.11 | X-H torsion
[ 7974 7965 7964 7962 ] final -128.96 input  175.53 | X-H torsion
[ 8008 7997 7996 7995 ] final  -77.08 input   59.86 | X-H torsion
[ 10167 10162 10161 10158 ] final   24.39 input  -65.29 | X-H torsion
[ 10718 10713 10712 10709 ] final  -13.39 input   66.30 | X-H torsion
[ 10763 10752 10751 10750 ] final -141.88 input  -60.55 | X-H torsion
[ 11005 11000 10999 10996 ] final -101.42 input  -57.11 | X-H torsion

> <Gold.Protein.ActiveResidues>
 VAL166  LYS551  ARG553  GLY616  TRP617  ASP618  TYR619  PRO620  LYS621  CYS622 
 ASP623  PHE694  ASN695  SER759  ASP760  ASP761  ALA762  ILE779  LEU786  VAL792 
 PHE793  MET794  SER795  GLU796  ALA797  LYS798  CYS799  TRP800  GLU811  SER814 

> <Gold.Protein.RotatedAtoms>
  152.0331  134.9756  160.0572 H   0  0  0  0  0  0  0  0  0  0  0  0  # atno 6907 bound_to 6896
  152.1224  133.4356  159.4690 H   0  0  0  0  0  0  0  0  0  0  0  0  # atno 6908 bound_to 6896
  150.6850  134.2437  159.4526 H   0  0  0  0  0  0  0  0  0  0  0  0  # atno 6909 bound_to 6896
  144.9619  140.7455  143.4724 H   0  0  0  0  0  0  0  0  0  0  0  0  # atno 7974 bound_to 7965
  154.5563  140.0716  156.8749 H   0  0  0  0  0  0  0  0  0  0  0  0  # atno 8008 bound_to 7997
  155.2896  140.3377  155.4235 H   0  0  0  0  0  0  0  0  0  0  0  0  # atno 8009 bound_to 7997
  156.2005  140.1720  156.7895 H   0  0  0  0  0  0  0  0  0  0  0  0  # atno 8010 bound_to 7997
  140.5192  144.0032  150.6408 H   0  0  0  0  0  0  0  0  0  0  0  0  # atno 10167 bound_to 10162
  156.6310  130.4901  149.6129 H   0  0  0  0  0  0  0  0  0  0  0  0  # atno 10718 bound_to 10713
  154.8529  135.3511  154.5939 H   0  0  0  0  0  0  0  0  0  0  0  0  # atno 10763 bound_to 10752
  153.6549  135.6992  153.5201 H   0  0  0  0  0  0  0  0  0  0  0  0  # atno 10764 bound_to 10752
  153.2864  135.4248  155.1084 H   0  0  0  0  0  0  0  0  0  0  0  0  # atno 10765 bound_to 10752
  141.1231  133.8477  157.1230 H   0  0  0  0  0  0  0  0  0  0  0  0  # atno 11005 bound_to 11000
  145.2687  139.1963  143.4853 LP  0  0  0  0  0  0  0  0  0  0  0  0  # atno 17320 bound_to 7965
  146.3355  140.2630  142.8602 LP  0  0  0  0  0  0  0  0  0  0  0  0  # atno 17321 bound_to 7965
  140.3376  143.3039  152.0622 LP  0  0  0  0  0  0  0  0  0  0  0  0  # atno 17342 bound_to 10162
  139.4918  144.6465  151.6766 LP  0  0  0  0  0  0  0  0  0  0  0  0  # atno 17343 bound_to 10162
  156.2235  130.6751  151.1392 LP  0  0  0  0  0  0  0  0  0  0  0  0  # atno 17370 bound_to 10713
  157.7200  131.0687  150.6174 LP  0  0  0  0  0  0  0  0  0  0  0  0  # atno 17371 bound_to 10713
  140.0205  134.9948  157.0583 LP  0  0  0  0  0  0  0  0  0  0  0  0  # atno 17394 bound_to 11000
  140.4447  134.1645  155.7176 LP  0  0  0  0  0  0  0  0  0  0  0  0  # atno 17395 bound_to 11000

$$$$
