AV-unprocessed.smi:54|AV-procd|sdf|554|dock3
  -GOLD-   2262016453D 1   1.00000     0.00000
 Structure written by MMmdl.
 43 45  0  0  0  0  0  0  0  0  2 V2000
  145.7053  136.8213  161.3478 C   0  0  0  0  0  0  0  0  0  0  0  0
  146.7180  135.7401  160.9366 C   0  0  0  0  0  0  0  0  0  0  0  0
  147.2498  134.9787  162.1622 C   0  0  0  0  0  0  0  0  0  0  0  0
  147.8723  136.3562  160.1328 C   0  0  0  0  0  0  0  0  0  0  0  0
  148.5885  137.2054  160.6675 O   0  0  0  0  0  0  0  0  0  0  0  0
  147.9957  135.9064  158.8643 N   0  0  0  0  0  0  0  0  0  0  0  0
  148.9223  136.2724  157.8809 C   0  0  0  0  0  0  0  0  0  0  0  0
  148.4316  137.1114  157.0009 N   0  0  0  0  0  0  0  0  0  0  0  0
  149.3450  137.4488  156.0201 C   0  0  0  0  0  0  0  0  0  0  0  0
  150.6361  137.0159  155.8947 C   0  0  0  0  0  0  0  0  0  0  0  0
  151.2586  137.5896  154.7932 N   0  0  0  0  0  0  0  0  0  0  0  0
  150.2907  138.3573  154.2951 C   0  0  0  0  0  0  0  0  0  0  0  0
  149.1127  138.3116  154.9536 N   0  0  0  0  0  0  0  0  0  0  0  0
  147.8499  139.0736  154.6668 C   0  0  1  0  0  0  0  0  0  0  0  0
  147.3856  139.6505  155.8479 O   0  0  0  0  0  0  0  0  0  0  0  0
  147.9836  140.9302  156.0113 C   0  0  2  0  0  0  0  0  0  0  0  0
  147.1528  141.7772  156.9874 C   0  0  0  0  0  0  0  0  0  0  0  0
  147.2153  141.2236  158.2843 O   0  0  0  0  0  0  0  0  0  0  0  0
  147.9920  141.4790  154.5795 C   0  0  1  0  0  0  0  0  0  0  0  0
  149.1020  142.3359  154.4005 O   0  0  0  0  0  0  0  0  0  0  0  0
  148.1255  140.2365  153.6961 C   0  0  2  0  0  0  0  0  0  0  0  0
  147.1764  140.2641  152.6496 O   0  0  0  0  0  0  0  0  0  0  0  0
  151.1257  136.0633  156.9186 C   0  0  0  0  0  0  0  0  0  0  0  0
  152.2797  135.6452  156.8445 O   0  0  0  0  0  0  0  0  0  0  0  0
  150.2203  135.7228  157.8839 N   0  5  0  0  0  0  0  0  0  0  0  0
  147.1651  138.3135  154.2885 H   0  0  0  0  0  0  0  0  0  0  0  0
  149.0078  140.8153  156.3716 H   0  0  0  0  0  0  0  0  0  0  0  0
  147.0642  142.0138  154.3696 H   0  0  0  0  0  0  0  0  0  0  0  0
  149.1242  140.1457  153.2659 H   0  0  0  0  0  0  0  0  0  0  0  0
  145.3296  137.3630  160.4788 H   0  0  0  0  0  0  0  0  0  0  0  0
  146.1488  137.5496  162.0280 H   0  0  0  0  0  0  0  0  0  0  0  0
  144.8467  136.3784  161.8532 H   0  0  0  0  0  0  0  0  0  0  0  0
  146.1993  135.0219  160.2992 H   0  0  0  0  0  0  0  0  0  0  0  0
  147.9792  134.2211  161.8727 H   0  0  0  0  0  0  0  0  0  0  0  0
  146.4400  134.4691  162.6852 H   0  0  0  0  0  0  0  0  0  0  0  0
  147.7313  135.6499  162.8748 H   0  0  0  0  0  0  0  0  0  0  0  0
  147.2798  135.2558  158.5766 H   0  0  0  0  0  0  0  0  0  0  0  0
  150.4505  138.9731  153.4224 H   0  0  0  0  0  0  0  0  0  0  0  0
  147.5578  142.7880  157.0445 H   0  0  0  0  0  0  0  0  0  0  0  0
  146.1166  141.8614  156.6588 H   0  0  0  0  0  0  0  0  0  0  0  0
  147.4278  140.3057  158.2092 H   0  0  0  0  0  0  0  0  0  0  0  0
  148.9153  143.1594  154.8251 H   0  0  0  0  0  0  0  0  0  0  0  0
  147.6348  140.1772  151.8281 H   0  0  0  0  0  0  0  0  0  0  0  0
  1  2  1  0  0  0  0
  1 30  1  0  0  0  0
  1 31  1  0  0  0  0
  1 32  1  0  0  0  0
  2  3  1  0  0  0  0
  2  4  1  0  0  0  0
  2 33  1  0  0  0  0
  3 34  1  0  0  0  0
  3 35  1  0  0  0  0
  3 36  1  0  0  0  0
  4  5  2  0  0  0  0
  4  6  1  0  0  0  0
  6 37  1  0  0  0  0
  6  7  1  0  0  0  0
  7 25  1  0  0  0  0
  7  8  2  0  0  0  0
  8  9  1  0  0  0  0
  9 13  1  0  0  0  0
  9 10  2  0  0  0  0
 10 11  1  0  0  0  0
 10 23  1  0  0  0  0
 11 12  2  0  0  0  0
 12 13  1  0  0  0  0
 12 38  1  0  0  0  0
 13 14  1  0  0  0  0
 14 26  1  0  0  0  0
 14 21  1  0  0  0  0
 14 15  1  0  0  0  0
 15 16  1  0  0  0  0
 16 27  1  0  0  0  0
 16 17  1  0  0  0  0
 16 19  1  0  0  0  0
 17 18  1  0  0  0  0
 17 39  1  0  0  0  0
 17 40  1  0  0  0  0
 18 41  1  0  0  0  0
 19 28  1  0  0  0  0
 19 20  1  0  0  0  0
 19 21  1  0  0  0  0
 20 42  1  0  0  0  0
 21 29  1  0  0  0  0
 21 22  1  0  0  0  0
 22 43  1  0  0  0  0
 23 24  2  0  0  0  0
 23 25  1  0  0  0  0
M  CHG  1  25  -1
M  END
> <s_m_source_file>
AV-unprocessed.smi

> <i_m_source_file_index>
54

> <i_lp_mmshare_version>
43012

> <i_f3d_flags>
0

> <s_epik_input>
W0NIM11bQ0hdKFtDSDNdKUMoPU8pW05IXWMobjEpW25IXWMoPU8pYyhjMTIpbltjSF1uMltDQEBIXTNPW0NASF0oW0NIMl1bT0hdKVtDQEBIXShbT0hdKVtDQEhdM1tPSF0=

> <s_epik_cmdline>
J2VwaWtfcHl0aG9uJywgJy1waCcsICc3LjAnLCAnLXRuJywgJzgnLCAnLW1hJywgJzIwMCcsICctbWV0YWxfYmluZGluZycsICctaW1hZScsICc8aW5maWxlLm1hZT4nLCAnLW9tYWUnLCAnPG91dGZpbGUubWFlPic=

> <r_lp_tautomer_probability>
0.85571

> <r_epik_Ionization_Penalty>
1.75936

> <r_epik_Ionization_Penalty_Charging>
4.55893e-11

> <r_epik_Ionization_Penalty_Neutral>
1.75936

> <r_epik_State_Penalty>
1.72072

> <r_epik_Charging_Adjusted_Penalty>
1.72072

> <i_epik_Tot_Q>
-1

> <i_epik_Tot_abs_Q>
1

> <r_epik_Metal_State_Penalty>
0.400338

> <b_epik_Metal_Only>
1

> <s_epik_Chemistry_Notes>
This compound contains an acetal/aminal-like group ( X-CH(R)-Y where X, Y are N, S, or O) that may be acid/base labile, releasing an aldehyde.

> <s_lp_Force_Field>
OPLS_2005

> <r_lp_Energy>
54.6298

> <b_lp_Chiralities_Consistent>
1

> <s_lp_Variant>
AV-unprocessed.smi:54-26

> <Gold.Version>
5.8.1

> <Gold.Id.Protein>
6NUR|6NUR_protein|mol2

> <Gold.PLP.Fitness>
46.7896

> <Gold.PLP.PLP>
-30.7221

> <Gold.PLP.part.hbond>
-7.8977

> <Gold.PLP.part.metal>
0.0000

> <Gold.PLP.part.buried>
-3.3120

> <Gold.PLP.part.nonpolar>
-19.0742

> <Gold.PLP.part.repulsive>
0.2163

> <Gold.PLP.ligand.clash>
0.0000

> <Gold.PLP.ligand.torsion>
1.1125

> <Gold.PLP.Chemscore.Hbond>
5.3548

> <Gold.PLP.Chemscore.CHOScore>
0.7171

> <Gold.PLP.Chemscore.Metal>
0.0000

> <Gold.Chemscore.Hbonds>
donor molecule, donor type, donor heavy atom, donor atom, acceptor molecule, acceptor atom, score
      L1  H    20    42       P1  8028  1.00
      L1  H    22    43       P1  7957  0.74
      P1  H  6896  6908       L1    25  1.45
      P1  H  6931  6943       L1     5  0.78
      P1  H  6934  6947       L1     5  0.16
      P1  H  8011  8017       L1    20  0.13
      P1  H 10752 10765       L1    24  1.00
      L1  C    12    38       P1  7957  0.77

> <Gold.PLP.Chemscore.Internal.Correction>
0.0769

> <Gold.Rescore>
     Score         DG    S(hbond)    S(metal)    S(lipo)     H(rot)  DE(clash)    DE(int)     intcor
     13.09     -15.99       4.83        0.00      39.94       4.02       0.64       2.26       ----

> <Gold.Chemscore.Fitness>
13.0937

> <Gold.Chemscore.DG>
-15.9912

> <Gold.Chemscore.ZeroCoef>
-5.4800

> <Gold.Chemscore.Hbond>
4.8285

> <Gold.Chemscore.Metal>
0.0000

> <Gold.Chemscore.Lipo>
39.9421

> <Gold.Chemscore.Internal_Hbond>
0.0000

> <Gold.Chemscore.DEClash>
0.6367

> <Gold.Chemscore.DEInternal>
2.2608

> <Gold.Chemscore.Rot>
4.0192

> <Gold.Chemscore.Internal.Correction>
   9.000000E+99

> <Gold.Chemscore.Hbonds>
donor molecule, donor type, donor heavy atom, donor atom, acceptor molecule, acceptor atom, score
      L1  H    20    42       P1  8028  1.00
      L1  H    22    43       P1  7957  0.72
      P1  H  6896  6908       L1    25  0.64
      P1  H  6931  6943       L1     5  0.78
      P1  H  6934  6947       L1     5  0.08
      P1  H  8011  8017       L1    20  0.11
      P1  H 10752 10765       L1    24  0.99

> <Gold.Chemscore.Hbond.Weighted>
-16.1273

> <Gold.Chemscore.Metal.Weighted>
-0.0000

> <Gold.Chemscore.Lipo.Weighted>
-4.6732

> <Gold.Chemscore.Internal_Hbond.Weighted>
0.0000

> <Gold.Chemscore.DEClash.Weighted>
0.6367

> <Gold.Chemscore.DEInternal.Weighted>
2.2608

> <Gold.Chemscore.Rot.Weighted>
10.2893

> <Gold.Chemscore.Internal.Correction.Weighted>
   9.000000E+99

> <Gold.Protein.RotatedTorsions>
[ 6907 6896 6895 6894 ] final  174.36 input  -60.11 | X-H torsion
[ 7974 7965 7964 7962 ] final -120.59 input  175.53 | X-H torsion
[ 8008 7997 7996 7995 ] final -168.12 input   59.86 | X-H torsion
[ 10167 10162 10161 10158 ] final   74.71 input  -65.29 | X-H torsion
[ 10718 10713 10712 10709 ] final   15.23 input   66.30 | X-H torsion
[ 10763 10752 10751 10750 ] final -130.55 input  -60.55 | X-H torsion
[ 11005 11000 10999 10996 ] final   46.39 input  -57.11 | X-H torsion

> <Gold.Protein.ActiveResidues>
 VAL166  LYS551  ARG553  GLY616  TRP617  ASP618  TYR619  PRO620  LYS621  CYS622 
 ASP623  PHE694  ASN695  SER759  ASP760  ASP761  ALA762  ILE779  LEU786  VAL792 
 PHE793  MET794  SER795  GLU796  ALA797  LYS798  CYS799  TRP800  GLU811  SER814 

> <Gold.Protein.RotatedAtoms>
  151.7535  133.3329  159.3397 H   0  0  0  0  0  0  0  0  0  0  0  0  # atno 6907 bound_to 6896
  150.7526  134.6171  159.6126 H   0  0  0  0  0  0  0  0  0  0  0  0  # atno 6908 bound_to 6896
  152.3453  134.7082  160.0304 H   0  0  0  0  0  0  0  0  0  0  0  0  # atno 6909 bound_to 6896
  145.0496  140.8208  143.4217 H   0  0  0  0  0  0  0  0  0  0  0  0  # atno 7974 bound_to 7965
  155.8871  140.1018  157.1445 H   0  0  0  0  0  0  0  0  0  0  0  0  # atno 8008 bound_to 7997
  154.4011  140.1318  156.4333 H   0  0  0  0  0  0  0  0  0  0  0  0  # atno 8009 bound_to 7997
  155.7576  140.3464  155.5184 H   0  0  0  0  0  0  0  0  0  0  0  0  # atno 8010 bound_to 7997
  140.0107  144.5616  150.7661 H   0  0  0  0  0  0  0  0  0  0  0  0  # atno 10167 bound_to 10162
  157.0505  130.6268  149.5767 H   0  0  0  0  0  0  0  0  0  0  0  0  # atno 10718 bound_to 10713
  154.8755  135.3859  154.4101 H   0  0  0  0  0  0  0  0  0  0  0  0  # atno 10763 bound_to 10752
  153.4816  135.7030  153.5940 H   0  0  0  0  0  0  0  0  0  0  0  0  # atno 10764 bound_to 10752
  153.4353  135.3869  155.2162 H   0  0  0  0  0  0  0  0  0  0  0  0  # atno 10765 bound_to 10752
  140.1373  134.4628  155.8475 H   0  0  0  0  0  0  0  0  0  0  0  0  # atno 11005 bound_to 11000
  145.1543  139.2495  143.5424 LP  0  0  0  0  0  0  0  0  0  0  0  0  # atno 17320 bound_to 7965
  146.3517  140.1254  142.8599 LP  0  0  0  0  0  0  0  0  0  0  0  0  # atno 17321 bound_to 7965
  140.7382  143.2775  151.3696 LP  0  0  0  0  0  0  0  0  0  0  0  0  # atno 17342 bound_to 10162
  139.6207  144.0913  152.2388 LP  0  0  0  0  0  0  0  0  0  0  0  0  # atno 17343 bound_to 10162
  156.0009  130.5088  150.7659 LP  0  0  0  0  0  0  0  0  0  0  0  0  # atno 17370 bound_to 10713
  157.5034  131.0920  151.0287 LP  0  0  0  0  0  0  0  0  0  0  0  0  # atno 17371 bound_to 10713
  141.2180  133.6819  156.7182 LP  0  0  0  0  0  0  0  0  0  0  0  0  # atno 17394 bound_to 11000
  140.2766  134.8350  157.3895 LP  0  0  0  0  0  0  0  0  0  0  0  0  # atno 17395 bound_to 11000

$$$$
