AV-unprocessed.smi:2178|AV-procd|sdf|8855|dock3
  -GOLD-   2272012 53D 1   1.00000     0.00000
 Structure written by MMmdl.
 47 49  0  0  0  0  0  0  0  0  2 V2000
  153.9566  140.0383  160.2059 C   0  0  0  0  0  0  0  0  0  0  0  0
  153.3168  141.2711  160.8169 C   0  0  0  0  0  0  0  0  0  0  0  0
  153.4600  141.5143  162.1984 C   0  0  0  0  0  0  0  0  0  0  0  0
  152.8629  142.6455  162.7849 C   0  0  0  0  0  0  0  0  0  0  0  0
  152.1144  143.5362  161.9936 C   0  0  0  0  0  0  0  0  0  0  0  0
  151.9642  143.3032  160.6110 C   0  0  0  0  0  0  0  0  0  0  0  0
  151.1441  144.2666  159.7729 C   0  0  0  0  0  0  0  0  0  0  0  0
  152.5788  142.1756  160.0170 C   0  0  0  0  0  0  0  0  0  0  0  0
  152.4329  141.9479  158.6734 O   0  0  0  0  0  0  0  0  0  0  0  0
  151.0980  141.6539  158.2851 C   0  0  0  0  0  0  0  0  0  0  0  0
  151.0957  140.5696  157.1967 C   0  0  1  0  0  0  0  0  0  0  0  0
  150.1134  139.6012  157.5056 O   0  0  0  0  0  0  0  0  0  0  0  0
  150.9219  141.1313  155.7707 C   0  0  0  0  0  0  0  0  0  0  0  0
  150.3332  140.1543  154.8403 N   0  0  0  0  0  0  0  0  0  0  0  0
  150.8387  138.9816  154.3590 C   0  0  0  0  0  0  0  0  0  0  0  0
  152.1650  138.3750  154.6790 C   0  0  0  0  0  0  0  0  0  0  0  0
  152.4164  137.2094  153.9260 O   0  0  0  0  0  0  0  0  0  0  0  0
  149.8982  138.4464  153.5308 N   0  3  0  0  0  0  0  0  0  0  0  0
  148.7823  139.2822  153.4787 C   0  0  0  0  0  0  0  0  0  0  0  0
  147.5854  139.1608  152.7796 C   0  0  0  0  0  0  0  0  0  0  0  0
  146.6443  140.1972  152.9508 C   0  0  0  0  0  0  0  0  0  0  0  0
  146.9092  141.2972  153.7921 C   0  0  0  0  0  0  0  0  0  0  0  0
  148.1260  141.4090  154.4964 C   0  0  0  0  0  0  0  0  0  0  0  0
  149.0533  140.3818  154.3189 C   0  0  0  0  0  0  0  0  0  0  0  0
  154.1425  139.2771  160.9643 H   0  0  0  0  0  0  0  0  0  0  0  0
  154.9087  140.2971  159.7429 H   0  0  0  0  0  0  0  0  0  0  0  0
  153.3105  139.5992  159.4451 H   0  0  0  0  0  0  0  0  0  0  0  0
  154.0272  140.8317  162.8141 H   0  0  0  0  0  0  0  0  0  0  0  0
  152.9747  142.8266  163.8438 H   0  0  0  0  0  0  0  0  0  0  0  0
  151.6542  144.3986  162.4533 H   0  0  0  0  0  0  0  0  0  0  0  0
  150.5229  143.7261  159.0581 H   0  0  0  0  0  0  0  0  0  0  0  0
  151.7994  144.9397  159.2199 H   0  0  0  0  0  0  0  0  0  0  0  0
  150.4852  144.8699  160.3981 H   0  0  0  0  0  0  0  0  0  0  0  0
  150.5452  141.2871  159.1513 H   0  0  0  0  0  0  0  0  0  0  0  0
  150.5813  142.5503  157.9393 H   0  0  0  0  0  0  0  0  0  0  0  0
  152.0527  140.0498  157.2494 H   0  0  0  0  0  0  0  0  0  0  0  0
  149.7830  139.2429  156.6962 H   0  0  0  0  0  0  0  0  0  0  0  0
  150.3134  142.0356  155.7679 H   0  0  0  0  0  0  0  0  0  0  0  0
  151.8916  141.4261  155.3692 H   0  0  0  0  0  0  0  0  0  0  0  0
  152.9531  139.1020  154.4809 H   0  0  0  0  0  0  0  0  0  0  0  0
  152.2138  138.1342  155.7408 H   0  0  0  0  0  0  0  0  0  0  0  0
  151.9276  137.2608  153.1185 H   0  0  0  0  0  0  0  0  0  0  0  0
  147.3790  138.3178  152.1365 H   0  0  0  0  0  0  0  0  0  0  0  0
  145.7003  140.1467  152.4280 H   0  0  0  0  0  0  0  0  0  0  0  0
  146.1635  142.0714  153.9014 H   0  0  0  0  0  0  0  0  0  0  0  0
  148.3135  142.2538  155.1428 H   0  0  0  0  0  0  0  0  0  0  0  0
  150.0134  137.5684  153.0408 H   0  0  0  0  0  0  0  0  0  0  0  0
  1  2  1  0  0  0  0
  1 25  1  0  0  0  0
  1 26  1  0  0  0  0
  1 27  1  0  0  0  0
  2  8  1  0  0  0  0
  2  3  2  0  0  0  0
  3  4  1  0  0  0  0
  3 28  1  0  0  0  0
  4  5  2  0  0  0  0
  4 29  1  0  0  0  0
  5  6  1  0  0  0  0
  5 30  1  0  0  0  0
  6  7  1  0  0  0  0
  6  8  2  0  0  0  0
  7 31  1  0  0  0  0
  7 32  1  0  0  0  0
  7 33  1  0  0  0  0
  8  9  1  0  0  0  0
  9 10  1  0  0  0  0
 10 11  1  0  0  0  0
 10 34  1  0  0  0  0
 10 35  1  0  0  0  0
 11 12  1  0  0  0  0
 11 13  1  0  0  0  0
 11 36  1  0  0  0  0
 12 37  1  0  0  0  0
 13 14  1  0  0  0  0
 13 38  1  0  0  0  0
 13 39  1  0  0  0  0
 14 24  1  0  0  0  0
 14 15  1  0  0  0  0
 15 16  1  0  0  0  0
 15 18  2  0  0  0  0
 16 17  1  0  0  0  0
 16 40  1  0  0  0  0
 16 41  1  0  0  0  0
 17 42  1  0  0  0  0
 18 19  1  0  0  0  0
 18 47  1  0  0  0  0
 19 24  2  0  0  0  0
 19 20  1  0  0  0  0
 20 21  2  0  0  0  0
 20 43  1  0  0  0  0
 21 22  1  0  0  0  0
 21 44  1  0  0  0  0
 22 23  2  0  0  0  0
 22 45  1  0  0  0  0
 23 24  1  0  0  0  0
 23 46  1  0  0  0  0
M  CHG  1  18   1
M  END
> <s_m_source_file>
AV-unprocessed.smi

> <i_m_source_file_index>
2178

> <i_lp_mmshare_version>
43012

> <i_f3d_flags>
0

> <s_epik_input>
W0NIM11jMVtjSF1bY0hdW2NIXWMoW0NIM10pYzFPW0NIMl1bQ0BIXShbT0hdKVtDSDJdbihjKG4yKVtDSDJdW09IXSljKGMyMylbY0hdW2NIXVtjSF1bY0hdMw==

> <s_epik_cmdline>
J2VwaWtfcHl0aG9uJywgJy1waCcsICc3LjAnLCAnLXRuJywgJzgnLCAnLW1hJywgJzIwMCcsICctbWV0YWxfYmluZGluZycsICctaW1hZScsICc8aW5maWxlLm1hZT4nLCAnLW9tYWUnLCAnPG91dGZpbGUubWFlPic=

> <r_lp_tautomer_probability>
1

> <r_epik_Ionization_Penalty>
1.43125

> <r_epik_Ionization_Penalty_Charging>
1.43039

> <r_epik_Ionization_Penalty_Neutral>
0.000858184

> <r_epik_State_Penalty>
1.51493

> <r_epik_Charging_Adjusted_Penalty>
2.94531

> <i_epik_Tot_Q>
1

> <i_epik_Tot_abs_Q>
1

> <r_epik_Metal_State_Penalty>
5.5599

> <b_epik_Metal_Only>
0

> <s_lp_Force_Field>
OPLS_2005

> <r_lp_Energy>
23.7174

> <b_lp_Chiralities_Consistent>
1

> <s_lp_Variant>
AV-unprocessed.smi:2178-4

> <Gold.Version>
5.8.1

> <Gold.Id.Protein>
6NUR|6NUR_protein|mol2

> <Gold.PLP.Fitness>
67.3219

> <Gold.PLP.PLP>
-59.2417

> <Gold.PLP.part.hbond>
-4.0000

> <Gold.PLP.part.metal>
0.0000

> <Gold.PLP.part.buried>
1.4184

> <Gold.PLP.part.nonpolar>
-56.4970

> <Gold.PLP.part.repulsive>
0.0668

> <Gold.PLP.ligand.clash>
0.0000

> <Gold.PLP.ligand.torsion>
1.3103

> <Gold.PLP.Chemscore.Hbond>
3.4888

> <Gold.PLP.Chemscore.CHOScore>
0.0000

> <Gold.PLP.Chemscore.Metal>
0.0000

> <Gold.Chemscore.Hbonds>
donor molecule, donor type, donor heavy atom, donor atom, acceptor molecule, acceptor atom, score
      L1  H    17    42       P1  7949  0.48
      L1  H    18    47       P1  7948  1.61
      P1  H 10752 10763       L1    17  0.75

> <Gold.PLP.Chemscore.Internal.Correction>
0.2343

> <Gold.Rescore>
     Score         DG    S(hbond)    S(metal)    S(lipo)     H(rot)  DE(clash)    DE(int)     intcor
     19.32     -22.54       2.34        0.00     145.79       3.05       1.75       1.47       ----

> <Gold.Chemscore.Fitness>
19.3165

> <Gold.Chemscore.DG>
-22.5364

> <Gold.Chemscore.ZeroCoef>
-5.4800

> <Gold.Chemscore.Hbond>
2.3357

> <Gold.Chemscore.Metal>
0.0000

> <Gold.Chemscore.Lipo>
145.7855

> <Gold.Chemscore.Internal_Hbond>
0.0000

> <Gold.Chemscore.DEClash>
1.7462

> <Gold.Chemscore.DEInternal>
1.4737

> <Gold.Chemscore.Rot>
3.0476

> <Gold.Chemscore.Internal.Correction>
   9.000000E+99

> <Gold.Chemscore.Hbonds>
donor molecule, donor type, donor heavy atom, donor atom, acceptor molecule, acceptor atom, score
      L1  H    17    42       P1  7949  0.47
      L1  H    18    47       P1  7948  0.17
      P1  H 10752 10763       L1    17  0.62

> <Gold.Chemscore.Hbond.Weighted>
-7.8013

> <Gold.Chemscore.Metal.Weighted>
-0.0000

> <Gold.Chemscore.Lipo.Weighted>
-17.0569

> <Gold.Chemscore.Internal_Hbond.Weighted>
0.0000

> <Gold.Chemscore.DEClash.Weighted>
1.7462

> <Gold.Chemscore.DEInternal.Weighted>
1.4737

> <Gold.Chemscore.Rot.Weighted>
7.8018

> <Gold.Chemscore.Internal.Correction.Weighted>
   9.000000E+99

> <Gold.Protein.RotatedTorsions>
[ 6907 6896 6895 6894 ] final -145.98 input  -60.11 | X-H torsion
[ 7974 7965 7964 7962 ] final  -66.06 input  175.53 | X-H torsion
[ 8008 7997 7996 7995 ] final    9.27 input   59.86 | X-H torsion
[ 10167 10162 10161 10158 ] final -109.73 input  -65.29 | X-H torsion
[ 10718 10713 10712 10709 ] final -163.49 input   66.30 | X-H torsion
[ 10763 10752 10751 10750 ] final   39.04 input  -60.55 | X-H torsion
[ 11005 11000 10999 10996 ] final -125.07 input  -57.11 | X-H torsion

> <Gold.Protein.ActiveResidues>
 VAL166  LYS551  ARG553  GLY616  TRP617  ASP618  TYR619  PRO620  LYS621  CYS622 
 ASP623  PHE694  ASN695  SER759  ASP760  ASP761  ALA762  ILE779  LEU786  VAL792 
 PHE793  MET794  SER795  GLU796  ALA797  LYS798  CYS799  TRP800  GLU811  SER814 

> <Gold.Protein.RotatedAtoms>
  151.1353  133.5009  159.2597 H   0  0  0  0  0  0  0  0  0  0  0  0  # atno 6907 bound_to 6896
  151.1714  135.0319  159.8763 H   0  0  0  0  0  0  0  0  0  0  0  0  # atno 6908 bound_to 6896
  152.5461  134.1215  159.8454 H   0  0  0  0  0  0  0  0  0  0  0  0  # atno 6909 bound_to 6896
  145.7465  140.8929  143.0502 H   0  0  0  0  0  0  0  0  0  0  0  0  # atno 7974 bound_to 7965
  154.7778  140.2813  155.6087 H   0  0  0  0  0  0  0  0  0  0  0  0  # atno 8008 bound_to 7997
  156.2945  140.2629  156.2524 H   0  0  0  0  0  0  0  0  0  0  0  0  # atno 8009 bound_to 7997
  154.9821  140.0374  157.2272 H   0  0  0  0  0  0  0  0  0  0  0  0  # atno 8010 bound_to 7997
  140.1521  143.4190  152.1487 H   0  0  0  0  0  0  0  0  0  0  0  0  # atno 10167 bound_to 10162
  156.6254  130.8907  151.2966 H   0  0  0  0  0  0  0  0  0  0  0  0  # atno 10718 bound_to 10713
  152.9980  135.6232  154.2400 H   0  0  0  0  0  0  0  0  0  0  0  0  # atno 10763 bound_to 10752
  154.2141  135.2798  155.2949 H   0  0  0  0  0  0  0  0  0  0  0  0  # atno 10764 bound_to 10752
  154.5582  135.5713  153.7042 H   0  0  0  0  0  0  0  0  0  0  0  0  # atno 10765 bound_to 10752
  140.9791  134.0698  157.3785 H   0  0  0  0  0  0  0  0  0  0  0  0  # atno 11005 bound_to 11000
  144.6859  139.9532  143.7478 LP  0  0  0  0  0  0  0  0  0  0  0  0  # atno 17320 bound_to 7965
  146.0398  139.3411  143.0704 LP  0  0  0  0  0  0  0  0  0  0  0  0  # atno 17321 bound_to 7965
  139.5421  144.7265  151.4701 LP  0  0  0  0  0  0  0  0  0  0  0  0  # atno 17342 bound_to 10162
  140.6696  143.8323  150.6983 LP  0  0  0  0  0  0  0  0  0  0  0  0  # atno 17343 bound_to 10162
  157.7215  130.9565  150.1460 LP  0  0  0  0  0  0  0  0  0  0  0  0  # atno 17370 bound_to 10713
  156.2277  130.3679  149.8481 LP  0  0  0  0  0  0  0  0  0  0  0  0  # atno 17371 bound_to 10713
  139.8943  135.0135  156.6942 LP  0  0  0  0  0  0  0  0  0  0  0  0  # atno 17394 bound_to 11000
  140.7214  133.9138  155.8149 LP  0  0  0  0  0  0  0  0  0  0  0  0  # atno 17395 bound_to 11000

$$$$
