AV-unprocessed.smi:2476|AV-procd|sdf|9757|dock5
  -GOLD-   2272013393D 1   1.00000     0.00000
 Structure written by MMmdl.
 34 35  0  0  0  0  0  0  0  0  1 V2000
  145.5746  143.2482  155.5306 C   0  0  0  0  0  0  0  0  0  0  0  0
  146.3290  142.0606  154.9424 C   0  0  0  0  0  0  0  0  0  0  0  0
  145.7767  140.9649  154.8475 O   0  0  0  0  0  0  0  0  0  0  0  0
  147.5914  142.2913  154.5522 N   0  0  0  0  0  0  0  0  0  0  0  0
  148.4802  141.2996  153.9563 C   0  0  0  0  0  0  0  0  0  0  0  0
  149.4022  140.6544  155.0050 C   0  0  2  0  0  0  0  0  0  0  0  0
  150.0989  141.7124  155.8819 C   0  0  0  0  0  0  0  0  0  0  0  0
  151.0334  141.0710  156.8033 N   0  0  0  0  0  0  0  0  0  0  0  0
  151.5838  141.8630  157.8314 C   0  0  0  0  0  0  0  0  0  0  0  0
  151.5378  143.2122  157.6950 N   0  0  0  0  0  0  0  0  0  0  0  0
  152.0695  143.9838  158.6668 C   0  0  0  0  0  0  0  0  0  0  0  0
  152.6739  143.4591  159.8246 C   0  0  0  0  0  0  0  0  0  0  0  0
  152.7200  142.0612  159.9757 C   0  0  0  0  0  0  0  0  0  0  0  0
  152.1665  141.2484  158.9674 C   0  0  0  0  0  0  0  0  0  0  0  0
  152.1814  139.9005  159.1076 F   0  0  0  0  0  0  0  0  0  0  0  0
  151.9919  140.2026  156.1279 C   0  0  0  0  0  0  0  0  0  0  0  0
  151.2528  139.1961  155.2304 C   0  0  0  0  0  0  0  0  0  0  0  0
  150.4013  139.8944  154.3272 O   0  0  0  0  0  0  0  0  0  0  0  0
  145.7958  144.1611  154.9763 H   0  0  0  0  0  0  0  0  0  0  0  0
  145.8593  143.3979  156.5723 H   0  0  0  0  0  0  0  0  0  0  0  0
  144.4979  143.0797  155.4898 H   0  0  0  0  0  0  0  0  0  0  0  0
  147.9610  143.2242  154.6650 H   0  0  0  0  0  0  0  0  0  0  0  0
  147.8691  140.5358  153.4748 H   0  0  0  0  0  0  0  0  0  0  0  0
  149.0719  141.7649  153.1661 H   0  0  0  0  0  0  0  0  0  0  0  0
  148.8139  139.9916  155.6425 H   0  0  0  0  0  0  0  0  0  0  0  0
  150.6379  142.4225  155.2528 H   0  0  0  0  0  0  0  0  0  0  0  0
  149.3524  142.2751  156.4444 H   0  0  0  0  0  0  0  0  0  0  0  0
  152.0112  145.0514  158.5160 H   0  0  0  0  0  0  0  0  0  0  0  0
  153.0875  144.1121  160.5787 H   0  0  0  0  0  0  0  0  0  0  0  0
  153.1686  141.6187  160.8529 H   0  0  0  0  0  0  0  0  0  0  0  0
  152.6606  140.8178  155.5244 H   0  0  0  0  0  0  0  0  0  0  0  0
  152.6155  139.6650  156.8414 H   0  0  0  0  0  0  0  0  0  0  0  0
  151.9689  138.6059  154.6590 H   0  0  0  0  0  0  0  0  0  0  0  0
  150.6689  138.4955  155.8295 H   0  0  0  0  0  0  0  0  0  0  0  0
  1  2  1  0  0  0  0
  1 19  1  0  0  0  0
  1 20  1  0  0  0  0
  1 21  1  0  0  0  0
  2  3  2  0  0  0  0
  2  4  1  0  0  0  0
  4  5  1  0  0  0  0
  4 22  1  0  0  0  0
  5  6  1  0  0  0  0
  5 23  1  0  0  0  0
  5 24  1  0  0  0  0
  6 18  1  0  0  0  0
  6  7  1  0  0  0  0
  6 25  1  0  0  0  0
  7  8  1  0  0  0  0
  7 26  1  0  0  0  0
  7 27  1  0  0  0  0
  8  9  1  0  0  0  0
  8 16  1  0  0  0  0
  9 14  1  0  0  0  0
  9 10  2  0  0  0  0
 10 11  1  0  0  0  0
 11 12  2  0  0  0  0
 11 28  1  0  0  0  0
 12 13  1  0  0  0  0
 12 29  1  0  0  0  0
 13 14  2  0  0  0  0
 13 30  1  0  0  0  0
 14 15  1  0  0  0  0
 16 17  1  0  0  0  0
 16 31  1  0  0  0  0
 16 32  1  0  0  0  0
 17 18  1  0  0  0  0
 17 33  1  0  0  0  0
 17 34  1  0  0  0  0
M  END
> <s_m_source_file>
AV-unprocessed.smi

> <i_m_source_file_index>
2476

> <i_lp_mmshare_version>
43012

> <i_f3d_flags>
0

> <s_epik_input>
W0NIM11DKD1PKVtOSF1bQ0gyXVtDQEBIXTFbQ0gyXU4oW0NIMl1bQ0gyXU8xKWMybltjSF1bY0hdW2NIXWMyRg==

> <s_epik_cmdline>
J2VwaWtfcHl0aG9uJywgJy1waCcsICc3LjAnLCAnLXRuJywgJzgnLCAnLW1hJywgJzIwMCcsICctbWV0YWxfYmluZGluZycsICctaW1hZScsICc8aW5maWxlLm1hZT4nLCAnLW9tYWUnLCAnPG91dGZpbGUubWFlPic=

> <r_lp_tautomer_probability>
1

> <r_epik_Ionization_Penalty>
1.69306e-05

> <r_epik_Ionization_Penalty_Charging>
0

> <r_epik_Ionization_Penalty_Neutral>
1.69306e-05

> <r_epik_State_Penalty>
-0

> <r_epik_Charging_Adjusted_Penalty>
0

> <i_epik_Tot_Q>
0

> <i_epik_Tot_abs_Q>
0

> <r_epik_Metal_State_Penalty>
-0

> <b_epik_Metal_Only>
0

> <s_lp_Force_Field>
OPLS_2005

> <r_lp_Energy>
18.0017

> <b_lp_Chiralities_Consistent>
1

> <s_lp_Variant>
AV-unprocessed.smi:2476-1

> <Gold.Version>
5.8.1

> <Gold.Id.Protein>
6NUR|6NUR_protein|mol2

> <Gold.PLP.Fitness>
43.5634

> <Gold.PLP.PLP>
-38.2857

> <Gold.PLP.part.hbond>
-2.0000

> <Gold.PLP.part.metal>
0.0000

> <Gold.PLP.part.buried>
-5.0601

> <Gold.PLP.part.nonpolar>
-32.1179

> <Gold.PLP.part.repulsive>
0.5236

> <Gold.PLP.ligand.clash>
0.0000

> <Gold.PLP.ligand.torsion>
0.4900

> <Gold.PLP.Chemscore.Hbond>
2.0000

> <Gold.PLP.Chemscore.CHOScore>
0.0000

> <Gold.PLP.Chemscore.Metal>
0.0000

> <Gold.Chemscore.Hbonds>
donor molecule, donor type, donor heavy atom, donor atom, acceptor molecule, acceptor atom, score
      L1  H     4    22       P1  8028  1.00
      P1  H  7989  7998       L1    18  0.95

> <Gold.PLP.Chemscore.Internal.Correction>
0.2577

> <Gold.Rescore>
     Score         DG    S(hbond)    S(metal)    S(lipo)     H(rot)  DE(clash)    DE(int)     intcor
     15.37     -17.02       1.82        0.00      81.83       1.61       0.18       1.47       ----

> <Gold.Chemscore.Fitness>
15.3657

> <Gold.Chemscore.DG>
-17.0221

> <Gold.Chemscore.ZeroCoef>
-5.4800

> <Gold.Chemscore.Hbond>
1.8216

> <Gold.Chemscore.Metal>
0.0000

> <Gold.Chemscore.Lipo>
81.8266

> <Gold.Chemscore.Internal_Hbond>
0.0000

> <Gold.Chemscore.DEClash>
0.1825

> <Gold.Chemscore.DEInternal>
1.4739

> <Gold.Chemscore.Rot>
1.6078

> <Gold.Chemscore.Internal.Correction>
   9.000000E+99

> <Gold.Chemscore.Hbonds>
donor molecule, donor type, donor heavy atom, donor atom, acceptor molecule, acceptor atom, score
      L1  H     4    22       P1  8028  0.82
      P1  H  7989  7998       L1    18  0.19

> <Gold.Chemscore.Hbond.Weighted>
-6.0843

> <Gold.Chemscore.Metal.Weighted>
-0.0000

> <Gold.Chemscore.Lipo.Weighted>
-9.5737

> <Gold.Chemscore.Internal_Hbond.Weighted>
0.0000

> <Gold.Chemscore.DEClash.Weighted>
0.1825

> <Gold.Chemscore.DEInternal.Weighted>
1.4739

> <Gold.Chemscore.Rot.Weighted>
4.1159

> <Gold.Chemscore.Internal.Correction.Weighted>
   9.000000E+99

> <Gold.Protein.RotatedTorsions>
[ 6907 6896 6895 6894 ] final  121.63 input  -60.11 | X-H torsion
[ 7974 7965 7964 7962 ] final   39.97 input  175.53 | X-H torsion
[ 8008 7997 7996 7995 ] final   63.46 input   59.86 | X-H torsion
[ 10167 10162 10161 10158 ] final   97.53 input  -65.29 | X-H torsion
[ 10718 10713 10712 10709 ] final  167.28 input   66.30 | X-H torsion
[ 10763 10752 10751 10750 ] final  -67.00 input  -60.55 | X-H torsion
[ 11005 11000 10999 10996 ] final   -3.68 input  -57.11 | X-H torsion

> <Gold.Protein.ActiveResidues>
 VAL166  LYS551  ARG553  GLY616  TRP617  ASP618  TYR619  PRO620  LYS621  CYS622 
 ASP623  PHE694  ASN695  SER759  ASP760  ASP761  ALA762  ILE779  LEU786  VAL792 
 PHE793  MET794  SER795  GLU796  ALA797  LYS798  CYS799  TRP800  GLU811  SER814 

> <Gold.Protein.RotatedAtoms>
  152.4307  133.7272  159.6566 H   0  0  0  0  0  0  0  0  0  0  0  0  # atno 6907 bound_to 6896
  150.8186  133.8283  159.3155 H   0  0  0  0  0  0  0  0  0  0  0  0  # atno 6908 bound_to 6896
  151.5972  135.1052  160.0104 H   0  0  0  0  0  0  0  0  0  0  0  0  # atno 6909 bound_to 6896
  146.0942  139.5588  142.9456 H   0  0  0  0  0  0  0  0  0  0  0  0  # atno 7974 bound_to 7965
  155.6305  140.3496  155.4681 H   0  0  0  0  0  0  0  0  0  0  0  0  # atno 8008 bound_to 7997
  156.0007  140.1212  157.0574 H   0  0  0  0  0  0  0  0  0  0  0  0  # atno 8009 bound_to 7997
  154.4248  140.1101  156.5678 H   0  0  0  0  0  0  0  0  0  0  0  0  # atno 8010 bound_to 7997
  139.7793  144.6894  151.0045 H   0  0  0  0  0  0  0  0  0  0  0  0  # atno 10167 bound_to 10162
  157.0538  131.0321  151.2671 H   0  0  0  0  0  0  0  0  0  0  0  0  # atno 10718 bound_to 10713
  154.3681  135.6101  153.5725 H   0  0  0  0  0  0  0  0  0  0  0  0  # atno 10763 bound_to 10752
  152.9791  135.5831  154.4554 H   0  0  0  0  0  0  0  0  0  0  0  0  # atno 10764 bound_to 10752
  154.4303  135.2847  155.1894 H   0  0  0  0  0  0  0  0  0  0  0  0  # atno 10765 bound_to 10752
  140.6720  133.9228  155.8500 H   0  0  0  0  0  0  0  0  0  0  0  0  # atno 11005 bound_to 11000
  145.5981  141.0359  143.2033 LP  0  0  0  0  0  0  0  0  0  0  0  0  # atno 17320 bound_to 7965
  144.7382  139.7523  143.7321 LP  0  0  0  0  0  0  0  0  0  0  0  0  # atno 17321 bound_to 7965
  140.7817  143.4501  151.0425 LP  0  0  0  0  0  0  0  0  0  0  0  0  # atno 17342 bound_to 10162
  139.8182  143.7856  152.3175 LP  0  0  0  0  0  0  0  0  0  0  0  0  # atno 17343 bound_to 10162
  157.5009  130.7879  149.7604 LP  0  0  0  0  0  0  0  0  0  0  0  0  # atno 17370 bound_to 10713
  155.9999  130.3886  150.2646 LP  0  0  0  0  0  0  0  0  0  0  0  0  # atno 17371 bound_to 10713
  141.0385  134.0655  157.3931 LP  0  0  0  0  0  0  0  0  0  0  0  0  # atno 17394 bound_to 11000
  139.8978  135.0152  156.7120 LP  0  0  0  0  0  0  0  0  0  0  0  0  # atno 17395 bound_to 11000

$$$$
