AV-unprocessed.smi:3235|AV-procd|sdf|12360|dock2
  -GOLD-   2272018223D 1   1.00000     0.00000
 Structure written by MMmdl.
 41 42  0  0  0  0  0  0  0  0  2 V2000
  144.0671  132.1747  148.4299 C   0  0  0  0  0  0  0  0  0  0  0  0
  144.7955  132.8336  149.5657 C   0  0  0  0  0  0  0  0  0  0  0  0
  146.0675  132.4873  150.1037 C   0  0  0  0  0  0  0  0  0  0  0  0
  146.4304  133.2682  151.1085 N   0  0  0  0  0  0  0  0  0  0  0  0
  145.4060  134.1356  151.2484 N   0  0  0  0  0  0  0  0  0  0  0  0
  145.4633  135.1546  152.2783 C   0  0  0  0  0  0  0  0  0  0  0  0
  145.6204  136.5593  151.6784 C   0  0  0  0  0  0  0  0  0  0  0  0
  146.4639  137.4138  152.5360 N   0  3  0  0  0  0  0  0  0  0  0  0
  146.6346  138.7878  152.0253 C   0  0  0  0  0  0  0  0  0  0  0  0
  147.1867  139.7185  153.1124 C   0  0  0  0  0  0  0  0  0  0  0  0
  148.2550  139.0322  153.9805 C   0  0  0  0  0  0  0  0  0  0  0  0
  148.8682  139.9627  154.9247 N   0  0  0  0  0  0  0  0  0  0  0  0
  148.0503  140.7273  155.8513 C   0  0  0  0  0  0  0  0  0  0  0  0
  149.0235  141.6992  156.5341 C   0  0  0  0  0  0  0  0  0  0  0  0
  150.4286  141.1872  156.1986 C   0  0  0  0  0  0  0  0  0  0  0  0
  150.1791  140.1713  155.0971 C   0  0  0  0  0  0  0  0  0  0  0  0
  151.0876  139.6305  154.4683 O   0  0  0  0  0  0  0  0  0  0  0  0
  144.4073  133.8994  150.3274 C   0  0  0  0  0  0  0  0  0  0  0  0
  144.1513  131.0887  148.4738 H   0  0  0  0  0  0  0  0  0  0  0  0
  144.4619  132.4892  147.4637 H   0  0  0  0  0  0  0  0  0  0  0  0
  143.0036  132.4139  148.4365 H   0  0  0  0  0  0  0  0  0  0  0  0
  146.7335  131.6948  149.7956 H   0  0  0  0  0  0  0  0  0  0  0  0
  144.5537  135.0922  152.8779 H   0  0  0  0  0  0  0  0  0  0  0  0
  146.2982  134.9294  152.9434 H   0  0  0  0  0  0  0  0  0  0  0  0
  146.0677  136.4927  150.6854 H   0  0  0  0  0  0  0  0  0  0  0  0
  144.6431  137.0296  151.5606 H   0  0  0  0  0  0  0  0  0  0  0  0
  146.0421  137.4630  153.4525 H   0  0  0  0  0  0  0  0  0  0  0  0
  147.3103  138.7718  151.1693 H   0  0  0  0  0  0  0  0  0  0  0  0
  145.6723  139.1594  151.6707 H   0  0  0  0  0  0  0  0  0  0  0  0
  147.6091  140.6078  152.6424 H   0  0  0  0  0  0  0  0  0  0  0  0
  146.3697  140.0628  153.7478 H   0  0  0  0  0  0  0  0  0  0  0  0
  147.8089  138.2027  154.5310 H   0  0  0  0  0  0  0  0  0  0  0  0
  149.0325  138.5986  153.3496 H   0  0  0  0  0  0  0  0  0  0  0  0
  147.2490  141.2549  155.3322 H   0  0  0  0  0  0  0  0  0  0  0  0
  147.6000  140.0502  156.5786 H   0  0  0  0  0  0  0  0  0  0  0  0
  148.8906  142.7054  156.1344 H   0  0  0  0  0  0  0  0  0  0  0  0
  148.8540  141.7496  157.6103 H   0  0  0  0  0  0  0  0  0  0  0  0
  151.0894  141.9868  155.8620 H   0  0  0  0  0  0  0  0  0  0  0  0
  150.8860  140.6899  157.0542 H   0  0  0  0  0  0  0  0  0  0  0  0
  143.5106  134.5004  150.2910 H   0  0  0  0  0  0  0  0  0  0  0  0
  147.3748  136.9860  152.6215 H   0  0  0  0  0  0  0  0  0  0  0  0
  1  2  1  0  0  0  0
  1 19  1  0  0  0  0
  1 20  1  0  0  0  0
  1 21  1  0  0  0  0
  2 18  2  0  0  0  0
  2  3  1  0  0  0  0
  3  4  2  0  0  0  0
  3 22  1  0  0  0  0
  4  5  1  0  0  0  0
  5  6  1  0  0  0  0
  5 18  1  0  0  0  0
  6  7  1  0  0  0  0
  6 23  1  0  0  0  0
  6 24  1  0  0  0  0
  7  8  1  0  0  0  0
  7 25  1  0  0  0  0
  7 26  1  0  0  0  0
  8  9  1  0  0  0  0
  8 27  1  0  0  0  0
  8 41  1  0  0  0  0
  9 10  1  0  0  0  0
  9 28  1  0  0  0  0
  9 29  1  0  0  0  0
 10 11  1  0  0  0  0
 10 30  1  0  0  0  0
 10 31  1  0  0  0  0
 11 12  1  0  0  0  0
 11 32  1  0  0  0  0
 11 33  1  0  0  0  0
 12 16  1  0  0  0  0
 12 13  1  0  0  0  0
 13 14  1  0  0  0  0
 13 34  1  0  0  0  0
 13 35  1  0  0  0  0
 14 15  1  0  0  0  0
 14 36  1  0  0  0  0
 14 37  1  0  0  0  0
 15 16  1  0  0  0  0
 15 38  1  0  0  0  0
 15 39  1  0  0  0  0
 16 17  2  0  0  0  0
 18 40  1  0  0  0  0
M  CHG  1   8   1
M  END
> <s_m_source_file>
AV-unprocessed.smi

> <i_m_source_file_index>
3235

> <i_lp_mmshare_version>
43012

> <i_f3d_flags>
0

> <s_epik_input>
W0NIM11jMVtjSF1ubihbY0hdMSlbQ0gyXVtDSDJdW05IXVtDSDJdW0NIMl1bQ0gyXU4yW0NIMl1bQ0gyXVtDSDJdQzI9Tw==

> <s_epik_cmdline>
J2VwaWtfcHl0aG9uJywgJy1waCcsICc3LjAnLCAnLXRuJywgJzgnLCAnLW1hJywgJzIwMCcsICctbWV0YWxfYmluZGluZycsICctaW1hZScsICc8aW5maWxlLm1hZT4nLCAnLW9tYWUnLCAnPG91dGZpbGUubWFlPic=

> <r_lp_tautomer_probability>
1

> <r_epik_Ionization_Penalty>
0.00490609

> <r_epik_Ionization_Penalty_Charging>
0.00490019

> <r_epik_Ionization_Penalty_Neutral>
5.89696e-06

> <r_epik_State_Penalty>
-0

> <r_epik_Charging_Adjusted_Penalty>
0.00490019

> <i_epik_Tot_Q>
1

> <i_epik_Tot_abs_Q>
1

> <r_epik_Metal_State_Penalty>
-0

> <b_epik_Metal_Only>
0

> <s_lp_Force_Field>
OPLS_2005

> <r_lp_Energy>
17.6896

> <b_lp_Chiralities_Consistent>
1

> <s_lp_Variant>
AV-unprocessed.smi:3235-1

> <Gold.Version>
5.8.1

> <Gold.Id.Protein>
6NUR|6NUR_protein|mol2

> <Gold.PLP.Fitness>
46.9698

> <Gold.PLP.PLP>
-32.8825

> <Gold.PLP.part.hbond>
-2.0000

> <Gold.PLP.part.metal>
0.0000

> <Gold.PLP.part.buried>
1.0548

> <Gold.PLP.part.nonpolar>
-32.2756

> <Gold.PLP.part.repulsive>
0.3518

> <Gold.PLP.ligand.clash>
0.0000

> <Gold.PLP.ligand.torsion>
0.5265

> <Gold.PLP.Chemscore.Hbond>
3.0000

> <Gold.PLP.Chemscore.CHOScore>
1.9741

> <Gold.PLP.Chemscore.Metal>
0.0000

> <Gold.Chemscore.Hbonds>
donor molecule, donor type, donor heavy atom, donor atom, acceptor molecule, acceptor atom, score
      L1  H     8    41       P1  7948  2.00
      P1  H  7989  7998       L1    17  1.00
      L1  C     3    22       P1 10747  1.00
      L1  C    18    40       P1 10186  0.82

> <Gold.PLP.Chemscore.Internal.Correction>
0.2181

> <Gold.Rescore>
     Score         DG    S(hbond)    S(metal)    S(lipo)     H(rot)  DE(clash)    DE(int)     intcor
     15.90     -16.50       1.95        0.00      85.73       2.16       0.17       0.43       ----

> <Gold.Chemscore.Fitness>
15.8954

> <Gold.Chemscore.DG>
-16.4960

> <Gold.Chemscore.ZeroCoef>
-5.4800

> <Gold.Chemscore.Hbond>
1.9506

> <Gold.Chemscore.Metal>
0.0000

> <Gold.Chemscore.Lipo>
85.7279

> <Gold.Chemscore.Internal_Hbond>
0.0000

> <Gold.Chemscore.DEClash>
0.1682

> <Gold.Chemscore.DEInternal>
0.4324

> <Gold.Chemscore.Rot>
2.1598

> <Gold.Chemscore.Internal.Correction>
   9.000000E+99

> <Gold.Chemscore.Hbonds>
donor molecule, donor type, donor heavy atom, donor atom, acceptor molecule, acceptor atom, score
      L1  H     8    41       P1  7948  0.95
      P1  H  7989  7998       L1    17  0.40

> <Gold.Chemscore.Hbond.Weighted>
-6.5149

> <Gold.Chemscore.Metal.Weighted>
-0.0000

> <Gold.Chemscore.Lipo.Weighted>
-10.0302

> <Gold.Chemscore.Internal_Hbond.Weighted>
0.0000

> <Gold.Chemscore.DEClash.Weighted>
0.1682

> <Gold.Chemscore.DEInternal.Weighted>
0.4324

> <Gold.Chemscore.Rot.Weighted>
5.5291

> <Gold.Chemscore.Internal.Correction.Weighted>
   9.000000E+99

> <Gold.Protein.RotatedTorsions>
[ 6907 6896 6895 6894 ] final   12.96 input  -60.11 | X-H torsion
[ 7974 7965 7964 7962 ] final  -64.29 input  175.53 | X-H torsion
[ 8008 7997 7996 7995 ] final -128.01 input   59.86 | X-H torsion
[ 10167 10162 10161 10158 ] final  -14.56 input  -65.29 | X-H torsion
[ 10718 10713 10712 10709 ] final -125.93 input   66.30 | X-H torsion
[ 10763 10752 10751 10750 ] final  103.75 input  -60.55 | X-H torsion
[ 11005 11000 10999 10996 ] final   70.31 input  -57.11 | X-H torsion

> <Gold.Protein.ActiveResidues>
 VAL166  LYS551  ARG553  GLY616  TRP617  ASP618  TYR619  PRO620  LYS621  CYS622 
 ASP623  PHE694  ASN695  SER759  ASP760  ASP761  ALA762  ILE779  LEU786  VAL792 
 PHE793  MET794  SER795  GLU796  ALA797  LYS798  CYS799  TRP800  GLU811  SER814 

> <Gold.Protein.RotatedAtoms>
  151.7786  135.0767  160.0370 H   0  0  0  0  0  0  0  0  0  0  0  0  # atno 6907 bound_to 6896
  152.3238  133.5879  159.5771 H   0  0  0  0  0  0  0  0  0  0  0  0  # atno 6908 bound_to 6896
  150.7384  133.9886  159.3641 H   0  0  0  0  0  0  0  0  0  0  0  0  # atno 6909 bound_to 6896
  145.7686  140.8824  143.0392 H   0  0  0  0  0  0  0  0  0  0  0  0  # atno 7974 bound_to 7965
  155.2557  140.0434  157.2992 H   0  0  0  0  0  0  0  0  0  0  0  0  # atno 8008 bound_to 7997
  154.5741  140.2382  155.8117 H   0  0  0  0  0  0  0  0  0  0  0  0  # atno 8009 bound_to 7997
  156.2145  140.2989  155.9816 H   0  0  0  0  0  0  0  0  0  0  0  0  # atno 8010 bound_to 7997
  140.7203  143.5309  150.9521 H   0  0  0  0  0  0  0  0  0  0  0  0  # atno 10167 bound_to 10162
  156.1719  130.6673  151.0191 H   0  0  0  0  0  0  0  0  0  0  0  0  # atno 10718 bound_to 10713
  153.3568  135.3966  155.1688 H   0  0  0  0  0  0  0  0  0  0  0  0  # atno 10763 bound_to 10752
  154.8672  135.3670  154.5150 H   0  0  0  0  0  0  0  0  0  0  0  0  # atno 10764 bound_to 10752
  153.5607  135.7081  153.5609 H   0  0  0  0  0  0  0  0  0  0  0  0  # atno 10765 bound_to 10752
  139.9604  134.7070  156.0658 H   0  0  0  0  0  0  0  0  0  0  0  0  # atno 11005 bound_to 11000
  144.6817  139.9823  143.7483 LP  0  0  0  0  0  0  0  0  0  0  0  0  # atno 17320 bound_to 7965
  146.0193  139.3237  143.0823 LP  0  0  0  0  0  0  0  0  0  0  0  0  # atno 17321 bound_to 7965
  139.9029  143.6813  152.3128 LP  0  0  0  0  0  0  0  0  0  0  0  0  # atno 17342 bound_to 10162
  139.7169  144.7610  151.1019 LP  0  0  0  0  0  0  0  0  0  0  0  0  # atno 17343 bound_to 10162
  157.6809  131.0838  150.7372 LP  0  0  0  0  0  0  0  0  0  0  0  0  # atno 17370 bound_to 10713
  156.7431  130.4745  149.5473 LP  0  0  0  0  0  0  0  0  0  0  0  0  # atno 17371 bound_to 10713
  141.1281  133.6594  156.3390 LP  0  0  0  0  0  0  0  0  0  0  0  0  # atno 17394 bound_to 11000
  140.5512  134.6025  157.5408 LP  0  0  0  0  0  0  0  0  0  0  0  0  # atno 17395 bound_to 11000

$$$$
