AV-unprocessed.smi:1697|AV-procd|sdf|6807|dock4
  -GOLD-   22720 7583D 1   1.00000     0.00000
 Structure written by MMmdl.
 55 57  0  0  0  0  0  0  0  0  3 V2000
  147.3421  132.6183  152.5603 C   0  0  0  0  0  0  0  0  0  0  0  0
  146.6288  133.7006  153.3738 C   0  0  0  0  0  0  0  0  0  0  0  0
  146.9680  133.5384  154.7431 O   0  0  0  0  0  0  0  0  0  0  0  0
  147.9978  134.4029  155.2035 C   0  0  2  0  0  0  0  0  0  0  0  0
  147.6016  135.8822  155.0421 C   0  0  0  0  0  0  0  0  0  0  0  0
  148.7778  136.8129  155.3845 C   0  0  0  0  0  0  0  0  0  0  0  0
  149.9720  136.4998  154.5538 N   0  3  1  0  0  0  0  0  0  0  0  0
  151.1028  137.4424  154.7599 C   0  0  0  0  0  0  0  0  0  0  0  0
  150.6502  138.8883  155.0523 C   0  0  2  0  0  0  0  0  0  0  0  0
  150.5218  139.5943  153.8323 O   0  0  0  0  0  0  0  0  0  0  0  0
  151.6682  139.6239  155.9466 C   0  0  0  0  0  0  0  0  0  0  0  0
  151.1726  140.9176  156.4354 N   0  0  0  0  0  0  0  0  0  0  0  0
  150.2585  141.7668  155.8916 C   0  0  0  0  0  0  0  0  0  0  0  0
  150.1451  142.8372  156.7260 N   0  3  0  0  0  0  0  0  0  0  0  0
  151.0003  142.6697  157.8173 C   0  0  0  0  0  0  0  0  0  0  0  0
  151.2393  143.4805  158.9206 C   0  0  0  0  0  0  0  0  0  0  0  0
  152.1837  143.0209  159.8663 C   0  0  0  0  0  0  0  0  0  0  0  0
  152.4708  143.8848  161.0826 C   0  0  0  0  0  0  0  0  0  0  0  0
  152.8515  141.7813  159.6885 C   0  0  0  0  0  0  0  0  0  0  0  0
  153.8648  141.2973  160.7119 C   0  0  0  0  0  0  0  0  0  0  0  0
  152.5935  140.9703  158.5601 C   0  0  0  0  0  0  0  0  0  0  0  0
  151.6623  141.4398  157.6371 C   0  0  0  0  0  0  0  0  0  0  0  0
  150.3909  135.0839  154.7197 C   0  0  0  0  0  0  0  0  0  0  0  0
  149.2485  134.1209  154.3594 C   0  0  0  0  0  0  0  0  0  0  0  0
  147.1089  132.7112  151.4993 H   0  0  0  0  0  0  0  0  0  0  0  0
  147.0385  131.6220  152.8828 H   0  0  0  0  0  0  0  0  0  0  0  0
  148.4242  132.6920  152.6733 H   0  0  0  0  0  0  0  0  0  0  0  0
  146.9264  134.6856  153.0138 H   0  0  0  0  0  0  0  0  0  0  0  0
  145.5499  133.6111  153.2394 H   0  0  0  0  0  0  0  0  0  0  0  0
  148.2289  134.1884  156.2485 H   0  0  0  0  0  0  0  0  0  0  0  0
  147.2781  136.0662  154.0165 H   0  0  0  0  0  0  0  0  0  0  0  0
  146.7538  136.1257  155.6821 H   0  0  0  0  0  0  0  0  0  0  0  0
  148.4623  137.8436  155.2289 H   0  0  0  0  0  0  0  0  0  0  0  0
  149.0334  136.7186  156.4413 H   0  0  0  0  0  0  0  0  0  0  0  0
  151.7325  137.0701  155.5696 H   0  0  0  0  0  0  0  0  0  0  0  0
  151.7336  137.4561  153.8694 H   0  0  0  0  0  0  0  0  0  0  0  0
  149.6830  138.8949  155.5531 H   0  0  0  0  0  0  0  0  0  0  0  0
  149.7810  139.2531  153.3551 H   0  0  0  0  0  0  0  0  0  0  0  0
  151.9472  139.0140  156.8070 H   0  0  0  0  0  0  0  0  0  0  0  0
  152.5893  139.8162  155.3943 H   0  0  0  0  0  0  0  0  0  0  0  0
  149.7193  141.6181  154.9670 H   0  0  0  0  0  0  0  0  0  0  0  0
  150.7265  144.4225  159.0500 H   0  0  0  0  0  0  0  0  0  0  0  0
  153.5267  144.1537  161.1216 H   0  0  0  0  0  0  0  0  0  0  0  0
  152.2145  143.3527  161.9992 H   0  0  0  0  0  0  0  0  0  0  0  0
  151.8929  144.8093  161.0609 H   0  0  0  0  0  0  0  0  0  0  0  0
  154.2708  140.3222  160.4417 H   0  0  0  0  0  0  0  0  0  0  0  0
  153.4033  141.2045  161.6950 H   0  0  0  0  0  0  0  0  0  0  0  0
  154.6984  141.9962  160.7844 H   0  0  0  0  0  0  0  0  0  0  0  0
  153.1026  140.0278  158.4245 H   0  0  0  0  0  0  0  0  0  0  0  0
  151.2470  134.8736  154.0775 H   0  0  0  0  0  0  0  0  0  0  0  0
  150.7162  134.9162  155.7478 H   0  0  0  0  0  0  0  0  0  0  0  0
  149.5718  133.0900  154.5082 H   0  0  0  0  0  0  0  0  0  0  0  0
  149.0094  134.2195  153.2993 H   0  0  0  0  0  0  0  0  0  0  0  0
  149.6943  136.5950  153.5875 H   0  0  0  0  0  0  0  0  0  0  0  0
  149.5299  143.6233  156.5590 H   0  0  0  0  0  0  0  0  0  0  0  0
  1  2  1  0  0  0  0
  1 25  1  0  0  0  0
  1 26  1  0  0  0  0
  1 27  1  0  0  0  0
  2  3  1  0  0  0  0
  2 28  1  0  0  0  0
  2 29  1  0  0  0  0
  3  4  1  0  0  0  0
  4 24  1  0  0  0  0
  4  5  1  0  0  0  0
  4 30  1  0  0  0  0
  5  6  1  0  0  0  0
  5 31  1  0  0  0  0
  5 32  1  0  0  0  0
  6  7  1  0  0  0  0
  6 33  1  0  0  0  0
  6 34  1  0  0  0  0
  7  8  1  0  0  0  0
  7 23  1  0  0  0  0
  7 54  1  0  0  0  0
  8  9  1  0  0  0  0
  8 35  1  0  0  0  0
  8 36  1  0  0  0  0
  9 10  1  0  0  0  0
  9 11  1  0  0  0  0
  9 37  1  0  0  0  0
 10 38  1  0  0  0  0
 11 12  1  0  0  0  0
 11 39  1  0  0  0  0
 11 40  1  0  0  0  0
 12 22  1  0  0  0  0
 12 13  1  0  0  0  0
 13 14  2  0  0  0  0
 13 41  1  0  0  0  0
 14 15  1  0  0  0  0
 14 55  1  0  0  0  0
 15 22  2  0  0  0  0
 15 16  1  0  0  0  0
 16 17  2  0  0  0  0
 16 42  1  0  0  0  0
 17 18  1  0  0  0  0
 17 19  1  0  0  0  0
 18 43  1  0  0  0  0
 18 44  1  0  0  0  0
 18 45  1  0  0  0  0
 19 20  1  0  0  0  0
 19 21  2  0  0  0  0
 20 46  1  0  0  0  0
 20 47  1  0  0  0  0
 20 48  1  0  0  0  0
 21 22  1  0  0  0  0
 21 49  1  0  0  0  0
 23 24  1  0  0  0  0
 23 50  1  0  0  0  0
 23 51  1  0  0  0  0
 24 52  1  0  0  0  0
 24 53  1  0  0  0  0
M  CHG  1   7   1
M  CHG  1  14   1
M  END
> <s_m_source_file>
AV-unprocessed.smi

> <i_m_source_file_index>
1697

> <i_lp_mmshare_version>
43012

> <i_f3d_flags>
0

> <s_epik_input>
W0NIM11bQ0gyXU9bQ0hdMVtDSDJdW0NIMl1OKFtDSDJdW0NIMl0xKVtDSDJdW0NASF0oW09IXSlbQ0gyXW4oW2NIXW4yKWMoYzIzKVtjSF1jKFtDSDNdKWMoW2NIXTMpW0NIM10=

> <s_epik_cmdline>
J2VwaWtfcHl0aG9uJywgJy1waCcsICc3LjAnLCAnLXRuJywgJzgnLCAnLW1hJywgJzIwMCcsICctbWV0YWxfYmluZGluZycsICctaW1hZScsICc8aW5maWxlLm1hZT4nLCAnLW9tYWUnLCAnPG91dGZpbGUubWFlPic=

> <r_epik_Ionization_Penalty>
1.20016

> <r_epik_Ionization_Penalty_Charging>
1.20016

> <r_epik_Ionization_Penalty_Neutral>
1.70998e-06

> <r_epik_State_Penalty>
1.27959

> <r_epik_Charging_Adjusted_Penalty>
2.47975

> <i_epik_Tot_Q>
2

> <i_epik_Tot_abs_Q>
2

> <r_epik_Metal_State_Penalty>
5.29682

> <b_epik_Metal_Only>
0

> <s_lp_Force_Field>
OPLS_2005

> <r_lp_Energy>
32.2014

> <b_lp_Chiralities_Consistent>
1

> <s_lp_Variant>
AV-unprocessed.smi:1697-5

> <Gold.Version>
5.8.1

> <Gold.Id.Protein>
6NUR|6NUR_protein|mol2

> <Gold.PLP.Fitness>
60.2491

> <Gold.PLP.PLP>
-47.4006

> <Gold.PLP.part.hbond>
-3.9567

> <Gold.PLP.part.metal>
0.0000

> <Gold.PLP.part.buried>
-3.9569

> <Gold.PLP.part.nonpolar>
-39.1508

> <Gold.PLP.part.repulsive>
0.1343

> <Gold.PLP.ligand.clash>
0.0000

> <Gold.PLP.ligand.torsion>
1.2848

> <Gold.PLP.Chemscore.Hbond>
5.0619

> <Gold.PLP.Chemscore.CHOScore>
0.0000

> <Gold.PLP.Chemscore.Metal>
0.0000

> <Gold.Chemscore.Hbonds>
donor molecule, donor type, donor heavy atom, donor atom, acceptor molecule, acceptor atom, score
      L1  H     7    54       P1  7948  2.00
      L1  H    10    38       P1  7957  0.07
      L1  H    14    55       P1  8028  2.00
      P1  H  7989  7998       L1    10  1.00

> <Gold.PLP.Chemscore.Internal.Correction>
0.2324

> <Gold.Rescore>
     Score         DG    S(hbond)    S(metal)    S(lipo)     H(rot)  DE(clash)    DE(int)     intcor
     20.60     -23.03       2.88        0.00     119.11       2.35       0.02       2.40       ----

> <Gold.Chemscore.Fitness>
20.6049

> <Gold.Chemscore.DG>
-23.0322

> <Gold.Chemscore.ZeroCoef>
-5.4800

> <Gold.Chemscore.Hbond>
2.8815

> <Gold.Chemscore.Metal>
0.0000

> <Gold.Chemscore.Lipo>
119.1086

> <Gold.Chemscore.Internal_Hbond>
0.0000

> <Gold.Chemscore.DEClash>
0.0243

> <Gold.Chemscore.DEInternal>
2.4030

> <Gold.Chemscore.Rot>
2.3468

> <Gold.Chemscore.Internal.Correction>
   9.000000E+99

> <Gold.Chemscore.Hbonds>
donor molecule, donor type, donor heavy atom, donor atom, acceptor molecule, acceptor atom, score
      L1  H     7    54       P1  7948  0.50
      L1  H    10    38       P1  7957  0.07
      L1  H    14    55       P1  8028  0.93
      P1  H  7989  7998       L1    10  0.94

> <Gold.Chemscore.Hbond.Weighted>
-9.6242

> <Gold.Chemscore.Metal.Weighted>
-0.0000

> <Gold.Chemscore.Lipo.Weighted>
-13.9357

> <Gold.Chemscore.Internal_Hbond.Weighted>
0.0000

> <Gold.Chemscore.DEClash.Weighted>
0.0243

> <Gold.Chemscore.DEInternal.Weighted>
2.4030

> <Gold.Chemscore.Rot.Weighted>
6.0077

> <Gold.Chemscore.Internal.Correction.Weighted>
   9.000000E+99

> <Gold.Protein.RotatedTorsions>
[ 6907 6896 6895 6894 ] final -147.64 input  -60.11 | X-H torsion
[ 7974 7965 7964 7962 ] final   40.33 input  175.53 | X-H torsion
[ 8008 7997 7996 7995 ] final -169.51 input   59.86 | X-H torsion
[ 10167 10162 10161 10158 ] final   42.07 input  -65.29 | X-H torsion
[ 10718 10713 10712 10709 ] final  -64.86 input   66.30 | X-H torsion
[ 10763 10752 10751 10750 ] final  167.26 input  -60.55 | X-H torsion
[ 11005 11000 10999 10996 ] final -118.15 input  -57.11 | X-H torsion

> <Gold.Protein.ActiveResidues>
 VAL166  LYS551  ARG553  GLY616  TRP617  ASP618  TYR619  PRO620  LYS621  CYS622 
 ASP623  PHE694  ASN695  SER759  ASP760  ASP761  ALA762  ILE779  LEU786  VAL792 
 PHE793  MET794  SER795  GLU796  ALA797  LYS798  CYS799  TRP800  GLU811  SER814 

> <Gold.Protein.RotatedAtoms>
  151.1585  133.4860  159.2594 H   0  0  0  0  0  0  0  0  0  0  0  0  # atno 6907 bound_to 6896
  151.1479  135.0212  159.8665 H   0  0  0  0  0  0  0  0  0  0  0  0  # atno 6908 bound_to 6896
  152.5463  134.1472  159.8556 H   0  0  0  0  0  0  0  0  0  0  0  0  # atno 6909 bound_to 6896
  146.0913  139.5545  142.9474 H   0  0  0  0  0  0  0  0  0  0  0  0  # atno 7974 bound_to 7965
  155.9060  140.1049  157.1315 H   0  0  0  0  0  0  0  0  0  0  0  0  # atno 8008 bound_to 7997
  154.4032  140.1283  156.4561 H   0  0  0  0  0  0  0  0  0  0  0  0  # atno 8009 bound_to 7997
  155.7367  140.3467  155.5087 H   0  0  0  0  0  0  0  0  0  0  0  0  # atno 8010 bound_to 7997
  140.3580  144.2265  150.6140 H   0  0  0  0  0  0  0  0  0  0  0  0  # atno 10167 bound_to 10162
  156.0704  130.4239  150.1481 H   0  0  0  0  0  0  0  0  0  0  0  0  # atno 10718 bound_to 10713
  154.3512  135.2753  155.2370 H   0  0  0  0  0  0  0  0  0  0  0  0  # atno 10763 bound_to 10752
  154.4599  135.5910  153.6252 H   0  0  0  0  0  0  0  0  0  0  0  0  # atno 10764 bound_to 10752
  152.9850  135.6062  154.3723 H   0  0  0  0  0  0  0  0  0  0  0  0  # atno 10765 bound_to 10752
  141.0306  133.9988  157.3149 H   0  0  0  0  0  0  0  0  0  0  0  0  # atno 11005 bound_to 11000
  145.6033  141.0352  143.2006 LP  0  0  0  0  0  0  0  0  0  0  0  0  # atno 17320 bound_to 7965
  144.7362  139.7578  143.7328 LP  0  0  0  0  0  0  0  0  0  0  0  0  # atno 17321 bound_to 7965
  140.5154  143.2279  151.8470 LP  0  0  0  0  0  0  0  0  0  0  0  0  # atno 17342 bound_to 10162
  139.4817  144.4900  151.9197 LP  0  0  0  0  0  0  0  0  0  0  0  0  # atno 17343 bound_to 10162
  156.9533  130.9781  151.3494 LP  0  0  0  0  0  0  0  0  0  0  0  0  # atno 17370 bound_to 10713
  157.5771  130.8350  149.8470 LP  0  0  0  0  0  0  0  0  0  0  0  0  # atno 17371 bound_to 10713
  139.9205  135.0200  156.8045 LP  0  0  0  0  0  0  0  0  0  0  0  0  # atno 17394 bound_to 11000
  140.6414  133.9815  155.7709 LP  0  0  0  0  0  0  0  0  0  0  0  0  # atno 17395 bound_to 11000

$$$$
