AV-unprocessed.smi:3345|AV-procd|sdf|12903|dock3
  -GOLD-   2272019313D 1   1.00000     0.00000
 Structure written by MMmdl.
 41 42  0  0  0  0  0  0  0  0  2 V2000
  146.8694  140.2319  153.5349 C   0  0  0  0  0  0  0  0  0  0  0  0
  147.1000  138.8620  152.8835 C   0  0  2  0  0  0  0  0  0  0  0  0
  146.2574  137.7577  153.5617 C   0  0  0  0  0  0  0  0  0  0  0  0
  146.2251  136.4870  152.7913 N   0  3  0  0  0  0  0  0  0  0  0  0
  146.0633  135.2932  153.6541 C   0  0  0  0  0  0  0  0  0  0  0  0
  146.1105  134.0093  152.8078 C   0  0  0  0  0  0  0  0  0  0  0  0
  145.1183  134.0640  151.7901 O   0  0  0  0  0  0  0  0  0  0  0  0
  145.3160  135.1632  150.9090 C   0  0  0  0  0  0  0  0  0  0  0  0
  145.2195  136.4765  151.7019 C   0  0  0  0  0  0  0  0  0  0  0  0
  148.5230  138.5291  152.9402 N   0  0  0  0  0  0  0  0  0  0  0  0
  149.2445  138.3398  154.0574 C   0  0  0  0  0  0  0  0  0  0  0  0
  148.7547  138.3394  155.1868 O   0  0  0  0  0  0  0  0  0  0  0  0
  150.7582  138.1761  153.8610 C   0  0  2  0  0  0  0  0  0  0  0  0
  151.2248  136.7134  154.0037 C   0  0  0  0  0  0  0  0  0  0  0  0
  151.4659  139.0718  154.7680 N   0  0  0  0  0  0  0  0  0  0  0  0
  152.4743  138.8224  155.6062 C   0  0  0  0  0  0  0  0  0  0  0  0
  152.9241  139.8949  156.2420 N   0  0  0  0  0  0  0  0  0  0  0  0
  152.0893  140.8394  155.7161 C   0  0  0  0  0  0  0  0  0  0  0  0
  151.2143  140.4044  154.8101 N   0  0  0  0  0  0  0  0  0  0  0  0
  145.8171  140.5145  153.4893 H   0  0  0  0  0  0  0  0  0  0  0  0
  147.4402  141.0095  153.0257 H   0  0  0  0  0  0  0  0  0  0  0  0
  147.1689  140.2318  154.5836 H   0  0  0  0  0  0  0  0  0  0  0  0
  146.7814  138.9516  151.8442 H   0  0  0  0  0  0  0  0  0  0  0  0
  146.6940  137.5556  154.5411 H   0  0  0  0  0  0  0  0  0  0  0  0
  145.2405  138.1061  153.7479 H   0  0  0  0  0  0  0  0  0  0  0  0
  146.8559  135.2652  154.4027 H   0  0  0  0  0  0  0  0  0  0  0  0
  145.1149  135.3548  154.1900 H   0  0  0  0  0  0  0  0  0  0  0  0
  147.0960  133.8743  152.3617 H   0  0  0  0  0  0  0  0  0  0  0  0
  145.9247  133.1381  153.4360 H   0  0  0  0  0  0  0  0  0  0  0  0
  146.2830  135.0793  150.4101 H   0  0  0  0  0  0  0  0  0  0  0  0
  144.5522  135.1357  150.1319 H   0  0  0  0  0  0  0  0  0  0  0  0
  144.2190  136.5875  152.1229 H   0  0  0  0  0  0  0  0  0  0  0  0
  145.3755  137.3177  151.0276 H   0  0  0  0  0  0  0  0  0  0  0  0
  149.0116  138.4938  152.0570 H   0  0  0  0  0  0  0  0  0  0  0  0
  150.9936  138.4940  152.8437 H   0  0  0  0  0  0  0  0  0  0  0  0
  150.7090  136.0653  153.2942 H   0  0  0  0  0  0  0  0  0  0  0  0
  151.0420  136.3187  155.0040 H   0  0  0  0  0  0  0  0  0  0  0  0
  152.2936  136.6267  153.8061 H   0  0  0  0  0  0  0  0  0  0  0  0
  152.8946  137.8373  155.7472 H   0  0  0  0  0  0  0  0  0  0  0  0
  152.1428  141.8822  155.9927 H   0  0  0  0  0  0  0  0  0  0  0  0
  147.1306  136.3969  152.3529 H   0  0  0  0  0  0  0  0  0  0  0  0
  1  2  1  0  0  0  0
  1 20  1  0  0  0  0
  1 21  1  0  0  0  0
  1 22  1  0  0  0  0
  2  3  1  0  0  0  0
  2 10  1  0  0  0  0
  2 23  1  0  0  0  0
  3  4  1  0  0  0  0
  3 24  1  0  0  0  0
  3 25  1  0  0  0  0
  4  9  1  0  0  0  0
  4  5  1  0  0  0  0
  4 41  1  0  0  0  0
  5  6  1  0  0  0  0
  5 26  1  0  0  0  0
  5 27  1  0  0  0  0
  6  7  1  0  0  0  0
  6 28  1  0  0  0  0
  6 29  1  0  0  0  0
  7  8  1  0  0  0  0
  8  9  1  0  0  0  0
  8 30  1  0  0  0  0
  8 31  1  0  0  0  0
  9 32  1  0  0  0  0
  9 33  1  0  0  0  0
 10 11  1  0  0  0  0
 10 34  1  0  0  0  0
 11 12  2  0  0  0  0
 11 13  1  0  0  0  0
 13 14  1  0  0  0  0
 13 15  1  0  0  0  0
 13 35  1  0  0  0  0
 14 36  1  0  0  0  0
 14 37  1  0  0  0  0
 14 38  1  0  0  0  0
 15 19  1  0  0  0  0
 15 16  1  0  0  0  0
 16 17  2  0  0  0  0
 16 39  1  0  0  0  0
 17 18  1  0  0  0  0
 18 19  2  0  0  0  0
 18 40  1  0  0  0  0
M  CHG  1   4   1
M  END
> <s_m_source_file>
AV-unprocessed.smi

> <i_m_source_file_index>
3345

> <i_lp_mmshare_version>
43012

> <i_f3d_flags>
0

> <s_epik_input>
W0NIMl0xW0NIMl1PW0NIMl1bQ0gyXU4xW0NIMl1bQ0BASF0oW0NIM10pW05IXUMoPU8pW0NASF0oW0NIM10pbjJbY0hdbltjSF1uMg==

> <s_epik_cmdline>
J2VwaWtfcHl0aG9uJywgJy1waCcsICc3LjAnLCAnLXRuJywgJzgnLCAnLW1hJywgJzIwMCcsICctbWV0YWxfYmluZGluZycsICctaW1hZScsICc8aW5maWxlLm1hZT4nLCAnLW9tYWUnLCAnPG91dGZpbGUubWFlPic=

> <r_lp_tautomer_probability>
1

> <r_epik_Ionization_Penalty>
0.71326

> <r_epik_Ionization_Penalty_Charging>
0.713252

> <r_epik_Ionization_Penalty_Neutral>
8.27671e-06

> <r_epik_State_Penalty>
0.737017

> <r_epik_Charging_Adjusted_Penalty>
1.45027

> <i_epik_Tot_Q>
1

> <i_epik_Tot_abs_Q>
1

> <r_epik_Metal_State_Penalty>
0.73702

> <b_epik_Metal_Only>
0

> <s_lp_Force_Field>
OPLS_2005

> <r_lp_Energy>
25.9312

> <b_lp_Chiralities_Consistent>
1

> <s_lp_Variant>
AV-unprocessed.smi:3345-5

> <Gold.Version>
5.8.1

> <Gold.Id.Protein>
6NUR|6NUR_protein|mol2

> <Gold.PLP.Fitness>
40.7096

> <Gold.PLP.PLP>
-28.7434

> <Gold.PLP.part.hbond>
-5.0000

> <Gold.PLP.part.metal>
0.0000

> <Gold.PLP.part.buried>
-3.5109

> <Gold.PLP.part.nonpolar>
-21.3731

> <Gold.PLP.part.repulsive>
0.2620

> <Gold.PLP.ligand.clash>
0.0000

> <Gold.PLP.ligand.torsion>
0.7902

> <Gold.PLP.Chemscore.Hbond>
4.4560

> <Gold.PLP.Chemscore.CHOScore>
0.0000

> <Gold.PLP.Chemscore.Metal>
0.0000

> <Gold.Chemscore.Hbonds>
donor molecule, donor type, donor heavy atom, donor atom, acceptor molecule, acceptor atom, score
      L1  H     4    41       P1  7948  2.00
      L1  H    10    34       P1  7957  0.48
      P1  H  7989  7998       L1    19  0.80
      P1  H  7997  8010       L1    17  0.74

> <Gold.PLP.Chemscore.Internal.Correction>
0.1786

> <Gold.Rescore>
     Score         DG    S(hbond)    S(metal)    S(lipo)     H(rot)  DE(clash)    DE(int)     intcor
     10.70     -13.44       2.72        0.00      47.49       2.61       1.32       1.43       ----

> <Gold.Chemscore.Fitness>
10.7025

> <Gold.Chemscore.DG>
-13.4447

> <Gold.Chemscore.ZeroCoef>
-5.4800

> <Gold.Chemscore.Hbond>
2.7243

> <Gold.Chemscore.Metal>
0.0000

> <Gold.Chemscore.Lipo>
47.4925

> <Gold.Chemscore.Internal_Hbond>
0.0000

> <Gold.Chemscore.DEClash>
1.3155

> <Gold.Chemscore.DEInternal>
1.4267

> <Gold.Chemscore.Rot>
2.6138

> <Gold.Chemscore.Internal.Correction>
   9.000000E+99

> <Gold.Chemscore.Hbonds>
donor molecule, donor type, donor heavy atom, donor atom, acceptor molecule, acceptor atom, score
      L1  H     4    41       P1  7948  1.00
      L1  H    10    34       P1  7957  0.19
      P1  H  7989  7998       L1    19  0.23
      P1  H  7997  8010       L1    17  0.72

> <Gold.Chemscore.Hbond.Weighted>
-9.0993

> <Gold.Chemscore.Metal.Weighted>
-0.0000

> <Gold.Chemscore.Lipo.Weighted>
-5.5566

> <Gold.Chemscore.Internal_Hbond.Weighted>
0.0000

> <Gold.Chemscore.DEClash.Weighted>
1.3155

> <Gold.Chemscore.DEInternal.Weighted>
1.4267

> <Gold.Chemscore.Rot.Weighted>
6.6912

> <Gold.Chemscore.Internal.Correction.Weighted>
   9.000000E+99

> <Gold.Protein.RotatedTorsions>
[ 6907 6896 6895 6894 ] final -174.73 input  -60.11 | X-H torsion
[ 7974 7965 7964 7962 ] final -168.71 input  175.53 | X-H torsion
[ 8008 7997 7996 7995 ] final   51.30 input   59.86 | X-H torsion
[ 10167 10162 10161 10158 ] final  137.49 input  -65.29 | X-H torsion
[ 10718 10713 10712 10709 ] final -168.94 input   66.30 | X-H torsion
[ 10763 10752 10751 10750 ] final   20.40 input  -60.55 | X-H torsion
[ 11005 11000 10999 10996 ] final  148.54 input  -57.11 | X-H torsion

> <Gold.Protein.ActiveResidues>
 VAL166  LYS551  ARG553  GLY616  TRP617  ASP618  TYR619  PRO620  LYS621  CYS622 
 ASP623  PHE694  ASN695  SER759  ASP760  ASP761  ALA762  ILE779  LEU786  VAL792 
 PHE793  MET794  SER795  GLU796  ALA797  LYS798  CYS799  TRP800  GLU811  SER814 

> <Gold.Protein.RotatedAtoms>
  151.5771  133.3382  159.3000 H   0  0  0  0  0  0  0  0  0  0  0  0  # atno 6907 bound_to 6896
  150.8334  134.7600  159.6884 H   0  0  0  0  0  0  0  0  0  0  0  0  # atno 6908 bound_to 6896
  152.4414  134.5589  159.9940 H   0  0  0  0  0  0  0  0  0  0  0  0  # atno 6909 bound_to 6896
  144.7198  140.2330  143.6301 H   0  0  0  0  0  0  0  0  0  0  0  0  # atno 7974 bound_to 7965
  155.4331  140.3451  155.4282 H   0  0  0  0  0  0  0  0  0  0  0  0  # atno 8008 bound_to 7997
  156.1324  140.1518  156.9075 H   0  0  0  0  0  0  0  0  0  0  0  0  # atno 8009 bound_to 7997
  154.4905  140.0842  156.7564 H   0  0  0  0  0  0  0  0  0  0  0  0  # atno 8010 bound_to 7997
  139.5142  144.6407  151.5577 H   0  0  0  0  0  0  0  0  0  0  0  0  # atno 10167 bound_to 10162
  156.7043  130.9209  151.3083 H   0  0  0  0  0  0  0  0  0  0  0  0  # atno 10718 bound_to 10713
  153.1081  135.6690  153.9550 H   0  0  0  0  0  0  0  0  0  0  0  0  # atno 10763 bound_to 10752
  153.9101  135.3026  155.3450 H   0  0  0  0  0  0  0  0  0  0  0  0  # atno 10764 bound_to 10752
  154.7501  135.5038  153.9351 H   0  0  0  0  0  0  0  0  0  0  0  0  # atno 10765 bound_to 10752
  140.0968  134.9007  157.1736 H   0  0  0  0  0  0  0  0  0  0  0  0  # atno 11005 bound_to 11000
  145.8393  139.2122  143.1837 LP  0  0  0  0  0  0  0  0  0  0  0  0  # atno 17320 bound_to 7965
  146.0361  140.8211  142.9852 LP  0  0  0  0  0  0  0  0  0  0  0  0  # atno 17321 bound_to 7965
  140.6172  143.9326  150.6498 LP  0  0  0  0  0  0  0  0  0  0  0  0  # atno 17342 bound_to 10162
  140.2588  143.3539  152.1341 LP  0  0  0  0  0  0  0  0  0  0  0  0  # atno 17343 bound_to 10162
  157.6961  130.9283  150.0648 LP  0  0  0  0  0  0  0  0  0  0  0  0  # atno 17370 bound_to 10713
  156.1706  130.3646  149.9170 LP  0  0  0  0  0  0  0  0  0  0  0  0  # atno 17371 bound_to 10713
  140.3275  134.2847  155.7234 LP  0  0  0  0  0  0  0  0  0  0  0  0  # atno 17394 bound_to 11000
  141.2094  133.7749  156.9997 LP  0  0  0  0  0  0  0  0  0  0  0  0  # atno 17395 bound_to 11000

$$$$
