AV-unprocessed.smi:1758|AV-procd|sdf|7081|dock3
  -GOLD-   22720 8303D 1   1.00000     0.00000
 Structure written by MMmdl.
 44 46  0  0  0  0  0  0  0  0  2 V2000
  150.7585  141.5237  157.4067 C   0  0  0  0  0  0  0  0  0  0  0  0
  151.6033  140.2784  157.1132 C   0  0  0  0  0  0  0  0  0  0  0  0
  151.0230  139.4723  156.0573 N   0  0  0  0  0  0  0  0  0  0  0  0
  150.6121  138.1554  156.1169 C   0  0  0  0  0  0  0  0  0  0  0  0
  150.1402  137.8592  154.8692 C   0  0  0  0  0  0  0  0  0  0  0  0
  149.6040  136.6433  154.3748 N   0  0  0  0  0  0  0  0  0  0  0  0
  149.3425  135.5248  155.0708 C   0  0  0  0  0  0  0  0  0  0  0  0
  149.5024  135.3933  156.2840 O   0  0  0  0  0  0  0  0  0  0  0  0
  148.8746  134.5549  154.2724 N   0  0  0  0  0  0  0  0  0  0  0  0
  148.4891  133.2138  154.7033 C   0  0  2  0  0  0  0  0  0  0  0  0
  149.6709  132.3796  155.2287 C   0  0  0  0  0  0  0  0  0  0  0  0
  149.4161  130.9465  154.7188 C   0  0  0  0  0  0  0  0  0  0  0  0
  148.1064  131.0001  154.0408 N   0  3  2  0  0  0  0  0  0  0  0  0
  147.8385  129.9794  153.0044 C   0  0  0  0  0  0  0  0  0  0  0  0
  146.4005  130.1563  152.4753 C   0  0  0  0  0  0  0  0  0  0  0  0
  146.1327  131.6020  152.0074 C   0  0  0  0  0  0  0  0  0  0  0  0
  146.5180  132.6208  153.0976 C   0  0  0  0  0  0  0  0  0  0  0  0
  147.9700  132.3747  153.5370 C   0  0  1  0  0  0  0  0  0  0  0  0
  150.2950  139.0450  154.1052 C   0  0  0  0  0  0  0  0  0  0  0  0
  150.8288  140.0161  154.8303 N   0  0  0  0  0  0  0  0  0  0  0  0
  151.1992  142.1090  158.2138 H   0  0  0  0  0  0  0  0  0  0  0  0
  149.7466  141.2503  157.7071 H   0  0  0  0  0  0  0  0  0  0  0  0
  150.6866  142.1679  156.5297 H   0  0  0  0  0  0  0  0  0  0  0  0
  152.6150  140.5648  156.8223 H   0  0  0  0  0  0  0  0  0  0  0  0
  151.6937  139.6651  158.0106 H   0  0  0  0  0  0  0  0  0  0  0  0
  150.6943  137.5694  157.0204 H   0  0  0  0  0  0  0  0  0  0  0  0
  149.4098  136.6212  153.3845 H   0  0  0  0  0  0  0  0  0  0  0  0
  148.7795  134.7607  153.2886 H   0  0  0  0  0  0  0  0  0  0  0  0
  147.7208  133.2475  155.4786 H   0  0  0  0  0  0  0  0  0  0  0  0
  150.6225  132.7456  154.8403 H   0  0  0  0  0  0  0  0  0  0  0  0
  149.7250  132.4203  156.3171 H   0  0  0  0  0  0  0  0  0  0  0  0
  150.1945  130.6583  154.0105 H   0  0  0  0  0  0  0  0  0  0  0  0
  149.4035  130.2132  155.5255 H   0  0  0  0  0  0  0  0  0  0  0  0
  148.5597  130.0757  152.1913 H   0  0  0  0  0  0  0  0  0  0  0  0
  147.9628  128.9833  153.4308 H   0  0  0  0  0  0  0  0  0  0  0  0
  146.2147  129.4587  151.6579 H   0  0  0  0  0  0  0  0  0  0  0  0
  145.6929  129.8987  153.2646 H   0  0  0  0  0  0  0  0  0  0  0  0
  146.7091  131.8025  151.1034 H   0  0  0  0  0  0  0  0  0  0  0  0
  145.0831  131.7204  151.7368 H   0  0  0  0  0  0  0  0  0  0  0  0
  146.4030  133.6374  152.7204 H   0  0  0  0  0  0  0  0  0  0  0  0
  145.8449  132.5243  153.9507 H   0  0  0  0  0  0  0  0  0  0  0  0
  148.6365  132.4986  152.6798 H   0  0  0  0  0  0  0  0  0  0  0  0
  150.0444  139.2307  153.0711 H   0  0  0  0  0  0  0  0  0  0  0  0
  147.4060  130.8901  154.7603 H   0  0  0  0  0  0  0  0  0  0  0  0
  1  2  1  0  0  0  0
  1 21  1  0  0  0  0
  1 22  1  0  0  0  0
  1 23  1  0  0  0  0
  2  3  1  0  0  0  0
  2 24  1  0  0  0  0
  2 25  1  0  0  0  0
  3 20  1  0  0  0  0
  3  4  1  0  0  0  0
  4  5  2  0  0  0  0
  4 26  1  0  0  0  0
  5  6  1  0  0  0  0
  5 19  1  0  0  0  0
  6  7  1  0  0  0  0
  6 27  1  0  0  0  0
  7  8  2  0  0  0  0
  7  9  1  0  0  0  0
  9 10  1  0  0  0  0
  9 28  1  0  0  0  0
 10 18  1  0  0  0  0
 10 11  1  0  0  0  0
 10 29  1  0  0  0  0
 11 12  1  0  0  0  0
 11 30  1  0  0  0  0
 11 31  1  0  0  0  0
 12 13  1  0  0  0  0
 12 32  1  0  0  0  0
 12 33  1  0  0  0  0
 13 18  1  0  0  0  0
 13 14  1  0  0  0  0
 13 44  1  0  0  0  0
 14 15  1  0  0  0  0
 14 34  1  0  0  0  0
 14 35  1  0  0  0  0
 15 16  1  0  0  0  0
 15 36  1  0  0  0  0
 15 37  1  0  0  0  0
 16 17  1  0  0  0  0
 16 38  1  0  0  0  0
 16 39  1  0  0  0  0
 17 18  1  0  0  0  0
 17 40  1  0  0  0  0
 17 41  1  0  0  0  0
 18 42  1  0  0  0  0
 19 20  2  0  0  0  0
 19 43  1  0  0  0  0
M  CHG  1  13   1
M  END
> <s_m_source_file>
AV-unprocessed.smi

> <i_m_source_file_index>
1758

> <i_lp_mmshare_version>
43012

> <i_f3d_flags>
0

> <s_epik_input>
W0NIM11bQ0gyXW4xW2NIXWMoW2NIXW4xKVtOSF1DKD1PKVtOSF1bQ0BIXShbQ0gyXVtDSDJdMilbQ0BASF0oTjIzKVtDSDJdW0NIMl1bQ0gyXVtDSDJdMw==

> <s_epik_cmdline>
J2VwaWtfcHl0aG9uJywgJy1waCcsICc3LjAnLCAnLXRuJywgJzgnLCAnLW1hJywgJzIwMCcsICctbWV0YWxfYmluZGluZycsICctaW1hZScsICc8aW5maWxlLm1hZT4nLCAnLW9tYWUnLCAnPG91dGZpbGUubWFlPic=

> <r_lp_tautomer_probability>
1

> <r_epik_Ionization_Penalty>
0.00111541

> <r_epik_Ionization_Penalty_Charging>
0.000974069

> <r_epik_Ionization_Penalty_Neutral>
0.000141346

> <r_epik_State_Penalty>
0.000633842

> <r_epik_Charging_Adjusted_Penalty>
0.00160791

> <i_epik_Tot_Q>
1

> <i_epik_Tot_abs_Q>
1

> <r_epik_Metal_State_Penalty>
-0

> <b_epik_Metal_Only>
0

> <s_lp_Force_Field>
OPLS_2005

> <r_lp_Energy>
39.1276

> <b_lp_Chiralities_Consistent>
1

> <s_lp_Variant>
AV-unprocessed.smi:1758-3

> <Gold.Version>
5.8.1

> <Gold.Id.Protein>
6NUR|6NUR_protein|mol2

> <Gold.PLP.Fitness>
42.9834

> <Gold.PLP.PLP>
-31.3546

> <Gold.PLP.part.hbond>
-3.4363

> <Gold.PLP.part.metal>
0.0000

> <Gold.PLP.part.buried>
-1.0673

> <Gold.PLP.part.nonpolar>
-25.8361

> <Gold.PLP.part.repulsive>
0.1412

> <Gold.PLP.ligand.clash>
0.0000

> <Gold.PLP.ligand.torsion>
0.0233

> <Gold.PLP.Chemscore.Hbond>
2.8882

> <Gold.PLP.Chemscore.CHOScore>
1.0000

> <Gold.PLP.Chemscore.Metal>
0.0000

> <Gold.Chemscore.Hbonds>
donor molecule, donor type, donor heavy atom, donor atom, acceptor molecule, acceptor atom, score
      L1  H     6    27       P1  7948  1.00
      L1  H     9    28       P1  7948  0.91
      P1  H  7989  7998       L1    20  0.85
      L1  C    19    43       P1  7957  1.00

> <Gold.PLP.Chemscore.Internal.Correction>
0.0110

> <Gold.Rescore>
     Score         DG    S(hbond)    S(metal)    S(lipo)     H(rot)  DE(clash)    DE(int)     intcor
     16.04     -17.68       1.98        0.00      73.84       1.19       0.44       1.19       ----

> <Gold.Chemscore.Fitness>
16.0403

> <Gold.Chemscore.DG>
-17.6779

> <Gold.Chemscore.ZeroCoef>
-5.4800

> <Gold.Chemscore.Hbond>
1.9764

> <Gold.Chemscore.Metal>
0.0000

> <Gold.Chemscore.Lipo>
73.8375

> <Gold.Chemscore.Internal_Hbond>
0.0000

> <Gold.Chemscore.DEClash>
0.4434

> <Gold.Chemscore.DEInternal>
1.1942

> <Gold.Chemscore.Rot>
1.1884

> <Gold.Chemscore.Internal.Correction>
   9.000000E+99

> <Gold.Chemscore.Hbonds>
donor molecule, donor type, donor heavy atom, donor atom, acceptor molecule, acceptor atom, score
      L1  H     6    27       P1  7948  0.84
      L1  H     9    28       P1  7948  0.25
      P1  H  7989  7998       L1    20  0.15

> <Gold.Chemscore.Hbond.Weighted>
-6.6012

> <Gold.Chemscore.Metal.Weighted>
-0.0000

> <Gold.Chemscore.Lipo.Weighted>
-8.6390

> <Gold.Chemscore.Internal_Hbond.Weighted>
0.0000

> <Gold.Chemscore.DEClash.Weighted>
0.4434

> <Gold.Chemscore.DEInternal.Weighted>
1.1942

> <Gold.Chemscore.Rot.Weighted>
3.0423

> <Gold.Chemscore.Internal.Correction.Weighted>
   9.000000E+99

> <Gold.Protein.RotatedTorsions>
[ 6907 6896 6895 6894 ] final  -84.13 input  -60.11 | X-H torsion
[ 7974 7965 7964 7962 ] final  -42.48 input  175.53 | X-H torsion
[ 8008 7997 7996 7995 ] final  158.32 input   59.86 | X-H torsion
[ 10167 10162 10161 10158 ] final  -30.72 input  -65.29 | X-H torsion
[ 10718 10713 10712 10709 ] final  -76.74 input   66.30 | X-H torsion
[ 10763 10752 10751 10750 ] final   47.12 input  -60.55 | X-H torsion
[ 11005 11000 10999 10996 ] final    6.32 input  -57.11 | X-H torsion

> <Gold.Protein.ActiveResidues>
 VAL166  LYS551  ARG553  GLY616  TRP617  ASP618  TYR619  PRO620  LYS621  CYS622 
 ASP623  PHE694  ASN695  SER759  ASP760  ASP761  ALA762  ILE779  LEU786  VAL792 
 PHE793  MET794  SER795  GLU796  ALA797  LYS798  CYS799  TRP800  GLU811  SER814 

> <Gold.Protein.RotatedAtoms>
  150.6879  134.3405  159.4865 H   0  0  0  0  0  0  0  0  0  0  0  0  # atno 6907 bound_to 6896
  152.1259  134.9168  160.0570 H   0  0  0  0  0  0  0  0  0  0  0  0  # atno 6908 bound_to 6896
  152.0357  133.3921  159.4352 H   0  0  0  0  0  0  0  0  0  0  0  0  # atno 6909 bound_to 6896
  146.0111  140.6962  142.9224 H   0  0  0  0  0  0  0  0  0  0  0  0  # atno 7974 bound_to 7965
  156.2310  140.1861  156.7243 H   0  0  0  0  0  0  0  0  0  0  0  0  # atno 8008 bound_to 7997
  154.6022  140.0634  156.9411 H   0  0  0  0  0  0  0  0  0  0  0  0  # atno 8009 bound_to 7997
  155.2155  140.3303  155.4325 H   0  0  0  0  0  0  0  0  0  0  0  0  # atno 8010 bound_to 7997
  140.7246  143.3827  151.1572 H   0  0  0  0  0  0  0  0  0  0  0  0  # atno 10167 bound_to 10162
  156.0166  130.4473  150.3239 H   0  0  0  0  0  0  0  0  0  0  0  0  # atno 10718 bound_to 10713
  152.9803  135.5986  154.3711 H   0  0  0  0  0  0  0  0  0  0  0  0  # atno 10763 bound_to 10752
  154.3384  135.2768  155.2437 H   0  0  0  0  0  0  0  0  0  0  0  0  # atno 10764 bound_to 10752
  154.4529  135.5985  153.6259 H   0  0  0  0  0  0  0  0  0  0  0  0  # atno 10765 bound_to 10752
  140.5608  134.0194  155.7971 H   0  0  0  0  0  0  0  0  0  0  0  0  # atno 11005 bound_to 11000
  144.6953  140.3401  143.7201 LP  0  0  0  0  0  0  0  0  0  0  0  0  # atno 17320 bound_to 7965
  145.7340  139.1744  143.2414 LP  0  0  0  0  0  0  0  0  0  0  0  0  # atno 17321 bound_to 7965
  139.7418  143.8912  152.3052 LP  0  0  0  0  0  0  0  0  0  0  0  0  # atno 17342 bound_to 10162
  139.8736  144.7055  150.8959 LP  0  0  0  0  0  0  0  0  0  0  0  0  # atno 17343 bound_to 10162
  157.1339  131.0279  151.2957 LP  0  0  0  0  0  0  0  0  0  0  0  0  # atno 17370 bound_to 10713
  157.4528  130.7608  149.7166 LP  0  0  0  0  0  0  0  0  0  0  0  0  # atno 17371 bound_to 10713
  141.1116  133.9608  157.2900 LP  0  0  0  0  0  0  0  0  0  0  0  0  # atno 17394 bound_to 11000
  139.9409  135.0191  156.8704 LP  0  0  0  0  0  0  0  0  0  0  0  0  # atno 17395 bound_to 11000

$$$$
