AV-unprocessed.smi:851|AV-procd|sdf|3949|dock3
  -GOLD-   22720 1423D 1   1.00000     0.00000
 Structure written by MMmdl.
 34 35  0  0  0  0  0  0  0  0  1 V2000
  146.0819  132.3569  151.7451 C   0  0  0  0  0  0  0  0  0  0  0  0
  147.0154  133.0199  152.5902 O   0  0  0  0  0  0  0  0  0  0  0  0
  147.7906  132.2584  153.4442 C   0  0  0  0  0  0  0  0  0  0  0  0
  147.5615  130.9227  153.5084 N   0  0  0  0  0  0  0  0  0  0  0  0
  148.3220  130.1802  154.3392 C   0  0  0  0  0  0  0  0  0  0  0  0
  149.3460  130.7223  155.1375 C   0  0  0  0  0  0  0  0  0  0  0  0
  149.5852  132.1074  155.0730 C   0  0  0  0  0  0  0  0  0  0  0  0
  148.7854  132.9018  154.2163 C   0  0  0  0  0  0  0  0  0  0  0  0
  148.9472  134.3045  154.0553 N   0  0  0  0  0  0  0  0  0  0  0  0
  149.3786  135.2191  154.9448 C   0  0  0  0  0  0  0  0  0  0  0  0
  149.7497  134.9658  156.0886 O   0  0  0  0  0  0  0  0  0  0  0  0
  149.3523  136.4833  154.4853 N   0  0  0  0  0  0  0  0  0  0  0  0
  149.7487  137.7073  155.1847 C   0  0  2  0  0  0  0  0  0  0  0  0
  149.4568  138.9528  154.3272 C   0  0  0  0  0  0  0  0  0  0  0  0
  150.1912  140.1537  154.9368 C   0  0  0  0  0  0  0  0  0  0  0  0
  151.6979  139.4784  155.7340 S   0  0  0  0  0  0  0  0  0  0  0  0
  152.8743  139.7776  154.9038 O   0  0  0  0  0  0  0  0  0  0  0  0
  151.6730  139.8202  157.1643 O   0  0  0  0  0  0  0  0  0  0  0  0
  151.2486  137.7157  155.5238 C   0  0  0  0  0  0  0  0  0  0  0  0
  145.5545  133.0963  151.1425 H   0  0  0  0  0  0  0  0  0  0  0  0
  145.3364  131.8102  152.3243 H   0  0  0  0  0  0  0  0  0  0  0  0
  146.5814  131.6687  151.0618 H   0  0  0  0  0  0  0  0  0  0  0  0
  148.1119  129.1211  154.3639 H   0  0  0  0  0  0  0  0  0  0  0  0
  149.9379  130.0891  155.7816 H   0  0  0  0  0  0  0  0  0  0  0  0
  150.3819  132.5258  155.6676 H   0  0  0  0  0  0  0  0  0  0  0  0
  148.6101  134.6737  153.1781 H   0  0  0  0  0  0  0  0  0  0  0  0
  148.9980  136.6105  153.5481 H   0  0  0  0  0  0  0  0  0  0  0  0
  149.1773  137.8084  156.1094 H   0  0  0  0  0  0  0  0  0  0  0  0
  149.8362  138.7899  153.3173 H   0  0  0  0  0  0  0  0  0  0  0  0
  148.3867  139.1425  154.2378 H   0  0  0  0  0  0  0  0  0  0  0  0
  150.4602  140.9079  154.1970 H   0  0  0  0  0  0  0  0  0  0  0  0
  149.5849  140.6255  155.7105 H   0  0  0  0  0  0  0  0  0  0  0  0
  151.4923  137.1574  156.4280 H   0  0  0  0  0  0  0  0  0  0  0  0
  151.8413  137.3179  154.6991 H   0  0  0  0  0  0  0  0  0  0  0  0
  1  2  1  0  0  0  0
  1 20  1  0  0  0  0
  1 21  1  0  0  0  0
  1 22  1  0  0  0  0
  2  3  1  0  0  0  0
  3  8  1  0  0  0  0
  3  4  2  0  0  0  0
  4  5  1  0  0  0  0
  5  6  2  0  0  0  0
  5 23  1  0  0  0  0
  6  7  1  0  0  0  0
  6 24  1  0  0  0  0
  7  8  2  0  0  0  0
  7 25  1  0  0  0  0
  8  9  1  0  0  0  0
  9 10  1  0  0  0  0
  9 26  1  0  0  0  0
 10 11  2  0  0  0  0
 10 12  1  0  0  0  0
 12 13  1  0  0  0  0
 12 27  1  0  0  0  0
 13 19  1  0  0  0  0
 13 14  1  0  0  0  0
 13 28  1  0  0  0  0
 14 15  1  0  0  0  0
 14 29  1  0  0  0  0
 14 30  1  0  0  0  0
 15 16  1  0  0  0  0
 15 31  1  0  0  0  0
 15 32  1  0  0  0  0
 16 17  2  0  0  0  0
 16 18  2  0  0  0  0
 16 19  1  0  0  0  0
 19 33  1  0  0  0  0
 19 34  1  0  0  0  0
M  END
> <s_m_source_file>
AV-unprocessed.smi

> <i_m_source_file_index>
851

> <i_lp_mmshare_version>
43012

> <i_f3d_flags>
0

> <s_epik_input>
W0NIM11PYzFuW2NIXVtjSF1bY0hdYzFbTkhdQyg9TylbTkhdW0NAQEhdKFtDSDJdMilbQ0gyXVtDSDJdUzIoPU8pPU8=

> <s_epik_cmdline>
J2VwaWtfcHl0aG9uJywgJy1waCcsICc3LjAnLCAnLXRuJywgJzgnLCAnLW1hJywgJzIwMCcsICctbWV0YWxfYmluZGluZycsICctaW1hZScsICc8aW5maWxlLm1hZT4nLCAnLW9tYWUnLCAnPG91dGZpbGUubWFlPic=

> <r_lp_tautomer_probability>
1

> <r_epik_Ionization_Penalty>
7.64927e-05

> <r_epik_Ionization_Penalty_Charging>
0

> <r_epik_Ionization_Penalty_Neutral>
7.64927e-05

> <r_epik_State_Penalty>
-0

> <r_epik_Charging_Adjusted_Penalty>
0

> <i_epik_Tot_Q>
0

> <i_epik_Tot_abs_Q>
0

> <r_epik_Metal_State_Penalty>
-0

> <b_epik_Metal_Only>
0

> <s_lp_Force_Field>
OPLS_2005

> <r_lp_Energy>
17.9576

> <b_lp_Chiralities_Consistent>
1

> <s_lp_Variant>
AV-unprocessed.smi:851-1

> <Gold.Version>
5.8.1

> <Gold.Id.Protein>
6NUR|6NUR_protein|mol2

> <Gold.PLP.Fitness>
38.8360

> <Gold.PLP.PLP>
-29.8310

> <Gold.PLP.part.hbond>
-4.0000

> <Gold.PLP.part.metal>
0.0000

> <Gold.PLP.part.buried>
-2.0434

> <Gold.PLP.part.nonpolar>
-24.0718

> <Gold.PLP.part.repulsive>
0.3289

> <Gold.PLP.ligand.clash>
0.0000

> <Gold.PLP.ligand.torsion>
0.2234

> <Gold.PLP.Chemscore.Hbond>
3.1504

> <Gold.PLP.Chemscore.CHOScore>
0.0000

> <Gold.PLP.Chemscore.Metal>
0.0000

> <Gold.Chemscore.Hbonds>
donor molecule, donor type, donor heavy atom, donor atom, acceptor molecule, acceptor atom, score
      L1  H     9    26       P1  7948  0.82
      L1  H    12    27       P1  7948  1.00
      P1  H  7989  7998       L1    17  0.20
      P1  H  7997  8010       L1    17  1.00

> <Gold.PLP.Chemscore.Internal.Correction>
0.0006

> <Gold.Rescore>
     Score         DG    S(hbond)    S(metal)    S(lipo)     H(rot)  DE(clash)    DE(int)     intcor
     15.11     -15.44       2.29        0.00      48.46       1.31       0.04       0.29       ----

> <Gold.Chemscore.Fitness>
15.1098

> <Gold.Chemscore.DG>
-15.4376

> <Gold.Chemscore.ZeroCoef>
-5.4800

> <Gold.Chemscore.Hbond>
2.2886

> <Gold.Chemscore.Metal>
0.0000

> <Gold.Chemscore.Lipo>
48.4593

> <Gold.Chemscore.Internal_Hbond>
0.0000

> <Gold.Chemscore.DEClash>
0.0363

> <Gold.Chemscore.DEInternal>
0.2915

> <Gold.Chemscore.Rot>
1.3109

> <Gold.Chemscore.Internal.Correction>
   9.000000E+99

> <Gold.Chemscore.Hbonds>
donor molecule, donor type, donor heavy atom, donor atom, acceptor molecule, acceptor atom, score
      L1  H     9    26       P1  7948  0.26
      L1  H    12    27       P1  7948  0.95
      P1  H  7989  7998       L1    17  0.01
      P1  H  7997  8010       L1    17  0.97

> <Gold.Chemscore.Hbond.Weighted>
-7.6438

> <Gold.Chemscore.Metal.Weighted>
-0.0000

> <Gold.Chemscore.Lipo.Weighted>
-5.6697

> <Gold.Chemscore.Internal_Hbond.Weighted>
0.0000

> <Gold.Chemscore.DEClash.Weighted>
0.0363

> <Gold.Chemscore.DEInternal.Weighted>
0.2915

> <Gold.Chemscore.Rot.Weighted>
3.3559

> <Gold.Chemscore.Internal.Correction.Weighted>
   9.000000E+99

> <Gold.Protein.RotatedTorsions>
[ 6907 6896 6895 6894 ] final  105.08 input  -60.11 | X-H torsion
[ 7974 7965 7964 7962 ] final  -68.16 input  175.53 | X-H torsion
[ 8008 7997 7996 7995 ] final  113.05 input   59.86 | X-H torsion
[ 10167 10162 10161 10158 ] final   85.07 input  -65.29 | X-H torsion
[ 10718 10713 10712 10709 ] final   42.55 input   66.30 | X-H torsion
[ 10763 10752 10751 10750 ] final   23.37 input  -60.55 | X-H torsion
[ 11005 11000 10999 10996 ] final  164.95 input  -57.11 | X-H torsion

> <Gold.Protein.ActiveResidues>
 VAL166  LYS551  ARG553  GLY616  TRP617  ASP618  TYR619  PRO620  LYS621  CYS622 
 ASP623  PHE694  ASN695  SER759  ASP760  ASP761  ALA762  ILE779  LEU786  VAL792 
 PHE793  MET794  SER795  GLU796  ALA797  LYS798  CYS799  TRP800  GLU811  SER814 

> <Gold.Protein.RotatedAtoms>
  152.5243  133.9582  159.7704 H   0  0  0  0  0  0  0  0  0  0  0  0  # atno 6907 bound_to 6896
  150.9878  133.6172  159.2720 H   0  0  0  0  0  0  0  0  0  0  0  0  # atno 6908 bound_to 6896
  151.3326  135.0851  159.9397 H   0  0  0  0  0  0  0  0  0  0  0  0  # atno 6909 bound_to 6896
  145.7200  140.9042  143.0635 H   0  0  0  0  0  0  0  0  0  0  0  0  # atno 7974 bound_to 7965
  156.2233  140.2987  156.0005 H   0  0  0  0  0  0  0  0  0  0  0  0  # atno 8008 bound_to 7997
  155.2424  140.0423  157.2993 H   0  0  0  0  0  0  0  0  0  0  0  0  # atno 8009 bound_to 7997
  154.5875  140.2392  155.7975 H   0  0  0  0  0  0  0  0  0  0  0  0  # atno 8010 bound_to 7997
  139.9015  144.6327  150.8632 H   0  0  0  0  0  0  0  0  0  0  0  0  # atno 10167 bound_to 10162
  157.4060  130.7887  149.7389 H   0  0  0  0  0  0  0  0  0  0  0  0  # atno 10718 bound_to 10713
  153.0843  135.6628  153.9981 H   0  0  0  0  0  0  0  0  0  0  0  0  # atno 10763 bound_to 10752
  153.9594  135.2975  155.3436 H   0  0  0  0  0  0  0  0  0  0  0  0  # atno 10764 bound_to 10752
  154.7249  135.5149  153.8942 H   0  0  0  0  0  0  0  0  0  0  0  0  # atno 10765 bound_to 10752
  140.2512  134.7976  157.3503 H   0  0  0  0  0  0  0  0  0  0  0  0  # atno 11005 bound_to 11000
  144.6919  139.9190  143.7467 LP  0  0  0  0  0  0  0  0  0  0  0  0  # atno 17320 bound_to 7965
  146.0634  139.3626  143.0567 LP  0  0  0  0  0  0  0  0  0  0  0  0  # atno 17321 bound_to 7965
  140.7706  143.3433  151.2162 LP  0  0  0  0  0  0  0  0  0  0  0  0  # atno 17342 bound_to 10162
  139.7021  143.9515  152.2910 LP  0  0  0  0  0  0  0  0  0  0  0  0  # atno 17343 bound_to 10162
  155.9837  130.3998  150.3351 LP  0  0  0  0  0  0  0  0  0  0  0  0  # atno 17370 bound_to 10713
  157.1484  131.0314  151.2896 LP  0  0  0  0  0  0  0  0  0  0  0  0  # atno 17371 bound_to 10713
  140.1556  134.4793  155.7930 LP  0  0  0  0  0  0  0  0  0  0  0  0  # atno 17394 bound_to 11000
  141.2201  133.6880  156.7455 LP  0  0  0  0  0  0  0  0  0  0  0  0  # atno 17395 bound_to 11000

$$$$
