AV-unprocessed.smi:1768|AV-procd|sdf|7146|dock9
  -GOLD-   22720 8383D 1   1.00000     0.00000
 Structure written by MMmdl.
 33 34  0  0  0  0  0  0  0  0  1 V2000
  149.0276  129.5904  153.4980 C   0  0  0  0  0  0  0  0  0  0  0  0
  149.4649  130.9705  153.8531 C   0  0  0  0  0  0  0  0  0  0  0  0
  150.2758  131.2328  154.8855 N   0  0  0  0  0  0  0  0  0  0  0  0
  150.5376  132.5894  155.0175 N   0  0  0  0  0  0  0  0  0  0  0  0
  149.9137  133.3123  154.0772 C   0  0  0  0  0  0  0  0  0  0  0  0
  150.0069  134.7254  153.9753 N   0  0  0  0  0  0  0  0  0  0  0  0
  150.6948  135.5743  154.7588 C   0  0  0  0  0  0  0  0  0  0  0  0
  151.3626  135.2518  155.7413 O   0  0  0  0  0  0  0  0  0  0  0  0
  150.5587  136.8390  154.3337 N   0  0  0  0  0  0  0  0  0  0  0  0
  151.1712  138.0201  154.9403 C   0  0  1  0  0  0  0  0  0  0  0  0
  152.5310  138.2723  154.2727 C   0  0  0  0  0  0  0  0  0  0  0  0
  150.2289  139.2332  154.8095 C   0  0  1  0  0  0  0  0  0  0  0  0
  149.0202  139.2112  155.7494 C   0  0  0  0  0  0  0  0  0  0  0  0
  148.6931  140.6819  155.8639 C   0  0  0  0  0  0  0  0  0  0  0  0
  150.0855  141.3023  155.9022 C   0  0  0  0  0  0  0  0  0  0  0  0
  150.9179  140.4408  155.1304 O   0  0  0  0  0  0  0  0  0  0  0  0
  148.9489  132.3840  152.9421 S   0  0  0  0  0  0  0  0  0  0  0  0
  149.4622  128.8597  154.1810 H   0  0  0  0  0  0  0  0  0  0  0  0
  149.3424  129.3497  152.4826 H   0  0  0  0  0  0  0  0  0  0  0  0
  147.9414  129.5187  153.5550 H   0  0  0  0  0  0  0  0  0  0  0  0
  149.4951  135.1378  153.2095 H   0  0  0  0  0  0  0  0  0  0  0  0
  149.9850  137.0015  153.5193 H   0  0  0  0  0  0  0  0  0  0  0  0
  151.3531  137.8468  156.0023 H   0  0  0  0  0  0  0  0  0  0  0  0
  153.0379  139.1274  154.7203 H   0  0  0  0  0  0  0  0  0  0  0  0
  152.4200  138.4726  153.2067 H   0  0  0  0  0  0  0  0  0  0  0  0
  153.1878  137.4088  154.3832 H   0  0  0  0  0  0  0  0  0  0  0  0
  149.8727  139.3225  153.7816 H   0  0  0  0  0  0  0  0  0  0  0  0
  148.1903  138.6185  155.3635 H   0  0  0  0  0  0  0  0  0  0  0  0
  149.2978  138.8146  156.7273 H   0  0  0  0  0  0  0  0  0  0  0  0
  148.1549  141.0159  154.9758 H   0  0  0  0  0  0  0  0  0  0  0  0
  148.0932  140.9239  156.7417 H   0  0  0  0  0  0  0  0  0  0  0  0
  150.0989  142.3217  155.5157 H   0  0  0  0  0  0  0  0  0  0  0  0
  150.4652  141.3221  156.9243 H   0  0  0  0  0  0  0  0  0  0  0  0
  1  2  1  0  0  0  0
  1 18  1  0  0  0  0
  1 19  1  0  0  0  0
  1 20  1  0  0  0  0
  2 17  1  0  0  0  0
  2  3  2  0  0  0  0
  3  4  1  0  0  0  0
  4  5  2  0  0  0  0
  5  6  1  0  0  0  0
  5 17  1  0  0  0  0
  6  7  1  0  0  0  0
  6 21  1  0  0  0  0
  7  8  2  0  0  0  0
  7  9  1  0  0  0  0
  9 10  1  0  0  0  0
  9 22  1  0  0  0  0
 10 11  1  0  0  0  0
 10 12  1  0  0  0  0
 10 23  1  0  0  0  0
 11 24  1  0  0  0  0
 11 25  1  0  0  0  0
 11 26  1  0  0  0  0
 12 16  1  0  0  0  0
 12 13  1  0  0  0  0
 12 27  1  0  0  0  0
 13 14  1  0  0  0  0
 13 28  1  0  0  0  0
 13 29  1  0  0  0  0
 14 15  1  0  0  0  0
 14 30  1  0  0  0  0
 14 31  1  0  0  0  0
 15 16  1  0  0  0  0
 15 32  1  0  0  0  0
 15 33  1  0  0  0  0
M  END
> <s_m_source_file>
AV-unprocessed.smi

> <i_m_source_file_index>
1768

> <i_lp_mmshare_version>
43012

> <i_f3d_flags>
0

> <s_epik_input>
W0NIM11jMW5uYyhzMSlbTkhdQyg9TylbTkhdW0NASF0oW0NIM10pW0NAQEhdMltDSDJdW0NIMl1bQ0gyXU8y

> <s_epik_cmdline>
J2VwaWtfcHl0aG9uJywgJy1waCcsICc3LjAnLCAnLXRuJywgJzgnLCAnLW1hJywgJzIwMCcsICctbWV0YWxfYmluZGluZycsICctaW1hZScsICc8aW5maWxlLm1hZT4nLCAnLW9tYWUnLCAnPG91dGZpbGUubWFlPic=

> <r_lp_tautomer_probability>
1

> <r_epik_Ionization_Penalty>
0.000523083

> <r_epik_Ionization_Penalty_Charging>
0

> <r_epik_Ionization_Penalty_Neutral>
0.000523083

> <r_epik_State_Penalty>
-0

> <r_epik_Charging_Adjusted_Penalty>
0

> <i_epik_Tot_Q>
0

> <i_epik_Tot_abs_Q>
0

> <r_epik_Metal_State_Penalty>
0.223408

> <b_epik_Metal_Only>
0

> <s_lp_Force_Field>
OPLS_2005

> <r_lp_Energy>
16.9545

> <b_lp_Chiralities_Consistent>
1

> <s_lp_Variant>
AV-unprocessed.smi:1768-4

> <Gold.Version>
5.8.1

> <Gold.Id.Protein>
6NUR|6NUR_protein|mol2

> <Gold.PLP.Fitness>
37.1278

> <Gold.PLP.PLP>
-27.2632

> <Gold.PLP.part.hbond>
-5.2143

> <Gold.PLP.part.metal>
0.0000

> <Gold.PLP.part.buried>
-3.9373

> <Gold.PLP.part.nonpolar>
-18.9048

> <Gold.PLP.part.repulsive>
0.2253

> <Gold.PLP.ligand.clash>
0.0000

> <Gold.PLP.ligand.torsion>
0.5566

> <Gold.PLP.Chemscore.Hbond>
3.6564

> <Gold.PLP.Chemscore.CHOScore>
0.0000

> <Gold.PLP.Chemscore.Metal>
0.0000

> <Gold.Chemscore.Hbonds>
donor molecule, donor type, donor heavy atom, donor atom, acceptor molecule, acceptor atom, score
      L1  H     6    21       P1  7948  0.40
      L1  H     9    22       P1  7948  0.92
      P1  H  7989  7998       L1    16  1.00
      P1  H 10752 10764       L1     8  0.43

> <Gold.PLP.Chemscore.Internal.Correction>
0.0085

> <Gold.Rescore>
     Score         DG    S(hbond)    S(metal)    S(lipo)     H(rot)  DE(clash)    DE(int)     intcor
     12.43     -15.45       2.28        0.00      48.30       1.29       1.32       1.69       ----

> <Gold.Chemscore.Fitness>
12.4347

> <Gold.Chemscore.DG>
-15.4465

> <Gold.Chemscore.ZeroCoef>
-5.4800

> <Gold.Chemscore.Hbond>
2.2823

> <Gold.Chemscore.Metal>
0.0000

> <Gold.Chemscore.Lipo>
48.2964

> <Gold.Chemscore.Internal_Hbond>
0.0000

> <Gold.Chemscore.DEClash>
1.3172

> <Gold.Chemscore.DEInternal>
1.6946

> <Gold.Chemscore.Rot>
1.2919

> <Gold.Chemscore.Internal.Correction>
   9.000000E+99

> <Gold.Chemscore.Hbonds>
donor molecule, donor type, donor heavy atom, donor atom, acceptor molecule, acceptor atom, score
      L1  H     6    21       P1  7948  0.01
      L1  H     9    22       P1  7948  0.25
      P1  H  7989  7998       L1    16  0.29
      P1  H 10752 10764       L1     8  0.01

> <Gold.Chemscore.Hbond.Weighted>
-7.6230

> <Gold.Chemscore.Metal.Weighted>
-0.0000

> <Gold.Chemscore.Lipo.Weighted>
-5.6507

> <Gold.Chemscore.Internal_Hbond.Weighted>
0.0000

> <Gold.Chemscore.DEClash.Weighted>
1.3172

> <Gold.Chemscore.DEInternal.Weighted>
1.6946

> <Gold.Chemscore.Rot.Weighted>
3.3072

> <Gold.Chemscore.Internal.Correction.Weighted>
   9.000000E+99

> <Gold.Protein.RotatedTorsions>
[ 6907 6896 6895 6894 ] final  147.51 input  -60.11 | X-H torsion
[ 7974 7965 7964 7962 ] final   -6.15 input  175.53 | X-H torsion
[ 8008 7997 7996 7995 ] final   56.81 input   59.86 | X-H torsion
[ 10167 10162 10161 10158 ] final   22.55 input  -65.29 | X-H torsion
[ 10718 10713 10712 10709 ] final   35.28 input   66.30 | X-H torsion
[ 10763 10752 10751 10750 ] final  -53.05 input  -60.55 | X-H torsion
[ 11005 11000 10999 10996 ] final   54.40 input  -57.11 | X-H torsion

> <Gold.Protein.ActiveResidues>
 VAL166  LYS551  ARG553  GLY616  TRP617  ASP618  TYR619  PRO620  LYS621  CYS622 
 ASP623  PHE694  ASN695  SER759  ASP760  ASP761  ALA762  ILE779  LEU786  VAL792 
 PHE793  MET794  SER795  GLU796  ALA797  LYS798  CYS799  TRP800  GLU811  SER814 

> <Gold.Protein.RotatedAtoms>
  152.1538  133.4538  159.4826 H   0  0  0  0  0  0  0  0  0  0  0  0  # atno 6907 bound_to 6896
  150.6898  134.2157  159.4386 H   0  0  0  0  0  0  0  0  0  0  0  0  # atno 6908 bound_to 6896
  152.0055  134.9905  160.0617 H   0  0  0  0  0  0  0  0  0  0  0  0  # atno 6909 bound_to 6896
  146.2337  140.2128  142.8335 H   0  0  0  0  0  0  0  0  0  0  0  0  # atno 7974 bound_to 7965
  155.5236  140.3480  155.4412 H   0  0  0  0  0  0  0  0  0  0  0  0  # atno 8008 bound_to 7997
  156.0767  140.1376  156.9789 H   0  0  0  0  0  0  0  0  0  0  0  0  # atno 8009 bound_to 7997
  154.4557  140.0954  156.6726 H   0  0  0  0  0  0  0  0  0  0  0  0  # atno 8010 bound_to 7997
  140.5339  143.9793  150.6481 H   0  0  0  0  0  0  0  0  0  0  0  0  # atno 10167 bound_to 10162
  157.3207  130.7446  149.6783 H   0  0  0  0  0  0  0  0  0  0  0  0  # atno 10718 bound_to 10713
  154.1526  135.6487  153.4967 H   0  0  0  0  0  0  0  0  0  0  0  0  # atno 10763 bound_to 10752
  153.0133  135.5342  154.6792 H   0  0  0  0  0  0  0  0  0  0  0  0  # atno 10764 bound_to 10752
  154.6084  135.2951  155.0430 H   0  0  0  0  0  0  0  0  0  0  0  0  # atno 10765 bound_to 10752
  140.0689  134.5497  155.9068 H   0  0  0  0  0  0  0  0  0  0  0  0  # atno 11005 bound_to 11000
  144.9693  140.8353  143.5465 LP  0  0  0  0  0  0  0  0  0  0  0  0  # atno 17320 bound_to 7965
  145.2107  139.2206  143.5144 LP  0  0  0  0  0  0  0  0  0  0  0  0  # atno 17321 bound_to 7965
  140.3176  143.3158  152.0817 LP  0  0  0  0  0  0  0  0  0  0  0  0  # atno 17342 bound_to 10162
  139.4964  144.6595  151.6496 LP  0  0  0  0  0  0  0  0  0  0  0  0  # atno 17343 bound_to 10162
  155.9685  130.4224  150.4514 LP  0  0  0  0  0  0  0  0  0  0  0  0  # atno 17370 bound_to 10713
  157.2529  131.0550  151.2368 LP  0  0  0  0  0  0  0  0  0  0  0  0  # atno 17371 bound_to 10713
  141.2004  133.6612  156.5895 LP  0  0  0  0  0  0  0  0  0  0  0  0  # atno 17394 bound_to 11000
  140.3656  134.7650  157.4564 LP  0  0  0  0  0  0  0  0  0  0  0  0  # atno 17395 bound_to 11000

$$$$
