AV-unprocessed.smi:3194|AV-procd|sdf|12209|dock10
  -GOLD-   2272018 43D 1   1.00000     0.00000
 Structure written by MMmdl.
 28 28  0  0  0  0  0  0  0  0  1 V2000
  150.9639  137.8681  154.3093 C   0  0  0  0  0  0  0  0  0  0  0  0
  150.2837  139.2252  154.5452 C   0  0  1  0  0  0  0  0  0  0  0  0
  148.7895  139.2053  154.1673 C   0  0  0  0  0  0  0  0  0  0  0  0
  148.6094  138.6232  152.8935 O   0  0  0  0  0  0  0  0  0  0  0  0
  150.4484  139.6014  155.9464 N   0  0  0  0  0  0  0  0  0  0  0  0
  151.6154  139.8780  156.5525 C   0  0  0  0  0  0  0  0  0  0  0  0
  152.6982  139.8566  155.9660 O   0  0  0  0  0  0  0  0  0  0  0  0
  151.5539  140.2228  158.0482 C   0  0  0  0  0  0  0  0  0  0  0  0
  150.3242  139.9638  158.4988 F   0  0  0  0  0  0  0  0  0  0  0  0
  152.4054  139.4402  158.7166 F   0  0  0  0  0  0  0  0  0  0  0  0
  151.9024  141.6925  158.2679 C   0  0  0  0  0  0  0  0  0  0  0  0
  152.8242  142.0807  159.2667 C   0  0  0  0  0  0  0  0  0  0  0  0
  153.0997  143.4512  159.4360 C   0  0  0  0  0  0  0  0  0  0  0  0
  152.4465  144.3828  158.6071 C   0  0  0  0  0  0  0  0  0  0  0  0
  151.5413  143.8998  157.6421 C   0  0  0  0  0  0  0  0  0  0  0  0
  151.2698  142.5882  157.4719 N   0  0  0  0  0  0  0  0  0  0  0  0
  150.7945  139.9683  153.9295 H   0  0  0  0  0  0  0  0  0  0  0  0
  150.9028  137.5719  153.2618 H   0  0  0  0  0  0  0  0  0  0  0  0
  150.4999  137.0815  154.9051 H   0  0  0  0  0  0  0  0  0  0  0  0
  152.0206  137.9083  154.5758 H   0  0  0  0  0  0  0  0  0  0  0  0
  148.2043  138.6583  154.9072 H   0  0  0  0  0  0  0  0  0  0  0  0
  148.3883  140.2185  154.1253 H   0  0  0  0  0  0  0  0  0  0  0  0
  148.7371  139.2912  152.2373 H   0  0  0  0  0  0  0  0  0  0  0  0
  149.6091  139.6396  156.5071 H   0  0  0  0  0  0  0  0  0  0  0  0
  153.3081  141.3480  159.8955 H   0  0  0  0  0  0  0  0  0  0  0  0
  153.7987  143.7817  160.1901 H   0  0  0  0  0  0  0  0  0  0  0  0
  152.6335  145.4416  158.7088 H   0  0  0  0  0  0  0  0  0  0  0  0
  151.0206  144.5850  156.9897 H   0  0  0  0  0  0  0  0  0  0  0  0
  1  2  1  0  0  0  0
  1 18  1  0  0  0  0
  1 19  1  0  0  0  0
  1 20  1  0  0  0  0
  2 17  1  0  0  0  0
  2  3  1  0  0  0  0
  2  5  1  0  0  0  0
  3  4  1  0  0  0  0
  3 21  1  0  0  0  0
  3 22  1  0  0  0  0
  4 23  1  0  0  0  0
  5  6  1  0  0  0  0
  5 24  1  0  0  0  0
  6  7  2  0  0  0  0
  6  8  1  0  0  0  0
  8  9  1  0  0  0  0
  8 10  1  0  0  0  0
  8 11  1  0  0  0  0
 11 16  1  0  0  0  0
 11 12  2  0  0  0  0
 12 13  1  0  0  0  0
 12 25  1  0  0  0  0
 13 14  2  0  0  0  0
 13 26  1  0  0  0  0
 14 15  1  0  0  0  0
 14 27  1  0  0  0  0
 15 16  2  0  0  0  0
 15 28  1  0  0  0  0
M  END
> <s_m_source_file>
AV-unprocessed.smi

> <i_m_source_file_index>
3194

> <i_lp_mmshare_version>
43012

> <i_f3d_flags>
0

> <s_epik_input>
W09IXVtDSDJdW0NASF0oW0NIM10pW05IXUMoPU8pQyhGKShGKWMxW2NIXVtjSF1bY0hdW2NIXW4x

> <s_epik_cmdline>
J2VwaWtfcHl0aG9uJywgJy1waCcsICc3LjAnLCAnLXRuJywgJzgnLCAnLW1hJywgJzIwMCcsICctbWV0YWxfYmluZGluZycsICctaW1hZScsICc8aW5maWxlLm1hZT4nLCAnLW9tYWUnLCAnPG91dGZpbGUubWFlPic=

> <r_lp_tautomer_probability>
1

> <r_epik_Ionization_Penalty>
3.67967e-05

> <r_epik_Ionization_Penalty_Charging>
0

> <r_epik_Ionization_Penalty_Neutral>
3.67967e-05

> <r_epik_State_Penalty>
-0

> <r_epik_Charging_Adjusted_Penalty>
0

> <i_epik_Tot_Q>
0

> <i_epik_Tot_abs_Q>
0

> <r_epik_Metal_State_Penalty>
0.0311521

> <b_epik_Metal_Only>
0

> <s_lp_Force_Field>
OPLS_2005

> <r_lp_Energy>
9.58736

> <b_lp_Chiralities_Consistent>
1

> <s_lp_Variant>
AV-unprocessed.smi:3194-1

> <Gold.Version>
5.8.1

> <Gold.Id.Protein>
6NUR|6NUR_protein|mol2

> <Gold.PLP.Fitness>
42.1818

> <Gold.PLP.PLP>
-35.3424

> <Gold.PLP.part.hbond>
-2.7589

> <Gold.PLP.part.metal>
0.0000

> <Gold.PLP.part.buried>
-3.2861

> <Gold.PLP.part.nonpolar>
-30.1011

> <Gold.PLP.part.repulsive>
0.1302

> <Gold.PLP.ligand.clash>
0.7408

> <Gold.PLP.ligand.torsion>
0.7255

> <Gold.PLP.Chemscore.Hbond>
2.0000

> <Gold.PLP.Chemscore.CHOScore>
1.0000

> <Gold.PLP.Chemscore.Metal>
0.0000

> <Gold.Chemscore.Hbonds>
donor molecule, donor type, donor heavy atom, donor atom, acceptor molecule, acceptor atom, score
      L1  H     4    23       P1  7957  1.00
      P1  H  7997  8010       L1     7  1.00
      L1  C    15    28       P1  8028  1.00

> <Gold.PLP.Chemscore.Internal.Correction>
0.0311

> <Gold.Rescore>
     Score         DG    S(hbond)    S(metal)    S(lipo)     H(rot)  DE(clash)    DE(int)     intcor
     15.74     -15.89       2.00        0.00      86.60       2.50       0.01       0.15       ----

> <Gold.Chemscore.Fitness>
15.7358

> <Gold.Chemscore.DG>
-15.8880

> <Gold.Chemscore.ZeroCoef>
-5.4800

> <Gold.Chemscore.Hbond>
1.9964

> <Gold.Chemscore.Metal>
0.0000

> <Gold.Chemscore.Lipo>
86.5993

> <Gold.Chemscore.Internal_Hbond>
0.0000

> <Gold.Chemscore.DEClash>
0.0060

> <Gold.Chemscore.DEInternal>
0.1462

> <Gold.Chemscore.Rot>
2.4970

> <Gold.Chemscore.Internal.Correction>
   9.000000E+99

> <Gold.Chemscore.Hbonds>
donor molecule, donor type, donor heavy atom, donor atom, acceptor molecule, acceptor atom, score
      L1  H     4    23       P1  7957  0.92
      P1  H  7997  8010       L1     7  1.00

> <Gold.Chemscore.Hbond.Weighted>
-6.6681

> <Gold.Chemscore.Metal.Weighted>
-0.0000

> <Gold.Chemscore.Lipo.Weighted>
-10.1321

> <Gold.Chemscore.Internal_Hbond.Weighted>
0.0000

> <Gold.Chemscore.DEClash.Weighted>
0.0060

> <Gold.Chemscore.DEInternal.Weighted>
0.1462

> <Gold.Chemscore.Rot.Weighted>
6.3922

> <Gold.Chemscore.Internal.Correction.Weighted>
   9.000000E+99

> <Gold.Protein.RotatedTorsions>
[ 6907 6896 6895 6894 ] final  134.75 input  -60.11 | X-H torsion
[ 7974 7965 7964 7962 ] final  145.10 input  175.53 | X-H torsion
[ 8008 7997 7996 7995 ] final   86.03 input   59.86 | X-H torsion
[ 10167 10162 10161 10158 ] final  -39.90 input  -65.29 | X-H torsion
[ 10718 10713 10712 10709 ] final  -84.02 input   66.30 | X-H torsion
[ 10763 10752 10751 10750 ] final  -30.96 input  -60.55 | X-H torsion
[ 11005 11000 10999 10996 ] final  -71.95 input  -57.11 | X-H torsion

> <Gold.Protein.ActiveResidues>
 VAL166  LYS551  ARG553  GLY616  TRP617  ASP618  TYR619  PRO620  LYS621  CYS622 
 ASP623  PHE694  ASN695  SER759  ASP760  ASP761  ALA762  ILE779  LEU786  VAL792 
 PHE793  MET794  SER795  GLU796  ALA797  LYS798  CYS799  TRP800  GLU811  SER814 

> <Gold.Protein.RotatedAtoms>
  152.3079  133.5722  159.5661 H   0  0  0  0  0  0  0  0  0  0  0  0  # atno 6907 bound_to 6896
  150.7308  134.0195  159.3705 H   0  0  0  0  0  0  0  0  0  0  0  0  # atno 6908 bound_to 6896
  151.8090  135.0687  160.0461 H   0  0  0  0  0  0  0  0  0  0  0  0  # atno 6909 bound_to 6896
  144.8781  139.5742  143.5856 H   0  0  0  0  0  0  0  0  0  0  0  0  # atno 7974 bound_to 7965
  155.9575  140.3396  155.6462 H   0  0  0  0  0  0  0  0  0  0  0  0  # atno 8008 bound_to 7997
  155.6840  140.0741  157.2492 H   0  0  0  0  0  0  0  0  0  0  0  0  # atno 8009 bound_to 7997
  154.4135  140.1669  156.2001 H   0  0  0  0  0  0  0  0  0  0  0  0  # atno 8010 bound_to 7997
  140.7050  143.3186  151.2847 H   0  0  0  0  0  0  0  0  0  0  0  0  # atno 10167 bound_to 10162
  156.0011  130.4684  150.4346 H   0  0  0  0  0  0  0  0  0  0  0  0  # atno 10718 bound_to 10713
  153.7896  135.6899  153.4874 H   0  0  0  0  0  0  0  0  0  0  0  0  # atno 10763 bound_to 10752
  153.1758  135.4525  154.9962 H   0  0  0  0  0  0  0  0  0  0  0  0  # atno 10764 bound_to 10752
  154.8050  135.3353  154.7393 H   0  0  0  0  0  0  0  0  0  0  0  0  # atno 10765 bound_to 10752
  141.1601  133.6832  156.6985 H   0  0  0  0  0  0  0  0  0  0  0  0  # atno 11005 bound_to 11000
  146.2976  139.7325  142.9115 LP  0  0  0  0  0  0  0  0  0  0  0  0  # atno 17320 bound_to 7965
  145.4006  141.0384  143.3073 LP  0  0  0  0  0  0  0  0  0  0  0  0  # atno 17321 bound_to 7965
  139.6633  144.0150  152.2706 LP  0  0  0  0  0  0  0  0  0  0  0  0  # atno 17342 bound_to 10162
  139.9725  144.6484  150.7976 LP  0  0  0  0  0  0  0  0  0  0  0  0  # atno 17343 bound_to 10162
  157.2392  131.0521  151.2446 LP  0  0  0  0  0  0  0  0  0  0  0  0  # atno 17370 bound_to 10713
  157.3636  130.7144  149.6518 LP  0  0  0  0  0  0  0  0  0  0  0  0  # atno 17371 bound_to 10713
  140.2977  134.8189  157.4071 LP  0  0  0  0  0  0  0  0  0  0  0  0  # atno 17394 bound_to 11000
  140.1290  134.5120  155.8121 LP  0  0  0  0  0  0  0  0  0  0  0  0  # atno 17395 bound_to 11000

$$$$
