AV-unprocessed.smi:38|AV-procd|sdf|336|dock1
  -GOLD-   2262016173D 1   1.00000     0.00000
 Structure written by MMmdl.
 28 29  0  0  0  0  0  0  0  0  1 V2000
  152.3279  141.2368  159.0949 O   0  0  0  0  0  0  0  0  0  0  0  0
  151.6666  141.2259  158.0586 C   0  0  0  0  0  0  0  0  0  0  0  0
  152.0432  140.4032  156.9929 N   0  0  0  0  0  0  0  0  0  0  0  0
  151.3774  140.3028  155.7697 C   0  0  0  0  0  0  0  0  0  0  0  0
  151.8123  139.5545  154.8955 O   0  0  0  0  0  0  0  0  0  0  0  0
  150.2189  141.0934  155.5999 N   0  0  0  0  0  0  0  0  0  0  0  0
  149.4541  141.0266  154.2977 C   0  0  2  0  0  0  0  0  0  0  0  0
  148.2541  141.9745  154.3210 C   0  0  0  0  0  0  0  0  0  0  0  0
  147.2107  141.1506  153.5959 C   0  0  2  0  0  0  0  0  0  0  0  0
  145.9052  141.5517  153.9580 O   0  0  0  0  0  0  0  0  0  0  0  0
  147.5405  139.7320  154.0669 C   0  0  1  0  0  0  0  0  0  0  0  0
  147.0543  138.6385  153.1040 C   0  0  0  0  0  0  0  0  0  0  0  0
  147.6740  138.7914  151.8453 O   0  0  0  0  0  0  0  0  0  0  0  0
  148.9671  139.7282  154.1220 O   0  0  0  0  0  0  0  0  0  0  0  0
  149.8141  141.9345  156.6280 C   0  0  0  0  0  0  0  0  0  0  0  0
  150.4710  142.0257  157.8086 C   0  0  0  0  0  0  0  0  0  0  0  0
  150.0197  142.8645  158.7564 F   0  0  0  0  0  0  0  0  0  0  0  0
  152.8691  139.8362  157.1176 H   0  0  0  0  0  0  0  0  0  0  0  0
  150.1510  141.2270  153.4825 H   0  0  0  0  0  0  0  0  0  0  0  0
  147.3472  141.2408  152.5172 H   0  0  0  0  0  0  0  0  0  0  0  0
  147.1393  139.5796  155.0707 H   0  0  0  0  0  0  0  0  0  0  0  0
  147.9528  142.1639  155.3530 H   0  0  0  0  0  0  0  0  0  0  0  0
  148.4866  142.9234  153.8367 H   0  0  0  0  0  0  0  0  0  0  0  0
  145.2853  140.9663  153.5499 H   0  0  0  0  0  0  0  0  0  0  0  0
  147.3278  137.6541  153.4849 H   0  0  0  0  0  0  0  0  0  0  0  0
  145.9691  138.6554  152.9995 H   0  0  0  0  0  0  0  0  0  0  0  0
  148.3924  139.3988  151.9357 H   0  0  0  0  0  0  0  0  0  0  0  0
  148.9401  142.5531  156.4926 H   0  0  0  0  0  0  0  0  0  0  0  0
  1  2  2  0  0  0  0
  2 16  1  0  0  0  0
  2  3  1  0  0  0  0
  3 18  1  0  0  0  0
  3  4  1  0  0  0  0
  4  5  2  0  0  0  0
  4  6  1  0  0  0  0
  6  7  1  0  0  0  0
  6 15  1  0  0  0  0
  7 19  1  0  0  0  0
  7 14  1  0  0  0  0
  7  8  1  0  0  0  0
  8  9  1  0  0  0  0
  8 22  1  0  0  0  0
  8 23  1  0  0  0  0
  9 20  1  0  0  0  0
  9 10  1  0  0  0  0
  9 11  1  0  0  0  0
 10 24  1  0  0  0  0
 11 21  1  0  0  0  0
 11 12  1  0  0  0  0
 11 14  1  0  0  0  0
 12 13  1  0  0  0  0
 12 25  1  0  0  0  0
 12 26  1  0  0  0  0
 13 27  1  0  0  0  0
 15 16  2  0  0  0  0
 15 28  1  0  0  0  0
 16 17  1  0  0  0  0
M  END
> <s_m_source_file>
AV-unprocessed.smi

> <i_m_source_file_index>
38

> <i_lp_mmshare_version>
43012

> <i_f3d_flags>
0

> <s_epik_input>
Tz1jMVtuSF1jKD1PKW4oW2NIXWMxRilbQ0BIXTJbQ0gyXVtDQEhdKFtPSF0pW0NASF0oTzIpW0NIMl1bT0hd

> <s_epik_cmdline>
J2VwaWtfcHl0aG9uJywgJy1waCcsICc3LjAnLCAnLXRuJywgJzgnLCAnLW1hJywgJzIwMCcsICctbWV0YWxfYmluZGluZycsICctaW1hZScsICc8aW5maWxlLm1hZT4nLCAnLW9tYWUnLCAnPG91dGZpbGUubWFlPic=

> <r_lp_tautomer_probability>
0.999537

> <r_epik_Ionization_Penalty>
0.0357432

> <r_epik_Ionization_Penalty_Charging>
0.0357431

> <r_epik_Ionization_Penalty_Neutral>
1.19946e-07

> <r_epik_State_Penalty>
0.0298169

> <r_epik_Charging_Adjusted_Penalty>
0.06556

> <i_epik_Tot_Q>
0

> <i_epik_Tot_abs_Q>
0

> <r_epik_Metal_State_Penalty>
2.348

> <b_epik_Metal_Only>
0

> <s_epik_Chemistry_Notes>
This compound contains an acetal/aminal-like group ( X-CH(R)-Y where X, Y are N, S, or O) that may be acid/base labile, releasing an aldehyde.

> <s_lp_Force_Field>
OPLS_2005

> <r_lp_Energy>
26.798

> <b_lp_Chiralities_Consistent>
1

> <s_lp_Variant>
AV-unprocessed.smi:38-2

> <Gold.Version>
5.8.1

> <Gold.Id.Protein>
6NUR|6NUR_protein|mol2

> <Gold.PLP.Fitness>
39.7600

> <Gold.PLP.PLP>
-27.6503

> <Gold.PLP.part.hbond>
-4.2987

> <Gold.PLP.part.metal>
0.0000

> <Gold.PLP.part.buried>
1.0817

> <Gold.PLP.part.nonpolar>
-23.5175

> <Gold.PLP.part.repulsive>
0.8360

> <Gold.PLP.ligand.clash>
0.0000

> <Gold.PLP.ligand.torsion>
0.0147

> <Gold.PLP.Chemscore.Hbond>
3.0968

> <Gold.PLP.Chemscore.CHOScore>
0.9462

> <Gold.PLP.Chemscore.Metal>
0.0000

> <Gold.Chemscore.Hbonds>
donor molecule, donor type, donor heavy atom, donor atom, acceptor molecule, acceptor atom, score
      L1  H    10    24       P1 10175  1.00
      L1  H    13    27       P1  7957  0.83
      P1  H  7954  7966       L1    13  0.51
      P1  H  7989  7998       L1     5  0.75
      L1  C    15    28       P1  8028  0.95

> <Gold.PLP.Chemscore.Internal.Correction>
0.0102

> <Gold.Rescore>
     Score         DG    S(hbond)    S(metal)    S(lipo)     H(rot)  DE(clash)    DE(int)     intcor
      8.72      -9.72       2.28        0.00      34.94       2.91       0.26       0.73       ----

> <Gold.Chemscore.Fitness>
8.7244

> <Gold.Chemscore.DG>
-9.7163

> <Gold.Chemscore.ZeroCoef>
-5.4800

> <Gold.Chemscore.Hbond>
2.2780

> <Gold.Chemscore.Metal>
0.0000

> <Gold.Chemscore.Lipo>
34.9391

> <Gold.Chemscore.Internal_Hbond>
0.0000

> <Gold.Chemscore.DEClash>
0.2629

> <Gold.Chemscore.DEInternal>
0.7290

> <Gold.Chemscore.Rot>
2.9141

> <Gold.Chemscore.Internal.Correction>
   9.000000E+99

> <Gold.Chemscore.Hbonds>
donor molecule, donor type, donor heavy atom, donor atom, acceptor molecule, acceptor atom, score
      L1  H    10    24       P1 10175  0.67
      L1  H    13    27       P1  7957  0.78
      P1  H  7954  7966       L1    13  0.13
      P1  H  7989  7998       L1     5  0.09

> <Gold.Chemscore.Hbond.Weighted>
-7.6085

> <Gold.Chemscore.Metal.Weighted>
-0.0000

> <Gold.Chemscore.Lipo.Weighted>
-4.0879

> <Gold.Chemscore.Internal_Hbond.Weighted>
0.0000

> <Gold.Chemscore.DEClash.Weighted>
0.2629

> <Gold.Chemscore.DEInternal.Weighted>
0.7290

> <Gold.Chemscore.Rot.Weighted>
7.4601

> <Gold.Chemscore.Internal.Correction.Weighted>
   9.000000E+99

> <Gold.Protein.RotatedTorsions>
[ 6907 6896 6895 6894 ] final  134.63 input  -60.11 | X-H torsion
[ 7974 7965 7964 7962 ] final  116.28 input  175.53 | X-H torsion
[ 8008 7997 7996 7995 ] final   89.50 input   59.86 | X-H torsion
[ 10167 10162 10161 10158 ] final  -29.18 input  -65.29 | X-H torsion
[ 10718 10713 10712 10709 ] final -151.25 input   66.30 | X-H torsion
[ 10763 10752 10751 10750 ] final -129.34 input  -60.55 | X-H torsion
[ 11005 11000 10999 10996 ] final   90.94 input  -57.11 | X-H torsion

> <Gold.Protein.ActiveResidues>
 VAL166  LYS551  ARG553  GLY616  TRP617  ASP618  TYR619  PRO620  LYS621  CYS622 
 ASP623  PHE694  ASN695  SER759  ASP760  ASP761  ALA762  ILE779  LEU786  VAL792 
 PHE793  MET794  SER795  GLU796  ALA797  LYS798  CYS799  TRP800  GLU811  SER814 

> <Gold.Protein.RotatedAtoms>
  152.3092  133.5735  159.5669 H   0  0  0  0  0  0  0  0  0  0  0  0  # atno 6907 bound_to 6896
  150.7314  134.0177  159.3700 H   0  0  0  0  0  0  0  0  0  0  0  0  # atno 6908 bound_to 6896
  151.8071  135.0692  160.0459 H   0  0  0  0  0  0  0  0  0  0  0  0  # atno 6909 bound_to 6896
  145.1816  139.3047  143.4415 H   0  0  0  0  0  0  0  0  0  0  0  0  # atno 7974 bound_to 7965
  156.0007  140.3360  155.6843 H   0  0  0  0  0  0  0  0  0  0  0  0  # atno 8008 bound_to 7997
  155.6294  140.0683  157.2671 H   0  0  0  0  0  0  0  0  0  0  0  0  # atno 8009 bound_to 7997
  154.4248  140.1762  156.1443 H   0  0  0  0  0  0  0  0  0  0  0  0  # atno 8010 bound_to 7997
  140.7263  143.3949  151.1365 H   0  0  0  0  0  0  0  0  0  0  0  0  # atno 10167 bound_to 10162
  156.4567  130.8194  151.2425 H   0  0  0  0  0  0  0  0  0  0  0  0  # atno 10718 bound_to 10713
  154.8757  135.3898  154.3904 H   0  0  0  0  0  0  0  0  0  0  0  0  # atno 10763 bound_to 10752
  153.4640  135.7029  153.6038 H   0  0  0  0  0  0  0  0  0  0  0  0  # atno 10764 bound_to 10752
  153.4524  135.3831  155.2260 H   0  0  0  0  0  0  0  0  0  0  0  0  # atno 10765 bound_to 10752
  139.8847  134.8644  156.3357 H   0  0  0  0  0  0  0  0  0  0  0  0  # atno 11005 bound_to 11000
  146.3452  140.1998  142.8589 LP  0  0  0  0  0  0  0  0  0  0  0  0  # atno 17320 bound_to 7965
  145.0130  140.8730  143.5212 LP  0  0  0  0  0  0  0  0  0  0  0  0  # atno 17321 bound_to 7965
  139.7560  143.8707  152.3089 LP  0  0  0  0  0  0  0  0  0  0  0  0  # atno 17342 bound_to 10162
  139.8576  144.7133  150.9138 LP  0  0  0  0  0  0  0  0  0  0  0  0  # atno 17343 bound_to 10162
  157.7500  131.0120  150.3368 LP  0  0  0  0  0  0  0  0  0  0  0  0  # atno 17370 bound_to 10713
  156.3759  130.3871  149.7139 LP  0  0  0  0  0  0  0  0  0  0  0  0  # atno 17371 bound_to 10713
  140.9693  133.7338  156.0511 LP  0  0  0  0  0  0  0  0  0  0  0  0  # atno 17394 bound_to 11000
  140.7891  134.3638  157.5469 LP  0  0  0  0  0  0  0  0  0  0  0  0  # atno 17395 bound_to 11000

$$$$
