AV-unprocessed.smi:629|AV-procd|sdf|3116|dock2
  -GOLD-   22720 0 43D 1   1.00000     0.00000
 Structure written by MMmdl.
 31 32  0  0  0  0  0  0  0  0  1 V2000
  149.8829  135.2926  154.5222 C   0  0  0  0  0  0  0  0  0  0  0  0
  150.4347  136.5887  154.1603 N   0  0  0  0  0  0  0  0  0  0  0  0
  151.4356  137.1940  154.8176 C   0  0  0  0  0  0  0  0  0  0  0  0
  151.9968  136.7003  155.7957 O   0  0  0  0  0  0  0  0  0  0  0  0
  151.8813  138.5590  154.2877 C   0  0  0  0  0  0  0  0  0  0  0  0
  151.7058  139.6194  155.3280 C   0  0  0  0  0  0  0  0  0  0  0  0
  150.8442  140.6162  155.1582 N   0  0  0  0  0  0  0  0  0  0  0  0
  150.9763  141.3636  156.3371 O   0  0  0  0  0  0  0  0  0  0  0  0
  151.9264  140.7342  157.0692 C   0  0  0  0  0  0  0  0  0  0  0  0
  152.2632  141.2636  158.4239 C   0  0  0  0  0  0  0  0  0  0  0  0
  151.4164  142.4891  158.8138 C   0  0  1  0  0  0  0  0  0  0  0  0
  151.7550  143.0210  160.1836 C   0  0  0  0  0  0  0  0  0  0  0  0
  152.0368  144.3219  160.1788 C   0  0  0  0  0  0  0  0  0  0  0  0
  151.9471  144.9235  158.8045 C   0  0  0  0  0  0  0  0  0  0  0  0
  151.6554  143.7127  157.8906 C   0  0  0  0  0  0  0  0  0  0  0  0
  152.4077  139.6346  156.4952 N   0  0  0  0  0  0  0  0  0  0  0  0
  149.0487  135.0479  153.8651 H   0  0  0  0  0  0  0  0  0  0  0  0
  149.5171  135.2978  155.5499 H   0  0  0  0  0  0  0  0  0  0  0  0
  150.6360  134.5100  154.4239 H   0  0  0  0  0  0  0  0  0  0  0  0
  150.0260  137.0600  153.3660 H   0  0  0  0  0  0  0  0  0  0  0  0
  152.9294  138.5156  153.9878 H   0  0  0  0  0  0  0  0  0  0  0  0
  151.3069  138.8117  153.3954 H   0  0  0  0  0  0  0  0  0  0  0  0
  152.1619  140.4670  159.1626 H   0  0  0  0  0  0  0  0  0  0  0  0
  153.3189  141.5372  158.4105 H   0  0  0  0  0  0  0  0  0  0  0  0
  150.3558  142.2338  158.7920 H   0  0  0  0  0  0  0  0  0  0  0  0
  151.7461  142.3921  161.0620 H   0  0  0  0  0  0  0  0  0  0  0  0
  152.2917  144.9078  161.0496 H   0  0  0  0  0  0  0  0  0  0  0  0
  151.1408  145.6566  158.7733 H   0  0  0  0  0  0  0  0  0  0  0  0
  152.8810  145.4186  158.5375 H   0  0  0  0  0  0  0  0  0  0  0  0
  152.5096  143.5427  157.2341 H   0  0  0  0  0  0  0  0  0  0  0  0
  150.7939  143.8992  157.2484 H   0  0  0  0  0  0  0  0  0  0  0  0
  1  2  1  0  0  0  0
  1 17  1  0  0  0  0
  1 18  1  0  0  0  0
  1 19  1  0  0  0  0
  2  3  1  0  0  0  0
  2 20  1  0  0  0  0
  3  4  2  0  0  0  0
  3  5  1  0  0  0  0
  5  6  1  0  0  0  0
  5 21  1  0  0  0  0
  5 22  1  0  0  0  0
  6 16  1  0  0  0  0
  6  7  2  0  0  0  0
  7  8  1  0  0  0  0
  8  9  1  0  0  0  0
  9 10  1  0  0  0  0
  9 16  2  0  0  0  0
 10 11  1  0  0  0  0
 10 23  1  0  0  0  0
 10 24  1  0  0  0  0
 11 15  1  0  0  0  0
 11 12  1  0  0  0  0
 11 25  1  0  0  0  0
 12 13  2  0  0  0  0
 12 26  1  0  0  0  0
 13 14  1  0  0  0  0
 13 27  1  0  0  0  0
 14 15  1  0  0  0  0
 14 28  1  0  0  0  0
 14 29  1  0  0  0  0
 15 30  1  0  0  0  0
 15 31  1  0  0  0  0
M  END
> <s_m_source_file>
AV-unprocessed.smi

> <i_m_source_file_index>
629

> <i_lp_mmshare_version>
43012

> <i_f3d_flags>
0

> <s_epik_input>
W0NIM11bTkhdQyg9TylbQ0gyXWMxbm9jKG4xKVtDSDJdW0NAQEhdMltDSF09W0NIXVtDSDJdW0NIMl0y

> <s_epik_cmdline>
J2VwaWtfcHl0aG9uJywgJy1waCcsICc3LjAnLCAnLXRuJywgJzgnLCAnLW1hJywgJzIwMCcsICctbWV0YWxfYmluZGluZycsICctaW1hZScsICc8aW5maWxlLm1hZT4nLCAnLW9tYWUnLCAnPG91dGZpbGUubWFlPic=

> <r_lp_tautomer_probability>
1

> <r_epik_Ionization_Penalty>
1.02915e-07

> <r_epik_Ionization_Penalty_Charging>
0

> <r_epik_Ionization_Penalty_Neutral>
1.02915e-07

> <r_epik_State_Penalty>
-0

> <r_epik_Charging_Adjusted_Penalty>
0

> <i_epik_Tot_Q>
0

> <i_epik_Tot_abs_Q>
0

> <r_epik_Metal_State_Penalty>
-0

> <b_epik_Metal_Only>
0

> <s_lp_Force_Field>
OPLS_2005

> <r_lp_Energy>
15.6904

> <b_lp_Chiralities_Consistent>
1

> <s_lp_Variant>
AV-unprocessed.smi:629-2

> <Gold.Version>
5.8.1

> <Gold.Id.Protein>
6NUR|6NUR_protein|mol2

> <Gold.PLP.Fitness>
45.2717

> <Gold.PLP.PLP>
-35.8250

> <Gold.PLP.part.hbond>
-4.9085

> <Gold.PLP.part.metal>
0.0000

> <Gold.PLP.part.buried>
-3.7624

> <Gold.PLP.part.nonpolar>
-26.1069

> <Gold.PLP.part.repulsive>
0.1923

> <Gold.PLP.ligand.clash>
0.0000

> <Gold.PLP.ligand.torsion>
0.0444

> <Gold.PLP.Chemscore.Hbond>
3.1710

> <Gold.PLP.Chemscore.CHOScore>
0.0000

> <Gold.PLP.Chemscore.Metal>
0.0000

> <Gold.Chemscore.Hbonds>
donor molecule, donor type, donor heavy atom, donor atom, acceptor molecule, acceptor atom, score
      L1  H     2    20       P1  7948  0.52
      P1  H  7989  7998       L1     7  0.33
      P1  H  7997  8010       L1    16  1.00
      P1  H 10752 10763       L1     4  0.96

> <Gold.PLP.Chemscore.Internal.Correction>
0.0225

> <Gold.Rescore>
     Score         DG    S(hbond)    S(metal)    S(lipo)     H(rot)  DE(clash)    DE(int)     intcor
     14.38     -14.60       1.43        0.00      78.40       1.89       0.01       0.21       ----

> <Gold.Chemscore.Fitness>
14.3780

> <Gold.Chemscore.DG>
-14.6003

> <Gold.Chemscore.ZeroCoef>
-5.4800

> <Gold.Chemscore.Hbond>
1.4310

> <Gold.Chemscore.Metal>
0.0000

> <Gold.Chemscore.Lipo>
78.4039

> <Gold.Chemscore.Internal_Hbond>
0.0000

> <Gold.Chemscore.DEClash>
0.0130

> <Gold.Chemscore.DEInternal>
0.2093

> <Gold.Chemscore.Rot>
1.8877

> <Gold.Chemscore.Internal.Correction>
   9.000000E+99

> <Gold.Chemscore.Hbonds>
donor molecule, donor type, donor heavy atom, donor atom, acceptor molecule, acceptor atom, score
      L1  H     2    20       P1  7948  0.12
      P1  H  7989  7998       L1     7  0.01
      P1  H  7997  8010       L1    16  0.23
      P1  H 10752 10763       L1     4  0.51

> <Gold.Chemscore.Hbond.Weighted>
-4.7796

> <Gold.Chemscore.Metal.Weighted>
-0.0000

> <Gold.Chemscore.Lipo.Weighted>
-9.1733

> <Gold.Chemscore.Internal_Hbond.Weighted>
0.0000

> <Gold.Chemscore.DEClash.Weighted>
0.0130

> <Gold.Chemscore.DEInternal.Weighted>
0.2093

> <Gold.Chemscore.Rot.Weighted>
4.8325

> <Gold.Chemscore.Internal.Correction.Weighted>
   9.000000E+99

> <Gold.Protein.RotatedTorsions>
[ 6907 6896 6895 6894 ] final   75.11 input  -60.11 | X-H torsion
[ 7974 7965 7964 7962 ] final  -60.59 input  175.53 | X-H torsion
[ 8008 7997 7996 7995 ] final   85.26 input   59.86 | X-H torsion
[ 10167 10162 10161 10158 ] final  169.58 input  -65.29 | X-H torsion
[ 10718 10713 10712 10709 ] final -143.91 input   66.30 | X-H torsion
[ 10763 10752 10751 10750 ] final   96.11 input  -60.55 | X-H torsion
[ 11005 11000 10999 10996 ] final  166.30 input  -57.11 | X-H torsion

> <Gold.Protein.ActiveResidues>
 VAL166  LYS551  ARG553  GLY616  TRP617  ASP618  TYR619  PRO620  LYS621  CYS622 
 ASP623  PHE694  ASN695  SER759  ASP760  ASP761  ALA762  ILE779  LEU786  VAL792 
 PHE793  MET794  SER795  GLU796  ALA797  LYS798  CYS799  TRP800  GLU811  SER814 

> <Gold.Protein.RotatedAtoms>
  152.5009  134.4170  159.9467 H   0  0  0  0  0  0  0  0  0  0  0  0  # atno 6907 bound_to 6896
  151.4141  133.3712  159.2755 H   0  0  0  0  0  0  0  0  0  0  0  0  # atno 6908 bound_to 6896
  150.9270  134.8708  159.7586 H   0  0  0  0  0  0  0  0  0  0  0  0  # atno 6909 bound_to 6896
  145.8137  140.8583  143.0168 H   0  0  0  0  0  0  0  0  0  0  0  0  # atno 7974 bound_to 7965
  155.9477  140.3403  155.6381 H   0  0  0  0  0  0  0  0  0  0  0  0  # atno 8008 bound_to 7997
  155.6959  140.0754  157.2448 H   0  0  0  0  0  0  0  0  0  0  0  0  # atno 8009 bound_to 7997
  154.4115  140.1648  156.2125 H   0  0  0  0  0  0  0  0  0  0  0  0  # atno 8010 bound_to 7997
  139.4996  144.3690  151.9744 H   0  0  0  0  0  0  0  0  0  0  0  0  # atno 10167 bound_to 10162
  156.3637  130.7751  151.1923 H   0  0  0  0  0  0  0  0  0  0  0  0  # atno 10718 bound_to 10713
  153.2611  135.4230  155.0895 H   0  0  0  0  0  0  0  0  0  0  0  0  # atno 10763 bound_to 10752
  154.8420  135.3449  154.6376 H   0  0  0  0  0  0  0  0  0  0  0  0  # atno 10764 bound_to 10752
  153.6797  135.7039  153.5179 H   0  0  0  0  0  0  0  0  0  0  0  0  # atno 10765 bound_to 10752
  140.2650  134.7872  157.3624 H   0  0  0  0  0  0  0  0  0  0  0  0  # atno 11005 bound_to 11000
  144.6754  140.0433  143.7480 LP  0  0  0  0  0  0  0  0  0  0  0  0  # atno 17320 bound_to 7965
  145.9749  139.2897  143.1076 LP  0  0  0  0  0  0  0  0  0  0  0  0  # atno 17321 bound_to 7965
  140.3126  144.3520  150.6030 LP  0  0  0  0  0  0  0  0  0  0  0  0  # atno 17342 bound_to 10162
  140.5786  143.2174  151.7469 LP  0  0  0  0  0  0  0  0  0  0  0  0  # atno 17343 bound_to 10162
  157.7476  131.0392  150.4542 LP  0  0  0  0  0  0  0  0  0  0  0  0  # atno 17370 bound_to 10713
  156.4757  130.4062  149.6491 LP  0  0  0  0  0  0  0  0  0  0  0  0  # atno 17371 bound_to 10713
  140.1428  134.4950  155.8019 LP  0  0  0  0  0  0  0  0  0  0  0  0  # atno 17394 bound_to 11000
  141.2185  133.6832  156.7240 LP  0  0  0  0  0  0  0  0  0  0  0  0  # atno 17395 bound_to 11000

$$$$
