AV-unprocessed.smi:774|AV-procd|sdf|3691|dock6
  -GOLD-   22720 1113D 1   1.00000     0.00000
 Structure written by MMmdl.
 37 38  0  0  0  0  0  0  0  0  1 V2000
  152.3095  138.4481  154.3988 C   0  0  0  0  0  0  0  0  0  0  0  0
  151.4854  138.8252  155.6326 C   0  0  0  0  0  0  0  0  0  0  0  0
  150.4026  140.2404  155.2977 S   0  0  0  0  0  0  0  0  0  0  0  0
  149.1830  139.4640  154.1990 C   0  0  2  0  0  0  0  0  0  0  0  0
  148.0701  140.4267  153.7933 C   0  0  0  0  0  0  0  0  0  0  0  0
  146.9353  139.5153  153.3242 C   0  0  0  0  0  0  0  0  0  0  0  0
  147.0706  138.2168  154.1417 C   0  0  1  0  0  0  0  0  0  0  0  0
  147.0001  137.0435  153.2721 N   0  0  0  0  0  0  0  0  0  0  0  0
  145.9065  136.3015  153.0455 C   0  0  0  0  0  0  0  0  0  0  0  0
  144.8102  136.5307  153.5552 O   0  0  0  0  0  0  0  0  0  0  0  0
  146.1713  135.3024  152.1856 N   0  0  0  0  0  0  0  0  0  0  0  0
  145.2893  134.3127  151.6715 C   0  0  0  0  0  0  0  0  0  0  0  0
  145.8196  133.3592  150.7778 C   0  0  0  0  0  0  0  0  0  0  0  0
  144.9755  132.3601  150.2575 C   0  0  0  0  0  0  0  0  0  0  0  0
  143.6263  132.3473  150.6601 C   0  0  0  0  0  0  0  0  0  0  0  0
  143.1051  133.2409  151.5267 N   0  0  0  0  0  0  0  0  0  0  0  0
  143.9202  134.1978  152.0210 C   0  0  0  0  0  0  0  0  0  0  0  0
  148.4366  138.2947  154.8498 C   0  0  0  0  0  0  0  0  0  0  0  0
  152.9537  137.5940  154.6079 H   0  0  0  0  0  0  0  0  0  0  0  0
  152.9453  139.2755  154.0827 H   0  0  0  0  0  0  0  0  0  0  0  0
  151.6645  138.1822  153.5607 H   0  0  0  0  0  0  0  0  0  0  0  0
  150.8742  137.9783  155.9449 H   0  0  0  0  0  0  0  0  0  0  0  0
  152.1477  139.0697  156.4630 H   0  0  0  0  0  0  0  0  0  0  0  0
  149.6895  139.1147  153.2982 H   0  0  0  0  0  0  0  0  0  0  0  0
  147.7399  141.0026  154.6590 H   0  0  0  0  0  0  0  0  0  0  0  0
  148.3853  141.1326  153.0244 H   0  0  0  0  0  0  0  0  0  0  0  0
  145.9585  139.9826  153.4527 H   0  0  0  0  0  0  0  0  0  0  0  0
  147.0581  139.3152  152.2585 H   0  0  0  0  0  0  0  0  0  0  0  0
  146.2844  138.1906  154.8983 H   0  0  0  0  0  0  0  0  0  0  0  0
  147.8543  136.7781  152.8045 H   0  0  0  0  0  0  0  0  0  0  0  0
  147.1061  135.2847  151.8050 H   0  0  0  0  0  0  0  0  0  0  0  0
  146.8599  133.3931  150.4885 H   0  0  0  0  0  0  0  0  0  0  0  0
  145.3531  131.6214  149.5662 H   0  0  0  0  0  0  0  0  0  0  0  0
  142.9493  131.5966  150.2801 H   0  0  0  0  0  0  0  0  0  0  0  0
  143.4490  134.8644  152.7256 H   0  0  0  0  0  0  0  0  0  0  0  0
  149.0036  137.3645  154.7934 H   0  0  0  0  0  0  0  0  0  0  0  0
  148.2748  138.5046  155.9081 H   0  0  0  0  0  0  0  0  0  0  0  0
  1  2  1  0  0  0  0
  1 19  1  0  0  0  0
  1 20  1  0  0  0  0
  1 21  1  0  0  0  0
  2  3  1  0  0  0  0
  2 22  1  0  0  0  0
  2 23  1  0  0  0  0
  3  4  1  0  0  0  0
  4 18  1  0  0  0  0
  4  5  1  0  0  0  0
  4 24  1  0  0  0  0
  5  6  1  0  0  0  0
  5 25  1  0  0  0  0
  5 26  1  0  0  0  0
  6  7  1  0  0  0  0
  6 27  1  0  0  0  0
  6 28  1  0  0  0  0
  7  8  1  0  0  0  0
  7 18  1  0  0  0  0
  7 29  1  0  0  0  0
  8  9  1  0  0  0  0
  8 30  1  0  0  0  0
  9 10  2  0  0  0  0
  9 11  1  0  0  0  0
 11 12  1  0  0  0  0
 11 31  1  0  0  0  0
 12 17  1  0  0  0  0
 12 13  2  0  0  0  0
 13 14  1  0  0  0  0
 13 32  1  0  0  0  0
 14 15  2  0  0  0  0
 14 33  1  0  0  0  0
 15 16  1  0  0  0  0
 15 34  1  0  0  0  0
 16 17  2  0  0  0  0
 17 35  1  0  0  0  0
 18 36  1  0  0  0  0
 18 37  1  0  0  0  0
M  END
> <s_m_source_file>
AV-unprocessed.smi

> <i_m_source_file_index>
774

> <i_lp_mmshare_version>
43012

> <i_f3d_flags>
0

> <s_epik_input>
W0NIM11bQ0gyXVNbQ0BASF0xW0NIMl1bQ0gyXVtDQEhdKFtDSDJdMSlbTkhdQyg9TylbTkhdYzJbY0hdW2NIXVtjSF1uW2NIXTI=

> <s_epik_cmdline>
J2VwaWtfcHl0aG9uJywgJy1waCcsICc3LjAnLCAnLXRuJywgJzgnLCAnLW1hJywgJzIwMCcsICctbWV0YWxfYmluZGluZycsICctaW1hZScsICc8aW5maWxlLm1hZT4nLCAnLW9tYWUnLCAnPG91dGZpbGUubWFlPic=

> <r_epik_Ionization_Penalty>
0.00485718

> <r_epik_Ionization_Penalty_Charging>
0

> <r_epik_Ionization_Penalty_Neutral>
0.00485718

> <r_epik_State_Penalty>
0.00349461

> <r_epik_Charging_Adjusted_Penalty>
0.00349461

> <i_epik_Tot_Q>
0

> <i_epik_Tot_abs_Q>
0

> <r_epik_Metal_State_Penalty>
-0

> <b_epik_Metal_Only>
0

> <s_lp_Force_Field>
OPLS_2005

> <r_lp_Energy>
20.878

> <b_lp_Chiralities_Consistent>
1

> <s_lp_Variant>
AV-unprocessed.smi:774-1

> <Gold.Version>
5.8.1

> <Gold.Id.Protein>
6NUR|6NUR_protein|mol2

> <Gold.PLP.Fitness>
38.1586

> <Gold.PLP.PLP>
-30.4216

> <Gold.PLP.part.hbond>
-2.0000

> <Gold.PLP.part.metal>
0.0000

> <Gold.PLP.part.buried>
-3.4343

> <Gold.PLP.part.nonpolar>
-25.6387

> <Gold.PLP.part.repulsive>
0.7315

> <Gold.PLP.ligand.clash>
0.0000

> <Gold.PLP.ligand.torsion>
0.3685

> <Gold.PLP.Chemscore.Hbond>
1.9040

> <Gold.PLP.Chemscore.CHOScore>
0.9186

> <Gold.PLP.Chemscore.Metal>
0.0000

> <Gold.Chemscore.Hbonds>
donor molecule, donor type, donor heavy atom, donor atom, acceptor molecule, acceptor atom, score
      L1  H     8    30       P1  7948  1.00
      L1  H    11    31       P1  7948  0.89
      L1  C    15    34       P1 10952  0.91

> <Gold.PLP.Chemscore.Internal.Correction>
0.0060

> <Gold.Rescore>
     Score         DG    S(hbond)    S(metal)    S(lipo)     H(rot)  DE(clash)    DE(int)     intcor
     16.84     -18.46       1.94        0.00      84.14       1.30       0.05       1.57       ----

> <Gold.Chemscore.Fitness>
16.8423

> <Gold.Chemscore.DG>
-18.4619

> <Gold.Chemscore.ZeroCoef>
-5.4800

> <Gold.Chemscore.Hbond>
1.9389

> <Gold.Chemscore.Metal>
0.0000

> <Gold.Chemscore.Lipo>
84.1417

> <Gold.Chemscore.Internal_Hbond>
0.0000

> <Gold.Chemscore.DEClash>
0.0480

> <Gold.Chemscore.DEInternal>
1.5716

> <Gold.Chemscore.Rot>
1.3041

> <Gold.Chemscore.Internal.Correction>
   9.000000E+99

> <Gold.Chemscore.Hbonds>
donor molecule, donor type, donor heavy atom, donor atom, acceptor molecule, acceptor atom, score
      L1  H     8    30       P1  7948  0.94
      L1  H    11    31       P1  7948  0.80

> <Gold.Chemscore.Hbond.Weighted>
-6.4758

> <Gold.Chemscore.Metal.Weighted>
-0.0000

> <Gold.Chemscore.Lipo.Weighted>
-9.8446

> <Gold.Chemscore.Internal_Hbond.Weighted>
0.0000

> <Gold.Chemscore.DEClash.Weighted>
0.0480

> <Gold.Chemscore.DEInternal.Weighted>
1.5716

> <Gold.Chemscore.Rot.Weighted>
3.3384

> <Gold.Chemscore.Internal.Correction.Weighted>
   9.000000E+99

> <Gold.Protein.RotatedTorsions>
[ 6907 6896 6895 6894 ] final  -53.22 input  -60.11 | X-H torsion
[ 7974 7965 7964 7962 ] final  -21.40 input  175.53 | X-H torsion
[ 8008 7997 7996 7995 ] final  -62.31 input   59.86 | X-H torsion
[ 10167 10162 10161 10158 ] final  168.14 input  -65.29 | X-H torsion
[ 10718 10713 10712 10709 ] final -137.16 input   66.30 | X-H torsion
[ 10763 10752 10751 10750 ] final -160.53 input  -60.55 | X-H torsion
[ 11005 11000 10999 10996 ] final   15.50 input  -57.11 | X-H torsion

> <Gold.Protein.ActiveResidues>
 VAL166  LYS551  ARG553  GLY616  TRP617  ASP618  TYR619  PRO620  LYS621  CYS622 
 ASP623  PHE694  ASN695  SER759  ASP760  ASP761  ALA762  ILE779  LEU786  VAL792 
 PHE793  MET794  SER795  GLU796  ALA797  LYS798  CYS799  TRP800  GLU811  SER814 

> <Gold.Protein.RotatedAtoms>
  150.8446  134.7751  159.6960 H   0  0  0  0  0  0  0  0  0  0  0  0  # atno 6907 bound_to 6896
  152.4526  134.5357  159.9834 H   0  0  0  0  0  0  0  0  0  0  0  0  # atno 6908 bound_to 6896
  151.5490  133.3382  159.2985 H   0  0  0  0  0  0  0  0  0  0  0  0  # atno 6909 bound_to 6896
  146.1735  140.4336  142.8523 H   0  0  0  0  0  0  0  0  0  0  0  0  # atno 7974 bound_to 7965
  154.4493  140.0999  156.6567 H   0  0  0  0  0  0  0  0  0  0  0  0  # atno 8008 bound_to 7997
  155.5338  140.3482  155.4413 H   0  0  0  0  0  0  0  0  0  0  0  0  # atno 8009 bound_to 7997
  156.0645  140.1334  156.9891 H   0  0  0  0  0  0  0  0  0  0  0  0  # atno 8010 bound_to 7997
  139.4961  144.3846  151.9584 H   0  0  0  0  0  0  0  0  0  0  0  0  # atno 10167 bound_to 10162
  156.2851  130.7343  151.1352 H   0  0  0  0  0  0  0  0  0  0  0  0  # atno 10718 bound_to 10713
  154.7382  135.3062  154.8774 H   0  0  0  0  0  0  0  0  0  0  0  0  # atno 10763 bound_to 10752
  153.9596  135.6754  153.4749 H   0  0  0  0  0  0  0  0  0  0  0  0  # atno 10764 bound_to 10752
  153.0983  135.4924  154.8744 H   0  0  0  0  0  0  0  0  0  0  0  0  # atno 10765 bound_to 10752
  140.4576  134.1160  155.7711 H   0  0  0  0  0  0  0  0  0  0  0  0  # atno 11005 bound_to 11000
  144.8199  140.6532  143.6360 LP  0  0  0  0  0  0  0  0  0  0  0  0  # atno 17320 bound_to 7965
  145.4276  139.1554  143.4040 LP  0  0  0  0  0  0  0  0  0  0  0  0  # atno 17321 bound_to 7965
  140.3283  144.3347  150.5993 LP  0  0  0  0  0  0  0  0  0  0  0  0  # atno 17342 bound_to 10162
  140.5666  143.2185  151.7672 LP  0  0  0  0  0  0  0  0  0  0  0  0  # atno 17343 bound_to 10162
  157.7326  131.0598  150.5620 LP  0  0  0  0  0  0  0  0  0  0  0  0  # atno 17370 bound_to 10713
  156.5730  130.4284  149.6011 LP  0  0  0  0  0  0  0  0  0  0  0  0  # atno 17371 bound_to 10713
  141.1636  133.8746  157.1779 LP  0  0  0  0  0  0  0  0  0  0  0  0  # atno 17394 bound_to 11000
  139.9966  135.0044  157.0096 LP  0  0  0  0  0  0  0  0  0  0  0  0  # atno 17395 bound_to 11000

$$$$
