AV-unprocessed.smi:2492|AV-procd|sdf|9814|dock5
  -GOLD-   2272013443D 1   1.00000     0.00000
 Structure written by MMmdl.
 33 34  0  0  0  0  0  0  0  0  1 V2000
  153.3652  141.3218  161.2752 C   0  0  0  0  0  0  0  0  0  0  0  0
  152.6121  142.8171  161.9692 S   0  0  0  0  0  0  0  0  0  0  0  0
  151.7871  143.4779  160.4929 C   0  0  1  0  0  0  0  0  0  0  0  0
  151.8940  144.9970  160.3694 C   0  0  0  0  0  0  0  0  0  0  0  0
  151.6186  145.2775  158.8906 C   0  0  0  0  0  0  0  0  0  0  0  0
  152.0672  144.0162  158.1222 C   0  0  2  0  0  0  0  0  0  0  0  0
  151.0184  143.5171  157.2363 N   0  0  0  0  0  0  0  0  0  0  0  0
  150.9424  142.2641  156.7652 C   0  0  0  0  0  0  0  0  0  0  0  0
  151.7643  141.3864  157.0302 O   0  0  0  0  0  0  0  0  0  0  0  0
  149.8676  142.1022  155.9775 N   0  0  0  0  0  0  0  0  0  0  0  0
  149.4806  140.9215  155.2996 C   0  0  0  0  0  0  0  0  0  0  0  0
  148.2401  140.7264  154.8635 N   0  0  0  0  0  0  0  0  0  0  0  0
  148.3614  139.4926  154.2988 C   0  0  0  0  0  0  0  0  0  0  0  0
  147.2235  138.7908  153.6399 C   0  0  0  0  0  0  0  0  0  0  0  0
  149.5676  138.9392  154.3596 N   0  0  0  0  0  0  0  0  0  0  0  0
  150.3326  139.9001  155.0373 O   0  0  0  0  0  0  0  0  0  0  0  0
  152.4118  142.9665  159.1932 C   0  0  0  0  0  0  0  0  0  0  0  0
  153.9455  140.8053  162.0397 H   0  0  0  0  0  0  0  0  0  0  0  0
  154.0309  141.5779  160.4508 H   0  0  0  0  0  0  0  0  0  0  0  0
  152.5986  140.6403  160.9066 H   0  0  0  0  0  0  0  0  0  0  0  0
  150.7352  143.1893  160.5155 H   0  0  0  0  0  0  0  0  0  0  0  0
  151.2023  145.5245  161.0264 H   0  0  0  0  0  0  0  0  0  0  0  0
  152.9051  145.3216  160.6199 H   0  0  0  0  0  0  0  0  0  0  0  0
  150.5505  145.4542  158.7550 H   0  0  0  0  0  0  0  0  0  0  0  0
  152.1370  146.1728  158.5454 H   0  0  0  0  0  0  0  0  0  0  0  0
  152.9625  144.2282  157.5345 H   0  0  0  0  0  0  0  0  0  0  0  0
  150.3007  144.1736  156.9662 H   0  0  0  0  0  0  0  0  0  0  0  0
  149.2677  142.9027  155.8448 H   0  0  0  0  0  0  0  0  0  0  0  0
  147.2986  137.7132  153.7889 H   0  0  0  0  0  0  0  0  0  0  0  0
  147.2260  138.9946  152.5691 H   0  0  0  0  0  0  0  0  0  0  0  0
  146.2735  139.1285  154.0549 H   0  0  0  0  0  0  0  0  0  0  0  0
  153.4961  142.9183  159.3036 H   0  0  0  0  0  0  0  0  0  0  0  0
  152.0727  141.9609  158.9403 H   0  0  0  0  0  0  0  0  0  0  0  0
  1  2  1  0  0  0  0
  1 18  1  0  0  0  0
  1 19  1  0  0  0  0
  1 20  1  0  0  0  0
  2  3  1  0  0  0  0
  3 17  1  0  0  0  0
  3  4  1  0  0  0  0
  3 21  1  0  0  0  0
  4  5  1  0  0  0  0
  4 22  1  0  0  0  0
  4 23  1  0  0  0  0
  5  6  1  0  0  0  0
  5 24  1  0  0  0  0
  5 25  1  0  0  0  0
  6  7  1  0  0  0  0
  6 17  1  0  0  0  0
  6 26  1  0  0  0  0
  7  8  1  0  0  0  0
  7 27  1  0  0  0  0
  8  9  2  0  0  0  0
  8 10  1  0  0  0  0
 10 11  1  0  0  0  0
 10 28  1  0  0  0  0
 11 16  1  0  0  0  0
 11 12  2  0  0  0  0
 12 13  1  0  0  0  0
 13 14  1  0  0  0  0
 13 15  2  0  0  0  0
 14 29  1  0  0  0  0
 14 30  1  0  0  0  0
 14 31  1  0  0  0  0
 15 16  1  0  0  0  0
 17 32  1  0  0  0  0
 17 33  1  0  0  0  0
M  END
> <s_m_source_file>
AV-unprocessed.smi

> <i_m_source_file_index>
2492

> <i_lp_mmshare_version>
43012

> <i_f3d_flags>
0

> <s_epik_input>
W0NIM11TW0NAQEhdMVtDSDJdW0NIMl1bQ0BIXShbQ0gyXTEpW05IXUMoPU8pW05IXWMybmMoW0NIM10pbm8y

> <s_epik_cmdline>
J2VwaWtfcHl0aG9uJywgJy1waCcsICc3LjAnLCAnLXRuJywgJzgnLCAnLW1hJywgJzIwMCcsICctbWV0YWxfYmluZGluZycsICctaW1hZScsICc8aW5maWxlLm1hZT4nLCAnLW9tYWUnLCAnPG91dGZpbGUubWFlPic=

> <r_lp_tautomer_probability>
1

> <r_epik_Ionization_Penalty>
3.56659e-05

> <r_epik_Ionization_Penalty_Charging>
0

> <r_epik_Ionization_Penalty_Neutral>
3.56659e-05

> <r_epik_State_Penalty>
-0

> <r_epik_Charging_Adjusted_Penalty>
0

> <i_epik_Tot_Q>
0

> <i_epik_Tot_abs_Q>
0

> <r_epik_Metal_State_Penalty>
0.0146047

> <b_epik_Metal_Only>
0

> <s_lp_Force_Field>
OPLS_2005

> <r_lp_Energy>
12.826

> <b_lp_Chiralities_Consistent>
1

> <s_lp_Variant>
AV-unprocessed.smi:2492-4

> <Gold.Version>
5.8.1

> <Gold.Id.Protein>
6NUR|6NUR_protein|mol2

> <Gold.PLP.Fitness>
46.4795

> <Gold.PLP.PLP>
-39.4663

> <Gold.PLP.part.hbond>
-3.0000

> <Gold.PLP.part.metal>
0.0000

> <Gold.PLP.part.buried>
-3.3172

> <Gold.PLP.part.nonpolar>
-34.0628

> <Gold.PLP.part.repulsive>
0.8503

> <Gold.PLP.ligand.clash>
0.0000

> <Gold.PLP.ligand.torsion>
0.9129

> <Gold.PLP.Chemscore.Hbond>
2.9440

> <Gold.PLP.Chemscore.CHOScore>
0.0000

> <Gold.PLP.Chemscore.Metal>
0.0000

> <Gold.Chemscore.Hbonds>
donor molecule, donor type, donor heavy atom, donor atom, acceptor molecule, acceptor atom, score
      L1  H     7    27       P1  8028  1.00
      L1  H    10    28       P1  8028  1.00
      P1  H  7989  7998       L1    16  0.49

> <Gold.PLP.Chemscore.Internal.Correction>
0.0070

> <Gold.Rescore>
     Score         DG    S(hbond)    S(metal)    S(lipo)     H(rot)  DE(clash)    DE(int)     intcor
     17.33     -21.05       2.63        0.00      85.93       1.28       0.39       3.33       ----

> <Gold.Chemscore.Fitness>
17.3259

> <Gold.Chemscore.DG>
-21.0488

> <Gold.Chemscore.ZeroCoef>
-5.4800

> <Gold.Chemscore.Hbond>
2.6333

> <Gold.Chemscore.Metal>
0.0000

> <Gold.Chemscore.Lipo>
85.9345

> <Gold.Chemscore.Internal_Hbond>
0.0000

> <Gold.Chemscore.DEClash>
0.3898

> <Gold.Chemscore.DEInternal>
3.3330

> <Gold.Chemscore.Rot>
1.2815

> <Gold.Chemscore.Internal.Correction>
   9.000000E+99

> <Gold.Chemscore.Hbonds>
donor molecule, donor type, donor heavy atom, donor atom, acceptor molecule, acceptor atom, score
      L1  H     7    27       P1  8028  0.87
      L1  H    10    28       P1  8028  0.98
      P1  H  7989  7998       L1    16  0.07

> <Gold.Chemscore.Hbond.Weighted>
-8.7952

> <Gold.Chemscore.Metal.Weighted>
-0.0000

> <Gold.Chemscore.Lipo.Weighted>
-10.0543

> <Gold.Chemscore.Internal_Hbond.Weighted>
0.0000

> <Gold.Chemscore.DEClash.Weighted>
0.3898

> <Gold.Chemscore.DEInternal.Weighted>
3.3330

> <Gold.Chemscore.Rot.Weighted>
3.2808

> <Gold.Chemscore.Internal.Correction.Weighted>
   9.000000E+99

> <Gold.Protein.RotatedTorsions>
[ 6907 6896 6895 6894 ] final  -10.95 input  -60.11 | X-H torsion
[ 7974 7965 7964 7962 ] final   34.58 input  175.53 | X-H torsion
[ 8008 7997 7996 7995 ] final -144.29 input   59.86 | X-H torsion
[ 10167 10162 10161 10158 ] final  146.04 input  -65.29 | X-H torsion
[ 10718 10713 10712 10709 ] final  -93.59 input   66.30 | X-H torsion
[ 10763 10752 10751 10750 ] final  -42.40 input  -60.55 | X-H torsion
[ 11005 11000 10999 10996 ] final   -1.61 input  -57.11 | X-H torsion

> <Gold.Protein.ActiveResidues>
 VAL166  LYS551  ARG553  GLY616  TRP617  ASP618  TYR619  PRO620  LYS621  CYS622 
 ASP623  PHE694  ASN695  SER759  ASP760  ASP761  ALA762  ILE779  LEU786  VAL792 
 PHE793  MET794  SER795  GLU796  ALA797  LYS798  CYS799  TRP800  GLU811  SER814 

> <Gold.Protein.RotatedAtoms>
  151.3939  135.0960  159.9534 H   0  0  0  0  0  0  0  0  0  0  0  0  # atno 6907 bound_to 6896
  152.5071  133.8953  159.7424 H   0  0  0  0  0  0  0  0  0  0  0  0  # atno 6908 bound_to 6896
  150.9412  133.6598  159.2819 H   0  0  0  0  0  0  0  0  0  0  0  0  # atno 6909 bound_to 6896
  146.1343  139.6251  142.9206 H   0  0  0  0  0  0  0  0  0  0  0  0  # atno 7974 bound_to 7965
  155.5245  140.0594  157.2900 H   0  0  0  0  0  0  0  0  0  0  0  0  # atno 8008 bound_to 7997
  154.4506  140.1946  156.0477 H   0  0  0  0  0  0  0  0  0  0  0  0  # atno 8009 bound_to 7997
  156.0695  140.3262  155.7563 H   0  0  0  0  0  0  0  0  0  0  0  0  # atno 8010 bound_to 7997
  139.4914  144.5858  151.6780 H   0  0  0  0  0  0  0  0  0  0  0  0  # atno 10167 bound_to 10162
  156.0015  130.5033  150.5799 H   0  0  0  0  0  0  0  0  0  0  0  0  # atno 10718 bound_to 10713
  153.9784  135.6720  153.4749 H   0  0  0  0  0  0  0  0  0  0  0  0  # atno 10763 bound_to 10752
  153.0760  135.4948  154.8401 H   0  0  0  0  0  0  0  0  0  0  0  0  # atno 10764 bound_to 10752
  154.7179  135.3111  154.9056 H   0  0  0  0  0  0  0  0  0  0  0  0  # atno 10765 bound_to 10752
  140.6492  133.9419  155.8370 H   0  0  0  0  0  0  0  0  0  0  0  0  # atno 11005 bound_to 11000
  145.5191  141.0432  143.2445 LP  0  0  0  0  0  0  0  0  0  0  0  0  # atno 17320 bound_to 7965
  144.7723  139.6707  143.7189 LP  0  0  0  0  0  0  0  0  0  0  0  0  # atno 17321 bound_to 7965
  140.5474  144.0480  150.6113 LP  0  0  0  0  0  0  0  0  0  0  0  0  # atno 17342 bound_to 10162
  140.3523  143.2956  152.0473 LP  0  0  0  0  0  0  0  0  0  0  0  0  # atno 17343 bound_to 10162
  157.3681  131.0761  151.1581 LP  0  0  0  0  0  0  0  0  0  0  0  0  # atno 17370 bound_to 10713
  157.2343  130.6540  149.5863 LP  0  0  0  0  0  0  0  0  0  0  0  0  # atno 17371 bound_to 10713
  141.0549  134.0431  157.3735 LP  0  0  0  0  0  0  0  0  0  0  0  0  # atno 17394 bound_to 11000
  139.9052  135.0177  156.7452 LP  0  0  0  0  0  0  0  0  0  0  0  0  # atno 17395 bound_to 11000

$$$$
