AV-unprocessed.smi:525|AV-procd|sdf|2807|dock5
  -GOLD-   2262023283D 1   1.00000     0.00000
 Structure written by MMmdl.
 43 45  0  0  0  0  0  0  0  0  1 V2000
  157.3017  140.2492  159.3683 C   0  0  0  0  0  0  0  0  0  0  0  0
  156.5741  141.1534  160.1813 O   0  0  0  0  0  0  0  0  0  0  0  0
  155.9441  140.5084  161.2740 C   0  0  0  0  0  0  0  0  0  0  0  0
  154.6646  139.8205  160.7836 C   0  0  0  0  0  0  0  0  0  0  0  0
  153.7344  140.7749  160.2011 N   0  0  0  0  0  0  0  0  0  0  0  0
  153.0811  140.6848  159.0173 C   0  0  0  0  0  0  0  0  0  0  0  0
  153.2744  139.2985  157.9473 S   0  0  0  0  0  0  0  0  0  0  0  0
  151.5612  138.6707  157.9870 C   0  0  2  0  0  0  0  0  0  0  0  0
  151.4922  137.1444  157.8154 C   0  0  0  0  0  0  0  0  0  0  0  0
  152.0563  136.6416  156.7137 N   0  0  0  0  0  0  0  0  0  0  0  0
  150.9622  136.4203  158.6572 O   0  0  0  0  0  0  0  0  0  0  0  0
  150.7173  139.4153  156.9537 C   0  0  0  0  0  0  0  0  0  0  0  0
  149.7136  140.3286  157.3521 C   0  0  0  0  0  0  0  0  0  0  0  0
  148.9297  140.9910  156.3880 C   0  0  0  0  0  0  0  0  0  0  0  0
  149.1432  140.7477  155.0181 C   0  0  0  0  0  0  0  0  0  0  0  0
  150.1415  139.8415  154.6132 C   0  0  0  0  0  0  0  0  0  0  0  0
  150.9257  139.1785  155.5769 C   0  0  0  0  0  0  0  0  0  0  0  0
  152.2810  141.7083  158.7177 N   0  0  0  0  0  0  0  0  0  0  0  0
  152.4370  142.5447  159.8059 C   0  0  0  0  0  0  0  0  0  0  0  0
  151.8552  143.8011  160.0895 C   0  0  0  0  0  0  0  0  0  0  0  0
  152.1729  144.4812  161.2835 C   0  0  0  0  0  0  0  0  0  0  0  0
  153.0754  143.9168  162.2082 C   0  0  0  0  0  0  0  0  0  0  0  0
  153.6657  142.6658  161.9453 C   0  0  0  0  0  0  0  0  0  0  0  0
  153.3437  141.9901  160.7531 C   0  0  0  0  0  0  0  0  0  0  0  0
  157.7604  140.7882  158.5394 H   0  0  0  0  0  0  0  0  0  0  0  0
  156.6493  139.4811  158.9510 H   0  0  0  0  0  0  0  0  0  0  0  0
  158.0973  139.7631  159.9338 H   0  0  0  0  0  0  0  0  0  0  0  0
  156.6207  139.7761  161.7176 H   0  0  0  0  0  0  0  0  0  0  0  0
  155.7025  141.2410  162.0432 H   0  0  0  0  0  0  0  0  0  0  0  0
  154.8998  139.0525  160.0464 H   0  0  0  0  0  0  0  0  0  0  0  0
  154.1718  139.3100  161.6115 H   0  0  0  0  0  0  0  0  0  0  0  0
  151.1395  138.8833  158.9699 H   0  0  0  0  0  0  0  0  0  0  0  0
  152.0436  135.6446  156.5518 H   0  0  0  0  0  0  0  0  0  0  0  0
  152.4967  137.2604  156.0486 H   0  0  0  0  0  0  0  0  0  0  0  0
  149.5413  140.5245  158.4003 H   0  0  0  0  0  0  0  0  0  0  0  0
  148.1646  141.6862  156.7004 H   0  0  0  0  0  0  0  0  0  0  0  0
  148.5415  141.2559  154.2790 H   0  0  0  0  0  0  0  0  0  0  0  0
  150.3054  139.6536  153.5623 H   0  0  0  0  0  0  0  0  0  0  0  0
  151.6862  138.4832  155.2527 H   0  0  0  0  0  0  0  0  0  0  0  0
  151.1635  144.2426  159.3873 H   0  0  0  0  0  0  0  0  0  0  0  0
  151.7223  145.4408  161.4909 H   0  0  0  0  0  0  0  0  0  0  0  0
  153.3142  144.4445  163.1199 H   0  0  0  0  0  0  0  0  0  0  0  0
  154.3575  142.2314  162.6516 H   0  0  0  0  0  0  0  0  0  0  0  0
  1  2  1  0  0  0  0
  1 25  1  0  0  0  0
  1 26  1  0  0  0  0
  1 27  1  0  0  0  0
  2  3  1  0  0  0  0
  3  4  1  0  0  0  0
  3 28  1  0  0  0  0
  3 29  1  0  0  0  0
  4  5  1  0  0  0  0
  4 30  1  0  0  0  0
  4 31  1  0  0  0  0
  5 24  1  0  0  0  0
  5  6  1  0  0  0  0
  6  7  1  0  0  0  0
  6 18  2  0  0  0  0
  7  8  1  0  0  0  0
  8  9  1  0  0  0  0
  8 12  1  0  0  0  0
  8 32  1  0  0  0  0
  9 10  1  0  0  0  0
  9 11  2  0  0  0  0
 10 33  1  0  0  0  0
 10 34  1  0  0  0  0
 12 17  1  0  0  0  0
 12 13  2  0  0  0  0
 13 14  1  0  0  0  0
 13 35  1  0  0  0  0
 14 15  2  0  0  0  0
 14 36  1  0  0  0  0
 15 16  1  0  0  0  0
 15 37  1  0  0  0  0
 16 17  2  0  0  0  0
 16 38  1  0  0  0  0
 17 39  1  0  0  0  0
 18 19  1  0  0  0  0
 19 24  2  0  0  0  0
 19 20  1  0  0  0  0
 20 21  2  0  0  0  0
 20 40  1  0  0  0  0
 21 22  1  0  0  0  0
 21 41  1  0  0  0  0
 22 23  2  0  0  0  0
 22 42  1  0  0  0  0
 23 24  1  0  0  0  0
 23 43  1  0  0  0  0
M  END
> <s_m_source_file>
AV-unprocessed.smi

> <i_m_source_file_index>
525

> <i_lp_mmshare_version>
43012

> <i_f3d_flags>
0

> <s_epik_input>
W2NIXTFbY0hdW2NIXVtjSF1jKGMxMiluKFtDSDJdW0NIMl1PW0NIM10pYyhuMilTW0NASF0oQyg9TylbTkgyXSljM1tjSF1bY0hdW2NIXVtjSF1bY0hdMw==

> <s_epik_cmdline>
J2VwaWtfcHl0aG9uJywgJy1waCcsICc3LjAnLCAnLXRuJywgJzgnLCAnLW1hJywgJzIwMCcsICctbWV0YWxfYmluZGluZycsICctaW1hZScsICc8aW5maWxlLm1hZT4nLCAnLW9tYWUnLCAnPG91dGZpbGUubWFlPic=

> <r_epik_Ionization_Penalty>
0.0706634

> <r_epik_Ionization_Penalty_Charging>
0

> <r_epik_Ionization_Penalty_Neutral>
0.0706634

> <r_epik_State_Penalty>
0.0619781

> <r_epik_Charging_Adjusted_Penalty>
0.0619781

> <i_epik_Tot_Q>
0

> <i_epik_Tot_abs_Q>
0

> <r_epik_Metal_State_Penalty>
0.0552401

> <b_epik_Metal_Only>
0

> <s_lp_Force_Field>
OPLS_2005

> <r_lp_Energy>
11.715

> <b_lp_Chiralities_Consistent>
1

> <s_lp_Variant>
AV-unprocessed.smi:525-1

> <Gold.Version>
5.8.1

> <Gold.Id.Protein>
6NUR|6NUR_protein|mol2

> <Gold.PLP.Fitness>
46.6121

> <Gold.PLP.PLP>
-44.7546

> <Gold.PLP.part.hbond>
-2.0000

> <Gold.PLP.part.metal>
0.0000

> <Gold.PLP.part.buried>
-2.2639

> <Gold.PLP.part.nonpolar>
-39.3335

> <Gold.PLP.part.repulsive>
0.1393

> <Gold.PLP.ligand.clash>
0.0000

> <Gold.PLP.ligand.torsion>
0.7349

> <Gold.PLP.Chemscore.Hbond>
1.0000

> <Gold.PLP.Chemscore.CHOScore>
0.0000

> <Gold.PLP.Chemscore.Metal>
0.0000

> <Gold.Chemscore.Hbonds>
donor molecule, donor type, donor heavy atom, donor atom, acceptor molecule, acceptor atom, score
      P1  H  6896  6909       L1    11  0.72

> <Gold.PLP.Chemscore.Internal.Correction>
0.3275

> <Gold.Rescore>
     Score         DG    S(hbond)    S(metal)    S(lipo)     H(rot)  DE(clash)    DE(int)     intcor
     15.61     -16.43       0.89        0.00     121.41       2.44       0.23       0.59       ----

> <Gold.Chemscore.Fitness>
15.6051

> <Gold.Chemscore.DG>
-16.4266

> <Gold.Chemscore.ZeroCoef>
-5.4800

> <Gold.Chemscore.Hbond>
0.8944

> <Gold.Chemscore.Metal>
0.0000

> <Gold.Chemscore.Lipo>
121.4071

> <Gold.Chemscore.Internal_Hbond>
0.0000

> <Gold.Chemscore.DEClash>
0.2282

> <Gold.Chemscore.DEInternal>
0.5933

> <Gold.Chemscore.Rot>
2.4396

> <Gold.Chemscore.Internal.Correction>
   9.000000E+99

> <Gold.Chemscore.Hbonds>
donor molecule, donor type, donor heavy atom, donor atom, acceptor molecule, acceptor atom, score
      P1  H  6896  6909       L1    11  0.72

> <Gold.Chemscore.Hbond.Weighted>
-2.9874

> <Gold.Chemscore.Metal.Weighted>
-0.0000

> <Gold.Chemscore.Lipo.Weighted>
-14.2046

> <Gold.Chemscore.Internal_Hbond.Weighted>
0.0000

> <Gold.Chemscore.DEClash.Weighted>
0.2282

> <Gold.Chemscore.DEInternal.Weighted>
0.5933

> <Gold.Chemscore.Rot.Weighted>
6.2454

> <Gold.Chemscore.Internal.Correction.Weighted>
   9.000000E+99

> <Gold.Protein.RotatedTorsions>
[ 6907 6896 6895 6894 ] final   72.82 input  -60.11 | X-H torsion
[ 7974 7965 7964 7962 ] final  -69.50 input  175.53 | X-H torsion
[ 8008 7997 7996 7995 ] final -144.72 input   59.86 | X-H torsion
[ 10167 10162 10161 10158 ] final   37.73 input  -65.29 | X-H torsion
[ 10718 10713 10712 10709 ] final -160.50 input   66.30 | X-H torsion
[ 10763 10752 10751 10750 ] final  -96.04 input  -60.55 | X-H torsion
[ 11005 11000 10999 10996 ] final  -72.08 input  -57.11 | X-H torsion

> <Gold.Protein.ActiveResidues>
 VAL166  LYS551  ARG553  GLY616  TRP617  ASP618  TYR619  PRO620  LYS621  CYS622 
 ASP623  PHE694  ASN695  SER759  ASP760  ASP761  ALA762  ILE779  LEU786  VAL792 
 PHE793  MET794  SER795  GLU796  ALA797  LYS798  CYS799  TRP800  GLU811  SER814 

> <Gold.Protein.RotatedAtoms>
  152.4889  134.4515  159.9575 H   0  0  0  0  0  0  0  0  0  0  0  0  # atno 6907 bound_to 6896
  151.4506  133.3612  159.2802 H   0  0  0  0  0  0  0  0  0  0  0  0  # atno 6908 bound_to 6896
  150.9024  134.8462  159.7430 H   0  0  0  0  0  0  0  0  0  0  0  0  # atno 6909 bound_to 6896
  145.7029  140.9109  143.0721 H   0  0  0  0  0  0  0  0  0  0  0  0  # atno 7974 bound_to 7965
  155.5315  140.0600  157.2888 H   0  0  0  0  0  0  0  0  0  0  0  0  # atno 8008 bound_to 7997
  154.4483  140.1935  156.0544 H   0  0  0  0  0  0  0  0  0  0  0  0  # atno 8009 bound_to 7997
  156.0649  140.3267  155.7509 H   0  0  0  0  0  0  0  0  0  0  0  0  # atno 8010 bound_to 7997
  140.4004  144.1731  150.6133 H   0  0  0  0  0  0  0  0  0  0  0  0  # atno 10167 bound_to 10162
  156.5830  130.8737  151.2869 H   0  0  0  0  0  0  0  0  0  0  0  0  # atno 10718 bound_to 10713
  154.7203  135.5098  153.8802 H   0  0  0  0  0  0  0  0  0  0  0  0  # atno 10763 bound_to 10752
  153.0856  135.6644  153.9964 H   0  0  0  0  0  0  0  0  0  0  0  0  # atno 10764 bound_to 10752
  153.9788  135.3031  155.3401 H   0  0  0  0  0  0  0  0  0  0  0  0  # atno 10765 bound_to 10752
  141.1603  133.6836  156.7005 H   0  0  0  0  0  0  0  0  0  0  0  0  # atno 11005 bound_to 11000
  144.6963  139.8972  143.7456 LP  0  0  0  0  0  0  0  0  0  0  0  0  # atno 17320 bound_to 7965
  146.0781  139.3769  143.0481 LP  0  0  0  0  0  0  0  0  0  0  0  0  # atno 17321 bound_to 7965
  140.4745  143.2401  151.9042 LP  0  0  0  0  0  0  0  0  0  0  0  0  # atno 17342 bound_to 10162
  139.4785  144.5334  151.8633 LP  0  0  0  0  0  0  0  0  0  0  0  0  # atno 17343 bound_to 10162
  157.7322  130.9711  150.1916 LP  0  0  0  0  0  0  0  0  0  0  0  0  # atno 17370 bound_to 10713
  156.2615  130.3711  149.8125 LP  0  0  0  0  0  0  0  0  0  0  0  0  # atno 17371 bound_to 10713
  140.2962  134.8200  157.4059 LP  0  0  0  0  0  0  0  0  0  0  0  0  # atno 17394 bound_to 11000
  140.1302  134.5105  155.8112 LP  0  0  0  0  0  0  0  0  0  0  0  0  # atno 17395 bound_to 11000

$$$$
