AV-unprocessed.smi:833|AV-procd|sdf|3881|dock1
  -GOLD-   22720 1333D 1   1.00000     0.00000
 Structure written by MMmdl.
 39 40  0  0  0  0  0  0  0  0  1 V2000
  144.7577  143.7743  156.3167 C   0  0  0  0  0  0  0  0  0  0  0  0
  144.9069  142.4607  155.5373 C   0  0  1  0  0  0  0  0  0  0  0  0
  143.6782  142.2353  154.8771 O   0  0  0  0  0  0  0  0  0  0  0  0
  146.0381  142.5342  154.4914 C   0  0  0  0  0  0  0  0  0  0  0  0
  147.3488  142.3016  155.0883 N   0  0  0  0  0  0  0  0  0  0  0  0
  148.1663  141.2851  154.7828 C   0  0  0  0  0  0  0  0  0  0  0  0
  147.8957  140.4195  153.9507 O   0  0  0  0  0  0  0  0  0  0  0  0
  149.2914  141.3299  155.5149 N   0  0  0  0  0  0  0  0  0  0  0  0
  150.3668  140.3977  155.5228 C   0  0  0  0  0  0  0  0  0  0  0  0
  150.4532  139.3642  154.5583 C   0  0  0  0  0  0  0  0  0  0  0  0
  151.5692  138.5101  154.5601 C   0  0  0  0  0  0  0  0  0  0  0  0
  152.5717  138.7298  155.5189 C   0  0  0  0  0  0  0  0  0  0  0  0
  152.5113  139.7171  156.4348 N   0  0  0  0  0  0  0  0  0  0  0  0
  151.4339  140.5403  156.4558 C   0  0  0  0  0  0  0  0  0  0  0  0
  151.4186  141.5460  157.4498 N   0  0  0  0  0  0  0  0  0  0  0  0
  152.3491  141.4220  158.5684 C   0  0  0  0  0  0  0  0  0  0  0  0
  152.8022  142.8439  158.9162 C   0  0  0  0  0  0  0  0  0  0  0  0
  151.7055  143.7267  158.3290 C   0  0  0  0  0  0  0  0  0  0  0  0
  151.2992  142.9520  157.0787 C   0  0  0  0  0  0  0  0  0  0  0  0
  145.6647  144.0021  156.8770 H   0  0  0  0  0  0  0  0  0  0  0  0
  143.9367  143.7167  157.0324 H   0  0  0  0  0  0  0  0  0  0  0  0
  144.5597  144.6133  155.6486 H   0  0  0  0  0  0  0  0  0  0  0  0
  145.0893  141.6490  156.2431 H   0  0  0  0  0  0  0  0  0  0  0  0
  143.7225  141.3982  154.4393 H   0  0  0  0  0  0  0  0  0  0  0  0
  145.8562  141.8647  153.6483 H   0  0  0  0  0  0  0  0  0  0  0  0
  146.0780  143.5399  154.0721 H   0  0  0  0  0  0  0  0  0  0  0  0
  147.6535  142.9638  155.7865 H   0  0  0  0  0  0  0  0  0  0  0  0
  149.3329  142.0440  156.2273 H   0  0  0  0  0  0  0  0  0  0  0  0
  149.6935  139.2280  153.8036 H   0  0  0  0  0  0  0  0  0  0  0  0
  151.6603  137.7149  153.8352 H   0  0  0  0  0  0  0  0  0  0  0  0
  153.4488  138.1004  155.5486 H   0  0  0  0  0  0  0  0  0  0  0  0
  151.8223  140.9840  159.4164 H   0  0  0  0  0  0  0  0  0  0  0  0
  153.1986  140.7808  158.3289 H   0  0  0  0  0  0  0  0  0  0  0  0
  152.9432  142.9939  159.9869 H   0  0  0  0  0  0  0  0  0  0  0  0
  153.7492  143.0588  158.4193 H   0  0  0  0  0  0  0  0  0  0  0  0
  150.8647  143.7875  159.0214 H   0  0  0  0  0  0  0  0  0  0  0  0
  152.0417  144.7407  158.1109 H   0  0  0  0  0  0  0  0  0  0  0  0
  151.9814  143.1971  156.2637 H   0  0  0  0  0  0  0  0  0  0  0  0
  150.2846  143.1953  156.7621 H   0  0  0  0  0  0  0  0  0  0  0  0
  1  2  1  0  0  0  0
  1 20  1  0  0  0  0
  1 21  1  0  0  0  0
  1 22  1  0  0  0  0
  2  3  1  0  0  0  0
  2  4  1  0  0  0  0
  2 23  1  0  0  0  0
  3 24  1  0  0  0  0
  4  5  1  0  0  0  0
  4 25  1  0  0  0  0
  4 26  1  0  0  0  0
  5  6  1  0  0  0  0
  5 27  1  0  0  0  0
  6  7  2  0  0  0  0
  6  8  1  0  0  0  0
  8  9  1  0  0  0  0
  8 28  1  0  0  0  0
  9 14  1  0  0  0  0
  9 10  2  0  0  0  0
 10 11  1  0  0  0  0
 10 29  1  0  0  0  0
 11 12  2  0  0  0  0
 11 30  1  0  0  0  0
 12 13  1  0  0  0  0
 12 31  1  0  0  0  0
 13 14  2  0  0  0  0
 14 15  1  0  0  0  0
 15 19  1  0  0  0  0
 15 16  1  0  0  0  0
 16 17  1  0  0  0  0
 16 32  1  0  0  0  0
 16 33  1  0  0  0  0
 17 18  1  0  0  0  0
 17 34  1  0  0  0  0
 17 35  1  0  0  0  0
 18 19  1  0  0  0  0
 18 36  1  0  0  0  0
 18 37  1  0  0  0  0
 19 38  1  0  0  0  0
 19 39  1  0  0  0  0
M  END
> <s_m_source_file>
AV-unprocessed.smi

> <i_m_source_file_index>
833

> <i_lp_mmshare_version>
43012

> <i_f3d_flags>
0

> <s_epik_input>
W0NIM11bQ0BIXShbT0hdKVtDSDJdW05IXUMoPU8pW05IXWMxW2NIXVtjSF1bY0hdbmMxTjJbQ0gyXVtDSDJdW0NIMl1bQ0gyXTI=

> <s_epik_cmdline>
J2VwaWtfcHl0aG9uJywgJy1waCcsICc3LjAnLCAnLXRuJywgJzgnLCAnLW1hJywgJzIwMCcsICctbWV0YWxfYmluZGluZycsICctaW1hZScsICc8aW5maWxlLm1hZT4nLCAnLW9tYWUnLCAnPG91dGZpbGUubWFlPic=

> <r_lp_tautomer_probability>
1

> <r_epik_Ionization_Penalty>
0.0986749

> <r_epik_Ionization_Penalty_Charging>
0

> <r_epik_Ionization_Penalty_Neutral>
0.0986749

> <r_epik_State_Penalty>
0.0881977

> <r_epik_Charging_Adjusted_Penalty>
0.0881977

> <i_epik_Tot_Q>
0

> <i_epik_Tot_abs_Q>
0

> <r_epik_Metal_State_Penalty>
0.0755487

> <b_epik_Metal_Only>
0

> <s_lp_Force_Field>
OPLS_2005

> <r_lp_Energy>
30.9988

> <b_lp_Chiralities_Consistent>
1

> <s_lp_Variant>
AV-unprocessed.smi:833-2

> <Gold.Version>
5.8.1

> <Gold.Id.Protein>
6NUR|6NUR_protein|mol2

> <Gold.PLP.Fitness>
45.1656

> <Gold.PLP.PLP>
-38.2211

> <Gold.PLP.part.hbond>
-4.0000

> <Gold.PLP.part.metal>
0.0000

> <Gold.PLP.part.buried>
-4.2867

> <Gold.PLP.part.nonpolar>
-30.9582

> <Gold.PLP.part.repulsive>
0.4091

> <Gold.PLP.ligand.clash>
0.0000

> <Gold.PLP.ligand.torsion>
0.4263

> <Gold.PLP.Chemscore.Hbond>
2.4880

> <Gold.PLP.Chemscore.CHOScore>
0.0000

> <Gold.PLP.Chemscore.Metal>
0.0000

> <Gold.Chemscore.Hbonds>
donor molecule, donor type, donor heavy atom, donor atom, acceptor molecule, acceptor atom, score
      L1  H     3    24       P1 10175  0.64
      L1  H     5    27       P1  8028  0.50
      P1  H  7997  8008       L1    13  1.00

> <Gold.PLP.Chemscore.Internal.Correction>
0.3332

> <Gold.Rescore>
     Score         DG    S(hbond)    S(metal)    S(lipo)     H(rot)  DE(clash)    DE(int)     intcor
     10.82     -14.12       1.13        0.00      85.95       2.03       1.48       1.82       ----

> <Gold.Chemscore.Fitness>
10.8210

> <Gold.Chemscore.DG>
-14.1217

> <Gold.Chemscore.ZeroCoef>
-5.4800

> <Gold.Chemscore.Hbond>
1.1331

> <Gold.Chemscore.Metal>
0.0000

> <Gold.Chemscore.Lipo>
85.9459

> <Gold.Chemscore.Internal_Hbond>
0.0000

> <Gold.Chemscore.DEClash>
1.4771

> <Gold.Chemscore.DEInternal>
1.8236

> <Gold.Chemscore.Rot>
2.0306

> <Gold.Chemscore.Internal.Correction>
   9.000000E+99

> <Gold.Chemscore.Hbonds>
donor molecule, donor type, donor heavy atom, donor atom, acceptor molecule, acceptor atom, score
      L1  H     3    24       P1 10175  0.25
      L1  H     5    27       P1  8028  0.17
      P1  H  7997  8008       L1    13  0.29

> <Gold.Chemscore.Hbond.Weighted>
-3.7844

> <Gold.Chemscore.Metal.Weighted>
-0.0000

> <Gold.Chemscore.Lipo.Weighted>
-10.0557

> <Gold.Chemscore.Internal_Hbond.Weighted>
0.0000

> <Gold.Chemscore.DEClash.Weighted>
1.4771

> <Gold.Chemscore.DEInternal.Weighted>
1.8236

> <Gold.Chemscore.Rot.Weighted>
5.1984

> <Gold.Chemscore.Internal.Correction.Weighted>
   9.000000E+99

> <Gold.Protein.RotatedTorsions>
[ 6907 6896 6895 6894 ] final  104.25 input  -60.11 | X-H torsion
[ 7974 7965 7964 7962 ] final  -84.87 input  175.53 | X-H torsion
[ 8008 7997 7996 7995 ] final  -64.81 input   59.86 | X-H torsion
[ 10167 10162 10161 10158 ] final   47.75 input  -65.29 | X-H torsion
[ 10718 10713 10712 10709 ] final   10.53 input   66.30 | X-H torsion
[ 10763 10752 10751 10750 ] final -159.40 input  -60.55 | X-H torsion
[ 11005 11000 10999 10996 ] final  -19.11 input  -57.11 | X-H torsion

> <Gold.Protein.ActiveResidues>
 VAL166  LYS551  ARG553  GLY616  TRP617  ASP618  TYR619  PRO620  LYS621  CYS622 
 ASP623  PHE694  ASN695  SER759  ASP760  ASP761  ALA762  ILE779  LEU786  VAL792 
 PHE793  MET794  SER795  GLU796  ALA797  LYS798  CYS799  TRP800  GLU811  SER814 

> <Gold.Protein.RotatedAtoms>
  152.5270  133.9705  159.7759 H   0  0  0  0  0  0  0  0  0  0  0  0  # atno 6907 bound_to 6896
  150.9978  133.6078  159.2706 H   0  0  0  0  0  0  0  0  0  0  0  0  # atno 6908 bound_to 6896
  151.3198  135.0822  159.9355 H   0  0  0  0  0  0  0  0  0  0  0  0  # atno 6909 bound_to 6896
  145.5008  140.9547  143.1760 H   0  0  0  0  0  0  0  0  0  0  0  0  # atno 7974 bound_to 7965
  154.4634  140.0946  156.6955 H   0  0  0  0  0  0  0  0  0  0  0  0  # atno 8008 bound_to 7997
  155.4928  140.3471  155.4339 H   0  0  0  0  0  0  0  0  0  0  0  0  # atno 8009 bound_to 7997
  156.0912  140.1398  156.9578 H   0  0  0  0  0  0  0  0  0  0  0  0  # atno 8010 bound_to 7997
  140.3004  144.2941  150.6220 H   0  0  0  0  0  0  0  0  0  0  0  0  # atno 10167 bound_to 10162
  156.9824  130.6011  149.5678 H   0  0  0  0  0  0  0  0  0  0  0  0  # atno 10718 bound_to 10713
  154.7478  135.3084  154.8613 H   0  0  0  0  0  0  0  0  0  0  0  0  # atno 10763 bound_to 10752
  153.9409  135.6775  153.4748 H   0  0  0  0  0  0  0  0  0  0  0  0  # atno 10764 bound_to 10752
  153.1074  135.4883  154.8902 H   0  0  0  0  0  0  0  0  0  0  0  0  # atno 10765 bound_to 10752
  140.8335  133.7979  155.9783 H   0  0  0  0  0  0  0  0  0  0  0  0  # atno 11005 bound_to 11000
  144.7781  139.6586  143.7166 LP  0  0  0  0  0  0  0  0  0  0  0  0  # atno 17320 bound_to 7965
  146.2227  139.5665  142.9608 LP  0  0  0  0  0  0  0  0  0  0  0  0  # atno 17321 bound_to 7965
  140.5656  143.2186  151.7689 LP  0  0  0  0  0  0  0  0  0  0  0  0  # atno 17342 bound_to 10162
  139.4916  144.4288  151.9895 LP  0  0  0  0  0  0  0  0  0  0  0  0  # atno 17343 bound_to 10162
  156.0239  130.5333  150.8353 LP  0  0  0  0  0  0  0  0  0  0  0  0  # atno 17370 bound_to 10713
  157.5517  131.0944  150.9686 LP  0  0  0  0  0  0  0  0  0  0  0  0  # atno 17371 bound_to 10713
  140.8973  134.2422  157.5061 LP  0  0  0  0  0  0  0  0  0  0  0  0  # atno 17394 bound_to 11000
  139.8704  134.9690  156.4650 LP  0  0  0  0  0  0  0  0  0  0  0  0  # atno 17395 bound_to 11000

$$$$
