AV-unprocessed.smi:574|AV-procd|sdf|2975|dock7
  -GOLD-   2262023483D 1   1.00000     0.00000
 Structure written by MMmdl.
 40 41  0  0  0  0  0  0  0  0  1 V2000
  147.6155  134.4994  153.0876 C   0  0  0  0  0  0  0  0  0  0  0  0
  148.1372  135.0102  154.4262 C   0  0  0  0  0  0  0  0  0  0  0  0
  147.6290  134.6208  155.4771 O   0  0  0  0  0  0  0  0  0  0  0  0
  149.1524  135.8849  154.3724 N   0  0  0  0  0  0  0  0  0  0  0  0
  149.7963  136.4923  155.5307 C   0  0  0  0  0  0  0  0  0  0  0  0
  150.5857  137.7546  155.1404 C   0  0  0  0  0  0  0  0  0  0  0  0
  151.1580  138.4084  156.3103 N   0  0  0  0  0  0  0  0  0  0  0  0
  151.7606  139.6079  156.3075 C   0  0  0  0  0  0  0  0  0  0  0  0
  151.8575  140.3186  155.3065 O   0  0  0  0  0  0  0  0  0  0  0  0
  152.2584  140.0892  157.6403 C   0  0  0  0  0  0  0  0  0  0  0  0
  152.2812  141.4294  157.8226 N   0  0  0  0  0  0  0  0  0  0  0  0
  152.7264  141.9111  158.9895 C   0  0  0  0  0  0  0  0  0  0  0  0
  152.7404  143.3025  159.1524 N   0  0  0  0  0  0  0  0  0  0  0  0
  152.2511  143.9416  160.3736 C   0  0  0  0  0  0  0  0  0  0  0  0
  150.7805  144.3546  160.1823 C   0  0  0  0  0  0  0  0  0  0  0  0
  150.6740  145.2266  159.0585 O   0  0  0  0  0  0  0  0  0  0  0  0
  151.1384  144.6256  157.8513 C   0  0  0  0  0  0  0  0  0  0  0  0
  152.6130  144.2149  158.0165 C   0  0  0  0  0  0  0  0  0  0  0  0
  153.1589  141.1611  160.0103 N   0  0  0  0  0  0  0  0  0  0  0  0
  153.1592  139.8218  159.8489 C   0  0  0  0  0  0  0  0  0  0  0  0
  152.7170  139.2130  158.6585 C   0  0  0  0  0  0  0  0  0  0  0  0
  152.7901  137.4911  158.4959 Cl  0  0  0  0  0  0  0  0  0  0  0  0
  148.4294  134.0875  152.4906 H   0  0  0  0  0  0  0  0  0  0  0  0
  147.1513  135.3112  152.5272 H   0  0  0  0  0  0  0  0  0  0  0  0
  146.8709  133.7166  153.2344 H   0  0  0  0  0  0  0  0  0  0  0  0
  149.5054  136.1472  153.4633 H   0  0  0  0  0  0  0  0  0  0  0  0
  149.0525  136.7258  156.2946 H   0  0  0  0  0  0  0  0  0  0  0  0
  150.4647  135.7497  155.9668 H   0  0  0  0  0  0  0  0  0  0  0  0
  151.3731  137.5105  154.4253 H   0  0  0  0  0  0  0  0  0  0  0  0
  149.9290  138.4714  154.6469 H   0  0  0  0  0  0  0  0  0  0  0  0
  151.1070  137.9070  157.1855 H   0  0  0  0  0  0  0  0  0  0  0  0
  152.3586  143.3071  161.2529 H   0  0  0  0  0  0  0  0  0  0  0  0
  152.8580  144.8261  160.5705 H   0  0  0  0  0  0  0  0  0  0  0  0
  150.1455  143.4788  160.0387 H   0  0  0  0  0  0  0  0  0  0  0  0
  150.4156  144.8736  161.0688 H   0  0  0  0  0  0  0  0  0  0  0  0
  150.5192  143.7631  157.5993 H   0  0  0  0  0  0  0  0  0  0  0  0
  151.0359  145.3426  157.0367 H   0  0  0  0  0  0  0  0  0  0  0  0
  153.2201  145.0995  158.2117 H   0  0  0  0  0  0  0  0  0  0  0  0
  152.9985  143.7894  157.0906 H   0  0  0  0  0  0  0  0  0  0  0  0
  153.5267  139.2314  160.6751 H   0  0  0  0  0  0  0  0  0  0  0  0
  1  2  1  0  0  0  0
  1 23  1  0  0  0  0
  1 24  1  0  0  0  0
  1 25  1  0  0  0  0
  2  3  2  0  0  0  0
  2  4  1  0  0  0  0
  4  5  1  0  0  0  0
  4 26  1  0  0  0  0
  5  6  1  0  0  0  0
  5 27  1  0  0  0  0
  5 28  1  0  0  0  0
  6  7  1  0  0  0  0
  6 29  1  0  0  0  0
  6 30  1  0  0  0  0
  7  8  1  0  0  0  0
  7 31  1  0  0  0  0
  8  9  2  0  0  0  0
  8 10  1  0  0  0  0
 10 21  1  0  0  0  0
 10 11  2  0  0  0  0
 11 12  1  0  0  0  0
 12 13  1  0  0  0  0
 12 19  2  0  0  0  0
 13 18  1  0  0  0  0
 13 14  1  0  0  0  0
 14 15  1  0  0  0  0
 14 32  1  0  0  0  0
 14 33  1  0  0  0  0
 15 16  1  0  0  0  0
 15 34  1  0  0  0  0
 15 35  1  0  0  0  0
 16 17  1  0  0  0  0
 17 18  1  0  0  0  0
 17 36  1  0  0  0  0
 17 37  1  0  0  0  0
 18 38  1  0  0  0  0
 18 39  1  0  0  0  0
 19 20  1  0  0  0  0
 20 21  2  0  0  0  0
 20 40  1  0  0  0  0
 21 22  1  0  0  0  0
M  END
> <s_m_source_file>
AV-unprocessed.smi

> <i_m_source_file_index>
574

> <i_lp_mmshare_version>
43012

> <i_f3d_flags>
0

> <s_epik_input>
W0NIM11DKD1PKVtOSF1bQ0gyXVtDSDJdW05IXUMoPU8pYzFuYyhuW2NIXWMxQ2wpTjJbQ0gyXVtDSDJdT1tDSDJdW0NIMl0y

> <s_epik_cmdline>
J2VwaWtfcHl0aG9uJywgJy1waCcsICc3LjAnLCAnLXRuJywgJzgnLCAnLW1hJywgJzIwMCcsICctbWV0YWxfYmluZGluZycsICctaW1hZScsICc8aW5maWxlLm1hZT4nLCAnLW9tYWUnLCAnPG91dGZpbGUubWFlPic=

> <r_lp_tautomer_probability>
1

> <r_epik_Ionization_Penalty>
4.61473e-05

> <r_epik_Ionization_Penalty_Charging>
0

> <r_epik_Ionization_Penalty_Neutral>
4.61473e-05

> <r_epik_State_Penalty>
-0

> <r_epik_Charging_Adjusted_Penalty>
0

> <i_epik_Tot_Q>
0

> <i_epik_Tot_abs_Q>
0

> <r_epik_Metal_State_Penalty>
0.0410325

> <b_epik_Metal_Only>
0

> <s_lp_Force_Field>
OPLS_2005

> <r_lp_Energy>
11.2452

> <b_lp_Chiralities_Consistent>
1

> <s_lp_Variant>
AV-unprocessed.smi:574-1

> <Gold.Version>
5.8.1

> <Gold.Id.Protein>
6NUR|6NUR_protein|mol2

> <Gold.PLP.Fitness>
38.8071

> <Gold.PLP.PLP>
-35.0348

> <Gold.PLP.part.hbond>
-2.0000

> <Gold.PLP.part.metal>
0.0000

> <Gold.PLP.part.buried>
-4.5491

> <Gold.PLP.part.nonpolar>
-28.0000

> <Gold.PLP.part.repulsive>
0.2270

> <Gold.PLP.ligand.clash>
0.0000

> <Gold.PLP.ligand.torsion>
0.9524

> <Gold.PLP.Chemscore.Hbond>
1.8247

> <Gold.PLP.Chemscore.CHOScore>
0.0000

> <Gold.PLP.Chemscore.Metal>
0.0000

> <Gold.Chemscore.Hbonds>
donor molecule, donor type, donor heavy atom, donor atom, acceptor molecule, acceptor atom, score
      L1  H     4    26       P1  7948  0.80
      P1  H  7989  7998       L1     9  0.78

> <Gold.PLP.Chemscore.Internal.Correction>
0.2029

> <Gold.Rescore>
     Score         DG    S(hbond)    S(metal)    S(lipo)     H(rot)  DE(clash)    DE(int)     intcor
     13.98     -16.70       1.84        0.00      80.48       1.70       0.49       2.23       ----

> <Gold.Chemscore.Fitness>
13.9750

> <Gold.Chemscore.DG>
-16.7036

> <Gold.Chemscore.ZeroCoef>
-5.4800

> <Gold.Chemscore.Hbond>
1.8409

> <Gold.Chemscore.Metal>
0.0000

> <Gold.Chemscore.Lipo>
80.4796

> <Gold.Chemscore.Internal_Hbond>
0.0000

> <Gold.Chemscore.DEClash>
0.4938

> <Gold.Chemscore.DEInternal>
2.2347

> <Gold.Chemscore.Rot>
1.6957

> <Gold.Chemscore.Internal.Correction>
   9.000000E+99

> <Gold.Chemscore.Hbonds>
donor molecule, donor type, donor heavy atom, donor atom, acceptor molecule, acceptor atom, score
      L1  H     4    26       P1  7948  0.40
      P1  H  7989  7998       L1     9  0.78

> <Gold.Chemscore.Hbond.Weighted>
-6.1484

> <Gold.Chemscore.Metal.Weighted>
-0.0000

> <Gold.Chemscore.Lipo.Weighted>
-9.4161

> <Gold.Chemscore.Internal_Hbond.Weighted>
0.0000

> <Gold.Chemscore.DEClash.Weighted>
0.4938

> <Gold.Chemscore.DEInternal.Weighted>
2.2347

> <Gold.Chemscore.Rot.Weighted>
4.3410

> <Gold.Chemscore.Internal.Correction.Weighted>
   9.000000E+99

> <Gold.Protein.RotatedTorsions>
[ 6907 6896 6895 6894 ] final  129.48 input  -60.11 | X-H torsion
[ 7974 7965 7964 7962 ] final -130.86 input  175.53 | X-H torsion
[ 8008 7997 7996 7995 ] final   41.64 input   59.86 | X-H torsion
[ 10167 10162 10161 10158 ] final   54.22 input  -65.29 | X-H torsion
[ 10718 10713 10712 10709 ] final  110.89 input   66.30 | X-H torsion
[ 10763 10752 10751 10750 ] final  159.49 input  -60.55 | X-H torsion
[ 11005 11000 10999 10996 ] final  -10.02 input  -57.11 | X-H torsion

> <Gold.Protein.ActiveResidues>
 VAL166  LYS551  ARG553  GLY616  TRP617  ASP618  TYR619  PRO620  LYS621  CYS622 
 ASP623  PHE694  ASN695  SER759  ASP760  ASP761  ALA762  ILE779  LEU786  VAL792 
 PHE793  MET794  SER795  GLU796  ALA797  LYS798  CYS799  TRP800  GLU811  SER814 

> <Gold.Protein.RotatedAtoms>
  152.3620  133.6309  159.6021 H   0  0  0  0  0  0  0  0  0  0  0  0  # atno 6907 bound_to 6896
  150.7608  133.9408  159.3464 H   0  0  0  0  0  0  0  0  0  0  0  0  # atno 6908 bound_to 6896
  151.7245  135.0888  160.0341 H   0  0  0  0  0  0  0  0  0  0  0  0  # atno 6909 bound_to 6896
  144.9434  140.7264  143.4833 H   0  0  0  0  0  0  0  0  0  0  0  0  # atno 7974 bound_to 7965
  155.2729  140.3367  155.4264 H   0  0  0  0  0  0  0  0  0  0  0  0  # atno 8008 bound_to 7997
  156.2124  140.1775  156.7706 H   0  0  0  0  0  0  0  0  0  0  0  0  # atno 8009 bound_to 7997
  154.5706  140.0671  156.8942 H   0  0  0  0  0  0  0  0  0  0  0  0  # atno 8010 bound_to 7997
  140.2324  144.3672  150.6409 H   0  0  0  0  0  0  0  0  0  0  0  0  # atno 10167 bound_to 10162
  157.6472  131.0941  150.6668 H   0  0  0  0  0  0  0  0  0  0  0  0  # atno 10718 bound_to 10713
  154.2325  135.2778  155.2884 H   0  0  0  0  0  0  0  0  0  0  0  0  # atno 10763 bound_to 10752
  154.5612  135.5646  153.7012 H   0  0  0  0  0  0  0  0  0  0  0  0  # atno 10764 bound_to 10752
  153.0017  135.6298  154.2468 H   0  0  0  0  0  0  0  0  0  0  0  0  # atno 10765 bound_to 10752
  140.7403  133.8676  155.8962 H   0  0  0  0  0  0  0  0  0  0  0  0  # atno 11005 bound_to 11000
  145.2956  139.1868  143.4717 LP  0  0  0  0  0  0  0  0  0  0  0  0  # atno 17320 bound_to 7965
  146.3294  140.2939  142.8617 LP  0  0  0  0  0  0  0  0  0  0  0  0  # atno 17321 bound_to 7965
  140.6175  143.2173  151.6762 LP  0  0  0  0  0  0  0  0  0  0  0  0  # atno 17342 bound_to 10162
  139.5105  144.3540  152.0626 LP  0  0  0  0  0  0  0  0  0  0  0  0  # atno 17343 bound_to 10162
  156.6983  130.4616  149.5580 LP  0  0  0  0  0  0  0  0  0  0  0  0  # atno 17370 bound_to 10713
  156.1813  130.6500  151.0954 LP  0  0  0  0  0  0  0  0  0  0  0  0  # atno 17371 bound_to 10713
  140.9842  134.1364  157.4467 LP  0  0  0  0  0  0  0  0  0  0  0  0  # atno 17394 bound_to 11000
  139.8807  135.0020  156.6102 LP  0  0  0  0  0  0  0  0  0  0  0  0  # atno 17395 bound_to 11000

$$$$
