AV-unprocessed.smi:13|AV-procd|sdf|73|dock9
  -GOLD-   2262015193D 1   1.00000     0.00000
 Structure written by MMmdl.
 54 58  0  0  0  0  0  0  0  0  1 V2000
  151.7852  143.5411  156.9316 C   0  0  0  0  0  0  0  0  0  0  0  0
  151.0098  142.3633  157.5380 C   0  0  0  0  0  0  0  0  0  0  0  0
  149.5260  142.7115  157.4228 C   0  0  0  0  0  0  0  0  0  0  0  0
  151.4128  140.9806  157.0025 C   0  0  0  0  0  0  0  0  0  0  0  0
  152.2556  140.8472  158.1776 N   0  0  0  0  0  0  0  0  0  0  0  0
  152.3349  139.5192  158.6908 C   0  0  0  0  0  0  0  0  0  0  0  0
  151.2224  138.7415  158.7730 N   0  0  0  0  0  0  0  0  0  0  0  0
  151.2783  137.5021  159.2672 C   0  0  0  0  0  0  0  0  0  0  0  0
  152.3355  136.8407  159.7378 N   0  0  0  0  0  0  0  0  0  0  0  0
  153.4606  137.6069  159.6688 C   0  0  0  0  0  0  0  0  0  0  0  0
  153.5442  138.9388  159.1707 C   0  0  0  0  0  0  0  0  0  0  0  0
  154.8521  139.3974  159.2743 N   0  0  0  0  0  0  0  0  0  0  0  0
  155.5034  138.3946  159.7964 C   0  0  0  0  0  0  0  0  0  0  0  0
  154.7470  137.2748  160.0576 N   0  0  0  0  0  0  0  0  0  0  0  0
  155.2132  136.0246  160.6389 C   0  0  0  0  0  0  0  0  0  0  0  0
  155.8267  136.1838  162.0512 C   0  0  1  0  0  0  0  0  0  0  0  0
  157.1465  136.6809  161.9223 O   0  0  0  0  0  0  0  0  0  0  0  0
  155.0186  137.1389  162.9327 C   0  0  0  0  0  0  0  0  0  0  0  0
  154.3579  136.2150  163.9488 C   0  0  0  0  0  0  0  0  0  0  0  0
  155.3463  135.2207  164.1493 O   0  0  0  0  0  0  0  0  0  0  0  0
  155.8553  134.8762  162.8688 C   0  0  0  0  0  0  0  0  0  0  0  0
  151.4675  141.8283  158.9163 C   0  0  1  0  0  0  0  0  0  0  0  0
  152.3193  142.6784  159.8667 C   0  0  1  0  0  0  0  0  0  0  0  0
  151.6053  143.9276  160.3903 C   0  0  0  0  0  0  0  0  0  0  0  0
  152.2080  144.1556  161.7698 C   0  0  0  0  0  0  0  0  0  0  0  0
  153.0737  142.9186  162.0088 C   0  0  0  0  0  0  0  0  0  0  0  0
  152.5995  141.9725  161.0653 O   0  0  0  0  0  0  0  0  0  0  0  0
  151.5718  143.6492  155.8680 H   0  0  0  0  0  0  0  0  0  0  0  0
  152.8632  143.4081  157.0268 H   0  0  0  0  0  0  0  0  0  0  0  0
  151.5303  144.4867  157.4097 H   0  0  0  0  0  0  0  0  0  0  0  0
  148.8965  141.9094  157.8089 H   0  0  0  0  0  0  0  0  0  0  0  0
  149.2327  142.8797  156.3860 H   0  0  0  0  0  0  0  0  0  0  0  0
  149.2817  143.6120  157.9874 H   0  0  0  0  0  0  0  0  0  0  0  0
  150.5898  140.2633  156.9848 H   0  0  0  0  0  0  0  0  0  0  0  0
  151.9665  140.9988  156.0634 H   0  0  0  0  0  0  0  0  0  0  0  0
  150.3413  136.9654  159.2890 H   0  0  0  0  0  0  0  0  0  0  0  0
  156.5624  138.4440  160.0048 H   0  0  0  0  0  0  0  0  0  0  0  0
  154.3727  135.3297  160.6677 H   0  0  0  0  0  0  0  0  0  0  0  0
  155.9468  135.5855  159.9614 H   0  0  0  0  0  0  0  0  0  0  0  0
  157.3358  136.7882  161.0025 H   0  0  0  0  0  0  0  0  0  0  0  0
  155.6727  137.8354  163.4602 H   0  0  0  0  0  0  0  0  0  0  0  0
  154.2913  137.7328  162.3781 H   0  0  0  0  0  0  0  0  0  0  0  0
  154.1007  136.7233  164.8781 H   0  0  0  0  0  0  0  0  0  0  0  0
  153.4539  135.7613  163.5388 H   0  0  0  0  0  0  0  0  0  0  0  0
  155.1849  134.1293  162.4435 H   0  0  0  0  0  0  0  0  0  0  0  0
  156.8462  134.4257  162.9409 H   0  0  0  0  0  0  0  0  0  0  0  0
  150.6227  141.3543  159.4205 H   0  0  0  0  0  0  0  0  0  0  0  0
  153.2645  142.9663  159.4023 H   0  0  0  0  0  0  0  0  0  0  0  0
  151.7357  144.7880  159.7346 H   0  0  0  0  0  0  0  0  0  0  0  0
  150.5349  143.7409  160.4865 H   0  0  0  0  0  0  0  0  0  0  0  0
  152.8036  145.0677  161.8143 H   0  0  0  0  0  0  0  0  0  0  0  0
  151.4192  144.2317  162.5189 H   0  0  0  0  0  0  0  0  0  0  0  0
  154.1232  143.1357  161.8030 H   0  0  0  0  0  0  0  0  0  0  0  0
  152.9955  142.5396  163.0279 H   0  0  0  0  0  0  0  0  0  0  0  0
  1  2  1  0  0  0  0
  1 28  1  0  0  0  0
  1 29  1  0  0  0  0
  1 30  1  0  0  0  0
  2 22  1  0  0  0  0
  2  3  1  0  0  0  0
  2  4  1  0  0  0  0
  3 31  1  0  0  0  0
  3 32  1  0  0  0  0
  3 33  1  0  0  0  0
  4  5  1  0  0  0  0
  4 34  1  0  0  0  0
  4 35  1  0  0  0  0
  5  6  1  0  0  0  0
  5 22  1  0  0  0  0
  6 11  1  0  0  0  0
  6  7  2  0  0  0  0
  7  8  1  0  0  0  0
  8  9  2  0  0  0  0
  8 36  1  0  0  0  0
  9 10  1  0  0  0  0
 10 14  1  0  0  0  0
 10 11  2  0  0  0  0
 11 12  1  0  0  0  0
 12 13  2  0  0  0  0
 13 14  1  0  0  0  0
 13 37  1  0  0  0  0
 14 15  1  0  0  0  0
 15 16  1  0  0  0  0
 15 38  1  0  0  0  0
 15 39  1  0  0  0  0
 16 21  1  0  0  0  0
 16 17  1  0  0  0  0
 16 18  1  0  0  0  0
 17 40  1  0  0  0  0
 18 19  1  0  0  0  0
 18 41  1  0  0  0  0
 18 42  1  0  0  0  0
 19 20  1  0  0  0  0
 19 43  1  0  0  0  0
 19 44  1  0  0  0  0
 20 21  1  0  0  0  0
 21 45  1  0  0  0  0
 21 46  1  0  0  0  0
 22 23  1  0  0  0  0
 22 47  1  0  0  0  0
 23 27  1  0  0  0  0
 23 24  1  0  0  0  0
 23 48  1  0  0  0  0
 24 25  1  0  0  0  0
 24 49  1  0  0  0  0
 24 50  1  0  0  0  0
 25 26  1  0  0  0  0
 25 51  1  0  0  0  0
 25 52  1  0  0  0  0
 26 27  1  0  0  0  0
 26 53  1  0  0  0  0
 26 54  1  0  0  0  0
M  END
> <s_m_source_file>
AV-unprocessed.smi

> <i_m_source_file_index>
13

> <i_lp_mmshare_version>
43012

> <i_f3d_flags>
0

> <s_epik_input>
TzFbQ0gyXVtDSDJdW0NIMl1bQ0BIXTFbQ0BASF0yTihbQ0gyXUMyKFtDSDNdKVtDSDNdKWMobltjSF1uMyljKGMzNCluW2NIXW40W0NIMl1bQ0BAXTUoW09IXSlbQ0gyXVtDSDJdT1tDSDJdNQ==

> <s_epik_cmdline>
J2VwaWtfcHl0aG9uJywgJy1waCcsICc3LjAnLCAnLXRuJywgJzgnLCAnLW1hJywgJzIwMCcsICctbWV0YWxfYmluZGluZycsICctaW1hZScsICc8aW5maWxlLm1hZT4nLCAnLW9tYWUnLCAnPG91dGZpbGUubWFlPic=

> <r_lp_tautomer_probability>
1

> <r_epik_Ionization_Penalty>
0.00202764

> <r_epik_Ionization_Penalty_Charging>
0

> <r_epik_Ionization_Penalty_Neutral>
0.00202764

> <r_epik_State_Penalty>
0.00134017

> <r_epik_Charging_Adjusted_Penalty>
0.00134017

> <i_epik_Tot_Q>
0

> <i_epik_Tot_abs_Q>
0

> <r_epik_Metal_State_Penalty>
-0

> <b_epik_Metal_Only>
0

> <s_lp_Force_Field>
OPLS_2005

> <r_lp_Energy>
61.4884

> <b_lp_Chiralities_Consistent>
1

> <s_lp_Variant>
AV-unprocessed.smi:13-5

> <Gold.Version>
5.8.1

> <Gold.Id.Protein>
6NUR|6NUR_protein|mol2

> <Gold.PLP.Fitness>
44.4973

> <Gold.PLP.PLP>
-39.4760

> <Gold.PLP.part.hbond>
-2.0000

> <Gold.PLP.part.metal>
0.0000

> <Gold.PLP.part.buried>
-2.3458

> <Gold.PLP.part.nonpolar>
-34.4188

> <Gold.PLP.part.repulsive>
0.0948

> <Gold.PLP.ligand.clash>
0.0000

> <Gold.PLP.ligand.torsion>
0.6929

> <Gold.PLP.Chemscore.Hbond>
2.0000

> <Gold.PLP.Chemscore.CHOScore>
0.0000

> <Gold.PLP.Chemscore.Metal>
0.0000

> <Gold.Chemscore.Hbonds>
donor molecule, donor type, donor heavy atom, donor atom, acceptor molecule, acceptor atom, score
      P1  H  6896  6907       L1     9  0.72
      P1  H  7997  8009       L1    12  0.67

> <Gold.PLP.Chemscore.Internal.Correction>
0.4071

> <Gold.Rescore>
     Score         DG    S(hbond)    S(metal)    S(lipo)     H(rot)  DE(clash)    DE(int)     intcor
     17.38     -18.45       1.79        0.00     110.02       2.30       0.56       0.52       ----

> <Gold.Chemscore.Fitness>
17.3804

> <Gold.Chemscore.DG>
-18.4527

> <Gold.Chemscore.ZeroCoef>
-5.4800

> <Gold.Chemscore.Hbond>
1.7927

> <Gold.Chemscore.Metal>
0.0000

> <Gold.Chemscore.Lipo>
110.0173

> <Gold.Chemscore.Internal_Hbond>
0.0000

> <Gold.Chemscore.DEClash>
0.5562

> <Gold.Chemscore.DEInternal>
0.5162

> <Gold.Chemscore.Rot>
2.2996

> <Gold.Chemscore.Internal.Correction>
   9.000000E+99

> <Gold.Chemscore.Hbonds>
donor molecule, donor type, donor heavy atom, donor atom, acceptor molecule, acceptor atom, score
      P1  H  6896  6907       L1     9  0.10
      P1  H  7997  8009       L1    12  0.08

> <Gold.Chemscore.Hbond.Weighted>
-5.9876

> <Gold.Chemscore.Metal.Weighted>
-0.0000

> <Gold.Chemscore.Lipo.Weighted>
-12.8720

> <Gold.Chemscore.Internal_Hbond.Weighted>
0.0000

> <Gold.Chemscore.DEClash.Weighted>
0.5562

> <Gold.Chemscore.DEInternal.Weighted>
0.5162

> <Gold.Chemscore.Rot.Weighted>
5.8869

> <Gold.Chemscore.Internal.Correction.Weighted>
   9.000000E+99

> <Gold.Protein.RotatedTorsions>
[ 6907 6896 6895 6894 ] final   -9.45 input  -60.11 | X-H torsion
[ 7974 7965 7964 7962 ] final  126.08 input  175.53 | X-H torsion
[ 8008 7997 7996 7995 ] final  127.99 input   59.86 | X-H torsion
[ 10167 10162 10161 10158 ] final -172.86 input  -65.29 | X-H torsion
[ 10718 10713 10712 10709 ] final  -48.00 input   66.30 | X-H torsion
[ 10763 10752 10751 10750 ] final -132.86 input  -60.55 | X-H torsion
[ 11005 11000 10999 10996 ] final  -62.41 input  -57.11 | X-H torsion

> <Gold.Protein.ActiveResidues>
 VAL166  LYS551  ARG553  GLY616  TRP617  ASP618  TYR619  PRO620  LYS621  CYS622 
 ASP623  PHE694  ASN695  SER759  ASP760  ASP761  ALA762  ILE779  LEU786  VAL792 
 PHE793  MET794  SER795  GLU796  ALA797  LYS798  CYS799  TRP800  GLU811  SER814 

> <Gold.Protein.RotatedAtoms>
  151.4176  135.0993  159.9603 H   0  0  0  0  0  0  0  0  0  0  0  0  # atno 6907 bound_to 6896
  152.4999  133.8738  159.7322 H   0  0  0  0  0  0  0  0  0  0  0  0  # atno 6908 bound_to 6896
  150.9246  133.6781  159.2852 H   0  0  0  0  0  0  0  0  0  0  0  0  # atno 6909 bound_to 6896
  145.0658  139.3769  143.4983 H   0  0  0  0  0  0  0  0  0  0  0  0  # atno 7974 bound_to 7965
  156.2904  140.2655  156.2362 H   0  0  0  0  0  0  0  0  0  0  0  0  # atno 8008 bound_to 7997
  155.0022  140.0387  157.2383 H   0  0  0  0  0  0  0  0  0  0  0  0  # atno 8009 bound_to 7997
  154.7591  140.2757  155.6234 H   0  0  0  0  0  0  0  0  0  0  0  0  # atno 8010 bound_to 7997
  139.5721  144.1618  152.1398 H   0  0  0  0  0  0  0  0  0  0  0  0  # atno 10167 bound_to 10162
  156.2030  130.4157  149.9215 H   0  0  0  0  0  0  0  0  0  0  0  0  # atno 10718 bound_to 10713
  154.8739  135.3784  154.4478 H   0  0  0  0  0  0  0  0  0  0  0  0  # atno 10763 bound_to 10752
  153.5157  135.7029  153.5762 H   0  0  0  0  0  0  0  0  0  0  0  0  # atno 10764 bound_to 10752
  153.4032  135.3943  155.1967 H   0  0  0  0  0  0  0  0  0  0  0  0  # atno 10765 bound_to 10752
  141.1359  133.6640  156.5524 H   0  0  0  0  0  0  0  0  0  0  0  0  # atno 11005 bound_to 11000
  146.3526  140.0378  142.8645 LP  0  0  0  0  0  0  0  0  0  0  0  0  # atno 17320 bound_to 7965
  145.1353  140.9541  143.4520 LP  0  0  0  0  0  0  0  0  0  0  0  0  # atno 17321 bound_to 7965
  140.1153  144.5421  150.6898 LP  0  0  0  0  0  0  0  0  0  0  0  0  # atno 17342 bound_to 10162
  140.7005  143.2431  151.4879 LP  0  0  0  0  0  0  0  0  0  0  0  0  # atno 17343 bound_to 10162
  156.6918  130.8899  151.3589 LP  0  0  0  0  0  0  0  0  0  0  0  0  # atno 17370 bound_to 10713
  157.6996  130.9319  150.0747 LP  0  0  0  0  0  0  0  0  0  0  0  0  # atno 17371 bound_to 10713
  140.4053  134.7320  157.4804 LP  0  0  0  0  0  0  0  0  0  0  0  0  # atno 17394 bound_to 11000
  140.0466  134.6190  155.8913 LP  0  0  0  0  0  0  0  0  0  0  0  0  # atno 17395 bound_to 11000

$$$$
