AV-unprocessed.smi:2752|AV-procd|sdf|10608|dock9
  -GOLD-   2272015 63D 1   1.00000     0.00000
 Structure written by MMmdl.
 34 35  0  0  0  0  0  0  0  0  1 V2000
  153.6308  141.7919  159.9243 C   0  0  0  0  0  0  0  0  0  0  0  0
  152.2347  141.6586  159.7107 O   0  0  0  0  0  0  0  0  0  0  0  0
  151.5880  142.8786  159.3743 C   0  0  1  0  0  0  0  0  0  0  0  0
  151.9956  144.0244  160.3109 C   0  0  0  0  0  0  0  0  0  0  0  0
  151.9160  145.2738  159.4416 C   0  0  0  0  0  0  0  0  0  0  0  0
  152.4285  144.8055  158.0810 C   0  0  0  0  0  0  0  0  0  0  0  0
  152.0046  143.3281  157.9569 C   0  0  2  0  0  0  0  0  0  0  0  0
  150.8930  143.1739  157.0215 N   0  0  0  0  0  0  0  0  0  0  0  0
  150.6475  142.0784  156.2889 C   0  0  0  0  0  0  0  0  0  0  0  0
  151.3518  141.0688  156.3208 O   0  0  0  0  0  0  0  0  0  0  0  0
  149.5479  142.2376  155.5315 N   0  0  0  0  0  0  0  0  0  0  0  0
  148.9743  141.3198  154.6117 C   0  0  0  0  0  0  0  0  0  0  0  0
  147.8707  141.8162  153.8811 C   0  0  0  0  0  0  0  0  0  0  0  0
  147.2315  140.9848  152.9407 C   0  0  0  0  0  0  0  0  0  0  0  0
  147.7151  139.6777  152.7556 C   0  0  0  0  0  0  0  0  0  0  0  0
  147.1331  138.8420  151.8631 F   0  0  0  0  0  0  0  0  0  0  0  0
  148.8188  139.2606  153.5222 C   0  0  0  0  0  0  0  0  0  0  0  0
  149.4318  140.0562  154.4244 N   0  0  0  0  0  0  0  0  0  0  0  0
  154.0520  140.8226  160.1904 H   0  0  0  0  0  0  0  0  0  0  0  0
  153.8399  142.4830  160.7416 H   0  0  0  0  0  0  0  0  0  0  0  0
  154.1440  142.1432  159.0286 H   0  0  0  0  0  0  0  0  0  0  0  0
  150.5038  142.7526  159.4160 H   0  0  0  0  0  0  0  0  0  0  0  0
  151.3639  144.0892  161.1972 H   0  0  0  0  0  0  0  0  0  0  0  0
  153.0249  143.8839  160.6449 H   0  0  0  0  0  0  0  0  0  0  0  0
  150.8781  145.5973  159.3543 H   0  0  0  0  0  0  0  0  0  0  0  0
  152.4943  146.1054  159.8448 H   0  0  0  0  0  0  0  0  0  0  0  0
  152.0661  145.4355  157.2677 H   0  0  0  0  0  0  0  0  0  0  0  0
  153.5175  144.8660  158.0695 H   0  0  0  0  0  0  0  0  0  0  0  0
  152.8552  142.7370  157.6112 H   0  0  0  0  0  0  0  0  0  0  0  0
  150.2631  143.9575  156.9337 H   0  0  0  0  0  0  0  0  0  0  0  0
  149.0681  143.1209  155.6195 H   0  0  0  0  0  0  0  0  0  0  0  0
  147.5134  142.8239  154.0365 H   0  0  0  0  0  0  0  0  0  0  0  0
  146.3865  141.3447  152.3725 H   0  0  0  0  0  0  0  0  0  0  0  0
  149.2206  138.2646  153.4093 H   0  0  0  0  0  0  0  0  0  0  0  0
  1  2  1  0  0  0  0
  1 19  1  0  0  0  0
  1 20  1  0  0  0  0
  1 21  1  0  0  0  0
  2  3  1  0  0  0  0
  3  7  1  0  0  0  0
  3  4  1  0  0  0  0
  3 22  1  0  0  0  0
  4  5  1  0  0  0  0
  4 23  1  0  0  0  0
  4 24  1  0  0  0  0
  5  6  1  0  0  0  0
  5 25  1  0  0  0  0
  5 26  1  0  0  0  0
  6  7  1  0  0  0  0
  6 27  1  0  0  0  0
  6 28  1  0  0  0  0
  7  8  1  0  0  0  0
  7 29  1  0  0  0  0
  8  9  1  0  0  0  0
  8 30  1  0  0  0  0
  9 10  2  0  0  0  0
  9 11  1  0  0  0  0
 11 12  1  0  0  0  0
 11 31  1  0  0  0  0
 12 18  1  0  0  0  0
 12 13  2  0  0  0  0
 13 14  1  0  0  0  0
 13 32  1  0  0  0  0
 14 15  2  0  0  0  0
 14 33  1  0  0  0  0
 15 16  1  0  0  0  0
 15 17  1  0  0  0  0
 17 18  2  0  0  0  0
 17 34  1  0  0  0  0
M  END
> <s_m_source_file>
AV-unprocessed.smi

> <i_m_source_file_index>
2752

> <i_lp_mmshare_version>
43012

> <i_f3d_flags>
0

> <s_epik_input>
W0NIM11PW0NAQEhdMVtDSDJdW0NIMl1bQ0gyXVtDQEhdMVtOSF1DKD1PKVtOSF1jMltjSF1bY0hdYyhGKVtjSF1uMg==

> <s_epik_cmdline>
J2VwaWtfcHl0aG9uJywgJy1waCcsICc3LjAnLCAnLXRuJywgJzgnLCAnLW1hJywgJzIwMCcsICctbWV0YWxfYmluZGluZycsICctaW1hZScsICc8aW5maWxlLm1hZT4nLCAnLW9tYWUnLCAnPG91dGZpbGUubWFlPic=

> <r_lp_tautomer_probability>
1

> <r_epik_Ionization_Penalty>
3.49853e-05

> <r_epik_Ionization_Penalty_Charging>
0

> <r_epik_Ionization_Penalty_Neutral>
3.49853e-05

> <r_epik_State_Penalty>
-0

> <r_epik_Charging_Adjusted_Penalty>
0

> <i_epik_Tot_Q>
0

> <i_epik_Tot_abs_Q>
0

> <r_epik_Metal_State_Penalty>
-0

> <b_epik_Metal_Only>
0

> <s_lp_Force_Field>
OPLS_2005

> <r_lp_Energy>
21.736

> <b_lp_Chiralities_Consistent>
1

> <s_lp_Variant>
AV-unprocessed.smi:2752-4

> <Gold.Version>
5.8.1

> <Gold.Id.Protein>
6NUR|6NUR_protein|mol2

> <Gold.PLP.Fitness>
50.4229

> <Gold.PLP.PLP>
-43.4647

> <Gold.PLP.part.hbond>
-2.0000

> <Gold.PLP.part.metal>
0.0000

> <Gold.PLP.part.buried>
-2.7365

> <Gold.PLP.part.nonpolar>
-38.7257

> <Gold.PLP.part.repulsive>
0.2945

> <Gold.PLP.ligand.clash>
0.0000

> <Gold.PLP.ligand.torsion>
0.4444

> <Gold.PLP.Chemscore.Hbond>
1.8564

> <Gold.PLP.Chemscore.CHOScore>
0.7575

> <Gold.PLP.Chemscore.Metal>
0.0000

> <Gold.Chemscore.Hbonds>
donor molecule, donor type, donor heavy atom, donor atom, acceptor molecule, acceptor atom, score
      L1  H     8    30       P1  8028  0.83
      L1  H    11    31       P1  8028  1.00
      L1  C    17    34       P1  7948  0.98

> <Gold.PLP.Chemscore.Internal.Correction>
0.0050

> <Gold.Rescore>
     Score         DG    S(hbond)    S(metal)    S(lipo)     H(rot)  DE(clash)    DE(int)     intcor
     18.36     -20.08       1.79        0.00     101.62       1.28       0.05       1.67       ----

> <Gold.Chemscore.Fitness>
18.3599

> <Gold.Chemscore.DG>
-20.0815

> <Gold.Chemscore.ZeroCoef>
-5.4800

> <Gold.Chemscore.Hbond>
1.7948

> <Gold.Chemscore.Metal>
0.0000

> <Gold.Chemscore.Lipo>
101.6156

> <Gold.Chemscore.Internal_Hbond>
0.0000

> <Gold.Chemscore.DEClash>
0.0508

> <Gold.Chemscore.DEInternal>
1.6707

> <Gold.Chemscore.Rot>
1.2821

> <Gold.Chemscore.Internal.Correction>
   9.000000E+99

> <Gold.Chemscore.Hbonds>
donor molecule, donor type, donor heavy atom, donor atom, acceptor molecule, acceptor atom, score
      L1  H     8    30       P1  8028  0.78
      L1  H    11    31       P1  8028  0.98

> <Gold.Chemscore.Hbond.Weighted>
-5.9946

> <Gold.Chemscore.Metal.Weighted>
-0.0000

> <Gold.Chemscore.Lipo.Weighted>
-11.8890

> <Gold.Chemscore.Internal_Hbond.Weighted>
0.0000

> <Gold.Chemscore.DEClash.Weighted>
0.0508

> <Gold.Chemscore.DEInternal.Weighted>
1.6707

> <Gold.Chemscore.Rot.Weighted>
3.2822

> <Gold.Chemscore.Internal.Correction.Weighted>
   9.000000E+99

> <Gold.Protein.RotatedTorsions>
[ 6907 6896 6895 6894 ] final  153.09 input  -60.11 | X-H torsion
[ 7974 7965 7964 7962 ] final    3.97 input  175.53 | X-H torsion
[ 8008 7997 7996 7995 ] final  146.07 input   59.86 | X-H torsion
[ 10167 10162 10161 10158 ] final  112.48 input  -65.29 | X-H torsion
[ 10718 10713 10712 10709 ] final -110.00 input   66.30 | X-H torsion
[ 10763 10752 10751 10750 ] final  -77.13 input  -60.55 | X-H torsion
[ 11005 11000 10999 10996 ] final  128.73 input  -57.11 | X-H torsion

> <Gold.Protein.ActiveResidues>
 VAL166  LYS551  ARG553  GLY616  TRP617  ASP618  TYR619  PRO620  LYS621  CYS622 
 ASP623  PHE694  ASN695  SER759  ASP760  ASP761  ALA762  ILE779  LEU786  VAL792 
 PHE793  MET794  SER795  GLU796  ALA797  LYS798  CYS799  TRP800  GLU811  SER814 

> <Gold.Protein.RotatedAtoms>
  152.0775  133.4136  159.4486 H   0  0  0  0  0  0  0  0  0  0  0  0  # atno 6907 bound_to 6896
  150.6862  134.3020  159.4719 H   0  0  0  0  0  0  0  0  0  0  0  0  # atno 6908 bound_to 6896
  152.0858  134.9440  160.0623 H   0  0  0  0  0  0  0  0  0  0  0  0  # atno 6909 bound_to 6896
  146.2444  140.0605  142.8369 H   0  0  0  0  0  0  0  0  0  0  0  0  # atno 7974 bound_to 7965
  156.2866  140.2192  156.5318 H   0  0  0  0  0  0  0  0  0  0  0  0  # atno 8008 bound_to 7997
  154.7443  140.0485  157.0860 H   0  0  0  0  0  0  0  0  0  0  0  0  # atno 8009 bound_to 7997
  155.0191  140.3122  155.4803 H   0  0  0  0  0  0  0  0  0  0  0  0  # atno 8010 bound_to 7997
  139.6533  144.7128  151.2006 H   0  0  0  0  0  0  0  0  0  0  0  0  # atno 10167 bound_to 10162
  156.0567  130.5793  150.8177 H   0  0  0  0  0  0  0  0  0  0  0  0  # atno 10718 bound_to 10713
  154.5089  135.5774  153.6589 H   0  0  0  0  0  0  0  0  0  0  0  0  # atno 10763 bound_to 10752
  152.9893  135.6154  154.2905 H   0  0  0  0  0  0  0  0  0  0  0  0  # atno 10764 bound_to 10752
  154.2818  135.2850  155.2673 H   0  0  0  0  0  0  0  0  0  0  0  0  # atno 10765 bound_to 10752
  139.9576  134.9609  156.9045 H   0  0  0  0  0  0  0  0  0  0  0  0  # atno 11005 bound_to 11000
  145.0904  140.9280  143.4772 LP  0  0  0  0  0  0  0  0  0  0  0  0  # atno 17320 bound_to 7965
  145.0777  139.2983  143.5799 LP  0  0  0  0  0  0  0  0  0  0  0  0  # atno 17321 bound_to 7965
  140.7547  143.6114  150.8601 LP  0  0  0  0  0  0  0  0  0  0  0  0  # atno 17342 bound_to 10162
  139.9765  143.5999  152.2957 LP  0  0  0  0  0  0  0  0  0  0  0  0  # atno 17343 bound_to 10162
  157.5542  131.0944  150.9652 LP  0  0  0  0  0  0  0  0  0  0  0  0  # atno 17370 bound_to 10713
  156.9904  130.5561  149.5303 LP  0  0  0  0  0  0  0  0  0  0  0  0  # atno 17371 bound_to 10713
  140.5572  134.0569  155.7387 LP  0  0  0  0  0  0  0  0  0  0  0  0  # atno 17394 bound_to 11000
  141.1250  133.9398  157.2653 LP  0  0  0  0  0  0  0  0  0  0  0  0  # atno 17395 bound_to 11000

$$$$
