AV-unprocessed.smi:37|AV-procd|sdf|330|dock7
  -GOLD-   2262016163D 1   1.00000     0.00000
 Structure written by MMmdl.
 43 44  0  0  0  0  0  0  0  0  2 V2000
  151.7300  145.2394  160.5272 C   0  0  0  0  0  0  0  0  0  0  0  0
  152.8282  144.7800  159.5586 C   0  0  0  0  0  0  0  0  0  0  0  0
  153.1308  143.2900  159.6976 C   0  0  0  0  0  0  0  0  0  0  0  0
  153.6822  142.8365  160.7005 O   0  0  0  0  0  0  0  0  0  0  0  0
  152.7358  142.5832  158.6290 O   0  0  0  0  0  0  0  0  0  0  0  0
  152.7534  141.1670  158.6724 C   0  0  0  0  0  0  0  0  0  0  0  0
  151.3461  140.6029  158.4317 C   0  0  1  0  0  0  0  0  0  0  0  0
  150.8534  141.0398  157.1632 O   0  0  0  0  0  0  0  0  0  0  0  0
  150.1284  140.0155  156.5489 C   0  0  2  0  0  0  0  0  0  0  0  0
  148.6632  140.0797  156.9601 N   0  0  0  0  0  0  0  0  0  0  0  0
  148.1459  141.1629  157.6552 C   0  0  0  0  0  0  0  0  0  0  0  0
  146.8465  141.2148  158.0121 C   0  0  0  0  0  0  0  0  0  0  0  0
  146.3805  142.2782  158.6893 F   0  0  0  0  0  0  0  0  0  0  0  0
  145.9532  140.1175  157.6504 C   0  0  0  0  0  0  0  0  0  0  0  0
  144.7780  140.1513  158.0113 O   0  0  0  0  0  0  0  0  0  0  0  0
  146.4708  139.0932  156.9138 N   0  5  0  0  0  0  0  0  0  0  0  0
  147.7813  139.0460  156.5350 C   0  0  0  0  0  0  0  0  0  0  0  0
  148.2409  138.1470  155.8310 O   0  0  0  0  0  0  0  0  0  0  0  0
  150.7932  138.7174  157.0308 C   0  0  1  0  0  0  0  0  0  0  0  0
  152.3770  138.3250  155.8889 Br  0  0  0  0  0  0  0  0  0  0  0  0
  151.2495  139.0671  158.4439 C   0  0  2  0  0  0  0  0  0  0  0  0
  150.2492  138.6894  159.3838 O   0  0  0  0  0  0  0  0  0  0  0  0
  150.0169  137.3926  159.6551 C   0  0  0  0  0  0  0  0  0  0  0  0
  150.2925  136.4412  158.9241 O   0  0  0  0  0  0  0  0  0  0  0  0
  149.3444  137.1872  161.0104 C   0  0  0  0  0  0  0  0  0  0  0  0
  150.0968  136.1715  161.8825 C   0  0  0  0  0  0  0  0  0  0  0  0
  151.5393  146.3063  160.4117 H   0  0  0  0  0  0  0  0  0  0  0  0
  152.0180  145.0654  161.5645 H   0  0  0  0  0  0  0  0  0  0  0  0
  150.7902  144.7160  160.3470 H   0  0  0  0  0  0  0  0  0  0  0  0
  152.5268  144.9822  158.5306 H   0  0  0  0  0  0  0  0  0  0  0  0
  153.7426  145.3462  159.7378 H   0  0  0  0  0  0  0  0  0  0  0  0
  153.4378  140.7921  157.9102 H   0  0  0  0  0  0  0  0  0  0  0  0
  153.1270  140.8292  159.6402 H   0  0  0  0  0  0  0  0  0  0  0  0
  150.6990  141.0158  159.2060 H   0  0  0  0  0  0  0  0  0  0  0  0
  150.1135  140.1369  155.4646 H   0  0  0  0  0  0  0  0  0  0  0  0
  148.7729  141.9995  157.9189 H   0  0  0  0  0  0  0  0  0  0  0  0
  150.1383  137.8486  156.9790 H   0  0  0  0  0  0  0  0  0  0  0  0
  152.2011  138.5963  158.6958 H   0  0  0  0  0  0  0  0  0  0  0  0
  149.2967  138.1479  161.5238 H   0  0  0  0  0  0  0  0  0  0  0  0
  148.3165  136.8602  160.8532 H   0  0  0  0  0  0  0  0  0  0  0  0
  149.6642  136.1269  162.8816 H   0  0  0  0  0  0  0  0  0  0  0  0
  151.1495  136.4367  161.9894 H   0  0  0  0  0  0  0  0  0  0  0  0
  150.0455  135.1685  161.4585 H   0  0  0  0  0  0  0  0  0  0  0  0
  1  2  1  0  0  0  0
  1 27  1  0  0  0  0
  1 28  1  0  0  0  0
  1 29  1  0  0  0  0
  2  3  1  0  0  0  0
  2 30  1  0  0  0  0
  2 31  1  0  0  0  0
  3  4  2  0  0  0  0
  3  5  1  0  0  0  0
  5  6  1  0  0  0  0
  6  7  1  0  0  0  0
  6 32  1  0  0  0  0
  6 33  1  0  0  0  0
  7 21  1  0  0  0  0
  7  8  1  0  0  0  0
  7 34  1  0  0  0  0
  8  9  1  0  0  0  0
  9 10  1  0  0  0  0
  9 19  1  0  0  0  0
  9 35  1  0  0  0  0
 10 17  1  0  0  0  0
 10 11  1  0  0  0  0
 11 12  2  0  0  0  0
 11 36  1  0  0  0  0
 12 13  1  0  0  0  0
 12 14  1  0  0  0  0
 14 15  2  0  0  0  0
 14 16  1  0  0  0  0
 16 17  1  0  0  0  0
 17 18  2  0  0  0  0
 19 20  1  0  0  0  0
 19 21  1  0  0  0  0
 19 37  1  0  0  0  0
 21 22  1  0  0  0  0
 21 38  1  0  0  0  0
 22 23  1  0  0  0  0
 23 24  2  0  0  0  0
 23 25  1  0  0  0  0
 25 26  1  0  0  0  0
 25 39  1  0  0  0  0
 25 40  1  0  0  0  0
 26 41  1  0  0  0  0
 26 42  1  0  0  0  0
 26 43  1  0  0  0  0
M  CHG  1  16  -1
M  END
> <s_m_source_file>
AV-unprocessed.smi

> <i_m_source_file_index>
37

> <i_lp_mmshare_version>
43012

> <i_f3d_flags>
0

> <s_epik_input>
W0NIM11bQ0gyXUMoPU8pT1tDSDJdW0NAQEhdMU9bQ0BASF0objJbY0hdYyhGKWMoPU8pW25IXWMyPU8pW0NAQEhdKEJyKVtDQEhdMU9DKD1PKVtDSDJdW0NIM10=

> <s_epik_cmdline>
J2VwaWtfcHl0aG9uJywgJy1waCcsICc3LjAnLCAnLXRuJywgJzgnLCAnLW1hJywgJzIwMCcsICctbWV0YWxfYmluZGluZycsICctaW1hZScsICc8aW5maWxlLm1hZT4nLCAnLW9tYWUnLCAnPG91dGZpbGUubWFlPic=

> <r_epik_Ionization_Penalty>
1.08158

> <r_epik_Ionization_Penalty_Charging>
9.05154e-09

> <r_epik_Ionization_Penalty_Neutral>
1.08158

> <r_epik_State_Penalty>
1.13706

> <r_epik_Charging_Adjusted_Penalty>
1.13706

> <i_epik_Tot_Q>
-1

> <i_epik_Tot_abs_Q>
1

> <r_epik_Metal_State_Penalty>
0.00343535

> <b_epik_Metal_Only>
0

> <s_epik_Chemistry_Notes>
This compound has an ester and may undergo hydrolysis at high or low pH. This compound contains an acetal/aminal-like group ( X-CH(R)-Y where X, Y are N, S, or O) that may be acid/base labile, releasing an aldehyde.

> <s_lp_Force_Field>
OPLS_2005

> <r_lp_Energy>
28.0261

> <b_lp_Chiralities_Consistent>
1

> <s_lp_Variant>
AV-unprocessed.smi:37-28

> <Gold.Version>
5.8.1

> <Gold.Id.Protein>
6NUR|6NUR_protein|mol2

> <Gold.PLP.Fitness>
47.9303

> <Gold.PLP.PLP>
-42.6904

> <Gold.PLP.part.hbond>
-3.3882

> <Gold.PLP.part.metal>
0.0000

> <Gold.PLP.part.buried>
-6.6481

> <Gold.PLP.part.nonpolar>
-36.2978

> <Gold.PLP.part.repulsive>
4.0128

> <Gold.PLP.ligand.clash>
0.0000

> <Gold.PLP.ligand.torsion>
1.0418

> <Gold.PLP.Chemscore.Hbond>
2.3952

> <Gold.PLP.Chemscore.CHOScore>
0.0000

> <Gold.PLP.Chemscore.Metal>
0.0000

> <Gold.Chemscore.Hbonds>
donor molecule, donor type, donor heavy atom, donor atom, acceptor molecule, acceptor atom, score
      P1  H  6896  6907       L1    24  0.78

> <Gold.PLP.Chemscore.Internal.Correction>
0.1379

> <Gold.Rescore>
     Score         DG    S(hbond)    S(metal)    S(lipo)     H(rot)  DE(clash)    DE(int)     intcor
      9.88     -13.09       2.61        0.00      62.10       3.27       1.22       1.99       ----

> <Gold.Chemscore.Fitness>
9.8848

> <Gold.Chemscore.DG>
-13.0904

> <Gold.Chemscore.ZeroCoef>
-5.4800

> <Gold.Chemscore.Hbond>
2.6072

> <Gold.Chemscore.Metal>
0.0000

> <Gold.Chemscore.Lipo>
62.1005

> <Gold.Chemscore.Internal_Hbond>
0.0000

> <Gold.Chemscore.DEClash>
1.2185

> <Gold.Chemscore.DEInternal>
1.9871

> <Gold.Chemscore.Rot>
3.2669

> <Gold.Chemscore.Internal.Correction>
   9.000000E+99

> <Gold.Chemscore.Hbonds>
donor molecule, donor type, donor heavy atom, donor atom, acceptor molecule, acceptor atom, score
      P1  H  6896  6907       L1    24  0.77

> <Gold.Chemscore.Hbond.Weighted>
-8.7080

> <Gold.Chemscore.Metal.Weighted>
-0.0000

> <Gold.Chemscore.Lipo.Weighted>
-7.2658

> <Gold.Chemscore.Internal_Hbond.Weighted>
0.0000

> <Gold.Chemscore.DEClash.Weighted>
1.2185

> <Gold.Chemscore.DEInternal.Weighted>
1.9871

> <Gold.Chemscore.Rot.Weighted>
8.3634

> <Gold.Chemscore.Internal.Correction.Weighted>
   9.000000E+99

> <Gold.Protein.RotatedTorsions>
[ 6907 6896 6895 6894 ] final  -66.56 input  -60.11 | X-H torsion
[ 7974 7965 7964 7962 ] final -158.86 input  175.53 | X-H torsion
[ 8008 7997 7996 7995 ] final  -72.49 input   59.86 | X-H torsion
[ 10167 10162 10161 10158 ] final  105.64 input  -65.29 | X-H torsion
[ 10718 10713 10712 10709 ] final   91.92 input   66.30 | X-H torsion
[ 10763 10752 10751 10750 ] final -173.10 input  -60.55 | X-H torsion
[ 11005 11000 10999 10996 ] final  147.73 input  -57.11 | X-H torsion

> <Gold.Protein.ActiveResidues>
 VAL166  LYS551  ARG553  GLY616  TRP617  ASP618  TYR619  PRO620  LYS621  CYS622 
 ASP623  PHE694  ASN695  SER759  ASP760  ASP761  ALA762  ILE779  LEU786  VAL792 
 PHE793  MET794  SER795  GLU796  ALA797  LYS798  CYS799  TRP800  GLU811  SER814 

> <Gold.Protein.RotatedAtoms>
  150.7458  134.6004  159.6033 H   0  0  0  0  0  0  0  0  0  0  0  0  # atno 6907 bound_to 6896
  152.3367  134.7186  160.0284 H   0  0  0  0  0  0  0  0  0  0  0  0  # atno 6908 bound_to 6896
  151.7652  133.3301  159.3465 H   0  0  0  0  0  0  0  0  0  0  0  0  # atno 6909 bound_to 6896
  144.7488  140.3767  143.6064 H   0  0  0  0  0  0  0  0  0  0  0  0  # atno 7974 bound_to 7965
  154.5170  140.0796  156.8101 H   0  0  0  0  0  0  0  0  0  0  0  0  # atno 8008 bound_to 7997
  155.3658  140.3420  155.4223 H   0  0  0  0  0  0  0  0  0  0  0  0  # atno 8009 bound_to 7997
  156.1639  140.1597  156.8552 H   0  0  0  0  0  0  0  0  0  0  0  0  # atno 8010 bound_to 7997
  139.7075  144.7083  151.1081 H   0  0  0  0  0  0  0  0  0  0  0  0  # atno 10167 bound_to 10162
  157.6959  131.0425  150.3803 H   0  0  0  0  0  0  0  0  0  0  0  0  # atno 10718 bound_to 10713
  154.6117  135.2865  155.0424 H   0  0  0  0  0  0  0  0  0  0  0  0  # atno 10763 bound_to 10752
  154.1652  135.6481  153.4999 H   0  0  0  0  0  0  0  0  0  0  0  0  # atno 10764 bound_to 10752
  153.0198  135.5387  154.6873 H   0  0  0  0  0  0  0  0  0  0  0  0  # atno 10765 bound_to 10752
  140.0900  134.9046  157.1636 H   0  0  0  0  0  0  0  0  0  0  0  0  # atno 11005 bound_to 11000
  145.7021  139.1663  143.2587 LP  0  0  0  0  0  0  0  0  0  0  0  0  # atno 17320 bound_to 7965
  146.1408  140.7060  142.9368 LP  0  0  0  0  0  0  0  0  0  0  0  0  # atno 17321 bound_to 7965
  140.7725  143.5338  150.9392 LP  0  0  0  0  0  0  0  0  0  0  0  0  # atno 17342 bound_to 10162
  139.9022  143.6822  152.3129 LP  0  0  0  0  0  0  0  0  0  0  0  0  # atno 17343 bound_to 10162
  156.4218  130.3954  149.6820 LP  0  0  0  0  0  0  0  0  0  0  0  0  # atno 17370 bound_to 10713
  156.4068  130.7702  151.2713 LP  0  0  0  0  0  0  0  0  0  0  0  0  # atno 17371 bound_to 10713
  140.3365  134.2751  155.7219 LP  0  0  0  0  0  0  0  0  0  0  0  0  # atno 17394 bound_to 11000
  141.2075  133.7804  157.0116 LP  0  0  0  0  0  0  0  0  0  0  0  0  # atno 17395 bound_to 11000

$$$$
