AV-unprocessed.smi:2164|AV-procd|sdf|8811|dock1
  -GOLD-   2272012 03D 1   1.00000     0.00000
 Structure written by MMmdl.
 39 41  0  0  0  0  0  0  0  0  3 V2000
  153.1065  137.3273  159.0219 O   0  0  0  0  0  0  0  0  0  0  0  0
  153.6433  138.3384  159.4932 C   0  0  0  0  0  0  0  0  0  0  0  0
  153.8066  139.5224  158.8278 N   0  5  0  0  0  0  0  0  0  0  0  0
  152.7645  140.5277  158.6269 C   0  0  0  0  0  0  0  0  0  0  0  0
  152.9460  141.6719  159.6437 C   0  0  0  0  0  0  0  0  0  0  0  0
  152.1901  142.9405  159.2743 C   0  0  0  0  0  0  0  0  0  0  0  0
  152.2506  144.0855  160.1024 C   0  0  0  0  0  0  0  0  0  0  0  0
  151.5326  145.2435  159.7384 C   0  0  0  0  0  0  0  0  0  0  0  0
  150.7662  145.2324  158.5553 C   0  0  0  0  0  0  0  0  0  0  0  0
  150.7259  144.1194  157.7906 N   0  3  0  0  0  0  0  0  0  0  0  0
  151.3975  142.9902  158.1050 C   0  0  0  0  0  0  0  0  0  0  0  0
  154.1492  138.2758  160.8725 C   0  0  0  0  0  0  0  0  0  0  0  0
  154.9800  139.2017  161.4000 C   0  0  0  0  0  0  0  0  0  0  0  0
  155.4655  139.1489  162.7093 N   0  0  0  0  0  0  0  0  0  0  0  0
  156.4347  140.1575  163.1225 C   0  0  0  0  0  0  0  0  0  0  0  0
  156.1440  140.6214  164.5411 C   0  0  0  0  0  0  0  0  0  0  0  0
  156.3564  139.1526  165.6178 S   0  0  0  0  0  0  0  0  0  0  0  0
  157.7459  138.6875  165.4846 O   0  0  0  0  0  0  0  0  0  0  0  0
  155.8324  139.4839  166.9516 O   0  0  0  0  0  0  0  0  0  0  0  0
  155.3350  138.0611  164.8595 N   0  0  0  0  0  0  0  0  0  0  0  0
  155.0398  138.1276  163.5964 C   0  0  0  0  0  0  0  0  0  0  0  0
  154.1789  137.1078  163.0207 C   0  0  0  0  0  0  0  0  0  0  0  0
  153.7586  137.1767  161.7411 C   0  0  0  0  0  0  0  0  0  0  0  0
  152.7952  140.9431  157.6188 H   0  0  0  0  0  0  0  0  0  0  0  0
  151.7664  140.1046  158.7474 H   0  0  0  0  0  0  0  0  0  0  0  0
  152.6141  141.3465  160.6308 H   0  0  0  0  0  0  0  0  0  0  0  0
  154.0050  141.9145  159.7443 H   0  0  0  0  0  0  0  0  0  0  0  0
  152.8444  144.0773  161.0051 H   0  0  0  0  0  0  0  0  0  0  0  0
  151.5708  146.1272  160.3583 H   0  0  0  0  0  0  0  0  0  0  0  0
  150.1877  146.0728  158.2008 H   0  0  0  0  0  0  0  0  0  0  0  0
  151.2875  142.1667  157.4145 H   0  0  0  0  0  0  0  0  0  0  0  0
  155.3323  140.0569  160.8414 H   0  0  0  0  0  0  0  0  0  0  0  0
  157.4402  139.7417  163.0488 H   0  0  0  0  0  0  0  0  0  0  0  0
  156.4018  141.0184  162.4541 H   0  0  0  0  0  0  0  0  0  0  0  0
  156.8393  141.3961  164.8635 H   0  0  0  0  0  0  0  0  0  0  0  0
  155.1278  141.0032  164.6458 H   0  0  0  0  0  0  0  0  0  0  0  0
  153.8422  136.2658  163.6083 H   0  0  0  0  0  0  0  0  0  0  0  0
  153.1185  136.3890  161.3718 H   0  0  0  0  0  0  0  0  0  0  0  0
  150.1648  144.1309  156.9386 H   0  0  0  0  0  0  0  0  0  0  0  0
  1  2  2  0  0  0  0
  2  3  1  0  0  0  0
  2 12  1  0  0  0  0
  3  4  1  0  0  0  0
  4  5  1  0  0  0  0
  4 24  1  0  0  0  0
  4 25  1  0  0  0  0
  5  6  1  0  0  0  0
  5 26  1  0  0  0  0
  5 27  1  0  0  0  0
  6 11  1  0  0  0  0
  6  7  2  0  0  0  0
  7  8  1  0  0  0  0
  7 28  1  0  0  0  0
  8  9  2  0  0  0  0
  8 29  1  0  0  0  0
  9 10  1  0  0  0  0
  9 30  1  0  0  0  0
 10 11  2  0  0  0  0
 10 39  1  0  0  0  0
 11 31  1  0  0  0  0
 12 23  1  0  0  0  0
 12 13  2  0  0  0  0
 13 14  1  0  0  0  0
 13 32  1  0  0  0  0
 14 21  1  0  0  0  0
 14 15  1  0  0  0  0
 15 16  1  0  0  0  0
 15 33  1  0  0  0  0
 15 34  1  0  0  0  0
 16 17  1  0  0  0  0
 16 35  1  0  0  0  0
 16 36  1  0  0  0  0
 17 18  2  0  0  0  0
 17 19  2  0  0  0  0
 17 20  1  0  0  0  0
 20 21  2  0  0  0  0
 21 22  1  0  0  0  0
 22 23  2  0  0  0  0
 22 37  1  0  0  0  0
 23 38  1  0  0  0  0
M  CHG  1   3  -1
M  CHG  1  10   1
M  END
> <s_m_source_file>
AV-unprocessed.smi

> <i_m_source_file_index>
2164

> <i_lp_mmshare_version>
43012

> <i_f3d_flags>
0

> <s_epik_input>
W0NIMl0xW0NIMl1TKD1PKSg9TylOPUMoTjEyKVtDSF09W0NIXUMoPVtDSF0yKUMoPU8pW05IXVtDSDJdW0NIMl1jM1tjSF1bY0hdW2NIXW5bY0hdMw==

> <s_epik_cmdline>
J2VwaWtfcHl0aG9uJywgJy1waCcsICc3LjAnLCAnLXRuJywgJzgnLCAnLW1hJywgJzIwMCcsICctbWV0YWxfYmluZGluZycsICctaW1hZScsICc8aW5maWxlLm1hZT4nLCAnLW9tYWUnLCAnPG91dGZpbGUubWFlPic=

> <r_epik_Ionization_Penalty>
6.83439

> <r_epik_Ionization_Penalty_Charging>
6.83439

> <r_epik_Ionization_Penalty_Neutral>
0

> <r_epik_State_Penalty>
7.45298

> <r_epik_Charging_Adjusted_Penalty>
14.2874

> <i_epik_Tot_Q>
0

> <i_epik_Tot_abs_Q>
2

> <r_epik_Metal_State_Penalty>
3.5959

> <b_epik_Metal_Only>
1

> <s_lp_Force_Field>
OPLS_2005

> <r_lp_Energy>
30.4634

> <b_lp_Chiralities_Consistent>
1

> <s_lp_Variant>
AV-unprocessed.smi:2164-4

> <Gold.Version>
5.8.1

> <Gold.Id.Protein>
6NUR|6NUR_protein|mol2

> <Gold.PLP.Fitness>
53.1655

> <Gold.PLP.PLP>
-43.0636

> <Gold.PLP.part.hbond>
-3.0000

> <Gold.PLP.part.metal>
0.0000

> <Gold.PLP.part.buried>
-4.9662

> <Gold.PLP.part.nonpolar>
-34.6116

> <Gold.PLP.part.repulsive>
0.2290

> <Gold.PLP.ligand.clash>
0.0000

> <Gold.PLP.ligand.torsion>
1.0101

> <Gold.PLP.Chemscore.Hbond>
4.0000

> <Gold.PLP.Chemscore.CHOScore>
0.0000

> <Gold.PLP.Chemscore.Metal>
0.0000

> <Gold.Chemscore.Hbonds>
donor molecule, donor type, donor heavy atom, donor atom, acceptor molecule, acceptor atom, score
      L1  H    10    39       P1  8028  2.00
      P1  H  7997  8009       L1     3  2.00

> <Gold.PLP.Chemscore.Internal.Correction>
0.1221

> <Gold.Rescore>
     Score         DG    S(hbond)    S(metal)    S(lipo)     H(rot)  DE(clash)    DE(int)     intcor
     18.22     -19.44       1.43        0.00     111.52       1.51       0.14       1.08       ----

> <Gold.Chemscore.Fitness>
18.2203

> <Gold.Chemscore.DG>
-19.4365

> <Gold.Chemscore.ZeroCoef>
-5.4800

> <Gold.Chemscore.Hbond>
1.4300

> <Gold.Chemscore.Metal>
0.0000

> <Gold.Chemscore.Lipo>
111.5236

> <Gold.Chemscore.Internal_Hbond>
0.0000

> <Gold.Chemscore.DEClash>
0.1359

> <Gold.Chemscore.DEInternal>
1.0804

> <Gold.Chemscore.Rot>
1.5109

> <Gold.Chemscore.Internal.Correction>
   9.000000E+99

> <Gold.Chemscore.Hbonds>
donor molecule, donor type, donor heavy atom, donor atom, acceptor molecule, acceptor atom, score
      L1  H    10    39       P1  8028  0.93
      P1  H  7997  8009       L1     3  0.23

> <Gold.Chemscore.Hbond.Weighted>
-4.7763

> <Gold.Chemscore.Metal.Weighted>
-0.0000

> <Gold.Chemscore.Lipo.Weighted>
-13.0483

> <Gold.Chemscore.Internal_Hbond.Weighted>
0.0000

> <Gold.Chemscore.DEClash.Weighted>
0.1359

> <Gold.Chemscore.DEInternal.Weighted>
1.0804

> <Gold.Chemscore.Rot.Weighted>
3.8680

> <Gold.Chemscore.Internal.Correction.Weighted>
   9.000000E+99

> <Gold.Protein.RotatedTorsions>
[ 6907 6896 6895 6894 ] final -139.71 input  -60.11 | X-H torsion
[ 7974 7965 7964 7962 ] final  -42.10 input  175.53 | X-H torsion
[ 8008 7997 7996 7995 ] final  120.84 input   59.86 | X-H torsion
[ 10167 10162 10161 10158 ] final -174.09 input  -65.29 | X-H torsion
[ 10718 10713 10712 10709 ] final  147.73 input   66.30 | X-H torsion
[ 10763 10752 10751 10750 ] final  -10.27 input  -60.55 | X-H torsion
[ 11005 11000 10999 10996 ] final  175.23 input  -57.11 | X-H torsion

> <Gold.Protein.ActiveResidues>
 VAL166  LYS551  ARG553  GLY616  TRP617  ASP618  TYR619  PRO620  LYS621  CYS622 
 ASP623  PHE694  ASN695  SER759  ASP760  ASP761  ALA762  ILE779  LEU786  VAL792 
 PHE793  MET794  SER795  GLU796  ALA797  LYS798  CYS799  TRP800  GLU811  SER814 

> <Gold.Protein.RotatedAtoms>
  151.0513  133.5622  159.2641 H   0  0  0  0  0  0  0  0  0  0  0  0  # atno 6907 bound_to 6896
  151.2632  135.0660  159.9116 H   0  0  0  0  0  0  0  0  0  0  0  0  # atno 6908 bound_to 6896
  152.5382  134.0255  159.8055 H   0  0  0  0  0  0  0  0  0  0  0  0  # atno 6909 bound_to 6896
  146.0148  140.6921  142.9206 H   0  0  0  0  0  0  0  0  0  0  0  0  # atno 7974 bound_to 7965
  156.2660  140.2822  156.1213 H   0  0  0  0  0  0  0  0  0  0  0  0  # atno 8008 bound_to 7997
  155.1152  140.0391  157.2752 H   0  0  0  0  0  0  0  0  0  0  0  0  # atno 8009 bound_to 7997
  154.6712  140.2588  155.7011 H   0  0  0  0  0  0  0  0  0  0  0  0  # atno 8010 bound_to 7997
  139.5653  144.1771  152.1302 H   0  0  0  0  0  0  0  0  0  0  0  0  # atno 10167 bound_to 10162
  157.3173  131.0898  151.1269 H   0  0  0  0  0  0  0  0  0  0  0  0  # atno 10718 bound_to 10713
  153.4668  135.7016  153.6017 H   0  0  0  0  0  0  0  0  0  0  0  0  # atno 10763 bound_to 10752
  153.4288  135.3807  155.2157 H   0  0  0  0  0  0  0  0  0  0  0  0  # atno 10764 bound_to 10752
  154.8726  135.3945  154.4101 H   0  0  0  0  0  0  0  0  0  0  0  0  # atno 10765 bound_to 10752
  140.3599  134.7121  157.4324 H   0  0  0  0  0  0  0  0  0  0  0  0  # atno 11005 bound_to 11000
  144.6967  140.3462  143.7190 LP  0  0  0  0  0  0  0  0  0  0  0  0  # atno 17320 bound_to 7965
  145.7285  139.1729  143.2444 LP  0  0  0  0  0  0  0  0  0  0  0  0  # atno 17321 bound_to 7965
  140.1293  144.5303  150.6813 LP  0  0  0  0  0  0  0  0  0  0  0  0  # atno 17342 bound_to 10162
  140.6936  143.2390  151.5064 LP  0  0  0  0  0  0  0  0  0  0  0  0  # atno 17343 bound_to 10162
  157.2567  130.6639  149.5956 LP  0  0  0  0  0  0  0  0  0  0  0  0  # atno 17370 bound_to 10713
  155.9682  130.4521  150.5762 LP  0  0  0  0  0  0  0  0  0  0  0  0  # atno 17371 bound_to 10713
  140.0635  134.5963  155.8722 LP  0  0  0  0  0  0  0  0  0  0  0  0  # atno 17394 bound_to 11000
  141.1987  133.6603  156.5806 LP  0  0  0  0  0  0  0  0  0  0  0  0  # atno 17395 bound_to 11000

$$$$
