AV-unprocessed.smi:3154|AV-procd|sdf|12024|dock3
  -GOLD-   2272017443D 1   1.00000     0.00000
 Structure written by MMmdl.
 34 35  0  0  0  0  0  0  0  0  1 V2000
  145.5663  135.9828  150.8320 C   0  0  0  0  0  0  0  0  0  0  0  0
  145.4861  135.5297  152.3003 C   0  0  1  0  0  0  0  0  0  0  0  0
  145.7542  134.0148  152.4741 C   0  0  0  0  0  0  0  0  0  0  0  0
  145.0207  133.1962  151.5251 N   0  0  0  0  0  0  0  0  0  0  0  0
  145.5065  132.2274  150.6723 C   0  0  0  0  0  0  0  0  0  0  0  0
  144.4423  131.7244  149.9801 C   0  0  0  0  0  0  0  0  0  0  0  0
  143.3322  132.4531  150.4912 C   0  0  0  0  0  0  0  0  0  0  0  0
  143.6807  133.3297  151.4191 N   0  0  0  0  0  0  0  0  0  0  0  0
  146.4572  136.3220  153.0488 N   0  0  0  0  0  0  0  0  0  0  0  0
  146.2268  137.7676  152.9290 C   0  0  0  0  0  0  0  0  0  0  0  0
  147.3359  138.5603  153.6163 C   0  0  0  0  0  0  0  0  0  0  0  0
  147.0613  139.3394  154.5287 O   0  0  0  0  0  0  0  0  0  0  0  0
  148.5823  138.3481  153.1682 N   0  0  0  0  0  0  0  0  0  0  0  0
  149.7619  138.9764  153.6680 C   0  0  0  0  0  0  0  0  0  0  0  0
  150.9438  138.0908  153.9977 C   0  0  0  0  0  0  0  0  0  0  0  0
  150.1419  138.7107  155.1088 C   0  0  0  0  0  0  0  0  0  0  0  0
  144.8041  135.4977  150.2219 H   0  0  0  0  0  0  0  0  0  0  0  0
  146.5385  135.7492  150.3962 H   0  0  0  0  0  0  0  0  0  0  0  0
  145.4100  137.0583  150.7415 H   0  0  0  0  0  0  0  0  0  0  0  0
  144.4836  135.7665  152.6603 H   0  0  0  0  0  0  0  0  0  0  0  0
  146.8182  133.8062  152.3526 H   0  0  0  0  0  0  0  0  0  0  0  0
  145.4839  133.6773  153.4745 H   0  0  0  0  0  0  0  0  0  0  0  0
  146.5571  131.9813  150.6275 H   0  0  0  0  0  0  0  0  0  0  0  0
  144.4543  130.9523  149.2250 H   0  0  0  0  0  0  0  0  0  0  0  0
  142.2903  132.3707  150.2188 H   0  0  0  0  0  0  0  0  0  0  0  0
  147.3811  136.0821  152.7196 H   0  0  0  0  0  0  0  0  0  0  0  0
  146.1784  138.0533  151.8769 H   0  0  0  0  0  0  0  0  0  0  0  0
  145.2753  138.0429  153.3830 H   0  0  0  0  0  0  0  0  0  0  0  0
  148.7043  137.6886  152.4134 H   0  0  0  0  0  0  0  0  0  0  0  0
  150.0005  139.9682  153.2864 H   0  0  0  0  0  0  0  0  0  0  0  0
  150.8378  137.0191  153.8395 H   0  0  0  0  0  0  0  0  0  0  0  0
  151.9378  138.4922  153.8113 H   0  0  0  0  0  0  0  0  0  0  0  0
  150.6006  139.5259  155.6649 H   0  0  0  0  0  0  0  0  0  0  0  0
  149.5004  138.0530  155.6921 H   0  0  0  0  0  0  0  0  0  0  0  0
  1  2  1  0  0  0  0
  1 17  1  0  0  0  0
  1 18  1  0  0  0  0
  1 19  1  0  0  0  0
  2  3  1  0  0  0  0
  2  9  1  0  0  0  0
  2 20  1  0  0  0  0
  3  4  1  0  0  0  0
  3 21  1  0  0  0  0
  3 22  1  0  0  0  0
  4  8  1  0  0  0  0
  4  5  1  0  0  0  0
  5  6  2  0  0  0  0
  5 23  1  0  0  0  0
  6  7  1  0  0  0  0
  6 24  1  0  0  0  0
  7  8  2  0  0  0  0
  7 25  1  0  0  0  0
  9 10  1  0  0  0  0
  9 26  1  0  0  0  0
 10 11  1  0  0  0  0
 10 27  1  0  0  0  0
 10 28  1  0  0  0  0
 11 12  2  0  0  0  0
 11 13  1  0  0  0  0
 13 14  1  0  0  0  0
 13 29  1  0  0  0  0
 14 16  1  0  0  0  0
 14 15  1  0  0  0  0
 14 30  1  0  0  0  0
 15 16  1  0  0  0  0
 15 31  1  0  0  0  0
 15 32  1  0  0  0  0
 16 33  1  0  0  0  0
 16 34  1  0  0  0  0
M  END
> <s_m_source_file>
AV-unprocessed.smi

> <i_m_source_file_index>
3154

> <i_lp_mmshare_version>
43012

> <i_f3d_flags>
0

> <s_epik_input>
bjFbY0hdW2NIXVtjSF1uMVtDSDJdW0NAQEhdKFtDSDNdKVtOSF1bQ0gyXUMoPU8pW05IXVtDSF0yW0NIMl1bQ0gyXTI=

> <s_epik_cmdline>
J2VwaWtfcHl0aG9uJywgJy1waCcsICc3LjAnLCAnLXRuJywgJzgnLCAnLW1hJywgJzIwMCcsICctbWV0YWxfYmluZGluZycsICctaW1hZScsICc8aW5maWxlLm1hZT4nLCAnLW9tYWUnLCAnPG91dGZpbGUubWFlPic=

> <r_lp_tautomer_probability>
1

> <r_epik_Ionization_Penalty>
1.00229

> <r_epik_Ionization_Penalty_Charging>
0

> <r_epik_Ionization_Penalty_Neutral>
1.00229

> <r_epik_State_Penalty>
1.0509

> <r_epik_Charging_Adjusted_Penalty>
1.0509

> <i_epik_Tot_Q>
0

> <i_epik_Tot_abs_Q>
0

> <r_epik_Metal_State_Penalty>
1.05084

> <b_epik_Metal_Only>
0

> <s_lp_Force_Field>
OPLS_2005

> <r_lp_Energy>
18.1237

> <b_lp_Chiralities_Consistent>
1

> <s_lp_Variant>
AV-unprocessed.smi:3154-4

> <Gold.Version>
5.8.1

> <Gold.Id.Protein>
6NUR|6NUR_protein|mol2

> <Gold.PLP.Fitness>
40.2299

> <Gold.PLP.PLP>
-27.0625

> <Gold.PLP.part.hbond>
-3.0000

> <Gold.PLP.part.metal>
0.0000

> <Gold.PLP.part.buried>
-1.3435

> <Gold.PLP.part.nonpolar>
-24.0717

> <Gold.PLP.part.repulsive>
0.3208

> <Gold.PLP.ligand.clash>
0.0000

> <Gold.PLP.ligand.torsion>
0.2023

> <Gold.PLP.Chemscore.Hbond>
2.0000

> <Gold.PLP.Chemscore.CHOScore>
2.4886

> <Gold.PLP.Chemscore.Metal>
0.0000

> <Gold.Chemscore.Hbonds>
donor molecule, donor type, donor heavy atom, donor atom, acceptor molecule, acceptor atom, score
      L1  H     9    26       P1  7948  1.00
      L1  H    13    29       P1  7948  1.00
      L1  C     5    23       P1 10747  0.61
      L1  C     7    25       P1 10186  0.81
      L1  C     7    25       P1 10952  0.90

> <Gold.PLP.Chemscore.Internal.Correction>
0.1061

> <Gold.Rescore>
     Score         DG    S(hbond)    S(metal)    S(lipo)     H(rot)  DE(clash)    DE(int)     intcor
     15.18     -15.41       1.98        0.00      74.82       2.12       0.02       0.22       ----

> <Gold.Chemscore.Fitness>
15.1795

> <Gold.Chemscore.DG>
-15.4143

> <Gold.Chemscore.ZeroCoef>
-5.4800

> <Gold.Chemscore.Hbond>
1.9801

> <Gold.Chemscore.Metal>
0.0000

> <Gold.Chemscore.Lipo>
74.8229

> <Gold.Chemscore.Internal_Hbond>
0.0000

> <Gold.Chemscore.DEClash>
0.0195

> <Gold.Chemscore.DEInternal>
0.2153

> <Gold.Chemscore.Rot>
2.1225

> <Gold.Chemscore.Internal.Correction>
   9.000000E+99

> <Gold.Chemscore.Hbonds>
donor molecule, donor type, donor heavy atom, donor atom, acceptor molecule, acceptor atom, score
      L1  H     9    26       P1  7948  1.00
      L1  H    13    29       P1  7948  0.93

> <Gold.Chemscore.Hbond.Weighted>
-6.6137

> <Gold.Chemscore.Metal.Weighted>
-0.0000

> <Gold.Chemscore.Lipo.Weighted>
-8.7543

> <Gold.Chemscore.Internal_Hbond.Weighted>
0.0000

> <Gold.Chemscore.DEClash.Weighted>
0.0195

> <Gold.Chemscore.DEInternal.Weighted>
0.2153

> <Gold.Chemscore.Rot.Weighted>
5.4337

> <Gold.Chemscore.Internal.Correction.Weighted>
   9.000000E+99

> <Gold.Protein.RotatedTorsions>
[ 6907 6896 6895 6894 ] final -164.86 input  -60.11 | X-H torsion
[ 7974 7965 7964 7962 ] final -127.60 input  175.53 | X-H torsion
[ 8008 7997 7996 7995 ] final  -70.54 input   59.86 | X-H torsion
[ 10167 10162 10161 10158 ] final   99.58 input  -65.29 | X-H torsion
[ 10718 10713 10712 10709 ] final  133.17 input   66.30 | X-H torsion
[ 10763 10752 10751 10750 ] final -161.74 input  -60.55 | X-H torsion
[ 11005 11000 10999 10996 ] final   26.85 input  -57.11 | X-H torsion

> <Gold.Protein.ActiveResidues>
 VAL166  LYS551  ARG553  GLY616  TRP617  ASP618  TYR619  PRO620  LYS621  CYS622 
 ASP623  PHE694  ASN695  SER759  ASP760  ASP761  ALA762  ILE779  LEU786  VAL792 
 PHE793  MET794  SER795  GLU796  ALA797  LYS798  CYS799  TRP800  GLU811  SER814 

> <Gold.Protein.RotatedAtoms>
  151.4186  133.3705  159.2752 H   0  0  0  0  0  0  0  0  0  0  0  0  # atno 6907 bound_to 6896
  150.9310  134.8726  159.7562 H   0  0  0  0  0  0  0  0  0  0  0  0  # atno 6908 bound_to 6896
  152.5028  134.4131  159.9507 H   0  0  0  0  0  0  0  0  0  0  0  0  # atno 6909 bound_to 6896
  144.9755  140.7588  143.4644 H   0  0  0  0  0  0  0  0  0  0  0  0  # atno 7974 bound_to 7965
  154.5019  140.0832  156.7816 H   0  0  0  0  0  0  0  0  0  0  0  0  # atno 8008 bound_to 7997
  155.3982  140.3436  155.4237 H   0  0  0  0  0  0  0  0  0  0  0  0  # atno 8009 bound_to 7997
  156.1467  140.1546  156.8822 H   0  0  0  0  0  0  0  0  0  0  0  0  # atno 8010 bound_to 7997
  139.7604  144.6956  151.0301 H   0  0  0  0  0  0  0  0  0  0  0  0  # atno 10167 bound_to 10162
  157.4800  131.1085  150.9694 H   0  0  0  0  0  0  0  0  0  0  0  0  # atno 10718 bound_to 10713
  154.7277  135.3039  154.8944 H   0  0  0  0  0  0  0  0  0  0  0  0  # atno 10763 bound_to 10752
  153.9796  135.6732  153.4754 H   0  0  0  0  0  0  0  0  0  0  0  0  # atno 10764 bound_to 10752
  153.0890  135.4969  154.8572 H   0  0  0  0  0  0  0  0  0  0  0  0  # atno 10765 bound_to 10752
  140.3325  134.2422  155.7700 H   0  0  0  0  0  0  0  0  0  0  0  0  # atno 11005 bound_to 11000
  145.2497  139.2037  143.4949 LP  0  0  0  0  0  0  0  0  0  0  0  0  # atno 17320 bound_to 7965
  146.3394  140.2408  142.8595 LP  0  0  0  0  0  0  0  0  0  0  0  0  # atno 17321 bound_to 7965
  140.7806  143.4704  151.0155 LP  0  0  0  0  0  0  0  0  0  0  0  0  # atno 17342 bound_to 10162
  139.8390  143.7589  152.3180 LP  0  0  0  0  0  0  0  0  0  0  0  0  # atno 17343 bound_to 10162
  157.0431  130.5757  149.5359 LP  0  0  0  0  0  0  0  0  0  0  0  0  # atno 17370 bound_to 10713
  156.0116  130.5208  150.8007 LP  0  0  0  0  0  0  0  0  0  0  0  0  # atno 17371 bound_to 10713
  141.2059  133.7846  157.0204 LP  0  0  0  0  0  0  0  0  0  0  0  0  # atno 17394 bound_to 11000
  140.0848  134.9627  157.1683 LP  0  0  0  0  0  0  0  0  0  0  0  0  # atno 17395 bound_to 11000

$$$$
