AV-unprocessed.smi:1695|AV-procd|sdf|6796|dock1
  -GOLD-   22720 7563D 1   1.00000     0.00000
 Structure written by MMmdl.
 52 54  0  0  0  0  0  0  0  0  3 V2000
  152.2509  144.4999  160.3352 C   0  0  0  0  0  0  0  0  0  0  0  0
  151.9704  143.3891  159.3371 C   0  0  0  0  0  0  0  0  0  0  0  0
  151.0625  143.6415  158.2844 C   0  0  0  0  0  0  0  0  0  0  0  0
  150.8264  142.6060  157.3880 C   0  0  0  0  0  0  0  0  0  0  0  0
  150.0057  142.5441  156.2603 N   0  3  0  0  0  0  0  0  0  0  0  0
  150.1069  141.3113  155.6919 C   0  0  0  0  0  0  0  0  0  0  0  0
  150.9709  140.5785  156.4472 N   0  0  0  0  0  0  0  0  0  0  0  0
  151.4391  139.1941  156.2681 C   0  0  0  0  0  0  0  0  0  0  0  0
  150.7321  138.4217  155.1308 C   0  0  1  0  0  0  0  0  0  0  0  0
  151.1261  138.9618  153.8845 O   0  0  0  0  0  0  0  0  0  0  0  0
  151.0404  136.9078  155.1352 C   0  0  0  0  0  0  0  0  0  0  0  0
  149.8668  136.0798  154.7546 N   0  3  1  0  0  0  0  0  0  0  0  0
  150.1397  134.6239  154.8717 C   0  0  0  0  0  0  0  0  0  0  0  0
  148.9634  133.7931  154.3312 C   0  0  0  0  0  0  0  0  0  0  0  0
  147.6492  134.1510  155.0513 C   0  0  2  0  0  0  0  0  0  0  0  0
  146.4661  133.3681  154.4663 C   0  0  0  0  0  0  0  0  0  0  0  0
  145.7535  132.6177  155.3103 N   0  0  0  0  0  0  0  0  0  0  0  0
  146.1983  133.4391  153.2684 O   0  0  0  0  0  0  0  0  0  0  0  0
  147.4144  135.6696  154.9429 C   0  0  0  0  0  0  0  0  0  0  0  0
  148.6222  136.4567  155.4763 C   0  0  0  0  0  0  0  0  0  0  0  0
  151.4546  141.3512  157.5109 C   0  0  0  0  0  0  0  0  0  0  0  0
  152.3546  141.0878  158.5413 C   0  0  0  0  0  0  0  0  0  0  0  0
  152.6088  142.1283  159.4633 C   0  0  0  0  0  0  0  0  0  0  0  0
  153.5852  141.8686  160.5979 C   0  0  0  0  0  0  0  0  0  0  0  0
  151.7020  145.4087  160.0861 H   0  0  0  0  0  0  0  0  0  0  0  0
  153.3130  144.7459  160.3466 H   0  0  0  0  0  0  0  0  0  0  0  0
  151.9537  144.1961  161.3391 H   0  0  0  0  0  0  0  0  0  0  0  0
  150.5748  144.5999  158.1807 H   0  0  0  0  0  0  0  0  0  0  0  0
  149.5935  140.9764  154.8021 H   0  0  0  0  0  0  0  0  0  0  0  0
  152.5081  139.2482  156.0581 H   0  0  0  0  0  0  0  0  0  0  0  0
  151.3501  138.6637  157.2170 H   0  0  0  0  0  0  0  0  0  0  0  0
  149.6620  138.5939  155.2389 H   0  0  0  0  0  0  0  0  0  0  0  0
  150.6126  138.5619  153.1992 H   0  0  0  0  0  0  0  0  0  0  0  0
  151.8633  136.7173  154.4445 H   0  0  0  0  0  0  0  0  0  0  0  0
  151.3932  136.5927  156.1185 H   0  0  0  0  0  0  0  0  0  0  0  0
  151.0396  134.3703  154.3099 H   0  0  0  0  0  0  0  0  0  0  0  0
  150.3345  134.3706  155.9150 H   0  0  0  0  0  0  0  0  0  0  0  0
  148.8672  133.9653  153.2578 H   0  0  0  0  0  0  0  0  0  0  0  0
  149.1807  132.7311  154.4539 H   0  0  0  0  0  0  0  0  0  0  0  0
  147.7520  133.8913  156.1065 H   0  0  0  0  0  0  0  0  0  0  0  0
  144.9657  132.0827  154.9744 H   0  0  0  0  0  0  0  0  0  0  0  0
  146.0073  132.5872  156.2876 H   0  0  0  0  0  0  0  0  0  0  0  0
  147.2311  135.9534  153.9049 H   0  0  0  0  0  0  0  0  0  0  0  0
  146.5206  135.9511  155.5016 H   0  0  0  0  0  0  0  0  0  0  0  0
  148.7479  136.2692  156.5439 H   0  0  0  0  0  0  0  0  0  0  0  0
  148.4236  137.5223  155.3669 H   0  0  0  0  0  0  0  0  0  0  0  0
  152.8399  140.1282  158.6403 H   0  0  0  0  0  0  0  0  0  0  0  0
  153.9688  140.8482  160.5695 H   0  0  0  0  0  0  0  0  0  0  0  0
  153.0999  142.0146  161.5633 H   0  0  0  0  0  0  0  0  0  0  0  0
  154.4367  142.5463  160.5319 H   0  0  0  0  0  0  0  0  0  0  0  0
  149.7032  136.2519  153.7729 H   0  0  0  0  0  0  0  0  0  0  0  0
  149.4249  143.2902  155.8990 H   0  0  0  0  0  0  0  0  0  0  0  0
  1  2  1  0  0  0  0
  1 25  1  0  0  0  0
  1 26  1  0  0  0  0
  1 27  1  0  0  0  0
  2 23  1  0  0  0  0
  2  3  2  0  0  0  0
  3  4  1  0  0  0  0
  3 28  1  0  0  0  0
  4 21  2  0  0  0  0
  4  5  1  0  0  0  0
  5  6  2  0  0  0  0
  5 52  1  0  0  0  0
  6  7  1  0  0  0  0
  6 29  1  0  0  0  0
  7  8  1  0  0  0  0
  7 21  1  0  0  0  0
  8  9  1  0  0  0  0
  8 30  1  0  0  0  0
  8 31  1  0  0  0  0
  9 10  1  0  0  0  0
  9 11  1  0  0  0  0
  9 32  1  0  0  0  0
 10 33  1  0  0  0  0
 11 12  1  0  0  0  0
 11 34  1  0  0  0  0
 11 35  1  0  0  0  0
 12 20  1  0  0  0  0
 12 13  1  0  0  0  0
 12 51  1  0  0  0  0
 13 14  1  0  0  0  0
 13 36  1  0  0  0  0
 13 37  1  0  0  0  0
 14 15  1  0  0  0  0
 14 38  1  0  0  0  0
 14 39  1  0  0  0  0
 15 16  1  0  0  0  0
 15 19  1  0  0  0  0
 15 40  1  0  0  0  0
 16 17  1  0  0  0  0
 16 18  2  0  0  0  0
 17 41  1  0  0  0  0
 17 42  1  0  0  0  0
 19 20  1  0  0  0  0
 19 43  1  0  0  0  0
 19 44  1  0  0  0  0
 20 45  1  0  0  0  0
 20 46  1  0  0  0  0
 21 22  1  0  0  0  0
 22 23  2  0  0  0  0
 22 47  1  0  0  0  0
 23 24  1  0  0  0  0
 24 48  1  0  0  0  0
 24 49  1  0  0  0  0
 24 50  1  0  0  0  0
M  CHG  1   5   1
M  CHG  1  12   1
M  END
> <s_m_source_file>
AV-unprocessed.smi

> <i_m_source_file_index>
1695

> <i_lp_mmshare_version>
43012

> <i_f3d_flags>
0

> <s_epik_input>
W0NIM11jKFtjSF0xKWMoW0NIM10pW2NIXWMoYzEyKW4oW2NIXW4yKVtDSDJdW0NASF0oW09IXSlbQ0gyXU4zW0NIMl1bQ0gyXVtDSF0oQyg9TylbTkgyXSlbQ0gyXVtDSDJdMw==

> <s_epik_cmdline>
J2VwaWtfcHl0aG9uJywgJy1waCcsICc3LjAnLCAnLXRuJywgJzgnLCAnLW1hJywgJzIwMCcsICctbWV0YWxfYmluZGluZycsICctaW1hZScsICc8aW5maWxlLm1hZT4nLCAnLW9tYWUnLCAnPG91dGZpbGUubWFlPic=

> <r_epik_Ionization_Penalty>
1.20173

> <r_epik_Ionization_Penalty_Charging>
1.20172

> <r_epik_Ionization_Penalty_Neutral>
1.7852e-06

> <r_epik_State_Penalty>
1.28089

> <r_epik_Charging_Adjusted_Penalty>
2.48261

> <i_epik_Tot_Q>
2

> <i_epik_Tot_abs_Q>
2

> <r_epik_Metal_State_Penalty>
1.35652

> <b_epik_Metal_Only>
0

> <s_lp_Force_Field>
OPLS_2005

> <r_lp_Energy>
30.0744

> <b_lp_Chiralities_Consistent>
1

> <s_lp_Variant>
AV-unprocessed.smi:1695-8

> <Gold.Version>
5.8.1

> <Gold.Id.Protein>
6NUR|6NUR_protein|mol2

> <Gold.PLP.Fitness>
58.7726

> <Gold.PLP.PLP>
-42.1916

> <Gold.PLP.part.hbond>
-3.9169

> <Gold.PLP.part.metal>
0.0000

> <Gold.PLP.part.buried>
-3.2426

> <Gold.PLP.part.nonpolar>
-36.3114

> <Gold.PLP.part.repulsive>
0.2521

> <Gold.PLP.ligand.clash>
0.0000

> <Gold.PLP.ligand.torsion>
0.6609

> <Gold.PLP.Chemscore.Hbond>
5.9513

> <Gold.PLP.Chemscore.CHOScore>
0.0000

> <Gold.PLP.Chemscore.Metal>
0.0000

> <Gold.Chemscore.Hbonds>
donor molecule, donor type, donor heavy atom, donor atom, acceptor molecule, acceptor atom, score
      L1  H     5    52       P1  8028  2.00
      L1  H    12    51       P1  7948  2.00
      L1  H    17    41       P1 10957  0.32
      P1  H  7989  7998       L1    10  0.99

> <Gold.PLP.Chemscore.Internal.Correction>
0.0490

> <Gold.Rescore>
     Score         DG    S(hbond)    S(metal)    S(lipo)     H(rot)  DE(clash)    DE(int)     intcor
     21.26     -23.47       3.71        0.00     111.61       2.91       1.48       0.73       ----

> <Gold.Chemscore.Fitness>
21.2585

> <Gold.Chemscore.DG>
-23.4718

> <Gold.Chemscore.ZeroCoef>
-5.4800

> <Gold.Chemscore.Hbond>
3.7095

> <Gold.Chemscore.Metal>
0.0000

> <Gold.Chemscore.Lipo>
111.6128

> <Gold.Chemscore.Internal_Hbond>
0.0000

> <Gold.Chemscore.DEClash>
1.4783

> <Gold.Chemscore.DEInternal>
0.7349

> <Gold.Chemscore.Rot>
2.9127

> <Gold.Chemscore.Internal.Correction>
   9.000000E+99

> <Gold.Chemscore.Hbonds>
donor molecule, donor type, donor heavy atom, donor atom, acceptor molecule, acceptor atom, score
      L1  H     5    52       P1  8028  0.95
      L1  H    12    51       P1  7948  0.37
      L1  H    17    41       P1 10957  0.14
      P1  H  7989  7998       L1    10  0.77

> <Gold.Chemscore.Hbond.Weighted>
-12.3896

> <Gold.Chemscore.Metal.Weighted>
-0.0000

> <Gold.Chemscore.Lipo.Weighted>
-13.0587

> <Gold.Chemscore.Internal_Hbond.Weighted>
0.0000

> <Gold.Chemscore.DEClash.Weighted>
1.4783

> <Gold.Chemscore.DEInternal.Weighted>
0.7349

> <Gold.Chemscore.Rot.Weighted>
7.4565

> <Gold.Chemscore.Internal.Correction.Weighted>
   9.000000E+99

> <Gold.Protein.RotatedTorsions>
[ 6907 6896 6895 6894 ] final  -76.82 input  -60.11 | X-H torsion
[ 7974 7965 7964 7962 ] final  150.94 input  175.53 | X-H torsion
[ 8008 7997 7996 7995 ] final -107.57 input   59.86 | X-H torsion
[ 10167 10162 10161 10158 ] final   77.93 input  -65.29 | X-H torsion
[ 10718 10713 10712 10709 ] final  132.21 input   66.30 | X-H torsion
[ 10763 10752 10751 10750 ] final   12.45 input  -60.55 | X-H torsion
[ 11005 11000 10999 10996 ] final -124.77 input  -57.11 | X-H torsion

> <Gold.Protein.ActiveResidues>
 VAL166  LYS551  ARG553  GLY616  TRP617  ASP618  TYR619  PRO620  LYS621  CYS622 
 ASP623  PHE694  ASN695  SER759  ASP760  ASP761  ALA762  ILE779  LEU786  VAL792 
 PHE793  MET794  SER795  GLU796  ALA797  LYS798  CYS799  TRP800  GLU811  SER814 

> <Gold.Protein.RotatedAtoms>
  150.7016  134.4515  159.5338 H   0  0  0  0  0  0  0  0  0  0  0  0  # atno 6907 bound_to 6896
  152.2206  134.8413  160.0495 H   0  0  0  0  0  0  0  0  0  0  0  0  # atno 6908 bound_to 6896
  151.9265  133.3564  159.3952 H   0  0  0  0  0  0  0  0  0  0  0  0  # atno 6909 bound_to 6896
  144.8327  139.6474  143.6051 H   0  0  0  0  0  0  0  0  0  0  0  0  # atno 7974 bound_to 7965
  154.9313  140.0405  157.2049 H   0  0  0  0  0  0  0  0  0  0  0  0  # atno 8008 bound_to 7997
  154.8158  140.2875  155.5800 H   0  0  0  0  0  0  0  0  0  0  0  0  # atno 8009 bound_to 7997
  156.2975  140.2528  156.3055 H   0  0  0  0  0  0  0  0  0  0  0  0  # atno 8010 bound_to 7997
  139.9763  144.5858  150.7940 H   0  0  0  0  0  0  0  0  0  0  0  0  # atno 10167 bound_to 10162
  157.4893  131.1090  150.9578 H   0  0  0  0  0  0  0  0  0  0  0  0  # atno 10718 bound_to 10713
  153.1821  135.6829  153.8463 H   0  0  0  0  0  0  0  0  0  0  0  0  # atno 10763 bound_to 10752
  153.7792  135.3185  155.3364 H   0  0  0  0  0  0  0  0  0  0  0  0  # atno 10764 bound_to 10752
  154.8066  135.4744  154.0504 H   0  0  0  0  0  0  0  0  0  0  0  0  # atno 10765 bound_to 10752
  140.9815  134.0666  157.3759 H   0  0  0  0  0  0  0  0  0  0  0  0  # atno 11005 bound_to 11000
  146.2629  139.6452  142.9349 LP  0  0  0  0  0  0  0  0  0  0  0  0  # atno 17320 bound_to 7965
  145.4860  141.0438  143.2619 LP  0  0  0  0  0  0  0  0  0  0  0  0  # atno 17321 bound_to 7965
  140.7504  143.2956  151.3215 LP  0  0  0  0  0  0  0  0  0  0  0  0  # atno 17342 bound_to 10162
  139.6443  144.0481  152.2578 LP  0  0  0  0  0  0  0  0  0  0  0  0  # atno 17343 bound_to 10162
  157.0285  130.5702  149.5340 LP  0  0  0  0  0  0  0  0  0  0  0  0  # atno 17370 bound_to 10713
  156.0164  130.5258  150.8147 LP  0  0  0  0  0  0  0  0  0  0  0  0  # atno 17371 bound_to 10713
  139.8952  135.0140  156.6991 LP  0  0  0  0  0  0  0  0  0  0  0  0  # atno 17394 bound_to 11000
  140.7179  133.9166  155.8127 LP  0  0  0  0  0  0  0  0  0  0  0  0  # atno 17395 bound_to 11000

$$$$
