AV-unprocessed.smi:415|AV-procd|sdf|2522|dock7
  -GOLD-   2262022473D 1   1.00000     0.00000
 Structure written by MMmdl.
 53 54  0  0  0  0  0  0  0  0  1 V2000
  144.9355  143.2962  154.4888 C   0  0  0  0  0  0  0  0  0  0  0  0
  146.3204  143.0334  154.3502 O   0  0  0  0  0  0  0  0  0  0  0  0
  146.6596  141.6983  154.6866 C   0  0  0  0  0  0  0  0  0  0  0  0
  147.9399  141.2770  153.9464 C   0  0  0  0  0  0  0  0  0  0  0  0
  148.6838  140.2425  154.6409 N   0  0  0  0  0  0  0  0  0  0  0  0
  148.9248  138.9854  154.0936 C   0  0  0  0  0  0  0  0  0  0  0  0
  148.4616  138.6929  152.8233 N   0  0  0  0  0  0  0  0  0  0  0  0
  149.6129  138.0410  154.7724 C   0  0  0  0  0  0  0  0  0  0  0  0
  150.1393  138.2844  156.1077 C   0  0  0  0  0  0  0  0  0  0  0  0
  150.7346  137.4249  156.7580 O   0  0  0  0  0  0  0  0  0  0  0  0
  149.9088  139.5767  156.6329 N   0  0  0  0  0  0  0  0  0  0  0  0
  150.3782  139.8771  158.0075 C   0  0  0  0  0  0  0  0  0  0  0  0
  151.7629  140.5475  158.0714 C   0  0  0  0  0  0  0  0  0  0  0  0
  152.6612  140.1565  157.3275 O   0  0  0  0  0  0  0  0  0  0  0  0
  151.9266  141.5438  158.9560 N   0  0  0  0  0  0  0  0  0  0  0  0
  153.1384  142.3211  159.1941 C   0  0  2  0  0  0  0  0  0  0  0  0
  154.2986  141.3965  159.6113 C   0  0  0  0  0  0  0  0  0  0  0  0
  154.0555  140.7694  160.9921 C   0  0  0  0  0  0  0  0  0  0  0  0
  153.8063  141.8525  162.0505 C   0  0  0  0  0  0  0  0  0  0  0  0
  152.6388  142.7863  161.6681 C   0  0  1  0  0  0  0  0  0  0  0  0
  152.4337  143.8416  162.7693 C   0  0  0  0  0  0  0  0  0  0  0  0
  152.8724  143.4126  160.2633 C   0  0  2  0  0  0  0  0  0  0  0  0
  151.7278  144.3510  159.8272 C   0  0  0  0  0  0  0  0  0  0  0  0
  149.1944  140.5697  155.9233 C   0  0  0  0  0  0  0  0  0  0  0  0
  149.0121  141.6811  156.4274 O   0  0  0  0  0  0  0  0  0  0  0  0
  144.7320  144.3341  154.2251 H   0  0  0  0  0  0  0  0  0  0  0  0
  144.6043  143.1386  155.5160 H   0  0  0  0  0  0  0  0  0  0  0  0
  144.3455  142.6593  153.8285 H   0  0  0  0  0  0  0  0  0  0  0  0
  146.8268  141.6308  155.7626 H   0  0  0  0  0  0  0  0  0  0  0  0
  145.8388  141.0217  154.4434 H   0  0  0  0  0  0  0  0  0  0  0  0
  147.7437  140.9515  152.9237 H   0  0  0  0  0  0  0  0  0  0  0  0
  148.6205  142.1216  153.8420 H   0  0  0  0  0  0  0  0  0  0  0  0
  147.9490  139.3677  152.2735 H   0  0  0  0  0  0  0  0  0  0  0  0
  148.6168  137.7922  152.3936 H   0  0  0  0  0  0  0  0  0  0  0  0
  149.7794  137.0729  154.3218 H   0  0  0  0  0  0  0  0  0  0  0  0
  149.6674  140.5163  158.5335 H   0  0  0  0  0  0  0  0  0  0  0  0
  150.4104  138.9709  158.6142 H   0  0  0  0  0  0  0  0  0  0  0  0
  151.1268  141.7905  159.5207 H   0  0  0  0  0  0  0  0  0  0  0  0
  153.4156  142.8188  158.2631 H   0  0  0  0  0  0  0  0  0  0  0  0
  154.4485  140.6133  158.8671 H   0  0  0  0  0  0  0  0  0  0  0  0
  155.2252  141.9711  159.6360 H   0  0  0  0  0  0  0  0  0  0  0  0
  153.2013  140.0923  160.9496 H   0  0  0  0  0  0  0  0  0  0  0  0
  154.9139  140.1615  161.2786 H   0  0  0  0  0  0  0  0  0  0  0  0
  153.6037  141.3762  163.0104 H   0  0  0  0  0  0  0  0  0  0  0  0
  154.7163  142.4392  162.1861 H   0  0  0  0  0  0  0  0  0  0  0  0
  151.7306  142.1825  161.6291 H   0  0  0  0  0  0  0  0  0  0  0  0
  153.2761  144.5321  162.8195 H   0  0  0  0  0  0  0  0  0  0  0  0
  152.3330  143.3710  163.7478 H   0  0  0  0  0  0  0  0  0  0  0  0
  151.5283  144.4255  162.6063 H   0  0  0  0  0  0  0  0  0  0  0  0
  153.7747  144.0235  160.3224 H   0  0  0  0  0  0  0  0  0  0  0  0
  150.7580  143.8537  159.8712 H   0  0  0  0  0  0  0  0  0  0  0  0
  151.8755  144.6983  158.8044 H   0  0  0  0  0  0  0  0  0  0  0  0
  151.6741  145.2388  160.4565 H   0  0  0  0  0  0  0  0  0  0  0  0
  1  2  1  0  0  0  0
  1 26  1  0  0  0  0
  1 27  1  0  0  0  0
  1 28  1  0  0  0  0
  2  3  1  0  0  0  0
  3  4  1  0  0  0  0
  3 29  1  0  0  0  0
  3 30  1  0  0  0  0
  4  5  1  0  0  0  0
  4 31  1  0  0  0  0
  4 32  1  0  0  0  0
  5 24  1  0  0  0  0
  5  6  1  0  0  0  0
  6  7  1  0  0  0  0
  6  8  2  0  0  0  0
  7 33  1  0  0  0  0
  7 34  1  0  0  0  0
  8  9  1  0  0  0  0
  8 35  1  0  0  0  0
  9 10  2  0  0  0  0
  9 11  1  0  0  0  0
 11 12  1  0  0  0  0
 11 24  1  0  0  0  0
 12 13  1  0  0  0  0
 12 36  1  0  0  0  0
 12 37  1  0  0  0  0
 13 14  2  0  0  0  0
 13 15  1  0  0  0  0
 15 16  1  0  0  0  0
 15 38  1  0  0  0  0
 16 22  1  0  0  0  0
 16 17  1  0  0  0  0
 16 39  1  0  0  0  0
 17 18  1  0  0  0  0
 17 40  1  0  0  0  0
 17 41  1  0  0  0  0
 18 19  1  0  0  0  0
 18 42  1  0  0  0  0
 18 43  1  0  0  0  0
 19 20  1  0  0  0  0
 19 44  1  0  0  0  0
 19 45  1  0  0  0  0
 20 21  1  0  0  0  0
 20 22  1  0  0  0  0
 20 46  1  0  0  0  0
 21 47  1  0  0  0  0
 21 48  1  0  0  0  0
 21 49  1  0  0  0  0
 22 23  1  0  0  0  0
 22 50  1  0  0  0  0
 23 51  1  0  0  0  0
 23 52  1  0  0  0  0
 23 53  1  0  0  0  0
 24 25  2  0  0  0  0
M  END
> <s_m_source_file>
AV-unprocessed.smi

> <i_m_source_file_index>
415

> <i_lp_mmshare_version>
43012

> <i_f3d_flags>
0

> <s_epik_input>
W0NIM11PW0NIMl1bQ0gyXW4xYyhbTkgyXSlbY0hdYyg9TyluKGMxPU8pW0NIMl1DKD1PKVtOSF1bQ0BASF0yW0NIMl1bQ0gyXVtDSDJdW0NAQEhdKFtDSDNdKVtDQEhdMltDSDNd

> <s_epik_cmdline>
J2VwaWtfcHl0aG9uJywgJy1waCcsICc3LjAnLCAnLXRuJywgJzgnLCAnLW1hJywgJzIwMCcsICctbWV0YWxfYmluZGluZycsICctaW1hZScsICc8aW5maWxlLm1hZT4nLCAnLW9tYWUnLCAnPG91dGZpbGUubWFlPic=

> <r_lp_tautomer_probability>
1

> <r_epik_Ionization_Penalty>
8.6647e-06

> <r_epik_Ionization_Penalty_Charging>
1.81162e-08

> <r_epik_Ionization_Penalty_Neutral>
8.64658e-06

> <r_epik_State_Penalty>
-0

> <r_epik_Charging_Adjusted_Penalty>
1.81162e-08

> <i_epik_Tot_Q>
0

> <i_epik_Tot_abs_Q>
0

> <r_epik_Metal_State_Penalty>
-0

> <b_epik_Metal_Only>
0

> <s_lp_Force_Field>
OPLS_2005

> <r_lp_Energy>
19.7433

> <b_lp_Chiralities_Consistent>
1

> <s_lp_Variant>
AV-unprocessed.smi:415-5

> <Gold.Version>
5.8.1

> <Gold.Id.Protein>
6NUR|6NUR_protein|mol2

> <Gold.PLP.Fitness>
52.2859

> <Gold.PLP.PLP>
-48.0840

> <Gold.PLP.part.hbond>
-2.8000

> <Gold.PLP.part.metal>
0.0000

> <Gold.PLP.part.buried>
-4.6907

> <Gold.PLP.part.nonpolar>
-42.3309

> <Gold.PLP.part.repulsive>
0.8472

> <Gold.PLP.ligand.clash>
0.0000

> <Gold.PLP.ligand.torsion>
0.9283

> <Gold.PLP.Chemscore.Hbond>
2.0000

> <Gold.PLP.Chemscore.CHOScore>
0.0000

> <Gold.PLP.Chemscore.Metal>
0.0000

> <Gold.Chemscore.Hbonds>
donor molecule, donor type, donor heavy atom, donor atom, acceptor molecule, acceptor atom, score
      L1  H     7    34       P1  7948  1.00
      P1  H  7997  8008       L1    14  0.96

> <Gold.PLP.Chemscore.Internal.Correction>
0.0586

> <Gold.Rescore>
     Score         DG    S(hbond)    S(metal)    S(lipo)     H(rot)  DE(clash)    DE(int)     intcor
     17.18     -19.52       1.96        0.00     113.70       2.26       0.31       2.04       ----

> <Gold.Chemscore.Fitness>
17.1818

> <Gold.Chemscore.DG>
-19.5249

> <Gold.Chemscore.ZeroCoef>
-5.4800

> <Gold.Chemscore.Hbond>
1.9580

> <Gold.Chemscore.Metal>
0.0000

> <Gold.Chemscore.Lipo>
113.6956

> <Gold.Chemscore.Internal_Hbond>
0.0000

> <Gold.Chemscore.DEClash>
0.3079

> <Gold.Chemscore.DEInternal>
2.0353

> <Gold.Chemscore.Rot>
2.2645

> <Gold.Chemscore.Internal.Correction>
   9.000000E+99

> <Gold.Chemscore.Hbonds>
donor molecule, donor type, donor heavy atom, donor atom, acceptor molecule, acceptor atom, score
      L1  H     7    33       P1  7957  0.02
      L1  H     7    34       P1  7948  1.00
      P1  H  7997  8008       L1    14  0.92

> <Gold.Chemscore.Hbond.Weighted>
-6.5397

> <Gold.Chemscore.Metal.Weighted>
-0.0000

> <Gold.Chemscore.Lipo.Weighted>
-13.3024

> <Gold.Chemscore.Internal_Hbond.Weighted>
0.0000

> <Gold.Chemscore.DEClash.Weighted>
0.3079

> <Gold.Chemscore.DEInternal.Weighted>
2.0353

> <Gold.Chemscore.Rot.Weighted>
5.7972

> <Gold.Chemscore.Internal.Correction.Weighted>
   9.000000E+99

> <Gold.Protein.RotatedTorsions>
[ 6907 6896 6895 6894 ] final -150.48 input  -60.11 | X-H torsion
[ 7974 7965 7964 7962 ] final  147.45 input  175.53 | X-H torsion
[ 8008 7997 7996 7995 ] final  -51.82 input   59.86 | X-H torsion
[ 10167 10162 10161 10158 ] final  130.63 input  -65.29 | X-H torsion
[ 10718 10713 10712 10709 ] final  -90.84 input   66.30 | X-H torsion
[ 10763 10752 10751 10750 ] final  101.28 input  -60.55 | X-H torsion
[ 11005 11000 10999 10996 ] final -173.73 input  -57.11 | X-H torsion

> <Gold.Protein.ActiveResidues>
 VAL166  LYS551  ARG553  GLY616  TRP617  ASP618  TYR619  PRO620  LYS621  CYS622 
 ASP623  PHE694  ASN695  SER759  ASP760  ASP761  ALA762  ILE779  LEU786  VAL792 
 PHE793  MET794  SER795  GLU796  ALA797  LYS798  CYS799  TRP800  GLU811  SER814 

> <Gold.Protein.RotatedAtoms>
  151.1992  133.4621  159.2595 H   0  0  0  0  0  0  0  0  0  0  0  0  # atno 6907 bound_to 6896
  151.1087  135.0014  159.8493 H   0  0  0  0  0  0  0  0  0  0  0  0  # atno 6908 bound_to 6896
  152.5449  134.1913  159.8728 H   0  0  0  0  0  0  0  0  0  0  0  0  # atno 6909 bound_to 6896
  144.8591  139.6030  143.5939 H   0  0  0  0  0  0  0  0  0  0  0  0  # atno 7974 bound_to 7965
  154.4091  140.1239  156.4890 H   0  0  0  0  0  0  0  0  0  0  0  0  # atno 8008 bound_to 7997
  155.7009  140.3495  155.4913 H   0  0  0  0  0  0  0  0  0  0  0  0  # atno 8009 bound_to 7997
  155.9386  140.1083  157.1064 H   0  0  0  0  0  0  0  0  0  0  0  0  # atno 8010 bound_to 7997
  139.5421  144.6740  151.4591 H   0  0  0  0  0  0  0  0  0  0  0  0  # atno 10167 bound_to 10162
  155.9990  130.4925  150.5383 H   0  0  0  0  0  0  0  0  0  0  0  0  # atno 10718 bound_to 10713
  153.3246  135.4050  155.1445 H   0  0  0  0  0  0  0  0  0  0  0  0  # atno 10763 bound_to 10752
  154.8609  135.3596  154.5551 H   0  0  0  0  0  0  0  0  0  0  0  0  # atno 10764 bound_to 10752
  153.5986  135.7071  153.5452 H   0  0  0  0  0  0  0  0  0  0  0  0  # atno 10765 bound_to 10752
  140.4824  134.6062  157.4924 H   0  0  0  0  0  0  0  0  0  0  0  0  # atno 11005 bound_to 11000
  146.2846  139.6969  142.9204 LP  0  0  0  0  0  0  0  0  0  0  0  0  # atno 17320 bound_to 7965
  145.4348  141.0418  143.2890 LP  0  0  0  0  0  0  0  0  0  0  0  0  # atno 17321 bound_to 7965
  140.6655  143.8407  150.6937 LP  0  0  0  0  0  0  0  0  0  0  0  0  # atno 17342 bound_to 10162
  140.1815  143.4111  152.1929 LP  0  0  0  0  0  0  0  0  0  0  0  0  # atno 17343 bound_to 10162
  157.3323  131.0702  151.1851 LP  0  0  0  0  0  0  0  0  0  0  0  0  # atno 17370 bound_to 10713
  157.2728  130.6712  149.6027 LP  0  0  0  0  0  0  0  0  0  0  0  0  # atno 17371 bound_to 10713
  139.9818  134.7125  155.9845 LP  0  0  0  0  0  0  0  0  0  0  0  0  # atno 17394 bound_to 11000
  141.1524  133.6547  156.4056 LP  0  0  0  0  0  0  0  0  0  0  0  0  # atno 17395 bound_to 11000

$$$$
