AV-unprocessed.smi:3298|AV-procd|sdf|12644|dock4
  -GOLD-   2272018573D 1   1.00000     0.00000
 Structure written by MMmdl.
 36 37  0  0  0  0  0  0  0  0  2 V2000
  146.1732  142.9769  154.2539 C   0  0  0  0  0  0  0  0  0  0  0  0
  147.1496  141.8234  154.1603 C   0  0  0  0  0  0  0  0  0  0  0  0
  146.8386  140.6261  153.4809 C   0  0  0  0  0  0  0  0  0  0  0  0
  147.7871  139.5804  153.4412 C   0  0  0  0  0  0  0  0  0  0  0  0
  147.4412  138.3950  152.7397 N   0  0  0  0  0  0  0  0  0  0  0  0
  146.2170  137.8676  152.5685 C   0  0  0  0  0  0  0  0  0  0  0  0
  145.1714  138.3499  153.0042 O   0  0  0  0  0  0  0  0  0  0  0  0
  146.2646  136.7494  151.8310 N   0  0  0  0  0  0  0  0  0  0  0  0
  145.0984  135.9754  151.4201 C   0  0  2  0  0  0  0  0  0  0  0  0
  144.4170  135.3720  152.6173 C   0  0  0  0  0  0  0  0  0  0  0  0
  144.3124  134.0476  152.5364 C   0  0  0  0  0  0  0  0  0  0  0  0
  144.9123  133.4887  151.2714 C   0  0  2  0  0  0  0  0  0  0  0  0
  145.9827  132.4171  151.5426 C   0  0  0  0  0  0  0  0  0  0  0  0
  146.4799  131.8916  150.3298 O   0  0  0  0  0  0  0  0  0  0  0  0
  145.4758  134.7431  150.5557 C   0  0  0  0  0  0  0  0  0  0  0  0
  149.0452  139.7797  154.0630 C   0  0  0  0  0  0  0  0  0  0  0  0
  149.3020  140.9982  154.7230 C   0  0  0  0  0  0  0  0  0  0  0  0
  148.3572  141.9624  154.7505 N   0  3  0  0  0  0  0  0  0  0  0  0
  144.3805  136.6125  150.9004 H   0  0  0  0  0  0  0  0  0  0  0  0
  144.1057  133.0605  150.6747 H   0  0  0  0  0  0  0  0  0  0  0  0
  145.1668  142.6611  153.9772 H   0  0  0  0  0  0  0  0  0  0  0  0
  146.4755  143.7830  153.5849 H   0  0  0  0  0  0  0  0  0  0  0  0
  146.1370  143.3683  155.2711 H   0  0  0  0  0  0  0  0  0  0  0  0
  145.8764  140.5080  153.0035 H   0  0  0  0  0  0  0  0  0  0  0  0
  148.1950  137.9440  152.2421 H   0  0  0  0  0  0  0  0  0  0  0  0
  147.1641  136.4210  151.5115 H   0  0  0  0  0  0  0  0  0  0  0  0
  144.0463  135.9748  153.4335 H   0  0  0  0  0  0  0  0  0  0  0  0
  143.8462  133.4165  153.2788 H   0  0  0  0  0  0  0  0  0  0  0  0
  146.8155  132.8475  152.0990 H   0  0  0  0  0  0  0  0  0  0  0  0
  145.5758  131.6048  152.1459 H   0  0  0  0  0  0  0  0  0  0  0  0
  147.3912  131.6712  150.4485 H   0  0  0  0  0  0  0  0  0  0  0  0
  145.0566  134.8351  149.5531 H   0  0  0  0  0  0  0  0  0  0  0  0
  146.5572  134.6641  150.4322 H   0  0  0  0  0  0  0  0  0  0  0  0
  149.8177  139.0261  154.0344 H   0  0  0  0  0  0  0  0  0  0  0  0
  150.2312  141.2299  155.2225 H   0  0  0  0  0  0  0  0  0  0  0  0
  148.5659  142.8358  155.2350 H   0  0  0  0  0  0  0  0  0  0  0  0
  1  2  1  0  0  0  0
  1 21  1  0  0  0  0
  1 22  1  0  0  0  0
  1 23  1  0  0  0  0
  2 18  1  0  0  0  0
  2  3  2  0  0  0  0
  3  4  1  0  0  0  0
  3 24  1  0  0  0  0
  4  5  1  0  0  0  0
  4 16  2  0  0  0  0
  5  6  1  0  0  0  0
  5 25  1  0  0  0  0
  6  7  2  0  0  0  0
  6  8  1  0  0  0  0
  8  9  1  0  0  0  0
  8 26  1  0  0  0  0
  9 19  1  0  0  0  0
  9 15  1  0  0  0  0
  9 10  1  0  0  0  0
 10 11  2  0  0  0  0
 10 27  1  0  0  0  0
 11 12  1  0  0  0  0
 11 28  1  0  0  0  0
 12 20  1  0  0  0  0
 12 13  1  0  0  0  0
 12 15  1  0  0  0  0
 13 14  1  0  0  0  0
 13 29  1  0  0  0  0
 13 30  1  0  0  0  0
 14 31  1  0  0  0  0
 15 32  1  0  0  0  0
 15 33  1  0  0  0  0
 16 17  1  0  0  0  0
 16 34  1  0  0  0  0
 17 18  2  0  0  0  0
 17 35  1  0  0  0  0
 18 36  1  0  0  0  0
M  CHG  1  18   1
M  END
> <s_m_source_file>
AV-unprocessed.smi

> <i_m_source_file_index>
3298

> <i_lp_mmshare_version>
43012

> <i_f3d_flags>
0

> <s_epik_input>
W0NIM11jMVtjSF1jKFtjSF1bY0hdbjEpW05IXUMoPU8pW05IXVtDQEBIXTJbQ0hdPVtDSF1bQ0BASF0oW0NIMl0yKVtDSDJdW09IXQ==

> <s_epik_cmdline>
J2VwaWtfcHl0aG9uJywgJy1waCcsICc3LjAnLCAnLXRuJywgJzgnLCAnLW1hJywgJzIwMCcsICctbWV0YWxfYmluZGluZycsICctaW1hZScsICc8aW5maWxlLm1hZT4nLCAnLW9tYWUnLCAnPG91dGZpbGUubWFlPic=

> <r_epik_Ionization_Penalty>
0.443901

> <r_epik_Ionization_Penalty_Charging>
0.443881

> <r_epik_Ionization_Penalty_Neutral>
1.94967e-05

> <r_epik_State_Penalty>
0.446172

> <r_epik_Charging_Adjusted_Penalty>
0.890053

> <i_epik_Tot_Q>
1

> <i_epik_Tot_abs_Q>
1

> <r_epik_Metal_State_Penalty>
0.675842

> <b_epik_Metal_Only>
0

> <s_lp_Force_Field>
OPLS_2005

> <r_lp_Energy>
26.7826

> <b_lp_Chiralities_Consistent>
1

> <s_lp_Variant>
AV-unprocessed.smi:3298-5

> <Gold.Version>
5.8.1

> <Gold.Id.Protein>
6NUR|6NUR_protein|mol2

> <Gold.PLP.Fitness>
45.8301

> <Gold.PLP.PLP>
-31.2882

> <Gold.PLP.part.hbond>
-4.5382

> <Gold.PLP.part.metal>
0.0000

> <Gold.PLP.part.buried>
-3.6002

> <Gold.PLP.part.nonpolar>
-28.3513

> <Gold.PLP.part.repulsive>
3.9299

> <Gold.PLP.ligand.clash>
0.0000

> <Gold.PLP.ligand.torsion>
0.2007

> <Gold.PLP.Chemscore.Hbond>
4.9760

> <Gold.PLP.Chemscore.CHOScore>
0.0000

> <Gold.PLP.Chemscore.Metal>
0.0000

> <Gold.Chemscore.Hbonds>
donor molecule, donor type, donor heavy atom, donor atom, acceptor molecule, acceptor atom, score
      L1  H     5    25       P1  7948  0.88
      L1  H     8    26       P1  7948  0.99
      L1  H    14    31       P1 10747  1.00
      L1  H    18    36       P1  8028  2.00

> <Gold.PLP.Chemscore.Internal.Correction>
0.0154

> <Gold.Rescore>
     Score         DG    S(hbond)    S(metal)    S(lipo)     H(rot)  DE(clash)    DE(int)     intcor
     18.79     -22.51       3.90        0.00      73.75       1.81       2.14       1.59       ----

> <Gold.Chemscore.Fitness>
18.7887

> <Gold.Chemscore.DG>
-22.5120

> <Gold.Chemscore.ZeroCoef>
-5.4800

> <Gold.Chemscore.Hbond>
3.9002

> <Gold.Chemscore.Metal>
0.0000

> <Gold.Chemscore.Lipo>
73.7507

> <Gold.Chemscore.Internal_Hbond>
0.0000

> <Gold.Chemscore.DEClash>
2.1374

> <Gold.Chemscore.DEInternal>
1.5859

> <Gold.Chemscore.Rot>
1.8061

> <Gold.Chemscore.Internal.Correction>
   9.000000E+99

> <Gold.Chemscore.Hbonds>
donor molecule, donor type, donor heavy atom, donor atom, acceptor molecule, acceptor atom, score
      L1  H     5    25       P1  7948  0.86
      L1  H     8    26       P1  7948  0.93
      L1  H    14    31       P1 10747  1.00
      L1  H    18    36       P1  8028  0.99

> <Gold.Chemscore.Hbond.Weighted>
-13.0268

> <Gold.Chemscore.Metal.Weighted>
-0.0000

> <Gold.Chemscore.Lipo.Weighted>
-8.6288

> <Gold.Chemscore.Internal_Hbond.Weighted>
0.0000

> <Gold.Chemscore.DEClash.Weighted>
2.1374

> <Gold.Chemscore.DEInternal.Weighted>
1.5859

> <Gold.Chemscore.Rot.Weighted>
4.6237

> <Gold.Chemscore.Internal.Correction.Weighted>
   9.000000E+99

> <Gold.Protein.RotatedTorsions>
[ 6907 6896 6895 6894 ] final    4.58 input  -60.11 | X-H torsion
[ 7974 7965 7964 7962 ] final  -93.95 input  175.53 | X-H torsion
[ 8008 7997 7996 7995 ] final -128.84 input   59.86 | X-H torsion
[ 10167 10162 10161 10158 ] final  139.67 input  -65.29 | X-H torsion
[ 10718 10713 10712 10709 ] final  -55.41 input   66.30 | X-H torsion
[ 10763 10752 10751 10750 ] final  -24.17 input  -60.55 | X-H torsion
[ 11005 11000 10999 10996 ] final  -77.86 input  -57.11 | X-H torsion

> <Gold.Protein.ActiveResidues>
 VAL166  LYS551  ARG553  GLY616  TRP617  ASP618  TYR619  PRO620  LYS621  CYS622 
 ASP623  PHE694  ASN695  SER759  ASP760  ASP761  ALA762  ILE779  LEU786  VAL792 
 PHE793  MET794  SER795  GLU796  ALA797  LYS798  CYS799  TRP800  GLU811  SER814 

> <Gold.Protein.RotatedAtoms>
  151.6435  135.1010  160.0146 H   0  0  0  0  0  0  0  0  0  0  0  0  # atno 6907 bound_to 6896
  152.4040  133.6857  159.6349 H   0  0  0  0  0  0  0  0  0  0  0  0  # atno 6908 bound_to 6896
  150.7937  133.8657  159.3285 H   0  0  0  0  0  0  0  0  0  0  0  0  # atno 6909 bound_to 6896
  145.3797  140.9516  143.2400 H   0  0  0  0  0  0  0  0  0  0  0  0  # atno 7974 bound_to 7965
  155.2692  140.0439  157.3005 H   0  0  0  0  0  0  0  0  0  0  0  0  # atno 8008 bound_to 7997
  154.5663  140.2361  155.8227 H   0  0  0  0  0  0  0  0  0  0  0  0  # atno 8009 bound_to 7997
  156.2088  140.3005  155.9693 H   0  0  0  0  0  0  0  0  0  0  0  0  # atno 8010 bound_to 7997
  139.5072  144.6281  151.5887 H   0  0  0  0  0  0  0  0  0  0  0  0  # atno 10167 bound_to 10162
  156.1370  130.4156  150.0168 H   0  0  0  0  0  0  0  0  0  0  0  0  # atno 10718 bound_to 10713
  153.6795  135.6967  153.5122 H   0  0  0  0  0  0  0  0  0  0  0  0  # atno 10763 bound_to 10752
  153.2496  135.4279  155.0783 H   0  0  0  0  0  0  0  0  0  0  0  0  # atno 10764 bound_to 10752
  154.8404  135.3528  154.6338 H   0  0  0  0  0  0  0  0  0  0  0  0  # atno 10765 bound_to 10752
  141.1662  133.7039  156.7884 H   0  0  0  0  0  0  0  0  0  0  0  0  # atno 11005 bound_to 11000
  144.8516  139.5313  143.6853 LP  0  0  0  0  0  0  0  0  0  0  0  0  # atno 17320 bound_to 7965
  146.2847  139.6973  142.9203 LP  0  0  0  0  0  0  0  0  0  0  0  0  # atno 17321 bound_to 7965
  140.6004  143.9620  150.6382 LP  0  0  0  0  0  0  0  0  0  0  0  0  # atno 17342 bound_to 10162
  140.2830  143.3377  152.1134 LP  0  0  0  0  0  0  0  0  0  0  0  0  # atno 17343 bound_to 10162
  156.8064  130.9309  151.3645 LP  0  0  0  0  0  0  0  0  0  0  0  0  # atno 17370 bound_to 10713
  157.6542  130.8910  149.9694 LP  0  0  0  0  0  0  0  0  0  0  0  0  # atno 17371 bound_to 10713
  140.2343  134.8662  157.3509 LP  0  0  0  0  0  0  0  0  0  0  0  0  # atno 17394 bound_to 11000
  140.1859  134.4431  155.7744 LP  0  0  0  0  0  0  0  0  0  0  0  0  # atno 17395 bound_to 11000

$$$$
