AV-unprocessed.smi:2312|AV-procd|sdf|9263|dock6
  -GOLD-   2272012483D 1   1.00000     0.00000
 Structure written by MMmdl.
 34 35  0  0  0  0  0  0  0  0  1 V2000
  151.5617  140.5330  156.3864 C   0  0  0  0  0  0  0  0  0  0  0  0
  150.7688  140.5375  155.2064 O   0  0  0  0  0  0  0  0  0  0  0  0
  150.0803  139.3217  154.9109 C   0  0  0  0  0  0  0  0  0  0  0  0
  151.0483  138.1423  154.7434 C   0  0  0  0  0  0  0  0  0  0  0  0
  150.3380  136.9551  154.2875 N   0  0  0  0  0  0  0  0  0  0  0  0
  150.4079  135.7560  154.8784 C   0  0  0  0  0  0  0  0  0  0  0  0
  151.1004  135.5278  155.8706 O   0  0  0  0  0  0  0  0  0  0  0  0
  149.6265  134.8594  154.2532 N   0  0  0  0  0  0  0  0  0  0  0  0
  149.4431  133.4885  154.5773 C   0  0  0  0  0  0  0  0  0  0  0  0
  150.0289  132.8344  155.5755 N   0  0  0  0  0  0  0  0  0  0  0  0
  149.4872  131.5951  155.3848 C   0  0  0  0  0  0  0  0  0  0  0  0
  148.6398  131.4785  154.3621 N   0  0  0  0  0  0  0  0  0  0  0  0
  148.6223  132.7294  153.8453 N   0  0  0  0  0  0  0  0  0  0  0  0
  147.8059  133.0466  152.6894 C   0  0  0  0  0  0  0  0  0  0  0  0
  148.9331  139.1658  155.9271 C   0  0  0  0  0  0  0  0  0  0  0  0
  148.0045  138.8062  154.7658 C   0  0  0  0  0  0  0  0  0  0  0  0
  148.9840  139.5402  153.8490 C   0  0  0  0  0  0  0  0  0  0  0  0
  152.1103  141.4722  156.4510 H   0  0  0  0  0  0  0  0  0  0  0  0
  152.2917  139.7233  156.3854 H   0  0  0  0  0  0  0  0  0  0  0  0
  150.9504  140.4532  157.2849 H   0  0  0  0  0  0  0  0  0  0  0  0
  151.8232  138.3918  154.0169 H   0  0  0  0  0  0  0  0  0  0  0  0
  151.5701  137.9215  155.6751 H   0  0  0  0  0  0  0  0  0  0  0  0
  149.7448  137.0626  153.4778 H   0  0  0  0  0  0  0  0  0  0  0  0
  149.1001  135.1943  153.4600 H   0  0  0  0  0  0  0  0  0  0  0  0
  149.7256  130.7529  156.0176 H   0  0  0  0  0  0  0  0  0  0  0  0
  148.4441  133.1731  151.8146 H   0  0  0  0  0  0  0  0  0  0  0  0
  147.2568  133.9713  152.8680 H   0  0  0  0  0  0  0  0  0  0  0  0
  147.0909  132.2462  152.4957 H   0  0  0  0  0  0  0  0  0  0  0  0
  149.0700  138.3679  156.6577 H   0  0  0  0  0  0  0  0  0  0  0  0
  148.6537  140.1041  156.4099 H   0  0  0  0  0  0  0  0  0  0  0  0
  147.9627  137.7333  154.5710 H   0  0  0  0  0  0  0  0  0  0  0  0
  147.0097  139.2492  154.8210 H   0  0  0  0  0  0  0  0  0  0  0  0
  148.7156  140.5893  153.7123 H   0  0  0  0  0  0  0  0  0  0  0  0
  149.1662  139.0458  152.8943 H   0  0  0  0  0  0  0  0  0  0  0  0
  1  2  1  0  0  0  0
  1 18  1  0  0  0  0
  1 19  1  0  0  0  0
  1 20  1  0  0  0  0
  2  3  1  0  0  0  0
  3 17  1  0  0  0  0
  3  4  1  0  0  0  0
  3 15  1  0  0  0  0
  4  5  1  0  0  0  0
  4 21  1  0  0  0  0
  4 22  1  0  0  0  0
  5  6  1  0  0  0  0
  5 23  1  0  0  0  0
  6  7  2  0  0  0  0
  6  8  1  0  0  0  0
  8  9  1  0  0  0  0
  8 24  1  0  0  0  0
  9 13  1  0  0  0  0
  9 10  2  0  0  0  0
 10 11  1  0  0  0  0
 11 12  2  0  0  0  0
 11 25  1  0  0  0  0
 12 13  1  0  0  0  0
 13 14  1  0  0  0  0
 14 26  1  0  0  0  0
 14 27  1  0  0  0  0
 14 28  1  0  0  0  0
 15 16  1  0  0  0  0
 15 29  1  0  0  0  0
 15 30  1  0  0  0  0
 16 17  1  0  0  0  0
 16 31  1  0  0  0  0
 16 32  1  0  0  0  0
 17 33  1  0  0  0  0
 17 34  1  0  0  0  0
M  END
> <s_m_source_file>
AV-unprocessed.smi

> <i_m_source_file_index>
2312

> <i_lp_mmshare_version>
43012

> <i_f3d_flags>
0

> <s_epik_input>
W0NIMl0xW0NIMl1bQ0gyXUMxKE9bQ0gzXSlbQ0gyXVtOSF1DKD1PKVtOSF1jMm5bY0hdbm4yW0NIM10=

> <s_epik_cmdline>
J2VwaWtfcHl0aG9uJywgJy1waCcsICc3LjAnLCAnLXRuJywgJzgnLCAnLW1hJywgJzIwMCcsICctbWV0YWxfYmluZGluZycsICctaW1hZScsICc8aW5maWxlLm1hZT4nLCAnLW9tYWUnLCAnPG91dGZpbGUubWFlPic=

> <r_lp_tautomer_probability>
1

> <r_epik_Ionization_Penalty>
2.1066e-05

> <r_epik_Ionization_Penalty_Charging>
0

> <r_epik_Ionization_Penalty_Neutral>
2.1066e-05

> <r_epik_State_Penalty>
-0

> <r_epik_Charging_Adjusted_Penalty>
0

> <i_epik_Tot_Q>
0

> <i_epik_Tot_abs_Q>
0

> <r_epik_Metal_State_Penalty>
-0

> <b_epik_Metal_Only>
0

> <s_lp_Force_Field>
OPLS_2005

> <r_lp_Energy>
16.1455

> <b_lp_Chiralities_Consistent>
1

> <s_lp_Variant>
AV-unprocessed.smi:2312-1

> <Gold.Version>
5.8.1

> <Gold.Id.Protein>
6NUR|6NUR_protein|mol2

> <Gold.PLP.Fitness>
38.5174

> <Gold.PLP.PLP>
-26.9950

> <Gold.PLP.part.hbond>
-5.3617

> <Gold.PLP.part.metal>
0.0000

> <Gold.PLP.part.buried>
-1.5077

> <Gold.PLP.part.nonpolar>
-21.6507

> <Gold.PLP.part.repulsive>
0.2744

> <Gold.PLP.ligand.clash>
0.0000

> <Gold.PLP.ligand.torsion>
0.2151

> <Gold.PLP.Chemscore.Hbond>
3.8960

> <Gold.PLP.Chemscore.CHOScore>
0.0000

> <Gold.PLP.Chemscore.Metal>
0.0000

> <Gold.Chemscore.Hbonds>
donor molecule, donor type, donor heavy atom, donor atom, acceptor molecule, acceptor atom, score
      L1  H     5    23       P1  7948  0.94
      L1  H     8    24       P1  7948  1.00
      P1  H  7989  7998       L1     2  0.98
      P1  H 10752 10765       L1     7  0.63

> <Gold.PLP.Chemscore.Internal.Correction>
0.2647

> <Gold.Rescore>
     Score         DG    S(hbond)    S(metal)    S(lipo)     H(rot)  DE(clash)    DE(int)     intcor
      9.95     -12.48       2.15        0.00      35.69       1.71       0.12       2.42       ----

> <Gold.Chemscore.Fitness>
9.9452

> <Gold.Chemscore.DG>
-12.4834

> <Gold.Chemscore.ZeroCoef>
-5.4800

> <Gold.Chemscore.Hbond>
2.1540

> <Gold.Chemscore.Metal>
0.0000

> <Gold.Chemscore.Lipo>
35.6939

> <Gold.Chemscore.Internal_Hbond>
0.0000

> <Gold.Chemscore.DEClash>
0.1162

> <Gold.Chemscore.DEInternal>
2.4219

> <Gold.Chemscore.Rot>
1.7059

> <Gold.Chemscore.Internal.Correction>
   9.000000E+99

> <Gold.Chemscore.Hbonds>
donor molecule, donor type, donor heavy atom, donor atom, acceptor molecule, acceptor atom, score
      L1  H     5    23       P1  7948  0.54
      L1  H     8    24       P1  7948  0.33
      P1  H  7989  7998       L1     2  0.27
      P1  H 10752 10765       L1     7  0.19

> <Gold.Chemscore.Hbond.Weighted>
-7.1942

> <Gold.Chemscore.Metal.Weighted>
-0.0000

> <Gold.Chemscore.Lipo.Weighted>
-4.1762

> <Gold.Chemscore.Internal_Hbond.Weighted>
0.0000

> <Gold.Chemscore.DEClash.Weighted>
0.1162

> <Gold.Chemscore.DEInternal.Weighted>
2.4219

> <Gold.Chemscore.Rot.Weighted>
4.3670

> <Gold.Chemscore.Internal.Correction.Weighted>
   9.000000E+99

> <Gold.Protein.RotatedTorsions>
[ 6907 6896 6895 6894 ] final  -46.92 input  -60.11 | X-H torsion
[ 7974 7965 7964 7962 ] final  -16.76 input  175.53 | X-H torsion
[ 8008 7997 7996 7995 ] final  130.68 input   59.86 | X-H torsion
[ 10167 10162 10161 10158 ] final  168.53 input  -65.29 | X-H torsion
[ 10718 10713 10712 10709 ] final   27.84 input   66.30 | X-H torsion
[ 10763 10752 10751 10750 ] final -154.41 input  -60.55 | X-H torsion
[ 11005 11000 10999 10996 ] final -169.22 input  -57.11 | X-H torsion

> <Gold.Protein.ActiveResidues>
 VAL166  LYS551  ARG553  GLY616  TRP617  ASP618  TYR619  PRO620  LYS621  CYS622 
 ASP623  PHE694  ASN695  SER759  ASP760  ASP761  ALA762  ILE779  LEU786  VAL792 
 PHE793  MET794  SER795  GLU796  ALA797  LYS798  CYS799  TRP800  GLU811  SER814 

> <Gold.Protein.RotatedAtoms>
  150.9062  134.8477  159.7393 H   0  0  0  0  0  0  0  0  0  0  0  0  # atno 6907 bound_to 6896
  152.4919  134.4428  159.9559 H   0  0  0  0  0  0  0  0  0  0  0  0  # atno 6908 bound_to 6896
  151.4475  133.3587  159.2825 H   0  0  0  0  0  0  0  0  0  0  0  0  # atno 6909 bound_to 6896
  146.1973  140.3682  142.8436 H   0  0  0  0  0  0  0  0  0  0  0  0  # atno 7974 bound_to 7965
  156.2958  140.2590  156.2801 H   0  0  0  0  0  0  0  0  0  0  0  0  # atno 8008 bound_to 7997
  154.9610  140.0392  157.2209 H   0  0  0  0  0  0  0  0  0  0  0  0  # atno 8009 bound_to 7997
  154.7946  140.2818  155.5970 H   0  0  0  0  0  0  0  0  0  0  0  0  # atno 8010 bound_to 7997
  139.4970  144.3804  151.9628 H   0  0  0  0  0  0  0  0  0  0  0  0  # atno 10167 bound_to 10162
  157.2255  130.6999  149.6289 H   0  0  0  0  0  0  0  0  0  0  0  0  # atno 10718 bound_to 10713
  154.7860  135.3190  154.7885 H   0  0  0  0  0  0  0  0  0  0  0  0  # atno 10763 bound_to 10752
  153.8585  135.6855  153.4789 H   0  0  0  0  0  0  0  0  0  0  0  0  # atno 10764 bound_to 10752
  153.1512  135.4698  154.9578 H   0  0  0  0  0  0  0  0  0  0  0  0  # atno 10765 bound_to 10752
  140.5332  134.5595  157.5080 H   0  0  0  0  0  0  0  0  0  0  0  0  # atno 11005 bound_to 11000
  144.8606  140.7134  143.6109 LP  0  0  0  0  0  0  0  0  0  0  0  0  # atno 17320 bound_to 7965
  145.3602  139.1683  143.4387 LP  0  0  0  0  0  0  0  0  0  0  0  0  # atno 17321 bound_to 7965
  140.3241  144.3393  150.6002 LP  0  0  0  0  0  0  0  0  0  0  0  0  # atno 17342 bound_to 10162
  140.5699  143.2182  151.7618 LP  0  0  0  0  0  0  0  0  0  0  0  0  # atno 17343 bound_to 10162
  155.9679  130.4506  150.5702 LP  0  0  0  0  0  0  0  0  0  0  0  0  # atno 17370 bound_to 10713
  157.3532  131.0737  151.1697 LP  0  0  0  0  0  0  0  0  0  0  0  0  # atno 17371 bound_to 10713
  139.9543  134.7562  156.0377 LP  0  0  0  0  0  0  0  0  0  0  0  0  # atno 17394 bound_to 11000
  141.1269  133.6597  156.3361 LP  0  0  0  0  0  0  0  0  0  0  0  0  # atno 17395 bound_to 11000

$$$$
