AV-unprocessed.smi:1325|AV-procd|sdf|5472|dock4
  -GOLD-   22720 5 43D 1   1.00000     0.00000
 Structure written by MMmdl.
 35 36  0  0  0  0  0  0  0  0  1 V2000
  154.6848  137.2130  162.7999 C   0  0  0  0  0  0  0  0  0  0  0  0
  154.4124  137.5061  161.3491 C   0  0  0  0  0  0  0  0  0  0  0  0
  153.8230  138.6252  161.0837 N   0  0  0  0  0  0  0  0  0  0  0  0
  153.5229  138.9910  159.7856 N   0  0  0  0  0  0  0  0  0  0  0  0
  152.8364  140.2842  159.6737 C   0  0  0  0  0  0  0  0  0  0  0  0
  153.7305  141.4577  160.1313 C   0  0  2  0  0  0  0  0  0  0  0  0
  154.1382  141.2346  161.4668 O   0  0  0  0  0  0  0  0  0  0  0  0
  152.9991  142.7848  159.9969 C   0  0  0  0  0  0  0  0  0  0  0  0
  152.6268  143.2586  158.7205 C   0  0  0  0  0  0  0  0  0  0  0  0
  151.9429  144.4832  158.5888 C   0  0  0  0  0  0  0  0  0  0  0  0
  151.6256  145.2400  159.7329 C   0  0  0  0  0  0  0  0  0  0  0  0
  151.9910  144.7712  161.0092 C   0  0  0  0  0  0  0  0  0  0  0  0
  152.6749  143.5470  161.1413 C   0  0  0  0  0  0  0  0  0  0  0  0
  153.8063  138.2410  158.6828 C   0  0  0  0  0  0  0  0  0  0  0  0
  153.5202  138.6029  157.5406 O   0  0  0  0  0  0  0  0  0  0  0  0
  154.4752  136.9748  158.9906 C   0  0  0  0  0  0  0  0  0  0  0  0
  154.7889  136.1571  157.8636 C   0  0  0  0  0  0  0  0  0  0  0  0
  155.0605  135.5061  156.9457 N   0  0  0  0  0  0  0  0  0  0  0  0
  154.7747  136.6042  160.2608 C   0  0  0  0  0  0  0  0  0  0  0  0
  155.4672  135.3004  160.6332 C   0  0  0  0  0  0  0  0  0  0  0  0
  155.7537  137.0901  162.9765 H   0  0  0  0  0  0  0  0  0  0  0  0
  154.1819  136.2971  163.1105 H   0  0  0  0  0  0  0  0  0  0  0  0
  154.3339  138.0161  163.4499 H   0  0  0  0  0  0  0  0  0  0  0  0
  152.5840  140.4240  158.6206 H   0  0  0  0  0  0  0  0  0  0  0  0
  151.8757  140.2954  160.1920 H   0  0  0  0  0  0  0  0  0  0  0  0
  154.6297  141.4991  159.5151 H   0  0  0  0  0  0  0  0  0  0  0  0
  153.5811  141.7404  162.0385 H   0  0  0  0  0  0  0  0  0  0  0  0
  152.8627  142.6845  157.8365 H   0  0  0  0  0  0  0  0  0  0  0  0
  151.6614  144.8414  157.6095 H   0  0  0  0  0  0  0  0  0  0  0  0
  151.1009  146.1786  159.6317 H   0  0  0  0  0  0  0  0  0  0  0  0
  151.7460  145.3500  161.8876 H   0  0  0  0  0  0  0  0  0  0  0  0
  152.9484  143.1935  162.1248 H   0  0  0  0  0  0  0  0  0  0  0  0
  155.7034  134.6939  159.7595 H   0  0  0  0  0  0  0  0  0  0  0  0
  154.8300  134.7016  161.2849 H   0  0  0  0  0  0  0  0  0  0  0  0
  156.4034  135.4994  161.1558 H   0  0  0  0  0  0  0  0  0  0  0  0
  1  2  1  0  0  0  0
  1 21  1  0  0  0  0
  1 22  1  0  0  0  0
  1 23  1  0  0  0  0
  2 19  1  0  0  0  0
  2  3  2  0  0  0  0
  3  4  1  0  0  0  0
  4  5  1  0  0  0  0
  4 14  1  0  0  0  0
  5  6  1  0  0  0  0
  5 24  1  0  0  0  0
  5 25  1  0  0  0  0
  6  7  1  0  0  0  0
  6  8  1  0  0  0  0
  6 26  1  0  0  0  0
  7 27  1  0  0  0  0
  8 13  1  0  0  0  0
  8  9  2  0  0  0  0
  9 10  1  0  0  0  0
  9 28  1  0  0  0  0
 10 11  2  0  0  0  0
 10 29  1  0  0  0  0
 11 12  1  0  0  0  0
 11 30  1  0  0  0  0
 12 13  2  0  0  0  0
 12 31  1  0  0  0  0
 13 32  1  0  0  0  0
 14 15  2  0  0  0  0
 14 16  1  0  0  0  0
 16 17  1  0  0  0  0
 16 19  2  0  0  0  0
 17 18  3  0  0  0  0
 19 20  1  0  0  0  0
 20 33  1  0  0  0  0
 20 34  1  0  0  0  0
 20 35  1  0  0  0  0
M  END
> <s_m_source_file>
AV-unprocessed.smi

> <i_m_source_file_index>
1325

> <i_lp_mmshare_version>
43012

> <i_f3d_flags>
0

> <s_epik_input>
TiNDYyhjMVtDSDNdKWMoPU8pbihuYzFbQ0gzXSlbQ0gyXVtDQEhdKFtPSF0pYzJbY0hdW2NIXVtjSF1bY0hdW2NIXTI=

> <s_epik_cmdline>
J2VwaWtfcHl0aG9uJywgJy1waCcsICc3LjAnLCAnLXRuJywgJzgnLCAnLW1hJywgJzIwMCcsICctbWV0YWxfYmluZGluZycsICctaW1hZScsICc8aW5maWxlLm1hZT4nLCAnLW9tYWUnLCAnPG91dGZpbGUubWFlPic=

> <r_lp_tautomer_probability>
1

> <r_epik_Ionization_Penalty>
7.1854e-08

> <r_epik_Ionization_Penalty_Charging>
1.40848e-10

> <r_epik_Ionization_Penalty_Neutral>
7.17131e-08

> <r_epik_State_Penalty>
-0

> <r_epik_Charging_Adjusted_Penalty>
1.40848e-10

> <i_epik_Tot_Q>
0

> <i_epik_Tot_abs_Q>
0

> <r_epik_Metal_State_Penalty>
-0

> <b_epik_Metal_Only>
0

> <s_lp_Force_Field>
OPLS_2005

> <r_lp_Energy>
27.9871

> <b_lp_Chiralities_Consistent>
1

> <s_lp_Variant>
AV-unprocessed.smi:1325-1

> <Gold.Version>
5.8.1

> <Gold.Id.Protein>
6NUR|6NUR_protein|mol2

> <Gold.PLP.Fitness>
48.7415

> <Gold.PLP.PLP>
-42.9229

> <Gold.PLP.part.hbond>
-2.0000

> <Gold.PLP.part.metal>
0.0000

> <Gold.PLP.part.buried>
-4.5510

> <Gold.PLP.part.nonpolar>
-36.4479

> <Gold.PLP.part.repulsive>
0.0000

> <Gold.PLP.ligand.clash>
0.0000

> <Gold.PLP.ligand.torsion>
0.0937

> <Gold.PLP.Chemscore.Hbond>
2.0000

> <Gold.PLP.Chemscore.CHOScore>
0.0000

> <Gold.PLP.Chemscore.Metal>
0.0000

> <Gold.Chemscore.Hbonds>
donor molecule, donor type, donor heavy atom, donor atom, acceptor molecule, acceptor atom, score
      P1  H  7997  8009       L1    15  1.00
      P1  H 10752 10763       L1    18  1.00

> <Gold.PLP.Chemscore.Internal.Correction>
0.0060

> <Gold.Rescore>
     Score         DG    S(hbond)    S(metal)    S(lipo)     H(rot)  DE(clash)    DE(int)     intcor
     20.75     -21.06       1.95        0.00     119.09       1.90       0.22       0.09       ----

> <Gold.Chemscore.Fitness>
20.7519

> <Gold.Chemscore.DG>
-21.0624

> <Gold.Chemscore.ZeroCoef>
-5.4800

> <Gold.Chemscore.Hbond>
1.9536

> <Gold.Chemscore.Metal>
0.0000

> <Gold.Chemscore.Lipo>
119.0882

> <Gold.Chemscore.Internal_Hbond>
0.0000

> <Gold.Chemscore.DEClash>
0.2212

> <Gold.Chemscore.DEInternal>
0.0893

> <Gold.Chemscore.Rot>
1.9047

> <Gold.Chemscore.Internal.Correction>
   9.000000E+99

> <Gold.Chemscore.Hbonds>
donor molecule, donor type, donor heavy atom, donor atom, acceptor molecule, acceptor atom, score
      P1  H  7997  8009       L1    15  0.81
      P1  H 10752 10763       L1    18  1.00

> <Gold.Chemscore.Hbond.Weighted>
-6.5251

> <Gold.Chemscore.Metal.Weighted>
-0.0000

> <Gold.Chemscore.Lipo.Weighted>
-13.9333

> <Gold.Chemscore.Internal_Hbond.Weighted>
0.0000

> <Gold.Chemscore.DEClash.Weighted>
0.2212

> <Gold.Chemscore.DEInternal.Weighted>
0.0893

> <Gold.Chemscore.Rot.Weighted>
4.8760

> <Gold.Chemscore.Internal.Correction.Weighted>
   9.000000E+99

> <Gold.Protein.RotatedTorsions>
[ 6907 6896 6895 6894 ] final -153.49 input  -60.11 | X-H torsion
[ 7974 7965 7964 7962 ] final  -13.69 input  175.53 | X-H torsion
[ 8008 7997 7996 7995 ] final  157.67 input   59.86 | X-H torsion
[ 10167 10162 10161 10158 ] final  -79.54 input  -65.29 | X-H torsion
[ 10718 10713 10712 10709 ] final  132.06 input   66.30 | X-H torsion
[ 10763 10752 10751 10750 ] final  165.03 input  -60.55 | X-H torsion
[ 11005 11000 10999 10996 ] final   76.73 input  -57.11 | X-H torsion

> <Gold.Protein.ActiveResidues>
 VAL166  LYS551  ARG553  GLY616  TRP617  ASP618  TYR619  PRO620  LYS621  CYS622 
 ASP623  PHE694  ASN695  SER759  ASP760  ASP761  ALA762  ILE779  LEU786  VAL792 
 PHE793  MET794  SER795  GLU796  ALA797  LYS798  CYS799  TRP800  GLU811  SER814 

> <Gold.Protein.RotatedAtoms>
  151.2434  133.4387  159.2608 H   0  0  0  0  0  0  0  0  0  0  0  0  # atno 6907 bound_to 6896
  151.0684  134.9782  159.8306 H   0  0  0  0  0  0  0  0  0  0  0  0  # atno 6908 bound_to 6896
  152.5408  134.2381  159.8904 H   0  0  0  0  0  0  0  0  0  0  0  0  # atno 6909 bound_to 6896
  146.2104  140.3239  142.8393 H   0  0  0  0  0  0  0  0  0  0  0  0  # atno 7974 bound_to 7965
  156.2350  140.1879  156.7144 H   0  0  0  0  0  0  0  0  0  0  0  0  # atno 8008 bound_to 7997
  154.6090  140.0625  156.9496 H   0  0  0  0  0  0  0  0  0  0  0  0  # atno 8009 bound_to 7997
  155.2048  140.3295  155.4340 H   0  0  0  0  0  0  0  0  0  0  0  0  # atno 8010 bound_to 7997
  140.4584  143.2461  151.8385 H   0  0  0  0  0  0  0  0  0  0  0  0  # atno 10167 bound_to 10162
  157.4908  131.1090  150.9559 H   0  0  0  0  0  0  0  0  0  0  0  0  # atno 10718 bound_to 10713
  154.3179  135.2756  155.2534 H   0  0  0  0  0  0  0  0  0  0  0  0  # atno 10763 bound_to 10752
  154.4900  135.5836  153.6456 H   0  0  0  0  0  0  0  0  0  0  0  0  # atno 10764 bound_to 10752
  152.9880  135.6132  154.3361 H   0  0  0  0  0  0  0  0  0  0  0  0  # atno 10765 bound_to 10752
  139.9285  134.7625  156.1433 H   0  0  0  0  0  0  0  0  0  0  0  0  # atno 11005 bound_to 11000
  144.8900  140.7511  143.5932 LP  0  0  0  0  0  0  0  0  0  0  0  0  # atno 17320 bound_to 7965
  145.3161  139.1803  143.4612 LP  0  0  0  0  0  0  0  0  0  0  0  0  # atno 17321 bound_to 7965
  139.4803  144.5037  151.9026 LP  0  0  0  0  0  0  0  0  0  0  0  0  # atno 17342 bound_to 10162
  140.4123  144.2353  150.5888 LP  0  0  0  0  0  0  0  0  0  0  0  0  # atno 17343 bound_to 10162
  157.0261  130.5693  149.5337 LP  0  0  0  0  0  0  0  0  0  0  0  0  # atno 17370 bound_to 10713
  156.0172  130.5267  150.8170 LP  0  0  0  0  0  0  0  0  0  0  0  0  # atno 17371 bound_to 10713
  141.0859  133.6734  156.2435 LP  0  0  0  0  0  0  0  0  0  0  0  0  # atno 17394 bound_to 11000
  140.6268  134.5305  157.5554 LP  0  0  0  0  0  0  0  0  0  0  0  0  # atno 17395 bound_to 11000

$$$$
