AV-unprocessed.smi:1007|AV-procd|sdf|4398|dock3
  -GOLD-   22720 2333D 1   1.00000     0.00000
 Structure written by MMmdl.
 56 58  0  0  0  0  0  0  0  0  2 V2000
  148.5663  135.5003  149.7169 C   0  0  0  0  0  0  0  0  0  0  0  0
  148.0974  135.4386  151.0550 O   0  0  0  0  0  0  0  0  0  0  0  0
  148.7158  136.3713  151.9300 C   0  0  0  0  0  0  0  0  0  0  0  0
  148.5373  137.8171  151.4300 C   0  0  0  0  0  0  0  0  0  0  0  0
  147.1441  138.2439  151.2661 N   0  0  0  0  0  0  0  0  0  0  0  0
  146.3815  138.1766  152.5123 C   0  0  0  0  0  0  0  0  0  0  0  0
  146.7784  139.2649  153.5313 C   0  0  0  0  0  0  0  0  0  0  0  0
  146.6334  140.6178  152.9294 N   0  3  0  0  0  0  0  0  0  0  0  0
  146.9565  141.7227  153.8670 C   0  0  0  0  0  0  0  0  0  0  0  0
  147.9676  141.3028  154.9573 C   0  0  2  0  0  0  0  0  0  0  0  0
  147.2909  141.2045  156.1942 O   0  0  0  0  0  0  0  0  0  0  0  0
  149.1309  142.2978  155.1357 C   0  0  0  0  0  0  0  0  0  0  0  0
  150.3479  141.6521  155.5928 N   0  0  0  0  0  0  0  0  0  0  0  0
  151.1696  140.8694  154.8673 C   0  0  0  0  0  0  0  0  0  0  0  0
  152.2453  140.3840  155.4798 N   0  0  0  0  0  0  0  0  0  0  0  0
  152.1017  140.9064  156.7536 C   0  0  0  0  0  0  0  0  0  0  0  0
  152.9184  140.7716  157.8974 C   0  0  0  0  0  0  0  0  0  0  0  0
  152.5762  141.4088  159.1113 C   0  0  0  0  0  0  0  0  0  0  0  0
  153.4848  141.2374  160.3161 C   0  0  0  0  0  0  0  0  0  0  0  0
  151.4000  142.1967  159.1935 C   0  0  0  0  0  0  0  0  0  0  0  0
  151.0124  142.8908  160.4873 C   0  0  0  0  0  0  0  0  0  0  0  0
  150.5719  142.3406  158.0608 C   0  0  0  0  0  0  0  0  0  0  0  0
  150.9235  141.7022  156.8583 C   0  0  0  0  0  0  0  0  0  0  0  0
  147.4002  140.7115  151.6604 C   0  0  0  0  0  0  0  0  0  0  0  0
  146.9831  139.5833  150.6956 C   0  0  0  0  0  0  0  0  0  0  0  0
  148.0027  134.7971  149.1037 H   0  0  0  0  0  0  0  0  0  0  0  0
  149.6197  135.2310  149.6424 H   0  0  0  0  0  0  0  0  0  0  0  0
  148.4279  136.4960  149.2940 H   0  0  0  0  0  0  0  0  0  0  0  0
  148.3388  136.2402  152.9448 H   0  0  0  0  0  0  0  0  0  0  0  0
  149.7796  136.1329  151.9589 H   0  0  0  0  0  0  0  0  0  0  0  0
  149.0158  138.4730  152.1584 H   0  0  0  0  0  0  0  0  0  0  0  0
  149.0877  137.9562  150.5011 H   0  0  0  0  0  0  0  0  0  0  0  0
  145.3196  138.2784  152.2841 H   0  0  0  0  0  0  0  0  0  0  0  0
  146.4939  137.1894  152.9622 H   0  0  0  0  0  0  0  0  0  0  0  0
  146.1397  139.1719  154.4085 H   0  0  0  0  0  0  0  0  0  0  0  0
  147.8026  139.1172  153.8765 H   0  0  0  0  0  0  0  0  0  0  0  0
  147.3291  142.5675  153.2866 H   0  0  0  0  0  0  0  0  0  0  0  0
  146.0455  142.0710  154.3563 H   0  0  0  0  0  0  0  0  0  0  0  0
  148.3891  140.3246  154.7284 H   0  0  0  0  0  0  0  0  0  0  0  0
  147.6142  141.8791  156.7725 H   0  0  0  0  0  0  0  0  0  0  0  0
  149.3413  142.8148  154.1985 H   0  0  0  0  0  0  0  0  0  0  0  0
  148.8627  143.0675  155.8610 H   0  0  0  0  0  0  0  0  0  0  0  0
  150.9696  140.6485  153.8288 H   0  0  0  0  0  0  0  0  0  0  0  0
  153.8147  140.1720  157.8347 H   0  0  0  0  0  0  0  0  0  0  0  0
  152.9253  140.8507  161.1679 H   0  0  0  0  0  0  0  0  0  0  0  0
  153.9278  142.1930  160.5973 H   0  0  0  0  0  0  0  0  0  0  0  0
  154.2962  140.5398  160.1072 H   0  0  0  0  0  0  0  0  0  0  0  0
  150.1219  143.5064  160.3576 H   0  0  0  0  0  0  0  0  0  0  0  0
  151.8182  143.5386  160.8319 H   0  0  0  0  0  0  0  0  0  0  0  0
  150.8016  142.1563  161.2649 H   0  0  0  0  0  0  0  0  0  0  0  0
  149.6733  142.9374  158.1115 H   0  0  0  0  0  0  0  0  0  0  0  0
  147.2044  141.6748  151.1883 H   0  0  0  0  0  0  0  0  0  0  0  0
  148.4708  140.6755  151.8663 H   0  0  0  0  0  0  0  0  0  0  0  0
  147.5341  139.6694  149.7599 H   0  0  0  0  0  0  0  0  0  0  0  0
  145.9355  139.7259  150.4262 H   0  0  0  0  0  0  0  0  0  0  0  0
  145.6608  140.7275  152.6795 H   0  0  0  0  0  0  0  0  0  0  0  0
  1  2  1  0  0  0  0
  1 26  1  0  0  0  0
  1 27  1  0  0  0  0
  1 28  1  0  0  0  0
  2  3  1  0  0  0  0
  3  4  1  0  0  0  0
  3 29  1  0  0  0  0
  3 30  1  0  0  0  0
  4  5  1  0  0  0  0
  4 31  1  0  0  0  0
  4 32  1  0  0  0  0
  5 25  1  0  0  0  0
  5  6  1  0  0  0  0
  6  7  1  0  0  0  0
  6 33  1  0  0  0  0
  6 34  1  0  0  0  0
  7  8  1  0  0  0  0
  7 35  1  0  0  0  0
  7 36  1  0  0  0  0
  8  9  1  0  0  0  0
  8 24  1  0  0  0  0
  8 56  1  0  0  0  0
  9 10  1  0  0  0  0
  9 37  1  0  0  0  0
  9 38  1  0  0  0  0
 10 11  1  0  0  0  0
 10 12  1  0  0  0  0
 10 39  1  0  0  0  0
 11 40  1  0  0  0  0
 12 13  1  0  0  0  0
 12 41  1  0  0  0  0
 12 42  1  0  0  0  0
 13 23  1  0  0  0  0
 13 14  1  0  0  0  0
 14 15  2  0  0  0  0
 14 43  1  0  0  0  0
 15 16  1  0  0  0  0
 16 23  2  0  0  0  0
 16 17  1  0  0  0  0
 17 18  2  0  0  0  0
 17 44  1  0  0  0  0
 18 19  1  0  0  0  0
 18 20  1  0  0  0  0
 19 45  1  0  0  0  0
 19 46  1  0  0  0  0
 19 47  1  0  0  0  0
 20 21  1  0  0  0  0
 20 22  2  0  0  0  0
 21 48  1  0  0  0  0
 21 49  1  0  0  0  0
 21 50  1  0  0  0  0
 22 23  1  0  0  0  0
 22 51  1  0  0  0  0
 24 25  1  0  0  0  0
 24 52  1  0  0  0  0
 24 53  1  0  0  0  0
 25 54  1  0  0  0  0
 25 55  1  0  0  0  0
M  CHG  1   8   1
M  END
> <s_m_source_file>
AV-unprocessed.smi

> <i_m_source_file_index>
1007

> <i_lp_mmshare_version>
43012

> <i_f3d_flags>
0

> <s_epik_input>
W0NIM11PW0NIMl1bQ0gyXU4xW0NIMl1bQ0gyXU4oW0NIMl1bQ0gyXTEpW0NIMl1bQ0BIXShbT0hdKVtDSDJdbihbY0hdbjIpYyhjMjMpW2NIXWMoW0NIM10pYyhbY0hdMylbQ0gzXQ==

> <s_epik_cmdline>
J2VwaWtfcHl0aG9uJywgJy1waCcsICc3LjAnLCAnLXRuJywgJzgnLCAnLW1hJywgJzIwMCcsICctbWV0YWxfYmluZGluZycsICctaW1hZScsICc8aW5maWxlLm1hZT4nLCAnLW9tYWUnLCAnPG91dGZpbGUubWFlPic=

> <r_epik_Ionization_Penalty>
0.102698

> <r_epik_Ionization_Penalty_Charging>
0.00226046

> <r_epik_Ionization_Penalty_Neutral>
0.100438

> <r_epik_State_Penalty>
0.191223

> <r_epik_Charging_Adjusted_Penalty>
0.193484

> <i_epik_Tot_Q>
1

> <i_epik_Tot_abs_Q>
1

> <r_epik_Metal_State_Penalty>
0.102154

> <b_epik_Metal_Only>
0

> <s_lp_Force_Field>
OPLS_2005

> <r_lp_Energy>
34.1063

> <b_lp_Chiralities_Consistent>
1

> <s_lp_Variant>
AV-unprocessed.smi:1007-1

> <Gold.Version>
5.8.1

> <Gold.Id.Protein>
6NUR|6NUR_protein|mol2

> <Gold.PLP.Fitness>
50.1063

> <Gold.PLP.PLP>
-44.3841

> <Gold.PLP.part.hbond>
-2.0000

> <Gold.PLP.part.metal>
0.0000

> <Gold.PLP.part.buried>
-1.7176

> <Gold.PLP.part.nonpolar>
-39.9656

> <Gold.PLP.part.repulsive>
0.1787

> <Gold.PLP.ligand.clash>
0.0000

> <Gold.PLP.ligand.torsion>
1.6872

> <Gold.PLP.Chemscore.Hbond>
3.0000

> <Gold.PLP.Chemscore.CHOScore>
0.0000

> <Gold.PLP.Chemscore.Metal>
0.0000

> <Gold.Chemscore.Hbonds>
donor molecule, donor type, donor heavy atom, donor atom, acceptor molecule, acceptor atom, score
      L1  H     8    56       P1 10175  2.00

> <Gold.PLP.Chemscore.Internal.Correction>
0.0967

> <Gold.Rescore>
     Score         DG    S(hbond)    S(metal)    S(lipo)     H(rot)  DE(clash)    DE(int)     intcor
     17.35     -19.35       1.91        0.00     120.11       2.56       0.09       1.90       ----

> <Gold.Chemscore.Fitness>
17.3481

> <Gold.Chemscore.DG>
-19.3450

> <Gold.Chemscore.ZeroCoef>
-5.4800

> <Gold.Chemscore.Hbond>
1.9056

> <Gold.Chemscore.Metal>
0.0000

> <Gold.Chemscore.Lipo>
120.1060

> <Gold.Chemscore.Internal_Hbond>
0.0000

> <Gold.Chemscore.DEClash>
0.0937

> <Gold.Chemscore.DEInternal>
1.9032

> <Gold.Chemscore.Rot>
2.5594

> <Gold.Chemscore.Internal.Correction>
   9.000000E+99

> <Gold.Chemscore.Hbonds>
donor molecule, donor type, donor heavy atom, donor atom, acceptor molecule, acceptor atom, score
      L1  H     8    56       P1 10175  0.38

> <Gold.Chemscore.Hbond.Weighted>
-6.3648

> <Gold.Chemscore.Metal.Weighted>
-0.0000

> <Gold.Chemscore.Lipo.Weighted>
-14.0524

> <Gold.Chemscore.Internal_Hbond.Weighted>
0.0000

> <Gold.Chemscore.DEClash.Weighted>
0.0937

> <Gold.Chemscore.DEInternal.Weighted>
1.9032

> <Gold.Chemscore.Rot.Weighted>
6.5522

> <Gold.Chemscore.Internal.Correction.Weighted>
   9.000000E+99

> <Gold.Protein.RotatedTorsions>
[ 6907 6896 6895 6894 ] final   58.80 input  -60.11 | X-H torsion
[ 7974 7965 7964 7962 ] final   47.03 input  175.53 | X-H torsion
[ 8008 7997 7996 7995 ] final   42.09 input   59.86 | X-H torsion
[ 10167 10162 10161 10158 ] final    4.79 input  -65.29 | X-H torsion
[ 10718 10713 10712 10709 ] final -149.88 input   66.30 | X-H torsion
[ 10763 10752 10751 10750 ] final -149.43 input  -60.55 | X-H torsion
[ 11005 11000 10999 10996 ] final   -7.06 input  -57.11 | X-H torsion

> <Gold.Protein.ActiveResidues>
 VAL166  LYS551  ARG553  GLY616  TRP617  ASP618  TYR619  PRO620  LYS621  CYS622 
 ASP623  PHE694  ASN695  SER759  ASP760  ASP761  ALA762  ILE779  LEU786  VAL792 
 PHE793  MET794  SER795  GLU796  ALA797  LYS798  CYS799  TRP800  GLU811  SER814 

> <Gold.Protein.RotatedAtoms>
  152.3857  134.6521  160.0126 H   0  0  0  0  0  0  0  0  0  0  0  0  # atno 6907 bound_to 6896
  151.6770  133.3307  159.3218 H   0  0  0  0  0  0  0  0  0  0  0  0  # atno 6908 bound_to 6896
  150.7784  134.6750  159.6457 H   0  0  0  0  0  0  0  0  0  0  0  0  # atno 6909 bound_to 6896
  146.0335  139.4793  142.9822 H   0  0  0  0  0  0  0  0  0  0  0  0  # atno 7974 bound_to 7965
  155.2804  140.3372  155.4259 H   0  0  0  0  0  0  0  0  0  0  0  0  # atno 8008 bound_to 7997
  156.2092  140.1763  156.7773 H   0  0  0  0  0  0  0  0  0  0  0  0  # atno 8009 bound_to 7997
  154.5663  140.0678  156.8881 H   0  0  0  0  0  0  0  0  0  0  0  0  # atno 8010 bound_to 7997
  140.6516  143.7530  150.7584 H   0  0  0  0  0  0  0  0  0  0  0  0  # atno 10167 bound_to 10162
  156.4389  130.8112  151.2341 H   0  0  0  0  0  0  0  0  0  0  0  0  # atno 10718 bound_to 10713
  154.8178  135.3309  154.7127 H   0  0  0  0  0  0  0  0  0  0  0  0  # atno 10763 bound_to 10752
  153.7765  135.6921  153.4901 H   0  0  0  0  0  0  0  0  0  0  0  0  # atno 10764 bound_to 10752
  153.2009  135.4516  155.0213 H   0  0  0  0  0  0  0  0  0  0  0  0  # atno 10765 bound_to 10752
  140.7087  133.8927  155.8735 H   0  0  0  0  0  0  0  0  0  0  0  0  # atno 11005 bound_to 11000
  145.7001  141.0138  143.1509 LP  0  0  0  0  0  0  0  0  0  0  0  0  # atno 17320 bound_to 7965
  144.7041  139.8634  143.7435 LP  0  0  0  0  0  0  0  0  0  0  0  0  # atno 17321 bound_to 7965
  140.1182  143.4636  152.2329 LP  0  0  0  0  0  0  0  0  0  0  0  0  # atno 17342 bound_to 10162
  139.5732  144.7474  151.3835 LP  0  0  0  0  0  0  0  0  0  0  0  0  # atno 17343 bound_to 10162
  157.7507  131.0174  150.3586 LP  0  0  0  0  0  0  0  0  0  0  0  0  # atno 17370 bound_to 10713
  156.3939  130.3903  149.7009 LP  0  0  0  0  0  0  0  0  0  0  0  0  # atno 17371 bound_to 10713
  141.0102  134.1030  157.4229 LP  0  0  0  0  0  0  0  0  0  0  0  0  # atno 17394 bound_to 11000
  139.8877  135.0092  156.6577 LP  0  0  0  0  0  0  0  0  0  0  0  0  # atno 17395 bound_to 11000

$$$$
