AV-unprocessed.smi:670|AV-procd|sdf|3265|dock2
  -GOLD-   22720 0213D 1   1.00000     0.00000
 Structure written by MMmdl.
 44 45  0  0  0  0  0  0  0  0  2 V2000
  151.7533  144.5267  157.9142 C   0  0  0  0  0  0  0  0  0  0  0  0
  151.8025  143.5744  159.1203 C   0  0  2  0  0  0  0  0  0  0  0  0
  152.6078  144.2022  160.2758 C   0  0  0  0  0  0  0  0  0  0  0  0
  152.6768  143.2703  161.4949 C   0  0  0  0  0  0  0  0  0  0  0  0
  153.2608  141.9038  161.1111 C   0  0  0  0  0  0  0  0  0  0  0  0
  152.4603  141.2644  159.9673 C   0  0  0  0  0  0  0  0  0  0  0  0
  152.3820  142.1937  158.7370 C   0  0  1  0  0  0  0  0  0  0  0  0
  151.5219  141.6147  157.7638 O   0  0  0  0  0  0  0  0  0  0  0  0
  150.2216  141.2970  158.2389 C   0  0  0  0  0  0  0  0  0  0  0  0
  149.6329  140.1853  157.3643 C   0  0  0  0  0  0  0  0  0  0  0  0
  149.7981  138.8898  158.0081 N   0  0  0  0  0  0  0  0  0  0  0  0
  148.7900  138.0838  158.3687 C   0  0  0  0  0  0  0  0  0  0  0  0
  147.6053  138.3681  158.1844 O   0  0  0  0  0  0  0  0  0  0  0  0
  149.2028  136.7685  159.0489 C   0  0  0  0  0  0  0  0  0  0  0  0
  148.1281  136.1195  159.8144 N   0  0  0  0  0  0  0  0  0  0  0  0
  147.6527  136.9081  160.9477 N   0  5  0  0  0  0  0  0  0  0  0  0
  146.6563  136.4125  161.7284 C   0  0  0  0  0  0  0  0  0  0  0  0
  146.1989  137.0227  162.6924 O   0  0  0  0  0  0  0  0  0  0  0  0
  146.1193  135.1017  161.4023 C   0  0  0  0  0  0  0  0  0  0  0  0
  146.5911  134.3869  160.3619 C   0  0  0  0  0  0  0  0  0  0  0  0
  147.6591  134.8779  159.4995 C   0  0  0  0  0  0  0  0  0  0  0  0
  148.1053  134.2241  158.5563 O   0  0  0  0  0  0  0  0  0  0  0  0
  152.7509  144.7117  157.5145 H   0  0  0  0  0  0  0  0  0  0  0  0
  151.3225  145.4888  158.1923 H   0  0  0  0  0  0  0  0  0  0  0  0
  151.1427  144.1175  157.1090 H   0  0  0  0  0  0  0  0  0  0  0  0
  150.7786  143.4272  159.4679 H   0  0  0  0  0  0  0  0  0  0  0  0
  153.6196  144.4307  159.9379 H   0  0  0  0  0  0  0  0  0  0  0  0
  152.1598  145.1521  160.5699 H   0  0  0  0  0  0  0  0  0  0  0  0
  153.2825  143.7268  162.2783 H   0  0  0  0  0  0  0  0  0  0  0  0
  151.6779  143.1388  161.9124 H   0  0  0  0  0  0  0  0  0  0  0  0
  154.3024  142.0209  160.8088 H   0  0  0  0  0  0  0  0  0  0  0  0
  153.2621  141.2435  161.9788 H   0  0  0  0  0  0  0  0  0  0  0  0
  152.9157  140.3108  159.7011 H   0  0  0  0  0  0  0  0  0  0  0  0
  151.4522  141.0362  160.3157 H   0  0  0  0  0  0  0  0  0  0  0  0
  153.3810  142.3405  158.3213 H   0  0  0  0  0  0  0  0  0  0  0  0
  150.2859  140.9553  159.2728 H   0  0  0  0  0  0  0  0  0  0  0  0
  149.5681  142.1696  158.2241 H   0  0  0  0  0  0  0  0  0  0  0  0
  148.5751  140.3733  157.1751 H   0  0  0  0  0  0  0  0  0  0  0  0
  150.1375  140.1721  156.3971 H   0  0  0  0  0  0  0  0  0  0  0  0
  150.7424  138.5911  158.2046 H   0  0  0  0  0  0  0  0  0  0  0  0
  149.5741  136.0772  158.2904 H   0  0  0  0  0  0  0  0  0  0  0  0
  150.0571  136.9783  159.6951 H   0  0  0  0  0  0  0  0  0  0  0  0
  145.3261  134.6911  162.0096 H   0  0  0  0  0  0  0  0  0  0  0  0
  146.1639  133.4164  160.1575 H   0  0  0  0  0  0  0  0  0  0  0  0
  1  2  1  0  0  0  0
  1 23  1  0  0  0  0
  1 24  1  0  0  0  0
  1 25  1  0  0  0  0
  2  7  1  0  0  0  0
  2  3  1  0  0  0  0
  2 26  1  0  0  0  0
  3  4  1  0  0  0  0
  3 27  1  0  0  0  0
  3 28  1  0  0  0  0
  4  5  1  0  0  0  0
  4 29  1  0  0  0  0
  4 30  1  0  0  0  0
  5  6  1  0  0  0  0
  5 31  1  0  0  0  0
  5 32  1  0  0  0  0
  6  7  1  0  0  0  0
  6 33  1  0  0  0  0
  6 34  1  0  0  0  0
  7  8  1  0  0  0  0
  7 35  1  0  0  0  0
  8  9  1  0  0  0  0
  9 10  1  0  0  0  0
  9 36  1  0  0  0  0
  9 37  1  0  0  0  0
 10 11  1  0  0  0  0
 10 38  1  0  0  0  0
 10 39  1  0  0  0  0
 11 12  1  0  0  0  0
 11 40  1  0  0  0  0
 12 13  2  0  0  0  0
 12 14  1  0  0  0  0
 14 41  1  0  0  0  0
 14 42  1  0  0  0  0
 14 15  1  0  0  0  0
 15 16  1  0  0  0  0
 15 21  1  0  0  0  0
 16 17  1  0  0  0  0
 17 18  2  0  0  0  0
 17 19  1  0  0  0  0
 19 43  1  0  0  0  0
 19 20  2  0  0  0  0
 20 44  1  0  0  0  0
 20 21  1  0  0  0  0
 21 22  2  0  0  0  0
M  CHG  1  16  -1
M  END
> <s_m_source_file>
AV-unprocessed.smi

> <i_m_source_file_index>
670

> <i_lp_mmshare_version>
43012

> <i_f3d_flags>
0

> <s_epik_input>
W0NIM11bQ0BASF0xW0NIMl1bQ0gyXVtDSDJdW0NIMl1bQ0BIXTFPW0NIMl1bQ0gyXVtOSF1DKD1PKVtDSDJdbjJbbkhdYyg9TylbY0hdW2NIXWMyPU8=

> <s_epik_cmdline>
J2VwaWtfcHl0aG9uJywgJy1waCcsICc3LjAnLCAnLXRuJywgJzgnLCAnLW1hJywgJzIwMCcsICctbWV0YWxfYmluZGluZycsICctaW1hZScsICc8aW5maWxlLm1hZT4nLCAnLW9tYWUnLCAnPG91dGZpbGUubWFlPic=

> <r_lp_tautomer_probability>
1

> <r_epik_Ionization_Penalty>
0.0975638

> <r_epik_Ionization_Penalty_Charging>
0.0975637

> <r_epik_Ionization_Penalty_Neutral>
2.78599e-08

> <r_epik_State_Penalty>
0.0343507

> <r_epik_Charging_Adjusted_Penalty>
0.131914

> <i_epik_Tot_Q>
-1

> <i_epik_Tot_abs_Q>
1

> <r_epik_Metal_State_Penalty>
0.0343507

> <b_epik_Metal_Only>
0

> <s_lp_Force_Field>
OPLS_2005

> <r_lp_Energy>
26.6339

> <b_lp_Chiralities_Consistent>
1

> <s_lp_Variant>
AV-unprocessed.smi:670-1

> <Gold.Version>
5.8.1

> <Gold.Id.Protein>
6NUR|6NUR_protein|mol2

> <Gold.PLP.Fitness>
54.3440

> <Gold.PLP.PLP>
-41.7381

> <Gold.PLP.part.hbond>
-3.1476

> <Gold.PLP.part.metal>
0.0000

> <Gold.PLP.part.buried>
-5.3902

> <Gold.PLP.part.nonpolar>
-33.6483

> <Gold.PLP.part.repulsive>
0.1471

> <Gold.PLP.ligand.clash>
0.0000

> <Gold.PLP.ligand.torsion>
0.6831

> <Gold.PLP.Chemscore.Hbond>
4.6400

> <Gold.PLP.Chemscore.CHOScore>
0.0000

> <Gold.PLP.Chemscore.Metal>
0.0000

> <Gold.Chemscore.Hbonds>
donor molecule, donor type, donor heavy atom, donor atom, acceptor molecule, acceptor atom, score
      P1  H  6931  6943       L1    16  1.39
      P1  H  6934  6947       L1    16  1.28

> <Gold.PLP.Chemscore.Internal.Correction>
0.0521

> <Gold.Rescore>
     Score         DG    S(hbond)    S(metal)    S(lipo)     H(rot)  DE(clash)    DE(int)     intcor
     16.52     -17.30       1.77        0.00     104.02       2.45       0.01       0.76       ----

> <Gold.Chemscore.Fitness>
16.5214

> <Gold.Chemscore.DG>
-17.2970

> <Gold.Chemscore.ZeroCoef>
-5.4800

> <Gold.Chemscore.Hbond>
1.7712

> <Gold.Chemscore.Metal>
0.0000

> <Gold.Chemscore.Lipo>
104.0221

> <Gold.Chemscore.Internal_Hbond>
0.0000

> <Gold.Chemscore.DEClash>
0.0150

> <Gold.Chemscore.DEInternal>
0.7606

> <Gold.Chemscore.Rot>
2.4490

> <Gold.Chemscore.Internal.Correction>
   9.000000E+99

> <Gold.Chemscore.Hbonds>
donor molecule, donor type, donor heavy atom, donor atom, acceptor molecule, acceptor atom, score
      P1  H  6931  6943       L1    16  0.59
      P1  H  6934  6947       L1    16  0.21

> <Gold.Chemscore.Hbond.Weighted>
-5.9158

> <Gold.Chemscore.Metal.Weighted>
-0.0000

> <Gold.Chemscore.Lipo.Weighted>
-12.1706

> <Gold.Chemscore.Internal_Hbond.Weighted>
0.0000

> <Gold.Chemscore.DEClash.Weighted>
0.0150

> <Gold.Chemscore.DEInternal.Weighted>
0.7606

> <Gold.Chemscore.Rot.Weighted>
6.2694

> <Gold.Chemscore.Internal.Correction.Weighted>
   9.000000E+99

> <Gold.Protein.RotatedTorsions>
[ 6907 6896 6895 6894 ] final  -93.13 input  -60.11 | X-H torsion
[ 7974 7965 7964 7962 ] final  -58.01 input  175.53 | X-H torsion
[ 8008 7997 7996 7995 ] final   92.65 input   59.86 | X-H torsion
[ 10167 10162 10161 10158 ] final  125.88 input  -65.29 | X-H torsion
[ 10718 10713 10712 10709 ] final -142.83 input   66.30 | X-H torsion
[ 10763 10752 10751 10750 ] final   22.00 input  -60.55 | X-H torsion
[ 11005 11000 10999 10996 ] final  107.36 input  -57.11 | X-H torsion

> <Gold.Protein.ActiveResidues>
 VAL166  LYS551  ARG553  GLY616  TRP617  ASP618  TYR619  PRO620  LYS621  CYS622 
 ASP623  PHE694  ASN695  SER759  ASP760  ASP761  ALA762  ILE779  LEU786  VAL792 
 PHE793  MET794  SER795  GLU796  ALA797  LYS798  CYS799  TRP800  GLU811  SER814 

> <Gold.Protein.RotatedAtoms>
  150.6917  134.2015  159.4323 H   0  0  0  0  0  0  0  0  0  0  0  0  # atno 6907 bound_to 6896
  151.9981  134.9940  160.0573 H   0  0  0  0  0  0  0  0  0  0  0  0  # atno 6908 bound_to 6896
  152.1604  133.4543  159.4895 H   0  0  0  0  0  0  0  0  0  0  0  0  # atno 6909 bound_to 6896
  145.8443  140.8396  143.0018 H   0  0  0  0  0  0  0  0  0  0  0  0  # atno 7974 bound_to 7965
  156.0378  140.3323  155.7210 H   0  0  0  0  0  0  0  0  0  0  0  0  # atno 8008 bound_to 7997
  155.5790  140.0635  157.2805 H   0  0  0  0  0  0  0  0  0  0  0  0  # atno 8009 bound_to 7997
  154.4380  140.1847  156.0945 H   0  0  0  0  0  0  0  0  0  0  0  0  # atno 8010 bound_to 7997
  139.5661  144.6912  151.3906 H   0  0  0  0  0  0  0  0  0  0  0  0  # atno 10167 bound_to 10162
  156.3506  130.7686  151.1838 H   0  0  0  0  0  0  0  0  0  0  0  0  # atno 10718 bound_to 10713
  153.0950  135.6657  153.9781 H   0  0  0  0  0  0  0  0  0  0  0  0  # atno 10763 bound_to 10752
  153.9367  135.2998  155.3445 H   0  0  0  0  0  0  0  0  0  0  0  0  # atno 10764 bound_to 10752
  154.7368  135.5098  153.9128 H   0  0  0  0  0  0  0  0  0  0  0  0  # atno 10765 bound_to 10752
  139.8827  134.9398  156.5807 H   0  0  0  0  0  0  0  0  0  0  0  0  # atno 11005 bound_to 11000
  144.6732  140.0859  143.7467 LP  0  0  0  0  0  0  0  0  0  0  0  0  # atno 17320 bound_to 7965
  145.9430  139.2681  143.1257 LP  0  0  0  0  0  0  0  0  0  0  0  0  # atno 17321 bound_to 7965
  140.6945  143.7783  150.7305 LP  0  0  0  0  0  0  0  0  0  0  0  0  # atno 17342 bound_to 10162
  140.1275  143.4556  152.2275 LP  0  0  0  0  0  0  0  0  0  0  0  0  # atno 17343 bound_to 10162
  157.7460  131.0428  150.4715 LP  0  0  0  0  0  0  0  0  0  0  0  0  # atno 17370 bound_to 10713
  156.4910  130.4095  149.6407 LP  0  0  0  0  0  0  0  0  0  0  0  0  # atno 17371 bound_to 10713
  140.8029  133.8491  155.8742 LP  0  0  0  0  0  0  0  0  0  0  0  0  # atno 17394 bound_to 11000
  140.9576  134.1697  157.4679 LP  0  0  0  0  0  0  0  0  0  0  0  0  # atno 17395 bound_to 11000

$$$$
