AV-unprocessed.smi:160|AV-procd|sdf|1373|dock5
  -GOLD-   2262019 93D 1   1.00000     0.00000
 Structure written by MMmdl.
 28 29  0  0  0  0  0  0  0  0  2 V2000
  153.3014  139.3154  157.7049 N   0  5  0  0  0  0  0  0  0  0  0  0
  152.3189  139.0049  156.8314 C   0  0  0  0  0  0  0  0  0  0  0  0
  152.2086  137.9510  156.2057 O   0  0  0  0  0  0  0  0  0  0  0  0
  151.2823  140.0866  156.6419 C   0  0  0  0  0  0  0  0  0  0  0  0
  151.4700  141.3318  157.1765 N   0  0  0  0  0  0  0  0  0  0  0  0
  150.3503  141.9106  156.7651 C   0  0  0  0  0  0  0  0  0  0  0  0
  149.5532  141.1153  156.0464 N   0  0  0  0  0  0  0  0  0  0  0  0
  148.2215  141.4089  155.4218 C   0  0  2  0  0  0  0  0  0  0  0  0
  147.3205  140.4165  155.8150 O   0  0  0  0  0  0  0  0  0  0  0  0
  147.1077  139.5053  154.7415 C   0  0  1  0  0  0  0  0  0  0  0  0
  145.7710  138.7729  154.9368 C   0  0  0  0  0  0  0  0  0  0  0  0
  144.6984  139.6858  154.8471 O   0  0  0  0  0  0  0  0  0  0  0  0
  147.1173  140.4509  153.5390 C   0  0  2  0  0  0  0  0  0  0  0  0
  147.2913  139.7781  152.3057 O   0  0  0  0  0  0  0  0  0  0  0  0
  148.2486  141.4218  153.8738 C   0  0  2  0  0  0  0  0  0  0  0  0
  149.4898  141.0342  153.3035 O   0  0  0  0  0  0  0  0  0  0  0  0
  150.1488  139.8996  155.9586 N   0  0  0  0  0  0  0  0  0  0  0  0
  147.9257  142.3653  155.8545 H   0  0  0  0  0  0  0  0  0  0  0  0
  147.9398  138.8020  154.6701 H   0  0  0  0  0  0  0  0  0  0  0  0
  146.1768  141.0030  153.5068 H   0  0  0  0  0  0  0  0  0  0  0  0
  148.0141  142.4265  153.5210 H   0  0  0  0  0  0  0  0  0  0  0  0
  153.7980  138.5489  158.1746 H   0  0  0  0  0  0  0  0  0  0  0  0
  150.1070  142.9383  156.9906 H   0  0  0  0  0  0  0  0  0  0  0  0
  145.6482  137.9693  154.2101 H   0  0  0  0  0  0  0  0  0  0  0  0
  145.7325  138.3216  155.9284 H   0  0  0  0  0  0  0  0  0  0  0  0
  144.3516  139.6583  153.9688 H   0  0  0  0  0  0  0  0  0  0  0  0
  148.0280  140.1631  151.8563 H   0  0  0  0  0  0  0  0  0  0  0  0
  149.3267  140.3926  152.6293 H   0  0  0  0  0  0  0  0  0  0  0  0
  1  2  1  0  0  0  0
  1 22  1  0  0  0  0
  2  3  2  0  0  0  0
  2  4  1  0  0  0  0
  4 17  2  0  0  0  0
  4  5  1  0  0  0  0
  5  6  2  0  0  0  0
  6  7  1  0  0  0  0
  6 23  1  0  0  0  0
  7  8  1  0  0  0  0
  7 17  1  0  0  0  0
  8 18  1  0  0  0  0
  8 15  1  0  0  0  0
  8  9  1  0  0  0  0
  9 10  1  0  0  0  0
 10 19  1  0  0  0  0
 10 11  1  0  0  0  0
 10 13  1  0  0  0  0
 11 12  1  0  0  0  0
 11 24  1  0  0  0  0
 11 25  1  0  0  0  0
 12 26  1  0  0  0  0
 13 20  1  0  0  0  0
 13 14  1  0  0  0  0
 13 15  1  0  0  0  0
 14 27  1  0  0  0  0
 15 21  1  0  0  0  0
 15 16  1  0  0  0  0
 16 28  1  0  0  0  0
M  CHG  1   1  -1
M  END
> <s_m_source_file>
AV-unprocessed.smi

> <i_m_source_file_index>
160

> <i_lp_mmshare_version>
43012

> <i_f3d_flags>
0

> <s_epik_input>
W05IMl1DKD1PKWMxbltjSF1uKG4xKVtDQEBIXTJPW0NASF0oW0NIMl1bT0hdKVtDQEBIXShbT0hdKVtDQEhdMltPSF0=

> <s_epik_cmdline>
J2VwaWtfcHl0aG9uJywgJy1waCcsICc3LjAnLCAnLXRuJywgJzgnLCAnLW1hJywgJzIwMCcsICctbWV0YWxfYmluZGluZycsICctaW1hZScsICc8aW5maWxlLm1hZT4nLCAnLW9tYWUnLCAnPG91dGZpbGUubWFlPic=

> <r_lp_tautomer_probability>
1

> <r_epik_Ionization_Penalty>
6.6993

> <r_epik_Ionization_Penalty_Charging>
6.6993

> <r_epik_Ionization_Penalty_Neutral>
6.01698e-06

> <r_epik_State_Penalty>
6.69929

> <r_epik_Charging_Adjusted_Penalty>
13.3986

> <i_epik_Tot_Q>
-1

> <i_epik_Tot_abs_Q>
1

> <r_epik_Metal_State_Penalty>
2.62798

> <b_epik_Metal_Only>
1

> <s_epik_Chemistry_Notes>
This compound contains an acetal/aminal-like group ( X-CH(R)-Y where X, Y are N, S, or O) that may be acid/base labile, releasing an aldehyde.

> <s_lp_Force_Field>
OPLS_2005

> <r_lp_Energy>
50.1619

> <b_lp_Chiralities_Consistent>
1

> <s_lp_Variant>
AV-unprocessed.smi:160-31

> <Gold.Version>
5.8.1

> <Gold.Id.Protein>
6NUR|6NUR_protein|mol2

> <Gold.PLP.Fitness>
43.1958

> <Gold.PLP.PLP>
-22.5853

> <Gold.PLP.part.hbond>
-5.4020

> <Gold.PLP.part.metal>
0.0000

> <Gold.PLP.part.buried>
-3.4453

> <Gold.PLP.part.nonpolar>
-13.6174

> <Gold.PLP.part.repulsive>
0.0497

> <Gold.PLP.ligand.clash>
0.0000

> <Gold.PLP.ligand.torsion>
0.2218

> <Gold.PLP.Chemscore.Hbond>
6.0124

> <Gold.PLP.Chemscore.CHOScore>
1.0000

> <Gold.PLP.Chemscore.Metal>
0.0000

> <Gold.Chemscore.Hbonds>
donor molecule, donor type, donor heavy atom, donor atom, acceptor molecule, acceptor atom, score
      L1  H    12    26       P1 10175  1.00
      L1  H    14    27       P1  7957  1.00
      L1  H    16    28       P1  7957  0.86
      P1  H  7989  7998       L1    16  0.14
      P1  H  7997  8010       L1     1  1.90
      P1  H  8011  8017       L1    16  1.00
      L1  C     6    23       P1  8028  1.00

> <Gold.PLP.Chemscore.Internal.Correction>
0.0167

> <Gold.Rescore>
     Score         DG    S(hbond)    S(metal)    S(lipo)     H(rot)  DE(clash)    DE(int)     intcor
     11.77     -13.23       4.79        0.00      17.94       4.04       0.00       1.46       ----

> <Gold.Chemscore.Fitness>
11.7673

> <Gold.Chemscore.DG>
-13.2333

> <Gold.Chemscore.ZeroCoef>
-5.4800

> <Gold.Chemscore.Hbond>
4.7896

> <Gold.Chemscore.Metal>
0.0000

> <Gold.Chemscore.Lipo>
17.9423

> <Gold.Chemscore.Internal_Hbond>
0.0000

> <Gold.Chemscore.DEClash>
0.0029

> <Gold.Chemscore.DEInternal>
1.4631

> <Gold.Chemscore.Rot>
4.0403

> <Gold.Chemscore.Internal.Correction>
   9.000000E+99

> <Gold.Chemscore.Hbonds>
donor molecule, donor type, donor heavy atom, donor atom, acceptor molecule, acceptor atom, score
      L1  H    12    26       P1 10175  0.96
      L1  H    14    27       P1  7957  0.95
      L1  H    16    28       P1  7957  0.79
      P1  H  7989  7998       L1    16  0.04
      P1  H  7997  8010       L1     1  0.13
      P1  H  8011  8017       L1    16  0.06

> <Gold.Chemscore.Hbond.Weighted>
-15.9971

> <Gold.Chemscore.Metal.Weighted>
-0.0000

> <Gold.Chemscore.Lipo.Weighted>
-2.0992

> <Gold.Chemscore.Internal_Hbond.Weighted>
0.0000

> <Gold.Chemscore.DEClash.Weighted>
0.0029

> <Gold.Chemscore.DEInternal.Weighted>
1.4631

> <Gold.Chemscore.Rot.Weighted>
10.3431

> <Gold.Chemscore.Internal.Correction.Weighted>
   9.000000E+99

> <Gold.Protein.RotatedTorsions>
[ 6907 6896 6895 6894 ] final  179.18 input  -60.11 | X-H torsion
[ 7974 7965 7964 7962 ] final -164.72 input  175.53 | X-H torsion
[ 8008 7997 7996 7995 ] final   61.75 input   59.86 | X-H torsion
[ 10167 10162 10161 10158 ] final -116.85 input  -65.29 | X-H torsion
[ 10718 10713 10712 10709 ] final   83.64 input   66.30 | X-H torsion
[ 10763 10752 10751 10750 ] final -158.75 input  -60.55 | X-H torsion
[ 11005 11000 10999 10996 ] final   22.74 input  -57.11 | X-H torsion

> <Gold.Protein.ActiveResidues>
 VAL166  LYS551  ARG553  GLY616  TRP617  ASP618  TYR619  PRO620  LYS621  CYS622 
 ASP623  PHE694  ASN695  SER759  ASP760  ASP761  ALA762  ILE779  LEU786  VAL792 
 PHE793  MET794  SER795  GLU796  ALA797  LYS798  CYS799  TRP800  GLU811  SER814 

> <Gold.Protein.RotatedAtoms>
  151.6757  133.3313  159.3207 H   0  0  0  0  0  0  0  0  0  0  0  0  # atno 6907 bound_to 6896
  150.7846  134.6824  159.6460 H   0  0  0  0  0  0  0  0  0  0  0  0  # atno 6908 bound_to 6896
  152.3913  134.6441  160.0158 H   0  0  0  0  0  0  0  0  0  0  0  0  # atno 6909 bound_to 6896
  144.7289  140.2920  143.6219 H   0  0  0  0  0  0  0  0  0  0  0  0  # atno 7974 bound_to 7965
  155.6034  140.3494  155.4600 H   0  0  0  0  0  0  0  0  0  0  0  0  # atno 8008 bound_to 7997
  156.0211  140.1254  157.0381 H   0  0  0  0  0  0  0  0  0  0  0  0  # atno 8009 bound_to 7997
  154.4315  140.1062  156.5950 H   0  0  0  0  0  0  0  0  0  0  0  0  # atno 8010 bound_to 7997
  140.0747  143.4844  152.1960 H   0  0  0  0  0  0  0  0  0  0  0  0  # atno 10167 bound_to 10162
  157.6883  131.0099  150.2553 H   0  0  0  0  0  0  0  0  0  0  0  0  # atno 10718 bound_to 10713
  154.7531  135.3097  154.8520 H   0  0  0  0  0  0  0  0  0  0  0  0  # atno 10763 bound_to 10752
  153.9301  135.6786  153.4750 H   0  0  0  0  0  0  0  0  0  0  0  0  # atno 10764 bound_to 10752
  153.1128  135.4858  154.8993 H   0  0  0  0  0  0  0  0  0  0  0  0  # atno 10765 bound_to 10752
  140.3772  134.1959  155.7664 H   0  0  0  0  0  0  0  0  0  0  0  0  # atno 11005 bound_to 11000
  145.7846  139.1904  143.2138 LP  0  0  0  0  0  0  0  0  0  0  0  0  # atno 17320 bound_to 7965
  146.0806  140.7768  142.9643 LP  0  0  0  0  0  0  0  0  0  0  0  0  # atno 17321 bound_to 7965
  139.5815  144.7512  151.3628 LP  0  0  0  0  0  0  0  0  0  0  0  0  # atno 17342 bound_to 10162
  140.7108  143.7396  150.7563 LP  0  0  0  0  0  0  0  0  0  0  0  0  # atno 17343 bound_to 10162
  156.3142  130.3776  149.7633 LP  0  0  0  0  0  0  0  0  0  0  0  0  # atno 17370 bound_to 10713
  156.5224  130.8221  151.3208 LP  0  0  0  0  0  0  0  0  0  0  0  0  # atno 17371 bound_to 10713
  141.1935  133.8149  157.0795 LP  0  0  0  0  0  0  0  0  0  0  0  0  # atno 17394 bound_to 11000
  140.0506  134.9807  157.1129 LP  0  0  0  0  0  0  0  0  0  0  0  0  # atno 17395 bound_to 11000

$$$$
