AV-unprocessed.smi:2753|AV-procd|sdf|10612|dock1
  -GOLD-   2272015 63D 1   1.00000     0.00000
 Structure written by MMmdl.
 28 29  0  0  0  0  0  0  0  0  2 V2000
  152.8208  143.5626  159.7086 F   0  0  0  0  0  0  0  0  0  0  0  0
  151.8892  143.8656  158.8053 C   0  0  0  0  0  0  0  0  0  0  0  0
  150.9400  144.5649  159.4259 F   0  0  0  0  0  0  0  0  0  0  0  0
  152.4518  144.6649  157.8997 F   0  0  0  0  0  0  0  0  0  0  0  0
  151.3249  142.6394  158.1668 C   0  0  0  0  0  0  0  0  0  0  0  0
  151.6560  141.3089  158.2934 C   0  0  0  0  0  0  0  0  0  0  0  0
  150.8234  140.5352  157.4826 N   0  0  0  0  0  0  0  0  0  0  0  0
  150.0158  141.4104  156.8896 C   0  0  0  0  0  0  0  0  0  0  0  0
  148.9321  141.0692  155.9138 C   0  0  1  0  0  0  0  0  0  0  0  0
  147.9734  142.2523  155.6786 C   0  0  0  0  0  0  0  0  0  0  0  0
  146.8895  141.8741  154.6572 C   0  0  0  0  0  0  0  0  0  0  0  0
  147.5197  141.3550  153.3544 C   0  0  0  0  0  0  0  0  0  0  0  0
  148.4207  140.2146  153.6288 N   0  3  0  0  0  0  0  0  0  0  0  0
  149.5047  140.5505  154.5783 C   0  0  0  0  0  0  0  0  0  0  0  0
  150.2765  142.6691  157.2628 N   0  0  0  0  0  0  0  0  0  0  0  0
  149.7966  143.4981  156.9422 H   0  0  0  0  0  0  0  0  0  0  0  0
  152.4221  140.8508  158.9017 H   0  0  0  0  0  0  0  0  0  0  0  0
  148.3475  140.2593  156.3541 H   0  0  0  0  0  0  0  0  0  0  0  0
  147.5101  142.5565  156.6180 H   0  0  0  0  0  0  0  0  0  0  0  0
  148.5302  143.1159  155.3121 H   0  0  0  0  0  0  0  0  0  0  0  0
  146.2371  141.1091  155.0803 H   0  0  0  0  0  0  0  0  0  0  0  0
  146.2576  142.7378  154.4479 H   0  0  0  0  0  0  0  0  0  0  0  0
  146.7434  141.0369  152.6579 H   0  0  0  0  0  0  0  0  0  0  0  0
  148.0838  142.1487  152.8629 H   0  0  0  0  0  0  0  0  0  0  0  0
  147.8741  139.4591  154.0169 H   0  0  0  0  0  0  0  0  0  0  0  0
  150.1534  141.2997  154.1223 H   0  0  0  0  0  0  0  0  0  0  0  0
  150.1135  139.6613  154.7451 H   0  0  0  0  0  0  0  0  0  0  0  0
  148.8318  139.9058  152.7592 H   0  0  0  0  0  0  0  0  0  0  0  0
  1  2  1  0  0  0  0
  2  3  1  0  0  0  0
  2  4  1  0  0  0  0
  2  5  1  0  0  0  0
  5  6  2  0  0  0  0
  5 15  1  0  0  0  0
  6 17  1  0  0  0  0
  6  7  1  0  0  0  0
  7  8  2  0  0  0  0
  8 15  1  0  0  0  0
  8  9  1  0  0  0  0
  9 14  1  0  0  0  0
  9 10  1  0  0  0  0
  9 18  1  0  0  0  0
 10 11  1  0  0  0  0
 10 19  1  0  0  0  0
 10 20  1  0  0  0  0
 11 12  1  0  0  0  0
 11 21  1  0  0  0  0
 11 22  1  0  0  0  0
 12 13  1  0  0  0  0
 12 23  1  0  0  0  0
 12 24  1  0  0  0  0
 13 14  1  0  0  0  0
 13 25  1  0  0  0  0
 13 28  1  0  0  0  0
 14 26  1  0  0  0  0
 14 27  1  0  0  0  0
 15 16  1  0  0  0  0
M  CHG  1  13   1
M  END
> <s_m_source_file>
AV-unprocessed.smi

> <i_m_source_file_index>
2753

> <i_lp_mmshare_version>
43012

> <i_f3d_flags>
0

> <s_epik_input>
RkMoRikoRiljMVtjSF1bbkhdYyhuMSlbQ0BASF0yW0NIMl1bQ0gyXVtDSDJdW05IXVtDSDJdMg==

> <s_epik_cmdline>
J2VwaWtfcHl0aG9uJywgJy1waCcsICc3LjAnLCAnLXRuJywgJzgnLCAnLW1hJywgJzIwMCcsICctbWV0YWxfYmluZGluZycsICctaW1hZScsICc8aW5maWxlLm1hZT4nLCAnLW9tYWUnLCAnPG91dGZpbGUubWFlPic=

> <r_lp_tautomer_probability>
0.5

> <r_epik_Ionization_Penalty>
0.0187699

> <r_epik_Ionization_Penalty_Charging>
0.00116734

> <r_epik_Ionization_Penalty_Neutral>
0.0176026

> <r_epik_State_Penalty>
1.08926

> <r_epik_Charging_Adjusted_Penalty>
1.09042

> <i_epik_Tot_Q>
1

> <i_epik_Tot_abs_Q>
1

> <r_epik_Metal_State_Penalty>
1.1514

> <b_epik_Metal_Only>
0

> <s_lp_Force_Field>
OPLS_2005

> <r_lp_Energy>
13.0643

> <b_lp_Chiralities_Consistent>
1

> <s_lp_Variant>
AV-unprocessed.smi:2753-4

> <Gold.Version>
5.8.1

> <Gold.Id.Protein>
6NUR|6NUR_protein|mol2

> <Gold.PLP.Fitness>
37.3618

> <Gold.PLP.PLP>
-31.9234

> <Gold.PLP.part.hbond>
-2.0000

> <Gold.PLP.part.metal>
0.0000

> <Gold.PLP.part.buried>
-2.3417

> <Gold.PLP.part.nonpolar>
-28.1236

> <Gold.PLP.part.repulsive>
0.1266

> <Gold.PLP.ligand.clash>
0.0000

> <Gold.PLP.ligand.torsion>
0.2951

> <Gold.PLP.Chemscore.Hbond>
2.0000

> <Gold.PLP.Chemscore.CHOScore>
0.0000

> <Gold.PLP.Chemscore.Metal>
0.0000

> <Gold.Chemscore.Hbonds>
donor molecule, donor type, donor heavy atom, donor atom, acceptor molecule, acceptor atom, score
      L1  H    13    28       P1  7957  1.00
      L1  H    15    16       P1  8028  1.00

> <Gold.PLP.Chemscore.Internal.Correction>
0.0286

> <Gold.Rescore>
     Score         DG    S(hbond)    S(metal)    S(lipo)     H(rot)  DE(clash)    DE(int)     intcor
     15.26     -15.94       1.94        0.00      55.85       1.00       0.32       0.36       ----

> <Gold.Chemscore.Fitness>
15.2634

> <Gold.Chemscore.DG>
-15.9380

> <Gold.Chemscore.ZeroCoef>
-5.4800

> <Gold.Chemscore.Hbond>
1.9413

> <Gold.Chemscore.Metal>
0.0000

> <Gold.Chemscore.Lipo>
55.8460

> <Gold.Chemscore.Internal_Hbond>
0.0000

> <Gold.Chemscore.DEClash>
0.3184

> <Gold.Chemscore.DEInternal>
0.3562

> <Gold.Chemscore.Rot>
1.0000

> <Gold.Chemscore.Internal.Correction>
   9.000000E+99

> <Gold.Chemscore.Hbonds>
donor molecule, donor type, donor heavy atom, donor atom, acceptor molecule, acceptor atom, score
      L1  H    13    28       P1  7957  0.99
      L1  H    15    16       P1  8028  0.96

> <Gold.Chemscore.Hbond.Weighted>
-6.4840

> <Gold.Chemscore.Metal.Weighted>
-0.0000

> <Gold.Chemscore.Lipo.Weighted>
-6.5340

> <Gold.Chemscore.Internal_Hbond.Weighted>
0.0000

> <Gold.Chemscore.DEClash.Weighted>
0.3184

> <Gold.Chemscore.DEInternal.Weighted>
0.3562

> <Gold.Chemscore.Rot.Weighted>
2.5600

> <Gold.Chemscore.Internal.Correction.Weighted>
   9.000000E+99

> <Gold.Protein.RotatedTorsions>
[ 6907 6896 6895 6894 ] final  -58.51 input  -60.11 | X-H torsion
[ 7974 7965 7964 7962 ] final  138.29 input  175.53 | X-H torsion
[ 8008 7997 7996 7995 ] final  122.77 input   59.86 | X-H torsion
[ 10167 10162 10161 10158 ] final  108.79 input  -65.29 | X-H torsion
[ 10718 10713 10712 10709 ] final  -92.45 input   66.30 | X-H torsion
[ 10763 10752 10751 10750 ] final  -16.90 input  -60.55 | X-H torsion
[ 11005 11000 10999 10996 ] final  -49.98 input  -57.11 | X-H torsion

> <Gold.Protein.ActiveResidues>
 VAL166  LYS551  ARG553  GLY616  TRP617  ASP618  TYR619  PRO620  LYS621  CYS622 
 ASP623  PHE694  ASN695  SER759  ASP760  ASP761  ALA762  ILE779  LEU786  VAL792 
 PHE793  MET794  SER795  GLU796  ALA797  LYS798  CYS799  TRP800  GLU811  SER814 

> <Gold.Protein.RotatedAtoms>
  150.8001  134.7089  159.6592 H   0  0  0  0  0  0  0  0  0  0  0  0  # atno 6907 bound_to 6896
  152.4117  134.6109  160.0035 H   0  0  0  0  0  0  0  0  0  0  0  0  # atno 6908 bound_to 6896
  151.6350  133.3292  159.3153 H   0  0  0  0  0  0  0  0  0  0  0  0  # atno 6909 bound_to 6896
  144.9386  139.4958  143.5583 H   0  0  0  0  0  0  0  0  0  0  0  0  # atno 7974 bound_to 7965
  156.2740  140.2778  156.1521 H   0  0  0  0  0  0  0  0  0  0  0  0  # atno 8008 bound_to 7997
  155.0842  140.0388  157.2666 H   0  0  0  0  0  0  0  0  0  0  0  0  # atno 8009 bound_to 7997
  154.6940  140.2635  155.6790 H   0  0  0  0  0  0  0  0  0  0  0  0  # atno 8010 bound_to 7997
  139.6818  144.7117  151.1502 H   0  0  0  0  0  0  0  0  0  0  0  0  # atno 10167 bound_to 10162
  156.0002  130.4987  150.5627 H   0  0  0  0  0  0  0  0  0  0  0  0  # atno 10718 bound_to 10713
  153.5656  135.7009  153.5528 H   0  0  0  0  0  0  0  0  0  0  0  0  # atno 10763 bound_to 10752
  153.3390  135.4026  155.1557 H   0  0  0  0  0  0  0  0  0  0  0  0  # atno 10764 bound_to 10752
  154.8641  135.3737  154.5175 H   0  0  0  0  0  0  0  0  0  0  0  0  # atno 10765 bound_to 10752
  141.0790  133.6658  156.3664 H   0  0  0  0  0  0  0  0  0  0  0  0  # atno 11005 bound_to 11000
  146.3277  139.8389  142.8894 LP  0  0  0  0  0  0  0  0  0  0  0  0  # atno 17320 bound_to 7965
  145.3026  141.0198  143.3600 LP  0  0  0  0  0  0  0  0  0  0  0  0  # atno 17321 bound_to 7965
  140.7655  143.5688  150.9018 LP  0  0  0  0  0  0  0  0  0  0  0  0  # atno 17342 bound_to 10162
  139.9360  143.6437  152.3065 LP  0  0  0  0  0  0  0  0  0  0  0  0  # atno 17343 bound_to 10162
  157.3534  131.0737  151.1695 LP  0  0  0  0  0  0  0  0  0  0  0  0  # atno 17370 bound_to 10713
  157.2503  130.6611  149.5928 LP  0  0  0  0  0  0  0  0  0  0  0  0  # atno 17371 bound_to 10713
  140.5510  134.6027  157.5408 LP  0  0  0  0  0  0  0  0  0  0  0  0  # atno 17394 bound_to 11000
  139.9603  134.7464  156.0252 LP  0  0  0  0  0  0  0  0  0  0  0  0  # atno 17395 bound_to 11000

$$$$
