AV-unprocessed.smi:2363|AV-procd|sdf|9415|dock1
  -GOLD-   2272013 53D 1   1.00000     0.00000
 Structure written by MMmdl.
 44 45  0  0  0  0  0  0  0  0  1 V2000
  148.5782  131.6580  153.5104 C   0  0  0  0  0  0  0  0  0  0  0  0
  147.2163  132.2397  153.1173 C   0  0  0  0  0  0  0  0  0  0  0  0
  147.3277  133.3016  152.0136 C   0  0  0  0  0  0  0  0  0  0  0  0
  146.0361  133.8895  151.7040 N   0  0  0  0  0  0  0  0  0  0  0  0
  145.0390  133.1085  151.2329 N   0  0  0  0  0  0  0  0  0  0  0  0
  144.0151  133.9318  151.0484 C   0  0  0  0  0  0  0  0  0  0  0  0
  144.3154  135.2813  151.3901 C   0  0  0  0  0  0  0  0  0  0  0  0
  145.6181  135.2001  151.8008 C   0  0  0  0  0  0  0  0  0  0  0  0
  146.4393  136.1934  152.2344 N   0  0  0  0  0  0  0  0  0  0  0  0
  146.1119  137.3678  152.8011 C   0  0  0  0  0  0  0  0  0  0  0  0
  144.9680  137.7431  153.0579 O   0  0  0  0  0  0  0  0  0  0  0  0
  147.2061  138.0976  153.0627 N   0  0  0  0  0  0  0  0  0  0  0  0
  147.2199  139.4167  153.6944 C   0  0  2  0  0  0  0  0  0  0  0  0
  147.1397  140.4969  152.5987 C   0  0  0  0  0  0  0  0  0  0  0  0
  148.4695  139.5555  154.6034 C   0  0  0  0  0  0  0  0  0  0  0  0
  148.9007  141.0264  154.7890 C   0  0  0  0  0  0  0  0  0  0  0  0
  150.1797  141.1318  155.6346 C   0  0  0  0  0  0  0  0  0  0  0  0
  151.2240  140.3765  155.0338 O   0  0  0  0  0  0  0  0  0  0  0  0
  150.9223  138.9890  154.9577 C   0  0  0  0  0  0  0  0  0  0  0  0
  149.6838  138.7654  154.0748 C   0  0  0  0  0  0  0  0  0  0  0  0
  148.4690  130.9063  154.2925 H   0  0  0  0  0  0  0  0  0  0  0  0
  149.2430  132.4354  153.8877 H   0  0  0  0  0  0  0  0  0  0  0  0
  149.0654  131.1840  152.6581 H   0  0  0  0  0  0  0  0  0  0  0  0
  146.5631  131.4320  152.7846 H   0  0  0  0  0  0  0  0  0  0  0  0
  146.7443  132.6753  153.9989 H   0  0  0  0  0  0  0  0  0  0  0  0
  148.0122  134.0949  152.3184 H   0  0  0  0  0  0  0  0  0  0  0  0
  147.7399  132.8651  151.1031 H   0  0  0  0  0  0  0  0  0  0  0  0
  143.0878  133.5275  150.6702 H   0  0  0  0  0  0  0  0  0  0  0  0
  143.6713  136.1455  151.3314 H   0  0  0  0  0  0  0  0  0  0  0  0
  147.4255  136.0224  152.1046 H   0  0  0  0  0  0  0  0  0  0  0  0
  148.1039  137.7074  152.8161 H   0  0  0  0  0  0  0  0  0  0  0  0
  146.3353  139.5089  154.3279 H   0  0  0  0  0  0  0  0  0  0  0  0
  147.0240  141.4943  153.0214 H   0  0  0  0  0  0  0  0  0  0  0  0
  146.2811  140.3338  151.9465 H   0  0  0  0  0  0  0  0  0  0  0  0
  148.0338  140.4977  151.9744 H   0  0  0  0  0  0  0  0  0  0  0  0
  148.2172  139.1571  155.5877 H   0  0  0  0  0  0  0  0  0  0  0  0
  149.0746  141.4848  153.8146 H   0  0  0  0  0  0  0  0  0  0  0  0
  148.1121  141.6070  155.2681 H   0  0  0  0  0  0  0  0  0  0  0  0
  150.4959  142.1727  155.7052 H   0  0  0  0  0  0  0  0  0  0  0  0
  150.0031  140.7839  156.6535 H   0  0  0  0  0  0  0  0  0  0  0  0
  151.7809  138.4658  154.5365 H   0  0  0  0  0  0  0  0  0  0  0  0
  150.7642  138.5845  155.9588 H   0  0  0  0  0  0  0  0  0  0  0  0
  149.4681  137.6979  154.0425 H   0  0  0  0  0  0  0  0  0  0  0  0
  149.9081  139.0711  153.0521 H   0  0  0  0  0  0  0  0  0  0  0  0
  1  2  1  0  0  0  0
  1 21  1  0  0  0  0
  1 22  1  0  0  0  0
  1 23  1  0  0  0  0
  2  3  1  0  0  0  0
  2 24  1  0  0  0  0
  2 25  1  0  0  0  0
  3  4  1  0  0  0  0
  3 26  1  0  0  0  0
  3 27  1  0  0  0  0
  4  8  1  0  0  0  0
  4  5  1  0  0  0  0
  5  6  2  0  0  0  0
  6  7  1  0  0  0  0
  6 28  1  0  0  0  0
  7  8  2  0  0  0  0
  7 29  1  0  0  0  0
  8  9  1  0  0  0  0
  9 10  1  0  0  0  0
  9 30  1  0  0  0  0
 10 11  2  0  0  0  0
 10 12  1  0  0  0  0
 12 13  1  0  0  0  0
 12 31  1  0  0  0  0
 13 14  1  0  0  0  0
 13 15  1  0  0  0  0
 13 32  1  0  0  0  0
 14 33  1  0  0  0  0
 14 34  1  0  0  0  0
 14 35  1  0  0  0  0
 15 20  1  0  0  0  0
 15 16  1  0  0  0  0
 15 36  1  0  0  0  0
 16 17  1  0  0  0  0
 16 37  1  0  0  0  0
 16 38  1  0  0  0  0
 17 18  1  0  0  0  0
 17 39  1  0  0  0  0
 17 40  1  0  0  0  0
 18 19  1  0  0  0  0
 19 20  1  0  0  0  0
 19 41  1  0  0  0  0
 19 42  1  0  0  0  0
 20 43  1  0  0  0  0
 20 44  1  0  0  0  0
M  END
> <s_m_source_file>
AV-unprocessed.smi

> <i_m_source_file_index>
2363

> <i_lp_mmshare_version>
43012

> <i_f3d_flags>
0

> <s_epik_input>
W0NIM11bQ0gyXVtDSDJdbjFuW2NIXVtjSF1jMVtOSF1DKD1PKVtOSF1bQ0BIXShbQ0gzXSlbQ0hdMltDSDJdW0NIMl1PW0NIMl1bQ0gyXTI=

> <s_epik_cmdline>
J2VwaWtfcHl0aG9uJywgJy1waCcsICc3LjAnLCAnLXRuJywgJzgnLCAnLW1hJywgJzIwMCcsICctbWV0YWxfYmluZGluZycsICctaW1hZScsICc8aW5maWxlLm1hZT4nLCAnLW9tYWUnLCAnPG91dGZpbGUubWFlPic=

> <r_lp_tautomer_probability>
1

> <r_epik_Ionization_Penalty>
3.26671e-05

> <r_epik_Ionization_Penalty_Charging>
0

> <r_epik_Ionization_Penalty_Neutral>
3.26671e-05

> <r_epik_State_Penalty>
-0

> <r_epik_Charging_Adjusted_Penalty>
0

> <i_epik_Tot_Q>
0

> <i_epik_Tot_abs_Q>
0

> <r_epik_Metal_State_Penalty>
-0

> <b_epik_Metal_Only>
0

> <s_lp_Force_Field>
OPLS_2005

> <r_lp_Energy>
15.2489

> <b_lp_Chiralities_Consistent>
1

> <s_lp_Variant>
AV-unprocessed.smi:2363-1

> <Gold.Version>
5.8.1

> <Gold.Id.Protein>
6NUR|6NUR_protein|mol2

> <Gold.PLP.Fitness>
43.4421

> <Gold.PLP.PLP>
-33.8550

> <Gold.PLP.part.hbond>
-2.9742

> <Gold.PLP.part.metal>
0.0000

> <Gold.PLP.part.buried>
-2.2988

> <Gold.PLP.part.nonpolar>
-29.2322

> <Gold.PLP.part.repulsive>
0.8500

> <Gold.PLP.ligand.clash>
0.0000

> <Gold.PLP.ligand.torsion>
1.1667

> <Gold.PLP.Chemscore.Hbond>
2.8800

> <Gold.PLP.Chemscore.CHOScore>
1.0000

> <Gold.PLP.Chemscore.Metal>
0.0000

> <Gold.Chemscore.Hbonds>
donor molecule, donor type, donor heavy atom, donor atom, acceptor molecule, acceptor atom, score
      L1  H     9    30       P1  7948  1.00
      L1  H    12    31       P1  7948  0.86
      P1  H  7989  7998       L1    18  1.00
      L1  C     6    28       P1 10186  1.00

> <Gold.PLP.Chemscore.Internal.Correction>
0.2806

> <Gold.Rescore>
     Score         DG    S(hbond)    S(metal)    S(lipo)     H(rot)  DE(clash)    DE(int)     intcor
     17.26     -19.54       2.73        0.00      75.34       1.52       0.23       2.06       ----

> <Gold.Chemscore.Fitness>
17.2589

> <Gold.Chemscore.DG>
-19.5402

> <Gold.Chemscore.ZeroCoef>
-5.4800

> <Gold.Chemscore.Hbond>
2.7335

> <Gold.Chemscore.Metal>
0.0000

> <Gold.Chemscore.Lipo>
75.3450

> <Gold.Chemscore.Internal_Hbond>
0.0000

> <Gold.Chemscore.DEClash>
0.2263

> <Gold.Chemscore.DEInternal>
2.0551

> <Gold.Chemscore.Rot>
1.5176

> <Gold.Chemscore.Internal.Correction>
   9.000000E+99

> <Gold.Chemscore.Hbonds>
donor molecule, donor type, donor heavy atom, donor atom, acceptor molecule, acceptor atom, score
      L1  H     9    30       P1  7948  0.94
      L1  H    12    31       P1  7948  0.86
      P1  H  7989  7998       L1    18  0.55

> <Gold.Chemscore.Hbond.Weighted>
-9.1299

> <Gold.Chemscore.Metal.Weighted>
-0.0000

> <Gold.Chemscore.Lipo.Weighted>
-8.8154

> <Gold.Chemscore.Internal_Hbond.Weighted>
0.0000

> <Gold.Chemscore.DEClash.Weighted>
0.2263

> <Gold.Chemscore.DEInternal.Weighted>
2.0551

> <Gold.Chemscore.Rot.Weighted>
3.8851

> <Gold.Chemscore.Internal.Correction.Weighted>
   9.000000E+99

> <Gold.Protein.RotatedTorsions>
[ 6907 6896 6895 6894 ] final  174.03 input  -60.11 | X-H torsion
[ 7974 7965 7964 7962 ] final  -13.05 input  175.53 | X-H torsion
[ 8008 7997 7996 7995 ] final   47.62 input   59.86 | X-H torsion
[ 10167 10162 10161 10158 ] final -131.72 input  -65.29 | X-H torsion
[ 10718 10713 10712 10709 ] final   40.54 input   66.30 | X-H torsion
[ 10763 10752 10751 10750 ] final  -80.46 input  -60.55 | X-H torsion
[ 11005 11000 10999 10996 ] final -109.92 input  -57.11 | X-H torsion

> <Gold.Protein.ActiveResidues>
 VAL166  LYS551  ARG553  GLY616  TRP617  ASP618  TYR619  PRO620  LYS621  CYS622 
 ASP623  PHE694  ASN695  SER759  ASP760  ASP761  ALA762  ILE779  LEU786  VAL792 
 PHE793  MET794  SER795  GLU796  ALA797  LYS798  CYS799  TRP800  GLU811  SER814 

> <Gold.Protein.RotatedAtoms>
  151.7589  133.3332  159.3411 H   0  0  0  0  0  0  0  0  0  0  0  0  # atno 6907 bound_to 6896
  150.7506  134.6124  159.6102 H   0  0  0  0  0  0  0  0  0  0  0  0  # atno 6908 bound_to 6896
  152.3419  134.7125  160.0313 H   0  0  0  0  0  0  0  0  0  0  0  0  # atno 6909 bound_to 6896
  146.2129  140.3147  142.8385 H   0  0  0  0  0  0  0  0  0  0  0  0  # atno 7974 bound_to 7965
  155.3721  140.3424  155.4243 H   0  0  0  0  0  0  0  0  0  0  0  0  # atno 8008 bound_to 7997
  156.1657  140.1615  156.8570 H   0  0  0  0  0  0  0  0  0  0  0  0  # atno 8009 bound_to 7997
  154.5182  140.0773  156.8104 H   0  0  0  0  0  0  0  0  0  0  0  0  # atno 8010 bound_to 7997
  139.9160  143.6438  152.2565 H   0  0  0  0  0  0  0  0  0  0  0  0  # atno 10167 bound_to 10162
  157.3833  130.7766  149.7210 H   0  0  0  0  0  0  0  0  0  0  0  0  # atno 10718 bound_to 10713
  154.5515  135.5660  153.6926 H   0  0  0  0  0  0  0  0  0  0  0  0  # atno 10763 bound_to 10752
  152.9991  135.6252  154.2367 H   0  0  0  0  0  0  0  0  0  0  0  0  # atno 10764 bound_to 10752
  154.2302  135.2866  155.2872 H   0  0  0  0  0  0  0  0  0  0  0  0  # atno 10765 bound_to 10752
  141.0821  133.9202  157.2266 H   0  0  0  0  0  0  0  0  0  0  0  0  # atno 11005 bound_to 11000
  144.8963  140.7587  143.5895 LP  0  0  0  0  0  0  0  0  0  0  0  0  # atno 17320 bound_to 7965
  145.3071  139.1831  143.4658 LP  0  0  0  0  0  0  0  0  0  0  0  0  # atno 17321 bound_to 7965
  139.6902  144.7647  151.1452 LP  0  0  0  0  0  0  0  0  0  0  0  0  # atno 17342 bound_to 10162
  140.7674  143.5600  150.9109 LP  0  0  0  0  0  0  0  0  0  0  0  0  # atno 17343 bound_to 10162
  155.9781  130.4055  150.3671 LP  0  0  0  0  0  0  0  0  0  0  0  0  # atno 17370 bound_to 10713
  157.1778  131.0384  151.2764 LP  0  0  0  0  0  0  0  0  0  0  0  0  # atno 17371 bound_to 10713
  139.9635  135.0148  156.9326 LP  0  0  0  0  0  0  0  0  0  0  0  0  # atno 17394 bound_to 11000
  140.5445  134.0687  155.7351 LP  0  0  0  0  0  0  0  0  0  0  0  0  # atno 17395 bound_to 11000

$$$$
