AV-unprocessed.smi:1071|AV-procd|sdf|4679|dock5
  -GOLD-   22720 3193D 1   1.00000     0.00000
 Structure written by MMmdl.
 47 48  0  0  0  0  0  0  0  0  2 V2000
  135.1241  138.1109  154.3141 C   0  0  0  0  0  0  0  0  0  0  0  0
  136.2015  137.2002  154.4677 O   0  0  0  0  0  0  0  0  0  0  0  0
  137.4723  137.7509  154.1510 C   0  0  0  0  0  0  0  0  0  0  0  0
  138.6069  136.7416  154.3790 C   0  0  0  0  0  0  0  0  0  0  0  0
  139.8254  137.3160  153.9166 O   0  0  0  0  0  0  0  0  0  0  0  0
  140.8655  136.4734  153.5811 C   0  0  0  0  0  0  0  0  0  0  0  0
  142.0429  137.0358  153.0489 C   0  0  0  0  0  0  0  0  0  0  0  0
  143.1101  136.1840  152.7051 C   0  0  0  0  0  0  0  0  0  0  0  0
  142.9677  134.7915  152.9137 C   0  0  0  0  0  0  0  0  0  0  0  0
  143.9609  133.8286  152.5888 N   0  0  0  0  0  0  0  0  0  0  0  0
  145.3011  133.9723  152.5728 C   0  0  0  0  0  0  0  0  0  0  0  0
  145.8652  134.9962  152.9593 O   0  0  0  0  0  0  0  0  0  0  0  0
  145.9821  132.8597  152.1824 N   0  0  0  0  0  0  0  0  0  0  0  0
  147.4008  132.5819  152.4956 C   0  0  0  0  0  0  0  0  0  0  0  0
  147.5726  131.2074  153.1590 C   0  0  0  0  0  0  0  0  0  0  0  0
  146.9786  130.1392  152.3267 N   0  3  1  0  0  0  0  0  0  0  0  0
  147.2113  128.7899  152.8849 C   0  0  0  0  0  0  0  0  0  0  0  0
  145.5496  130.3943  152.0376 C   0  0  0  0  0  0  0  0  0  0  0  0
  145.3163  131.7860  151.4118 C   0  0  2  0  0  0  0  0  0  0  0  0
  145.7027  131.8581  149.9240 C   0  0  0  0  0  0  0  0  0  0  0  0
  141.7428  134.3281  153.4364 C   0  0  0  0  0  0  0  0  0  0  0  0
  140.7166  135.1388  153.7686 N   0  0  0  0  0  0  0  0  0  0  0  0
  134.1948  137.6264  154.6133 H   0  0  0  0  0  0  0  0  0  0  0  0
  135.0091  138.4344  153.2798 H   0  0  0  0  0  0  0  0  0  0  0  0
  135.2588  138.9914  154.9436 H   0  0  0  0  0  0  0  0  0  0  0  0
  137.4897  138.1424  153.1326 H   0  0  0  0  0  0  0  0  0  0  0  0
  137.6238  138.6042  154.8126 H   0  0  0  0  0  0  0  0  0  0  0  0
  138.6835  136.5149  155.4438 H   0  0  0  0  0  0  0  0  0  0  0  0
  138.4026  135.8119  153.8472 H   0  0  0  0  0  0  0  0  0  0  0  0
  142.1246  138.1026  152.9022 H   0  0  0  0  0  0  0  0  0  0  0  0
  144.0039  136.6117  152.2781 H   0  0  0  0  0  0  0  0  0  0  0  0
  143.6132  132.9037  152.3822 H   0  0  0  0  0  0  0  0  0  0  0  0
  147.9754  132.6209  151.5696 H   0  0  0  0  0  0  0  0  0  0  0  0
  147.8620  133.3177  153.1544 H   0  0  0  0  0  0  0  0  0  0  0  0
  148.6334  131.0050  153.3109 H   0  0  0  0  0  0  0  0  0  0  0  0
  147.1034  131.2068  154.1444 H   0  0  0  0  0  0  0  0  0  0  0  0
  146.7215  128.6766  153.8530 H   0  0  0  0  0  0  0  0  0  0  0  0
  148.2781  128.6065  153.0177 H   0  0  0  0  0  0  0  0  0  0  0  0
  146.8235  128.0228  152.2138 H   0  0  0  0  0  0  0  0  0  0  0  0
  145.1599  129.6167  151.3789 H   0  0  0  0  0  0  0  0  0  0  0  0
  144.9879  130.3205  152.9706 H   0  0  0  0  0  0  0  0  0  0  0  0
  144.2336  131.9168  151.4311 H   0  0  0  0  0  0  0  0  0  0  0  0
  145.1454  131.1248  149.3408 H   0  0  0  0  0  0  0  0  0  0  0  0
  146.7636  131.6621  149.7689 H   0  0  0  0  0  0  0  0  0  0  0  0
  145.4814  132.8419  149.5085 H   0  0  0  0  0  0  0  0  0  0  0  0
  141.5805  133.2725  153.5989 H   0  0  0  0  0  0  0  0  0  0  0  0
  147.4582  130.1700  151.4383 H   0  0  0  0  0  0  0  0  0  0  0  0
  1  2  1  0  0  0  0
  1 23  1  0  0  0  0
  1 24  1  0  0  0  0
  1 25  1  0  0  0  0
  2  3  1  0  0  0  0
  3  4  1  0  0  0  0
  3 26  1  0  0  0  0
  3 27  1  0  0  0  0
  4  5  1  0  0  0  0
  4 28  1  0  0  0  0
  4 29  1  0  0  0  0
  5  6  1  0  0  0  0
  6 22  1  0  0  0  0
  6  7  2  0  0  0  0
  7  8  1  0  0  0  0
  7 30  1  0  0  0  0
  8  9  2  0  0  0  0
  8 31  1  0  0  0  0
  9 10  1  0  0  0  0
  9 21  1  0  0  0  0
 10 11  1  0  0  0  0
 10 32  1  0  0  0  0
 11 12  2  0  0  0  0
 11 13  1  0  0  0  0
 13 19  1  0  0  0  0
 13 14  1  0  0  0  0
 14 15  1  0  0  0  0
 14 33  1  0  0  0  0
 14 34  1  0  0  0  0
 15 16  1  0  0  0  0
 15 35  1  0  0  0  0
 15 36  1  0  0  0  0
 16 17  1  0  0  0  0
 16 18  1  0  0  0  0
 16 47  1  0  0  0  0
 17 37  1  0  0  0  0
 17 38  1  0  0  0  0
 17 39  1  0  0  0  0
 18 19  1  0  0  0  0
 18 40  1  0  0  0  0
 18 41  1  0  0  0  0
 19 20  1  0  0  0  0
 19 42  1  0  0  0  0
 20 43  1  0  0  0  0
 20 44  1  0  0  0  0
 20 45  1  0  0  0  0
 21 22  2  0  0  0  0
 21 46  1  0  0  0  0
M  CHG  1  16   1
M  END
> <s_m_source_file>
AV-unprocessed.smi

> <i_m_source_file_index>
1071

> <i_lp_mmshare_version>
43012

> <i_f3d_flags>
0

> <s_epik_input>
W0NIM11PW0NIMl1bQ0gyXU9jMVtjSF1bY0hdYyhbY0hdbjEpW05IXUMoPU8pTjJbQ0gyXVtDSDJdTihbQ0gzXSlbQ0gyXVtDQEhdMltDSDNd

> <s_epik_cmdline>
J2VwaWtfcHl0aG9uJywgJy1waCcsICc3LjAnLCAnLXRuJywgJzgnLCAnLW1hJywgJzIwMCcsICctbWV0YWxfYmluZGluZycsICctaW1hZScsICc8aW5maWxlLm1hZT4nLCAnLW9tYWUnLCAnPG91dGZpbGUubWFlPic=

> <r_lp_tautomer_probability>
1

> <r_epik_Ionization_Penalty>
0.25455

> <r_epik_Ionization_Penalty_Charging>
0.254506

> <r_epik_Ionization_Penalty_Neutral>
4.43365e-05

> <r_epik_State_Penalty>
0.245983

> <r_epik_Charging_Adjusted_Penalty>
0.500488

> <i_epik_Tot_Q>
1

> <i_epik_Tot_abs_Q>
1

> <r_epik_Metal_State_Penalty>
0.245987

> <b_epik_Metal_Only>
0

> <s_lp_Force_Field>
OPLS_2005

> <r_lp_Energy>
58.5188

> <b_lp_Chiralities_Consistent>
1

> <s_lp_Variant>
AV-unprocessed.smi:1071-3

> <Gold.Version>
5.8.1

> <Gold.Id.Protein>
6NUR|6NUR_protein|mol2

> <Gold.PLP.Fitness>
45.2302

> <Gold.PLP.PLP>
-39.0477

> <Gold.PLP.part.hbond>
-2.4694

> <Gold.PLP.part.metal>
0.0000

> <Gold.PLP.part.buried>
-5.7248

> <Gold.PLP.part.nonpolar>
-31.9807

> <Gold.PLP.part.repulsive>
0.4131

> <Gold.PLP.ligand.clash>
1.1064

> <Gold.PLP.ligand.torsion>
0.4669

> <Gold.PLP.Chemscore.Hbond>
1.7256

> <Gold.PLP.Chemscore.CHOScore>
1.0000

> <Gold.PLP.Chemscore.Metal>
0.0000

> <Gold.Chemscore.Hbonds>
donor molecule, donor type, donor heavy atom, donor atom, acceptor molecule, acceptor atom, score
      L1  H    16    47       P1 10747  1.00
      P1  H 11000 11005       L1    22  0.58
      L1  C    21    46       P1 10957  1.00

> <Gold.PLP.Chemscore.Internal.Correction>
0.0460

> <Gold.Rescore>
     Score         DG    S(hbond)    S(metal)    S(lipo)     H(rot)  DE(clash)    DE(int)     intcor
     13.80     -15.52       1.22        0.00      86.16       1.60       0.25       1.47       ----

> <Gold.Chemscore.Fitness>
13.8016

> <Gold.Chemscore.DG>
-15.5168

> <Gold.Chemscore.ZeroCoef>
-5.4800

> <Gold.Chemscore.Hbond>
1.2167

> <Gold.Chemscore.Metal>
0.0000

> <Gold.Chemscore.Lipo>
86.1575

> <Gold.Chemscore.Internal_Hbond>
0.0000

> <Gold.Chemscore.DEClash>
0.2475

> <Gold.Chemscore.DEInternal>
1.4677

> <Gold.Chemscore.Rot>
1.6045

> <Gold.Chemscore.Internal.Correction>
   9.000000E+99

> <Gold.Chemscore.Hbonds>
donor molecule, donor type, donor heavy atom, donor atom, acceptor molecule, acceptor atom, score
      L1  H    16    47       P1 10747  0.90
      P1  H 11000 11005       L1    22  0.10

> <Gold.Chemscore.Hbond.Weighted>
-4.0639

> <Gold.Chemscore.Metal.Weighted>
-0.0000

> <Gold.Chemscore.Lipo.Weighted>
-10.0804

> <Gold.Chemscore.Internal_Hbond.Weighted>
0.0000

> <Gold.Chemscore.DEClash.Weighted>
0.2475

> <Gold.Chemscore.DEInternal.Weighted>
1.4677

> <Gold.Chemscore.Rot.Weighted>
4.1075

> <Gold.Chemscore.Internal.Correction.Weighted>
   9.000000E+99

> <Gold.Protein.RotatedTorsions>
[ 6907 6896 6895 6894 ] final   93.10 input  -60.11 | X-H torsion
[ 7974 7965 7964 7962 ] final -170.27 input  175.53 | X-H torsion
[ 8008 7997 7996 7995 ] final   66.71 input   59.86 | X-H torsion
[ 10167 10162 10161 10158 ] final   17.70 input  -65.29 | X-H torsion
[ 10718 10713 10712 10709 ] final  -29.32 input   66.30 | X-H torsion
[ 10763 10752 10751 10750 ] final  111.05 input  -60.55 | X-H torsion
[ 11005 11000 10999 10996 ] final   29.33 input  -57.11 | X-H torsion

> <Gold.Protein.ActiveResidues>
 VAL166  LYS551  ARG553  GLY616  TRP617  ASP618  TYR619  PRO620  LYS621  CYS622 
 ASP623  PHE694  ASN695  SER759  ASP760  ASP761  ALA762  ILE779  LEU786  VAL792 
 PHE793  MET794  SER795  GLU796  ALA797  LYS798  CYS799  TRP800  GLU811  SER814 

> <Gold.Protein.RotatedAtoms>
  152.5453  134.1400  159.8474 H   0  0  0  0  0  0  0  0  0  0  0  0  # atno 6907 bound_to 6896
  151.1437  133.4947  159.2604 H   0  0  0  0  0  0  0  0  0  0  0  0  # atno 6908 bound_to 6896
  151.1546  135.0254  159.8738 H   0  0  0  0  0  0  0  0  0  0  0  0  # atno 6909 bound_to 6896
  144.7172  140.2097  143.6329 H   0  0  0  0  0  0  0  0  0  0  0  0  # atno 7974 bound_to 7965
  155.6815  140.3496  155.4857 H   0  0  0  0  0  0  0  0  0  0  0  0  # atno 8008 bound_to 7997
  155.9602  140.1136  157.0924 H   0  0  0  0  0  0  0  0  0  0  0  0  # atno 8009 bound_to 7997
  154.4141  140.1177  156.5155 H   0  0  0  0  0  0  0  0  0  0  0  0  # atno 8010 bound_to 7997
  140.5707  143.9166  150.6711 H   0  0  0  0  0  0  0  0  0  0  0  0  # atno 10167 bound_to 10162
  156.4139  130.4413  149.7232 H   0  0  0  0  0  0  0  0  0  0  0  0  # atno 10718 bound_to 10713
  153.4578  135.3729  155.2321 H   0  0  0  0  0  0  0  0  0  0  0  0  # atno 10763 bound_to 10752
  154.8757  135.3901  154.3961 H   0  0  0  0  0  0  0  0  0  0  0  0  # atno 10764 bound_to 10752
  153.4530  135.7086  153.6161 H   0  0  0  0  0  0  0  0  0  0  0  0  # atno 10765 bound_to 10752
  140.3060  134.2702  155.7744 H   0  0  0  0  0  0  0  0  0  0  0  0  # atno 11005 bound_to 11000
  145.8602  139.2219  143.1721 LP  0  0  0  0  0  0  0  0  0  0  0  0  # atno 17320 bound_to 7965
  146.0180  140.8374  142.9937 LP  0  0  0  0  0  0  0  0  0  0  0  0  # atno 17321 bound_to 7965
  140.2641  143.3503  152.1297 LP  0  0  0  0  0  0  0  0  0  0  0  0  # atno 17342 bound_to 10162
  139.5116  144.6903  151.5777 LP  0  0  0  0  0  0  0  0  0  0  0  0  # atno 17343 bound_to 10162
  156.4200  130.7764  151.2780 LP  0  0  0  0  0  0  0  0  0  0  0  0  # atno 17370 bound_to 10713
  157.7507  131.0186  150.3631 LP  0  0  0  0  0  0  0  0  0  0  0  0  # atno 17371 bound_to 10713
  141.2118  133.7677  156.9838 LP  0  0  0  0  0  0  0  0  0  0  0  0  # atno 17394 bound_to 11000
  140.1066  134.9502  157.2004 LP  0  0  0  0  0  0  0  0  0  0  0  0  # atno 17395 bound_to 11000

$$$$
