AV-unprocessed.smi:35|AV-procd|sdf|254|dock4
  -GOLD-   2262016 13D 1   1.00000     0.00000
 Structure written by MMmdl.
 29 30  0  0  0  0  0  0  0  0  1 V2000
  152.4044  136.9385  159.7966 O   0  0  0  0  0  0  0  0  0  0  0  0
  151.9544  137.4395  158.7683 C   0  0  0  0  0  0  0  0  0  0  0  0
  152.8145  138.0117  157.8270 N   0  0  0  0  0  0  0  0  0  0  0  0
  152.4213  138.6083  156.6276 C   0  0  0  0  0  0  0  0  0  0  0  0
  153.2649  139.0931  155.8744 O   0  0  0  0  0  0  0  0  0  0  0  0
  151.0386  138.6342  156.3388 N   0  0  0  0  0  0  0  0  0  0  0  0
  150.5876  139.2760  155.0390 C   0  0  1  0  0  0  0  0  0  0  0  0
  149.3985  138.6813  154.6062 O   0  0  0  0  0  0  0  0  0  0  0  0
  148.3077  139.5807  154.7802 C   0  0  2  0  0  0  0  0  0  0  0  0
  147.1338  139.2159  153.8558 C   0  0  0  0  0  0  0  0  0  0  0  0
  147.6077  138.9757  152.5483 O   0  0  0  0  0  0  0  0  0  0  0  0
  148.9501  140.9500  154.5287 C   0  0  2  0  0  0  0  0  0  0  0  0
  149.0750  141.2105  153.1421 O   0  0  0  0  0  0  0  0  0  0  0  0
  150.3243  140.7973  155.1672 C   0  0  1  0  0  0  0  0  0  0  0  0
  150.2788  141.2618  156.5059 O   0  0  0  0  0  0  0  0  0  0  0  0
  150.1449  138.0779  157.2466 C   0  0  0  0  0  0  0  0  0  0  0  0
  150.5427  137.5044  158.4067 C   0  0  0  0  0  0  0  0  0  0  0  0
  149.1143  136.7695  159.5662 Br  0  0  0  0  0  0  0  0  0  0  0  0
  153.8027  137.9939  158.0336 H   0  0  0  0  0  0  0  0  0  0  0  0
  151.3569  139.0317  154.3039 H   0  0  0  0  0  0  0  0  0  0  0  0
  147.9826  139.5523  155.8217 H   0  0  0  0  0  0  0  0  0  0  0  0
  146.6542  138.3000  154.2022 H   0  0  0  0  0  0  0  0  0  0  0  0
  146.3748  139.9988  153.8439 H   0  0  0  0  0  0  0  0  0  0  0  0
  148.4659  139.3631  152.4651 H   0  0  0  0  0  0  0  0  0  0  0  0
  148.3681  141.7599  154.9712 H   0  0  0  0  0  0  0  0  0  0  0  0
  149.4071  140.4338  152.7180 H   0  0  0  0  0  0  0  0  0  0  0  0
  151.0979  141.3534  154.6356 H   0  0  0  0  0  0  0  0  0  0  0  0
  149.5743  141.8879  156.5789 H   0  0  0  0  0  0  0  0  0  0  0  0
  149.0860  138.0913  157.0409 H   0  0  0  0  0  0  0  0  0  0  0  0
  1  2  2  0  0  0  0
  2 17  1  0  0  0  0
  2  3  1  0  0  0  0
  3 19  1  0  0  0  0
  3  4  1  0  0  0  0
  4  5  2  0  0  0  0
  4  6  1  0  0  0  0
  6  7  1  0  0  0  0
  6 16  1  0  0  0  0
  7 14  1  0  0  0  0
  7  8  1  0  0  0  0
  7 20  1  0  0  0  0
  8  9  1  0  0  0  0
  9 10  1  0  0  0  0
  9 12  1  0  0  0  0
  9 21  1  0  0  0  0
 10 11  1  0  0  0  0
 10 22  1  0  0  0  0
 10 23  1  0  0  0  0
 11 24  1  0  0  0  0
 12 13  1  0  0  0  0
 12 14  1  0  0  0  0
 12 25  1  0  0  0  0
 13 26  1  0  0  0  0
 14 15  1  0  0  0  0
 14 27  1  0  0  0  0
 15 28  1  0  0  0  0
 16 17  2  0  0  0  0
 16 29  1  0  0  0  0
 17 18  1  0  0  0  0
M  END
> <s_m_source_file>
AV-unprocessed.smi

> <i_m_source_file_index>
35

> <i_lp_mmshare_version>
43012

> <i_f3d_flags>
0

> <s_epik_input>
Tz1jMVtuSF1jKD1PKW4oW2NIXWMxQnIpW0NAQEhdMk9bQ0BASF0oW0NIMl1bT0hdKVtDQEBIXShbT0hdKVtDQEhdMltPSF0=

> <s_epik_cmdline>
J2VwaWtfcHl0aG9uJywgJy1waCcsICc3LjAnLCAnLXRuJywgJzgnLCAnLW1hJywgJzIwMCcsICctbWV0YWxfYmluZGluZycsICctaW1hZScsICc8aW5maWxlLm1hZT4nLCAnLW9tYWUnLCAnPG91dGZpbGUubWFlPic=

> <r_lp_tautomer_probability>
0.999537

> <r_epik_Ionization_Penalty>
0.10812

> <r_epik_Ionization_Penalty_Charging>
0.108119

> <r_epik_Ionization_Penalty_Neutral>
4.93006e-07

> <r_epik_State_Penalty>
0.0979238

> <r_epik_Charging_Adjusted_Penalty>
0.206043

> <i_epik_Tot_Q>
0

> <i_epik_Tot_abs_Q>
0

> <r_epik_Metal_State_Penalty>
3.07911

> <b_epik_Metal_Only>
0

> <s_epik_Chemistry_Notes>
This compound contains an acetal/aminal-like group ( X-CH(R)-Y where X, Y are N, S, or O) that may be acid/base labile, releasing an aldehyde.

> <s_lp_Force_Field>
OPLS_2005

> <r_lp_Energy>
33.5115

> <b_lp_Chiralities_Consistent>
1

> <s_lp_Variant>
AV-unprocessed.smi:35-8

> <Gold.Version>
5.8.1

> <Gold.Id.Protein>
6NUR|6NUR_protein|mol2

> <Gold.PLP.Fitness>
35.5084

> <Gold.PLP.PLP>
-23.7802

> <Gold.PLP.part.hbond>
-6.0757

> <Gold.PLP.part.metal>
0.0000

> <Gold.PLP.part.buried>
-3.8990

> <Gold.PLP.part.nonpolar>
-14.8411

> <Gold.PLP.part.repulsive>
0.2705

> <Gold.PLP.ligand.clash>
0.0000

> <Gold.PLP.ligand.torsion>
0.8143

> <Gold.PLP.Chemscore.Hbond>
4.4313

> <Gold.PLP.Chemscore.CHOScore>
0.0000

> <Gold.PLP.Chemscore.Metal>
0.0000

> <Gold.Chemscore.Hbonds>
donor molecule, donor type, donor heavy atom, donor atom, acceptor molecule, acceptor atom, score
      L1  H    11    24       P1  7957  0.78
      L1  H    13    26       P1  7957  0.64
      P1  H  6896  6907       L1     1  1.00
      P1  H  7997  8009       L1     5  1.00
      P1  H  8011  8017       L1    13  1.00

> <Gold.PLP.Chemscore.Internal.Correction>
0.0631

> <Gold.Rescore>
     Score         DG    S(hbond)    S(metal)    S(lipo)     H(rot)  DE(clash)    DE(int)     intcor
     12.25     -14.34       4.22        0.00      35.56       3.67       1.41       0.67       ----

> <Gold.Chemscore.Fitness>
12.2543

> <Gold.Chemscore.DG>
-14.3371

> <Gold.Chemscore.ZeroCoef>
-5.4800

> <Gold.Chemscore.Hbond>
4.2193

> <Gold.Chemscore.Metal>
0.0000

> <Gold.Chemscore.Lipo>
35.5581

> <Gold.Chemscore.Internal_Hbond>
0.0000

> <Gold.Chemscore.DEClash>
1.4106

> <Gold.Chemscore.DEInternal>
0.6723

> <Gold.Chemscore.Rot>
3.6701

> <Gold.Chemscore.Internal.Correction>
   9.000000E+99

> <Gold.Chemscore.Hbonds>
donor molecule, donor type, donor heavy atom, donor atom, acceptor molecule, acceptor atom, score
      L1  H    11    24       P1  7957  0.78
      L1  H    13    26       P1  7957  0.63
      P1  H  6896  6907       L1     1  0.88
      P1  H  7997  8009       L1     5  0.93
      P1  H  8011  8017       L1    13  0.39

> <Gold.Chemscore.Hbond.Weighted>
-14.0923

> <Gold.Chemscore.Metal.Weighted>
-0.0000

> <Gold.Chemscore.Lipo.Weighted>
-4.1603

> <Gold.Chemscore.Internal_Hbond.Weighted>
0.0000

> <Gold.Chemscore.DEClash.Weighted>
1.4106

> <Gold.Chemscore.DEInternal.Weighted>
0.6723

> <Gold.Chemscore.Rot.Weighted>
9.3955

> <Gold.Chemscore.Internal.Correction.Weighted>
   9.000000E+99

> <Gold.Protein.RotatedTorsions>
[ 6907 6896 6895 6894 ] final   34.86 input  -60.11 | X-H torsion
[ 7974 7965 7964 7962 ] final    3.69 input  175.53 | X-H torsion
[ 8008 7997 7996 7995 ] final -157.05 input   59.86 | X-H torsion
[ 10167 10162 10161 10158 ] final  -95.71 input  -65.29 | X-H torsion
[ 10718 10713 10712 10709 ] final   53.39 input   66.30 | X-H torsion
[ 10763 10752 10751 10750 ] final  -31.53 input  -60.55 | X-H torsion
[ 11005 11000 10999 10996 ] final  145.09 input  -57.11 | X-H torsion

> <Gold.Protein.ActiveResidues>
 VAL166  LYS551  ARG553  GLY616  TRP617  ASP618  TYR619  PRO620  LYS621  CYS622 
 ASP623  PHE694  ASN695  SER759  ASP760  ASP761  ALA762  ILE779  LEU786  VAL792 
 PHE793  MET794  SER795  GLU796  ALA797  LYS798  CYS799  TRP800  GLU811  SER814 

> <Gold.Protein.RotatedAtoms>
  152.1083  134.9293  160.0567 H   0  0  0  0  0  0  0  0  0  0  0  0  # atno 6907 bound_to 6896
  152.0481  133.4002  159.4373 H   0  0  0  0  0  0  0  0  0  0  0  0  # atno 6908 bound_to 6896
  150.6842  134.3260  159.4850 H   0  0  0  0  0  0  0  0  0  0  0  0  # atno 6909 bound_to 6896
  146.2445  140.0647  142.8366 H   0  0  0  0  0  0  0  0  0  0  0  0  # atno 7974 bound_to 7965
  155.7265  140.0796  157.2308 H   0  0  0  0  0  0  0  0  0  0  0  0  # atno 8008 bound_to 7997
  154.4038  140.1603  156.2515 H   0  0  0  0  0  0  0  0  0  0  0  0  # atno 8009 bound_to 7997
  155.9148  140.3401  155.6129 H   0  0  0  0  0  0  0  0  0  0  0  0  # atno 8010 bound_to 7997
  140.3014  143.3160  152.0244 H   0  0  0  0  0  0  0  0  0  0  0  0  # atno 10167 bound_to 10162
  157.5162  130.8534  149.8499 H   0  0  0  0  0  0  0  0  0  0  0  0  # atno 10718 bound_to 10713
  153.7989  135.6892  153.4859 H   0  0  0  0  0  0  0  0  0  0  0  0  # atno 10763 bound_to 10752
  153.1701  135.4546  154.9889 H   0  0  0  0  0  0  0  0  0  0  0  0  # atno 10764 bound_to 10752
  154.8014  135.3339  154.7479 H   0  0  0  0  0  0  0  0  0  0  0  0  # atno 10765 bound_to 10752
  140.0685  134.9165  157.1304 H   0  0  0  0  0  0  0  0  0  0  0  0  # atno 11005 bound_to 11000
  145.0869  140.9259  143.4792 LP  0  0  0  0  0  0  0  0  0  0  0  0  # atno 17320 bound_to 7965
  145.0811  139.2959  143.5783 LP  0  0  0  0  0  0  0  0  0  0  0  0  # atno 17321 bound_to 7965
  139.4914  144.6453  151.6791 LP  0  0  0  0  0  0  0  0  0  0  0  0  # atno 17342 bound_to 10162
  140.5648  144.0208  150.6187 LP  0  0  0  0  0  0  0  0  0  0  0  0  # atno 17343 bound_to 10162
  156.0322  130.3761  150.1657 LP  0  0  0  0  0  0  0  0  0  0  0  0  # atno 17370 bound_to 10713
  156.9845  130.9874  151.3429 LP  0  0  0  0  0  0  0  0  0  0  0  0  # atno 17371 bound_to 10713
  140.3663  134.2439  155.7182 LP  0  0  0  0  0  0  0  0  0  0  0  0  # atno 17394 bound_to 11000
  141.2002  133.7992  157.0499 LP  0  0  0  0  0  0  0  0  0  0  0  0  # atno 17395 bound_to 11000

$$$$
