AV-unprocessed.smi:1982|AV-procd|sdf|8024|dock1
  -GOLD-   2272010213D 1   1.00000     0.00000
 Structure written by MMmdl.
 36 37  0  0  0  0  0  0  0  0  1 V2000
  151.6018  145.0669  160.1396 C   0  0  0  0  0  0  0  0  0  0  0  0
  152.6828  144.2441  159.4086 C   0  0  2  0  0  0  0  0  0  0  0  0
  152.5765  144.4004  157.8779 C   0  0  0  0  0  0  0  0  0  0  0  0
  151.3686  143.6467  157.2997 C   0  0  0  0  0  0  0  0  0  0  0  0
  151.4053  142.1625  157.6887 C   0  0  0  0  0  0  0  0  0  0  0  0
  151.5025  141.9690  159.2142 C   0  0  1  0  0  0  0  0  0  0  0  0
  151.6086  140.5371  159.4953 N   0  0  0  0  0  0  0  0  0  0  0  0
  152.3803  139.6583  158.8364 C   0  0  0  0  0  0  0  0  0  0  0  0
  153.0971  139.9677  157.8834 O   0  0  0  0  0  0  0  0  0  0  0  0
  152.3145  138.2125  159.3429 C   0  0  0  0  0  0  0  0  0  0  0  0
  151.9951  137.2604  158.2932 N   0  0  0  0  0  0  0  0  0  0  0  0
  152.6014  136.9963  157.1339 C   0  0  0  0  0  0  0  0  0  0  0  0
  151.9794  136.0382  156.4639 N   0  0  0  0  0  0  0  0  0  0  0  0
  150.9211  135.7097  157.2945 N   0  0  0  0  0  0  0  0  0  0  0  0
  150.9248  136.4319  158.3813 N   0  0  0  0  0  0  0  0  0  0  0  0
  152.7136  142.7420  159.8010 C   0  0  2  0  0  0  0  0  0  0  0  0
  152.8850  142.5376  161.3194 C   0  0  0  0  0  0  0  0  0  0  0  0
  150.5978  144.6870  159.9541 H   0  0  0  0  0  0  0  0  0  0  0  0
  151.6225  146.1078  159.8159 H   0  0  0  0  0  0  0  0  0  0  0  0
  151.7603  145.0692  161.2177 H   0  0  0  0  0  0  0  0  0  0  0  0
  153.6411  144.6755  159.7012 H   0  0  0  0  0  0  0  0  0  0  0  0
  152.5215  145.4554  157.6078 H   0  0  0  0  0  0  0  0  0  0  0  0
  153.4875  144.0194  157.4144 H   0  0  0  0  0  0  0  0  0  0  0  0
  150.4408  144.0972  157.6532 H   0  0  0  0  0  0  0  0  0  0  0  0
  151.3591  143.7425  156.2137 H   0  0  0  0  0  0  0  0  0  0  0  0
  150.5147  141.6628  157.3058 H   0  0  0  0  0  0  0  0  0  0  0  0
  152.2580  141.6872  157.2015 H   0  0  0  0  0  0  0  0  0  0  0  0
  150.5892  142.3666  159.6590 H   0  0  0  0  0  0  0  0  0  0  0  0
  151.0527  140.1884  160.2626 H   0  0  0  0  0  0  0  0  0  0  0  0
  153.2697  137.9396  159.7945 H   0  0  0  0  0  0  0  0  0  0  0  0
  151.5543  138.1353  160.1212 H   0  0  0  0  0  0  0  0  0  0  0  0
  153.4912  137.5001  156.7862 H   0  0  0  0  0  0  0  0  0  0  0  0
  153.6101  142.3249  159.3387 H   0  0  0  0  0  0  0  0  0  0  0  0
  151.9788  142.8020  161.8646 H   0  0  0  0  0  0  0  0  0  0  0  0
  153.7013  143.1469  161.7083 H   0  0  0  0  0  0  0  0  0  0  0  0
  153.1182  141.5001  161.5589 H   0  0  0  0  0  0  0  0  0  0  0  0
  1  2  1  0  0  0  0
  1 18  1  0  0  0  0
  1 19  1  0  0  0  0
  1 20  1  0  0  0  0
  2 16  1  0  0  0  0
  2  3  1  0  0  0  0
  2 21  1  0  0  0  0
  3  4  1  0  0  0  0
  3 22  1  0  0  0  0
  3 23  1  0  0  0  0
  4  5  1  0  0  0  0
  4 24  1  0  0  0  0
  4 25  1  0  0  0  0
  5  6  1  0  0  0  0
  5 26  1  0  0  0  0
  5 27  1  0  0  0  0
  6  7  1  0  0  0  0
  6 16  1  0  0  0  0
  6 28  1  0  0  0  0
  7  8  1  0  0  0  0
  7 29  1  0  0  0  0
  8  9  2  0  0  0  0
  8 10  1  0  0  0  0
 10 11  1  0  0  0  0
 10 30  1  0  0  0  0
 10 31  1  0  0  0  0
 11 15  1  0  0  0  0
 11 12  1  0  0  0  0
 12 13  2  0  0  0  0
 12 32  1  0  0  0  0
 13 14  1  0  0  0  0
 14 15  2  0  0  0  0
 16 17  1  0  0  0  0
 16 33  1  0  0  0  0
 17 34  1  0  0  0  0
 17 35  1  0  0  0  0
 17 36  1  0  0  0  0
M  END
> <s_m_source_file>
AV-unprocessed.smi

> <i_m_source_file_index>
1982

> <i_lp_mmshare_version>
43012

> <i_f3d_flags>
0

> <s_epik_input>
W0NIM11bQ0BASF0xW0NIMl1bQ0gyXVtDSDJdW0NASF0oW0NASF0xW0NIM10pW05IXUMoPU8pW0NIMl1uMltjSF1ubm4y

> <s_epik_cmdline>
J2VwaWtfcHl0aG9uJywgJy1waCcsICc3LjAnLCAnLXRuJywgJzgnLCAnLW1hJywgJzIwMCcsICctbWV0YWxfYmluZGluZycsICctaW1hZScsICc8aW5maWxlLm1hZT4nLCAnLW9tYWUnLCAnPG91dGZpbGUubWFlPic=

> <r_lp_tautomer_probability>
1

> <r_epik_Ionization_Penalty>
5.03816e-07

> <r_epik_Ionization_Penalty_Charging>
0

> <r_epik_Ionization_Penalty_Neutral>
5.03816e-07

> <r_epik_State_Penalty>
-0

> <r_epik_Charging_Adjusted_Penalty>
0

> <i_epik_Tot_Q>
0

> <i_epik_Tot_abs_Q>
0

> <r_epik_Metal_State_Penalty>
-0

> <b_epik_Metal_Only>
0

> <s_lp_Force_Field>
OPLS_2005

> <r_lp_Energy>
16.2726

> <b_lp_Chiralities_Consistent>
1

> <s_lp_Variant>
AV-unprocessed.smi:1982-5

> <Gold.Version>
5.8.1

> <Gold.Id.Protein>
6NUR|6NUR_protein|mol2

> <Gold.PLP.Fitness>
42.9180

> <Gold.PLP.PLP>
-35.2225

> <Gold.PLP.part.hbond>
-3.7271

> <Gold.PLP.part.metal>
0.0000

> <Gold.PLP.part.buried>
-3.0241

> <Gold.PLP.part.nonpolar>
-28.8131

> <Gold.PLP.part.repulsive>
0.2020

> <Gold.PLP.ligand.clash>
0.0000

> <Gold.PLP.ligand.torsion>
0.2830

> <Gold.PLP.Chemscore.Hbond>
2.7520

> <Gold.PLP.Chemscore.CHOScore>
0.0000

> <Gold.PLP.Chemscore.Metal>
0.0000

> <Gold.Chemscore.Hbonds>
donor molecule, donor type, donor heavy atom, donor atom, acceptor molecule, acceptor atom, score
      P1  H  6896  6909       L1    15  0.75
      P1  H  7997  8008       L1     9  1.00
      P1  H 10752 10765       L1    13  1.00

> <Gold.PLP.Chemscore.Internal.Correction>
0.0056

> <Gold.Rescore>
     Score         DG    S(hbond)    S(metal)    S(lipo)     H(rot)  DE(clash)    DE(int)     intcor
     17.30     -18.97       2.24        0.00      92.95       1.91       0.05       1.62       ----

> <Gold.Chemscore.Fitness>
17.2973

> <Gold.Chemscore.DG>
-18.9677

> <Gold.Chemscore.ZeroCoef>
-5.4800

> <Gold.Chemscore.Hbond>
2.2429

> <Gold.Chemscore.Metal>
0.0000

> <Gold.Chemscore.Lipo>
92.9523

> <Gold.Chemscore.Internal_Hbond>
0.0000

> <Gold.Chemscore.DEClash>
0.0526

> <Gold.Chemscore.DEInternal>
1.6179

> <Gold.Chemscore.Rot>
1.9058

> <Gold.Chemscore.Internal.Correction>
   9.000000E+99

> <Gold.Chemscore.Hbonds>
donor molecule, donor type, donor heavy atom, donor atom, acceptor molecule, acceptor atom, score
      P1  H  6896  6909       L1    15  0.17
      P1  H  7997  8008       L1     9  0.98
      P1  H 10752 10765       L1    13  0.72

> <Gold.Chemscore.Hbond.Weighted>
-7.4912

> <Gold.Chemscore.Metal.Weighted>
-0.0000

> <Gold.Chemscore.Lipo.Weighted>
-10.8754

> <Gold.Chemscore.Internal_Hbond.Weighted>
0.0000

> <Gold.Chemscore.DEClash.Weighted>
0.0526

> <Gold.Chemscore.DEInternal.Weighted>
1.6179

> <Gold.Chemscore.Rot.Weighted>
4.8788

> <Gold.Chemscore.Internal.Correction.Weighted>
   9.000000E+99

> <Gold.Protein.RotatedTorsions>
[ 6907 6896 6895 6894 ] final   82.10 input  -60.11 | X-H torsion
[ 7974 7965 7964 7962 ] final   39.92 input  175.53 | X-H torsion
[ 8008 7997 7996 7995 ] final  -71.97 input   59.86 | X-H torsion
[ 10167 10162 10161 10158 ] final  -36.39 input  -65.29 | X-H torsion
[ 10718 10713 10712 10709 ] final  -61.15 input   66.30 | X-H torsion
[ 10763 10752 10751 10750 ] final -163.29 input  -60.55 | X-H torsion
[ 11005 11000 10999 10996 ] final  103.38 input  -57.11 | X-H torsion

> <Gold.Protein.ActiveResidues>
 VAL166  LYS551  ARG553  GLY616  TRP617  ASP618  TYR619  PRO620  LYS621  CYS622 
 ASP623  PHE694  ASN695  SER759  ASP760  ASP761  ALA762  ILE779  LEU786  VAL792 
 PHE793  MET794  SER795  GLU796  ALA797  LYS798  CYS799  TRP800  GLU811  SER814 

> <Gold.Protein.RotatedAtoms>
  152.5289  134.3101  159.9110 H   0  0  0  0  0  0  0  0  0  0  0  0  # atno 6907 bound_to 6896
  151.3051  133.4099  159.2650 H   0  0  0  0  0  0  0  0  0  0  0  0  # atno 6908 bound_to 6896
  151.0086  134.9395  159.8051 H   0  0  0  0  0  0  0  0  0  0  0  0  # atno 6909 bound_to 6896
  146.0946  139.5594  142.9454 H   0  0  0  0  0  0  0  0  0  0  0  0  # atno 7974 bound_to 7965
  154.5129  140.0806  156.8025 H   0  0  0  0  0  0  0  0  0  0  0  0  # atno 8008 bound_to 7997
  155.3745  140.3424  155.4226 H   0  0  0  0  0  0  0  0  0  0  0  0  # atno 8009 bound_to 7997
  156.1594  140.1583  156.8625 H   0  0  0  0  0  0  0  0  0  0  0  0  # atno 8010 bound_to 7997
  140.7143  143.3412  151.2354 H   0  0  0  0  0  0  0  0  0  0  0  0  # atno 10167 bound_to 10162
  156.0942  130.4195  150.0953 H   0  0  0  0  0  0  0  0  0  0  0  0  # atno 10718 bound_to 10713
  154.7136  135.3011  154.9159 H   0  0  0  0  0  0  0  0  0  0  0  0  # atno 10763 bound_to 10752
  154.0053  135.6701  153.4766 H   0  0  0  0  0  0  0  0  0  0  0  0  # atno 10764 bound_to 10752
  153.0775  135.5027  154.8348 H   0  0  0  0  0  0  0  0  0  0  0  0  # atno 10765 bound_to 10752
  139.8783  134.9261  156.5201 H   0  0  0  0  0  0  0  0  0  0  0  0  # atno 11005 bound_to 11000
  145.5973  141.0360  143.2037 LP  0  0  0  0  0  0  0  0  0  0  0  0  # atno 17320 bound_to 7965
  144.7385  139.7515  143.7320 LP  0  0  0  0  0  0  0  0  0  0  0  0  # atno 17321 bound_to 7965
  139.6920  143.9677  152.2864 LP  0  0  0  0  0  0  0  0  0  0  0  0  # atno 17342 bound_to 10162
  139.9341  144.6723  150.8333 LP  0  0  0  0  0  0  0  0  0  0  0  0  # atno 17343 bound_to 10162
  156.8956  130.9603  151.3583 LP  0  0  0  0  0  0  0  0  0  0  0  0  # atno 17370 bound_to 10713
  157.6098  130.8575  149.8934 LP  0  0  0  0  0  0  0  0  0  0  0  0  # atno 17371 bound_to 10713
  140.8457  133.8171  155.9119 LP  0  0  0  0  0  0  0  0  0  0  0  0  # atno 17394 bound_to 11000
  140.9194  134.2161  157.4936 LP  0  0  0  0  0  0  0  0  0  0  0  0  # atno 17395 bound_to 11000

$$$$
