AV-unprocessed.smi:1964|AV-procd|sdf|7929|dock3
  -GOLD-   2272010103D 1   1.00000     0.00000
 Structure written by MMmdl.
 46 48  0  0  0  0  0  0  0  0  1 V2000
  149.7337  136.0213  155.2831 C   0  0  0  0  0  0  0  0  0  0  0  0
  150.3241  137.3538  154.7896 C   0  0  1  0  0  0  0  0  0  0  0  0
  149.2711  138.4825  154.8233 C   0  0  0  0  0  0  0  0  0  0  0  0
  149.8440  139.8071  154.2927 C   0  0  0  0  0  0  0  0  0  0  0  0
  151.1140  140.2169  155.0543 C   0  0  0  0  0  0  0  0  0  0  0  0
  152.1678  139.0952  155.0246 C   0  0  0  0  0  0  0  0  0  0  0  0
  151.6063  137.7608  155.5575 C   0  0  1  0  0  0  0  0  0  0  0  0
  151.3269  137.8693  156.9852 N   0  0  0  0  0  0  0  0  0  0  0  0
  152.1678  138.2736  157.9504 C   0  0  0  0  0  0  0  0  0  0  0  0
  153.3288  138.6147  157.7304 O   0  0  0  0  0  0  0  0  0  0  0  0
  151.6253  138.3106  159.3912 C   0  0  0  0  0  0  0  0  0  0  0  0
  151.9843  139.5367  160.1441 N   0  0  0  0  0  0  0  0  0  0  0  0
  152.5280  139.3974  161.4472 C   0  0  0  0  0  0  0  0  0  0  0  0
  152.6788  138.2860  161.9568 O   0  0  0  0  0  0  0  0  0  0  0  0
  152.8970  140.6449  162.1118 C   0  0  0  0  0  0  0  0  0  0  0  0
  153.4068  140.5492  163.4396 C   0  0  0  0  0  0  0  0  0  0  0  0
  153.8026  140.4869  164.5254 N   0  0  0  0  0  0  0  0  0  0  0  0
  152.7641  141.8319  161.4850 C   0  0  0  0  0  0  0  0  0  0  0  0
  152.2902  141.9391  160.1959 N   0  0  0  0  0  0  0  0  0  0  0  0
  152.0554  143.2172  159.5858 C   0  0  0  0  0  0  0  0  0  0  0  0
  153.2238  144.0953  159.1797 C   0  0  0  0  0  0  0  0  0  0  0  0
  152.3755  144.4723  160.3685 C   0  0  0  0  0  0  0  0  0  0  0  0
  151.8317  140.7941  159.5096 C   0  0  0  0  0  0  0  0  0  0  0  0
  151.3302  140.8807  158.3862 O   0  0  0  0  0  0  0  0  0  0  0  0
  149.3845  136.0897  156.3137 H   0  0  0  0  0  0  0  0  0  0  0  0
  150.4746  135.2230  155.2356 H   0  0  0  0  0  0  0  0  0  0  0  0
  148.8852  135.7193  154.6691 H   0  0  0  0  0  0  0  0  0  0  0  0
  150.6074  137.2053  153.7462 H   0  0  0  0  0  0  0  0  0  0  0  0
  148.4038  138.1989  154.2262 H   0  0  0  0  0  0  0  0  0  0  0  0
  148.9056  138.6246  155.8416 H   0  0  0  0  0  0  0  0  0  0  0  0
  150.0737  139.7049  153.2314 H   0  0  0  0  0  0  0  0  0  0  0  0
  149.0934  140.5941  154.3716 H   0  0  0  0  0  0  0  0  0  0  0  0
  151.5295  141.1266  154.6199 H   0  0  0  0  0  0  0  0  0  0  0  0
  150.8595  140.4599  156.0870 H   0  0  0  0  0  0  0  0  0  0  0  0
  152.5123  138.9550  153.9992 H   0  0  0  0  0  0  0  0  0  0  0  0
  153.0454  139.3932  155.5998 H   0  0  0  0  0  0  0  0  0  0  0  0
  152.3568  136.9834  155.4026 H   0  0  0  0  0  0  0  0  0  0  0  0
  150.3942  137.6095  157.2709 H   0  0  0  0  0  0  0  0  0  0  0  0
  150.5427  138.1842  159.3485 H   0  0  0  0  0  0  0  0  0  0  0  0
  151.9718  137.4154  159.9097 H   0  0  0  0  0  0  0  0  0  0  0  0
  153.0506  142.7338  162.0069 H   0  0  0  0  0  0  0  0  0  0  0  0
  151.1777  143.2707  158.9442 H   0  0  0  0  0  0  0  0  0  0  0  0
  154.2323  143.7415  159.3849 H   0  0  0  0  0  0  0  0  0  0  0  0
  153.1138  144.6877  158.2738 H   0  0  0  0  0  0  0  0  0  0  0  0
  151.7012  145.3188  160.2562 H   0  0  0  0  0  0  0  0  0  0  0  0
  152.8251  144.3629  161.3537 H   0  0  0  0  0  0  0  0  0  0  0  0
  1  2  1  0  0  0  0
  1 25  1  0  0  0  0
  1 26  1  0  0  0  0
  1 27  1  0  0  0  0
  2  7  1  0  0  0  0
  2  3  1  0  0  0  0
  2 28  1  0  0  0  0
  3  4  1  0  0  0  0
  3 29  1  0  0  0  0
  3 30  1  0  0  0  0
  4  5  1  0  0  0  0
  4 31  1  0  0  0  0
  4 32  1  0  0  0  0
  5  6  1  0  0  0  0
  5 33  1  0  0  0  0
  5 34  1  0  0  0  0
  6  7  1  0  0  0  0
  6 35  1  0  0  0  0
  6 36  1  0  0  0  0
  7  8  1  0  0  0  0
  7 37  1  0  0  0  0
  8  9  1  0  0  0  0
  8 38  1  0  0  0  0
  9 10  2  0  0  0  0
  9 11  1  0  0  0  0
 11 12  1  0  0  0  0
 11 39  1  0  0  0  0
 11 40  1  0  0  0  0
 12 23  1  0  0  0  0
 12 13  1  0  0  0  0
 13 14  2  0  0  0  0
 13 15  1  0  0  0  0
 15 16  1  0  0  0  0
 15 18  2  0  0  0  0
 16 17  3  0  0  0  0
 18 19  1  0  0  0  0
 18 41  1  0  0  0  0
 19 20  1  0  0  0  0
 19 23  1  0  0  0  0
 20 22  1  0  0  0  0
 20 21  1  0  0  0  0
 20 42  1  0  0  0  0
 21 22  1  0  0  0  0
 21 43  1  0  0  0  0
 21 44  1  0  0  0  0
 22 45  1  0  0  0  0
 22 46  1  0  0  0  0
 23 24  2  0  0  0  0
M  END
> <s_m_source_file>
AV-unprocessed.smi

> <i_m_source_file_index>
1964

> <i_lp_mmshare_version>
43012

> <i_f3d_flags>
0

> <s_epik_input>
W0NIM11bQ0BASF0xW0NIMl1bQ0gyXVtDSDJdW0NIMl1bQ0BIXTFbTkhdQyg9TylbQ0gyXW4yYyg9TyljKEMjTilbY0hdbihjMj1PKVtDSF0zW0NIMl1bQ0gyXTM=

> <s_epik_cmdline>
J2VwaWtfcHl0aG9uJywgJy1waCcsICc3LjAnLCAnLXRuJywgJzgnLCAnLW1hJywgJzIwMCcsICctbWV0YWxfYmluZGluZycsICctaW1hZScsICc8aW5maWxlLm1hZT4nLCAnLW9tYWUnLCAnPG91dGZpbGUubWFlPic=

> <r_lp_tautomer_probability>
1

> <r_epik_Ionization_Penalty>
1.91372e-08

> <r_epik_Ionization_Penalty_Charging>
9.0283e-11

> <r_epik_Ionization_Penalty_Neutral>
1.90469e-08

> <r_epik_State_Penalty>
-0

> <r_epik_Charging_Adjusted_Penalty>
9.0283e-11

> <i_epik_Tot_Q>
0

> <i_epik_Tot_abs_Q>
0

> <r_epik_Metal_State_Penalty>
-0

> <b_epik_Metal_Only>
0

> <s_lp_Force_Field>
OPLS_2005

> <r_lp_Energy>
33.6562

> <b_lp_Chiralities_Consistent>
1

> <s_lp_Variant>
AV-unprocessed.smi:1964-2

> <Gold.Version>
5.8.1

> <Gold.Id.Protein>
6NUR|6NUR_protein|mol2

> <Gold.PLP.Fitness>
47.8130

> <Gold.PLP.PLP>
-45.7415

> <Gold.PLP.part.hbond>
-1.6547

> <Gold.PLP.part.metal>
0.0000

> <Gold.PLP.part.buried>
-2.9899

> <Gold.PLP.part.nonpolar>
-42.0665

> <Gold.PLP.part.repulsive>
0.0812

> <Gold.PLP.ligand.clash>
0.0000

> <Gold.PLP.ligand.torsion>
0.4668

> <Gold.PLP.Chemscore.Hbond>
0.9350

> <Gold.PLP.Chemscore.CHOScore>
0.0000

> <Gold.PLP.Chemscore.Metal>
0.0000

> <Gold.Chemscore.Hbonds>
donor molecule, donor type, donor heavy atom, donor atom, acceptor molecule, acceptor atom, score
      P1  H  7997  8010       L1    10  0.85

> <Gold.PLP.Chemscore.Internal.Correction>
0.2003

> <Gold.Rescore>
     Score         DG    S(hbond)    S(metal)    S(lipo)     H(rot)  DE(clash)    DE(int)     intcor
     11.85     -14.68       0.99        0.00      87.65       1.70       0.55       2.28       ----

> <Gold.Chemscore.Fitness>
11.8542

> <Gold.Chemscore.DG>
-14.6844

> <Gold.Chemscore.ZeroCoef>
-5.4800

> <Gold.Chemscore.Hbond>
0.9915

> <Gold.Chemscore.Metal>
0.0000

> <Gold.Chemscore.Lipo>
87.6463

> <Gold.Chemscore.Internal_Hbond>
0.0000

> <Gold.Chemscore.DEClash>
0.5477

> <Gold.Chemscore.DEInternal>
2.2825

> <Gold.Chemscore.Rot>
1.7038

> <Gold.Chemscore.Internal.Correction>
   9.000000E+99

> <Gold.Chemscore.Hbonds>
donor molecule, donor type, donor heavy atom, donor atom, acceptor molecule, acceptor atom, score
      P1  H  7997  8010       L1    10  0.78

> <Gold.Chemscore.Hbond.Weighted>
-3.3115

> <Gold.Chemscore.Metal.Weighted>
-0.0000

> <Gold.Chemscore.Lipo.Weighted>
-10.2546

> <Gold.Chemscore.Internal_Hbond.Weighted>
0.0000

> <Gold.Chemscore.DEClash.Weighted>
0.5477

> <Gold.Chemscore.DEInternal.Weighted>
2.2825

> <Gold.Chemscore.Rot.Weighted>
4.3618

> <Gold.Chemscore.Internal.Correction.Weighted>
   9.000000E+99

> <Gold.Protein.RotatedTorsions>
[ 6907 6896 6895 6894 ] final   67.00 input  -60.11 | X-H torsion
[ 7974 7965 7964 7962 ] final  -29.54 input  175.53 | X-H torsion
[ 8008 7997 7996 7995 ] final   58.82 input   59.86 | X-H torsion
[ 10167 10162 10161 10158 ] final  -34.21 input  -65.29 | X-H torsion
[ 10718 10713 10712 10709 ] final   95.22 input   66.30 | X-H torsion
[ 10763 10752 10751 10750 ] final  -69.77 input  -60.55 | X-H torsion
[ 11005 11000 10999 10996 ] final -171.92 input  -57.11 | X-H torsion

> <Gold.Protein.ActiveResidues>
 VAL166  LYS551  ARG553  GLY616  TRP617  ASP618  TYR619  PRO620  LYS621  CYS622 
 ASP623  PHE694  ASN695  SER759  ASP760  ASP761  ALA762  ILE779  LEU786  VAL792 
 PHE793  MET794  SER795  GLU796  ALA797  LYS798  CYS799  TRP800  GLU811  SER814 

> <Gold.Protein.RotatedAtoms>
  152.4521  134.5370  159.9827 H   0  0  0  0  0  0  0  0  0  0  0  0  # atno 6907 bound_to 6896
  151.5440  133.3422  159.2948 H   0  0  0  0  0  0  0  0  0  0  0  0  # atno 6908 bound_to 6896
  150.8454  134.7792  159.7029 H   0  0  0  0  0  0  0  0  0  0  0  0  # atno 6909 bound_to 6896
  146.1209  140.5425  142.8736 H   0  0  0  0  0  0  0  0  0  0  0  0  # atno 7974 bound_to 7965
  155.5562  140.3487  155.4480 H   0  0  0  0  0  0  0  0  0  0  0  0  # atno 8008 bound_to 7997
  156.0547  140.1326  157.0035 H   0  0  0  0  0  0  0  0  0  0  0  0  # atno 8009 bound_to 7997
  154.4451  140.0997  156.6413 H   0  0  0  0  0  0  0  0  0  0  0  0  # atno 8010 bound_to 7997
  140.7190  143.3564  151.2051 H   0  0  0  0  0  0  0  0  0  0  0  0  # atno 10167 bound_to 10162
  157.6941  131.0538  150.4305 H   0  0  0  0  0  0  0  0  0  0  0  0  # atno 10718 bound_to 10713
  154.4082  135.6015  153.5937 H   0  0  0  0  0  0  0  0  0  0  0  0  # atno 10763 bound_to 10752
  152.9789  135.5923  154.4102 H   0  0  0  0  0  0  0  0  0  0  0  0  # atno 10764 bound_to 10752
  154.3910  135.2842  155.2133 H   0  0  0  0  0  0  0  0  0  0  0  0  # atno 10765 bound_to 10752
  140.5028  134.5877  157.4993 H   0  0  0  0  0  0  0  0  0  0  0  0  # atno 11005 bound_to 11000
  144.7596  140.5390  143.6745 LP  0  0  0  0  0  0  0  0  0  0  0  0  # atno 17320 bound_to 7965
  145.5468  139.1476  143.3416 LP  0  0  0  0  0  0  0  0  0  0  0  0  # atno 17321 bound_to 7965
  139.7106  143.9382  152.2946 LP  0  0  0  0  0  0  0  0  0  0  0  0  # atno 17342 bound_to 10162
  139.9106  144.6858  150.8566 LP  0  0  0  0  0  0  0  0  0  0  0  0  # atno 17343 bound_to 10162
  156.4672  130.4045  149.6540 LP  0  0  0  0  0  0  0  0  0  0  0  0  # atno 17370 bound_to 10713
  156.3633  130.7493  151.2468 LP  0  0  0  0  0  0  0  0  0  0  0  0  # atno 17371 bound_to 10713
  139.9703  134.7304  156.0055 LP  0  0  0  0  0  0  0  0  0  0  0  0  # atno 17394 bound_to 11000
  141.1426  133.6562  156.3774 LP  0  0  0  0  0  0  0  0  0  0  0  0  # atno 17395 bound_to 11000

$$$$
