AV-unprocessed.smi:2928|AV-procd|sdf|11232|dock2
  -GOLD-   2272016123D 1   1.00000     0.00000
 Structure written by MMmdl.
 55 58  0  0  0  0  0  0  0  0  2 V2000
  143.0801  135.3936  152.4147 C   0  0  0  0  0  0  0  0  0  0  0  0
  143.4404  134.4678  151.3142 N   0  3  2  0  0  0  0  0  0  0  0  0
  143.8382  133.1067  151.7491 C   0  0  1  0  0  0  0  0  0  0  0  0
  143.7564  132.1506  150.5363 C   0  0  0  0  0  0  0  0  0  0  0  0
  144.5525  132.6352  149.3076 C   0  0  0  0  0  0  0  0  0  0  0  0
  144.3858  134.1484  149.0585 C   0  0  0  0  0  0  0  0  0  0  0  0
  144.4286  135.0037  150.3468 C   0  0  2  0  0  0  0  0  0  0  0  0
  145.8303  135.1363  150.9918 C   0  0  0  0  0  0  0  0  0  0  0  0
  146.3342  133.8625  151.7081 C   0  0  1  0  0  0  0  0  0  0  0  0
  147.3917  134.2331  152.6464 N   0  0  0  0  0  0  0  0  0  0  0  0
  148.0860  133.3919  153.4260 C   0  0  0  0  0  0  0  0  0  0  0  0
  147.9064  132.1744  153.4507 O   0  0  0  0  0  0  0  0  0  0  0  0
  148.9750  134.0599  154.1790 N   0  0  0  0  0  0  0  0  0  0  0  0
  149.9113  133.5382  155.1156 C   0  0  0  0  0  0  0  0  0  0  0  0
  150.2640  132.1677  155.1658 C   0  0  0  0  0  0  0  0  0  0  0  0
  151.2198  131.7402  156.1056 C   0  0  0  0  0  0  0  0  0  0  0  0
  151.7967  132.6999  156.9563 C   0  0  0  0  0  0  0  0  0  0  0  0
  151.4831  134.0108  156.9110 N   0  0  0  0  0  0  0  0  0  0  0  0
  150.5623  134.4280  156.0079 C   0  0  0  0  0  0  0  0  0  0  0  0
  150.2494  135.7990  155.9794 N   0  0  0  0  0  0  0  0  0  0  0  0
  150.7543  136.5785  157.0974 C   0  0  0  0  0  0  0  0  0  0  0  0
  150.6232  138.0411  156.6649 C   0  0  0  0  0  0  0  0  0  0  0  0
  150.5637  137.9957  155.1330 C   0  0  0  0  0  0  0  0  0  0  0  0
  150.6553  136.5091  154.7782 C   0  0  0  0  0  0  0  0  0  0  0  0
  145.2091  133.1238  152.4711 C   0  0  0  0  0  0  0  0  0  0  0  0
  143.9242  135.6076  153.0698 H   0  0  0  0  0  0  0  0  0  0  0  0
  142.2815  134.9679  153.0227 H   0  0  0  0  0  0  0  0  0  0  0  0
  142.7180  136.3397  152.0117 H   0  0  0  0  0  0  0  0  0  0  0  0
  143.0962  132.7569  152.4686 H   0  0  0  0  0  0  0  0  0  0  0  0
  144.0774  131.1473  150.8186 H   0  0  0  0  0  0  0  0  0  0  0  0
  142.7086  132.0567  150.2471 H   0  0  0  0  0  0  0  0  0  0  0  0
  145.6037  132.3808  149.4132 H   0  0  0  0  0  0  0  0  0  0  0  0
  144.2269  132.0844  148.4244 H   0  0  0  0  0  0  0  0  0  0  0  0
  145.1346  134.4946  148.3454 H   0  0  0  0  0  0  0  0  0  0  0  0
  143.4205  134.3087  148.5764 H   0  0  0  0  0  0  0  0  0  0  0  0
  144.1066  136.0067  150.0625 H   0  0  0  0  0  0  0  0  0  0  0  0
  146.5583  135.4486  150.2420 H   0  0  0  0  0  0  0  0  0  0  0  0
  145.7929  135.9554  151.7112 H   0  0  0  0  0  0  0  0  0  0  0  0
  146.7492  133.1931  150.9588 H   0  0  0  0  0  0  0  0  0  0  0  0
  147.6152  135.2157  152.7081 H   0  0  0  0  0  0  0  0  0  0  0  0
  148.9333  135.0675  154.1312 H   0  0  0  0  0  0  0  0  0  0  0  0
  149.8329  131.4424  154.4931 H   0  0  0  0  0  0  0  0  0  0  0  0
  151.5076  130.7013  156.1683 H   0  0  0  0  0  0  0  0  0  0  0  0
  152.5345  132.4088  157.6892 H   0  0  0  0  0  0  0  0  0  0  0  0
  150.1872  136.3749  158.0062 H   0  0  0  0  0  0  0  0  0  0  0  0
  151.8006  136.3385  157.2922 H   0  0  0  0  0  0  0  0  0  0  0  0
  149.7023  138.4722  157.0596 H   0  0  0  0  0  0  0  0  0  0  0  0
  151.4554  138.6432  157.0309 H   0  0  0  0  0  0  0  0  0  0  0  0
  149.6171  138.4117  154.7860 H   0  0  0  0  0  0  0  0  0  0  0  0
  151.3683  138.5677  154.6698 H   0  0  0  0  0  0  0  0  0  0  0  0
  151.6798  136.2505  154.5072 H   0  0  0  0  0  0  0  0  0  0  0  0
  150.0101  136.2564  153.9364 H   0  0  0  0  0  0  0  0  0  0  0  0
  145.0696  133.6002  153.4426 H   0  0  0  0  0  0  0  0  0  0  0  0
  145.5249  132.1045  152.6967 H   0  0  0  0  0  0  0  0  0  0  0  0
  142.5853  134.3472  150.7902 H   0  0  0  0  0  0  0  0  0  0  0  0
  1  2  1  0  0  0  0
  1 26  1  0  0  0  0
  1 27  1  0  0  0  0
  1 28  1  0  0  0  0
  2  7  1  0  0  0  0
  2  3  1  0  0  0  0
  2 55  1  0  0  0  0
  3 25  1  0  0  0  0
  3  4  1  0  0  0  0
  3 29  1  0  0  0  0
  4  5  1  0  0  0  0
  4 30  1  0  0  0  0
  4 31  1  0  0  0  0
  5  6  1  0  0  0  0
  5 32  1  0  0  0  0
  5 33  1  0  0  0  0
  6  7  1  0  0  0  0
  6 34  1  0  0  0  0
  6 35  1  0  0  0  0
  7  8  1  0  0  0  0
  7 36  1  0  0  0  0
  8  9  1  0  0  0  0
  8 37  1  0  0  0  0
  8 38  1  0  0  0  0
  9 10  1  0  0  0  0
  9 25  1  0  0  0  0
  9 39  1  0  0  0  0
 10 11  1  0  0  0  0
 10 40  1  0  0  0  0
 11 12  2  0  0  0  0
 11 13  1  0  0  0  0
 13 14  1  0  0  0  0
 13 41  1  0  0  0  0
 14 19  1  0  0  0  0
 14 15  2  0  0  0  0
 15 16  1  0  0  0  0
 15 42  1  0  0  0  0
 16 17  2  0  0  0  0
 16 43  1  0  0  0  0
 17 18  1  0  0  0  0
 17 44  1  0  0  0  0
 18 19  2  0  0  0  0
 19 20  1  0  0  0  0
 20 24  1  0  0  0  0
 20 21  1  0  0  0  0
 21 22  1  0  0  0  0
 21 45  1  0  0  0  0
 21 46  1  0  0  0  0
 22 23  1  0  0  0  0
 22 47  1  0  0  0  0
 22 48  1  0  0  0  0
 23 24  1  0  0  0  0
 23 49  1  0  0  0  0
 23 50  1  0  0  0  0
 24 51  1  0  0  0  0
 24 52  1  0  0  0  0
 25 53  1  0  0  0  0
 25 54  1  0  0  0  0
M  CHG  1   2   1
M  END
> <s_m_source_file>
AV-unprocessed.smi

> <i_m_source_file_index>
2928

> <i_lp_mmshare_version>
43012

> <i_f3d_flags>
0

> <s_epik_input>
W0NIMl0xW0NIMl1bQ0gyXVtDQEhdKE4oW0NIM10pW0NIXTEyKVtDSDJdW0NASF0oW0NIMl0yKVtOSF1DKD1PKVtOSF1jM1tjSF1bY0hdW2NIXW5jM040W0NIMl1bQ0gyXVtDSDJdW0NIMl00

> <s_epik_cmdline>
J2VwaWtfcHl0aG9uJywgJy1waCcsICc3LjAnLCAnLXRuJywgJzgnLCAnLW1hJywgJzIwMCcsICctbWV0YWxfYmluZGluZycsICctaW1hZScsICc8aW5maWxlLm1hZT4nLCAnLW9tYWUnLCAnPG91dGZpbGUubWFlPic=

> <r_lp_tautomer_probability>
1

> <r_epik_Ionization_Penalty>
0.07954

> <r_epik_Ionization_Penalty_Charging>
0.00089841

> <r_epik_Ionization_Penalty_Neutral>
0.0786416

> <r_epik_State_Penalty>
0.0689917

> <r_epik_Charging_Adjusted_Penalty>
0.0698901

> <i_epik_Tot_Q>
1

> <i_epik_Tot_abs_Q>
1

> <r_epik_Metal_State_Penalty>
0.0608947

> <b_epik_Metal_Only>
0

> <s_lp_Force_Field>
OPLS_2005

> <r_lp_Energy>
65.7965

> <b_lp_Chiralities_Consistent>
1

> <s_lp_Variant>
AV-unprocessed.smi:2928-2

> <Gold.Version>
5.8.1

> <Gold.Id.Protein>
6NUR|6NUR_protein|mol2

> <Gold.PLP.Fitness>
47.0176

> <Gold.PLP.PLP>
-39.6700

> <Gold.PLP.part.hbond>
-3.5234

> <Gold.PLP.part.metal>
0.0000

> <Gold.PLP.part.buried>
-0.8176

> <Gold.PLP.part.nonpolar>
-33.4712

> <Gold.PLP.part.repulsive>
0.1824

> <Gold.PLP.ligand.clash>
0.0000

> <Gold.PLP.ligand.torsion>
0.2293

> <Gold.PLP.Chemscore.Hbond>
2.5920

> <Gold.PLP.Chemscore.CHOScore>
0.0000

> <Gold.PLP.Chemscore.Metal>
0.0000

> <Gold.Chemscore.Hbonds>
donor molecule, donor type, donor heavy atom, donor atom, acceptor molecule, acceptor atom, score
      L1  H     2    55       P1 10186  2.00
      L1  H    10    40       P1  7948  0.59

> <Gold.PLP.Chemscore.Internal.Correction>
0.0301

> <Gold.Rescore>
     Score         DG    S(hbond)    S(metal)    S(lipo)     H(rot)  DE(clash)    DE(int)     intcor
     15.43     -20.28       1.58        0.00     107.04       1.18       1.85       3.00       ----

> <Gold.Chemscore.Fitness>
15.4300

> <Gold.Chemscore.DG>
-20.2831

> <Gold.Chemscore.ZeroCoef>
-5.4800

> <Gold.Chemscore.Hbond>
1.5849

> <Gold.Chemscore.Metal>
0.0000

> <Gold.Chemscore.Lipo>
107.0440

> <Gold.Chemscore.Internal_Hbond>
0.0000

> <Gold.Chemscore.DEClash>
1.8521

> <Gold.Chemscore.DEInternal>
3.0010

> <Gold.Chemscore.Rot>
1.1776

> <Gold.Chemscore.Internal.Correction>
   9.000000E+99

> <Gold.Chemscore.Hbonds>
donor molecule, donor type, donor heavy atom, donor atom, acceptor molecule, acceptor atom, score
      L1  H     2    55       P1 10186  0.29
      L1  H    10    40       P1  7948  0.58

> <Gold.Chemscore.Hbond.Weighted>
-5.2937

> <Gold.Chemscore.Metal.Weighted>
-0.0000

> <Gold.Chemscore.Lipo.Weighted>
-12.5242

> <Gold.Chemscore.Internal_Hbond.Weighted>
0.0000

> <Gold.Chemscore.DEClash.Weighted>
1.8521

> <Gold.Chemscore.DEInternal.Weighted>
3.0010

> <Gold.Chemscore.Rot.Weighted>
3.0147

> <Gold.Chemscore.Internal.Correction.Weighted>
   9.000000E+99

> <Gold.Protein.RotatedTorsions>
[ 6907 6896 6895 6894 ] final -177.19 input  -60.11 | X-H torsion
[ 7974 7965 7964 7962 ] final -105.72 input  175.53 | X-H torsion
[ 8008 7997 7996 7995 ] final -169.15 input   59.86 | X-H torsion
[ 10167 10162 10161 10158 ] final -117.71 input  -65.29 | X-H torsion
[ 10718 10713 10712 10709 ] final   83.11 input   66.30 | X-H torsion
[ 10763 10752 10751 10750 ] final   -9.61 input  -60.55 | X-H torsion
[ 11005 11000 10999 10996 ] final -173.22 input  -57.11 | X-H torsion

> <Gold.Protein.ActiveResidues>
 VAL166  LYS551  ARG553  GLY616  TRP617  ASP618  TYR619  PRO620  LYS621  CYS622 
 ASP623  PHE694  ASN695  SER759  ASP760  ASP761  ALA762  ILE779  LEU786  VAL792 
 PHE793  MET794  SER795  GLU796  ALA797  LYS798  CYS799  TRP800  GLU811  SER814 

> <Gold.Protein.RotatedAtoms>
  151.6169  133.3342  159.3079 H   0  0  0  0  0  0  0  0  0  0  0  0  # atno 6907 bound_to 6896
  150.8126  134.7294  159.6713 H   0  0  0  0  0  0  0  0  0  0  0  0  # atno 6908 bound_to 6896
  152.4223  134.5938  160.0033 H   0  0  0  0  0  0  0  0  0  0  0  0  # atno 6909 bound_to 6896
  145.2269  140.9156  143.3227 H   0  0  0  0  0  0  0  0  0  0  0  0  # atno 7974 bound_to 7965
  155.9011  140.1041  157.1349 H   0  0  0  0  0  0  0  0  0  0  0  0  # atno 8008 bound_to 7997
  154.4026  140.1292  156.4501 H   0  0  0  0  0  0  0  0  0  0  0  0  # atno 8009 bound_to 7997
  155.7422  140.3466  155.5112 H   0  0  0  0  0  0  0  0  0  0  0  0  # atno 8010 bound_to 7997
  140.0653  143.4928  152.2009 H   0  0  0  0  0  0  0  0  0  0  0  0  # atno 10167 bound_to 10162
  157.6872  131.0077  150.2475 H   0  0  0  0  0  0  0  0  0  0  0  0  # atno 10718 bound_to 10713
  153.4572  135.7015  153.6072 H   0  0  0  0  0  0  0  0  0  0  0  0  # atno 10763 bound_to 10752
  153.4382  135.3786  155.2212 H   0  0  0  0  0  0  0  0  0  0  0  0  # atno 10764 bound_to 10752
  154.8728  135.3967  154.3993 H   0  0  0  0  0  0  0  0  0  0  0  0  # atno 10765 bound_to 10752
  140.4882  134.6010  157.4945 H   0  0  0  0  0  0  0  0  0  0  0  0  # atno 11005 bound_to 11000
  144.9713  139.3877  143.6308 LP  0  0  0  0  0  0  0  0  0  0  0  0  # atno 17320 bound_to 7965
  146.3362  139.8811  142.8824 LP  0  0  0  0  0  0  0  0  0  0  0  0  # atno 17321 bound_to 7965
  139.5868  144.7534  151.3499 LP  0  0  0  0  0  0  0  0  0  0  0  0  # atno 17342 bound_to 10162
  140.7152  143.7286  150.7641 LP  0  0  0  0  0  0  0  0  0  0  0  0  # atno 17343 bound_to 10162
  156.3078  130.3767  149.7690 LP  0  0  0  0  0  0  0  0  0  0  0  0  # atno 17370 bound_to 10713
  156.5300  130.8253  151.3233 LP  0  0  0  0  0  0  0  0  0  0  0  0  # atno 17371 bound_to 10713
  139.9785  134.7176  155.9904 LP  0  0  0  0  0  0  0  0  0  0  0  0  # atno 17394 bound_to 11000
  141.1497  133.6550  156.3976 LP  0  0  0  0  0  0  0  0  0  0  0  0  # atno 17395 bound_to 11000

$$$$
