AV-unprocessed.smi:3244|AV-procd|sdf|12400|dock3
  -GOLD-   2272018273D 1   1.00000     0.00000
 Structure written by MMmdl.
 40 41  0  0  0  0  0  0  0  0  1 V2000
  153.9646  141.6918  161.2256 C   0  0  0  0  0  0  0  0  0  0  0  0
  153.9409  141.8302  159.6944 C   0  0  0  0  0  0  0  0  0  0  0  0
  152.7549  142.5663  159.2251 N   0  0  0  0  0  0  0  0  0  0  0  0
  151.9386  142.0165  158.2883 C   0  0  0  0  0  0  0  0  0  0  0  0
  151.0373  142.6546  157.7426 O   0  0  0  0  0  0  0  0  0  0  0  0
  152.1160  140.5469  157.8813 C   0  0  0  0  0  0  0  0  0  0  0  0
  151.9647  140.3615  156.4324 N   0  0  0  0  0  0  0  0  0  0  0  0
  151.7347  138.9719  156.0492 C   0  0  2  0  0  0  0  0  0  0  0  0
  153.0495  138.1773  156.1275 C   0  0  0  0  0  0  0  0  0  0  0  0
  151.1523  138.9430  154.6212 C   0  0  0  0  0  0  0  0  0  0  0  0
  149.8860  139.6504  154.5217 N   0  0  0  0  0  0  0  0  0  0  0  0
  148.6682  139.1692  154.0886 C   0  0  0  0  0  0  0  0  0  0  0  0
  147.7717  140.1957  154.1730 C   0  0  0  0  0  0  0  0  0  0  0  0
  148.5466  141.2810  154.6690 C   0  0  0  0  0  0  0  0  0  0  0  0
  149.8120  140.9526  154.8736 N   0  0  0  0  0  0  0  0  0  0  0  0
  152.6850  143.9429  159.6450 C   0  0  0  0  0  0  0  0  0  0  0  0
  151.3417  144.6089  159.8848 C   0  0  0  0  0  0  0  0  0  0  0  0
  152.1666  145.0029  158.6911 C   0  0  0  0  0  0  0  0  0  0  0  0
  154.8330  141.1167  161.5467 H   0  0  0  0  0  0  0  0  0  0  0  0
  153.0740  141.1760  161.5864 H   0  0  0  0  0  0  0  0  0  0  0  0
  154.0131  142.6619  161.7205 H   0  0  0  0  0  0  0  0  0  0  0  0
  154.8490  142.3294  159.3525 H   0  0  0  0  0  0  0  0  0  0  0  0
  153.9856  140.8324  159.2607 H   0  0  0  0  0  0  0  0  0  0  0  0
  153.1095  140.2175  158.1866 H   0  0  0  0  0  0  0  0  0  0  0  0
  151.4092  139.9232  158.4263 H   0  0  0  0  0  0  0  0  0  0  0  0
  152.7469  140.7395  155.9172 H   0  0  0  0  0  0  0  0  0  0  0  0
  151.0043  138.5192  156.7221 H   0  0  0  0  0  0  0  0  0  0  0  0
  152.9016  137.1495  155.7948 H   0  0  0  0  0  0  0  0  0  0  0  0
  153.4361  138.1297  157.1454 H   0  0  0  0  0  0  0  0  0  0  0  0
  153.8210  138.6201  155.4963 H   0  0  0  0  0  0  0  0  0  0  0  0
  151.8604  139.3646  153.9052 H   0  0  0  0  0  0  0  0  0  0  0  0
  150.9776  137.9121  154.3112 H   0  0  0  0  0  0  0  0  0  0  0  0
  148.5418  138.1464  153.7657 H   0  0  0  0  0  0  0  0  0  0  0  0
  146.7223  140.1746  153.9193 H   0  0  0  0  0  0  0  0  0  0  0  0
  148.2292  142.2903  154.8851 H   0  0  0  0  0  0  0  0  0  0  0  0
  153.4803  144.2561  160.3179 H   0  0  0  0  0  0  0  0  0  0  0  0
  150.4300  144.0511  159.6797 H   0  0  0  0  0  0  0  0  0  0  0  0
  151.2762  145.3200  160.7058 H   0  0  0  0  0  0  0  0  0  0  0  0
  152.6528  145.9757  158.7118 H   0  0  0  0  0  0  0  0  0  0  0  0
  151.7997  144.6870  157.7164 H   0  0  0  0  0  0  0  0  0  0  0  0
  1  2  1  0  0  0  0
  1 19  1  0  0  0  0
  1 20  1  0  0  0  0
  1 21  1  0  0  0  0
  2  3  1  0  0  0  0
  2 22  1  0  0  0  0
  2 23  1  0  0  0  0
  3  4  1  0  0  0  0
  3 16  1  0  0  0  0
  4  5  2  0  0  0  0
  4  6  1  0  0  0  0
  6  7  1  0  0  0  0
  6 24  1  0  0  0  0
  6 25  1  0  0  0  0
  7  8  1  0  0  0  0
  7 26  1  0  0  0  0
  8  9  1  0  0  0  0
  8 10  1  0  0  0  0
  8 27  1  0  0  0  0
  9 28  1  0  0  0  0
  9 29  1  0  0  0  0
  9 30  1  0  0  0  0
 10 11  1  0  0  0  0
 10 31  1  0  0  0  0
 10 32  1  0  0  0  0
 11 15  1  0  0  0  0
 11 12  1  0  0  0  0
 12 13  2  0  0  0  0
 12 33  1  0  0  0  0
 13 14  1  0  0  0  0
 13 34  1  0  0  0  0
 14 15  2  0  0  0  0
 14 35  1  0  0  0  0
 16 18  1  0  0  0  0
 16 17  1  0  0  0  0
 16 36  1  0  0  0  0
 17 18  1  0  0  0  0
 17 37  1  0  0  0  0
 17 38  1  0  0  0  0
 18 39  1  0  0  0  0
 18 40  1  0  0  0  0
M  END
> <s_m_source_file>
AV-unprocessed.smi

> <i_m_source_file_index>
3244

> <i_lp_mmshare_version>
43012

> <i_f3d_flags>
0

> <s_epik_input>
W0NIMl0xW0NIMl1bQ0hdMU4oW0NIMl1bQ0gzXSlDKD1PKVtDSDJdW05IXVtDQEhdKFtDSDNdKVtDSDJdbjJbY0hdW2NIXVtjSF1uMg==

> <s_epik_cmdline>
J2VwaWtfcHl0aG9uJywgJy1waCcsICc3LjAnLCAnLXRuJywgJzgnLCAnLW1hJywgJzIwMCcsICctbWV0YWxfYmluZGluZycsICctaW1hZScsICc8aW5maWxlLm1hZT4nLCAnLW9tYWUnLCAnPG91dGZpbGUubWFlPic=

> <r_lp_tautomer_probability>
1

> <r_epik_Ionization_Penalty>
1.02506

> <r_epik_Ionization_Penalty_Charging>
0

> <r_epik_Ionization_Penalty_Neutral>
1.02506

> <r_epik_State_Penalty>
1.07563

> <r_epik_Charging_Adjusted_Penalty>
1.07563

> <i_epik_Tot_Q>
0

> <i_epik_Tot_abs_Q>
0

> <r_epik_Metal_State_Penalty>
1.07558

> <b_epik_Metal_Only>
0

> <s_lp_Force_Field>
OPLS_2005

> <r_lp_Energy>
34.7243

> <b_lp_Chiralities_Consistent>
1

> <s_lp_Variant>
AV-unprocessed.smi:3244-3

> <Gold.Version>
5.8.1

> <Gold.Id.Protein>
6NUR|6NUR_protein|mol2

> <Gold.PLP.Fitness>
47.4690

> <Gold.PLP.PLP>
-44.3178

> <Gold.PLP.part.hbond>
-1.2191

> <Gold.PLP.part.metal>
0.0000

> <Gold.PLP.part.buried>
-0.5726

> <Gold.PLP.part.nonpolar>
-41.2183

> <Gold.PLP.part.repulsive>
0.2140

> <Gold.PLP.ligand.clash>
0.0000

> <Gold.PLP.ligand.torsion>
1.1692

> <Gold.PLP.Chemscore.Hbond>
0.0000

> <Gold.PLP.Chemscore.CHOScore>
1.6787

> <Gold.PLP.Chemscore.Metal>
0.0000

> <Gold.Chemscore.Hbonds>
donor molecule, donor type, donor heavy atom, donor atom, acceptor molecule, acceptor atom, score
      L1  C    12    33       P1  7948  0.54
      L1  C    14    35       P1  8028  0.79

> <Gold.PLP.Chemscore.Internal.Correction>
0.4536

> <Gold.Rescore>
     Score         DG    S(hbond)    S(metal)    S(lipo)     H(rot)  DE(clash)    DE(int)     intcor
      9.16     -12.82       0.00        0.00     105.46       1.95       0.08       3.57       ----

> <Gold.Chemscore.Fitness>
9.1598

> <Gold.Chemscore.DG>
-12.8150

> <Gold.Chemscore.ZeroCoef>
-5.4800

> <Gold.Chemscore.Hbond>
0.0004

> <Gold.Chemscore.Metal>
0.0000

> <Gold.Chemscore.Lipo>
105.4566

> <Gold.Chemscore.Internal_Hbond>
0.0000

> <Gold.Chemscore.DEClash>
0.0820

> <Gold.Chemscore.DEInternal>
3.5733

> <Gold.Chemscore.Rot>
1.9550

> <Gold.Chemscore.Internal.Correction>
   9.000000E+99

> <Gold.Chemscore.Hbond.Weighted>
-0.0013

> <Gold.Chemscore.Metal.Weighted>
-0.0000

> <Gold.Chemscore.Lipo.Weighted>
-12.3384

> <Gold.Chemscore.Internal_Hbond.Weighted>
0.0000

> <Gold.Chemscore.DEClash.Weighted>
0.0820

> <Gold.Chemscore.DEInternal.Weighted>
3.5733

> <Gold.Chemscore.Rot.Weighted>
5.0047

> <Gold.Chemscore.Internal.Correction.Weighted>
   9.000000E+99

> <Gold.Protein.RotatedTorsions>
[ 6907 6896 6895 6894 ] final   14.99 input  -60.11 | X-H torsion
[ 7974 7965 7964 7962 ] final -119.87 input  175.53 | X-H torsion
[ 8008 7997 7996 7995 ] final   45.09 input   59.86 | X-H torsion
[ 10167 10162 10161 10158 ] final   -9.11 input  -65.29 | X-H torsion
[ 10718 10713 10712 10709 ] final  113.22 input   66.30 | X-H torsion
[ 10763 10752 10751 10750 ] final  179.90 input  -60.55 | X-H torsion
[ 11005 11000 10999 10996 ] final   30.73 input  -57.11 | X-H torsion

> <Gold.Protein.ActiveResidues>
 VAL166  LYS551  ARG553  GLY616  TRP617  ASP618  TYR619  PRO620  LYS621  CYS622 
 ASP623  PHE694  ASN695  SER759  ASP760  ASP761  ALA762  ILE779  LEU786  VAL792 
 PHE793  MET794  SER795  GLU796  ALA797  LYS798  CYS799  TRP800  GLU811  SER814 

> <Gold.Protein.RotatedAtoms>
  151.8109  135.0681  160.0412 H   0  0  0  0  0  0  0  0  0  0  0  0  # atno 6907 bound_to 6896
  152.3021  133.5661  159.5633 H   0  0  0  0  0  0  0  0  0  0  0  0  # atno 6908 bound_to 6896
  150.7278  134.0192  159.3738 H   0  0  0  0  0  0  0  0  0  0  0  0  # atno 6909 bound_to 6896
  145.0577  140.8266  143.4171 H   0  0  0  0  0  0  0  0  0  0  0  0  # atno 7974 bound_to 7965
  155.3301  140.3402  155.4239 H   0  0  0  0  0  0  0  0  0  0  0  0  # atno 8008 bound_to 7997
  156.1866  140.1682  156.8211 H   0  0  0  0  0  0  0  0  0  0  0  0  # atno 8009 bound_to 7997
  154.5393  140.0728  156.8465 H   0  0  0  0  0  0  0  0  0  0  0  0  # atno 8010 bound_to 7997
  140.7078  143.5894  150.8910 H   0  0  0  0  0  0  0  0  0  0  0  0  # atno 10167 bound_to 10162
  157.6350  131.0980  150.7008 H   0  0  0  0  0  0  0  0  0  0  0  0  # atno 10718 bound_to 10713
  154.5267  135.2797  155.1216 H   0  0  0  0  0  0  0  0  0  0  0  0  # atno 10763 bound_to 10752
  154.2752  135.6296  153.5329 H   0  0  0  0  0  0  0  0  0  0  0  0  # atno 10764 bound_to 10752
  152.9948  135.5638  154.5769 H   0  0  0  0  0  0  0  0  0  0  0  0  # atno 10765 bound_to 10752
  140.2913  134.2861  155.7775 H   0  0  0  0  0  0  0  0  0  0  0  0  # atno 11005 bound_to 11000
  145.1448  139.2550  143.5471 LP  0  0  0  0  0  0  0  0  0  0  0  0  # atno 17320 bound_to 7965
  146.3522  140.1134  142.8603 LP  0  0  0  0  0  0  0  0  0  0  0  0  # atno 17321 bound_to 7965
  139.9619  143.6154  152.3000 LP  0  0  0  0  0  0  0  0  0  0  0  0  # atno 17342 bound_to 10162
  139.6710  144.7661  151.1784 LP  0  0  0  0  0  0  0  0  0  0  0  0  # atno 17343 bound_to 10162
  156.7341  130.4719  149.5492 LP  0  0  0  0  0  0  0  0  0  0  0  0  # atno 17370 bound_to 10713
  156.1582  130.6356  151.0685 LP  0  0  0  0  0  0  0  0  0  0  0  0  # atno 17371 bound_to 10713
  141.2145  133.7587  156.9629 LP  0  0  0  0  0  0  0  0  0  0  0  0  # atno 17394 bound_to 11000
  140.1193  134.9427  157.2179 LP  0  0  0  0  0  0  0  0  0  0  0  0  # atno 17395 bound_to 11000

$$$$
