AV-unprocessed.smi:82|AV-procd|sdf|798|dock3
  -GOLD-   2262017173D 1   1.00000     0.00000
 Structure written by MMmdl.
 58 61  0  0  0  0  0  0  0  0  1 V2000
  151.8753  143.7918  157.9503 C   0  0  0  0  0  0  0  0  0  0  0  0
  151.6912  142.3997  158.1400 O   0  0  0  0  0  0  0  0  0  0  0  0
  150.4755  141.9308  157.5818 C   0  0  0  0  0  0  0  0  0  0  0  0
  150.6384  141.8524  156.0547 C   0  0  0  0  0  0  0  0  0  0  0  0
  150.0728  140.6491  155.4316 N   0  0  0  0  0  0  0  0  0  0  0  0
  148.6683  140.5055  155.8264 C   0  0  0  0  0  0  0  0  0  0  0  0
  147.9799  139.3134  155.1474 C   0  0  0  0  0  0  0  0  0  0  0  0
  148.7077  138.0865  155.4510 N   0  0  0  0  0  0  0  0  0  0  0  0
  148.0474  136.9408  155.1435 C   0  0  0  0  0  0  0  0  0  0  0  0
  148.2361  135.8231  155.8957 N   0  0  0  0  0  0  0  0  0  0  0  0
  147.5937  134.6904  155.5958 C   0  0  0  0  0  0  0  0  0  0  0  0
  146.7320  134.4571  154.6044 N   0  0  0  0  0  0  0  0  0  0  0  0
  146.5336  135.5744  153.8479 C   0  0  0  0  0  0  0  0  0  0  0  0
  147.1408  136.8465  154.0496 C   0  0  0  0  0  0  0  0  0  0  0  0
  146.6726  137.7482  153.1011 N   0  0  0  0  0  0  0  0  0  0  0  0
  145.8412  137.0486  152.3785 C   0  0  0  0  0  0  0  0  0  0  0  0
  145.7200  135.7251  152.7378 N   0  0  0  0  0  0  0  0  0  0  0  0
  144.8512  134.7510  152.1433 C   0  0  0  0  0  0  0  0  0  0  0  0
  145.1247  133.2516  152.2956 C   0  0  0  0  0  0  0  0  0  0  0  0
  144.6308  133.0008  150.8530 C   0  0  0  0  0  0  0  0  0  0  0  0
  145.5417  132.0825  150.0232 C   0  0  0  0  0  0  0  0  0  0  0  0
  146.8976  132.4679  150.1266 O   0  0  0  0  0  0  0  0  0  0  0  0
  143.1893  132.4645  150.7068 C   0  0  0  0  0  0  0  0  0  0  0  0
  142.8155  132.2235  149.3654 O   0  0  0  0  0  0  0  0  0  0  0  0
  144.8461  134.5141  150.6298 C   0  0  0  0  0  0  0  0  0  0  0  0
  150.1293  138.1732  155.1196 C   0  0  0  0  0  0  0  0  0  0  0  0
  150.7834  139.4021  155.7932 C   0  0  1  0  0  0  0  0  0  0  0  0
  152.2853  139.3829  155.4598 C   0  0  0  0  0  0  0  0  0  0  0  0
  152.8205  144.1006  158.3965 H   0  0  0  0  0  0  0  0  0  0  0  0
  151.0765  144.3636  158.4244 H   0  0  0  0  0  0  0  0  0  0  0  0
  151.9053  144.0447  156.8897 H   0  0  0  0  0  0  0  0  0  0  0  0
  150.2470  140.9396  157.9768 H   0  0  0  0  0  0  0  0  0  0  0  0
  149.6632  142.5905  157.8788 H   0  0  0  0  0  0  0  0  0  0  0  0
  150.2352  142.7483  155.5808 H   0  0  0  0  0  0  0  0  0  0  0  0
  151.7127  141.8886  155.8678 H   0  0  0  0  0  0  0  0  0  0  0  0
  148.5949  140.4012  156.9103 H   0  0  0  0  0  0  0  0  0  0  0  0
  148.1179  141.4100  155.5650 H   0  0  0  0  0  0  0  0  0  0  0  0
  146.9445  139.2579  155.4815 H   0  0  0  0  0  0  0  0  0  0  0  0
  147.9568  139.4585  154.0664 H   0  0  0  0  0  0  0  0  0  0  0  0
  147.8025  133.8500  156.2413 H   0  0  0  0  0  0  0  0  0  0  0  0
  145.2935  137.4834  151.5549 H   0  0  0  0  0  0  0  0  0  0  0  0
  143.8487  134.9957  152.4962 H   0  0  0  0  0  0  0  0  0  0  0  0
  146.1868  133.0386  152.4264 H   0  0  0  0  0  0  0  0  0  0  0  0
  144.5352  132.7664  153.0743 H   0  0  0  0  0  0  0  0  0  0  0  0
  145.4650  131.0489  150.3623 H   0  0  0  0  0  0  0  0  0  0  0  0
  145.2523  132.0839  148.9717 H   0  0  0  0  0  0  0  0  0  0  0  0
  147.4339  131.6902  150.0967 H   0  0  0  0  0  0  0  0  0  0  0  0
  143.0640  131.5282  151.2509 H   0  0  0  0  0  0  0  0  0  0  0  0
  142.4710  133.1686  151.1285 H   0  0  0  0  0  0  0  0  0  0  0  0
  142.1602  132.8579  149.1179 H   0  0  0  0  0  0  0  0  0  0  0  0
  144.0373  135.0172  150.0987 H   0  0  0  0  0  0  0  0  0  0  0  0
  145.8104  134.7369  150.1700 H   0  0  0  0  0  0  0  0  0  0  0  0
  150.6316  137.2633  155.4510 H   0  0  0  0  0  0  0  0  0  0  0  0
  150.2477  138.2323  154.0363 H   0  0  0  0  0  0  0  0  0  0  0  0
  150.6994  139.2603  156.8722 H   0  0  0  0  0  0  0  0  0  0  0  0
  152.7135  138.3961  155.6385 H   0  0  0  0  0  0  0  0  0  0  0  0
  152.8439  140.0762  156.0878 H   0  0  0  0  0  0  0  0  0  0  0  0
  152.4659  139.6345  154.4142 H   0  0  0  0  0  0  0  0  0  0  0  0
  1  2  1  0  0  0  0
  1 29  1  0  0  0  0
  1 30  1  0  0  0  0
  1 31  1  0  0  0  0
  2  3  1  0  0  0  0
  3  4  1  0  0  0  0
  3 32  1  0  0  0  0
  3 33  1  0  0  0  0
  4  5  1  0  0  0  0
  4 34  1  0  0  0  0
  4 35  1  0  0  0  0
  5 27  1  0  0  0  0
  5  6  1  0  0  0  0
  6  7  1  0  0  0  0
  6 36  1  0  0  0  0
  6 37  1  0  0  0  0
  7  8  1  0  0  0  0
  7 38  1  0  0  0  0
  7 39  1  0  0  0  0
  8  9  1  0  0  0  0
  8 26  1  0  0  0  0
  9 14  1  0  0  0  0
  9 10  2  0  0  0  0
 10 11  1  0  0  0  0
 11 12  2  0  0  0  0
 11 40  1  0  0  0  0
 12 13  1  0  0  0  0
 13 17  1  0  0  0  0
 13 14  2  0  0  0  0
 14 15  1  0  0  0  0
 15 16  2  0  0  0  0
 16 17  1  0  0  0  0
 16 41  1  0  0  0  0
 17 18  1  0  0  0  0
 18 25  1  0  0  0  0
 18 19  1  0  0  0  0
 18 42  1  0  0  0  0
 19 20  1  0  0  0  0
 19 43  1  0  0  0  0
 19 44  1  0  0  0  0
 20 21  1  0  0  0  0
 20 23  1  0  0  0  0
 20 25  1  0  0  0  0
 21 22  1  0  0  0  0
 21 45  1  0  0  0  0
 21 46  1  0  0  0  0
 22 47  1  0  0  0  0
 23 24  1  0  0  0  0
 23 48  1  0  0  0  0
 23 49  1  0  0  0  0
 24 50  1  0  0  0  0
 25 51  1  0  0  0  0
 25 52  1  0  0  0  0
 26 27  1  0  0  0  0
 26 53  1  0  0  0  0
 26 54  1  0  0  0  0
 27 28  1  0  0  0  0
 27 55  1  0  0  0  0
 28 56  1  0  0  0  0
 28 57  1  0  0  0  0
 28 58  1  0  0  0  0
M  END
> <s_m_source_file>
AV-unprocessed.smi

> <i_m_source_file_index>
82

> <i_lp_mmshare_version>
43012

> <i_f3d_flags>
0

> <s_epik_input>
W0NIM11PW0NIMl1bQ0gyXU4xW0NIMl1bQ0gyXU4oW0NIMl1bQ0BIXTFbQ0gzXSljKG5bY0hdbjIpYyhjMjMpbltjSF1uM1tDSF0oW0NIMl00KVtDSDJdQzQoW0NIMl1bT0hdKVtDSDJdW09IXQ==

> <s_epik_cmdline>
J2VwaWtfcHl0aG9uJywgJy1waCcsICc3LjAnLCAnLXRuJywgJzgnLCAnLW1hJywgJzIwMCcsICctbWV0YWxfYmluZGluZycsICctaW1hZScsICc8aW5maWxlLm1hZT4nLCAnLW9tYWUnLCAnPG91dGZpbGUubWFlPic=

> <r_lp_tautomer_probability>
1

> <r_epik_Ionization_Penalty>
0.549054

> <r_epik_Ionization_Penalty_Charging>
0

> <r_epik_Ionization_Penalty_Neutral>
0.549054

> <r_epik_State_Penalty>
0.552556

> <r_epik_Charging_Adjusted_Penalty>
0.552556

> <i_epik_Tot_Q>
0

> <i_epik_Tot_abs_Q>
0

> <r_epik_Metal_State_Penalty>
0.545162

> <b_epik_Metal_Only>
0

> <s_lp_Force_Field>
OPLS_2005

> <r_lp_Energy>
72.4409

> <b_lp_Chiralities_Consistent>
1

> <s_lp_Variant>
AV-unprocessed.smi:82-5

> <Gold.Version>
5.8.1

> <Gold.Id.Protein>
6NUR|6NUR_protein|mol2

> <Gold.PLP.Fitness>
45.9556

> <Gold.PLP.PLP>
-37.0661

> <Gold.PLP.part.hbond>
-3.8539

> <Gold.PLP.part.metal>
0.0000

> <Gold.PLP.part.buried>
-3.2213

> <Gold.PLP.part.nonpolar>
-31.2473

> <Gold.PLP.part.repulsive>
1.1429

> <Gold.PLP.ligand.clash>
0.0000

> <Gold.PLP.ligand.torsion>
1.5731

> <Gold.PLP.Chemscore.Hbond>
2.7063

> <Gold.PLP.Chemscore.CHOScore>
1.0000

> <Gold.PLP.Chemscore.Metal>
0.0000

> <Gold.Chemscore.Hbonds>
donor molecule, donor type, donor heavy atom, donor atom, acceptor molecule, acceptor atom, score
      L1  H    22    47       P1 10747  1.00
      L1  H    24    50       P1 10186  1.00
      P1  H 10785 10796       L1    24  0.57
      L1  C    16    41       P1 10171  1.00

> <Gold.PLP.Chemscore.Internal.Correction>
0.9168

> <Gold.Rescore>
     Score         DG    S(hbond)    S(metal)    S(lipo)     H(rot)  DE(clash)    DE(int)     intcor
     10.49     -14.87       2.47        0.00      93.73       3.84       0.65       3.74       ----

> <Gold.Chemscore.Fitness>
10.4860

> <Gold.Chemscore.DG>
-14.8731

> <Gold.Chemscore.ZeroCoef>
-5.4800

> <Gold.Chemscore.Hbond>
2.4746

> <Gold.Chemscore.Metal>
0.0000

> <Gold.Chemscore.Lipo>
93.7338

> <Gold.Chemscore.Internal_Hbond>
0.0000

> <Gold.Chemscore.DEClash>
0.6509

> <Gold.Chemscore.DEInternal>
3.7362

> <Gold.Chemscore.Rot>
3.8434

> <Gold.Chemscore.Internal.Correction>
   9.000000E+99

> <Gold.Chemscore.Hbonds>
donor molecule, donor type, donor heavy atom, donor atom, acceptor molecule, acceptor atom, score
      L1  H    22    47       P1 10747  0.96
      L1  H    24    50       P1 10186  0.94
      P1  H 10785 10796       L1    24  0.48

> <Gold.Chemscore.Hbond.Weighted>
-8.2653

> <Gold.Chemscore.Metal.Weighted>
-0.0000

> <Gold.Chemscore.Lipo.Weighted>
-10.9669

> <Gold.Chemscore.Internal_Hbond.Weighted>
0.0000

> <Gold.Chemscore.DEClash.Weighted>
0.6509

> <Gold.Chemscore.DEInternal.Weighted>
3.7362

> <Gold.Chemscore.Rot.Weighted>
9.8391

> <Gold.Chemscore.Internal.Correction.Weighted>
   9.000000E+99

> <Gold.Protein.RotatedTorsions>
[ 6907 6896 6895 6894 ] final -149.13 input  -60.11 | X-H torsion
[ 7974 7965 7964 7962 ] final  -73.01 input  175.53 | X-H torsion
[ 8008 7997 7996 7995 ] final  -56.70 input   59.86 | X-H torsion
[ 10167 10162 10161 10158 ] final  -98.37 input  -65.29 | X-H torsion
[ 10718 10713 10712 10709 ] final -115.56 input   66.30 | X-H torsion
[ 10763 10752 10751 10750 ] final   89.48 input  -60.55 | X-H torsion
[ 11005 11000 10999 10996 ] final  179.12 input  -57.11 | X-H torsion

> <Gold.Protein.ActiveResidues>
 VAL166  LYS551  ARG553  GLY616  TRP617  ASP618  TYR619  PRO620  LYS621  CYS622 
 ASP623  PHE694  ASN695  SER759  ASP760  ASP761  ALA762  ILE779  LEU786  VAL792 
 PHE793  MET794  SER795  GLU796  ALA797  LYS798  CYS799  TRP800  GLU811  SER814 

> <Gold.Protein.RotatedAtoms>
  151.1797  133.4733  159.2593 H   0  0  0  0  0  0  0  0  0  0  0  0  # atno 6907 bound_to 6896
  151.1272  135.0111  159.8576 H   0  0  0  0  0  0  0  0  0  0  0  0  # atno 6908 bound_to 6896
  152.5458  134.1703  159.8647 H   0  0  0  0  0  0  0  0  0  0  0  0  # atno 6909 bound_to 6896
  145.6577  140.9262  143.0950 H   0  0  0  0  0  0  0  0  0  0  0  0  # atno 7974 bound_to 7965
  154.4240  140.1123  156.5680 H   0  0  0  0  0  0  0  0  0  0  0  0  # atno 8008 bound_to 7997
  155.6242  140.3495  155.4643 H   0  0  0  0  0  0  0  0  0  0  0  0  # atno 8009 bound_to 7997
  156.0000  140.1197  157.0546 H   0  0  0  0  0  0  0  0  0  0  0  0  # atno 8010 bound_to 7997
  140.2736  143.3327  152.0510 H   0  0  0  0  0  0  0  0  0  0  0  0  # atno 10167 bound_to 10162
  156.0904  130.6087  150.8921 H   0  0  0  0  0  0  0  0  0  0  0  0  # atno 10718 bound_to 10713
  153.1875  135.4469  155.0107 H   0  0  0  0  0  0  0  0  0  0  0  0  # atno 10763 bound_to 10752
  154.8069  135.3278  154.7409 H   0  0  0  0  0  0  0  0  0  0  0  0  # atno 10764 bound_to 10752
  153.7866  135.6973  153.4934 H   0  0  0  0  0  0  0  0  0  0  0  0  # atno 10765 bound_to 10752
  140.4026  134.6764  157.4570 H   0  0  0  0  0  0  0  0  0  0  0  0  # atno 11005 bound_to 11000
  144.7100  139.8409  143.7417 LP  0  0  0  0  0  0  0  0  0  0  0  0  # atno 17320 bound_to 7965
  146.1151  139.4161  143.0263 LP  0  0  0  0  0  0  0  0  0  0  0  0  # atno 17321 bound_to 7965
  139.4982  144.6639  151.6400 LP  0  0  0  0  0  0  0  0  0  0  0  0  # atno 17342 bound_to 10162
  140.5869  143.9848  150.6301 LP  0  0  0  0  0  0  0  0  0  0  0  0  # atno 17343 bound_to 10162
  157.6051  131.0939  150.8893 LP  0  0  0  0  0  0  0  0  0  0  0  0  # atno 17370 bound_to 10713
  156.9043  130.5258  149.5282 LP  0  0  0  0  0  0  0  0  0  0  0  0  # atno 17371 bound_to 10713
  140.0325  134.6385  155.9087 LP  0  0  0  0  0  0  0  0  0  0  0  0  # atno 17394 bound_to 11000
  141.1851  133.6554  156.5184 LP  0  0  0  0  0  0  0  0  0  0  0  0  # atno 17395 bound_to 11000

$$$$
