AV-unprocessed.smi:2030|AV-procd|sdf|8224|dock1
  -GOLD-   2272010493D 1   1.00000     0.00000
 Structure written by MMmdl.
 35 36  0  0  0  0  0  0  0  0  1 V2000
  153.7574  136.4394  164.1478 C   0  0  0  0  0  0  0  0  0  0  0  0
  154.1878  136.2032  162.7712 N   0  0  0  0  0  0  0  0  0  0  0  0
  154.0426  137.2841  161.9264 N   0  0  0  0  0  0  0  0  0  0  0  0
  154.5811  137.3133  160.7476 C   0  0  0  0  0  0  0  0  0  0  0  0
  154.4112  138.5109  159.8839 C   0  0  0  0  0  0  0  0  0  0  0  0
  154.9524  138.5822  158.7804 O   0  0  0  0  0  0  0  0  0  0  0  0
  153.6501  139.4960  160.3926 N   0  0  0  0  0  0  0  0  0  0  0  0
  153.4220  140.7943  159.7666 C   0  0  0  0  0  0  0  0  0  0  0  0
  152.6410  141.7577  160.6822 C   0  0  0  0  0  0  0  0  0  0  0  0
  152.3291  143.0928  160.0265 C   0  0  0  0  0  0  0  0  0  0  0  0
  152.6985  143.3418  158.6869 C   0  0  0  0  0  0  0  0  0  0  0  0
  152.4079  144.6034  158.1336 C   0  0  0  0  0  0  0  0  0  0  0  0
  151.7596  145.5621  158.9359 C   0  0  0  0  0  0  0  0  0  0  0  0
  151.4303  145.2149  160.2614 C   0  0  0  0  0  0  0  0  0  0  0  0
  151.7071  144.0088  160.8026 N   0  0  0  0  0  0  0  0  0  0  0  0
  155.4118  136.1479  160.2499 C   0  0  0  0  0  0  0  0  0  0  0  0
  154.9975  134.8177  160.9106 C   0  0  0  0  0  0  0  0  0  0  0  0
  154.6572  134.9876  162.3943 C   0  0  0  0  0  0  0  0  0  0  0  0
  154.7925  134.0374  163.1649 O   0  0  0  0  0  0  0  0  0  0  0  0
  154.5808  136.2702  164.8427 H   0  0  0  0  0  0  0  0  0  0  0  0
  152.9407  135.7679  164.4151 H   0  0  0  0  0  0  0  0  0  0  0  0
  153.4057  137.4616  164.2976 H   0  0  0  0  0  0  0  0  0  0  0  0
  153.2400  139.3519  161.3044 H   0  0  0  0  0  0  0  0  0  0  0  0
  154.3678  141.2418  159.4576 H   0  0  0  0  0  0  0  0  0  0  0  0
  152.8516  140.6191  158.8542 H   0  0  0  0  0  0  0  0  0  0  0  0
  151.7060  141.2906  160.9939 H   0  0  0  0  0  0  0  0  0  0  0  0
  153.2072  141.9338  161.5977 H   0  0  0  0  0  0  0  0  0  0  0  0
  153.2013  142.5872  158.0996 H   0  0  0  0  0  0  0  0  0  0  0  0
  152.6788  144.8317  157.1134 H   0  0  0  0  0  0  0  0  0  0  0  0
  151.5204  146.5402  158.5455 H   0  0  0  0  0  0  0  0  0  0  0  0
  150.9327  145.9255  160.9047 H   0  0  0  0  0  0  0  0  0  0  0  0
  155.3148  136.0427  159.1685 H   0  0  0  0  0  0  0  0  0  0  0  0
  156.4655  136.3483  160.4461 H   0  0  0  0  0  0  0  0  0  0  0  0
  154.1100  134.4222  160.4150 H   0  0  0  0  0  0  0  0  0  0  0  0
  155.7839  134.0721  160.7882 H   0  0  0  0  0  0  0  0  0  0  0  0
  1  2  1  0  0  0  0
  1 20  1  0  0  0  0
  1 21  1  0  0  0  0
  1 22  1  0  0  0  0
  2 18  1  0  0  0  0
  2  3  1  0  0  0  0
  3  4  2  0  0  0  0
  4  5  1  0  0  0  0
  4 16  1  0  0  0  0
  5  6  2  0  0  0  0
  5  7  1  0  0  0  0
  7  8  1  0  0  0  0
  7 23  1  0  0  0  0
  8  9  1  0  0  0  0
  8 24  1  0  0  0  0
  8 25  1  0  0  0  0
  9 10  1  0  0  0  0
  9 26  1  0  0  0  0
  9 27  1  0  0  0  0
 10 15  1  0  0  0  0
 10 11  2  0  0  0  0
 11 12  1  0  0  0  0
 11 28  1  0  0  0  0
 12 13  2  0  0  0  0
 12 29  1  0  0  0  0
 13 14  1  0  0  0  0
 13 30  1  0  0  0  0
 14 15  2  0  0  0  0
 14 31  1  0  0  0  0
 16 17  1  0  0  0  0
 16 32  1  0  0  0  0
 16 33  1  0  0  0  0
 17 18  1  0  0  0  0
 17 34  1  0  0  0  0
 17 35  1  0  0  0  0
 18 19  2  0  0  0  0
M  END
> <s_m_source_file>
AV-unprocessed.smi

> <i_m_source_file_index>
2030

> <i_lp_mmshare_version>
43012

> <i_f3d_flags>
0

> <s_epik_input>
Tz1DMVtDSDJdW0NIMl1DKD1OTjFbQ0gzXSlDKD1PKVtOSF1bQ0gyXVtDSDJdYzJbY0hdW2NIXVtjSF1bY0hdbjI=

> <s_epik_cmdline>
J2VwaWtfcHl0aG9uJywgJy1waCcsICc3LjAnLCAnLXRuJywgJzgnLCAnLW1hJywgJzIwMCcsICctbWV0YWxfYmluZGluZycsICctaW1hZScsICc8aW5maWxlLm1hZT4nLCAnLW9tYWUnLCAnPG91dGZpbGUubWFlPic=

> <r_epik_Ionization_Penalty>
0.0175455

> <r_epik_Ionization_Penalty_Charging>
0

> <r_epik_Ionization_Penalty_Neutral>
0.0175455

> <r_epik_State_Penalty>
0.0138544

> <r_epik_Charging_Adjusted_Penalty>
0.0138544

> <i_epik_Tot_Q>
0

> <i_epik_Tot_abs_Q>
0

> <r_epik_Metal_State_Penalty>
0.0690211

> <b_epik_Metal_Only>
0

> <s_epik_Chemistry_Notes>
This compound has an imine and may undergo hydrolysis.

> <s_lp_Force_Field>
OPLS_2005

> <r_lp_Energy>
15.1803

> <b_lp_Chiralities_Consistent>
1

> <s_lp_Variant>
AV-unprocessed.smi:2030-1

> <Gold.Version>
5.8.1

> <Gold.Id.Protein>
6NUR|6NUR_protein|mol2

> <Gold.PLP.Fitness>
45.0593

> <Gold.PLP.PLP>
-42.1471

> <Gold.PLP.part.hbond>
-1.0000

> <Gold.PLP.part.metal>
0.0000

> <Gold.PLP.part.buried>
-4.2331

> <Gold.PLP.part.nonpolar>
-37.5193

> <Gold.PLP.part.repulsive>
0.1865

> <Gold.PLP.ligand.clash>
0.0000

> <Gold.PLP.ligand.torsion>
0.0354

> <Gold.PLP.Chemscore.Hbond>
0.9913

> <Gold.PLP.Chemscore.CHOScore>
0.0000

> <Gold.PLP.Chemscore.Metal>
0.0000

> <Gold.Chemscore.Hbonds>
donor molecule, donor type, donor heavy atom, donor atom, acceptor molecule, acceptor atom, score
      P1  H  7997  8008       L1     6  0.98

> <Gold.PLP.Chemscore.Internal.Correction>
0.0091

> <Gold.Rescore>
     Score         DG    S(hbond)    S(metal)    S(lipo)     H(rot)  DE(clash)    DE(int)     intcor
     17.28     -17.37       0.94        0.00     106.40       1.45       0.06       0.03       ----

> <Gold.Chemscore.Fitness>
17.2843

> <Gold.Chemscore.DG>
-17.3715

> <Gold.Chemscore.ZeroCoef>
-5.4800

> <Gold.Chemscore.Hbond>
0.9430

> <Gold.Chemscore.Metal>
0.0000

> <Gold.Chemscore.Lipo>
106.4004

> <Gold.Chemscore.Internal_Hbond>
0.0000

> <Gold.Chemscore.DEClash>
0.0571

> <Gold.Chemscore.DEInternal>
0.0300

> <Gold.Chemscore.Rot>
1.4480

> <Gold.Chemscore.Internal.Correction>
   9.000000E+99

> <Gold.Chemscore.Hbonds>
donor molecule, donor type, donor heavy atom, donor atom, acceptor molecule, acceptor atom, score
      P1  H  7997  8008       L1     6  0.92

> <Gold.Chemscore.Hbond.Weighted>
-3.1496

> <Gold.Chemscore.Metal.Weighted>
-0.0000

> <Gold.Chemscore.Lipo.Weighted>
-12.4488

> <Gold.Chemscore.Internal_Hbond.Weighted>
0.0000

> <Gold.Chemscore.DEClash.Weighted>
0.0571

> <Gold.Chemscore.DEInternal.Weighted>
0.0300

> <Gold.Chemscore.Rot.Weighted>
3.7070

> <Gold.Chemscore.Internal.Correction.Weighted>
   9.000000E+99

> <Gold.Protein.RotatedTorsions>
[ 6907 6896 6895 6894 ] final  171.79 input  -60.11 | X-H torsion
[ 7974 7965 7964 7962 ] final  -71.16 input  175.53 | X-H torsion
[ 8008 7997 7996 7995 ] final -116.68 input   59.86 | X-H torsion
[ 10167 10162 10161 10158 ] final -143.05 input  -65.29 | X-H torsion
[ 10718 10713 10712 10709 ] final  177.27 input   66.30 | X-H torsion
[ 10763 10752 10751 10750 ] final   60.40 input  -60.55 | X-H torsion
[ 11005 11000 10999 10996 ] final -178.00 input  -57.11 | X-H torsion

> <Gold.Protein.ActiveResidues>
 VAL166  LYS551  ARG553  GLY616  TRP617  ASP618  TYR619  PRO620  LYS621  CYS622 
 ASP623  PHE694  ASN695  SER759  ASP760  ASP761  ALA762  ILE779  LEU786  VAL792 
 PHE793  MET794  SER795  GLU796  ALA797  LYS798  CYS799  TRP800  GLU811  SER814 

> <Gold.Protein.RotatedAtoms>
  151.7946  133.3363  159.3508 H   0  0  0  0  0  0  0  0  0  0  0  0  # atno 6907 bound_to 6896
  150.7380  134.5811  159.5948 H   0  0  0  0  0  0  0  0  0  0  0  0  # atno 6908 bound_to 6896
  152.3186  134.7410  160.0370 H   0  0  0  0  0  0  0  0  0  0  0  0  # atno 6909 bound_to 6896
  145.6816  140.9185  143.0829 H   0  0  0  0  0  0  0  0  0  0  0  0  # atno 7974 bound_to 7965
  155.0717  140.0393  157.2610 H   0  0  0  0  0  0  0  0  0  0  0  0  # atno 8008 bound_to 7997
  154.6977  140.2667  155.6725 H   0  0  0  0  0  0  0  0  0  0  0  0  # atno 8009 bound_to 7997
  156.2750  140.2747  156.1577 H   0  0  0  0  0  0  0  0  0  0  0  0  # atno 8010 bound_to 7997
  139.8030  143.7807  152.2659 H   0  0  0  0  0  0  0  0  0  0  0  0  # atno 10167 bound_to 10162
  156.9078  130.9900  151.3025 H   0  0  0  0  0  0  0  0  0  0  0  0  # atno 10718 bound_to 10713
  152.9920  135.5538  154.5867 H   0  0  0  0  0  0  0  0  0  0  0  0  # atno 10763 bound_to 10752
  154.5237  135.2809  155.1242 H   0  0  0  0  0  0  0  0  0  0  0  0  # atno 10764 bound_to 10752
  154.2585  135.6385  153.5319 H   0  0  0  0  0  0  0  0  0  0  0  0  # atno 10765 bound_to 10752
  140.4347  134.6487  157.4729 H   0  0  0  0  0  0  0  0  0  0  0  0  # atno 11005 bound_to 11000
  144.7024  139.8704  143.7440 LP  0  0  0  0  0  0  0  0  0  0  0  0  # atno 17320 bound_to 7965
  146.0959  139.3951  143.0377 LP  0  0  0  0  0  0  0  0  0  0  0  0  # atno 17321 bound_to 7965
  139.7933  144.7402  150.9925 LP  0  0  0  0  0  0  0  0  0  0  0  0  # atno 17342 bound_to 10162
  140.7820  143.4420  151.0538 LP  0  0  0  0  0  0  0  0  0  0  0  0  # atno 17343 bound_to 10162
  157.5986  130.8496  149.8768 LP  0  0  0  0  0  0  0  0  0  0  0  0  # atno 17370 bound_to 10713
  156.0550  130.3710  150.1111 LP  0  0  0  0  0  0  0  0  0  0  0  0  # atno 17371 bound_to 10713
  140.0110  134.6690  155.9380 LP  0  0  0  0  0  0  0  0  0  0  0  0  # atno 17394 bound_to 11000
  141.1731  133.6538  156.4725 LP  0  0  0  0  0  0  0  0  0  0  0  0  # atno 17395 bound_to 11000

$$$$
