AV-unprocessed.smi:1476|AV-procd|sdf|5980|dock1
  -GOLD-   22720 6 73D 1   1.00000     0.00000
 Structure written by MMmdl.
 41 42  0  0  0  0  0  0  0  0  1 V2000
  150.9318  142.3314  157.4637 C   0  0  0  0  0  0  0  0  0  0  0  0
  150.9613  140.5428  157.0363 S   0  0  0  0  0  0  0  0  0  0  0  0
  152.3514  140.0718  157.1331 O   0  0  0  0  0  0  0  0  0  0  0  0
  149.9078  139.8686  157.8104 O   0  0  0  0  0  0  0  0  0  0  0  0
  150.5003  140.4994  155.3586 N   0  0  0  0  0  0  0  0  0  0  0  0
  150.6513  139.2525  154.5829 C   0  0  0  0  0  0  0  0  0  0  0  0
  149.3088  138.5191  154.4195 C   0  0  0  0  0  0  0  0  0  0  0  0
  148.2329  139.4335  153.8127 C   0  0  0  0  0  0  0  0  0  0  0  0
  146.8969  138.6793  153.6416 C   0  0  0  0  0  0  0  0  0  0  0  0
  147.0468  137.4253  152.9098 N   0  0  0  0  0  0  0  0  0  0  0  0
  146.0359  136.6309  152.5285 C   0  0  0  0  0  0  0  0  0  0  0  0
  144.8525  136.8829  152.7578 O   0  0  0  0  0  0  0  0  0  0  0  0
  146.4888  135.5465  151.8746 N   0  0  0  0  0  0  0  0  0  0  0  0
  145.7381  134.4645  151.3420 C   0  0  0  0  0  0  0  0  0  0  0  0
  146.5078  133.4204  150.7803 C   0  0  0  0  0  0  0  0  0  0  0  0
  145.8576  132.2995  150.2283 C   0  0  0  0  0  0  0  0  0  0  0  0
  144.4525  132.2506  150.2533 C   0  0  0  0  0  0  0  0  0  0  0  0
  143.7617  133.3314  150.8317 C   0  0  0  0  0  0  0  0  0  0  0  0
  144.3827  134.4069  151.3603 N   0  0  0  0  0  0  0  0  0  0  0  0
  148.1020  140.6910  154.6920 C   0  0  0  0  0  0  0  0  0  0  0  0
  149.4525  141.4107  154.8584 C   0  0  0  0  0  0  0  0  0  0  0  0
  151.2097  142.4510  158.5104 H   0  0  0  0  0  0  0  0  0  0  0  0
  149.9304  142.7317  157.3164 H   0  0  0  0  0  0  0  0  0  0  0  0
  151.6455  142.8723  156.8449 H   0  0  0  0  0  0  0  0  0  0  0  0
  151.0497  139.5059  153.5999 H   0  0  0  0  0  0  0  0  0  0  0  0
  151.3858  138.5989  155.0523 H   0  0  0  0  0  0  0  0  0  0  0  0
  149.4527  137.6454  153.7829 H   0  0  0  0  0  0  0  0  0  0  0  0
  148.9712  138.1390  155.3831 H   0  0  0  0  0  0  0  0  0  0  0  0
  148.5783  139.7434  152.8251 H   0  0  0  0  0  0  0  0  0  0  0  0
  146.4478  138.4793  154.6160 H   0  0  0  0  0  0  0  0  0  0  0  0
  146.1844  139.3020  153.1001 H   0  0  0  0  0  0  0  0  0  0  0  0
  147.9882  137.1435  152.6791 H   0  0  0  0  0  0  0  0  0  0  0  0
  147.4882  135.4831  151.7497 H   0  0  0  0  0  0  0  0  0  0  0  0
  147.5869  133.4733  150.7700 H   0  0  0  0  0  0  0  0  0  0  0  0
  146.4275  131.4915  149.7937 H   0  0  0  0  0  0  0  0  0  0  0  0
  143.9182  131.4076  149.8408 H   0  0  0  0  0  0  0  0  0  0  0  0
  142.6826  133.3327  150.8715 H   0  0  0  0  0  0  0  0  0  0  0  0
  147.3861  141.3860  154.2527 H   0  0  0  0  0  0  0  0  0  0  0  0
  147.7001  140.4194  155.6673 H   0  0  0  0  0  0  0  0  0  0  0  0
  149.3458  142.2675  155.5230 H   0  0  0  0  0  0  0  0  0  0  0  0
  149.7743  141.8079  153.8950 H   0  0  0  0  0  0  0  0  0  0  0  0
  1  2  1  0  0  0  0
  1 22  1  0  0  0  0
  1 23  1  0  0  0  0
  1 24  1  0  0  0  0
  2  3  2  0  0  0  0
  2  4  2  0  0  0  0
  2  5  1  0  0  0  0
  5 21  1  0  0  0  0
  5  6  1  0  0  0  0
  6  7  1  0  0  0  0
  6 25  1  0  0  0  0
  6 26  1  0  0  0  0
  7  8  1  0  0  0  0
  7 27  1  0  0  0  0
  7 28  1  0  0  0  0
  8  9  1  0  0  0  0
  8 20  1  0  0  0  0
  8 29  1  0  0  0  0
  9 10  1  0  0  0  0
  9 30  1  0  0  0  0
  9 31  1  0  0  0  0
 10 11  1  0  0  0  0
 10 32  1  0  0  0  0
 11 12  2  0  0  0  0
 11 13  1  0  0  0  0
 13 14  1  0  0  0  0
 13 33  1  0  0  0  0
 14 19  1  0  0  0  0
 14 15  2  0  0  0  0
 15 16  1  0  0  0  0
 15 34  1  0  0  0  0
 16 17  2  0  0  0  0
 16 35  1  0  0  0  0
 17 18  1  0  0  0  0
 17 36  1  0  0  0  0
 18 19  2  0  0  0  0
 18 37  1  0  0  0  0
 20 21  1  0  0  0  0
 20 38  1  0  0  0  0
 20 39  1  0  0  0  0
 21 40  1  0  0  0  0
 21 41  1  0  0  0  0
M  END
> <s_m_source_file>
AV-unprocessed.smi

> <i_m_source_file_index>
1476

> <i_lp_mmshare_version>
43012

> <i_f3d_flags>
0

> <s_epik_input>
W0NIM11TKD1PKSg9TylOMVtDSDJdW0NIMl1bQ0hdKFtDSDJdW0NIMl0xKVtDSDJdW05IXUMoPU8pW05IXWMyW2NIXVtjSF1bY0hdW2NIXW4y

> <s_epik_cmdline>
J2VwaWtfcHl0aG9uJywgJy1waCcsICc3LjAnLCAnLXRuJywgJzgnLCAnLW1hJywgJzIwMCcsICctbWV0YWxfYmluZGluZycsICctaW1hZScsICc8aW5maWxlLm1hZT4nLCAnLW9tYWUnLCAnPG91dGZpbGUubWFlPic=

> <r_lp_tautomer_probability>
1

> <r_epik_Ionization_Penalty>
4.9822e-05

> <r_epik_Ionization_Penalty_Charging>
0

> <r_epik_Ionization_Penalty_Neutral>
4.9822e-05

> <r_epik_State_Penalty>
-0

> <r_epik_Charging_Adjusted_Penalty>
0

> <i_epik_Tot_Q>
0

> <i_epik_Tot_abs_Q>
0

> <r_epik_Metal_State_Penalty>
-0

> <b_epik_Metal_Only>
0

> <s_lp_Force_Field>
OPLS_2005

> <r_lp_Energy>
3.82985

> <b_lp_Chiralities_Consistent>
1

> <s_lp_Variant>
AV-unprocessed.smi:1476-1

> <Gold.Version>
5.8.1

> <Gold.Id.Protein>
6NUR|6NUR_protein|mol2

> <Gold.PLP.Fitness>
47.8078

> <Gold.PLP.PLP>
-36.2174

> <Gold.PLP.part.hbond>
-2.8297

> <Gold.PLP.part.metal>
0.0000

> <Gold.PLP.part.buried>
-1.0117

> <Gold.PLP.part.nonpolar>
-32.1262

> <Gold.PLP.part.repulsive>
0.4144

> <Gold.PLP.ligand.clash>
0.0000

> <Gold.PLP.ligand.torsion>
1.2294

> <Gold.PLP.Chemscore.Hbond>
2.9920

> <Gold.PLP.Chemscore.CHOScore>
1.0000

> <Gold.PLP.Chemscore.Metal>
0.0000

> <Gold.Chemscore.Hbonds>
donor molecule, donor type, donor heavy atom, donor atom, acceptor molecule, acceptor atom, score
      L1  H    10    32       P1  7948  0.99
      L1  H    13    33       P1  7948  0.98
      P1  H  7997  8008       L1     3  0.86
      L1  C    18    37       P1 10186  1.00

> <Gold.PLP.Chemscore.Internal.Correction>
2.0732

> <Gold.Rescore>
     Score         DG    S(hbond)    S(metal)    S(lipo)     H(rot)  DE(clash)    DE(int)     intcor
     18.43     -21.07       2.94        0.00      78.09       1.32       0.16       2.48       ----

> <Gold.Chemscore.Fitness>
18.4276

> <Gold.Chemscore.DG>
-21.0748

> <Gold.Chemscore.ZeroCoef>
-5.4800

> <Gold.Chemscore.Hbond>
2.9421

> <Gold.Chemscore.Metal>
0.0000

> <Gold.Chemscore.Lipo>
78.0888

> <Gold.Chemscore.Internal_Hbond>
0.0000

> <Gold.Chemscore.DEClash>
0.1628

> <Gold.Chemscore.DEInternal>
2.4844

> <Gold.Chemscore.Rot>
1.3157

> <Gold.Chemscore.Internal.Correction>
   9.000000E+99

> <Gold.Chemscore.Hbonds>
donor molecule, donor type, donor heavy atom, donor atom, acceptor molecule, acceptor atom, score
      L1  H    10    32       P1  7948  0.89
      L1  H    13    33       P1  7948  0.91
      P1  H  7997  8008       L1     3  0.82

> <Gold.Chemscore.Hbond.Weighted>
-9.8266

> <Gold.Chemscore.Metal.Weighted>
-0.0000

> <Gold.Chemscore.Lipo.Weighted>
-9.1364

> <Gold.Chemscore.Internal_Hbond.Weighted>
0.0000

> <Gold.Chemscore.DEClash.Weighted>
0.1628

> <Gold.Chemscore.DEInternal.Weighted>
2.4844

> <Gold.Chemscore.Rot.Weighted>
3.3682

> <Gold.Chemscore.Internal.Correction.Weighted>
   9.000000E+99

> <Gold.Protein.RotatedTorsions>
[ 6907 6896 6895 6894 ] final   -3.77 input  -60.11 | X-H torsion
[ 7974 7965 7964 7962 ] final   67.52 input  175.53 | X-H torsion
[ 8008 7997 7996 7995 ] final  -53.71 input   59.86 | X-H torsion
[ 10167 10162 10161 10158 ] final  -86.96 input  -65.29 | X-H torsion
[ 10718 10713 10712 10709 ] final  159.82 input   66.30 | X-H torsion
[ 10763 10752 10751 10750 ] final -157.91 input  -60.55 | X-H torsion
[ 11005 11000 10999 10996 ] final   -5.57 input  -57.11 | X-H torsion

> <Gold.Protein.ActiveResidues>
 VAL166  LYS551  ARG553  GLY616  TRP617  ASP618  TYR619  PRO620  LYS621  CYS622 
 ASP623  PHE694  ASN695  SER759  ASP760  ASP761  ALA762  ILE779  LEU786  VAL792 
 PHE793  MET794  SER795  GLU796  ALA797  LYS798  CYS799  TRP800  GLU811  SER814 

> <Gold.Protein.RotatedAtoms>
  151.5084  135.1064  159.9847 H   0  0  0  0  0  0  0  0  0  0  0  0  # atno 6907 bound_to 6896
  152.4672  133.7945  159.6930 H   0  0  0  0  0  0  0  0  0  0  0  0  # atno 6908 bound_to 6896
  150.8662  133.7508  159.3001 H   0  0  0  0  0  0  0  0  0  0  0  0  # atno 6909 bound_to 6896
  145.8136  139.3046  143.1084 H   0  0  0  0  0  0  0  0  0  0  0  0  # atno 7974 bound_to 7965
  154.4141  140.1193  156.5197 H   0  0  0  0  0  0  0  0  0  0  0  0  # atno 8008 bound_to 7997
  155.6715  140.3496  155.4801 H   0  0  0  0  0  0  0  0  0  0  0  0  # atno 8009 bound_to 7997
  155.9629  140.1126  157.0870 H   0  0  0  0  0  0  0  0  0  0  0  0  # atno 8010 bound_to 7997
  140.3891  143.2713  151.9287 H   0  0  0  0  0  0  0  0  0  0  0  0  # atno 10167 bound_to 10162
  157.1589  131.0582  151.2242 H   0  0  0  0  0  0  0  0  0  0  0  0  # atno 10718 bound_to 10713
  154.7599  135.3115  154.8399 H   0  0  0  0  0  0  0  0  0  0  0  0  # atno 10763 bound_to 10752
  153.9162  135.6800  153.4753 H   0  0  0  0  0  0  0  0  0  0  0  0  # atno 10764 bound_to 10752
  153.1199  135.4827  154.9108 H   0  0  0  0  0  0  0  0  0  0  0  0  # atno 10765 bound_to 10752
  140.6925  133.9059  155.8628 H   0  0  0  0  0  0  0  0  0  0  0  0  # atno 11005 bound_to 11000
  145.9751  140.8729  143.0143 LP  0  0  0  0  0  0  0  0  0  0  0  0  # atno 17320 bound_to 7965
  144.6755  140.2000  143.7388 LP  0  0  0  0  0  0  0  0  0  0  0  0  # atno 17321 bound_to 7965
  139.4790  144.5745  151.8035 LP  0  0  0  0  0  0  0  0  0  0  0  0  # atno 17342 bound_to 10162
  140.4858  144.1383  150.5941 LP  0  0  0  0  0  0  0  0  0  0  0  0  # atno 17343 bound_to 10162
  157.4151  130.7406  149.6869 LP  0  0  0  0  0  0  0  0  0  0  0  0  # atno 17370 bound_to 10713
  155.9757  130.4085  150.3830 LP  0  0  0  0  0  0  0  0  0  0  0  0  # atno 17371 bound_to 10713
  141.0229  134.0863  157.4100 LP  0  0  0  0  0  0  0  0  0  0  0  0  # atno 17394 bound_to 11000
  139.8919  135.0121  156.6818 LP  0  0  0  0  0  0  0  0  0  0  0  0  # atno 17395 bound_to 11000

$$$$
