AV-unprocessed.smi:57|AV-procd|sdf|581|dock6
  -GOLD-   2262016483D 1   1.00000     0.00000
 Structure written by MMmdl.
 27 28  0  0  0  0  0  0  0  0  1 V2000
  150.7908  136.8134  154.0652 N   0  0  0  0  0  0  0  0  0  0  0  0
  150.9252  137.9410  154.7757 C   0  0  0  0  0  0  0  0  0  0  0  0
  151.9230  137.9559  155.7479 N   0  0  0  0  0  0  0  0  0  0  0  0
  152.1977  139.0518  156.5767 C   0  0  0  0  0  0  0  0  0  0  0  0
  153.0995  138.9723  157.4081 O   0  0  0  0  0  0  0  0  0  0  0  0
  151.3306  140.1640  156.3078 C   0  0  0  0  0  0  0  0  0  0  0  0
  151.2760  141.4248  156.8963 N   0  0  0  0  0  0  0  0  0  0  0  0
  150.3102  142.0318  156.2636 C   0  0  0  0  0  0  0  0  0  0  0  0
  149.7102  141.2640  155.2969 N   0  0  0  0  0  0  0  0  0  0  0  0
  148.6217  141.6072  154.4038 C   0  0  0  0  0  0  0  0  0  0  0  0
  147.6871  140.5827  154.4750 O   0  0  0  0  0  0  0  0  0  0  0  0
  146.9764  140.3853  153.2643 C   0  0  0  0  0  0  0  0  0  0  0  0
  147.0089  138.8931  152.9195 C   0  0  0  0  0  0  0  0  0  0  0  0
  147.0647  138.7237  151.5200 O   0  0  0  0  0  0  0  0  0  0  0  0
  150.3690  140.0546  155.3226 C   0  0  0  0  0  0  0  0  0  0  0  0
  150.1268  138.9648  154.5301 N   0  0  0  0  0  0  0  0  0  0  0  0
  151.3952  136.0240  154.2414 H   0  0  0  0  0  0  0  0  0  0  0  0
  150.0813  136.7555  153.3487 H   0  0  0  0  0  0  0  0  0  0  0  0
  152.4942  137.1334  155.8755 H   0  0  0  0  0  0  0  0  0  0  0  0
  150.0146  143.0476  156.4826 H   0  0  0  0  0  0  0  0  0  0  0  0
  149.0059  141.7046  153.3871 H   0  0  0  0  0  0  0  0  0  0  0  0
  148.1984  142.5610  154.7245 H   0  0  0  0  0  0  0  0  0  0  0  0
  145.9439  140.7215  153.3750 H   0  0  0  0  0  0  0  0  0  0  0  0
  147.4328  140.9693  152.4631 H   0  0  0  0  0  0  0  0  0  0  0  0
  147.8773  138.4138  153.3723 H   0  0  0  0  0  0  0  0  0  0  0  0
  146.1202  138.3929  153.3053 H   0  0  0  0  0  0  0  0  0  0  0  0
  146.2338  138.9857  151.1534 H   0  0  0  0  0  0  0  0  0  0  0  0
  1  2  1  0  0  0  0
  1 18  1  0  0  0  0
  1 17  1  0  0  0  0
  2 16  2  0  0  0  0
  2  3  1  0  0  0  0
  3 19  1  0  0  0  0
  3  4  1  0  0  0  0
  4  5  2  0  0  0  0
  4  6  1  0  0  0  0
  6 15  2  0  0  0  0
  6  7  1  0  0  0  0
  7  8  2  0  0  0  0
  8 20  1  0  0  0  0
  8  9  1  0  0  0  0
  9 10  1  0  0  0  0
  9 15  1  0  0  0  0
 10 11  1  0  0  0  0
 10 21  1  0  0  0  0
 10 22  1  0  0  0  0
 11 12  1  0  0  0  0
 12 13  1  0  0  0  0
 12 23  1  0  0  0  0
 12 24  1  0  0  0  0
 13 14  1  0  0  0  0
 13 25  1  0  0  0  0
 13 26  1  0  0  0  0
 14 27  1  0  0  0  0
 15 16  1  0  0  0  0
M  END
> <s_m_source_file>
AV-unprocessed.smi

> <i_m_source_file_index>
57

> <i_lp_mmshare_version>
43012

> <i_f3d_flags>
0

> <s_epik_input>
Tz1jMW5jKFtOSDJdKVtuSF1jKGMxMiluKFtjSF1uMilbQ0gyXU9bQ0gyXVtDSDJdW09IXQ==

> <s_epik_cmdline>
J2VwaWtfcHl0aG9uJywgJy1waCcsICc3LjAnLCAnLXRuJywgJzgnLCAnLW1hJywgJzIwMCcsICctbWV0YWxfYmluZGluZycsICctaW1hZScsICc8aW5maWxlLm1hZT4nLCAnLW9tYWUnLCAnPG91dGZpbGUubWFlPic=

> <r_lp_tautomer_probability>
1

> <r_epik_Ionization_Penalty>
0.00151458

> <r_epik_Ionization_Penalty_Charging>
0.0014384

> <r_epik_Ionization_Penalty_Neutral>
7.61793e-05

> <r_epik_State_Penalty>
-0

> <r_epik_Charging_Adjusted_Penalty>
0.0014384

> <i_epik_Tot_Q>
0

> <i_epik_Tot_abs_Q>
0

> <r_epik_Metal_State_Penalty>
0.317918

> <b_epik_Metal_Only>
0

> <s_epik_Chemistry_Notes>
This compound contains an acetal/aminal-like group ( X-CH(R)-Y where X, Y are N, S, or O) that may be acid/base labile, releasing an aldehyde.

> <s_lp_Force_Field>
OPLS_2005

> <r_lp_Energy>
2.65481

> <b_lp_Chiralities_Consistent>
1

> <s_lp_Variant>
AV-unprocessed.smi:57-1

> <Gold.Version>
5.8.1

> <Gold.Id.Protein>
6NUR|6NUR_protein|mol2

> <Gold.PLP.Fitness>
38.4248

> <Gold.PLP.PLP>
-29.0609

> <Gold.PLP.part.hbond>
-5.9841

> <Gold.PLP.part.metal>
0.0000

> <Gold.PLP.part.buried>
-0.9758

> <Gold.PLP.part.nonpolar>
-22.3166

> <Gold.PLP.part.repulsive>
0.5265

> <Gold.PLP.ligand.clash>
0.0000

> <Gold.PLP.ligand.torsion>
0.8717

> <Gold.PLP.Chemscore.Hbond>
2.7000

> <Gold.PLP.Chemscore.CHOScore>
1.0000

> <Gold.PLP.Chemscore.Metal>
0.0000

> <Gold.Chemscore.Hbonds>
donor molecule, donor type, donor heavy atom, donor atom, acceptor molecule, acceptor atom, score
      L1  H     1    18       P1  7948  0.75
      P1  H  7954  7966       L1    14  0.73
      P1  H  7997  8008       L1     5  1.00
      L1  C     8    20       P1  8028  1.00

> <Gold.PLP.Chemscore.Internal.Correction>
0.0072

> <Gold.Rescore>
     Score         DG    S(hbond)    S(metal)    S(lipo)     H(rot)  DE(clash)    DE(int)     intcor
      1.39      -3.77       1.58        0.00      21.99       3.74       0.47       1.91       ----

> <Gold.Chemscore.Fitness>
1.3882

> <Gold.Chemscore.DG>
-3.7705

> <Gold.Chemscore.ZeroCoef>
-5.4800

> <Gold.Chemscore.Hbond>
1.5836

> <Gold.Chemscore.Metal>
0.0000

> <Gold.Chemscore.Lipo>
21.9852

> <Gold.Chemscore.Internal_Hbond>
0.0000

> <Gold.Chemscore.DEClash>
0.4715

> <Gold.Chemscore.DEInternal>
1.9108

> <Gold.Chemscore.Rot>
3.7387

> <Gold.Chemscore.Internal.Correction>
   9.000000E+99

> <Gold.Chemscore.Hbonds>
donor molecule, donor type, donor heavy atom, donor atom, acceptor molecule, acceptor atom, score
      L1  H     1    18       P1  7948  0.09
      P1  H  7954  7966       L1    14  0.39
      P1  H  7997  8008       L1     5  0.60

> <Gold.Chemscore.Hbond.Weighted>
-5.2892

> <Gold.Chemscore.Metal.Weighted>
-0.0000

> <Gold.Chemscore.Lipo.Weighted>
-2.5723

> <Gold.Chemscore.Internal_Hbond.Weighted>
0.0000

> <Gold.Chemscore.DEClash.Weighted>
0.4715

> <Gold.Chemscore.DEInternal.Weighted>
1.9108

> <Gold.Chemscore.Rot.Weighted>
9.5710

> <Gold.Chemscore.Internal.Correction.Weighted>
   9.000000E+99

> <Gold.Protein.RotatedTorsions>
[ 6907 6896 6895 6894 ] final -131.36 input  -60.11 | X-H torsion
[ 7974 7965 7964 7962 ] final  -59.51 input  175.53 | X-H torsion
[ 8008 7997 7996 7995 ] final  -72.60 input   59.86 | X-H torsion
[ 10167 10162 10161 10158 ] final   86.04 input  -65.29 | X-H torsion
[ 10718 10713 10712 10709 ] final   73.85 input   66.30 | X-H torsion
[ 10763 10752 10751 10750 ] final -175.33 input  -60.55 | X-H torsion
[ 11005 11000 10999 10996 ] final    5.18 input  -57.11 | X-H torsion

> <Gold.Protein.ActiveResidues>
 VAL166  LYS551  ARG553  GLY616  TRP617  ASP618  TYR619  PRO620  LYS621  CYS622 
 ASP623  PHE694  ASN695  SER759  ASP760  ASP761  ALA762  ILE779  LEU786  VAL792 
 PHE793  MET794  SER795  GLU796  ALA797  LYS798  CYS799  TRP800  GLU811  SER814 

> <Gold.Protein.RotatedAtoms>
  150.9501  133.6559  159.2773 H   0  0  0  0  0  0  0  0  0  0  0  0  # atno 6907 bound_to 6896
  151.3918  135.0956  159.9538 H   0  0  0  0  0  0  0  0  0  0  0  0  # atno 6908 bound_to 6896
  152.5106  133.9014  159.7497 H   0  0  0  0  0  0  0  0  0  0  0  0  # atno 6909 bound_to 6896
  145.8266  140.8506  143.0105 H   0  0  0  0  0  0  0  0  0  0  0  0  # atno 7974 bound_to 7965
  154.5179  140.0794  156.8116 H   0  0  0  0  0  0  0  0  0  0  0  0  # atno 8008 bound_to 7997
  155.3640  140.3419  155.4223 H   0  0  0  0  0  0  0  0  0  0  0  0  # atno 8009 bound_to 7997
  156.1648  140.1600  156.8537 H   0  0  0  0  0  0  0  0  0  0  0  0  # atno 8010 bound_to 7997
  139.8916  144.6382  150.8732 H   0  0  0  0  0  0  0  0  0  0  0  0  # atno 10167 bound_to 10162
  157.6566  130.9649  150.1128 H   0  0  0  0  0  0  0  0  0  0  0  0  # atno 10718 bound_to 10713
  154.5856  135.2840  155.0688 H   0  0  0  0  0  0  0  0  0  0  0  0  # atno 10763 bound_to 10752
  154.2008  135.6425  153.5090 H   0  0  0  0  0  0  0  0  0  0  0  0  # atno 10764 bound_to 10752
  153.0103  135.5468  154.6525 H   0  0  0  0  0  0  0  0  0  0  0  0  # atno 10765 bound_to 10752
  140.5736  134.0079  155.8018 H   0  0  0  0  0  0  0  0  0  0  0  0  # atno 11005 bound_to 11000
  144.6743  140.0611  143.7476 LP  0  0  0  0  0  0  0  0  0  0  0  0  # atno 17320 bound_to 7965
  145.9617  139.2805  143.1152 LP  0  0  0  0  0  0  0  0  0  0  0  0  # atno 17321 bound_to 7965
  140.7725  143.3505  151.2023 LP  0  0  0  0  0  0  0  0  0  0  0  0  # atno 17342 bound_to 10162
  139.7104  143.9385  152.2945 LP  0  0  0  0  0  0  0  0  0  0  0  0  # atno 17343 bound_to 10162
  156.2020  130.3661  149.8776 LP  0  0  0  0  0  0  0  0  0  0  0  0  # atno 17370 bound_to 10713
  156.6677  130.8808  151.3557 LP  0  0  0  0  0  0  0  0  0  0  0  0  # atno 17371 bound_to 10713
  141.1041  133.9722  157.3028 LP  0  0  0  0  0  0  0  0  0  0  0  0  # atno 17394 bound_to 11000
  139.9350  135.0197  156.8526 LP  0  0  0  0  0  0  0  0  0  0  0  0  # atno 17395 bound_to 11000

$$$$
