AV-unprocessed.smi:3314|AV-procd|sdf|12735|dock2
  -GOLD-   2272019 83D 1   1.00000     0.00000
 Structure written by MMmdl.
 37 38  0  0  0  0  0  0  0  0  1 V2000
  151.5908  145.5767  159.9741 C   0  0  0  0  0  0  0  0  0  0  0  0
  151.8710  144.1338  159.6100 C   0  0  0  0  0  0  0  0  0  0  0  0
  152.7450  143.3490  160.3865 C   0  0  0  0  0  0  0  0  0  0  0  0
  152.9621  142.0131  159.9968 C   0  0  0  0  0  0  0  0  0  0  0  0
  153.8885  141.1114  160.7850 C   0  0  0  0  0  0  0  0  0  0  0  0
  152.3721  141.4548  158.9185 N   0  0  0  0  0  0  0  0  0  0  0  0
  151.5282  142.2007  158.1632 C   0  0  0  0  0  0  0  0  0  0  0  0
  150.8576  141.7079  157.0128 N   0  0  0  0  0  0  0  0  0  0  0  0
  151.2726  140.7698  156.1397 C   0  0  0  0  0  0  0  0  0  0  0  0
  152.3401  140.1617  156.2295 O   0  0  0  0  0  0  0  0  0  0  0  0
  150.3032  140.4564  154.9910 C   0  0  2  0  0  0  0  0  0  0  0  0
  149.0942  141.4191  154.9412 C   0  0  0  0  0  0  0  0  0  0  0  0
  148.1557  141.0584  153.8857 N   0  0  0  0  0  0  0  0  0  0  0  0
  147.0179  141.9647  153.8472 C   0  0  0  0  0  0  0  0  0  0  0  0
  147.7352  139.6742  154.0546 C   0  0  0  0  0  0  0  0  0  0  0  0
  148.9390  138.7187  154.1012 C   0  0  0  0  0  0  0  0  0  0  0  0
  149.8252  139.1186  155.1420 O   0  0  0  0  0  0  0  0  0  0  0  0
  151.2569  143.5500  158.4834 C   0  0  0  0  0  0  0  0  0  0  0  0
  152.1509  145.8789  160.8594 H   0  0  0  0  0  0  0  0  0  0  0  0
  150.5290  145.7145  160.1794 H   0  0  0  0  0  0  0  0  0  0  0  0
  151.8710  146.2355  159.1520 H   0  0  0  0  0  0  0  0  0  0  0  0
  153.2351  143.7595  161.2573 H   0  0  0  0  0  0  0  0  0  0  0  0
  154.3515  141.6470  161.6143 H   0  0  0  0  0  0  0  0  0  0  0  0
  154.6815  140.7275  160.1429 H   0  0  0  0  0  0  0  0  0  0  0  0
  153.3353  140.2647  161.1923 H   0  0  0  0  0  0  0  0  0  0  0  0
  149.9550  142.1193  156.8250 H   0  0  0  0  0  0  0  0  0  0  0  0
  150.8651  140.5274  154.0581 H   0  0  0  0  0  0  0  0  0  0  0  0
  148.5828  141.4146  155.9055 H   0  0  0  0  0  0  0  0  0  0  0  0
  149.4452  142.4394  154.7794 H   0  0  0  0  0  0  0  0  0  0  0  0
  146.3438  141.7047  153.0304 H   0  0  0  0  0  0  0  0  0  0  0  0
  147.3479  142.9922  153.6905 H   0  0  0  0  0  0  0  0  0  0  0  0
  146.4525  141.9284  154.7793 H   0  0  0  0  0  0  0  0  0  0  0  0
  147.1581  139.5721  154.9750 H   0  0  0  0  0  0  0  0  0  0  0  0
  147.0736  139.3857  153.2372 H   0  0  0  0  0  0  0  0  0  0  0  0
  148.6064  137.6978  154.2886 H   0  0  0  0  0  0  0  0  0  0  0  0
  149.4671  138.7147  153.1465 H   0  0  0  0  0  0  0  0  0  0  0  0
  150.5825  144.1335  157.8732 H   0  0  0  0  0  0  0  0  0  0  0  0
  1  2  1  0  0  0  0
  1 19  1  0  0  0  0
  1 20  1  0  0  0  0
  1 21  1  0  0  0  0
  2 18  1  0  0  0  0
  2  3  2  0  0  0  0
  3  4  1  0  0  0  0
  3 22  1  0  0  0  0
  4  5  1  0  0  0  0
  4  6  2  0  0  0  0
  5 23  1  0  0  0  0
  5 24  1  0  0  0  0
  5 25  1  0  0  0  0
  6  7  1  0  0  0  0
  7  8  1  0  0  0  0
  7 18  2  0  0  0  0
  8  9  1  0  0  0  0
  8 26  1  0  0  0  0
  9 10  2  0  0  0  0
  9 11  1  0  0  0  0
 11 17  1  0  0  0  0
 11 12  1  0  0  0  0
 11 27  1  0  0  0  0
 12 13  1  0  0  0  0
 12 28  1  0  0  0  0
 12 29  1  0  0  0  0
 13 14  1  0  0  0  0
 13 15  1  0  0  0  0
 14 30  1  0  0  0  0
 14 31  1  0  0  0  0
 14 32  1  0  0  0  0
 15 16  1  0  0  0  0
 15 33  1  0  0  0  0
 15 34  1  0  0  0  0
 16 17  1  0  0  0  0
 16 35  1  0  0  0  0
 16 36  1  0  0  0  0
 18 37  1  0  0  0  0
M  END
> <s_m_source_file>
AV-unprocessed.smi

> <i_m_source_file_index>
3314

> <i_lp_mmshare_version>
43012

> <i_f3d_flags>
0

> <s_epik_input>
W0NIM11jMVtjSF1jKFtDSDNdKW5jKFtjSF0xKVtOSF1DKD1PKVtDQEBIXTJbQ0gyXU4oW0NIM10pW0NIMl1bQ0gyXU8y

> <s_epik_cmdline>
J2VwaWtfcHl0aG9uJywgJy1waCcsICc3LjAnLCAnLXRuJywgJzgnLCAnLW1hJywgJzIwMCcsICctbWV0YWxfYmluZGluZycsICctaW1hZScsICc8aW5maWxlLm1hZT4nLCAnLW9tYWUnLCAnPG91dGZpbGUubWFlPic=

> <r_epik_Ionization_Penalty>
0.55509

> <r_epik_Ionization_Penalty_Charging>
0

> <r_epik_Ionization_Penalty_Neutral>
0.55509

> <r_epik_State_Penalty>
0.632277

> <r_epik_Charging_Adjusted_Penalty>
0.632277

> <i_epik_Tot_Q>
0

> <i_epik_Tot_abs_Q>
0

> <r_epik_Metal_State_Penalty>
0.606221

> <b_epik_Metal_Only>
0

> <s_lp_Force_Field>
OPLS_2005

> <r_lp_Energy>
21.0201

> <b_lp_Chiralities_Consistent>
1

> <s_lp_Variant>
AV-unprocessed.smi:3314-5

> <Gold.Version>
5.8.1

> <Gold.Id.Protein>
6NUR|6NUR_protein|mol2

> <Gold.PLP.Fitness>
42.0825

> <Gold.PLP.PLP>
-40.1603

> <Gold.PLP.part.hbond>
-1.0000

> <Gold.PLP.part.metal>
0.0000

> <Gold.PLP.part.buried>
-3.7468

> <Gold.PLP.part.nonpolar>
-35.9355

> <Gold.PLP.part.repulsive>
0.2804

> <Gold.PLP.ligand.clash>
0.5144

> <Gold.PLP.ligand.torsion>
0.2832

> <Gold.PLP.Chemscore.Hbond>
1.0000

> <Gold.PLP.Chemscore.CHOScore>
0.0000

> <Gold.PLP.Chemscore.Metal>
0.0000

> <Gold.Chemscore.Hbonds>
donor molecule, donor type, donor heavy atom, donor atom, acceptor molecule, acceptor atom, score
      P1  H  7997  8008       L1    10  1.00

> <Gold.PLP.Chemscore.Internal.Correction>
0.0030

> <Gold.Rescore>
     Score         DG    S(hbond)    S(metal)    S(lipo)     H(rot)  DE(clash)    DE(int)     intcor
     16.08     -17.43       0.99        0.00      95.92       1.00       0.02       1.33       ----

> <Gold.Chemscore.Fitness>
16.0830

> <Gold.Chemscore.DG>
-17.4341

> <Gold.Chemscore.ZeroCoef>
-5.4800

> <Gold.Chemscore.Hbond>
0.9855

> <Gold.Chemscore.Metal>
0.0000

> <Gold.Chemscore.Lipo>
95.9178

> <Gold.Chemscore.Internal_Hbond>
0.0000

> <Gold.Chemscore.DEClash>
0.0195

> <Gold.Chemscore.DEInternal>
1.3316

> <Gold.Chemscore.Rot>
1.0000

> <Gold.Chemscore.Internal.Correction>
   9.000000E+99

> <Gold.Chemscore.Hbonds>
donor molecule, donor type, donor heavy atom, donor atom, acceptor molecule, acceptor atom, score
      P1  H  7997  8008       L1    10  0.96

> <Gold.Chemscore.Hbond.Weighted>
-3.2917

> <Gold.Chemscore.Metal.Weighted>
-0.0000

> <Gold.Chemscore.Lipo.Weighted>
-11.2224

> <Gold.Chemscore.Internal_Hbond.Weighted>
0.0000

> <Gold.Chemscore.DEClash.Weighted>
0.0195

> <Gold.Chemscore.DEInternal.Weighted>
1.3316

> <Gold.Chemscore.Rot.Weighted>
2.5600

> <Gold.Chemscore.Internal.Correction.Weighted>
   9.000000E+99

> <Gold.Protein.RotatedTorsions>
[ 6907 6896 6895 6894 ] final -114.71 input  -60.11 | X-H torsion
[ 7974 7965 7964 7962 ] final  -31.53 input  175.53 | X-H torsion
[ 8008 7997 7996 7995 ] final  -42.52 input   59.86 | X-H torsion
[ 10167 10162 10161 10158 ] final  -51.12 input  -65.29 | X-H torsion
[ 10718 10713 10712 10709 ] final  147.45 input   66.30 | X-H torsion
[ 10763 10752 10751 10750 ] final   36.54 input  -60.55 | X-H torsion
[ 11005 11000 10999 10996 ] final  -41.77 input  -57.11 | X-H torsion

> <Gold.Protein.ActiveResidues>
 VAL166  LYS551  ARG553  GLY616  TRP617  ASP618  TYR619  PRO620  LYS621  CYS622 
 ASP623  PHE694  ASN695  SER759  ASP760  ASP761  ALA762  ILE779  LEU786  VAL792 
 PHE793  MET794  SER795  GLU796  ALA797  LYS798  CYS799  TRP800  GLU811  SER814 

> <Gold.Protein.RotatedAtoms>
  150.7923  133.8762  159.3272 H   0  0  0  0  0  0  0  0  0  0  0  0  # atno 6907 bound_to 6896
  151.6596  135.0989  160.0186 H   0  0  0  0  0  0  0  0  0  0  0  0  # atno 6908 bound_to 6896
  152.3999  133.6763  159.6343 H   0  0  0  0  0  0  0  0  0  0  0  0  # atno 6909 bound_to 6896
  146.1060  140.5679  142.8799 H   0  0  0  0  0  0  0  0  0  0  0  0  # atno 7974 bound_to 7965
  154.3999  140.1471  156.3368 H   0  0  0  0  0  0  0  0  0  0  0  0  # atno 8008 bound_to 7997
  155.8393  140.3462  155.5600 H   0  0  0  0  0  0  0  0  0  0  0  0  # atno 8009 bound_to 7997
  155.8104  140.0883  157.1897 H   0  0  0  0  0  0  0  0  0  0  0  0  # atno 8010 bound_to 7997
  140.6604  143.2631  151.4457 H   0  0  0  0  0  0  0  0  0  0  0  0  # atno 10167 bound_to 10162
  157.3208  131.0904  151.1242 H   0  0  0  0  0  0  0  0  0  0  0  0  # atno 10718 bound_to 10713
  153.0073  135.6303  154.2001 H   0  0  0  0  0  0  0  0  0  0  0  0  # atno 10763 bound_to 10752
  154.1744  135.2816  155.3073 H   0  0  0  0  0  0  0  0  0  0  0  0  # atno 10764 bound_to 10752
  154.5883  135.5625  153.7313 H   0  0  0  0  0  0  0  0  0  0  0  0  # atno 10765 bound_to 10752
  141.0269  133.6837  156.2502 H   0  0  0  0  0  0  0  0  0  0  0  0  # atno 11005 bound_to 11000
  144.7471  140.5096  143.6828 LP  0  0  0  0  0  0  0  0  0  0  0  0  # atno 17320 bound_to 7965
  145.5760  139.1486  143.3262 LP  0  0  0  0  0  0  0  0  0  0  0  0  # atno 17321 bound_to 7965
  139.5837  144.1653  152.2001 LP  0  0  0  0  0  0  0  0  0  0  0  0  # atno 17342 bound_to 10162
  140.0986  144.5559  150.7004 LP  0  0  0  0  0  0  0  0  0  0  0  0  # atno 17343 bound_to 10162
  157.2528  130.6622  149.5939 LP  0  0  0  0  0  0  0  0  0  0  0  0  # atno 17370 bound_to 10713
  155.9685  130.4533  150.5806 LP  0  0  0  0  0  0  0  0  0  0  0  0  # atno 17371 bound_to 10713
  140.6476  134.5101  157.5575 LP  0  0  0  0  0  0  0  0  0  0  0  0  # atno 17394 bound_to 11000
  139.9182  134.8203  156.1297 LP  0  0  0  0  0  0  0  0  0  0  0  0  # atno 17395 bound_to 11000

$$$$
