AV-unprocessed.smi:1433|AV-procd|sdf|5846|dock10
  -GOLD-   22720 5513D 1   1.00000     0.00000
 Structure written by MMmdl.
 45 46  0  0  0  0  0  0  0  0  2 V2000
  147.2947  134.2233  153.6670 C   0  0  0  0  0  0  0  0  0  0  0  0
  145.9336  134.9078  153.8880 C   0  0  1  0  0  0  0  0  0  0  0  0
  146.0328  136.4378  154.0552 C   0  0  0  0  0  0  0  0  0  0  0  0
  146.3067  137.1154  152.7585 N   0  3  2  0  0  0  0  0  0  0  0  0
  146.4747  138.6044  152.8108 C   0  0  2  0  0  0  0  0  0  0  0  0
  146.6531  139.1571  151.3797 C   0  0  0  0  0  0  0  0  0  0  0  0
  147.6354  139.0848  153.7275 C   0  0  0  0  0  0  0  0  0  0  0  0
  148.8688  138.3264  153.5393 N   0  0  0  0  0  0  0  0  0  0  0  0
  150.1057  138.7978  153.7617 C   0  0  0  0  0  0  0  0  0  0  0  0
  150.3357  139.9475  154.1365 O   0  0  0  0  0  0  0  0  0  0  0  0
  151.2608  137.8229  153.5324 C   0  0  0  0  0  0  0  0  0  0  0  0
  151.1463  136.6706  154.4072 N   0  0  0  0  0  0  0  0  0  0  0  0
  150.1080  135.7673  154.5024 C   0  0  0  0  0  0  0  0  0  0  0  0
  150.4519  134.8520  155.4555 C   0  0  0  0  0  0  0  0  0  0  0  0
  151.7363  135.2832  155.8907 C   0  0  0  0  0  0  0  0  0  0  0  0
  152.1502  136.3712  155.2609 N   0  0  0  0  0  0  0  0  0  0  0  0
  145.2883  136.6995  151.7589 C   0  0  0  0  0  0  0  0  0  0  0  0
  145.2577  135.1696  151.6036 C   0  0  2  0  0  0  0  0  0  0  0  0
  144.1619  134.7127  150.6342 C   0  0  0  0  0  0  0  0  0  0  0  0
  144.9929  134.5757  152.8695 O   0  0  0  0  0  0  0  0  0  0  0  0
  147.9463  134.3717  154.5284 H   0  0  0  0  0  0  0  0  0  0  0  0
  147.8195  134.6130  152.7952 H   0  0  0  0  0  0  0  0  0  0  0  0
  147.1708  133.1487  153.5304 H   0  0  0  0  0  0  0  0  0  0  0  0
  145.5272  134.5007  154.8145 H   0  0  0  0  0  0  0  0  0  0  0  0
  145.0995  136.8240  154.4685 H   0  0  0  0  0  0  0  0  0  0  0  0
  146.8184  136.6431  154.7820 H   0  0  0  0  0  0  0  0  0  0  0  0
  145.5527  139.0179  153.2226 H   0  0  0  0  0  0  0  0  0  0  0  0
  146.7028  140.2458  151.3700 H   0  0  0  0  0  0  0  0  0  0  0  0
  145.8287  138.8848  150.7223 H   0  0  0  0  0  0  0  0  0  0  0  0
  147.5714  138.7819  150.9264 H   0  0  0  0  0  0  0  0  0  0  0  0
  147.8723  140.1351  153.5522 H   0  0  0  0  0  0  0  0  0  0  0  0
  147.3481  138.9967  154.7759 H   0  0  0  0  0  0  0  0  0  0  0  0
  148.7755  137.3659  153.2401 H   0  0  0  0  0  0  0  0  0  0  0  0
  151.2871  137.4904  152.4930 H   0  0  0  0  0  0  0  0  0  0  0  0
  152.2090  138.3239  153.7319 H   0  0  0  0  0  0  0  0  0  0  0  0
  149.2224  135.8504  153.8895 H   0  0  0  0  0  0  0  0  0  0  0  0
  149.8746  134.0031  155.7904 H   0  0  0  0  0  0  0  0  0  0  0  0
  152.3760  134.8403  156.6399 H   0  0  0  0  0  0  0  0  0  0  0  0
  144.3072  137.0626  152.0704 H   0  0  0  0  0  0  0  0  0  0  0  0
  145.4936  137.1479  150.7880 H   0  0  0  0  0  0  0  0  0  0  0  0
  146.2157  134.8188  151.2195 H   0  0  0  0  0  0  0  0  0  0  0  0
  144.3157  135.1328  149.6400 H   0  0  0  0  0  0  0  0  0  0  0  0
  143.1745  135.0219  150.9790 H   0  0  0  0  0  0  0  0  0  0  0  0
  144.1547  133.6267  150.5377 H   0  0  0  0  0  0  0  0  0  0  0  0
  147.1936  136.7479  152.4446 H   0  0  0  0  0  0  0  0  0  0  0  0
  1  2  1  0  0  0  0
  1 21  1  0  0  0  0
  1 22  1  0  0  0  0
  1 23  1  0  0  0  0
  2 20  1  0  0  0  0
  2  3  1  0  0  0  0
  2 24  1  0  0  0  0
  3  4  1  0  0  0  0
  3 25  1  0  0  0  0
  3 26  1  0  0  0  0
  4  5  1  0  0  0  0
  4 17  1  0  0  0  0
  4 45  1  0  0  0  0
  5  6  1  0  0  0  0
  5  7  1  0  0  0  0
  5 27  1  0  0  0  0
  6 28  1  0  0  0  0
  6 29  1  0  0  0  0
  6 30  1  0  0  0  0
  7  8  1  0  0  0  0
  7 31  1  0  0  0  0
  7 32  1  0  0  0  0
  8  9  1  0  0  0  0
  8 33  1  0  0  0  0
  9 10  2  0  0  0  0
  9 11  1  0  0  0  0
 11 12  1  0  0  0  0
 11 34  1  0  0  0  0
 11 35  1  0  0  0  0
 12 16  1  0  0  0  0
 12 13  1  0  0  0  0
 13 14  2  0  0  0  0
 13 36  1  0  0  0  0
 14 15  1  0  0  0  0
 14 37  1  0  0  0  0
 15 16  2  0  0  0  0
 15 38  1  0  0  0  0
 17 18  1  0  0  0  0
 17 39  1  0  0  0  0
 17 40  1  0  0  0  0
 18 19  1  0  0  0  0
 18 20  1  0  0  0  0
 18 41  1  0  0  0  0
 19 42  1  0  0  0  0
 19 43  1  0  0  0  0
 19 44  1  0  0  0  0
M  CHG  1   4   1
M  END
> <s_m_source_file>
AV-unprocessed.smi

> <i_m_source_file_index>
1433

> <i_lp_mmshare_version>
43012

> <i_f3d_flags>
0

> <s_epik_input>
W0NIM11bQ0BASF0xW0NIMl1OKFtDSDJdW0NASF0oTzEpW0NIM10pW0NASF0oW0NIM10pW0NIMl1bTkhdQyg9TylbQ0gyXW4yW2NIXVtjSF1bY0hdbjI=

> <s_epik_cmdline>
J2VwaWtfcHl0aG9uJywgJy1waCcsICc3LjAnLCAnLXRuJywgJzgnLCAnLW1hJywgJzIwMCcsICctbWV0YWxfYmluZGluZycsICctaW1hZScsICc8aW5maWxlLm1hZT4nLCAnLW9tYWUnLCAnPG91dGZpbGUubWFlPic=

> <r_lp_tautomer_probability>
1

> <r_epik_Ionization_Penalty>
0.748405

> <r_epik_Ionization_Penalty_Charging>
0.748396

> <r_epik_Ionization_Penalty_Neutral>
8.54426e-06

> <r_epik_State_Penalty>
0.775162

> <r_epik_Charging_Adjusted_Penalty>
1.52356

> <i_epik_Tot_Q>
1

> <i_epik_Tot_abs_Q>
1

> <r_epik_Metal_State_Penalty>
0.775167

> <b_epik_Metal_Only>
0

> <s_lp_Force_Field>
OPLS_2005

> <r_lp_Energy>
23.467

> <b_lp_Chiralities_Consistent>
1

> <s_lp_Variant>
AV-unprocessed.smi:1433-12

> <Gold.Version>
5.8.1

> <Gold.Id.Protein>
6NUR|6NUR_protein|mol2

> <Gold.PLP.Fitness>
46.2974

> <Gold.PLP.PLP>
-30.5053

> <Gold.PLP.part.hbond>
-4.2040

> <Gold.PLP.part.metal>
0.0000

> <Gold.PLP.part.buried>
0.6478

> <Gold.PLP.part.nonpolar>
-27.5393

> <Gold.PLP.part.repulsive>
0.2418

> <Gold.PLP.ligand.clash>
0.0000

> <Gold.PLP.ligand.torsion>
0.3678

> <Gold.PLP.Chemscore.Hbond>
4.4878

> <Gold.PLP.Chemscore.CHOScore>
1.0000

> <Gold.PLP.Chemscore.Metal>
0.0000

> <Gold.Chemscore.Hbonds>
donor molecule, donor type, donor heavy atom, donor atom, acceptor molecule, acceptor atom, score
      L1  H     4    45       P1  7948  2.00
      L1  H     8    33       P1  7948  0.88
      P1  H  7989  7998       L1    10  1.00
      P1  H 10752 10765       L1    16  0.03
      L1  C    13    36       P1  7948  1.00

> <Gold.PLP.Chemscore.Internal.Correction>
0.0645

> <Gold.Rescore>
     Score         DG    S(hbond)    S(metal)    S(lipo)     H(rot)  DE(clash)    DE(int)     intcor
     16.95     -17.62       2.62        0.00      69.92       1.87       0.26       0.41       ----

> <Gold.Chemscore.Fitness>
16.9545

> <Gold.Chemscore.DG>
-17.6234

> <Gold.Chemscore.ZeroCoef>
-5.4800

> <Gold.Chemscore.Hbond>
2.6164

> <Gold.Chemscore.Metal>
0.0000

> <Gold.Chemscore.Lipo>
69.9214

> <Gold.Chemscore.Internal_Hbond>
0.0000

> <Gold.Chemscore.DEClash>
0.2569

> <Gold.Chemscore.DEInternal>
0.4120

> <Gold.Chemscore.Rot>
1.8657

> <Gold.Chemscore.Internal.Correction>
   9.000000E+99

> <Gold.Chemscore.Hbonds>
donor molecule, donor type, donor heavy atom, donor atom, acceptor molecule, acceptor atom, score
      L1  H     4    45       P1  7948  1.00
      L1  H     8    33       P1  7948  0.87
      P1  H  7989  7998       L1    10  0.97

> <Gold.Chemscore.Hbond.Weighted>
-8.7388

> <Gold.Chemscore.Metal.Weighted>
-0.0000

> <Gold.Chemscore.Lipo.Weighted>
-8.1808

> <Gold.Chemscore.Internal_Hbond.Weighted>
0.0000

> <Gold.Chemscore.DEClash.Weighted>
0.2569

> <Gold.Chemscore.DEInternal.Weighted>
0.4120

> <Gold.Chemscore.Rot.Weighted>
4.7761

> <Gold.Chemscore.Internal.Correction.Weighted>
   9.000000E+99

> <Gold.Protein.RotatedTorsions>
[ 6907 6896 6895 6894 ] final  125.88 input  -60.11 | X-H torsion
[ 7974 7965 7964 7962 ] final  -48.61 input  175.53 | X-H torsion
[ 8008 7997 7996 7995 ] final  153.46 input   59.86 | X-H torsion
[ 10167 10162 10161 10158 ] final  121.87 input  -65.29 | X-H torsion
[ 10718 10713 10712 10709 ] final -130.37 input   66.30 | X-H torsion
[ 10763 10752 10751 10750 ] final -168.52 input  -60.55 | X-H torsion
[ 11005 11000 10999 10996 ] final  116.40 input  -57.11 | X-H torsion

> <Gold.Protein.ActiveResidues>
 VAL166  LYS551  ARG553  GLY616  TRP617  ASP618  TYR619  PRO620  LYS621  CYS622 
 ASP623  PHE694  ASN695  SER759  ASP760  ASP761  ALA762  ILE779  LEU786  VAL792 
 PHE793  MET794  SER795  GLU796  ALA797  LYS798  CYS799  TRP800  GLU811  SER814 

> <Gold.Protein.RotatedAtoms>
  152.3953  133.6737  159.6270 H   0  0  0  0  0  0  0  0  0  0  0  0  # atno 6907 bound_to 6896
  150.7853  133.8885  159.3315 H   0  0  0  0  0  0  0  0  0  0  0  0  # atno 6908 bound_to 6896
  151.6663  135.0984  160.0240 H   0  0  0  0  0  0  0  0  0  0  0  0  # atno 6909 bound_to 6896
  145.9493  140.7588  142.9513 H   0  0  0  0  0  0  0  0  0  0  0  0  # atno 7974 bound_to 7965
  156.2580  140.1993  156.6494 H   0  0  0  0  0  0  0  0  0  0  0  0  # atno 8008 bound_to 7997
  154.6548  140.0567  157.0021 H   0  0  0  0  0  0  0  0  0  0  0  0  # atno 8009 bound_to 7997
  155.1364  140.3238  155.4465 H   0  0  0  0  0  0  0  0  0  0  0  0  # atno 8010 bound_to 7997
  139.5893  144.7019  151.3330 H   0  0  0  0  0  0  0  0  0  0  0  0  # atno 10167 bound_to 10162
  156.2138  130.6935  151.0679 H   0  0  0  0  0  0  0  0  0  0  0  0  # atno 10718 bound_to 10713
  154.6620  135.2926  154.9854 H   0  0  0  0  0  0  0  0  0  0  0  0  # atno 10763 bound_to 10752
  154.0911  135.6590  153.4856 H   0  0  0  0  0  0  0  0  0  0  0  0  # atno 10764 bound_to 10752
  153.0435  135.5220  154.7575 H   0  0  0  0  0  0  0  0  0  0  0  0  # atno 10765 bound_to 10752
  139.9040  134.9597  156.7192 H   0  0  0  0  0  0  0  0  0  0  0  0  # atno 11005 bound_to 11000
  144.6793  140.2408  143.7344 LP  0  0  0  0  0  0  0  0  0  0  0  0  # atno 17320 bound_to 7965
  145.8193  139.2037  143.1947 LP  0  0  0  0  0  0  0  0  0  0  0  0  # atno 17321 bound_to 7965
  140.7159  143.7268  150.7654 LP  0  0  0  0  0  0  0  0  0  0  0  0  # atno 17342 bound_to 10162
  140.0820  143.4960  152.2525 LP  0  0  0  0  0  0  0  0  0  0  0  0  # atno 17343 bound_to 10162
  157.7052  131.0759  150.6690 LP  0  0  0  0  0  0  0  0  0  0  0  0  # atno 17370 bound_to 10713
  156.6750  130.4550  149.5645 LP  0  0  0  0  0  0  0  0  0  0  0  0  # atno 17371 bound_to 10713
  140.7014  133.9303  155.8027 LP  0  0  0  0  0  0  0  0  0  0  0  0  # atno 17394 bound_to 11000
  141.0368  134.0677  157.3949 LP  0  0  0  0  0  0  0  0  0  0  0  0  # atno 17395 bound_to 11000

$$$$
