AV-unprocessed.smi:261|AV-procd|sdf|1997|dock8
  -GOLD-   2262021193D 1   1.00000     0.00000
 Structure written by MMmdl.
 51 54  0  0  0  0  0  0  0  0  1 V2000
  144.5722  134.9035  150.6796 C   0  0  0  0  0  0  0  0  0  0  0  0
  145.4034  136.0506  150.7514 O   0  0  0  0  0  0  0  0  0  0  0  0
  145.3786  136.6913  152.0188 C   0  0  1  0  0  0  0  0  0  0  0  0
  146.0791  135.8912  153.1210 C   0  0  0  0  0  0  0  0  0  0  0  0
  146.5024  136.9504  154.1534 C   0  0  2  0  0  0  0  0  0  0  0  0
  145.4103  137.1726  155.2158 C   0  0  0  0  0  0  0  0  0  0  0  0
  145.6559  138.1015  156.1427 N   0  0  0  0  0  0  0  0  0  0  0  0
  144.3705  136.5153  155.2110 O   0  0  0  0  0  0  0  0  0  0  0  0
  146.7259  138.1424  153.3351 N   0  0  0  0  0  0  0  0  0  0  0  0
  147.4684  139.2234  153.7037 C   0  0  0  0  0  0  0  0  0  0  0  0
  147.0792  140.4432  153.2458 N   0  0  0  0  0  0  0  0  0  0  0  0
  147.7584  141.5460  153.5691 C   0  0  0  0  0  0  0  0  0  0  0  0
  148.8455  141.6602  154.3314 N   0  0  0  0  0  0  0  0  0  0  0  0
  149.2493  140.4449  154.7982 C   0  0  0  0  0  0  0  0  0  0  0  0
  148.6300  139.1871  154.5356 C   0  0  0  0  0  0  0  0  0  0  0  0
  149.3436  138.1828  155.1826 N   0  0  0  0  0  0  0  0  0  0  0  0
  150.3155  138.8054  155.7888 C   0  0  0  0  0  0  0  0  0  0  0  0
  150.3237  140.1708  155.6272 N   0  0  0  0  0  0  0  0  0  0  0  0
  151.2891  141.1052  156.1816 C   0  0  0  0  0  0  0  0  0  0  0  0
  150.6701  142.1398  157.1499 C   0  0  1  0  0  0  0  0  0  0  0  0
  150.0293  141.3858  158.1591 O   0  0  0  0  0  0  0  0  0  0  0  0
  151.6782  143.0778  157.8535 C   0  0  1  0  0  0  0  0  0  0  0  0
  151.0813  144.1470  158.7715 C   0  0  0  0  0  0  0  0  0  0  0  0
  152.2061  144.4577  159.7441 C   0  0  0  0  0  0  0  0  0  0  0  0
  153.1303  143.2445  159.6330 C   0  0  0  0  0  0  0  0  0  0  0  0
  152.4421  142.3310  158.7899 O   0  0  0  0  0  0  0  0  0  0  0  0
  146.1894  137.9873  151.9864 C   0  0  0  0  0  0  0  0  0  0  0  0
  144.3536  136.9209  152.3164 H   0  0  0  0  0  0  0  0  0  0  0  0
  147.4276  136.6249  154.6298 H   0  0  0  0  0  0  0  0  0  0  0  0
  144.6087  134.4910  149.6715 H   0  0  0  0  0  0  0  0  0  0  0  0
  143.5338  135.1525  150.9022 H   0  0  0  0  0  0  0  0  0  0  0  0
  144.9016  134.1254  151.3688 H   0  0  0  0  0  0  0  0  0  0  0  0
  145.4459  135.1064  153.5375 H   0  0  0  0  0  0  0  0  0  0  0  0
  146.9690  135.4084  152.7141 H   0  0  0  0  0  0  0  0  0  0  0  0
  144.9776  138.2814  156.8685 H   0  0  0  0  0  0  0  0  0  0  0  0
  146.5251  138.6147  156.1190 H   0  0  0  0  0  0  0  0  0  0  0  0
  147.3746  142.4687  153.1597 H   0  0  0  0  0  0  0  0  0  0  0  0
  151.0532  138.2816  156.3793 H   0  0  0  0  0  0  0  0  0  0  0  0
  152.0389  140.5094  156.7043 H   0  0  0  0  0  0  0  0  0  0  0  0
  151.8109  141.6120  155.3689 H   0  0  0  0  0  0  0  0  0  0  0  0
  149.9101  142.7264  156.6326 H   0  0  0  0  0  0  0  0  0  0  0  0
  149.8282  140.5298  157.8128 H   0  0  0  0  0  0  0  0  0  0  0  0
  152.3445  143.5491  157.1279 H   0  0  0  0  0  0  0  0  0  0  0  0
  150.7489  145.0325  158.2308 H   0  0  0  0  0  0  0  0  0  0  0  0
  150.2307  143.7417  159.3210 H   0  0  0  0  0  0  0  0  0  0  0  0
  152.7360  145.3666  159.4567 H   0  0  0  0  0  0  0  0  0  0  0  0
  151.8268  144.5944  160.7572 H   0  0  0  0  0  0  0  0  0  0  0  0
  154.0771  143.5228  159.1686 H   0  0  0  0  0  0  0  0  0  0  0  0
  153.3450  142.7919  160.6013 H   0  0  0  0  0  0  0  0  0  0  0  0
  147.0205  137.9064  151.2842 H   0  0  0  0  0  0  0  0  0  0  0  0
  145.5680  138.8324  151.6878 H   0  0  0  0  0  0  0  0  0  0  0  0
  1  2  1  0  0  0  0
  1 30  1  0  0  0  0
  1 31  1  0  0  0  0
  1 32  1  0  0  0  0
  2  3  1  0  0  0  0
  3 28  1  0  0  0  0
  3 27  1  0  0  0  0
  3  4  1  0  0  0  0
  4  5  1  0  0  0  0
  4 33  1  0  0  0  0
  4 34  1  0  0  0  0
  5 29  1  0  0  0  0
  5  6  1  0  0  0  0
  5  9  1  0  0  0  0
  6  7  1  0  0  0  0
  6  8  2  0  0  0  0
  7 35  1  0  0  0  0
  7 36  1  0  0  0  0
  9 10  1  0  0  0  0
  9 27  1  0  0  0  0
 10 15  1  0  0  0  0
 10 11  2  0  0  0  0
 11 12  1  0  0  0  0
 12 13  2  0  0  0  0
 12 37  1  0  0  0  0
 13 14  1  0  0  0  0
 14 18  1  0  0  0  0
 14 15  2  0  0  0  0
 15 16  1  0  0  0  0
 16 17  2  0  0  0  0
 17 18  1  0  0  0  0
 17 38  1  0  0  0  0
 18 19  1  0  0  0  0
 19 20  1  0  0  0  0
 19 39  1  0  0  0  0
 19 40  1  0  0  0  0
 20 21  1  0  0  0  0
 20 22  1  0  0  0  0
 20 41  1  0  0  0  0
 21 42  1  0  0  0  0
 22 26  1  0  0  0  0
 22 23  1  0  0  0  0
 22 43  1  0  0  0  0
 23 24  1  0  0  0  0
 23 44  1  0  0  0  0
 23 45  1  0  0  0  0
 24 25  1  0  0  0  0
 24 46  1  0  0  0  0
 24 47  1  0  0  0  0
 25 26  1  0  0  0  0
 25 48  1  0  0  0  0
 25 49  1  0  0  0  0
 27 50  1  0  0  0  0
 27 51  1  0  0  0  0
M  END
> <s_m_source_file>
AV-unprocessed.smi

> <i_m_source_file_index>
261

> <i_lp_mmshare_version>
43012

> <i_f3d_flags>
0

> <s_epik_input>
W0NIM11PW0NASF0xW0NIMl1bQ0BASF0oQyg9TylbTkgyXSlOKFtDSDJdMSljKG5bY0hdbjIpYyhjMjMpbltjSF1uM1tDSDJdW0NASF0oW09IXSlbQ0BASF00W0NIMl1bQ0gyXVtDSDJdTzQ=

> <s_epik_cmdline>
J2VwaWtfcHl0aG9uJywgJy1waCcsICc3LjAnLCAnLXRuJywgJzgnLCAnLW1hJywgJzIwMCcsICctbWV0YWxfYmluZGluZycsICctaW1hZScsICc8aW5maWxlLm1hZT4nLCAnLW9tYWUnLCAnPG91dGZpbGUubWFlPic=

> <r_lp_tautomer_probability>
1

> <r_epik_Ionization_Penalty>
0.000713824

> <r_epik_Ionization_Penalty_Charging>
0

> <r_epik_Ionization_Penalty_Neutral>
0.000713824

> <r_epik_State_Penalty>
0.000402132

> <r_epik_Charging_Adjusted_Penalty>
0.000402132

> <i_epik_Tot_Q>
0

> <i_epik_Tot_abs_Q>
0

> <r_epik_Metal_State_Penalty>
-0

> <b_epik_Metal_Only>
0

> <s_lp_Force_Field>
OPLS_2005

> <r_lp_Energy>
45.931

> <b_lp_Chiralities_Consistent>
1

> <s_lp_Variant>
AV-unprocessed.smi:261-15

> <Gold.Version>
5.8.1

> <Gold.Id.Protein>
6NUR|6NUR_protein|mol2

> <Gold.PLP.Fitness>
39.9997

> <Gold.PLP.PLP>
-40.9656

> <Gold.PLP.part.hbond>
-1.0000

> <Gold.PLP.part.metal>
0.0000

> <Gold.PLP.part.buried>
-5.4342

> <Gold.PLP.part.nonpolar>
-35.7414

> <Gold.PLP.part.repulsive>
0.7322

> <Gold.PLP.ligand.clash>
0.0000

> <Gold.PLP.ligand.torsion>
0.6722

> <Gold.PLP.Chemscore.Hbond>
0.0699

> <Gold.PLP.Chemscore.CHOScore>
0.0000

> <Gold.PLP.Chemscore.Metal>
0.0000

> <Gold.Chemscore.Hbonds>
donor molecule, donor type, donor heavy atom, donor atom, acceptor molecule, acceptor atom, score
      P1  H  8011  8017       L1    13  0.02

> <Gold.PLP.Chemscore.Internal.Correction>
0.1687

> <Gold.Rescore>
     Score         DG    S(hbond)    S(metal)    S(lipo)     H(rot)  DE(clash)    DE(int)     intcor
      7.19      -7.83       0.00        0.00      89.67       3.18       0.10       0.53       ----

> <Gold.Chemscore.Fitness>
7.1939

> <Gold.Chemscore.DG>
-7.8294

> <Gold.Chemscore.ZeroCoef>
-5.4800

> <Gold.Chemscore.Hbond>
0.0021

> <Gold.Chemscore.Metal>
0.0000

> <Gold.Chemscore.Lipo>
89.6676

> <Gold.Chemscore.Internal_Hbond>
0.0000

> <Gold.Chemscore.DEClash>
0.1031

> <Gold.Chemscore.DEInternal>
0.5325

> <Gold.Chemscore.Rot>
3.1831

> <Gold.Chemscore.Internal.Correction>
   9.000000E+99

> <Gold.Chemscore.Hbond.Weighted>
-0.0070

> <Gold.Chemscore.Metal.Weighted>
-0.0000

> <Gold.Chemscore.Lipo.Weighted>
-10.4911

> <Gold.Chemscore.Internal_Hbond.Weighted>
0.0000

> <Gold.Chemscore.DEClash.Weighted>
0.1031

> <Gold.Chemscore.DEInternal.Weighted>
0.5325

> <Gold.Chemscore.Rot.Weighted>
8.1486

> <Gold.Chemscore.Internal.Correction.Weighted>
   9.000000E+99

> <Gold.Protein.RotatedTorsions>
[ 6907 6896 6895 6894 ] final -126.39 input  -60.11 | X-H torsion
[ 7974 7965 7964 7962 ] final  -57.81 input  175.53 | X-H torsion
[ 8008 7997 7996 7995 ] final  151.32 input   59.86 | X-H torsion
[ 10167 10162 10161 10158 ] final   89.21 input  -65.29 | X-H torsion
[ 10718 10713 10712 10709 ] final   -8.51 input   66.30 | X-H torsion
[ 10763 10752 10751 10750 ] final   11.33 input  -60.55 | X-H torsion
[ 11005 11000 10999 10996 ] final  -50.36 input  -57.11 | X-H torsion

> <Gold.Protein.ActiveResidues>
 VAL166  LYS551  ARG553  GLY616  TRP617  ASP618  TYR619  PRO620  LYS621  CYS622 
 ASP623  PHE694  ASN695  SER759  ASP760  ASP761  ALA762  ILE779  LEU786  VAL792 
 PHE793  MET794  SER795  GLU796  ALA797  LYS798  CYS799  TRP800  GLU811  SER814 

> <Gold.Protein.RotatedAtoms>
  150.8964  133.7175  159.2890 H   0  0  0  0  0  0  0  0  0  0  0  0  # atno 6907 bound_to 6896
  151.4708  135.1044  159.9760 H   0  0  0  0  0  0  0  0  0  0  0  0  # atno 6908 bound_to 6896
  152.4851  133.8305  159.7156 H   0  0  0  0  0  0  0  0  0  0  0  0  # atno 6909 bound_to 6896
  145.8467  140.8380  143.0007 H   0  0  0  0  0  0  0  0  0  0  0  0  # atno 7974 bound_to 7965
  156.2678  140.2051  156.6157 H   0  0  0  0  0  0  0  0  0  0  0  0  # atno 8008 bound_to 7997
  154.6796  140.0541  157.0276 H   0  0  0  0  0  0  0  0  0  0  0  0  # atno 8009 bound_to 7997
  155.1019  140.3207  155.4547 H   0  0  0  0  0  0  0  0  0  0  0  0  # atno 8010 bound_to 7997
  139.8596  144.6551  150.9074 H   0  0  0  0  0  0  0  0  0  0  0  0  # atno 10167 bound_to 10162
  156.7015  130.5095  149.5916 H   0  0  0  0  0  0  0  0  0  0  0  0  # atno 10718 bound_to 10713
  153.1938  135.6846  153.8318 H   0  0  0  0  0  0  0  0  0  0  0  0  # atno 10763 bound_to 10752
  153.7608  135.3210  155.3338 H   0  0  0  0  0  0  0  0  0  0  0  0  # atno 10764 bound_to 10752
  154.8132  135.4703  154.0673 H   0  0  0  0  0  0  0  0  0  0  0  0  # atno 10765 bound_to 10752
  141.0812  133.6653  156.3720 H   0  0  0  0  0  0  0  0  0  0  0  0  # atno 11005 bound_to 11000
  144.6731  140.0892  143.7466 LP  0  0  0  0  0  0  0  0  0  0  0  0  # atno 17320 bound_to 7965
  145.9404  139.2665  143.1272 LP  0  0  0  0  0  0  0  0  0  0  0  0  # atno 17321 bound_to 7965
  140.7777  143.3756  151.1569 LP  0  0  0  0  0  0  0  0  0  0  0  0  # atno 17342 bound_to 10162
  139.7387  143.8959  152.3043 LP  0  0  0  0  0  0  0  0  0  0  0  0  # atno 17343 bound_to 10162
  156.1725  130.6446  151.0855 LP  0  0  0  0  0  0  0  0  0  0  0  0  # atno 17370 bound_to 10713
  157.6971  131.0790  150.6935 LP  0  0  0  0  0  0  0  0  0  0  0  0  # atno 17371 bound_to 10713
  140.5465  134.6070  157.5395 LP  0  0  0  0  0  0  0  0  0  0  0  0  # atno 17394 bound_to 11000
  139.9626  134.7427  156.0205 LP  0  0  0  0  0  0  0  0  0  0  0  0  # atno 17395 bound_to 11000

$$$$
