AV-unprocessed.smi:258|AV-procd|sdf|1969|dock4
  -GOLD-   2262021123D 1   1.00000     0.00000
 Structure written by MMmdl.
 57 60  0  0  0  0  0  0  0  0  1 V2000
  143.1595  131.7468  149.4428 O   0  0  0  0  0  0  0  0  0  0  0  0
  143.7890  132.9735  149.7462 C   0  0  0  0  0  0  0  0  0  0  0  0
  145.1893  132.7224  150.3189 C   0  0  0  0  0  0  0  0  0  0  0  0
  145.0713  131.9460  151.5023 O   0  0  0  0  0  0  0  0  0  0  0  0
  146.2635  131.2765  151.8918 C   0  0  2  0  0  0  0  0  0  0  0  0
  145.9690  129.8275  152.3267 C   0  0  0  0  0  0  0  0  0  0  0  0
  147.2424  129.1712  152.8807 C   0  0  0  0  0  0  0  0  0  0  0  0
  147.8459  130.0049  154.0227 C   0  0  0  0  0  0  0  0  0  0  0  0
  148.0481  131.3940  153.6070 N   0  0  0  0  0  0  0  0  0  0  0  0
  148.9379  132.1142  154.3395 C   0  0  0  0  0  0  0  0  0  0  0  0
  149.9991  131.4449  154.8622 N   0  0  0  0  0  0  0  0  0  0  0  0
  150.9237  132.0884  155.5798 C   0  0  0  0  0  0  0  0  0  0  0  0
  150.9836  133.3827  155.8939 N   0  0  0  0  0  0  0  0  0  0  0  0
  149.9193  134.0633  155.3818 C   0  0  0  0  0  0  0  0  0  0  0  0
  148.8595  133.5168  154.6005 C   0  0  0  0  0  0  0  0  0  0  0  0
  147.9586  134.5265  154.2741 N   0  0  0  0  0  0  0  0  0  0  0  0
  148.4597  135.6006  154.8185 C   0  0  0  0  0  0  0  0  0  0  0  0
  149.6349  135.4111  155.5074 N   0  0  0  0  0  0  0  0  0  0  0  0
  150.4089  136.4214  156.2058 C   0  0  0  0  0  0  0  0  0  0  0  0
  150.2426  137.8469  155.6241 C   0  0  2  0  0  0  0  0  0  0  0  0
  150.6252  137.9384  154.1241 C   0  0  0  0  0  0  0  0  0  0  0  0
  151.6779  137.0532  153.8018 O   0  0  0  0  0  0  0  0  0  0  0  0
  150.9968  138.8698  156.5121 C   0  0  1  0  0  0  0  0  0  0  0  0
  150.9588  138.6115  158.0143 C   0  0  0  0  0  0  0  0  0  0  0  0
  152.2360  139.2911  158.4872 C   0  0  0  0  0  0  0  0  0  0  0  0
  153.1631  138.9587  157.4674 O   0  0  0  0  0  0  0  0  0  0  0  0
  152.4975  139.0299  156.2106 C   0  0  0  0  0  0  0  0  0  0  0  0
  146.8724  132.0701  153.0607 C   0  0  0  0  0  0  0  0  0  0  0  0
  142.2668  131.7830  149.7507 H   0  0  0  0  0  0  0  0  0  0  0  0
  143.8658  133.5415  148.8189 H   0  0  0  0  0  0  0  0  0  0  0  0
  143.1769  133.5581  150.4336 H   0  0  0  0  0  0  0  0  0  0  0  0
  145.8335  132.2502  149.5765 H   0  0  0  0  0  0  0  0  0  0  0  0
  145.6434  133.6800  150.5775 H   0  0  0  0  0  0  0  0  0  0  0  0
  146.9796  131.2774  151.0677 H   0  0  0  0  0  0  0  0  0  0  0  0
  145.1906  129.8229  153.0908 H   0  0  0  0  0  0  0  0  0  0  0  0
  145.5914  129.2383  151.4916 H   0  0  0  0  0  0  0  0  0  0  0  0
  147.0222  128.1629  153.2321 H   0  0  0  0  0  0  0  0  0  0  0  0
  147.9758  129.0672  152.0801 H   0  0  0  0  0  0  0  0  0  0  0  0
  147.1773  129.9946  154.8842 H   0  0  0  0  0  0  0  0  0  0  0  0
  148.7782  129.5411  154.3455 H   0  0  0  0  0  0  0  0  0  0  0  0
  151.7330  131.4787  155.9541 H   0  0  0  0  0  0  0  0  0  0  0  0
  147.9788  136.5644  154.7372 H   0  0  0  0  0  0  0  0  0  0  0  0
  150.1046  136.4035  157.2529 H   0  0  0  0  0  0  0  0  0  0  0  0
  151.4585  136.1254  156.1857 H   0  0  0  0  0  0  0  0  0  0  0  0
  149.1870  138.1102  155.7081 H   0  0  0  0  0  0  0  0  0  0  0  0
  149.7838  137.6785  153.4832 H   0  0  0  0  0  0  0  0  0  0  0  0
  150.9181  138.9544  153.8579 H   0  0  0  0  0  0  0  0  0  0  0  0
  151.6775  136.9116  152.8674 H   0  0  0  0  0  0  0  0  0  0  0  0
  150.5495  139.8513  156.3445 H   0  0  0  0  0  0  0  0  0  0  0  0
  150.0653  139.0127  158.4933 H   0  0  0  0  0  0  0  0  0  0  0  0
  151.0147  137.5471  158.2416 H   0  0  0  0  0  0  0  0  0  0  0  0
  152.1107  140.3741  158.5320 H   0  0  0  0  0  0  0  0  0  0  0  0
  152.5675  138.9388  159.4643 H   0  0  0  0  0  0  0  0  0  0  0  0
  152.8905  138.2658  155.5407 H   0  0  0  0  0  0  0  0  0  0  0  0
  152.6924  139.9986  155.7487 H   0  0  0  0  0  0  0  0  0  0  0  0
  147.1416  133.0671  152.7096 H   0  0  0  0  0  0  0  0  0  0  0  0
  146.1320  132.1902  153.8526 H   0  0  0  0  0  0  0  0  0  0  0  0
  1  2  1  0  0  0  0
  1 29  1  0  0  0  0
  2  3  1  0  0  0  0
  2 30  1  0  0  0  0
  2 31  1  0  0  0  0
  3  4  1  0  0  0  0
  3 32  1  0  0  0  0
  3 33  1  0  0  0  0
  4  5  1  0  0  0  0
  5 28  1  0  0  0  0
  5  6  1  0  0  0  0
  5 34  1  0  0  0  0
  6  7  1  0  0  0  0
  6 35  1  0  0  0  0
  6 36  1  0  0  0  0
  7  8  1  0  0  0  0
  7 37  1  0  0  0  0
  7 38  1  0  0  0  0
  8  9  1  0  0  0  0
  8 39  1  0  0  0  0
  8 40  1  0  0  0  0
  9 10  1  0  0  0  0
  9 28  1  0  0  0  0
 10 15  1  0  0  0  0
 10 11  2  0  0  0  0
 11 12  1  0  0  0  0
 12 13  2  0  0  0  0
 12 41  1  0  0  0  0
 13 14  1  0  0  0  0
 14 18  1  0  0  0  0
 14 15  2  0  0  0  0
 15 16  1  0  0  0  0
 16 17  2  0  0  0  0
 17 18  1  0  0  0  0
 17 42  1  0  0  0  0
 18 19  1  0  0  0  0
 19 20  1  0  0  0  0
 19 43  1  0  0  0  0
 19 44  1  0  0  0  0
 20 21  1  0  0  0  0
 20 23  1  0  0  0  0
 20 45  1  0  0  0  0
 21 22  1  0  0  0  0
 21 46  1  0  0  0  0
 21 47  1  0  0  0  0
 22 48  1  0  0  0  0
 23 27  1  0  0  0  0
 23 24  1  0  0  0  0
 23 49  1  0  0  0  0
 24 25  1  0  0  0  0
 24 50  1  0  0  0  0
 24 51  1  0  0  0  0
 25 26  1  0  0  0  0
 25 52  1  0  0  0  0
 25 53  1  0  0  0  0
 26 27  1  0  0  0  0
 27 54  1  0  0  0  0
 27 55  1  0  0  0  0
 28 56  1  0  0  0  0
 28 57  1  0  0  0  0
M  END
> <s_m_source_file>
AV-unprocessed.smi

> <i_m_source_file_index>
258

> <i_lp_mmshare_version>
43012

> <i_f3d_flags>
0

> <s_epik_input>
W09IXVtDSDJdW0NIMl1PW0NAQEhdMVtDSDJdW0NIMl1bQ0gyXU4oW0NIMl0xKWMobltjSF1uMiljKGMyMyluW2NIXW4zW0NIMl1bQ0BIXShbQ0gyXVtPSF0pW0NAQEhdNFtDSDJdW0NIMl1PW0NIMl00

> <s_epik_cmdline>
J2VwaWtfcHl0aG9uJywgJy1waCcsICc3LjAnLCAnLXRuJywgJzgnLCAnLW1hJywgJzIwMCcsICctbWV0YWxfYmluZGluZycsICctaW1hZScsICc8aW5maWxlLm1hZT4nLCAnLW9tYWUnLCAnPG91dGZpbGUubWFlPic=

> <r_lp_tautomer_probability>
1

> <r_epik_Ionization_Penalty>
0.00349036

> <r_epik_Ionization_Penalty_Charging>
0

> <r_epik_Ionization_Penalty_Neutral>
0.00349036

> <r_epik_State_Penalty>
0.00229798

> <r_epik_Charging_Adjusted_Penalty>
0.00229798

> <i_epik_Tot_Q>
0

> <i_epik_Tot_abs_Q>
0

> <r_epik_Metal_State_Penalty>
-0

> <b_epik_Metal_Only>
0

> <s_lp_Force_Field>
OPLS_2005

> <r_lp_Energy>
47.936

> <b_lp_Chiralities_Consistent>
1

> <s_lp_Variant>
AV-unprocessed.smi:258-5

> <Gold.Version>
5.8.1

> <Gold.Id.Protein>
6NUR|6NUR_protein|mol2

> <Gold.PLP.Fitness>
51.9891

> <Gold.PLP.PLP>
-41.5030

> <Gold.PLP.part.hbond>
-5.0000

> <Gold.PLP.part.metal>
0.0000

> <Gold.PLP.part.buried>
-4.3036

> <Gold.PLP.part.nonpolar>
-33.3640

> <Gold.PLP.part.repulsive>
0.5707

> <Gold.PLP.ligand.clash>
0.0000

> <Gold.PLP.ligand.torsion>
2.0494

> <Gold.PLP.Chemscore.Hbond>
4.6080

> <Gold.PLP.Chemscore.CHOScore>
0.0000

> <Gold.PLP.Chemscore.Metal>
0.0000

> <Gold.Chemscore.Hbonds>
donor molecule, donor type, donor heavy atom, donor atom, acceptor molecule, acceptor atom, score
      L1  H     1    29       P1 10952  0.56
      L1  H    22    48       P1  7949  1.00
      P1  H  7997  8009       L1    26  1.00
      P1  H 10752 10765       L1    22  1.00
      P1  H 10785 10796       L1     1  1.00

> <Gold.PLP.Chemscore.Internal.Correction>
0.7609

> <Gold.Rescore>
     Score         DG    S(hbond)    S(metal)    S(lipo)     H(rot)  DE(clash)    DE(int)     intcor
     12.68     -16.52       3.13        0.00      90.96       3.94       0.59       3.24       ----

> <Gold.Chemscore.Fitness>
12.6779

> <Gold.Chemscore.DG>
-16.5160

> <Gold.Chemscore.ZeroCoef>
-5.4800

> <Gold.Chemscore.Hbond>
3.1344

> <Gold.Chemscore.Metal>
0.0000

> <Gold.Chemscore.Lipo>
90.9598

> <Gold.Chemscore.Internal_Hbond>
0.0000

> <Gold.Chemscore.DEClash>
0.5936

> <Gold.Chemscore.DEInternal>
3.2445

> <Gold.Chemscore.Rot>
3.9356

> <Gold.Chemscore.Internal.Correction>
   9.000000E+99

> <Gold.Chemscore.Hbonds>
donor molecule, donor type, donor heavy atom, donor atom, acceptor molecule, acceptor atom, score
      L1  H     1    29       P1 10952  0.51
      L1  H    22    48       P1  7949  0.93
      P1  H  7997  8009       L1    26  0.24
      P1  H 10752 10765       L1    22  0.24
      P1  H 10785 10796       L1     1  0.30

> <Gold.Chemscore.Hbond.Weighted>
-10.4688

> <Gold.Chemscore.Metal.Weighted>
-0.0000

> <Gold.Chemscore.Lipo.Weighted>
-10.6423

> <Gold.Chemscore.Internal_Hbond.Weighted>
0.0000

> <Gold.Chemscore.DEClash.Weighted>
0.5936

> <Gold.Chemscore.DEInternal.Weighted>
3.2445

> <Gold.Chemscore.Rot.Weighted>
10.0751

> <Gold.Chemscore.Internal.Correction.Weighted>
   9.000000E+99

> <Gold.Protein.RotatedTorsions>
[ 6907 6896 6895 6894 ] final   46.80 input  -60.11 | X-H torsion
[ 7974 7965 7964 7962 ] final  -96.90 input  175.53 | X-H torsion
[ 8008 7997 7996 7995 ] final  147.60 input   59.86 | X-H torsion
[ 10167 10162 10161 10158 ] final  -49.77 input  -65.29 | X-H torsion
[ 10718 10713 10712 10709 ] final   40.70 input   66.30 | X-H torsion
[ 10763 10752 10751 10750 ] final  168.24 input  -60.55 | X-H torsion
[ 11005 11000 10999 10996 ] final  168.20 input  -57.11 | X-H torsion

> <Gold.Protein.ActiveResidues>
 VAL166  LYS551  ARG553  GLY616  TRP617  ASP618  TYR619  PRO620  LYS621  CYS622 
 ASP623  PHE694  ASN695  SER759  ASP760  ASP761  ALA762  ILE779  LEU786  VAL792 
 PHE793  MET794  SER795  GLU796  ALA797  LYS798  CYS799  TRP800  GLU811  SER814 

> <Gold.Protein.RotatedAtoms>
  152.2606  134.8038  160.0430 H   0  0  0  0  0  0  0  0  0  0  0  0  # atno 6907 bound_to 6896
  151.8686  133.3466  159.3735 H   0  0  0  0  0  0  0  0  0  0  0  0  # atno 6908 bound_to 6896
  150.7115  134.5063  159.5630 H   0  0  0  0  0  0  0  0  0  0  0  0  # atno 6909 bound_to 6896
  145.3408  140.9459  143.2609 H   0  0  0  0  0  0  0  0  0  0  0  0  # atno 7974 bound_to 7965
  156.2819  140.2151  156.5563 H   0  0  0  0  0  0  0  0  0  0  0  0  # atno 8008 bound_to 7997
  154.7250  140.0500  157.0697 H   0  0  0  0  0  0  0  0  0  0  0  0  # atno 8009 bound_to 7997
  155.0429  140.3147  155.4721 H   0  0  0  0  0  0  0  0  0  0  0  0  # atno 8010 bound_to 7997
  140.6669  143.2684  151.4263 H   0  0  0  0  0  0  0  0  0  0  0  0  # atno 10167 bound_to 10162
  157.3852  130.7775  149.7225 H   0  0  0  0  0  0  0  0  0  0  0  0  # atno 10718 bound_to 10713
  154.3656  135.2753  155.2295 H   0  0  0  0  0  0  0  0  0  0  0  0  # atno 10763 bound_to 10752
  154.4465  135.5941  153.6167 H   0  0  0  0  0  0  0  0  0  0  0  0  # atno 10764 bound_to 10752
  152.9841  135.6031  154.3881 H   0  0  0  0  0  0  0  0  0  0  0  0  # atno 10765 bound_to 10752
  140.2847  134.7722  157.3788 H   0  0  0  0  0  0  0  0  0  0  0  0  # atno 11005 bound_to 11000
  144.8792  139.4928  143.6731 LP  0  0  0  0  0  0  0  0  0  0  0  0  # atno 17320 bound_to 7965
  146.3008  139.7420  142.9093 LP  0  0  0  0  0  0  0  0  0  0  0  0  # atno 17321 bound_to 7965
  139.5921  144.1475  152.2101 LP  0  0  0  0  0  0  0  0  0  0  0  0  # atno 17342 bound_to 10162
  140.0833  144.5682  150.7106 LP  0  0  0  0  0  0  0  0  0  0  0  0  # atno 17343 bound_to 10162
  155.9785  130.4051  150.3645 LP  0  0  0  0  0  0  0  0  0  0  0  0  # atno 17370 bound_to 10713
  157.1754  131.0379  151.2775 LP  0  0  0  0  0  0  0  0  0  0  0  0  # atno 17371 bound_to 10713
  140.1250  134.5169  155.8152 LP  0  0  0  0  0  0  0  0  0  0  0  0  # atno 17394 bound_to 11000
  141.2157  133.6770  156.6936 LP  0  0  0  0  0  0  0  0  0  0  0  0  # atno 17395 bound_to 11000

$$$$
