AV-unprocessed.smi:242|AV-procd|sdf|1846|dock1
  -GOLD-   2262020463D 1   1.00000     0.00000
 Structure written by MMmdl.
 58 61  0  0  0  0  0  0  0  0  2 V2000
  145.6950  132.1166  149.2630 C   0  0  0  0  0  0  0  0  0  0  0  0
  145.3327  131.5101  150.6317 C   0  0  0  0  0  0  0  0  0  0  0  0
  144.1005  132.2363  151.2053 C   0  0  0  0  0  0  0  0  0  0  0  0
  146.4944  131.5646  151.5637 N   0  3  2  0  0  0  0  0  0  0  0  0
  146.2786  130.9108  152.8802 C   0  0  0  0  0  0  0  0  0  0  0  0
  146.8850  131.8327  153.9462 C   0  0  0  0  0  0  0  0  0  0  0  0
  147.8012  132.7673  153.1586 C   0  0  2  0  0  0  0  0  0  0  0  0
  148.0836  134.0319  153.8409 N   0  0  0  0  0  0  0  0  0  0  0  0
  147.0203  135.0300  153.8294 C   0  0  0  0  0  0  0  0  0  0  0  0
  148.6074  133.8934  155.0793 C   0  0  0  0  0  0  0  0  0  0  0  0
  149.9510  133.9843  155.2612 N   0  0  0  0  0  0  0  0  0  0  0  0
  150.4669  133.8390  156.4861 C   0  0  0  0  0  0  0  0  0  0  0  0
  149.8322  133.6034  157.6369 N   0  0  0  0  0  0  0  0  0  0  0  0
  148.4834  133.5137  157.4522 C   0  0  0  0  0  0  0  0  0  0  0  0
  147.7939  133.6517  156.2160 C   0  0  0  0  0  0  0  0  0  0  0  0
  146.4259  133.5165  156.4112 N   0  0  0  0  0  0  0  0  0  0  0  0
  146.3122  133.3015  157.6939 C   0  0  0  0  0  0  0  0  0  0  0  0
  147.4987  133.2686  158.3930 N   0  0  0  0  0  0  0  0  0  0  0  0
  147.6640  133.0321  159.8190 C   0  0  0  0  0  0  0  0  0  0  0  0
  147.0819  134.1558  160.7132 C   0  0  0  0  0  0  0  0  0  0  0  0
  145.6721  134.1367  160.5710 O   0  0  0  0  0  0  0  0  0  0  0  0
  147.4234  133.8946  162.1939 C   0  0  0  0  0  0  0  0  0  0  0  0
  147.0150  135.0696  163.1000 C   0  0  0  0  0  0  0  0  0  0  0  0
  147.6154  136.2727  162.6360 O   0  0  0  0  0  0  0  0  0  0  0  0
  147.1799  136.6370  161.3319 C   0  0  0  0  0  0  0  0  0  0  0  0
  147.5916  135.5585  160.3144 C   0  0  0  0  0  0  0  0  0  0  0  0
  147.0251  132.9158  151.8463 C   0  0  0  0  0  0  0  0  0  0  0  0
  144.8428  132.0839  148.5834 H   0  0  0  0  0  0  0  0  0  0  0  0
  146.5086  131.5794  148.7760 H   0  0  0  0  0  0  0  0  0  0  0  0
  145.9977  133.1598  149.3611 H   0  0  0  0  0  0  0  0  0  0  0  0
  145.0660  130.4621  150.4842 H   0  0  0  0  0  0  0  0  0  0  0  0
  143.2775  132.2300  150.4902 H   0  0  0  0  0  0  0  0  0  0  0  0
  144.3251  133.2775  151.4391 H   0  0  0  0  0  0  0  0  0  0  0  0
  143.7296  131.7603  152.1131 H   0  0  0  0  0  0  0  0  0  0  0  0
  145.2217  130.7448  153.0928 H   0  0  0  0  0  0  0  0  0  0  0  0
  146.7731  129.9390  152.8737 H   0  0  0  0  0  0  0  0  0  0  0  0
  146.0882  132.4059  154.4232 H   0  0  0  0  0  0  0  0  0  0  0  0
  147.4112  131.2823  154.7267 H   0  0  0  0  0  0  0  0  0  0  0  0
  148.7410  132.2493  152.9591 H   0  0  0  0  0  0  0  0  0  0  0  0
  147.2610  135.8772  154.4738 H   0  0  0  0  0  0  0  0  0  0  0  0
  146.0785  134.5981  154.1696 H   0  0  0  0  0  0  0  0  0  0  0  0
  146.8744  135.4168  152.8209 H   0  0  0  0  0  0  0  0  0  0  0  0
  151.5418  133.9194  156.5539 H   0  0  0  0  0  0  0  0  0  0  0  0
  145.3535  133.1477  158.1677 H   0  0  0  0  0  0  0  0  0  0  0  0
  147.2023  132.0745  160.0640 H   0  0  0  0  0  0  0  0  0  0  0  0
  148.7303  132.9131  160.0166 H   0  0  0  0  0  0  0  0  0  0  0  0
  145.4627  133.9582  159.6671 H   0  0  0  0  0  0  0  0  0  0  0  0
  146.9507  132.9742  162.5391 H   0  0  0  0  0  0  0  0  0  0  0  0
  148.4987  133.7406  162.2949 H   0  0  0  0  0  0  0  0  0  0  0  0
  145.9303  135.1806  163.1374 H   0  0  0  0  0  0  0  0  0  0  0  0
  147.3473  134.8844  164.1214 H   0  0  0  0  0  0  0  0  0  0  0  0
  146.0998  136.7910  161.3261 H   0  0  0  0  0  0  0  0  0  0  0  0
  147.6342  137.5913  161.0651 H   0  0  0  0  0  0  0  0  0  0  0  0
  148.6803  135.5398  160.2500 H   0  0  0  0  0  0  0  0  0  0  0  0
  147.2299  135.8379  159.3241 H   0  0  0  0  0  0  0  0  0  0  0  0
  147.6537  133.2771  151.0314 H   0  0  0  0  0  0  0  0  0  0  0  0
  146.1972  133.6155  151.9772 H   0  0  0  0  0  0  0  0  0  0  0  0
  147.2505  131.0598  151.1235 H   0  0  0  0  0  0  0  0  0  0  0  0
  1  2  1  0  0  0  0
  1 28  1  0  0  0  0
  1 29  1  0  0  0  0
  1 30  1  0  0  0  0
  2  3  1  0  0  0  0
  2  4  1  0  0  0  0
  2 31  1  0  0  0  0
  3 32  1  0  0  0  0
  3 33  1  0  0  0  0
  3 34  1  0  0  0  0
  4 27  1  0  0  0  0
  4  5  1  0  0  0  0
  4 58  1  0  0  0  0
  5  6  1  0  0  0  0
  5 35  1  0  0  0  0
  5 36  1  0  0  0  0
  6  7  1  0  0  0  0
  6 37  1  0  0  0  0
  6 38  1  0  0  0  0
  7  8  1  0  0  0  0
  7 27  1  0  0  0  0
  7 39  1  0  0  0  0
  8  9  1  0  0  0  0
  8 10  1  0  0  0  0
  9 40  1  0  0  0  0
  9 41  1  0  0  0  0
  9 42  1  0  0  0  0
 10 15  1  0  0  0  0
 10 11  2  0  0  0  0
 11 12  1  0  0  0  0
 12 13  2  0  0  0  0
 12 43  1  0  0  0  0
 13 14  1  0  0  0  0
 14 18  1  0  0  0  0
 14 15  2  0  0  0  0
 15 16  1  0  0  0  0
 16 17  2  0  0  0  0
 17 18  1  0  0  0  0
 17 44  1  0  0  0  0
 18 19  1  0  0  0  0
 19 20  1  0  0  0  0
 19 45  1  0  0  0  0
 19 46  1  0  0  0  0
 20 26  1  0  0  0  0
 20 21  1  0  0  0  0
 20 22  1  0  0  0  0
 21 47  1  0  0  0  0
 22 23  1  0  0  0  0
 22 48  1  0  0  0  0
 22 49  1  0  0  0  0
 23 24  1  0  0  0  0
 23 50  1  0  0  0  0
 23 51  1  0  0  0  0
 24 25  1  0  0  0  0
 25 26  1  0  0  0  0
 25 52  1  0  0  0  0
 25 53  1  0  0  0  0
 26 54  1  0  0  0  0
 26 55  1  0  0  0  0
 27 56  1  0  0  0  0
 27 57  1  0  0  0  0
M  CHG  1   4   1
M  END
> <s_m_source_file>
AV-unprocessed.smi

> <i_m_source_file_index>
242

> <i_lp_mmshare_version>
43012

> <i_f3d_flags>
0

> <s_epik_input>
W0NIM11bQ0hdKFtDSDNdKU4xW0NIMl1bQ0gyXVtDQEhdKFtDSDJdMSlOKFtDSDNdKWMobltjSF1uMiljKGMyMyluW2NIXW4zW0NIMl1DNChbT0hdKVtDSDJdW0NIMl1PW0NIMl1bQ0gyXTQ=

> <s_epik_cmdline>
J2VwaWtfcHl0aG9uJywgJy1waCcsICc3LjAnLCAnLXRuJywgJzgnLCAnLW1hJywgJzIwMCcsICctbWV0YWxfYmluZGluZycsICctaW1hZScsICc8aW5maWxlLm1hZT4nLCAnLW9tYWUnLCAnPG91dGZpbGUubWFlPic=

> <r_lp_tautomer_probability>
1

> <r_epik_Ionization_Penalty>
0.000825961

> <r_epik_Ionization_Penalty_Charging>
0.00034898

> <r_epik_Ionization_Penalty_Neutral>
0.000476981

> <r_epik_State_Penalty>
-0

> <r_epik_Charging_Adjusted_Penalty>
0.00034898

> <i_epik_Tot_Q>
1

> <i_epik_Tot_abs_Q>
1

> <r_epik_Metal_State_Penalty>
-0

> <b_epik_Metal_Only>
0

> <s_lp_Force_Field>
OPLS_2005

> <r_lp_Energy>
47.5475

> <b_lp_Chiralities_Consistent>
1

> <s_lp_Variant>
AV-unprocessed.smi:242-3

> <Gold.Version>
5.8.1

> <Gold.Id.Protein>
6NUR|6NUR_protein|mol2

> <Gold.PLP.Fitness>
43.9073

> <Gold.PLP.PLP>
-38.8003

> <Gold.PLP.part.hbond>
-2.0000

> <Gold.PLP.part.metal>
0.0000

> <Gold.PLP.part.buried>
-4.2703

> <Gold.PLP.part.nonpolar>
-32.6432

> <Gold.PLP.part.repulsive>
0.9115

> <Gold.PLP.ligand.clash>
0.0000

> <Gold.PLP.ligand.torsion>
0.6516

> <Gold.PLP.Chemscore.Hbond>
2.0000

> <Gold.PLP.Chemscore.CHOScore>
0.0000

> <Gold.PLP.Chemscore.Metal>
0.0000

> <Gold.Chemscore.Hbonds>
donor molecule, donor type, donor heavy atom, donor atom, acceptor molecule, acceptor atom, score
      L1  H     4    58       P1 10747  1.00
      P1  H  6896  6908       L1    13  1.00

> <Gold.PLP.Chemscore.Internal.Correction>
0.4102

> <Gold.Rescore>
     Score         DG    S(hbond)    S(metal)    S(lipo)     H(rot)  DE(clash)    DE(int)     intcor
     15.67     -17.48       1.96        0.00     101.26       2.50       0.06       1.76       ----

> <Gold.Chemscore.Fitness>
15.6669

> <Gold.Chemscore.DG>
-17.4846

> <Gold.Chemscore.ZeroCoef>
-5.4800

> <Gold.Chemscore.Hbond>
1.9631

> <Gold.Chemscore.Metal>
0.0000

> <Gold.Chemscore.Lipo>
101.2557

> <Gold.Chemscore.Internal_Hbond>
0.0000

> <Gold.Chemscore.DEClash>
0.0583

> <Gold.Chemscore.DEInternal>
1.7595

> <Gold.Chemscore.Rot>
2.4996

> <Gold.Chemscore.Internal.Correction>
   9.000000E+99

> <Gold.Chemscore.Hbonds>
donor molecule, donor type, donor heavy atom, donor atom, acceptor molecule, acceptor atom, score
      L1  H     4    58       P1 10747  0.98
      P1  H  6896  6908       L1    13  0.95

> <Gold.Chemscore.Hbond.Weighted>
-6.5566

> <Gold.Chemscore.Metal.Weighted>
-0.0000

> <Gold.Chemscore.Lipo.Weighted>
-11.8469

> <Gold.Chemscore.Internal_Hbond.Weighted>
0.0000

> <Gold.Chemscore.DEClash.Weighted>
0.0583

> <Gold.Chemscore.DEInternal.Weighted>
1.7595

> <Gold.Chemscore.Rot.Weighted>
6.3990

> <Gold.Chemscore.Internal.Correction.Weighted>
   9.000000E+99

> <Gold.Protein.RotatedTorsions>
[ 6907 6896 6895 6894 ] final  117.00 input  -60.11 | X-H torsion
[ 7974 7965 7964 7962 ] final  -25.55 input  175.53 | X-H torsion
[ 8008 7997 7996 7995 ] final  162.18 input   59.86 | X-H torsion
[ 10167 10162 10161 10158 ] final -123.61 input  -65.29 | X-H torsion
[ 10718 10713 10712 10709 ] final -147.38 input   66.30 | X-H torsion
[ 10763 10752 10751 10750 ] final -120.47 input  -60.55 | X-H torsion
[ 11005 11000 10999 10996 ] final  -72.03 input  -57.11 | X-H torsion

> <Gold.Protein.ActiveResidues>
 VAL166  LYS551  ARG553  GLY616  TRP617  ASP618  TYR619  PRO620  LYS621  CYS622 
 ASP623  PHE694  ASN695  SER759  ASP760  ASP761  ALA762  ILE779  LEU786  VAL792 
 PHE793  MET794  SER795  GLU796  ALA797  LYS798  CYS799  TRP800  GLU811  SER814 

> <Gold.Protein.RotatedAtoms>
  152.4641  133.7885  159.6888 H   0  0  0  0  0  0  0  0  0  0  0  0  # atno 6907 bound_to 6896
  150.8598  133.7651  159.3003 H   0  0  0  0  0  0  0  0  0  0  0  0  # atno 6908 bound_to 6896
  151.5221  135.1070  159.9933 H   0  0  0  0  0  0  0  0  0  0  0  0  # atno 6909 bound_to 6896
  146.1483  140.4902  142.8622 H   0  0  0  0  0  0  0  0  0  0  0  0  # atno 7974 bound_to 7965
  156.2050  140.1757  156.7820 H   0  0  0  0  0  0  0  0  0  0  0  0  # atno 8008 bound_to 7997
  154.5642  140.0694  156.8896 H   0  0  0  0  0  0  0  0  0  0  0  0  # atno 8009 bound_to 7997
  155.2791  140.3348  155.4262 H   0  0  0  0  0  0  0  0  0  0  0  0  # atno 8010 bound_to 7997
  140.0016  143.5534  152.2301 H   0  0  0  0  0  0  0  0  0  0  0  0  # atno 10167 bound_to 10162
  156.4069  130.7962  151.2176 H   0  0  0  0  0  0  0  0  0  0  0  0  # atno 10718 bound_to 10713
  154.8645  135.4202  154.2465 H   0  0  0  0  0  0  0  0  0  0  0  0  # atno 10763 bound_to 10752
  153.3420  135.6994  153.6865 H   0  0  0  0  0  0  0  0  0  0  0  0  # atno 10764 bound_to 10752
  153.5840  135.3567  155.2858 H   0  0  0  0  0  0  0  0  0  0  0  0  # atno 10765 bound_to 10752
  141.1602  133.6835  156.6997 H   0  0  0  0  0  0  0  0  0  0  0  0  # atno 11005 bound_to 11000
  144.7873  140.5962  143.6565 LP  0  0  0  0  0  0  0  0  0  0  0  0  # atno 17320 bound_to 7965
  145.4884  139.1490  143.3723 LP  0  0  0  0  0  0  0  0  0  0  0  0  # atno 17321 bound_to 7965
  139.6268  144.7638  151.2622 LP  0  0  0  0  0  0  0  0  0  0  0  0  # atno 17342 bound_to 10162
  140.7416  143.6550  150.8214 LP  0  0  0  0  0  0  0  0  0  0  0  0  # atno 17343 bound_to 10162
  157.7506  131.0270  150.3985 LP  0  0  0  0  0  0  0  0  0  0  0  0  # atno 17370 bound_to 10713
  156.4275  130.3965  149.6783 LP  0  0  0  0  0  0  0  0  0  0  0  0  # atno 17371 bound_to 10713
  140.2968  134.8196  157.4064 LP  0  0  0  0  0  0  0  0  0  0  0  0  # atno 17394 bound_to 11000
  140.1297  134.5111  155.8115 LP  0  0  0  0  0  0  0  0  0  0  0  0  # atno 17395 bound_to 11000

$$$$
