AV-unprocessed.smi:2017|AV-procd|sdf|8167|dock5
  -GOLD-   2272010413D 1   1.00000     0.00000
 Structure written by MMmdl.
 45 46  0  0  0  0  0  0  0  0  1 V2000
  151.6114  136.1711  155.7791 O   0  0  0  0  0  0  0  0  0  0  0  0
  150.4855  136.5081  155.4093 C   0  0  0  0  0  0  0  0  0  0  0  0
  149.2465  135.6818  155.7852 C   0  0  0  0  0  0  0  0  0  0  0  0
  148.6548  136.0694  157.0745 N   0  0  0  0  0  0  0  0  0  0  0  0
  148.1419  137.3468  157.2511 C   0  0  0  0  0  0  0  0  0  0  0  0
  147.5721  137.7689  158.4047 C   0  0  0  0  0  0  0  0  0  0  0  0
  147.4684  136.8700  159.5491 C   0  0  0  0  0  0  0  0  0  0  0  0
  146.9710  137.1590  160.6351 O   0  0  0  0  0  0  0  0  0  0  0  0
  147.9932  135.5933  159.3315 N   0  0  0  0  0  0  0  0  0  0  0  0
  148.5799  135.1513  158.1447 C   0  0  0  0  0  0  0  0  0  0  0  0
  149.0066  134.0006  158.0571 O   0  0  0  0  0  0  0  0  0  0  0  0
  150.2575  137.5929  154.6534 N   0  0  0  0  0  0  0  0  0  0  0  0
  151.2827  138.5126  154.1748 C   0  0  0  0  0  0  0  0  0  0  0  0
  152.2535  138.9182  155.2975 C   0  0  0  0  0  0  0  0  0  0  0  0
  151.5501  139.6406  156.4523 C   0  0  0  0  0  0  0  0  0  0  0  0
  152.5237  140.0738  157.3914 O   0  0  0  0  0  0  0  0  0  0  0  0
  152.0278  140.9623  158.3835 C   0  0  0  0  0  0  0  0  0  0  0  0
  151.3445  142.1800  157.7266 C   0  0  0  0  0  0  0  0  0  0  0  0
  150.9197  143.2182  158.7780 C   0  0  0  0  0  0  0  0  0  0  0  0
  152.1113  143.6565  159.6444 C   0  0  0  0  0  0  0  0  0  0  0  0
  152.7982  142.4467  160.2975 C   0  0  0  0  0  0  0  0  0  0  0  0
  153.2228  141.4126  159.2422 C   0  0  0  0  0  0  0  0  0  0  0  0
  147.9408  134.9350  160.0952 H   0  0  0  0  0  0  0  0  0  0  0  0
  148.5058  135.7615  154.9870 H   0  0  0  0  0  0  0  0  0  0  0  0
  149.5314  134.6287  155.8074 H   0  0  0  0  0  0  0  0  0  0  0  0
  148.1932  138.0453  156.4280 H   0  0  0  0  0  0  0  0  0  0  0  0
  147.1901  138.7768  158.4809 H   0  0  0  0  0  0  0  0  0  0  0  0
  149.3039  137.7974  154.3921 H   0  0  0  0  0  0  0  0  0  0  0  0
  151.8282  138.0169  153.3714 H   0  0  0  0  0  0  0  0  0  0  0  0
  150.8165  139.3951  153.7336 H   0  0  0  0  0  0  0  0  0  0  0  0
  152.7462  138.0284  155.6908 H   0  0  0  0  0  0  0  0  0  0  0  0
  153.0435  139.5546  154.8970 H   0  0  0  0  0  0  0  0  0  0  0  0
  150.9695  140.4785  156.0660 H   0  0  0  0  0  0  0  0  0  0  0  0
  150.8525  138.9597  156.9416 H   0  0  0  0  0  0  0  0  0  0  0  0
  151.3182  140.4432  159.0307 H   0  0  0  0  0  0  0  0  0  0  0  0
  152.0296  142.6432  157.0153 H   0  0  0  0  0  0  0  0  0  0  0  0
  150.4706  141.8705  157.1541 H   0  0  0  0  0  0  0  0  0  0  0  0
  150.4793  144.0859  158.2861 H   0  0  0  0  0  0  0  0  0  0  0  0
  150.1414  142.7951  159.4141 H   0  0  0  0  0  0  0  0  0  0  0  0
  152.8314  144.1962  159.0281 H   0  0  0  0  0  0  0  0  0  0  0  0
  151.7766  144.3543  160.4124 H   0  0  0  0  0  0  0  0  0  0  0  0
  153.6680  142.7757  160.8668 H   0  0  0  0  0  0  0  0  0  0  0  0
  152.1181  141.9815  161.0122 H   0  0  0  0  0  0  0  0  0  0  0  0
  153.6741  140.5491  159.7321 H   0  0  0  0  0  0  0  0  0  0  0  0
  153.9944  141.8426  158.6022 H   0  0  0  0  0  0  0  0  0  0  0  0
  1  2  2  0  0  0  0
  2  3  1  0  0  0  0
  2 12  1  0  0  0  0
  3  4  1  0  0  0  0
  3 24  1  0  0  0  0
  3 25  1  0  0  0  0
  4 10  1  0  0  0  0
  4  5  1  0  0  0  0
  5  6  2  0  0  0  0
  5 26  1  0  0  0  0
  6  7  1  0  0  0  0
  6 27  1  0  0  0  0
  7  8  2  0  0  0  0
  7  9  1  0  0  0  0
  9 23  1  0  0  0  0
  9 10  1  0  0  0  0
 10 11  2  0  0  0  0
 12 13  1  0  0  0  0
 12 28  1  0  0  0  0
 13 14  1  0  0  0  0
 13 29  1  0  0  0  0
 13 30  1  0  0  0  0
 14 15  1  0  0  0  0
 14 31  1  0  0  0  0
 14 32  1  0  0  0  0
 15 16  1  0  0  0  0
 15 33  1  0  0  0  0
 15 34  1  0  0  0  0
 16 17  1  0  0  0  0
 17 22  1  0  0  0  0
 17 18  1  0  0  0  0
 17 35  1  0  0  0  0
 18 19  1  0  0  0  0
 18 36  1  0  0  0  0
 18 37  1  0  0  0  0
 19 20  1  0  0  0  0
 19 38  1  0  0  0  0
 19 39  1  0  0  0  0
 20 21  1  0  0  0  0
 20 40  1  0  0  0  0
 20 41  1  0  0  0  0
 21 22  1  0  0  0  0
 21 42  1  0  0  0  0
 21 43  1  0  0  0  0
 22 44  1  0  0  0  0
 22 45  1  0  0  0  0
M  END
> <s_m_source_file>
AV-unprocessed.smi

> <i_m_source_file_index>
2017

> <i_lp_mmshare_version>
43012

> <i_f3d_flags>
0

> <s_epik_input>
Tz1jMVtuSF1jKD1PKVtjSF1bY0hdbjFbQ0gyXUMoPU8pW05IXVtDSDJdW0NIMl1bQ0gyXU9bQ0hdMltDSDJdW0NIMl1bQ0gyXVtDSDJdW0NIMl0y

> <s_epik_cmdline>
J2VwaWtfcHl0aG9uJywgJy1waCcsICc3LjAnLCAnLXRuJywgJzgnLCAnLW1hJywgJzIwMCcsICctbWV0YWxfYmluZGluZycsICctaW1hZScsICc8aW5maWxlLm1hZT4nLCAnLW9tYWUnLCAnPG91dGZpbGUubWFlPic=

> <r_lp_tautomer_probability>
0.999537

> <r_epik_Ionization_Penalty>
0.003299

> <r_epik_Ionization_Penalty_Charging>
0.00329898

> <r_epik_Ionization_Penalty_Neutral>
1.92812e-08

> <r_epik_State_Penalty>
0.00233129

> <r_epik_Charging_Adjusted_Penalty>
0.00563027

> <i_epik_Tot_Q>
0

> <i_epik_Tot_abs_Q>
0

> <r_epik_Metal_State_Penalty>
0.365405

> <b_epik_Metal_Only>
0

> <s_lp_Force_Field>
OPLS_2005

> <r_lp_Energy>
10.1374

> <b_lp_Chiralities_Consistent>
1

> <s_lp_Variant>
AV-unprocessed.smi:2017-1

> <Gold.Version>
5.8.1

> <Gold.Id.Protein>
6NUR|6NUR_protein|mol2

> <Gold.PLP.Fitness>
45.5822

> <Gold.PLP.PLP>
-34.4350

> <Gold.PLP.part.hbond>
-4.0000

> <Gold.PLP.part.metal>
0.0000

> <Gold.PLP.part.buried>
-5.2396

> <Gold.PLP.part.nonpolar>
-25.5949

> <Gold.PLP.part.repulsive>
0.1772

> <Gold.PLP.ligand.clash>
0.0000

> <Gold.PLP.ligand.torsion>
0.4938

> <Gold.PLP.Chemscore.Hbond>
4.0000

> <Gold.PLP.Chemscore.CHOScore>
0.0000

> <Gold.PLP.Chemscore.Metal>
0.0000

> <Gold.Chemscore.Hbonds>
donor molecule, donor type, donor heavy atom, donor atom, acceptor molecule, acceptor atom, score
      P1  H  6896  6908       L1    11  0.75
      P1  H  6934  6947       L1     8  1.00
      P1  H  7997  8009       L1    16  1.00
      P1  H 10752 10765       L1     1  1.00

> <Gold.PLP.Chemscore.Internal.Correction>
0.1349

> <Gold.Rescore>
     Score         DG    S(hbond)    S(metal)    S(lipo)     H(rot)  DE(clash)    DE(int)     intcor
     19.39     -21.32       3.87        0.00      84.66       2.74       0.09       1.84       ----

> <Gold.Chemscore.Fitness>
19.3870

> <Gold.Chemscore.DG>
-21.3152

> <Gold.Chemscore.ZeroCoef>
-5.4800

> <Gold.Chemscore.Hbond>
3.8742

> <Gold.Chemscore.Metal>
0.0000

> <Gold.Chemscore.Lipo>
84.6590

> <Gold.Chemscore.Internal_Hbond>
0.0000

> <Gold.Chemscore.DEClash>
0.0856

> <Gold.Chemscore.DEInternal>
1.8426

> <Gold.Chemscore.Rot>
2.7382

> <Gold.Chemscore.Internal.Correction>
   9.000000E+99

> <Gold.Chemscore.Hbonds>
donor molecule, donor type, donor heavy atom, donor atom, acceptor molecule, acceptor atom, score
      P1  H  6896  6908       L1    11  0.47
      P1  H  6934  6947       L1     8  0.70
      P1  H  7997  8009       L1    16  0.87
      P1  H 10752 10765       L1     1  1.00

> <Gold.Chemscore.Hbond.Weighted>
-12.9399

> <Gold.Chemscore.Metal.Weighted>
-0.0000

> <Gold.Chemscore.Lipo.Weighted>
-9.9051

> <Gold.Chemscore.Internal_Hbond.Weighted>
0.0000

> <Gold.Chemscore.DEClash.Weighted>
0.0856

> <Gold.Chemscore.DEInternal.Weighted>
1.8426

> <Gold.Chemscore.Rot.Weighted>
7.0098

> <Gold.Chemscore.Internal.Correction.Weighted>
   9.000000E+99

> <Gold.Protein.RotatedTorsions>
[ 6907 6896 6895 6894 ] final  123.34 input  -60.11 | X-H torsion
[ 7974 7965 7964 7962 ] final   36.97 input  175.53 | X-H torsion
[ 8008 7997 7996 7995 ] final  166.44 input   59.86 | X-H torsion
[ 10167 10162 10161 10158 ] final -176.55 input  -65.29 | X-H torsion
[ 10718 10713 10712 10709 ] final  171.91 input   66.30 | X-H torsion
[ 10763 10752 10751 10750 ] final -158.23 input  -60.55 | X-H torsion
[ 11005 11000 10999 10996 ] final  -89.08 input  -57.11 | X-H torsion

> <Gold.Protein.ActiveResidues>
 VAL166  LYS551  ARG553  GLY616  TRP617  ASP618  TYR619  PRO620  LYS621  CYS622 
 ASP623  PHE694  ASN695  SER759  ASP760  ASP761  ALA762  ILE779  LEU786  VAL792 
 PHE793  MET794  SER795  GLU796  ALA797  LYS798  CYS799  TRP800  GLU811  SER814 

> <Gold.Protein.RotatedAtoms>
  152.4169  133.7053  159.6447 H   0  0  0  0  0  0  0  0  0  0  0  0  # atno 6907 bound_to 6896
  150.8046  133.8523  159.3217 H   0  0  0  0  0  0  0  0  0  0  0  0  # atno 6908 bound_to 6896
  151.6250  135.1030  160.0161 H   0  0  0  0  0  0  0  0  0  0  0  0  # atno 6909 bound_to 6896
  146.1172  139.5952  142.9313 H   0  0  0  0  0  0  0  0  0  0  0  0  # atno 7974 bound_to 7965
  156.1718  140.1643  156.8434 H   0  0  0  0  0  0  0  0  0  0  0  0  # atno 8008 bound_to 7997
  154.5264  140.0766  156.8301 H   0  0  0  0  0  0  0  0  0  0  0  0  # atno 8009 bound_to 7997
  155.3497  140.3389  155.4241 H   0  0  0  0  0  0  0  0  0  0  0  0  # atno 8010 bound_to 7997
  139.5524  144.2075  152.1101 H   0  0  0  0  0  0  0  0  0  0  0  0  # atno 10167 bound_to 10162
  156.9866  131.0135  151.2868 H   0  0  0  0  0  0  0  0  0  0  0  0  # atno 10718 bound_to 10713
  154.7573  135.3108  154.8445 H   0  0  0  0  0  0  0  0  0  0  0  0  # atno 10763 bound_to 10752
  153.9215  135.6795  153.4752 H   0  0  0  0  0  0  0  0  0  0  0  0  # atno 10764 bound_to 10752
  153.1172  135.4839  154.9065 H   0  0  0  0  0  0  0  0  0  0  0  0  # atno 10765 bound_to 10752
  141.1591  133.7608  156.9543 H   0  0  0  0  0  0  0  0  0  0  0  0  # atno 11005 bound_to 11000
  145.5541  141.0410  143.2262 LP  0  0  0  0  0  0  0  0  0  0  0  0  # atno 17320 bound_to 7965
  144.7564  139.7064  143.7252 LP  0  0  0  0  0  0  0  0  0  0  0  0  # atno 17321 bound_to 7965
  140.1573  144.5059  150.6653 LP  0  0  0  0  0  0  0  0  0  0  0  0  # atno 17342 bound_to 10162
  140.6790  143.2318  151.5434 LP  0  0  0  0  0  0  0  0  0  0  0  0  # atno 17343 bound_to 10162
  157.5488  130.8169  149.8120 LP  0  0  0  0  0  0  0  0  0  0  0  0  # atno 17370 bound_to 10713
  156.0223  130.3791  150.1924 LP  0  0  0  0  0  0  0  0  0  0  0  0  # atno 17371 bound_to 10713
  140.1236  134.9401  157.2238 LP  0  0  0  0  0  0  0  0  0  0  0  0  # atno 17394 bound_to 11000
  140.3041  134.3098  155.7282 LP  0  0  0  0  0  0  0  0  0  0  0  0  # atno 17395 bound_to 11000

$$$$
