AV-unprocessed.smi:2110|AV-procd|sdf|8611|dock2
  -GOLD-   2272011353D 1   1.00000     0.00000
 Structure written by MMmdl.
 46 47  0  0  0  0  0  0  0  0  3 V2000
  153.1317  141.9266  160.3955 C   0  0  0  0  0  0  0  0  0  0  0  0
  152.5598  141.1995  159.1691 C   0  0  0  0  0  0  0  0  0  0  0  0
  151.4187  141.9158  158.5646 N   0  0  0  0  0  0  0  0  0  0  0  0
  151.5981  143.3540  158.2776 C   0  0  0  0  0  0  0  0  0  0  0  0
  151.4347  144.2412  159.5220 C   0  0  0  0  0  0  0  0  0  0  0  0
  150.0238  141.0435  157.9773 S   0  0  0  0  0  0  0  0  0  0  0  0
  150.3499  139.6203  158.1568 O   0  0  0  0  0  0  0  0  0  0  0  0
  148.8620  141.5731  158.7134 O   0  0  0  0  0  0  0  0  0  0  0  0
  150.1083  141.4874  156.4121 N   0  5  0  0  0  0  0  0  0  0  0  0
  150.1113  140.5090  155.3363 C   0  0  0  0  0  0  0  0  0  0  0  0
  148.7545  140.4434  154.6518 C   0  0  0  0  0  0  0  0  0  0  0  0
  148.4737  139.4271  153.7105 C   0  0  0  0  0  0  0  0  0  0  0  0
  147.2113  139.4010  153.0900 C   0  0  0  0  0  0  0  0  0  0  0  0
  146.2908  140.3390  153.3968 N   0  3  0  0  0  0  0  0  0  0  0  0
  146.4979  141.3424  154.2850 C   0  0  0  0  0  0  0  0  0  0  0  0
  145.4447  142.2584  154.5130 N   0  0  0  0  0  0  0  0  0  0  0  0
  144.8442  142.3030  155.8444 C   0  0  0  0  0  0  0  0  0  0  0  0
  143.5377  143.1148  155.8274 C   0  0  0  0  0  0  0  0  0  0  0  0
  143.7768  144.4036  155.2751 O   0  0  0  0  0  0  0  0  0  0  0  0
  144.2188  144.3205  153.9257 C   0  0  0  0  0  0  0  0  0  0  0  0
  145.5563  143.5646  153.8629 C   0  0  0  0  0  0  0  0  0  0  0  0
  147.7564  141.4067  154.9372 C   0  0  0  0  0  0  0  0  0  0  0  0
  153.9212  141.3340  160.8575 H   0  0  0  0  0  0  0  0  0  0  0  0
  152.3692  142.1078  161.1524 H   0  0  0  0  0  0  0  0  0  0  0  0
  153.5667  142.8876  160.1217 H   0  0  0  0  0  0  0  0  0  0  0  0
  153.3400  141.0816  158.4172 H   0  0  0  0  0  0  0  0  0  0  0  0
  152.2566  140.1887  159.4427 H   0  0  0  0  0  0  0  0  0  0  0  0
  152.5836  143.5200  157.8438 H   0  0  0  0  0  0  0  0  0  0  0  0
  150.8772  143.6513  157.5157 H   0  0  0  0  0  0  0  0  0  0  0  0
  151.6557  145.2808  159.2810 H   0  0  0  0  0  0  0  0  0  0  0  0
  152.1102  143.9388  160.3204 H   0  0  0  0  0  0  0  0  0  0  0  0
  150.4178  144.2094  159.9123 H   0  0  0  0  0  0  0  0  0  0  0  0
  150.8647  140.7392  154.5823 H   0  0  0  0  0  0  0  0  0  0  0  0
  150.3551  139.5098  155.6985 H   0  0  0  0  0  0  0  0  0  0  0  0
  149.2068  138.6741  153.4535 H   0  0  0  0  0  0  0  0  0  0  0  0
  146.9123  138.6630  152.3602 H   0  0  0  0  0  0  0  0  0  0  0  0
  144.6160  141.2966  156.1953 H   0  0  0  0  0  0  0  0  0  0  0  0
  145.5548  142.7450  156.5442 H   0  0  0  0  0  0  0  0  0  0  0  0
  142.7662  142.5986  155.2536 H   0  0  0  0  0  0  0  0  0  0  0  0
  143.1550  143.2288  156.8416 H   0  0  0  0  0  0  0  0  0  0  0  0
  143.4630  143.8266  153.3126 H   0  0  0  0  0  0  0  0  0  0  0  0
  144.3392  145.3287  153.5295 H   0  0  0  0  0  0  0  0  0  0  0  0
  146.3360  144.1402  154.3634 H   0  0  0  0  0  0  0  0  0  0  0  0
  145.8485  143.4695  152.8173 H   0  0  0  0  0  0  0  0  0  0  0  0
  147.9704  142.1958  155.6434 H   0  0  0  0  0  0  0  0  0  0  0  0
  145.3855  140.2903  152.9298 H   0  0  0  0  0  0  0  0  0  0  0  0
  1  2  1  0  0  0  0
  1 23  1  0  0  0  0
  1 24  1  0  0  0  0
  1 25  1  0  0  0  0
  2  3  1  0  0  0  0
  2 26  1  0  0  0  0
  2 27  1  0  0  0  0
  3  4  1  0  0  0  0
  3  6  1  0  0  0  0
  4  5  1  0  0  0  0
  4 28  1  0  0  0  0
  4 29  1  0  0  0  0
  5 30  1  0  0  0  0
  5 31  1  0  0  0  0
  5 32  1  0  0  0  0
  6  7  2  0  0  0  0
  6  8  2  0  0  0  0
  6  9  1  0  0  0  0
  9 10  1  0  0  0  0
 10 11  1  0  0  0  0
 10 33  1  0  0  0  0
 10 34  1  0  0  0  0
 11 22  1  0  0  0  0
 11 12  2  0  0  0  0
 12 13  1  0  0  0  0
 12 35  1  0  0  0  0
 13 14  2  0  0  0  0
 13 36  1  0  0  0  0
 14 15  1  0  0  0  0
 14 46  1  0  0  0  0
 15 16  1  0  0  0  0
 15 22  2  0  0  0  0
 16 21  1  0  0  0  0
 16 17  1  0  0  0  0
 17 18  1  0  0  0  0
 17 37  1  0  0  0  0
 17 38  1  0  0  0  0
 18 19  1  0  0  0  0
 18 39  1  0  0  0  0
 18 40  1  0  0  0  0
 19 20  1  0  0  0  0
 20 21  1  0  0  0  0
 20 41  1  0  0  0  0
 20 42  1  0  0  0  0
 21 43  1  0  0  0  0
 21 44  1  0  0  0  0
 22 45  1  0  0  0  0
M  CHG  1   9  -1
M  CHG  1  14   1
M  END
> <s_m_source_file>
AV-unprocessed.smi

> <i_m_source_file_index>
2110

> <i_lp_mmshare_version>
43012

> <i_f3d_flags>
0

> <s_epik_input>
W0NIM11bQ0gyXU4oW0NIMl1bQ0gzXSlTKD1PKSg9TylbTkhdW0NIMl1jMVtjSF1bY0hdbmMoW2NIXTEpTjJbQ0gyXVtDSDJdT1tDSDJdW0NIMl0y

> <s_epik_cmdline>
J2VwaWtfcHl0aG9uJywgJy1waCcsICc3LjAnLCAnLXRuJywgJzgnLCAnLW1hJywgJzIwMCcsICctbWV0YWxfYmluZGluZycsICctaW1hZScsICc8aW5maWxlLm1hZT4nLCAnLW9tYWUnLCAnPG91dGZpbGUubWFlPic=

> <r_lp_tautomer_probability>
0.999994

> <r_epik_Ionization_Penalty>
2.03784

> <r_epik_Ionization_Penalty_Charging>
2.03784

> <r_epik_Ionization_Penalty_Neutral>
4.07977e-08

> <r_epik_State_Penalty>
3.04665

> <r_epik_Charging_Adjusted_Penalty>
5.08449

> <i_epik_Tot_Q>
0

> <i_epik_Tot_abs_Q>
2

> <r_epik_Metal_State_Penalty>
1.92951

> <b_epik_Metal_Only>
1

> <s_lp_Force_Field>
OPLS_2005

> <r_lp_Energy>
13.8127

> <b_lp_Chiralities_Consistent>
1

> <s_lp_Variant>
AV-unprocessed.smi:2110-4

> <Gold.Version>
5.8.1

> <Gold.Id.Protein>
6NUR|6NUR_protein|mol2

> <Gold.PLP.Fitness>
47.9011

> <Gold.PLP.PLP>
-43.1086

> <Gold.PLP.part.hbond>
-1.3235

> <Gold.PLP.part.metal>
0.0000

> <Gold.PLP.part.buried>
-2.7740

> <Gold.PLP.part.nonpolar>
-39.2823

> <Gold.PLP.part.repulsive>
0.5220

> <Gold.PLP.ligand.clash>
0.0000

> <Gold.PLP.ligand.torsion>
2.5014

> <Gold.PLP.Chemscore.Hbond>
2.0000

> <Gold.PLP.Chemscore.CHOScore>
0.0000

> <Gold.PLP.Chemscore.Metal>
0.0000

> <Gold.Chemscore.Hbonds>
donor molecule, donor type, donor heavy atom, donor atom, acceptor molecule, acceptor atom, score
      L1  H    14    46       P1 10175  2.00

> <Gold.PLP.Chemscore.Internal.Correction>
3.7951

> <Gold.Rescore>
     Score         DG    S(hbond)    S(metal)    S(lipo)     H(rot)  DE(clash)    DE(int)     intcor
     13.15     -16.11       0.98        0.00     100.35       1.72       0.25       2.71       ----

> <Gold.Chemscore.Fitness>
13.1510

> <Gold.Chemscore.DG>
-16.1111

> <Gold.Chemscore.ZeroCoef>
-5.4800

> <Gold.Chemscore.Hbond>
0.9829

> <Gold.Chemscore.Metal>
0.0000

> <Gold.Chemscore.Lipo>
100.3470

> <Gold.Chemscore.Internal_Hbond>
0.0000

> <Gold.Chemscore.DEClash>
0.2533

> <Gold.Chemscore.DEInternal>
2.7068

> <Gold.Chemscore.Rot>
1.7159

> <Gold.Chemscore.Internal.Correction>
   9.000000E+99

> <Gold.Chemscore.Hbonds>
donor molecule, donor type, donor heavy atom, donor atom, acceptor molecule, acceptor atom, score
      L1  H    14    46       P1 10175  0.96

> <Gold.Chemscore.Hbond.Weighted>
-3.2830

> <Gold.Chemscore.Metal.Weighted>
-0.0000

> <Gold.Chemscore.Lipo.Weighted>
-11.7406

> <Gold.Chemscore.Internal_Hbond.Weighted>
0.0000

> <Gold.Chemscore.DEClash.Weighted>
0.2533

> <Gold.Chemscore.DEInternal.Weighted>
2.7068

> <Gold.Chemscore.Rot.Weighted>
4.3926

> <Gold.Chemscore.Internal.Correction.Weighted>
   9.000000E+99

> <Gold.Protein.RotatedTorsions>
[ 6907 6896 6895 6894 ] final -103.94 input  -60.11 | X-H torsion
[ 7974 7965 7964 7962 ] final -123.63 input  175.53 | X-H torsion
[ 8008 7997 7996 7995 ] final  157.57 input   59.86 | X-H torsion
[ 10167 10162 10161 10158 ] final    4.49 input  -65.29 | X-H torsion
[ 10718 10713 10712 10709 ] final -167.41 input   66.30 | X-H torsion
[ 10763 10752 10751 10750 ] final   35.29 input  -60.55 | X-H torsion
[ 11005 11000 10999 10996 ] final  -98.62 input  -57.11 | X-H torsion

> <Gold.Protein.ActiveResidues>
 VAL166  LYS551  ARG553  GLY616  TRP617  ASP618  TYR619  PRO620  LYS621  CYS622 
 ASP623  PHE694  ASN695  SER759  ASP760  ASP761  ALA762  ILE779  LEU786  VAL792 
 PHE793  MET794  SER795  GLU796  ALA797  LYS798  CYS799  TRP800  GLU811  SER814 

> <Gold.Protein.RotatedAtoms>
  150.7264  134.0352  159.3746 H   0  0  0  0  0  0  0  0  0  0  0  0  # atno 6907 bound_to 6896
  151.8324  135.0615  160.0447 H   0  0  0  0  0  0  0  0  0  0  0  0  # atno 6908 bound_to 6896
  152.2924  133.5538  159.5602 H   0  0  0  0  0  0  0  0  0  0  0  0  # atno 6909 bound_to 6896
  145.0166  140.7952  143.4406 H   0  0  0  0  0  0  0  0  0  0  0  0  # atno 7974 bound_to 7965
  156.2356  140.1882  156.7128 H   0  0  0  0  0  0  0  0  0  0  0  0  # atno 8008 bound_to 7997
  154.6100  140.0623  156.9509 H   0  0  0  0  0  0  0  0  0  0  0  0  # atno 8009 bound_to 7997
  155.2031  140.3294  155.4342 H   0  0  0  0  0  0  0  0  0  0  0  0  # atno 8010 bound_to 7997
  140.6532  143.7493  150.7609 H   0  0  0  0  0  0  0  0  0  0  0  0  # atno 10167 bound_to 10162
  156.6820  130.9125  151.3058 H   0  0  0  0  0  0  0  0  0  0  0  0  # atno 10718 bound_to 10713
  153.0126  135.6337  154.1803 H   0  0  0  0  0  0  0  0  0  0  0  0  # atno 10763 bound_to 10752
  154.1544  135.2827  155.3128 H   0  0  0  0  0  0  0  0  0  0  0  0  # atno 10764 bound_to 10752
  154.6029  135.5581  153.7453 H   0  0  0  0  0  0  0  0  0  0  0  0  # atno 10765 bound_to 10752
  141.1338  133.8259  157.0863 H   0  0  0  0  0  0  0  0  0  0  0  0  # atno 11005 bound_to 11000
  145.1951  139.2281  143.5222 LP  0  0  0  0  0  0  0  0  0  0  0  0  # atno 17320 bound_to 7965
  146.3479  140.1756  142.8589 LP  0  0  0  0  0  0  0  0  0  0  0  0  # atno 17321 bound_to 7965
  140.1147  143.4666  152.2349 LP  0  0  0  0  0  0  0  0  0  0  0  0  # atno 17342 bound_to 10162
  139.5750  144.7483  151.3789 LP  0  0  0  0  0  0  0  0  0  0  0  0  # atno 17343 bound_to 10162
  157.7040  130.9364  150.0873 LP  0  0  0  0  0  0  0  0  0  0  0  0  # atno 17370 bound_to 10713
  156.1860  130.3652  149.8972 LP  0  0  0  0  0  0  0  0  0  0  0  0  # atno 17371 bound_to 10713
  140.0420  134.9849  157.0979 LP  0  0  0  0  0  0  0  0  0  0  0  0  # atno 17394 bound_to 11000
  140.4121  134.1970  155.7163 LP  0  0  0  0  0  0  0  0  0  0  0  0  # atno 17395 bound_to 11000

$$$$
