AV-unprocessed.smi:1586|AV-procd|sdf|6376|dock7
  -GOLD-   22720 7 03D 1   1.00000     0.00000
 Structure written by MMmdl.
 47 48  0  0  0  0  0  0  0  0  2 V2000
  143.3377  132.4694  150.9349 C   0  0  0  0  0  0  0  0  0  0  0  0
  144.0129  133.1648  152.1260 C   0  0  0  0  0  0  0  0  0  0  0  0
  144.8056  134.3237  151.7081 N   0  0  0  0  0  0  0  0  0  0  0  0
  145.3364  135.1428  152.7987 C   0  0  0  0  0  0  0  0  0  0  0  0
  146.4276  134.4119  153.6079 C   0  0  0  0  0  0  0  0  0  0  0  0
  147.5593  133.9761  152.7408 N   0  3  0  0  0  0  0  0  0  0  0  0
  148.6647  133.2782  153.4805 C   0  0  1  0  0  0  0  0  0  0  0  0
  149.2857  134.1926  154.5659 C   0  0  0  0  0  0  0  0  0  0  0  0
  148.2004  131.9386  154.1135 C   0  0  0  0  0  0  0  0  0  0  0  0
  148.1219  130.8598  153.1332 N   0  0  0  0  0  0  0  0  0  0  0  0
  147.8678  129.5768  153.4252 C   0  0  0  0  0  0  0  0  0  0  0  0
  147.6574  129.1695  154.5680 O   0  0  0  0  0  0  0  0  0  0  0  0
  147.8755  128.8144  152.3187 N   0  0  0  0  0  0  0  0  0  0  0  0
  147.6788  127.4126  152.2326 C   0  0  0  0  0  0  0  0  0  0  0  0
  147.8437  126.7289  150.9987 C   0  0  0  0  0  0  0  0  0  0  0  0
  147.5781  125.4299  151.3291 C   0  0  0  0  0  0  0  0  0  0  0  0
  147.5635  124.1656  150.5400 C   0  0  0  0  0  0  0  0  0  0  0  0
  147.2769  125.3296  152.6525 O   0  0  0  0  0  0  0  0  0  0  0  0
  147.3422  126.6049  153.2263 N   0  0  0  0  0  0  0  0  0  0  0  0
  147.0246  133.1895  151.5925 C   0  0  0  0  0  0  0  0  0  0  0  0
  145.9199  133.9569  150.8366 C   0  0  0  0  0  0  0  0  0  0  0  0
  142.8650  131.5409  151.2552 H   0  0  0  0  0  0  0  0  0  0  0  0
  144.0623  132.2191  150.1592 H   0  0  0  0  0  0  0  0  0  0  0  0
  142.5597  133.0872  150.4874 H   0  0  0  0  0  0  0  0  0  0  0  0
  143.2685  133.4326  152.8749 H   0  0  0  0  0  0  0  0  0  0  0  0
  144.6821  132.4456  152.6001 H   0  0  0  0  0  0  0  0  0  0  0  0
  145.7551  136.0549  152.3711 H   0  0  0  0  0  0  0  0  0  0  0  0
  144.5315  135.4682  153.4568 H   0  0  0  0  0  0  0  0  0  0  0  0
  146.7728  135.1220  154.3567 H   0  0  0  0  0  0  0  0  0  0  0  0
  146.0155  133.5588  154.1479 H   0  0  0  0  0  0  0  0  0  0  0  0
  149.4461  133.0449  152.7551 H   0  0  0  0  0  0  0  0  0  0  0  0
  150.0357  133.6757  155.1636 H   0  0  0  0  0  0  0  0  0  0  0  0
  148.5239  134.5644  155.2520 H   0  0  0  0  0  0  0  0  0  0  0  0
  149.8063  135.0490  154.1397 H   0  0  0  0  0  0  0  0  0  0  0  0
  148.8730  131.6664  154.9291 H   0  0  0  0  0  0  0  0  0  0  0  0
  147.1982  132.0189  154.5323 H   0  0  0  0  0  0  0  0  0  0  0  0
  148.2781  131.1067  152.1667 H   0  0  0  0  0  0  0  0  0  0  0  0
  148.0529  129.2845  151.4434 H   0  0  0  0  0  0  0  0  0  0  0  0
  148.1138  127.1224  150.0299 H   0  0  0  0  0  0  0  0  0  0  0  0
  147.5281  124.3747  149.4707 H   0  0  0  0  0  0  0  0  0  0  0  0
  146.6941  123.5590  150.7942 H   0  0  0  0  0  0  0  0  0  0  0  0
  148.4583  123.5760  150.7397 H   0  0  0  0  0  0  0  0  0  0  0  0
  147.8101  132.9893  150.8667 H   0  0  0  0  0  0  0  0  0  0  0  0
  146.6633  132.2201  151.9379 H   0  0  0  0  0  0  0  0  0  0  0  0
  145.5501  133.3612  150.0011 H   0  0  0  0  0  0  0  0  0  0  0  0
  146.3383  134.8653  150.4006 H   0  0  0  0  0  0  0  0  0  0  0  0
  147.9576  134.8184  152.3508 H   0  0  0  0  0  0  0  0  0  0  0  0
  1  2  1  0  0  0  0
  1 22  1  0  0  0  0
  1 23  1  0  0  0  0
  1 24  1  0  0  0  0
  2  3  1  0  0  0  0
  2 25  1  0  0  0  0
  2 26  1  0  0  0  0
  3 21  1  0  0  0  0
  3  4  1  0  0  0  0
  4  5  1  0  0  0  0
  4 27  1  0  0  0  0
  4 28  1  0  0  0  0
  5  6  1  0  0  0  0
  5 29  1  0  0  0  0
  5 30  1  0  0  0  0
  6  7  1  0  0  0  0
  6 20  1  0  0  0  0
  6 47  1  0  0  0  0
  7  8  1  0  0  0  0
  7  9  1  0  0  0  0
  7 31  1  0  0  0  0
  8 32  1  0  0  0  0
  8 33  1  0  0  0  0
  8 34  1  0  0  0  0
  9 10  1  0  0  0  0
  9 35  1  0  0  0  0
  9 36  1  0  0  0  0
 10 11  1  0  0  0  0
 10 37  1  0  0  0  0
 11 12  2  0  0  0  0
 11 13  1  0  0  0  0
 13 14  1  0  0  0  0
 13 38  1  0  0  0  0
 14 19  2  0  0  0  0
 14 15  1  0  0  0  0
 15 16  2  0  0  0  0
 15 39  1  0  0  0  0
 16 17  1  0  0  0  0
 16 18  1  0  0  0  0
 17 40  1  0  0  0  0
 17 41  1  0  0  0  0
 17 42  1  0  0  0  0
 18 19  1  0  0  0  0
 20 21  1  0  0  0  0
 20 43  1  0  0  0  0
 20 44  1  0  0  0  0
 21 45  1  0  0  0  0
 21 46  1  0  0  0  0
M  CHG  1   6   1
M  END
> <s_m_source_file>
AV-unprocessed.smi

> <i_m_source_file_index>
1586

> <i_lp_mmshare_version>
43012

> <i_f3d_flags>
0

> <s_epik_input>
W0NIM11bQ0gyXU4xW0NIMl1bQ0gyXU4oW0NIMl1bQ0gyXTEpW0NASF0oW0NIM10pW0NIMl1bTkhdQyg9TylbTkhdYzJbY0hdYyhbQ0gzXSlvbjI=

> <s_epik_cmdline>
J2VwaWtfcHl0aG9uJywgJy1waCcsICc3LjAnLCAnLXRuJywgJzgnLCAnLW1hJywgJzIwMCcsICctbWV0YWxfYmluZGluZycsICctaW1hZScsICc8aW5maWxlLm1hZT4nLCAnLW9tYWUnLCAnPG91dGZpbGUubWFlPic=

> <r_epik_Ionization_Penalty>
0.153363

> <r_epik_Ionization_Penalty_Charging>
0.151842

> <r_epik_Ionization_Penalty_Neutral>
0.00152029

> <r_epik_State_Penalty>
0.985235

> <r_epik_Charging_Adjusted_Penalty>
1.13708

> <i_epik_Tot_Q>
1

> <i_epik_Tot_abs_Q>
1

> <r_epik_Metal_State_Penalty>
0.996168

> <b_epik_Metal_Only>
0

> <s_lp_Force_Field>
OPLS_2005

> <r_lp_Energy>
21.483

> <b_lp_Chiralities_Consistent>
1

> <s_lp_Variant>
AV-unprocessed.smi:1586-4

> <Gold.Version>
5.8.1

> <Gold.Id.Protein>
6NUR|6NUR_protein|mol2

> <Gold.PLP.Fitness>
49.6060

> <Gold.PLP.PLP>
-38.2131

> <Gold.PLP.part.hbond>
-4.2171

> <Gold.PLP.part.metal>
0.0000

> <Gold.PLP.part.buried>
-3.9863

> <Gold.PLP.part.nonpolar>
-30.9128

> <Gold.PLP.part.repulsive>
0.3047

> <Gold.PLP.ligand.clash>
0.0000

> <Gold.PLP.ligand.torsion>
0.2629

> <Gold.PLP.Chemscore.Hbond>
3.9500

> <Gold.PLP.Chemscore.CHOScore>
0.0000

> <Gold.PLP.Chemscore.Metal>
0.0000

> <Gold.Chemscore.Hbonds>
donor molecule, donor type, donor heavy atom, donor atom, acceptor molecule, acceptor atom, score
      L1  H     6    47       P1  7948  2.00
      L1  H    10    37       P1 10747  1.00
      L1  H    13    38       P1 10747  0.78

> <Gold.PLP.Chemscore.Internal.Correction>
0.0686

> <Gold.Rescore>
     Score         DG    S(hbond)    S(metal)    S(lipo)     H(rot)  DE(clash)    DE(int)     intcor
     13.78     -16.45       2.05        0.00      73.97       1.76       0.16       2.51       ----

> <Gold.Chemscore.Fitness>
13.7819

> <Gold.Chemscore.DG>
-16.4542

> <Gold.Chemscore.ZeroCoef>
-5.4800

> <Gold.Chemscore.Hbond>
2.0463

> <Gold.Chemscore.Metal>
0.0000

> <Gold.Chemscore.Lipo>
73.9718

> <Gold.Chemscore.Internal_Hbond>
0.0000

> <Gold.Chemscore.DEClash>
0.1632

> <Gold.Chemscore.DEInternal>
2.5091

> <Gold.Chemscore.Rot>
1.7637

> <Gold.Chemscore.Internal.Correction>
   9.000000E+99

> <Gold.Chemscore.Hbonds>
donor molecule, donor type, donor heavy atom, donor atom, acceptor molecule, acceptor atom, score
      L1  H     6    47       P1  7948  0.65
      L1  H    10    37       P1 10747  0.92
      L1  H    13    38       P1 10747  0.37

> <Gold.Chemscore.Hbond.Weighted>
-6.8345

> <Gold.Chemscore.Metal.Weighted>
-0.0000

> <Gold.Chemscore.Lipo.Weighted>
-8.6547

> <Gold.Chemscore.Internal_Hbond.Weighted>
0.0000

> <Gold.Chemscore.DEClash.Weighted>
0.1632

> <Gold.Chemscore.DEInternal.Weighted>
2.5091

> <Gold.Chemscore.Rot.Weighted>
4.5150

> <Gold.Chemscore.Internal.Correction.Weighted>
   9.000000E+99

> <Gold.Protein.RotatedTorsions>
[ 6907 6896 6895 6894 ] final   86.76 input  -60.11 | X-H torsion
[ 7974 7965 7964 7962 ] final -169.19 input  175.53 | X-H torsion
[ 8008 7997 7996 7995 ] final  -26.23 input   59.86 | X-H torsion
[ 10167 10162 10161 10158 ] final   41.39 input  -65.29 | X-H torsion
[ 10718 10713 10712 10709 ] final   25.43 input   66.30 | X-H torsion
[ 10763 10752 10751 10750 ] final   86.67 input  -60.55 | X-H torsion
[ 11005 11000 10999 10996 ] final   87.89 input  -57.11 | X-H torsion

> <Gold.Protein.ActiveResidues>
 VAL166  LYS551  ARG553  GLY616  TRP617  ASP618  TYR619  PRO620  LYS621  CYS622 
 ASP623  PHE694  ASN695  SER759  ASP760  ASP761  ALA762  ILE779  LEU786  VAL792 
 PHE793  MET794  SER795  GLU796  ALA797  LYS798  CYS799  TRP800  GLU811  SER814 

> <Gold.Protein.RotatedAtoms>
  152.5400  134.2382  159.8851 H   0  0  0  0  0  0  0  0  0  0  0  0  # atno 6907 bound_to 6896
  151.2351  133.4423  159.2613 H   0  0  0  0  0  0  0  0  0  0  0  0  # atno 6908 bound_to 6896
  151.0679  134.9793  159.8350 H   0  0  0  0  0  0  0  0  0  0  0  0  # atno 6909 bound_to 6896
  144.7190  140.2258  143.6310 H   0  0  0  0  0  0  0  0  0  0  0  0  # atno 7974 bound_to 7965
  154.4435  140.1905  156.0743 H   0  0  0  0  0  0  0  0  0  0  0  0  # atno 8008 bound_to 7997
  156.0487  140.3311  155.7299 H   0  0  0  0  0  0  0  0  0  0  0  0  # atno 8009 bound_to 7997
  155.5590  140.0602  157.2824 H   0  0  0  0  0  0  0  0  0  0  0  0  # atno 8010 bound_to 7997
  140.3648  144.2182  150.6136 H   0  0  0  0  0  0  0  0  0  0  0  0  # atno 10167 bound_to 10162
  157.1932  130.6856  149.6158 H   0  0  0  0  0  0  0  0  0  0  0  0  # atno 10718 bound_to 10713
  153.1593  135.4571  154.9749 H   0  0  0  0  0  0  0  0  0  0  0  0  # atno 10763 bound_to 10752
  154.7885  135.3212  154.7833 H   0  0  0  0  0  0  0  0  0  0  0  0  # atno 10764 bound_to 10752
  153.8325  135.6937  153.4867 H   0  0  0  0  0  0  0  0  0  0  0  0  # atno 10765 bound_to 10752
  139.8909  134.8452  156.2924 H   0  0  0  0  0  0  0  0  0  0  0  0  # atno 11005 bound_to 11000
  145.8458  139.2151  143.1801 LP  0  0  0  0  0  0  0  0  0  0  0  0  # atno 17320 bound_to 7965
  146.0306  140.8262  142.9878 LP  0  0  0  0  0  0  0  0  0  0  0  0  # atno 17321 bound_to 7965
  140.5092  143.2295  151.8562 LP  0  0  0  0  0  0  0  0  0  0  0  0  # atno 17342 bound_to 10162
  139.4810  144.4970  151.9111 LP  0  0  0  0  0  0  0  0  0  0  0  0  # atno 17343 bound_to 10162
  155.9709  130.4607  150.6084 LP  0  0  0  0  0  0  0  0  0  0  0  0  # atno 17370 bound_to 10713
  157.3840  131.0785  151.1452 LP  0  0  0  0  0  0  0  0  0  0  0  0  # atno 17371 bound_to 10713
  140.9968  133.7175  156.0898 LP  0  0  0  0  0  0  0  0  0  0  0  0  # atno 17394 bound_to 11000
  140.7552  134.4000  157.5535 LP  0  0  0  0  0  0  0  0  0  0  0  0  # atno 17395 bound_to 11000

$$$$
