AV-unprocessed.smi:155|AV-procd|sdf|1275|dock5
  -GOLD-   2262018533D 1   1.00000     0.00000
 Structure written by MMmdl.
 63 66  0  0  0  0  0  0  0  0  2 V2000
  146.6386  128.6379  152.0760 C   0  0  0  0  0  0  0  0  0  0  0  0
  146.6762  130.1104  151.9260 N   0  3  0  0  0  0  0  0  0  0  0  0
  145.4538  130.6186  151.2649 C   0  0  0  0  0  0  0  0  0  0  0  0
  146.9627  130.8299  153.1931 C   0  0  0  0  0  0  0  0  0  0  0  0
  148.3186  130.4330  153.8222 C   0  0  0  0  0  0  0  0  0  0  0  0
  148.9424  131.5297  154.5671 N   0  0  0  0  0  0  0  0  0  0  0  0
  150.1893  131.0926  155.2091 C   0  0  0  0  0  0  0  0  0  0  0  0
  151.0889  132.2058  155.7900 C   0  0  0  0  0  0  0  0  0  0  0  0
  150.3584  133.3996  156.4211 C   0  0  0  0  0  0  0  0  0  0  0  0
  149.9352  134.3573  155.4038 N   0  0  0  0  0  0  0  0  0  0  0  0
  149.8089  135.6142  155.8789 C   0  0  0  0  0  0  0  0  0  0  0  0
  148.8362  135.9018  156.7833 N   0  0  0  0  0  0  0  0  0  0  0  0
  148.7177  137.1460  157.2578 C   0  0  0  0  0  0  0  0  0  0  0  0
  149.4510  138.2243  156.9689 N   0  0  0  0  0  0  0  0  0  0  0  0
  150.4283  137.9315  156.0626 C   0  0  0  0  0  0  0  0  0  0  0  0
  150.6734  136.6620  155.4705 C   0  0  0  0  0  0  0  0  0  0  0  0
  151.7491  136.7405  154.5956 N   0  0  0  0  0  0  0  0  0  0  0  0
  152.1261  137.9880  154.6724 C   0  0  0  0  0  0  0  0  0  0  0  0
  151.3952  138.7712  155.5378 N   0  0  0  0  0  0  0  0  0  0  0  0
  151.6039  140.1803  155.8256 C   0  0  0  0  0  0  0  0  0  0  0  0
  150.5718  140.7830  156.8050 C   0  0  2  0  0  0  0  0  0  0  0  0
  149.2651  140.7054  156.2696 O   0  0  0  0  0  0  0  0  0  0  0  0
  150.8740  142.2248  157.2726 C   0  0  2  0  0  0  0  0  0  0  0  0
  152.1069  142.4010  158.1580 C   0  0  0  0  0  0  0  0  0  0  0  0
  151.8479  143.7367  158.8379 C   0  0  0  0  0  0  0  0  0  0  0  0
  150.3422  143.9686  158.6605 C   0  0  0  0  0  0  0  0  0  0  0  0
  149.8380  142.7801  158.0667 O   0  0  0  0  0  0  0  0  0  0  0  0
  148.8410  133.9685  154.5217 C   0  0  0  0  0  0  0  0  0  0  0  0
  149.1428  132.6976  153.7092 C   0  0  0  0  0  0  0  0  0  0  0  0
  145.8738  128.3351  152.7927 H   0  0  0  0  0  0  0  0  0  0  0  0
  147.5989  128.2497  152.4112 H   0  0  0  0  0  0  0  0  0  0  0  0
  146.4169  128.1597  151.1212 H   0  0  0  0  0  0  0  0  0  0  0  0
  144.5739  130.4496  151.8871 H   0  0  0  0  0  0  0  0  0  0  0  0
  145.2959  130.1210  150.3074 H   0  0  0  0  0  0  0  0  0  0  0  0
  145.5345  131.6883  151.0686 H   0  0  0  0  0  0  0  0  0  0  0  0
  146.9969  131.9015  152.9907 H   0  0  0  0  0  0  0  0  0  0  0  0
  146.1280  130.6966  153.8826 H   0  0  0  0  0  0  0  0  0  0  0  0
  148.2303  129.5544  154.4626 H   0  0  0  0  0  0  0  0  0  0  0  0
  148.9732  130.1344  153.0022 H   0  0  0  0  0  0  0  0  0  0  0  0
  149.9367  130.4023  156.0131 H   0  0  0  0  0  0  0  0  0  0  0  0
  150.7875  130.5282  154.4935 H   0  0  0  0  0  0  0  0  0  0  0  0
  151.7302  131.7507  156.5453 H   0  0  0  0  0  0  0  0  0  0  0  0
  151.7718  132.5703  155.0212 H   0  0  0  0  0  0  0  0  0  0  0  0
  149.5033  133.0640  157.0098 H   0  0  0  0  0  0  0  0  0  0  0  0
  151.0392  133.8974  157.1139 H   0  0  0  0  0  0  0  0  0  0  0  0
  147.9225  137.2996  157.9721 H   0  0  0  0  0  0  0  0  0  0  0  0
  152.9585  138.3731  154.1013 H   0  0  0  0  0  0  0  0  0  0  0  0
  152.6121  140.3003  156.2244 H   0  0  0  0  0  0  0  0  0  0  0  0
  151.5834  140.7306  154.8842 H   0  0  0  0  0  0  0  0  0  0  0  0
  150.5692  140.1483  157.6918 H   0  0  0  0  0  0  0  0  0  0  0  0
  148.7428  141.3859  156.6663 H   0  0  0  0  0  0  0  0  0  0  0  0
  150.9867  142.8578  156.3899 H   0  0  0  0  0  0  0  0  0  0  0  0
  152.1601  141.6166  158.9137 H   0  0  0  0  0  0  0  0  0  0  0  0
  153.0383  142.3860  157.5914 H   0  0  0  0  0  0  0  0  0  0  0  0
  152.1353  143.7065  159.8894 H   0  0  0  0  0  0  0  0  0  0  0  0
  152.4132  144.5369  158.3587 H   0  0  0  0  0  0  0  0  0  0  0  0
  149.8363  144.1723  159.6044 H   0  0  0  0  0  0  0  0  0  0  0  0
  150.1596  144.8093  157.9895 H   0  0  0  0  0  0  0  0  0  0  0  0
  147.9209  133.8464  155.0957 H   0  0  0  0  0  0  0  0  0  0  0  0
  148.6611  134.7871  153.8227 H   0  0  0  0  0  0  0  0  0  0  0  0
  150.1320  132.7142  153.2490 H   0  0  0  0  0  0  0  0  0  0  0  0
  148.4288  132.6795  152.8854 H   0  0  0  0  0  0  0  0  0  0  0  0
  147.4394  130.3202  151.2983 H   0  0  0  0  0  0  0  0  0  0  0  0
  1  2  1  0  0  0  0
  1 30  1  0  0  0  0
  1 31  1  0  0  0  0
  1 32  1  0  0  0  0
  2  3  1  0  0  0  0
  2  4  1  0  0  0  0
  2 63  1  0  0  0  0
  3 33  1  0  0  0  0
  3 34  1  0  0  0  0
  3 35  1  0  0  0  0
  4  5  1  0  0  0  0
  4 36  1  0  0  0  0
  4 37  1  0  0  0  0
  5  6  1  0  0  0  0
  5 38  1  0  0  0  0
  5 39  1  0  0  0  0
  6 29  1  0  0  0  0
  6  7  1  0  0  0  0
  7  8  1  0  0  0  0
  7 40  1  0  0  0  0
  7 41  1  0  0  0  0
  8  9  1  0  0  0  0
  8 42  1  0  0  0  0
  8 43  1  0  0  0  0
  9 10  1  0  0  0  0
  9 44  1  0  0  0  0
  9 45  1  0  0  0  0
 10 11  1  0  0  0  0
 10 28  1  0  0  0  0
 11 16  1  0  0  0  0
 11 12  2  0  0  0  0
 12 13  1  0  0  0  0
 13 14  2  0  0  0  0
 13 46  1  0  0  0  0
 14 15  1  0  0  0  0
 15 19  1  0  0  0  0
 15 16  2  0  0  0  0
 16 17  1  0  0  0  0
 17 18  2  0  0  0  0
 18 19  1  0  0  0  0
 18 47  1  0  0  0  0
 19 20  1  0  0  0  0
 20 21  1  0  0  0  0
 20 48  1  0  0  0  0
 20 49  1  0  0  0  0
 21 22  1  0  0  0  0
 21 23  1  0  0  0  0
 21 50  1  0  0  0  0
 22 51  1  0  0  0  0
 23 27  1  0  0  0  0
 23 24  1  0  0  0  0
 23 52  1  0  0  0  0
 24 25  1  0  0  0  0
 24 53  1  0  0  0  0
 24 54  1  0  0  0  0
 25 26  1  0  0  0  0
 25 55  1  0  0  0  0
 25 56  1  0  0  0  0
 26 27  1  0  0  0  0
 26 57  1  0  0  0  0
 26 58  1  0  0  0  0
 28 29  1  0  0  0  0
 28 59  1  0  0  0  0
 28 60  1  0  0  0  0
 29 61  1  0  0  0  0
 29 62  1  0  0  0  0
M  CHG  1   2   1
M  END
> <s_m_source_file>
AV-unprocessed.smi

> <i_m_source_file_index>
155

> <i_lp_mmshare_version>
43012

> <i_f3d_flags>
0

> <s_epik_input>
W0NIM11OKFtDSDNdKVtDSDJdW0NIMl1OMVtDSDJdW0NIMl1bQ0gyXU4oW0NIMl1bQ0gyXTEpYyhuW2NIXW4yKWMoYzIzKW5bY0hdbjNbQ0gyXVtDQEhdKFtPSF0pW0NAQEhdNFtDSDJdW0NIMl1bQ0gyXU80

> <s_epik_cmdline>
J2VwaWtfcHl0aG9uJywgJy1waCcsICc3LjAnLCAnLXRuJywgJzgnLCAnLW1hJywgJzIwMCcsICctbWV0YWxfYmluZGluZycsICctaW1hZScsICc8aW5maWxlLm1hZT4nLCAnLW9tYWUnLCAnPG91dGZpbGUubWFlPic=

> <r_lp_tautomer_probability>
1

> <r_epik_Ionization_Penalty>
0.0599493

> <r_epik_Ionization_Penalty_Charging>
0.00816363

> <r_epik_Ionization_Penalty_Neutral>
0.0517857

> <r_epik_State_Penalty>
0.460607

> <r_epik_Charging_Adjusted_Penalty>
0.468771

> <i_epik_Tot_Q>
1

> <i_epik_Tot_abs_Q>
1

> <r_epik_Metal_State_Penalty>
0.45965

> <b_epik_Metal_Only>
0

> <s_lp_Force_Field>
OPLS_2005

> <r_lp_Energy>
61.9788

> <b_lp_Chiralities_Consistent>
1

> <s_lp_Variant>
AV-unprocessed.smi:155-9

> <Gold.Version>
5.8.1

> <Gold.Id.Protein>
6NUR|6NUR_protein|mol2

> <Gold.PLP.Fitness>
52.9317

> <Gold.PLP.PLP>
-47.5107

> <Gold.PLP.part.hbond>
-2.0000

> <Gold.PLP.part.metal>
0.0000

> <Gold.PLP.part.buried>
-7.0491

> <Gold.PLP.part.nonpolar>
-38.1927

> <Gold.PLP.part.repulsive>
0.4758

> <Gold.PLP.ligand.clash>
0.0000

> <Gold.PLP.ligand.torsion>
0.4761

> <Gold.PLP.Chemscore.Hbond>
2.0000

> <Gold.PLP.Chemscore.CHOScore>
0.0000

> <Gold.PLP.Chemscore.Metal>
0.0000

> <Gold.Chemscore.Hbonds>
donor molecule, donor type, donor heavy atom, donor atom, acceptor molecule, acceptor atom, score
      L1  H     2    63       P1 10747  1.00
      P1  H 10752 10765       L1    17  1.00

> <Gold.PLP.Chemscore.Internal.Correction>
0.3733

> <Gold.Rescore>
     Score         DG    S(hbond)    S(metal)    S(lipo)     H(rot)  DE(clash)    DE(int)     intcor
     15.72     -17.73       1.96        0.00     114.05       2.99       0.00       2.00       ----

> <Gold.Chemscore.Fitness>
15.7204

> <Gold.Chemscore.DG>
-17.7291

> <Gold.Chemscore.ZeroCoef>
-5.4800

> <Gold.Chemscore.Hbond>
1.9612

> <Gold.Chemscore.Metal>
0.0000

> <Gold.Chemscore.Lipo>
114.0454

> <Gold.Chemscore.Internal_Hbond>
0.0000

> <Gold.Chemscore.DEClash>
0.0038

> <Gold.Chemscore.DEInternal>
2.0049

> <Gold.Chemscore.Rot>
2.9862

> <Gold.Chemscore.Internal.Correction>
   9.000000E+99

> <Gold.Chemscore.Hbonds>
donor molecule, donor type, donor heavy atom, donor atom, acceptor molecule, acceptor atom, score
      L1  H     2    63       P1 10747  1.00
      P1  H 10752 10765       L1    17  0.93

> <Gold.Chemscore.Hbond.Weighted>
-6.5505

> <Gold.Chemscore.Metal.Weighted>
-0.0000

> <Gold.Chemscore.Lipo.Weighted>
-13.3433

> <Gold.Chemscore.Internal_Hbond.Weighted>
0.0000

> <Gold.Chemscore.DEClash.Weighted>
0.0038

> <Gold.Chemscore.DEInternal.Weighted>
2.0049

> <Gold.Chemscore.Rot.Weighted>
7.6448

> <Gold.Chemscore.Internal.Correction.Weighted>
   9.000000E+99

> <Gold.Protein.RotatedTorsions>
[ 6907 6896 6895 6894 ] final -138.56 input  -60.11 | X-H torsion
[ 7974 7965 7964 7962 ] final  -15.48 input  175.53 | X-H torsion
[ 8008 7997 7996 7995 ] final   12.36 input   59.86 | X-H torsion
[ 10167 10162 10161 10158 ] final   80.31 input  -65.29 | X-H torsion
[ 10718 10713 10712 10709 ] final   88.90 input   66.30 | X-H torsion
[ 10763 10752 10751 10750 ] final  177.02 input  -60.55 | X-H torsion
[ 11005 11000 10999 10996 ] final   76.22 input  -57.11 | X-H torsion

> <Gold.Protein.ActiveResidues>
 VAL166  LYS551  ARG553  GLY616  TRP617  ASP618  TYR619  PRO620  LYS621  CYS622 
 ASP623  PHE694  ASN695  SER759  ASP760  ASP761  ALA762  ILE779  LEU786  VAL792 
 PHE793  MET794  SER795  GLU796  ALA797  LYS798  CYS799  TRP800  GLU811  SER814 

> <Gold.Protein.RotatedAtoms>
  151.0366  133.5743  159.2655 H   0  0  0  0  0  0  0  0  0  0  0  0  # atno 6907 bound_to 6896
  151.2805  135.0711  159.9177 H   0  0  0  0  0  0  0  0  0  0  0  0  # atno 6908 bound_to 6896
  152.5356  134.0081  159.7980 H   0  0  0  0  0  0  0  0  0  0  0  0  # atno 6909 bound_to 6896
  146.2030  140.3499  142.8417 H   0  0  0  0  0  0  0  0  0  0  0  0  # atno 7974 bound_to 7965
  154.8195  140.2881  155.5797 H   0  0  0  0  0  0  0  0  0  0  0  0  # atno 8008 bound_to 7997
  156.2996  140.2553  156.3030 H   0  0  0  0  0  0  0  0  0  0  0  0  # atno 8009 bound_to 7997
  154.9355  140.0382  157.2059 H   0  0  0  0  0  0  0  0  0  0  0  0  # atno 8010 bound_to 7997
  139.9511  144.6026  150.8160 H   0  0  0  0  0  0  0  0  0  0  0  0  # atno 10167 bound_to 10162
  157.6952  131.0312  150.3345 H   0  0  0  0  0  0  0  0  0  0  0  0  # atno 10718 bound_to 10713
  154.4889  135.2778  155.1512 H   0  0  0  0  0  0  0  0  0  0  0  0  # atno 10763 bound_to 10752
  154.3191  135.6213  153.5503 H   0  0  0  0  0  0  0  0  0  0  0  0  # atno 10764 bound_to 10752
  152.9885  135.5738  154.5306 H   0  0  0  0  0  0  0  0  0  0  0  0  # atno 10765 bound_to 10752
  139.9308  134.7583  156.1368 H   0  0  0  0  0  0  0  0  0  0  0  0  # atno 11005 bound_to 11000
  144.8726  140.7293  143.6037 LP  0  0  0  0  0  0  0  0  0  0  0  0  # atno 17320 bound_to 7965
  145.3419  139.1730  143.4481 LP  0  0  0  0  0  0  0  0  0  0  0  0  # atno 17321 bound_to 7965
  140.7582  143.3103  151.2860 LP  0  0  0  0  0  0  0  0  0  0  0  0  # atno 17342 bound_to 10162
  139.6628  144.0159  152.2703 LP  0  0  0  0  0  0  0  0  0  0  0  0  # atno 17343 bound_to 10162
  156.3814  130.3881  149.7099 LP  0  0  0  0  0  0  0  0  0  0  0  0  # atno 17370 bound_to 10713
  156.4480  130.7893  151.2914 LP  0  0  0  0  0  0  0  0  0  0  0  0  # atno 17371 bound_to 10713
  141.0895  133.6720  156.2510 LP  0  0  0  0  0  0  0  0  0  0  0  0  # atno 17394 bound_to 11000
  140.6208  134.5364  157.5547 LP  0  0  0  0  0  0  0  0  0  0  0  0  # atno 17395 bound_to 11000

$$$$
