AV-unprocessed.smi:2991|AV-procd|sdf|11397|dock2
  -GOLD-   2272016323D 1   1.00000     0.00000
 Structure written by MMmdl.
 37 38  0  0  0  0  0  0  0  0  1 V2000
  151.8091  136.4226  157.3057 C   0  0  0  0  0  0  0  0  0  0  0  0
  151.2240  135.2392  156.5576 C   0  0  0  0  0  0  0  0  0  0  0  0
  151.6721  134.0244  156.9423 N   0  0  0  0  0  0  0  0  0  0  0  0
  151.1901  132.9386  156.3039 C   0  0  0  0  0  0  0  0  0  0  0  0
  150.2425  133.0079  155.2650 C   0  0  0  0  0  0  0  0  0  0  0  0
  149.7584  134.2780  154.8700 C   0  0  0  0  0  0  0  0  0  0  0  0
  148.8191  134.4634  153.8180 N   0  0  0  0  0  0  0  0  0  0  0  0
  147.7813  133.6833  153.4712 C   0  0  0  0  0  0  0  0  0  0  0  0
  147.4525  132.6403  154.0367 O   0  0  0  0  0  0  0  0  0  0  0  0
  147.1211  134.1984  152.4242 N   0  0  0  0  0  0  0  0  0  0  0  0
  145.9145  133.6404  151.8135 C   0  0  2  0  0  0  0  0  0  0  0  0
  146.2814  132.6868  150.6464 C   0  0  0  0  0  0  0  0  0  0  0  0
  145.2097  132.5094  149.5506 C   0  0  0  0  0  0  0  0  0  0  0  0
  143.8141  132.0810  150.0479 C   0  0  0  0  0  0  0  0  0  0  0  0
  143.1636  132.9649  151.1385 C   0  0  0  0  0  0  0  0  0  0  0  0
  143.6390  134.3477  151.1544 N   0  0  0  0  0  0  0  0  0  0  0  0
  144.8851  134.7365  151.4755 C   0  0  0  0  0  0  0  0  0  0  0  0
  145.2049  135.9247  151.4814 O   0  0  0  0  0  0  0  0  0  0  0  0
  150.2736  135.4211  155.5254 C   0  0  0  0  0  0  0  0  0  0  0  0
  149.7476  137.0102  155.0796 Cl  0  0  0  0  0  0  0  0  0  0  0  0
  152.3227  137.0909  156.6141 H   0  0  0  0  0  0  0  0  0  0  0  0
  152.5277  136.1046  158.0623 H   0  0  0  0  0  0  0  0  0  0  0  0
  151.0191  136.9835  157.8054 H   0  0  0  0  0  0  0  0  0  0  0  0
  151.5776  131.9835  156.6263 H   0  0  0  0  0  0  0  0  0  0  0  0
  149.9195  132.0958  154.7875 H   0  0  0  0  0  0  0  0  0  0  0  0
  148.9056  135.3343  153.3144 H   0  0  0  0  0  0  0  0  0  0  0  0
  147.4594  135.0641  152.0295 H   0  0  0  0  0  0  0  0  0  0  0  0
  145.4395  133.0379  152.5890 H   0  0  0  0  0  0  0  0  0  0  0  0
  147.1889  133.0456  150.1587 H   0  0  0  0  0  0  0  0  0  0  0  0
  146.5379  131.7096  151.0577 H   0  0  0  0  0  0  0  0  0  0  0  0
  145.1204  133.4346  148.9794 H   0  0  0  0  0  0  0  0  0  0  0  0
  145.5654  131.7699  148.8326 H   0  0  0  0  0  0  0  0  0  0  0  0
  143.1505  132.0609  149.1827 H   0  0  0  0  0  0  0  0  0  0  0  0
  143.8542  131.0520  150.4068 H   0  0  0  0  0  0  0  0  0  0  0  0
  142.0822  132.9747  151.0006 H   0  0  0  0  0  0  0  0  0  0  0  0
  143.3220  132.5221  152.1224 H   0  0  0  0  0  0  0  0  0  0  0  0
  142.9676  135.0645  150.9197 H   0  0  0  0  0  0  0  0  0  0  0  0
  1  2  1  0  0  0  0
  1 21  1  0  0  0  0
  1 22  1  0  0  0  0
  1 23  1  0  0  0  0
  2 19  1  0  0  0  0
  2  3  2  0  0  0  0
  3  4  1  0  0  0  0
  4  5  2  0  0  0  0
  4 24  1  0  0  0  0
  5  6  1  0  0  0  0
  5 25  1  0  0  0  0
  6  7  1  0  0  0  0
  6 19  2  0  0  0  0
  7  8  1  0  0  0  0
  7 26  1  0  0  0  0
  8  9  2  0  0  0  0
  8 10  1  0  0  0  0
 10 11  1  0  0  0  0
 10 27  1  0  0  0  0
 11 17  1  0  0  0  0
 11 12  1  0  0  0  0
 11 28  1  0  0  0  0
 12 13  1  0  0  0  0
 12 29  1  0  0  0  0
 12 30  1  0  0  0  0
 13 14  1  0  0  0  0
 13 31  1  0  0  0  0
 13 32  1  0  0  0  0
 14 15  1  0  0  0  0
 14 33  1  0  0  0  0
 14 34  1  0  0  0  0
 15 16  1  0  0  0  0
 15 35  1  0  0  0  0
 15 36  1  0  0  0  0
 16 17  1  0  0  0  0
 16 37  1  0  0  0  0
 17 18  2  0  0  0  0
 19 20  1  0  0  0  0
M  END
> <s_m_source_file>
AV-unprocessed.smi

> <i_m_source_file_index>
2991

> <i_lp_mmshare_version>
43012

> <i_f3d_flags>
0

> <s_epik_input>
W0NIM11jMW5bY0hdW2NIXWMoYzFDbClbTkhdQyg9TylbTkhdW0NAQEhdMltDSDJdW0NIMl1bQ0gyXVtDSDJdW05IXUMyPU8=

> <s_epik_cmdline>
J2VwaWtfcHl0aG9uJywgJy1waCcsICc3LjAnLCAnLXRuJywgJzgnLCAnLW1hJywgJzIwMCcsICctbWV0YWxfYmluZGluZycsICctaW1hZScsICc8aW5maWxlLm1hZT4nLCAnLW9tYWUnLCAnPG91dGZpbGUubWFlPic=

> <r_epik_Ionization_Penalty>
0.00809016

> <r_epik_Ionization_Penalty_Charging>
0

> <r_epik_Ionization_Penalty_Neutral>
0.00809016

> <r_epik_State_Penalty>
0.00605324

> <r_epik_Charging_Adjusted_Penalty>
0.00605324

> <i_epik_Tot_Q>
0

> <i_epik_Tot_abs_Q>
0

> <r_epik_Metal_State_Penalty>
0.00597181

> <b_epik_Metal_Only>
0

> <s_lp_Force_Field>
OPLS_2005

> <r_lp_Energy>
20.4462

> <b_lp_Chiralities_Consistent>
1

> <s_lp_Variant>
AV-unprocessed.smi:2991-1

> <Gold.Version>
5.8.1

> <Gold.Id.Protein>
6NUR|6NUR_protein|mol2

> <Gold.PLP.Fitness>
37.3181

> <Gold.PLP.PLP>
-32.1994

> <Gold.PLP.part.hbond>
-3.9195

> <Gold.PLP.part.metal>
0.0000

> <Gold.PLP.part.buried>
-1.9762

> <Gold.PLP.part.nonpolar>
-26.2376

> <Gold.PLP.part.repulsive>
0.2840

> <Gold.PLP.ligand.clash>
0.0000

> <Gold.PLP.ligand.torsion>
0.5478

> <Gold.PLP.Chemscore.Hbond>
2.0535

> <Gold.PLP.Chemscore.CHOScore>
0.0000

> <Gold.PLP.Chemscore.Metal>
0.0000

> <Gold.Chemscore.Hbonds>
donor molecule, donor type, donor heavy atom, donor atom, acceptor molecule, acceptor atom, score
      L1  H     7    26       P1  7948  1.00
      L1  H    10    27       P1  7948  0.91
      P1  H  6896  6908       L1     3  0.03

> <Gold.PLP.Chemscore.Internal.Correction>
0.0536

> <Gold.Rescore>
     Score         DG    S(hbond)    S(metal)    S(lipo)     H(rot)  DE(clash)    DE(int)     intcor
     16.58     -17.17       1.65        0.00      74.73       1.00       0.05       0.55       ----

> <Gold.Chemscore.Fitness>
16.5797

> <Gold.Chemscore.DG>
-17.1744

> <Gold.Chemscore.ZeroCoef>
-5.4800

> <Gold.Chemscore.Hbond>
1.6499

> <Gold.Chemscore.Metal>
0.0000

> <Gold.Chemscore.Lipo>
74.7329

> <Gold.Chemscore.Internal_Hbond>
0.0000

> <Gold.Chemscore.DEClash>
0.0456

> <Gold.Chemscore.DEInternal>
0.5491

> <Gold.Chemscore.Rot>
1.0000

> <Gold.Chemscore.Internal.Correction>
   9.000000E+99

> <Gold.Chemscore.Hbonds>
donor molecule, donor type, donor heavy atom, donor atom, acceptor molecule, acceptor atom, score
      L1  H     7    26       P1  7948  0.62
      L1  H    10    27       P1  7948  0.83
      P1  H  6896  6908       L1     3  0.01

> <Gold.Chemscore.Hbond.Weighted>
-5.5107

> <Gold.Chemscore.Metal.Weighted>
-0.0000

> <Gold.Chemscore.Lipo.Weighted>
-8.7437

> <Gold.Chemscore.Internal_Hbond.Weighted>
0.0000

> <Gold.Chemscore.DEClash.Weighted>
0.0456

> <Gold.Chemscore.DEInternal.Weighted>
0.5491

> <Gold.Chemscore.Rot.Weighted>
2.5600

> <Gold.Chemscore.Internal.Correction.Weighted>
   9.000000E+99

> <Gold.Protein.RotatedTorsions>
[ 6907 6896 6895 6894 ] final  103.64 input  -60.11 | X-H torsion
[ 7974 7965 7964 7962 ] final -123.01 input  175.53 | X-H torsion
[ 8008 7997 7996 7995 ] final  105.18 input   59.86 | X-H torsion
[ 10167 10162 10161 10158 ] final -135.32 input  -65.29 | X-H torsion
[ 10718 10713 10712 10709 ] final  118.47 input   66.30 | X-H torsion
[ 10763 10752 10751 10750 ] final  -42.11 input  -60.55 | X-H torsion
[ 11005 11000 10999 10996 ] final  109.68 input  -57.11 | X-H torsion

> <Gold.Protein.ActiveResidues>
 VAL166  LYS551  ARG553  GLY616  TRP617  ASP618  TYR619  PRO620  LYS621  CYS622 
 ASP623  PHE694  ASN695  SER759  ASP760  ASP761  ALA762  ILE779  LEU786  VAL792 
 PHE793  MET794  SER795  GLU796  ALA797  LYS798  CYS799  TRP800  GLU811  SER814 

> <Gold.Protein.RotatedAtoms>
  152.5289  133.9795  159.7799 H   0  0  0  0  0  0  0  0  0  0  0  0  # atno 6907 bound_to 6896
  151.0051  133.6010  159.2697 H   0  0  0  0  0  0  0  0  0  0  0  0  # atno 6908 bound_to 6896
  151.3105  135.0799  159.9324 H   0  0  0  0  0  0  0  0  0  0  0  0  # atno 6909 bound_to 6896
  145.0233  140.8007  143.4367 H   0  0  0  0  0  0  0  0  0  0  0  0  # atno 7974 bound_to 7965
  156.1637  140.3135  155.8851 H   0  0  0  0  0  0  0  0  0  0  0  0  # atno 8008 bound_to 7997
  155.3731  140.0483  157.3062 H   0  0  0  0  0  0  0  0  0  0  0  0  # atno 8009 bound_to 7997
  154.5171  140.2185  155.9056 H   0  0  0  0  0  0  0  0  0  0  0  0  # atno 8010 bound_to 7997
  139.8791  143.6862  152.2630 H   0  0  0  0  0  0  0  0  0  0  0  0  # atno 10167 bound_to 10162
  157.6028  131.1048  150.7760 H   0  0  0  0  0  0  0  0  0  0  0  0  # atno 10718 bound_to 10713
  153.9736  135.6725  153.4748 H   0  0  0  0  0  0  0  0  0  0  0  0  # atno 10763 bound_to 10752
  153.0781  135.4938  154.8443 H   0  0  0  0  0  0  0  0  0  0  0  0  # atno 10764 bound_to 10752
  154.7205  135.3116  154.9016 H   0  0  0  0  0  0  0  0  0  0  0  0  # atno 10765 bound_to 10752
  139.8867  134.9464  156.6163 H   0  0  0  0  0  0  0  0  0  0  0  0  # atno 11005 bound_to 11000
  145.1866  139.2323  143.5264 LP  0  0  0  0  0  0  0  0  0  0  0  0  # atno 17320 bound_to 7965
  146.3488  140.1653  142.8590 LP  0  0  0  0  0  0  0  0  0  0  0  0  # atno 17321 bound_to 7965
  139.7213  144.7602  151.0951 LP  0  0  0  0  0  0  0  0  0  0  0  0  # atno 17342 bound_to 10162
  140.7748  143.5204  150.9543 LP  0  0  0  0  0  0  0  0  0  0  0  0  # atno 17343 bound_to 10162
  156.8156  130.4967  149.5350 LP  0  0  0  0  0  0  0  0  0  0  0  0  # atno 17370 bound_to 10713
  156.1106  130.6037  151.0040 LP  0  0  0  0  0  0  0  0  0  0  0  0  # atno 17371 bound_to 10713
  140.7773  133.8689  155.8539 LP  0  0  0  0  0  0  0  0  0  0  0  0  # atno 17394 bound_to 11000
  140.9791  134.1430  157.4510 LP  0  0  0  0  0  0  0  0  0  0  0  0  # atno 17395 bound_to 11000

$$$$
