AV-unprocessed.smi:2124|AV-procd|sdf|8652|dock6
  -GOLD-   2272011403D 1   1.00000     0.00000
 Structure written by MMmdl.
 47 49  0  0  0  0  0  0  0  0  1 V2000
  146.4902  138.2749  151.8119 C   0  0  0  0  0  0  0  0  0  0  0  0
  147.1990  139.3178  152.6497 C   0  0  0  0  0  0  0  0  0  0  0  0
  146.6856  140.4626  152.9594 N   0  0  0  0  0  0  0  0  0  0  0  0
  147.4386  141.3493  153.7416 C   0  0  0  0  0  0  0  0  0  0  0  0
  146.7653  142.6712  154.0664 C   0  0  0  0  0  0  0  0  0  0  0  0
  148.6938  141.0323  154.1753 C   0  0  0  0  0  0  0  0  0  0  0  0
  149.5413  141.9750  155.0288 C   0  0  0  0  0  0  0  0  0  0  0  0
  149.9163  141.4737  156.4259 C   0  0  0  0  0  0  0  0  0  0  0  0
  149.0430  141.1661  157.2376 O   0  0  0  0  0  0  0  0  0  0  0  0
  151.2310  141.3899  156.6824 N   0  0  0  0  0  0  0  0  0  0  0  0
  151.8359  140.9204  157.9282 C   0  0  2  0  0  0  0  0  0  0  0  0
  151.2927  139.5137  158.2286 C   0  0  0  0  0  0  0  0  0  0  0  0
  151.5475  141.9209  159.0757 C   0  0  1  0  0  0  0  0  0  0  0  0
  152.3376  141.6166  160.3726 C   0  0  0  0  0  0  0  0  0  0  0  0
  153.0475  142.9474  160.6778 C   0  0  2  0  0  0  0  0  0  0  0  0
  152.0102  143.9965  161.1169 C   0  0  0  0  0  0  0  0  0  0  0  0
  151.2794  144.3180  159.8003 C   0  0  0  0  0  0  0  0  0  0  0  0
  151.9730  143.3851  158.7890 C   0  0  1  0  0  0  0  0  0  0  0  0
  153.4160  143.4257  159.2800 C   0  0  0  0  0  0  0  0  0  0  0  0
  149.2680  139.7200  153.8207 C   0  0  0  0  0  0  0  0  0  0  0  0
  150.3808  139.3289  154.1696 O   0  0  0  0  0  0  0  0  0  0  0  0
  148.4726  138.9309  153.0640 N   0  0  0  0  0  0  0  0  0  0  0  0
  148.8205  138.0223  152.7950 H   0  0  0  0  0  0  0  0  0  0  0  0
  145.5625  137.9713  152.2973 H   0  0  0  0  0  0  0  0  0  0  0  0
  147.1065  137.3867  151.6667 H   0  0  0  0  0  0  0  0  0  0  0  0
  146.2461  138.6848  150.8317 H   0  0  0  0  0  0  0  0  0  0  0  0
  147.2984  143.4969  153.5946 H   0  0  0  0  0  0  0  0  0  0  0  0
  146.7449  142.8396  155.1431 H   0  0  0  0  0  0  0  0  0  0  0  0
  145.7354  142.6889  153.7079 H   0  0  0  0  0  0  0  0  0  0  0  0
  150.4574  142.2381  154.4980 H   0  0  0  0  0  0  0  0  0  0  0  0
  149.0078  142.9184  155.1456 H   0  0  0  0  0  0  0  0  0  0  0  0
  151.8685  141.6650  155.9493 H   0  0  0  0  0  0  0  0  0  0  0  0
  152.9168  140.8340  157.8069 H   0  0  0  0  0  0  0  0  0  0  0  0
  151.7530  139.0861  159.1190 H   0  0  0  0  0  0  0  0  0  0  0  0
  151.4951  138.8318  157.4018 H   0  0  0  0  0  0  0  0  0  0  0  0
  150.2141  139.5300  158.3886 H   0  0  0  0  0  0  0  0  0  0  0  0
  150.4762  141.8936  159.2831 H   0  0  0  0  0  0  0  0  0  0  0  0
  151.6886  141.2949  161.1881 H   0  0  0  0  0  0  0  0  0  0  0  0
  153.0806  140.8338  160.2156 H   0  0  0  0  0  0  0  0  0  0  0  0
  153.8868  142.8465  161.3665 H   0  0  0  0  0  0  0  0  0  0  0  0
  151.3370  143.6147  161.8855 H   0  0  0  0  0  0  0  0  0  0  0  0
  152.4996  144.8881  161.5112 H   0  0  0  0  0  0  0  0  0  0  0  0
  150.2049  144.1425  159.8637 H   0  0  0  0  0  0  0  0  0  0  0  0
  151.4294  145.3633  159.5270 H   0  0  0  0  0  0  0  0  0  0  0  0
  151.8347  143.7103  157.7581 H   0  0  0  0  0  0  0  0  0  0  0  0
  153.8501  144.4270  159.2653 H   0  0  0  0  0  0  0  0  0  0  0  0
  154.0779  142.7420  158.7462 H   0  0  0  0  0  0  0  0  0  0  0  0
  1  2  1  0  0  0  0
  1 24  1  0  0  0  0
  1 25  1  0  0  0  0
  1 26  1  0  0  0  0
  2 22  1  0  0  0  0
  2  3  2  0  0  0  0
  3  4  1  0  0  0  0
  4  5  1  0  0  0  0
  4  6  2  0  0  0  0
  5 27  1  0  0  0  0
  5 28  1  0  0  0  0
  5 29  1  0  0  0  0
  6  7  1  0  0  0  0
  6 20  1  0  0  0  0
  7  8  1  0  0  0  0
  7 30  1  0  0  0  0
  7 31  1  0  0  0  0
  8  9  2  0  0  0  0
  8 10  1  0  0  0  0
 10 11  1  0  0  0  0
 10 32  1  0  0  0  0
 11 12  1  0  0  0  0
 11 13  1  0  0  0  0
 11 33  1  0  0  0  0
 12 34  1  0  0  0  0
 12 35  1  0  0  0  0
 12 36  1  0  0  0  0
 13 18  1  0  0  0  0
 13 14  1  0  0  0  0
 13 37  1  0  0  0  0
 14 15  1  0  0  0  0
 14 38  1  0  0  0  0
 14 39  1  0  0  0  0
 15 19  1  0  0  0  0
 15 16  1  0  0  0  0
 15 40  1  0  0  0  0
 16 17  1  0  0  0  0
 16 41  1  0  0  0  0
 16 42  1  0  0  0  0
 17 18  1  0  0  0  0
 17 43  1  0  0  0  0
 17 44  1  0  0  0  0
 18 19  1  0  0  0  0
 18 45  1  0  0  0  0
 19 46  1  0  0  0  0
 19 47  1  0  0  0  0
 20 21  2  0  0  0  0
 20 22  1  0  0  0  0
 22 23  1  0  0  0  0
M  END
> <s_m_source_file>
AV-unprocessed.smi

> <i_m_source_file_index>
2124

> <i_lp_mmshare_version>
43012

> <i_f3d_flags>
0

> <s_epik_input>
W0NIM11jMW5jKFtDSDNdKWMoYyg9TylbbkhdMSlbQ0gyXUMoPU8pW05IXVtDQEhdKFtDSDNdKVtDQEhdKFtDSDJdW0NASF0yMylbQ0BIXShbQ0gyXTMpW0NIMl1bQ0gyXTI=

> <s_epik_cmdline>
J2VwaWtfcHl0aG9uJywgJy1waCcsICc3LjAnLCAnLXRuJywgJzgnLCAnLW1hJywgJzIwMCcsICctbWV0YWxfYmluZGluZycsICctaW1hZScsICc8aW5maWxlLm1hZT4nLCAnLW9tYWUnLCAnPG91dGZpbGUubWFlPic=

> <r_lp_tautomer_probability>
0.839158

> <r_epik_Ionization_Penalty>
0.000383628

> <r_epik_Ionization_Penalty_Charging>
0.00035045

> <r_epik_Ionization_Penalty_Neutral>
3.31781e-05

> <r_epik_State_Penalty>
0.09125

> <r_epik_Charging_Adjusted_Penalty>
0.0916005

> <i_epik_Tot_Q>
0

> <i_epik_Tot_abs_Q>
0

> <r_epik_Metal_State_Penalty>
0.255229

> <b_epik_Metal_Only>
0

> <s_lp_Force_Field>
OPLS_2005

> <r_lp_Energy>
52.5512

> <b_lp_Chiralities_Consistent>
1

> <s_lp_Variant>
AV-unprocessed.smi:2124-3

> <Gold.Version>
5.8.1

> <Gold.Id.Protein>
6NUR|6NUR_protein|mol2

> <Gold.PLP.Fitness>
52.3177

> <Gold.PLP.PLP>
-46.4903

> <Gold.PLP.part.hbond>
-2.6933

> <Gold.PLP.part.metal>
0.0000

> <Gold.PLP.part.buried>
2.4735

> <Gold.PLP.part.nonpolar>
-46.4381

> <Gold.PLP.part.repulsive>
1.5835

> <Gold.PLP.ligand.clash>
0.0000

> <Gold.PLP.ligand.torsion>
0.0997

> <Gold.PLP.Chemscore.Hbond>
2.0000

> <Gold.PLP.Chemscore.CHOScore>
0.0000

> <Gold.PLP.Chemscore.Metal>
0.0000

> <Gold.Chemscore.Hbonds>
donor molecule, donor type, donor heavy atom, donor atom, acceptor molecule, acceptor atom, score
      L1  H    22    23       P1  7948  1.00
      P1  H  7989  7998       L1    21  0.86

> <Gold.PLP.Chemscore.Internal.Correction>
0.0268

> <Gold.Rescore>
     Score         DG    S(hbond)    S(metal)    S(lipo)     H(rot)  DE(clash)    DE(int)     intcor
     17.68     -22.00       1.84        0.00     124.91       1.65       3.46       0.86       ----

> <Gold.Chemscore.Fitness>
17.6825

> <Gold.Chemscore.DG>
-21.9953

> <Gold.Chemscore.ZeroCoef>
-5.4800

> <Gold.Chemscore.Hbond>
1.8362

> <Gold.Chemscore.Metal>
0.0000

> <Gold.Chemscore.Lipo>
124.9146

> <Gold.Chemscore.Internal_Hbond>
0.0000

> <Gold.Chemscore.DEClash>
3.4573

> <Gold.Chemscore.DEInternal>
0.8556

> <Gold.Chemscore.Rot>
1.6534

> <Gold.Chemscore.Internal.Correction>
   9.000000E+99

> <Gold.Chemscore.Hbonds>
donor molecule, donor type, donor heavy atom, donor atom, acceptor molecule, acceptor atom, score
      L1  H    22    23       P1  7948  0.96
      P1  H  7989  7998       L1    21  0.29

> <Gold.Chemscore.Hbond.Weighted>
-6.1329

> <Gold.Chemscore.Metal.Weighted>
-0.0000

> <Gold.Chemscore.Lipo.Weighted>
-14.6150

> <Gold.Chemscore.Internal_Hbond.Weighted>
0.0000

> <Gold.Chemscore.DEClash.Weighted>
3.4573

> <Gold.Chemscore.DEInternal.Weighted>
0.8556

> <Gold.Chemscore.Rot.Weighted>
4.2326

> <Gold.Chemscore.Internal.Correction.Weighted>
   9.000000E+99

> <Gold.Protein.RotatedTorsions>
[ 6907 6896 6895 6894 ] final  148.97 input  -60.11 | X-H torsion
[ 7974 7965 7964 7962 ] final -106.47 input  175.53 | X-H torsion
[ 8008 7997 7996 7995 ] final  109.48 input   59.86 | X-H torsion
[ 10167 10162 10161 10158 ] final  -55.72 input  -65.29 | X-H torsion
[ 10718 10713 10712 10709 ] final -140.82 input   66.30 | X-H torsion
[ 10763 10752 10751 10750 ] final  -97.07 input  -60.55 | X-H torsion
[ 11005 11000 10999 10996 ] final  127.33 input  -57.11 | X-H torsion

> <Gold.Protein.ActiveResidues>
 VAL166  LYS551  ARG553  GLY616  TRP617  ASP618  TYR619  PRO620  LYS621  CYS622 
 ASP623  PHE694  ASN695  SER759  ASP760  ASP761  ALA762  ILE779  LEU786  VAL792 
 PHE793  MET794  SER795  GLU796  ALA797  LYS798  CYS799  TRP800  GLU811  SER814 

> <Gold.Protein.RotatedAtoms>
  152.1344  133.4426  159.4736 H   0  0  0  0  0  0  0  0  0  0  0  0  # atno 6907 bound_to 6896
  150.6880  134.2382  159.4471 H   0  0  0  0  0  0  0  0  0  0  0  0  # atno 6908 bound_to 6896
  152.0268  134.9790  160.0622 H   0  0  0  0  0  0  0  0  0  0  0  0  # atno 6909 bound_to 6896
  145.2174  140.9120  143.3279 H   0  0  0  0  0  0  0  0  0  0  0  0  # atno 7974 bound_to 7965
  156.1982  140.3057  155.9471 H   0  0  0  0  0  0  0  0  0  0  0  0  # atno 8008 bound_to 7997
  155.3016  140.0446  157.3047 H   0  0  0  0  0  0  0  0  0  0  0  0  # atno 8009 bound_to 7997
  154.5537  140.2299  155.8453 H   0  0  0  0  0  0  0  0  0  0  0  0  # atno 8010 bound_to 7997
  140.6358  143.2482  151.5121 H   0  0  0  0  0  0  0  0  0  0  0  0  # atno 10167 bound_to 10162
  156.3268  130.7564  151.1674 H   0  0  0  0  0  0  0  0  0  0  0  0  # atno 10718 bound_to 10713
  154.7295  135.5060  153.8941 H   0  0  0  0  0  0  0  0  0  0  0  0  # atno 10763 bound_to 10752
  153.0936  135.6666  153.9814 H   0  0  0  0  0  0  0  0  0  0  0  0  # atno 10764 bound_to 10752
  153.9618  135.3047  155.3412 H   0  0  0  0  0  0  0  0  0  0  0  0  # atno 10765 bound_to 10752
  139.9502  134.9623  156.8839 H   0  0  0  0  0  0  0  0  0  0  0  0  # atno 11005 bound_to 11000
  144.9798  139.3795  143.6267 LP  0  0  0  0  0  0  0  0  0  0  0  0  # atno 17320 bound_to 7965
  146.3384  139.8933  142.8805 LP  0  0  0  0  0  0  0  0  0  0  0  0  # atno 17321 bound_to 7965
  139.5569  144.2253  152.1627 LP  0  0  0  0  0  0  0  0  0  0  0  0  # atno 17342 bound_to 10162
  140.1510  144.5115  150.6687 LP  0  0  0  0  0  0  0  0  0  0  0  0  # atno 17343 bound_to 10162
  157.7423  131.0492  150.5036 LP  0  0  0  0  0  0  0  0  0  0  0  0  # atno 17370 bound_to 10713
  156.5196  130.4158  149.6258 LP  0  0  0  0  0  0  0  0  0  0  0  0  # atno 17371 bound_to 10713
  140.5737  134.0418  155.7439 LP  0  0  0  0  0  0  0  0  0  0  0  0  # atno 17394 bound_to 11000
  141.1163  133.9535  157.2816 LP  0  0  0  0  0  0  0  0  0  0  0  0  # atno 17395 bound_to 11000

$$$$
