AV-unprocessed.smi:1244|AV-procd|sdf|5227|dock5
  -GOLD-   22720 4323D 1   1.00000     0.00000
 Structure written by MMmdl.
 55 57  0  0  0  0  0  0  0  0  2 V2000
  144.4349  132.4953  149.2852 C   0  0  0  0  0  0  0  0  0  0  0  0
  145.4373  131.8777  150.2666 C   0  0  1  0  0  0  0  0  0  0  0  0
  146.1818  132.9504  151.0814 C   0  0  0  0  0  0  0  0  0  0  0  0
  147.0758  132.3190  152.0795 N   0  3  1  0  0  0  0  0  0  0  0  0
  147.8890  133.3168  152.8183 C   0  0  0  0  0  0  0  0  0  0  0  0
  147.0292  134.2389  153.7038 C   0  0  0  0  0  0  0  0  0  0  0  0
  147.7630  135.4361  154.0966 N   0  0  0  0  0  0  0  0  0  0  0  0
  147.3504  136.6921  153.8754 C   0  0  0  0  0  0  0  0  0  0  0  0
  146.2894  136.9687  153.3152 O   0  0  0  0  0  0  0  0  0  0  0  0
  148.2255  137.5872  154.3621 N   0  0  0  0  0  0  0  0  0  0  0  0
  148.1168  139.0062  154.3522 C   0  0  0  0  0  0  0  0  0  0  0  0
  146.9970  139.6550  153.7771 C   0  0  0  0  0  0  0  0  0  0  0  0
  146.9648  141.0589  153.7243 C   0  0  0  0  0  0  0  0  0  0  0  0
  148.0647  141.7680  154.2348 C   0  0  0  0  0  0  0  0  0  0  0  0
  149.1437  141.1655  154.7732 N   0  0  0  0  0  0  0  0  0  0  0  0
  149.1830  139.8120  154.8454 C   0  0  0  0  0  0  0  0  0  0  0  0
  150.3302  139.2364  155.4387 N   0  0  0  0  0  0  0  0  0  0  0  0
  151.5404  139.0205  154.6522 C   0  0  0  0  0  0  0  0  0  0  0  0
  152.6425  138.7799  155.6796 C   0  0  0  0  0  0  0  0  0  0  0  0
  152.2334  139.7072  156.8198 C   0  0  0  0  0  0  0  0  0  0  0  0
  150.7019  139.6788  156.7798 C   0  0  0  0  0  0  0  0  0  0  0  0
  146.3022  131.4106  152.9619 C   0  0  0  0  0  0  0  0  0  0  0  0
  145.5129  130.3728  152.1393 C   0  0  2  0  0  0  0  0  0  0  0  0
  146.3961  129.2661  151.5356 C   0  0  0  0  0  0  0  0  0  0  0  0
  144.7151  131.0267  151.1527 O   0  0  0  0  0  0  0  0  0  0  0  0
  144.9357  133.1495  148.5711 H   0  0  0  0  0  0  0  0  0  0  0  0
  143.6817  133.0851  149.8085 H   0  0  0  0  0  0  0  0  0  0  0  0
  143.9166  131.7215  148.7184 H   0  0  0  0  0  0  0  0  0  0  0  0
  146.1537  131.2902  149.6918 H   0  0  0  0  0  0  0  0  0  0  0  0
  146.7666  133.5771  150.4069 H   0  0  0  0  0  0  0  0  0  0  0  0
  145.4713  133.6038  151.5906 H   0  0  0  0  0  0  0  0  0  0  0  0
  148.5959  132.7859  153.4576 H   0  0  0  0  0  0  0  0  0  0  0  0
  148.4874  133.9006  152.1171 H   0  0  0  0  0  0  0  0  0  0  0  0
  146.1372  134.5677  153.1721 H   0  0  0  0  0  0  0  0  0  0  0  0
  146.6840  133.7051  154.5911 H   0  0  0  0  0  0  0  0  0  0  0  0
  148.6468  135.2995  154.5657 H   0  0  0  0  0  0  0  0  0  0  0  0
  149.0029  137.2165  154.8890 H   0  0  0  0  0  0  0  0  0  0  0  0
  146.1742  139.0982  153.3549 H   0  0  0  0  0  0  0  0  0  0  0  0
  146.1233  141.5783  153.2905 H   0  0  0  0  0  0  0  0  0  0  0  0
  148.0823  142.8473  154.2048 H   0  0  0  0  0  0  0  0  0  0  0  0
  151.4272  138.1747  153.9733 H   0  0  0  0  0  0  0  0  0  0  0  0
  151.7836  139.9050  154.0618 H   0  0  0  0  0  0  0  0  0  0  0  0
  152.6207  137.7425  156.0167 H   0  0  0  0  0  0  0  0  0  0  0  0
  153.6390  138.9919  155.2918 H   0  0  0  0  0  0  0  0  0  0  0  0
  152.6381  139.4008  157.7847 H   0  0  0  0  0  0  0  0  0  0  0  0
  152.5871  140.7183  156.6129 H   0  0  0  0  0  0  0  0  0  0  0  0
  150.2795  140.6547  157.0236 H   0  0  0  0  0  0  0  0  0  0  0  0
  150.3258  138.9564  157.5046 H   0  0  0  0  0  0  0  0  0  0  0  0
  146.9591  130.8947  153.6615 H   0  0  0  0  0  0  0  0  0  0  0  0
  145.6094  132.0034  153.5612 H   0  0  0  0  0  0  0  0  0  0  0  0
  144.8117  129.8808  152.8140 H   0  0  0  0  0  0  0  0  0  0  0  0
  146.8877  128.6927  152.3218 H   0  0  0  0  0  0  0  0  0  0  0  0
  147.1780  129.6649  150.8897 H   0  0  0  0  0  0  0  0  0  0  0  0
  145.7979  128.5700  150.9472 H   0  0  0  0  0  0  0  0  0  0  0  0
  147.7247  131.7477  151.5569 H   0  0  0  0  0  0  0  0  0  0  0  0
  1  2  1  0  0  0  0
  1 26  1  0  0  0  0
  1 27  1  0  0  0  0
  1 28  1  0  0  0  0
  2 25  1  0  0  0  0
  2  3  1  0  0  0  0
  2 29  1  0  0  0  0
  3  4  1  0  0  0  0
  3 30  1  0  0  0  0
  3 31  1  0  0  0  0
  4  5  1  0  0  0  0
  4 22  1  0  0  0  0
  4 55  1  0  0  0  0
  5  6  1  0  0  0  0
  5 32  1  0  0  0  0
  5 33  1  0  0  0  0
  6  7  1  0  0  0  0
  6 34  1  0  0  0  0
  6 35  1  0  0  0  0
  7  8  1  0  0  0  0
  7 36  1  0  0  0  0
  8  9  2  0  0  0  0
  8 10  1  0  0  0  0
 10 11  1  0  0  0  0
 10 37  1  0  0  0  0
 11 16  1  0  0  0  0
 11 12  2  0  0  0  0
 12 13  1  0  0  0  0
 12 38  1  0  0  0  0
 13 14  2  0  0  0  0
 13 39  1  0  0  0  0
 14 15  1  0  0  0  0
 14 40  1  0  0  0  0
 15 16  2  0  0  0  0
 16 17  1  0  0  0  0
 17 21  1  0  0  0  0
 17 18  1  0  0  0  0
 18 19  1  0  0  0  0
 18 41  1  0  0  0  0
 18 42  1  0  0  0  0
 19 20  1  0  0  0  0
 19 43  1  0  0  0  0
 19 44  1  0  0  0  0
 20 21  1  0  0  0  0
 20 45  1  0  0  0  0
 20 46  1  0  0  0  0
 21 47  1  0  0  0  0
 21 48  1  0  0  0  0
 22 23  1  0  0  0  0
 22 49  1  0  0  0  0
 22 50  1  0  0  0  0
 23 24  1  0  0  0  0
 23 25  1  0  0  0  0
 23 51  1  0  0  0  0
 24 52  1  0  0  0  0
 24 53  1  0  0  0  0
 24 54  1  0  0  0  0
M  CHG  1   4   1
M  END
> <s_m_source_file>
AV-unprocessed.smi

> <i_m_source_file_index>
1244

> <i_lp_mmshare_version>
43012

> <i_f3d_flags>
0

> <s_epik_input>
W0NIM11bQ0BASF0xW0NIMl1OKFtDSDJdW0NASF0oTzEpW0NIM10pW0NIMl1bQ0gyXVtOSF1DKD1PKVtOSF1jMltjSF1bY0hdW2NIXW5jMk4zW0NIMl1bQ0gyXVtDSDJdW0NIMl0z

> <s_epik_cmdline>
J2VwaWtfcHl0aG9uJywgJy1waCcsICc3LjAnLCAnLXRuJywgJzgnLCAnLW1hJywgJzIwMCcsICctbWV0YWxfYmluZGluZycsICctaW1hZScsICc8aW5maWxlLm1hZT4nLCAnLW9tYWUnLCAnPG91dGZpbGUubWFlPic=

> <r_lp_tautomer_probability>
1

> <r_epik_Ionization_Penalty>
0.684913

> <r_epik_Ionization_Penalty_Charging>
0.602531

> <r_epik_Ionization_Penalty_Neutral>
0.0823829

> <r_epik_State_Penalty>
0.678827

> <r_epik_Charging_Adjusted_Penalty>
1.28136

> <i_epik_Tot_Q>
1

> <i_epik_Tot_abs_Q>
1

> <r_epik_Metal_State_Penalty>
0.67806

> <b_epik_Metal_Only>
0

> <s_lp_Force_Field>
OPLS_2005

> <r_lp_Energy>
45.4089

> <b_lp_Chiralities_Consistent>
1

> <s_lp_Variant>
AV-unprocessed.smi:1244-7

> <Gold.Version>
5.8.1

> <Gold.Id.Protein>
6NUR|6NUR_protein|mol2

> <Gold.PLP.Fitness>
44.7442

> <Gold.PLP.PLP>
-39.3604

> <Gold.PLP.part.hbond>
-3.0000

> <Gold.PLP.part.metal>
0.0000

> <Gold.PLP.part.buried>
0.0539

> <Gold.PLP.part.nonpolar>
-36.2689

> <Gold.PLP.part.repulsive>
1.0850

> <Gold.PLP.ligand.clash>
0.0000

> <Gold.PLP.ligand.torsion>
0.4531

> <Gold.PLP.Chemscore.Hbond>
1.0000

> <Gold.PLP.Chemscore.CHOScore>
0.9868

> <Gold.PLP.Chemscore.Metal>
0.0000

> <Gold.Chemscore.Hbonds>
donor molecule, donor type, donor heavy atom, donor atom, acceptor molecule, acceptor atom, score
      L1  H     4    55       P1 10747  1.00
      L1  C    14    40       P1  8028  1.00

> <Gold.PLP.Chemscore.Internal.Correction>
0.3294

> <Gold.Rescore>
     Score         DG    S(hbond)    S(metal)    S(lipo)     H(rot)  DE(clash)    DE(int)     intcor
     14.98     -18.22       1.00        0.00     115.47       1.60       1.55       1.69       ----

> <Gold.Chemscore.Fitness>
14.9825

> <Gold.Chemscore.DG>
-18.2234

> <Gold.Chemscore.ZeroCoef>
-5.4800

> <Gold.Chemscore.Hbond>
0.9953

> <Gold.Chemscore.Metal>
0.0000

> <Gold.Chemscore.Lipo>
115.4660

> <Gold.Chemscore.Internal_Hbond>
0.0000

> <Gold.Chemscore.DEClash>
1.5525

> <Gold.Chemscore.DEInternal>
1.6885

> <Gold.Chemscore.Rot>
1.5978

> <Gold.Chemscore.Internal.Correction>
   9.000000E+99

> <Gold.Chemscore.Hbonds>
donor molecule, donor type, donor heavy atom, donor atom, acceptor molecule, acceptor atom, score
      L1  H     4    55       P1 10747  0.96

> <Gold.Chemscore.Hbond.Weighted>
-3.3244

> <Gold.Chemscore.Metal.Weighted>
-0.0000

> <Gold.Chemscore.Lipo.Weighted>
-13.5095

> <Gold.Chemscore.Internal_Hbond.Weighted>
0.0000

> <Gold.Chemscore.DEClash.Weighted>
1.5525

> <Gold.Chemscore.DEInternal.Weighted>
1.6885

> <Gold.Chemscore.Rot.Weighted>
4.0905

> <Gold.Chemscore.Internal.Correction.Weighted>
   9.000000E+99

> <Gold.Protein.RotatedTorsions>
[ 6907 6896 6895 6894 ] final   87.29 input  -60.11 | X-H torsion
[ 7974 7965 7964 7962 ] final  146.51 input  175.53 | X-H torsion
[ 8008 7997 7996 7995 ] final -146.18 input   59.86 | X-H torsion
[ 10167 10162 10161 10158 ] final  106.20 input  -65.29 | X-H torsion
[ 10718 10713 10712 10709 ] final   -7.70 input   66.30 | X-H torsion
[ 10763 10752 10751 10750 ] final -126.27 input  -60.55 | X-H torsion
[ 11005 11000 10999 10996 ] final   71.70 input  -57.11 | X-H torsion

> <Gold.Protein.ActiveResidues>
 VAL166  LYS551  ARG553  GLY616  TRP617  ASP618  TYR619  PRO620  LYS621  CYS622 
 ASP623  PHE694  ASN695  SER759  ASP760  ASP761  ALA762  ILE779  LEU786  VAL792 
 PHE793  MET794  SER795  GLU796  ALA797  LYS798  CYS799  TRP800  GLU811  SER814 

> <Gold.Protein.RotatedAtoms>
  152.5409  134.2299  159.8820 H   0  0  0  0  0  0  0  0  0  0  0  0  # atno 6907 bound_to 6896
  151.2271  133.4463  159.2610 H   0  0  0  0  0  0  0  0  0  0  0  0  # atno 6908 bound_to 6896
  151.0750  134.9836  159.8383 H   0  0  0  0  0  0  0  0  0  0  0  0  # atno 6909 bound_to 6896
  144.8665  139.5914  143.5906 H   0  0  0  0  0  0  0  0  0  0  0  0  # atno 7974 bound_to 7965
  155.5553  140.0620  157.2841 H   0  0  0  0  0  0  0  0  0  0  0  0  # atno 8008 bound_to 7997
  154.4407  140.1895  156.0772 H   0  0  0  0  0  0  0  0  0  0  0  0  # atno 8009 bound_to 7997
  156.0486  140.3287  155.7329 H   0  0  0  0  0  0  0  0  0  0  0  0  # atno 8010 bound_to 7997
  139.7029  144.7091  151.1156 H   0  0  0  0  0  0  0  0  0  0  0  0  # atno 10167 bound_to 10162
  156.7134  130.5129  149.5886 H   0  0  0  0  0  0  0  0  0  0  0  0  # atno 10718 bound_to 10713
  154.8744  135.4001  154.3404 H   0  0  0  0  0  0  0  0  0  0  0  0  # atno 10763 bound_to 10752
  153.4204  135.7023  153.6303 H   0  0  0  0  0  0  0  0  0  0  0  0  # atno 10764 bound_to 10752
  153.4968  135.3736  155.2489 H   0  0  0  0  0  0  0  0  0  0  0  0  # atno 10765 bound_to 10752
  139.9530  134.7194  156.0819 H   0  0  0  0  0  0  0  0  0  0  0  0  # atno 11005 bound_to 11000
  146.2899  139.7111  142.9168 LP  0  0  0  0  0  0  0  0  0  0  0  0  # atno 17320 bound_to 7965
  145.4211  141.0406  143.2963 LP  0  0  0  0  0  0  0  0  0  0  0  0  # atno 17321 bound_to 7965
  140.7714  143.5399  150.9324 LP  0  0  0  0  0  0  0  0  0  0  0  0  # atno 17342 bound_to 10162
  139.9082  143.6753  152.3120 LP  0  0  0  0  0  0  0  0  0  0  0  0  # atno 17343 bound_to 10162
  156.1645  130.6396  151.0760 LP  0  0  0  0  0  0  0  0  0  0  0  0  # atno 17370 bound_to 10713
  157.6927  131.0804  150.7061 LP  0  0  0  0  0  0  0  0  0  0  0  0  # atno 17371 bound_to 10713
  141.1196  133.6617  156.3181 LP  0  0  0  0  0  0  0  0  0  0  0  0  # atno 17394 bound_to 11000
  140.5675  134.5873  157.5449 LP  0  0  0  0  0  0  0  0  0  0  0  0  # atno 17395 bound_to 11000

$$$$
