AV-unprocessed.smi:2995|AV-procd|sdf|11407|dock6
  -GOLD-   2272016333D 1   1.00000     0.00000
 Structure written by MMmdl.
 49 51  0  0  0  0  0  0  0  0  2 V2000
  146.5884  132.5868  161.6048 C   0  0  0  0  0  0  0  0  0  0  0  0
  147.2097  133.9671  161.4867 C   0  0  0  0  0  0  0  0  0  0  0  0
  147.3744  134.7627  162.6393 C   0  0  0  0  0  0  0  0  0  0  0  0
  147.9558  136.0375  162.5026 C   0  0  0  0  0  0  0  0  0  0  0  0
  148.3734  136.5374  161.3219 N   0  0  0  0  0  0  0  0  0  0  0  0
  148.2134  135.7753  160.2194 C   0  0  0  0  0  0  0  0  0  0  0  0
  147.6262  134.4852  160.2365 C   0  0  0  0  0  0  0  0  0  0  0  0
  147.4817  133.6819  159.0709 N   0  0  0  0  0  0  0  0  0  0  0  0
  148.3092  133.5920  158.0159 C   0  0  0  0  0  0  0  0  0  0  0  0
  149.3613  134.2162  157.8809 O   0  0  0  0  0  0  0  0  0  0  0  0
  147.8318  132.7421  157.0949 N   0  0  0  0  0  0  0  0  0  0  0  0
  148.4789  132.4354  155.8227 C   0  0  2  0  0  0  0  0  0  0  0  0
  148.3709  133.6272  154.8511 C   0  0  0  0  0  0  0  0  0  0  0  0
  148.9355  133.2684  153.4635 C   0  0  0  0  0  0  0  0  0  0  0  0
  148.2749  132.0654  152.8857 N   0  3  2  0  0  0  0  0  0  0  0  0
  146.8831  132.2982  152.3946 C   0  0  0  0  0  0  0  0  0  0  0  0
  146.2084  131.0368  151.8379 C   0  0  0  0  0  0  0  0  0  0  0  0
  145.0651  131.5488  150.9570 C   0  0  0  0  0  0  0  0  0  0  0  0
  145.4606  132.9678  150.5271 C   0  0  0  0  0  0  0  0  0  0  0  0
  146.8062  133.2596  151.1998 C   0  0  0  0  0  0  0  0  0  0  0  0
  148.4227  130.8993  153.8006 C   0  0  0  0  0  0  0  0  0  0  0  0
  147.8393  131.1833  155.1983 C   0  0  0  0  0  0  0  0  0  0  0  0
  146.3164  132.3607  162.6361 H   0  0  0  0  0  0  0  0  0  0  0  0
  147.2897  131.8240  161.2661 H   0  0  0  0  0  0  0  0  0  0  0  0
  145.6859  132.5222  160.9964 H   0  0  0  0  0  0  0  0  0  0  0  0
  147.0633  134.4085  163.6110 H   0  0  0  0  0  0  0  0  0  0  0  0
  148.0944  136.6705  163.3667 H   0  0  0  0  0  0  0  0  0  0  0  0
  148.5918  136.2160  159.3101 H   0  0  0  0  0  0  0  0  0  0  0  0
  146.6104  133.1774  158.9987 H   0  0  0  0  0  0  0  0  0  0  0  0
  146.9573  132.2755  157.2874 H   0  0  0  0  0  0  0  0  0  0  0  0
  149.5343  132.2208  156.0026 H   0  0  0  0  0  0  0  0  0  0  0  0
  147.3317  133.9446  154.7591 H   0  0  0  0  0  0  0  0  0  0  0  0
  148.9139  134.4845  155.2504 H   0  0  0  0  0  0  0  0  0  0  0  0
  148.8658  134.1216  152.7899 H   0  0  0  0  0  0  0  0  0  0  0  0
  150.0020  133.0586  153.5564 H   0  0  0  0  0  0  0  0  0  0  0  0
  146.2632  132.6954  153.1992 H   0  0  0  0  0  0  0  0  0  0  0  0
  146.9145  130.4765  151.2230 H   0  0  0  0  0  0  0  0  0  0  0  0
  145.8446  130.3693  152.6197 H   0  0  0  0  0  0  0  0  0  0  0  0
  144.8947  130.8933  150.1021 H   0  0  0  0  0  0  0  0  0  0  0  0
  144.1379  131.5838  151.5303 H   0  0  0  0  0  0  0  0  0  0  0  0
  145.5325  133.0594  149.4428 H   0  0  0  0  0  0  0  0  0  0  0  0
  144.7061  133.6796  150.8646 H   0  0  0  0  0  0  0  0  0  0  0  0
  146.8900  134.3067  151.4927 H   0  0  0  0  0  0  0  0  0  0  0  0
  147.6131  133.0467  150.4965 H   0  0  0  0  0  0  0  0  0  0  0  0
  147.9772  130.0014  153.3746 H   0  0  0  0  0  0  0  0  0  0  0  0
  149.4864  130.6771  153.8967 H   0  0  0  0  0  0  0  0  0  0  0  0
  148.0073  130.3212  155.8451 H   0  0  0  0  0  0  0  0  0  0  0  0
  146.7576  131.3052  155.1313 H   0  0  0  0  0  0  0  0  0  0  0  0
  148.8055  131.8326  152.0583 H   0  0  0  0  0  0  0  0  0  0  0  0
  1  2  1  0  0  0  0
  1 23  1  0  0  0  0
  1 24  1  0  0  0  0
  1 25  1  0  0  0  0
  2  7  1  0  0  0  0
  2  3  2  0  0  0  0
  3  4  1  0  0  0  0
  3 26  1  0  0  0  0
  4  5  2  0  0  0  0
  4 27  1  0  0  0  0
  5  6  1  0  0  0  0
  6  7  2  0  0  0  0
  6 28  1  0  0  0  0
  7  8  1  0  0  0  0
  8  9  1  0  0  0  0
  8 29  1  0  0  0  0
  9 10  2  0  0  0  0
  9 11  1  0  0  0  0
 11 12  1  0  0  0  0
 11 30  1  0  0  0  0
 12 22  1  0  0  0  0
 12 13  1  0  0  0  0
 12 31  1  0  0  0  0
 13 14  1  0  0  0  0
 13 32  1  0  0  0  0
 13 33  1  0  0  0  0
 14 15  1  0  0  0  0
 14 34  1  0  0  0  0
 14 35  1  0  0  0  0
 15 16  1  0  0  0  0
 15 21  1  0  0  0  0
 15 49  1  0  0  0  0
 16 20  1  0  0  0  0
 16 17  1  0  0  0  0
 16 36  1  0  0  0  0
 17 18  1  0  0  0  0
 17 37  1  0  0  0  0
 17 38  1  0  0  0  0
 18 19  1  0  0  0  0
 18 39  1  0  0  0  0
 18 40  1  0  0  0  0
 19 20  1  0  0  0  0
 19 41  1  0  0  0  0
 19 42  1  0  0  0  0
 20 43  1  0  0  0  0
 20 44  1  0  0  0  0
 21 22  1  0  0  0  0
 21 45  1  0  0  0  0
 21 46  1  0  0  0  0
 22 47  1  0  0  0  0
 22 48  1  0  0  0  0
M  CHG  1  15   1
M  END
> <s_m_source_file>
AV-unprocessed.smi

> <i_m_source_file_index>
2995

> <i_lp_mmshare_version>
43012

> <i_f3d_flags>
0

> <s_epik_input>
W0NIM11jMVtjSF1bY0hdbltjSF1jMVtOSF1DKD1PKVtOSF1bQ0hdMltDSDJdW0NIMl1OKFtDSDJdW0NIMl0yKVtDSF0zW0NIMl1bQ0gyXVtDSDJdW0NIMl0z

> <s_epik_cmdline>
J2VwaWtfcHl0aG9uJywgJy1waCcsICc3LjAnLCAnLXRuJywgJzgnLCAnLW1hJywgJzIwMCcsICctbWV0YWxfYmluZGluZycsICctaW1hZScsICc8aW5maWxlLm1hZT4nLCAnLW9tYWUnLCAnPG91dGZpbGUubWFlPic=

> <r_epik_Ionization_Penalty>
0.0196897

> <r_epik_Ionization_Penalty_Charging>
0.00179121

> <r_epik_Ionization_Penalty_Neutral>
0.0178985

> <r_epik_State_Penalty>
0.014187

> <r_epik_Charging_Adjusted_Penalty>
0.0159782

> <i_epik_Tot_Q>
1

> <i_epik_Tot_abs_Q>
1

> <r_epik_Metal_State_Penalty>
0.013703

> <b_epik_Metal_Only>
0

> <s_lp_Force_Field>
OPLS_2005

> <r_lp_Energy>
42.3495

> <b_lp_Chiralities_Consistent>
1

> <s_lp_Variant>
AV-unprocessed.smi:2995-2

> <Gold.Version>
5.8.1

> <Gold.Id.Protein>
6NUR|6NUR_protein|mol2

> <Gold.PLP.Fitness>
47.7205

> <Gold.PLP.PLP>
-39.6772

> <Gold.PLP.part.hbond>
-3.0000

> <Gold.PLP.part.metal>
0.0000

> <Gold.PLP.part.buried>
-4.9316

> <Gold.PLP.part.nonpolar>
-31.7257

> <Gold.PLP.part.repulsive>
0.0466

> <Gold.PLP.ligand.clash>
0.0000

> <Gold.PLP.ligand.torsion>
0.4927

> <Gold.PLP.Chemscore.Hbond>
2.9913

> <Gold.PLP.Chemscore.CHOScore>
0.0000

> <Gold.PLP.Chemscore.Metal>
0.0000

> <Gold.Chemscore.Hbonds>
donor molecule, donor type, donor heavy atom, donor atom, acceptor molecule, acceptor atom, score
      L1  H    15    49       P1 10747  1.00
      P1  H  6896  6908       L1    10  1.00
      P1  H  6931  6943       L1     5  1.00

> <Gold.PLP.Chemscore.Internal.Correction>
0.0549

> <Gold.Rescore>
     Score         DG    S(hbond)    S(metal)    S(lipo)     H(rot)  DE(clash)    DE(int)     intcor
     21.21     -22.43       2.35        0.00     103.49       1.17       0.01       1.21       ----

> <Gold.Chemscore.Fitness>
21.2134

> <Gold.Chemscore.DG>
-22.4330

> <Gold.Chemscore.ZeroCoef>
-5.4800

> <Gold.Chemscore.Hbond>
2.3496

> <Gold.Chemscore.Metal>
0.0000

> <Gold.Chemscore.Lipo>
103.4894

> <Gold.Chemscore.Internal_Hbond>
0.0000

> <Gold.Chemscore.DEClash>
0.0106

> <Gold.Chemscore.DEInternal>
1.2090

> <Gold.Chemscore.Rot>
1.1731

> <Gold.Chemscore.Internal.Correction>
   9.000000E+99

> <Gold.Chemscore.Hbonds>
donor molecule, donor type, donor heavy atom, donor atom, acceptor molecule, acceptor atom, score
      L1  H    15    49       P1 10747  0.86
      P1  H  6896  6908       L1    10  0.91
      P1  H  6931  6943       L1     5  0.25

> <Gold.Chemscore.Hbond.Weighted>
-7.8478

> <Gold.Chemscore.Metal.Weighted>
-0.0000

> <Gold.Chemscore.Lipo.Weighted>
-12.1083

> <Gold.Chemscore.Internal_Hbond.Weighted>
0.0000

> <Gold.Chemscore.DEClash.Weighted>
0.0106

> <Gold.Chemscore.DEInternal.Weighted>
1.2090

> <Gold.Chemscore.Rot.Weighted>
3.0030

> <Gold.Chemscore.Internal.Correction.Weighted>
   9.000000E+99

> <Gold.Protein.RotatedTorsions>
[ 6907 6896 6895 6894 ] final  132.21 input  -60.11 | X-H torsion
[ 7974 7965 7964 7962 ] final  -84.17 input  175.53 | X-H torsion
[ 8008 7997 7996 7995 ] final  149.76 input   59.86 | X-H torsion
[ 10167 10162 10161 10158 ] final  -22.17 input  -65.29 | X-H torsion
[ 10718 10713 10712 10709 ] final -120.27 input   66.30 | X-H torsion
[ 10763 10752 10751 10750 ] final  -49.29 input  -60.55 | X-H torsion
[ 11005 11000 10999 10996 ] final  -27.64 input  -57.11 | X-H torsion

> <Gold.Protein.ActiveResidues>
 VAL166  LYS551  ARG553  GLY616  TRP617  ASP618  TYR619  PRO620  LYS621  CYS622 
 ASP623  PHE694  ASN695  SER759  ASP760  ASP761  ALA762  ILE779  LEU786  VAL792 
 PHE793  MET794  SER795  GLU796  ALA797  LYS798  CYS799  TRP800  GLU811  SER814 

> <Gold.Protein.RotatedAtoms>
  152.3348  133.5999  159.5834 H   0  0  0  0  0  0  0  0  0  0  0  0  # atno 6907 bound_to 6896
  150.7443  133.9813  159.3586 H   0  0  0  0  0  0  0  0  0  0  0  0  # atno 6908 bound_to 6896
  151.7684  135.0793  160.0407 H   0  0  0  0  0  0  0  0  0  0  0  0  # atno 6909 bound_to 6896
  145.5102  140.9540  143.1711 H   0  0  0  0  0  0  0  0  0  0  0  0  # atno 7974 bound_to 7965
  156.2742  140.2093  156.5910 H   0  0  0  0  0  0  0  0  0  0  0  0  # atno 8008 bound_to 7997
  154.6983  140.0523  157.0456 H   0  0  0  0  0  0  0  0  0  0  0  0  # atno 8009 bound_to 7997
  155.0771  140.3183  155.4616 H   0  0  0  0  0  0  0  0  0  0  0  0  # atno 8010 bound_to 7997
  140.7285  143.4559  151.0448 H   0  0  0  0  0  0  0  0  0  0  0  0  # atno 10167 bound_to 10162
  156.1245  130.6348  150.9519 H   0  0  0  0  0  0  0  0  0  0  0  0  # atno 10718 bound_to 10713
  154.0916  135.6576  153.4853 H   0  0  0  0  0  0  0  0  0  0  0  0  # atno 10763 bound_to 10752
  153.0320  135.5204  154.7375 H   0  0  0  0  0  0  0  0  0  0  0  0  # atno 10764 bound_to 10752
  154.6500  135.3000  154.9967 H   0  0  0  0  0  0  0  0  0  0  0  0  # atno 10765 bound_to 10752
  140.9137  133.7444  156.0705 H   0  0  0  0  0  0  0  0  0  0  0  0  # atno 11005 bound_to 11000
  144.7731  139.6690  143.7186 LP  0  0  0  0  0  0  0  0  0  0  0  0  # atno 17320 bound_to 7965
  146.2171  139.5569  142.9643 LP  0  0  0  0  0  0  0  0  0  0  0  0  # atno 17321 bound_to 7965
  139.8240  143.7781  152.3178 LP  0  0  0  0  0  0  0  0  0  0  0  0  # atno 17342 bound_to 10162
  139.7874  144.7423  151.0003 LP  0  0  0  0  0  0  0  0  0  0  0  0  # atno 17343 bound_to 10162
  157.6427  131.0908  150.8218 LP  0  0  0  0  0  0  0  0  0  0  0  0  # atno 17370 bound_to 10713
  156.8310  130.5016  149.5331 LP  0  0  0  0  0  0  0  0  0  0  0  0  # atno 17371 bound_to 10713
  140.8077  134.3435  157.5421 LP  0  0  0  0  0  0  0  0  0  0  0  0  # atno 17394 bound_to 11000
  139.8762  134.9235  156.3328 LP  0  0  0  0  0  0  0  0  0  0  0  0  # atno 17395 bound_to 11000

$$$$
