AV-unprocessed.smi:2764|AV-procd|sdf|10641|dock7
  -GOLD-   2272015 93D 1   1.00000     0.00000
 Structure written by MMmdl.
 47 49  0  0  0  0  0  0  0  0  2 V2000
  154.3133  139.8814  158.8760 O   0  0  0  0  0  0  0  0  0  0  0  0
  154.3369  139.7858  160.1034 C   0  0  0  0  0  0  0  0  0  0  0  0
  153.8305  140.6861  160.9646 N   0  0  0  0  0  0  0  0  0  0  0  0
  153.2025  141.9256  160.6686 C   0  0  0  0  0  0  0  0  0  0  0  0
  152.8083  142.6816  161.7960 C   0  0  0  0  0  0  0  0  0  0  0  0
  152.1811  143.9289  161.6093 C   0  0  0  0  0  0  0  0  0  0  0  0
  151.9631  144.3860  160.2975 C   0  0  0  0  0  0  0  0  0  0  0  0
  151.3635  145.5783  160.0685 F   0  0  0  0  0  0  0  0  0  0  0  0
  152.3841  143.5723  159.2295 C   0  0  0  0  0  0  0  0  0  0  0  0
  152.9865  142.3772  159.4072 N   0  0  0  0  0  0  0  0  0  0  0  0
  154.8853  138.7462  160.7501 N   0  0  0  0  0  0  0  0  0  0  0  0
  155.5481  137.6165  160.1047 C   0  0  2  0  0  0  0  0  0  0  0  0
  156.7849  138.0767  159.3126 C   0  0  0  0  0  0  0  0  0  0  0  0
  157.4332  136.8990  158.5651 C   0  0  0  0  0  0  0  0  0  0  0  0
  156.4581  136.2244  157.6685 N   0  3  1  0  0  0  0  0  0  0  0  0
  157.0833  135.1642  156.8348 C   0  0  0  0  0  0  0  0  0  0  0  0
  158.1284  135.7328  155.8556 C   0  0  1  0  0  0  0  0  0  0  0  0
  158.5595  134.7389  154.7950 C   0  0  0  0  0  0  0  0  0  0  0  0
  159.1925  135.6447  153.7437 C   0  0  0  0  0  0  0  0  0  0  0  0
  158.4904  136.8809  153.8263 O   0  0  0  0  0  0  0  0  0  0  0  0
  157.6502  136.8896  154.9758 C   0  0  0  0  0  0  0  0  0  0  0  0
  155.2676  135.7465  158.4206 C   0  0  0  0  0  0  0  0  0  0  0  0
  154.5720  136.9037  159.1564 C   0  0  0  0  0  0  0  0  0  0  0  0
  153.9190  140.4691  161.9463 H   0  0  0  0  0  0  0  0  0  0  0  0
  152.9842  142.3150  162.7970 H   0  0  0  0  0  0  0  0  0  0  0  0
  151.8738  144.5229  162.4574 H   0  0  0  0  0  0  0  0  0  0  0  0
  152.2346  143.8872  158.2073 H   0  0  0  0  0  0  0  0  0  0  0  0
  154.8585  138.7458  161.7593 H   0  0  0  0  0  0  0  0  0  0  0  0
  155.8606  136.9038  160.8706 H   0  0  0  0  0  0  0  0  0  0  0  0
  156.5018  138.8501  158.5968 H   0  0  0  0  0  0  0  0  0  0  0  0
  157.5166  138.5299  159.9826 H   0  0  0  0  0  0  0  0  0  0  0  0
  158.2746  137.2718  157.9795 H   0  0  0  0  0  0  0  0  0  0  0  0
  157.8354  136.1763  159.2771 H   0  0  0  0  0  0  0  0  0  0  0  0
  157.5993  134.4542  157.4830 H   0  0  0  0  0  0  0  0  0  0  0  0
  156.3232  134.5825  156.3111 H   0  0  0  0  0  0  0  0  0  0  0  0
  159.0155  136.0473  156.4083 H   0  0  0  0  0  0  0  0  0  0  0  0
  159.2484  133.9815  155.1699 H   0  0  0  0  0  0  0  0  0  0  0  0
  157.6913  134.2306  154.3728 H   0  0  0  0  0  0  0  0  0  0  0  0
  160.2420  135.8257  153.9782 H   0  0  0  0  0  0  0  0  0  0  0  0
  159.1371  135.2202  152.7410 H   0  0  0  0  0  0  0  0  0  0  0  0
  156.6223  136.7281  154.6479 H   0  0  0  0  0  0  0  0  0  0  0  0
  157.6976  137.8513  155.4870 H   0  0  0  0  0  0  0  0  0  0  0  0
  154.5559  135.2762  157.7439 H   0  0  0  0  0  0  0  0  0  0  0  0
  155.5722  134.9806  159.1360 H   0  0  0  0  0  0  0  0  0  0  0  0
  153.7176  136.5222  159.7167 H   0  0  0  0  0  0  0  0  0  0  0  0
  154.1736  137.6111  158.4272 H   0  0  0  0  0  0  0  0  0  0  0  0
  156.1363  136.9354  157.0273 H   0  0  0  0  0  0  0  0  0  0  0  0
  1  2  2  0  0  0  0
  2  3  1  0  0  0  0
  2 11  1  0  0  0  0
  3  4  1  0  0  0  0
  3 24  1  0  0  0  0
  4 10  1  0  0  0  0
  4  5  2  0  0  0  0
  5  6  1  0  0  0  0
  5 25  1  0  0  0  0
  6  7  2  0  0  0  0
  6 26  1  0  0  0  0
  7  8  1  0  0  0  0
  7  9  1  0  0  0  0
  9 10  2  0  0  0  0
  9 27  1  0  0  0  0
 11 12  1  0  0  0  0
 11 28  1  0  0  0  0
 12 23  1  0  0  0  0
 12 13  1  0  0  0  0
 12 29  1  0  0  0  0
 13 14  1  0  0  0  0
 13 30  1  0  0  0  0
 13 31  1  0  0  0  0
 14 15  1  0  0  0  0
 14 32  1  0  0  0  0
 14 33  1  0  0  0  0
 15 16  1  0  0  0  0
 15 22  1  0  0  0  0
 15 47  1  0  0  0  0
 16 17  1  0  0  0  0
 16 34  1  0  0  0  0
 16 35  1  0  0  0  0
 17 21  1  0  0  0  0
 17 18  1  0  0  0  0
 17 36  1  0  0  0  0
 18 19  1  0  0  0  0
 18 37  1  0  0  0  0
 18 38  1  0  0  0  0
 19 20  1  0  0  0  0
 19 39  1  0  0  0  0
 19 40  1  0  0  0  0
 20 21  1  0  0  0  0
 21 41  1  0  0  0  0
 21 42  1  0  0  0  0
 22 23  1  0  0  0  0
 22 43  1  0  0  0  0
 22 44  1  0  0  0  0
 23 45  1  0  0  0  0
 23 46  1  0  0  0  0
M  CHG  1  15   1
M  END
> <s_m_source_file>
AV-unprocessed.smi

> <i_m_source_file_index>
2764

> <i_lp_mmshare_version>
43012

> <i_f3d_flags>
0

> <s_epik_input>
bjFbY0hdYyhGKVtjSF1bY0hdYzFbTkhdQyg9TylbTkhdW0NIXTJbQ0gyXVtDSDJdTihbQ0gyXVtDSDJdMilbQ0gyXVtDQEBIXTNbQ0gyXVtDSDJdT1tDSDJdMw==

> <s_epik_cmdline>
J2VwaWtfcHl0aG9uJywgJy1waCcsICc3LjAnLCAnLXRuJywgJzgnLCAnLW1hJywgJzIwMCcsICctbWV0YWxfYmluZGluZycsICctaW1hZScsICc8aW5maWxlLm1hZT4nLCAnLW9tYWUnLCAnPG91dGZpbGUubWFlPic=

> <r_epik_Ionization_Penalty>
0.0075076

> <r_epik_Ionization_Penalty_Charging>
0.00747775

> <r_epik_Ionization_Penalty_Neutral>
2.98483e-05

> <r_epik_State_Penalty>
0.00558817

> <r_epik_Charging_Adjusted_Penalty>
0.0130659

> <i_epik_Tot_Q>
1

> <i_epik_Tot_abs_Q>
1

> <r_epik_Metal_State_Penalty>
-0

> <b_epik_Metal_Only>
0

> <s_lp_Force_Field>
OPLS_2005

> <r_lp_Energy>
37.3143

> <b_lp_Chiralities_Consistent>
1

> <s_lp_Variant>
AV-unprocessed.smi:2764-2

> <Gold.Version>
5.8.1

> <Gold.Id.Protein>
6NUR|6NUR_protein|mol2

> <Gold.PLP.Fitness>
40.9094

> <Gold.PLP.PLP>
-38.0709

> <Gold.PLP.part.hbond>
-1.0000

> <Gold.PLP.part.metal>
0.0000

> <Gold.PLP.part.buried>
-6.1865

> <Gold.PLP.part.nonpolar>
-31.2658

> <Gold.PLP.part.repulsive>
0.2478

> <Gold.PLP.ligand.clash>
0.0000

> <Gold.PLP.ligand.torsion>
0.0945

> <Gold.PLP.Chemscore.Hbond>
1.0000

> <Gold.PLP.Chemscore.CHOScore>
0.0000

> <Gold.PLP.Chemscore.Metal>
0.0000

> <Gold.Chemscore.Hbonds>
donor molecule, donor type, donor heavy atom, donor atom, acceptor molecule, acceptor atom, score
      P1  H  7997  8008       L1     1  1.00

> <Gold.PLP.Chemscore.Internal.Correction>
0.0275

> <Gold.Rescore>
     Score         DG    S(hbond)    S(metal)    S(lipo)     H(rot)  DE(clash)    DE(int)     intcor
     13.76     -16.33       0.96        0.00      97.97       1.49       0.05       2.53       ----

> <Gold.Chemscore.Fitness>
13.7627

> <Gold.Chemscore.DG>
-16.3347

> <Gold.Chemscore.ZeroCoef>
-5.4800

> <Gold.Chemscore.Hbond>
0.9592

> <Gold.Chemscore.Metal>
0.0000

> <Gold.Chemscore.Lipo>
97.9733

> <Gold.Chemscore.Internal_Hbond>
0.0000

> <Gold.Chemscore.DEClash>
0.0461

> <Gold.Chemscore.DEInternal>
2.5259

> <Gold.Chemscore.Rot>
1.4891

> <Gold.Chemscore.Internal.Correction>
   9.000000E+99

> <Gold.Chemscore.Hbonds>
donor molecule, donor type, donor heavy atom, donor atom, acceptor molecule, acceptor atom, score
      P1  H  7997  8008       L1     1  0.97

> <Gold.Chemscore.Hbond.Weighted>
-3.2039

> <Gold.Chemscore.Metal.Weighted>
-0.0000

> <Gold.Chemscore.Lipo.Weighted>
-11.4629

> <Gold.Chemscore.Internal_Hbond.Weighted>
0.0000

> <Gold.Chemscore.DEClash.Weighted>
0.0461

> <Gold.Chemscore.DEInternal.Weighted>
2.5259

> <Gold.Chemscore.Rot.Weighted>
3.8121

> <Gold.Chemscore.Internal.Correction.Weighted>
   9.000000E+99

> <Gold.Protein.RotatedTorsions>
[ 6907 6896 6895 6894 ] final   71.78 input  -60.11 | X-H torsion
[ 7974 7965 7964 7962 ] final -167.86 input  175.53 | X-H torsion
[ 8008 7997 7996 7995 ] final -120.75 input   59.86 | X-H torsion
[ 10167 10162 10161 10158 ] final -124.90 input  -65.29 | X-H torsion
[ 10718 10713 10712 10709 ] final   75.53 input   66.30 | X-H torsion
[ 10763 10752 10751 10750 ] final  120.82 input  -60.55 | X-H torsion
[ 11005 11000 10999 10996 ] final  120.31 input  -57.11 | X-H torsion

> <Gold.Protein.ActiveResidues>
 VAL166  LYS551  ARG553  GLY616  TRP617  ASP618  TYR619  PRO620  LYS621  CYS622 
 ASP623  PHE694  ASN695  SER759  ASP760  ASP761  ALA762  ILE779  LEU786  VAL792 
 PHE793  MET794  SER795  GLU796  ALA797  LYS798  CYS799  TRP800  GLU811  SER814 

> <Gold.Protein.RotatedAtoms>
  152.4830  134.4669  159.9622 H   0  0  0  0  0  0  0  0  0  0  0  0  # atno 6907 bound_to 6896
  151.4671  133.3572  159.2826 H   0  0  0  0  0  0  0  0  0  0  0  0  # atno 6908 bound_to 6896
  150.8917  134.8347  159.7359 H   0  0  0  0  0  0  0  0  0  0  0  0  # atno 6909 bound_to 6896
  144.7214  140.2456  143.6285 H   0  0  0  0  0  0  0  0  0  0  0  0  # atno 7974 bound_to 7965
  155.1368  140.0401  157.2788 H   0  0  0  0  0  0  0  0  0  0  0  0  # atno 8008 bound_to 7997
  154.6502  140.2567  155.7196 H   0  0  0  0  0  0  0  0  0  0  0  0  # atno 8009 bound_to 7997
  156.2574  140.2838  156.0933 H   0  0  0  0  0  0  0  0  0  0  0  0  # atno 8010 bound_to 7997
  139.9879  143.5672  152.2353 H   0  0  0  0  0  0  0  0  0  0  0  0  # atno 10167 bound_to 10162
  157.6638  130.9731  150.1367 H   0  0  0  0  0  0  0  0  0  0  0  0  # atno 10718 bound_to 10713
  153.6044  135.3442  155.2957 H   0  0  0  0  0  0  0  0  0  0  0  0  # atno 10763 bound_to 10752
  154.8630  135.4235  154.2377 H   0  0  0  0  0  0  0  0  0  0  0  0  # atno 10764 bound_to 10752
  153.3213  135.7038  153.7099 H   0  0  0  0  0  0  0  0  0  0  0  0  # atno 10765 bound_to 10752
  139.9180  134.9634  156.7788 H   0  0  0  0  0  0  0  0  0  0  0  0  # atno 11005 bound_to 11000
  145.8277  139.2072  143.1901 LP  0  0  0  0  0  0  0  0  0  0  0  0  # atno 17320 bound_to 7965
  146.0458  140.8119  142.9806 LP  0  0  0  0  0  0  0  0  0  0  0  0  # atno 17321 bound_to 7965
  139.6361  144.7650  151.2434 LP  0  0  0  0  0  0  0  0  0  0  0  0  # atno 17342 bound_to 10162
  140.7465  143.6395  150.8348 LP  0  0  0  0  0  0  0  0  0  0  0  0  # atno 17343 bound_to 10162
  156.2200  130.3673  149.8567 LP  0  0  0  0  0  0  0  0  0  0  0  0  # atno 17370 bound_to 10713
  156.6423  130.8710  151.3516 LP  0  0  0  0  0  0  0  0  0  0  0  0  # atno 17371 bound_to 10713
  140.6561  133.9687  155.7780 LP  0  0  0  0  0  0  0  0  0  0  0  0  # atno 17394 bound_to 11000
  141.0675  134.0255  157.3573 LP  0  0  0  0  0  0  0  0  0  0  0  0  # atno 17395 bound_to 11000

$$$$
