AV-unprocessed.smi:605|AV-procd|sdf|3040|dock2
  -GOLD-   2262023563D 1   1.00000     0.00000
 Structure written by MMmdl.
 34 35  0  0  0  0  0  0  0  0  2 V2000
  146.6970  142.7134  154.1365 C   0  0  0  0  0  0  0  0  0  0  0  0
  147.7600  141.6485  153.8304 C   0  0  0  0  0  0  0  0  0  0  0  0
  147.2630  140.5590  152.8689 C   0  0  0  0  0  0  0  0  0  0  0  0
  148.3547  141.0703  155.0763 C   0  0  0  0  0  0  0  0  0  0  0  0
  147.6216  140.5142  156.0458 N   0  0  0  0  0  0  0  0  0  0  0  0
  148.4026  140.0480  157.0925 N   0  0  0  0  0  0  0  0  0  0  0  0
  149.7140  140.2459  156.8985 C   0  0  0  0  0  0  0  0  0  0  0  0
  150.6442  139.8568  157.7901 N   0  5  0  0  0  0  0  0  0  0  0  0
  151.6927  140.6461  158.1446 C   0  0  0  0  0  0  0  0  0  0  0  0
  152.8599  140.2569  158.1455 O   0  0  0  0  0  0  0  0  0  0  0  0
  151.4290  141.9161  158.5095 N   0  0  0  0  0  0  0  0  0  0  0  0
  152.4077  142.9164  158.9282 C   0  0  0  0  0  0  0  0  0  0  0  0
  152.1838  143.3103  160.4012 C   0  0  0  0  0  0  0  0  0  0  0  0
  152.1658  144.8396  160.4353 C   0  0  0  0  0  0  0  0  0  0  0  0
  151.6483  145.2427  159.0584 C   0  0  0  0  0  0  0  0  0  0  0  0
  152.2697  144.2164  158.1113 C   0  0  0  0  0  0  0  0  0  0  0  0
  150.0841  141.0666  155.3830 S   0  0  0  0  0  0  0  0  0  0  0  0
  147.1092  143.5129  154.7532 H   0  0  0  0  0  0  0  0  0  0  0  0
  145.8489  142.2843  154.6708 H   0  0  0  0  0  0  0  0  0  0  0  0
  146.3175  143.1658  153.2199 H   0  0  0  0  0  0  0  0  0  0  0  0
  148.5707  142.1647  153.3147 H   0  0  0  0  0  0  0  0  0  0  0  0
  148.0669  139.8695  152.6090 H   0  0  0  0  0  0  0  0  0  0  0  0
  146.8878  140.9939  151.9423 H   0  0  0  0  0  0  0  0  0  0  0  0
  146.4553  139.9766  153.3132 H   0  0  0  0  0  0  0  0  0  0  0  0
  150.4638  142.2108  158.4897 H   0  0  0  0  0  0  0  0  0  0  0  0
  153.4156  142.5149  158.8093 H   0  0  0  0  0  0  0  0  0  0  0  0
  151.2226  142.9365  160.7581 H   0  0  0  0  0  0  0  0  0  0  0  0
  152.9507  142.8984  161.0579 H   0  0  0  0  0  0  0  0  0  0  0  0
  151.5538  145.2343  161.2467 H   0  0  0  0  0  0  0  0  0  0  0  0
  153.1807  145.2161  160.5692 H   0  0  0  0  0  0  0  0  0  0  0  0
  150.5612  145.1537  159.0334 H   0  0  0  0  0  0  0  0  0  0  0  0
  151.9066  146.2686  158.7943 H   0  0  0  0  0  0  0  0  0  0  0  0
  153.2618  144.5572  157.8123 H   0  0  0  0  0  0  0  0  0  0  0  0
  151.6852  144.0970  157.1981 H   0  0  0  0  0  0  0  0  0  0  0  0
  1  2  1  0  0  0  0
  1 18  1  0  0  0  0
  1 19  1  0  0  0  0
  1 20  1  0  0  0  0
  2  3  1  0  0  0  0
  2  4  1  0  0  0  0
  2 21  1  0  0  0  0
  3 22  1  0  0  0  0
  3 23  1  0  0  0  0
  3 24  1  0  0  0  0
  4 17  1  0  0  0  0
  4  5  2  0  0  0  0
  5  6  1  0  0  0  0
  6  7  2  0  0  0  0
  7  8  1  0  0  0  0
  7 17  1  0  0  0  0
  8  9  1  0  0  0  0
  9 10  2  0  0  0  0
  9 11  1  0  0  0  0
 11 12  1  0  0  0  0
 11 25  1  0  0  0  0
 12 16  1  0  0  0  0
 12 13  1  0  0  0  0
 12 26  1  0  0  0  0
 13 14  1  0  0  0  0
 13 27  1  0  0  0  0
 13 28  1  0  0  0  0
 14 15  1  0  0  0  0
 14 29  1  0  0  0  0
 14 30  1  0  0  0  0
 15 16  1  0  0  0  0
 15 31  1  0  0  0  0
 15 32  1  0  0  0  0
 16 33  1  0  0  0  0
 16 34  1  0  0  0  0
M  CHG  1   8  -1
M  END
> <s_m_source_file>
AV-unprocessed.smi

> <i_m_source_file_index>
605

> <i_lp_mmshare_version>
43012

> <i_f3d_flags>
0

> <s_epik_input>
W0NIM11bQ0hdKFtDSDNdKWMxbm5jKHMxKVtOSF1DKD1PKVtOSF1bQ0hdMltDSDJdW0NIMl1bQ0gyXVtDSDJdMg==

> <s_epik_cmdline>
J2VwaWtfcHl0aG9uJywgJy1waCcsICc3LjAnLCAnLXRuJywgJzgnLCAnLW1hJywgJzIwMCcsICctbWV0YWxfYmluZGluZycsICctaW1hZScsICc8aW5maWxlLm1hZT4nLCAnLW9tYWUnLCAnPG91dGZpbGUubWFlPic=

> <r_lp_tautomer_probability>
1

> <r_epik_Ionization_Penalty>
4.57432

> <r_epik_Ionization_Penalty_Charging>
4.40687

> <r_epik_Ionization_Penalty_Neutral>
0.167446

> <r_epik_State_Penalty>
4.40652

> <r_epik_Charging_Adjusted_Penalty>
8.8134

> <i_epik_Tot_Q>
-1

> <i_epik_Tot_abs_Q>
1

> <r_epik_Metal_State_Penalty>
0.774635

> <b_epik_Metal_Only>
1

> <s_lp_Force_Field>
OPLS_2005

> <r_lp_Energy>
11.4858

> <b_lp_Chiralities_Consistent>
1

> <s_lp_Variant>
AV-unprocessed.smi:605-2

> <Gold.Version>
5.8.1

> <Gold.Id.Protein>
6NUR|6NUR_protein|mol2

> <Gold.PLP.Fitness>
38.6109

> <Gold.PLP.PLP>
-37.6620

> <Gold.PLP.part.hbond>
-1.0000

> <Gold.PLP.part.metal>
0.0000

> <Gold.PLP.part.buried>
-3.2871

> <Gold.PLP.part.nonpolar>
-32.5027

> <Gold.PLP.part.repulsive>
0.1122

> <Gold.PLP.ligand.clash>
0.0000

> <Gold.PLP.ligand.torsion>
1.0086

> <Gold.PLP.Chemscore.Hbond>
0.9600

> <Gold.PLP.Chemscore.CHOScore>
0.0000

> <Gold.PLP.Chemscore.Metal>
0.0000

> <Gold.Chemscore.Hbonds>
donor molecule, donor type, donor heavy atom, donor atom, acceptor molecule, acceptor atom, score
      P1  H  7997  8009       L1    10  0.89

> <Gold.PLP.Chemscore.Internal.Correction>
0.0862

> <Gold.Rescore>
     Score         DG    S(hbond)    S(metal)    S(lipo)     H(rot)  DE(clash)    DE(int)     intcor
     16.03     -16.90       0.98        0.00      95.66       1.18       0.01       0.86       ----

> <Gold.Chemscore.Fitness>
16.0309

> <Gold.Chemscore.DG>
-16.9008

> <Gold.Chemscore.ZeroCoef>
-5.4800

> <Gold.Chemscore.Hbond>
0.9755

> <Gold.Chemscore.Metal>
0.0000

> <Gold.Chemscore.Lipo>
95.6587

> <Gold.Chemscore.Internal_Hbond>
0.0000

> <Gold.Chemscore.DEClash>
0.0136

> <Gold.Chemscore.DEInternal>
0.8563

> <Gold.Chemscore.Rot>
1.1833

> <Gold.Chemscore.Internal.Correction>
   9.000000E+99

> <Gold.Chemscore.Hbonds>
donor molecule, donor type, donor heavy atom, donor atom, acceptor molecule, acceptor atom, score
      P1  H  7997  8009       L1    10  0.82

> <Gold.Chemscore.Hbond.Weighted>
-3.2581

> <Gold.Chemscore.Metal.Weighted>
-0.0000

> <Gold.Chemscore.Lipo.Weighted>
-11.1921

> <Gold.Chemscore.Internal_Hbond.Weighted>
0.0000

> <Gold.Chemscore.DEClash.Weighted>
0.0136

> <Gold.Chemscore.DEInternal.Weighted>
0.8563

> <Gold.Chemscore.Rot.Weighted>
3.0293

> <Gold.Chemscore.Internal.Correction.Weighted>
   9.000000E+99

> <Gold.Protein.RotatedTorsions>
[ 6907 6896 6895 6894 ] final  -75.76 input  -60.11 | X-H torsion
[ 7974 7965 7964 7962 ] final  137.10 input  175.53 | X-H torsion
[ 8008 7997 7996 7995 ] final  163.69 input   59.86 | X-H torsion
[ 10167 10162 10161 10158 ] final  136.41 input  -65.29 | X-H torsion
[ 10718 10713 10712 10709 ] final   97.62 input   66.30 | X-H torsion
[ 10763 10752 10751 10750 ] final  166.32 input  -60.55 | X-H torsion
[ 11005 11000 10999 10996 ] final  -82.44 input  -57.11 | X-H torsion

> <Gold.Protein.ActiveResidues>
 VAL166  LYS551  ARG553  GLY616  TRP617  ASP618  TYR619  PRO620  LYS621  CYS622 
 ASP623  PHE694  ASN695  SER759  ASP760  ASP761  ALA762  ILE779  LEU786  VAL792 
 PHE793  MET794  SER795  GLU796  ALA797  LYS798  CYS799  TRP800  GLU811  SER814 

> <Gold.Protein.RotatedAtoms>
  150.7048  134.4672  159.5408 H   0  0  0  0  0  0  0  0  0  0  0  0  # atno 6907 bound_to 6896
  152.2335  134.8295  160.0479 H   0  0  0  0  0  0  0  0  0  0  0  0  # atno 6908 bound_to 6896
  151.9102  133.3524  159.3898 H   0  0  0  0  0  0  0  0  0  0  0  0  # atno 6909 bound_to 6896
  144.9500  139.4830  143.5530 H   0  0  0  0  0  0  0  0  0  0  0  0  # atno 7974 bound_to 7965
  156.1938  140.1717  156.8039 H   0  0  0  0  0  0  0  0  0  0  0  0  # atno 8008 bound_to 7997
  154.5504  140.0719  156.8689 H   0  0  0  0  0  0  0  0  0  0  0  0  # atno 8009 bound_to 7997
  155.3040  140.3363  155.4249 H   0  0  0  0  0  0  0  0  0  0  0  0  # atno 8010 bound_to 7997
  139.5181  144.6466  151.5423 H   0  0  0  0  0  0  0  0  0  0  0  0  # atno 10167 bound_to 10162
  157.6909  131.0615  150.4672 H   0  0  0  0  0  0  0  0  0  0  0  0  # atno 10718 bound_to 10713
  154.3372  135.2754  155.2441 H   0  0  0  0  0  0  0  0  0  0  0  0  # atno 10763 bound_to 10752
  154.4727  135.5878  153.6337 H   0  0  0  0  0  0  0  0  0  0  0  0  # atno 10764 bound_to 10752
  152.9861  135.6092  154.3570 H   0  0  0  0  0  0  0  0  0  0  0  0  # atno 10765 bound_to 10752
  141.1663  133.7245  156.8573 H   0  0  0  0  0  0  0  0  0  0  0  0  # atno 11005 bound_to 11000
  146.3317  139.8579  142.8861 LP  0  0  0  0  0  0  0  0  0  0  0  0  # atno 17320 bound_to 7965
  145.2859  141.0152  143.3691 LP  0  0  0  0  0  0  0  0  0  0  0  0  # atno 17321 bound_to 7965
  140.6253  143.9180  150.6559 LP  0  0  0  0  0  0  0  0  0  0  0  0  # atno 17342 bound_to 10162
  140.2467  143.3623  152.1440 LP  0  0  0  0  0  0  0  0  0  0  0  0  # atno 17343 bound_to 10162
  156.5012  130.4117  149.6352 LP  0  0  0  0  0  0  0  0  0  0  0  0  # atno 17370 bound_to 10713
  156.3326  130.7339  151.2271 LP  0  0  0  0  0  0  0  0  0  0  0  0  # atno 17371 bound_to 10713
  140.1873  134.8990  157.3020 LP  0  0  0  0  0  0  0  0  0  0  0  0  # atno 17394 bound_to 11000
  140.2328  134.3888  155.7514 LP  0  0  0  0  0  0  0  0  0  0  0  0  # atno 17395 bound_to 11000

$$$$
