AV-unprocessed.smi:1019|AV-procd|sdf|4446|dock10
  -GOLD-   22720 2413D 1   1.00000     0.00000
 Structure written by MMmdl.
 44 46  0  0  0  0  0  0  0  0  2 V2000
  148.7805  136.6802  155.4795 C   0  0  0  0  0  0  0  0  0  0  0  0
  149.8358  137.0725  154.5180 N   0  3  2  0  0  0  0  0  0  0  0  0
  151.0611  136.2491  154.6649 C   0  0  0  0  0  0  0  0  0  0  0  0
  150.7290  134.7733  154.8079 C   0  0  0  0  0  0  0  0  0  0  0  0
  151.1948  134.0525  155.9281 C   0  0  0  0  0  0  0  0  0  0  0  0
  150.8762  132.6884  156.0748 C   0  0  0  0  0  0  0  0  0  0  0  0
  150.0951  132.0386  155.0998 C   0  0  0  0  0  0  0  0  0  0  0  0
  149.6339  132.7524  153.9769 C   0  0  0  0  0  0  0  0  0  0  0  0
  149.9507  134.1170  153.8305 C   0  0  0  0  0  0  0  0  0  0  0  0
  150.0931  138.5367  154.5184 C   0  0  0  0  0  0  0  0  0  0  0  0
  151.0438  138.9440  155.6591 C   0  0  1  0  0  0  0  0  0  0  0  0
  152.1157  139.6789  155.1026 O   0  0  0  0  0  0  0  0  0  0  0  0
  150.3401  139.7940  156.7376 C   0  0  0  0  0  0  0  0  0  0  0  0
  151.2317  140.1700  157.8193 N   0  0  0  0  0  0  0  0  0  0  0  0
  151.8821  139.3387  158.6559 C   0  0  0  0  0  0  0  0  0  0  0  0
  152.6555  139.8908  159.5856 N   0  0  0  0  0  0  0  0  0  0  0  0
  152.4875  141.2397  159.3236 C   0  0  0  0  0  0  0  0  0  0  0  0
  153.0419  142.3730  159.9603 C   0  0  0  0  0  0  0  0  0  0  0  0
  152.7211  143.6716  159.5134 C   0  0  0  0  0  0  0  0  0  0  0  0
  151.8433  143.8569  158.4255 C   0  0  0  0  0  0  0  0  0  0  0  0
  151.2785  142.7431  157.7747 C   0  0  0  0  0  0  0  0  0  0  0  0
  151.6007  141.4488  158.2240 C   0  0  0  0  0  0  0  0  0  0  0  0
  149.1100  136.8382  156.5072 H   0  0  0  0  0  0  0  0  0  0  0  0
  148.5248  135.6266  155.3616 H   0  0  0  0  0  0  0  0  0  0  0  0
  147.8701  137.2585  155.3199 H   0  0  0  0  0  0  0  0  0  0  0  0
  151.7306  136.4177  153.8198 H   0  0  0  0  0  0  0  0  0  0  0  0
  151.6059  136.5511  155.5605 H   0  0  0  0  0  0  0  0  0  0  0  0
  151.7927  134.5444  156.6813 H   0  0  0  0  0  0  0  0  0  0  0  0
  151.2309  132.1399  156.9352 H   0  0  0  0  0  0  0  0  0  0  0  0
  149.8506  130.9922  155.2121 H   0  0  0  0  0  0  0  0  0  0  0  0
  149.0366  132.2528  153.2283 H   0  0  0  0  0  0  0  0  0  0  0  0
  149.5906  134.6575  152.9673 H   0  0  0  0  0  0  0  0  0  0  0  0
  150.5026  138.8308  153.5502 H   0  0  0  0  0  0  0  0  0  0  0  0
  149.1653  139.0985  154.6254 H   0  0  0  0  0  0  0  0  0  0  0  0
  151.4722  138.0522  156.1178 H   0  0  0  0  0  0  0  0  0  0  0  0
  152.6583  140.0066  155.8038 H   0  0  0  0  0  0  0  0  0  0  0  0
  149.9170  140.6990  156.2994 H   0  0  0  0  0  0  0  0  0  0  0  0
  149.5044  139.2428  157.1703 H   0  0  0  0  0  0  0  0  0  0  0  0
  151.7837  138.2659  158.5765 H   0  0  0  0  0  0  0  0  0  0  0  0
  153.7156  142.2427  160.7943 H   0  0  0  0  0  0  0  0  0  0  0  0
  153.1513  144.5300  160.0081 H   0  0  0  0  0  0  0  0  0  0  0  0
  151.6041  144.8558  158.0908 H   0  0  0  0  0  0  0  0  0  0  0  0
  150.6070  142.8837  156.9409 H   0  0  0  0  0  0  0  0  0  0  0  0
  149.4770  136.8506  153.6004 H   0  0  0  0  0  0  0  0  0  0  0  0
  1  2  1  0  0  0  0
  1 23  1  0  0  0  0
  1 24  1  0  0  0  0
  1 25  1  0  0  0  0
  2  3  1  0  0  0  0
  2 10  1  0  0  0  0
  2 44  1  0  0  0  0
  3  4  1  0  0  0  0
  3 26  1  0  0  0  0
  3 27  1  0  0  0  0
  4  9  1  0  0  0  0
  4  5  2  0  0  0  0
  5  6  1  0  0  0  0
  5 28  1  0  0  0  0
  6  7  2  0  0  0  0
  6 29  1  0  0  0  0
  7  8  1  0  0  0  0
  7 30  1  0  0  0  0
  8  9  2  0  0  0  0
  8 31  1  0  0  0  0
  9 32  1  0  0  0  0
 10 11  1  0  0  0  0
 10 33  1  0  0  0  0
 10 34  1  0  0  0  0
 11 12  1  0  0  0  0
 11 13  1  0  0  0  0
 11 35  1  0  0  0  0
 12 36  1  0  0  0  0
 13 14  1  0  0  0  0
 13 37  1  0  0  0  0
 13 38  1  0  0  0  0
 14 22  1  0  0  0  0
 14 15  1  0  0  0  0
 15 16  2  0  0  0  0
 15 39  1  0  0  0  0
 16 17  1  0  0  0  0
 17 22  2  0  0  0  0
 17 18  1  0  0  0  0
 18 19  2  0  0  0  0
 18 40  1  0  0  0  0
 19 20  1  0  0  0  0
 19 41  1  0  0  0  0
 20 21  2  0  0  0  0
 20 42  1  0  0  0  0
 21 22  1  0  0  0  0
 21 43  1  0  0  0  0
M  CHG  1   2   1
M  END
> <s_m_source_file>
AV-unprocessed.smi

> <i_m_source_file_index>
1019

> <i_lp_mmshare_version>
43012

> <i_f3d_flags>
0

> <s_epik_input>
W2NIXTFbY0hdW2NIXVtjSF1bY0hdYzFbQ0gyXU4oW0NIM10pW0NIMl1bQ0BIXShbT0hdKVtDSDJdbihbY0hdbjIpYyhjMjMpW2NIXVtjSF1bY0hdW2NIXTM=

> <s_epik_cmdline>
J2VwaWtfcHl0aG9uJywgJy1waCcsICc3LjAnLCAnLXRuJywgJzgnLCAnLW1hJywgJzIwMCcsICctbWV0YWxfYmluZGluZycsICctaW1hZScsICc8aW5maWxlLm1hZT4nLCAnLW9tYWUnLCAnPG91dGZpbGUubWFlPic=

> <r_epik_Ionization_Penalty>
0.0996557

> <r_epik_Ionization_Penalty_Charging>
0.0475377

> <r_epik_Ionization_Penalty_Neutral>
0.0521179

> <r_epik_State_Penalty>
0.0851777

> <r_epik_Charging_Adjusted_Penalty>
0.132715

> <i_epik_Tot_Q>
1

> <i_epik_Tot_abs_Q>
1

> <r_epik_Metal_State_Penalty>
0.0423478

> <b_epik_Metal_Only>
0

> <s_lp_Force_Field>
OPLS_2005

> <r_lp_Energy>
16.6774

> <b_lp_Chiralities_Consistent>
1

> <s_lp_Variant>
AV-unprocessed.smi:1019-4

> <Gold.Version>
5.8.1

> <Gold.Id.Protein>
6NUR|6NUR_protein|mol2

> <Gold.PLP.Fitness>
51.8556

> <Gold.PLP.PLP>
-44.5365

> <Gold.PLP.part.hbond>
-2.0000

> <Gold.PLP.part.metal>
0.0000

> <Gold.PLP.part.buried>
-4.6955

> <Gold.PLP.part.nonpolar>
-38.9613

> <Gold.PLP.part.repulsive>
0.0097

> <Gold.PLP.ligand.clash>
0.0000

> <Gold.PLP.ligand.torsion>
0.9713

> <Gold.PLP.Chemscore.Hbond>
2.9760

> <Gold.PLP.Chemscore.CHOScore>
0.0000

> <Gold.PLP.Chemscore.Metal>
0.0000

> <Gold.Chemscore.Hbonds>
donor molecule, donor type, donor heavy atom, donor atom, acceptor molecule, acceptor atom, score
      L1  H     2    44       P1  7948  2.00
      P1  H  7989  7998       L1    12  0.83

> <Gold.PLP.Chemscore.Internal.Correction>
0.3337

> <Gold.Rescore>
     Score         DG    S(hbond)    S(metal)    S(lipo)     H(rot)  DE(clash)    DE(int)     intcor
     18.48     -19.73       1.86        0.00     120.46       2.36       0.11       1.14       ----

> <Gold.Chemscore.Fitness>
18.4760

> <Gold.Chemscore.DG>
-19.7308

> <Gold.Chemscore.ZeroCoef>
-5.4800

> <Gold.Chemscore.Hbond>
1.8570

> <Gold.Chemscore.Metal>
0.0000

> <Gold.Chemscore.Lipo>
120.4643

> <Gold.Chemscore.Internal_Hbond>
0.0000

> <Gold.Chemscore.DEClash>
0.1103

> <Gold.Chemscore.DEInternal>
1.1446

> <Gold.Chemscore.Rot>
2.3616

> <Gold.Chemscore.Internal.Correction>
   9.000000E+99

> <Gold.Chemscore.Hbonds>
donor molecule, donor type, donor heavy atom, donor atom, acceptor molecule, acceptor atom, score
      L1  H     2    44       P1  7948  0.88
      P1  H  7989  7998       L1    12  0.71

> <Gold.Chemscore.Hbond.Weighted>
-6.2022

> <Gold.Chemscore.Metal.Weighted>
-0.0000

> <Gold.Chemscore.Lipo.Weighted>
-14.0943

> <Gold.Chemscore.Internal_Hbond.Weighted>
0.0000

> <Gold.Chemscore.DEClash.Weighted>
0.1103

> <Gold.Chemscore.DEInternal.Weighted>
1.1446

> <Gold.Chemscore.Rot.Weighted>
6.0457

> <Gold.Chemscore.Internal.Correction.Weighted>
   9.000000E+99

> <Gold.Protein.RotatedTorsions>
[ 6907 6896 6895 6894 ] final    2.12 input  -60.11 | X-H torsion
[ 7974 7965 7964 7962 ] final  172.54 input  175.53 | X-H torsion
[ 8008 7997 7996 7995 ] final   85.70 input   59.86 | X-H torsion
[ 10167 10162 10161 10158 ] final  106.04 input  -65.29 | X-H torsion
[ 10718 10713 10712 10709 ] final -126.00 input   66.30 | X-H torsion
[ 10763 10752 10751 10750 ] final  141.00 input  -60.55 | X-H torsion
[ 11005 11000 10999 10996 ] final  159.18 input  -57.11 | X-H torsion

> <Gold.Protein.ActiveResidues>
 VAL166  LYS551  ARG553  GLY616  TRP617  ASP618  TYR619  PRO620  LYS621  CYS622 
 ASP623  PHE694  ASN695  SER759  ASP760  ASP761  ALA762  ILE779  LEU786  VAL792 
 PHE793  MET794  SER795  GLU796  ALA797  LYS798  CYS799  TRP800  GLU811  SER814 

> <Gold.Protein.RotatedAtoms>
  151.6038  135.1045  160.0065 H   0  0  0  0  0  0  0  0  0  0  0  0  # atno 6907 bound_to 6896
  152.4244  133.7166  159.6520 H   0  0  0  0  0  0  0  0  0  0  0  0  # atno 6908 bound_to 6896
  150.8133  133.8311  159.3194 H   0  0  0  0  0  0  0  0  0  0  0  0  # atno 6909 bound_to 6896
  144.7265  139.9514  143.6432 H   0  0  0  0  0  0  0  0  0  0  0  0  # atno 7974 bound_to 7965
  155.9533  140.3399  155.6427 H   0  0  0  0  0  0  0  0  0  0  0  0  # atno 8008 bound_to 7997
  155.6892  140.0747  157.2473 H   0  0  0  0  0  0  0  0  0  0  0  0  # atno 8009 bound_to 7997
  154.4126  140.1660  156.2055 H   0  0  0  0  0  0  0  0  0  0  0  0  # atno 8010 bound_to 7997
  139.7042  144.7089  151.1134 H   0  0  0  0  0  0  0  0  0  0  0  0  # atno 10167 bound_to 10162
  156.1725  130.6677  151.0199 H   0  0  0  0  0  0  0  0  0  0  0  0  # atno 10718 bound_to 10713
  153.9320  135.2989  155.3445 H   0  0  0  0  0  0  0  0  0  0  0  0  # atno 10763 bound_to 10752
  154.7522  135.4975  153.9312 H   0  0  0  0  0  0  0  0  0  0  0  0  # atno 10764 bound_to 10752
  153.1087  135.6753  153.9645 H   0  0  0  0  0  0  0  0  0  0  0  0  # atno 10765 bound_to 10752
  140.1937  134.8388  157.2941 H   0  0  0  0  0  0  0  0  0  0  0  0  # atno 11005 bound_to 11000
  146.0708  139.3697  143.0524 LP  0  0  0  0  0  0  0  0  0  0  0  0  # atno 17320 bound_to 7965
  145.7970  140.9788  143.1019 LP  0  0  0  0  0  0  0  0  0  0  0  0  # atno 17321 bound_to 7965
  140.7717  143.5381  150.9344 LP  0  0  0  0  0  0  0  0  0  0  0  0  # atno 17342 bound_to 10162
  139.9064  143.6773  152.3123 LP  0  0  0  0  0  0  0  0  0  0  0  0  # atno 17343 bound_to 10162
  157.6813  131.0837  150.7362 LP  0  0  0  0  0  0  0  0  0  0  0  0  # atno 17370 bound_to 10713
  156.7421  130.4742  149.5475 LP  0  0  0  0  0  0  0  0  0  0  0  0  # atno 17371 bound_to 10713
  140.2131  134.4114  155.7603 LP  0  0  0  0  0  0  0  0  0  0  0  0  # atno 17394 bound_to 11000
  141.2227  133.7128  156.8370 LP  0  0  0  0  0  0  0  0  0  0  0  0  # atno 17395 bound_to 11000

$$$$
