AV-unprocessed.smi:3330|AV-procd|sdf|12813|dock2
  -GOLD-   2272019183D 1   1.00000     0.00000
 Structure written by MMmdl.
 37 38  0  0  0  0  0  0  0  0  2 V2000
  152.9833  143.3762  162.0977 C   0  0  0  0  0  0  0  0  0  0  0  0
  152.4154  142.7997  160.7854 C   0  0  2  0  0  0  0  0  0  0  0  0
  153.4079  141.8976  160.2069 N   0  0  0  0  0  0  0  0  0  0  0  0
  153.9519  140.9702  161.1867 C   0  0  0  0  0  0  0  0  0  0  0  0
  154.6512  139.8134  160.4574 C   0  0  0  0  0  0  0  0  0  0  0  0
  153.7221  138.7063  160.2149 N   0  0  0  0  0  0  0  0  0  0  0  0
  152.9690  138.5834  159.1176 C   0  0  0  0  0  0  0  0  0  0  0  0
  152.9065  139.3460  158.1527 O   0  0  0  0  0  0  0  0  0  0  0  0
  152.1792  137.3019  159.2490 C   0  0  0  0  0  0  0  0  0  0  0  0
  152.6272  136.7921  160.5252 N   0  5  0  0  0  0  0  0  0  0  0  0
  153.5331  137.6575  161.0387 C   0  0  0  0  0  0  0  0  0  0  0  0
  154.1340  137.5444  162.1069 O   0  0  0  0  0  0  0  0  0  0  0  0
  152.0724  143.8953  159.7393 C   0  0  2  0  0  0  0  0  0  0  0  0
  151.1915  145.0250  160.3076 C   0  0  0  0  0  0  0  0  0  0  0  0
  151.4390  143.3182  158.5573 N   0  0  0  0  0  0  0  0  0  0  0  0
  151.1625  143.9341  157.3537 C   0  0  0  0  0  0  0  0  0  0  0  0
  150.5911  143.0007  156.5372 C   0  0  0  0  0  0  0  0  0  0  0  0
  150.5643  141.8244  157.3367 C   0  0  0  0  0  0  0  0  0  0  0  0
  151.0707  142.0164  158.5436 N   0  0  0  0  0  0  0  0  0  0  0  0
  152.2467  143.9919  162.6130 H   0  0  0  0  0  0  0  0  0  0  0  0
  153.8631  143.9932  161.9126 H   0  0  0  0  0  0  0  0  0  0  0  0
  153.2709  142.5913  162.7968 H   0  0  0  0  0  0  0  0  0  0  0  0
  151.5048  142.2401  161.0051 H   0  0  0  0  0  0  0  0  0  0  0  0
  154.1493  142.4244  159.7680 H   0  0  0  0  0  0  0  0  0  0  0  0
  154.6586  141.4809  161.8407 H   0  0  0  0  0  0  0  0  0  0  0  0
  153.1459  140.5828  161.8117 H   0  0  0  0  0  0  0  0  0  0  0  0
  155.0657  140.1635  159.5102 H   0  0  0  0  0  0  0  0  0  0  0  0
  155.5039  139.4620  161.0410 H   0  0  0  0  0  0  0  0  0  0  0  0
  151.1111  137.5198  159.2236 H   0  0  0  0  0  0  0  0  0  0  0  0
  152.4085  136.6379  158.4149 H   0  0  0  0  0  0  0  0  0  0  0  0
  153.0050  144.3541  159.4064 H   0  0  0  0  0  0  0  0  0  0  0  0
  151.7166  145.5993  161.0702 H   0  0  0  0  0  0  0  0  0  0  0  0
  150.2764  144.6346  160.7539 H   0  0  0  0  0  0  0  0  0  0  0  0
  150.9051  145.7273  159.5238 H   0  0  0  0  0  0  0  0  0  0  0  0
  151.3972  144.9737  157.1790 H   0  0  0  0  0  0  0  0  0  0  0  0
  150.2501  143.1361  155.5216 H   0  0  0  0  0  0  0  0  0  0  0  0
  150.1950  140.8432  157.0774 H   0  0  0  0  0  0  0  0  0  0  0  0
  1  2  1  0  0  0  0
  1 20  1  0  0  0  0
  1 21  1  0  0  0  0
  1 22  1  0  0  0  0
  2  3  1  0  0  0  0
  2 13  1  0  0  0  0
  2 23  1  0  0  0  0
  3  4  1  0  0  0  0
  3 24  1  0  0  0  0
  4  5  1  0  0  0  0
  4 25  1  0  0  0  0
  4 26  1  0  0  0  0
  5  6  1  0  0  0  0
  5 27  1  0  0  0  0
  5 28  1  0  0  0  0
  6 11  1  0  0  0  0
  6  7  1  0  0  0  0
  7  8  2  0  0  0  0
  7  9  1  0  0  0  0
  9 10  1  0  0  0  0
  9 29  1  0  0  0  0
  9 30  1  0  0  0  0
 10 11  1  0  0  0  0
 11 12  2  0  0  0  0
 13 14  1  0  0  0  0
 13 15  1  0  0  0  0
 13 31  1  0  0  0  0
 14 32  1  0  0  0  0
 14 33  1  0  0  0  0
 14 34  1  0  0  0  0
 15 19  1  0  0  0  0
 15 16  1  0  0  0  0
 16 17  2  0  0  0  0
 16 35  1  0  0  0  0
 17 18  1  0  0  0  0
 17 36  1  0  0  0  0
 18 19  2  0  0  0  0
 18 37  1  0  0  0  0
M  CHG  1  10  -1
M  END
> <s_m_source_file>
AV-unprocessed.smi

> <i_m_source_file_index>
3330

> <i_lp_mmshare_version>
43012

> <i_f3d_flags>
0

> <s_epik_input>
bjFbY0hdW2NIXVtjSF1uMVtDQEBIXShbQ0gzXSlbQ0BIXShbQ0gzXSlbTkhdW0NIMl1bQ0gyXU4yQyg9TylbQ0gyXVtOSF1DMj1P

> <s_epik_cmdline>
J2VwaWtfcHl0aG9uJywgJy1waCcsICc3LjAnLCAnLXRuJywgJzgnLCAnLW1hJywgJzIwMCcsICctbWV0YWxfYmluZGluZycsICctaW1hZScsICc8aW5maWxlLm1hZT4nLCAnLW9tYWUnLCAnPG91dGZpbGUubWFlPic=

> <r_lp_tautomer_probability>
1

> <r_epik_Ionization_Penalty>
8.77477

> <r_epik_Ionization_Penalty_Charging>
6.28461

> <r_epik_Ionization_Penalty_Neutral>
2.49016

> <r_epik_State_Penalty>
8.73376

> <r_epik_Charging_Adjusted_Penalty>
15.0184

> <i_epik_Tot_Q>
-1

> <i_epik_Tot_abs_Q>
1

> <r_epik_Metal_State_Penalty>
4.73175

> <b_epik_Metal_Only>
1

> <s_lp_Force_Field>
OPLS_2005

> <r_lp_Energy>
21.1742

> <b_lp_Chiralities_Consistent>
1

> <s_lp_Variant>
AV-unprocessed.smi:3330-13

> <Gold.Version>
5.8.1

> <Gold.Id.Protein>
6NUR|6NUR_protein|mol2

> <Gold.PLP.Fitness>
46.6407

> <Gold.PLP.PLP>
-39.2128

> <Gold.PLP.part.hbond>
-2.0000

> <Gold.PLP.part.metal>
0.0000

> <Gold.PLP.part.buried>
-2.1028

> <Gold.PLP.part.nonpolar>
-34.7544

> <Gold.PLP.part.repulsive>
0.0252

> <Gold.PLP.ligand.clash>
0.0364

> <Gold.PLP.ligand.torsion>
0.8309

> <Gold.PLP.Chemscore.Hbond>
3.0000

> <Gold.PLP.Chemscore.CHOScore>
0.0000

> <Gold.PLP.Chemscore.Metal>
0.0000

> <Gold.Chemscore.Hbonds>
donor molecule, donor type, donor heavy atom, donor atom, acceptor molecule, acceptor atom, score
      P1  H  6896  6907       L1    10  1.20
      P1  H  7997  8009       L1     8  0.73

> <Gold.PLP.Chemscore.Internal.Correction>
0.1261

> <Gold.Rescore>
     Score         DG    S(hbond)    S(metal)    S(lipo)     H(rot)  DE(clash)    DE(int)     intcor
     13.33     -16.15       1.96        0.00      90.25       2.52       0.48       2.34       ----

> <Gold.Chemscore.Fitness>
13.3269

> <Gold.Chemscore.DG>
-16.1476

> <Gold.Chemscore.ZeroCoef>
-5.4800

> <Gold.Chemscore.Hbond>
1.9608

> <Gold.Chemscore.Metal>
0.0000

> <Gold.Chemscore.Lipo>
90.2530

> <Gold.Chemscore.Internal_Hbond>
0.0000

> <Gold.Chemscore.DEClash>
0.4765

> <Gold.Chemscore.DEInternal>
2.3442

> <Gold.Chemscore.Rot>
2.5160

> <Gold.Chemscore.Internal.Correction>
   9.000000E+99

> <Gold.Chemscore.Hbonds>
donor molecule, donor type, donor heavy atom, donor atom, acceptor molecule, acceptor atom, score
      P1  H  6896  6907       L1    10  0.04
      P1  H  7997  8009       L1     8  0.73

> <Gold.Chemscore.Hbond.Weighted>
-6.5490

> <Gold.Chemscore.Metal.Weighted>
-0.0000

> <Gold.Chemscore.Lipo.Weighted>
-10.5596

> <Gold.Chemscore.Internal_Hbond.Weighted>
0.0000

> <Gold.Chemscore.DEClash.Weighted>
0.4765

> <Gold.Chemscore.DEInternal.Weighted>
2.3442

> <Gold.Chemscore.Rot.Weighted>
6.4410

> <Gold.Chemscore.Internal.Correction.Weighted>
   9.000000E+99

> <Gold.Protein.RotatedTorsions>
[ 6907 6896 6895 6894 ] final   32.22 input  -60.11 | X-H torsion
[ 7974 7965 7964 7962 ] final   31.56 input  175.53 | X-H torsion
[ 8008 7997 7996 7995 ] final  155.71 input   59.86 | X-H torsion
[ 10167 10162 10161 10158 ] final -161.52 input  -65.29 | X-H torsion
[ 10718 10713 10712 10709 ] final  162.77 input   66.30 | X-H torsion
[ 10763 10752 10751 10750 ] final  -30.60 input  -60.55 | X-H torsion
[ 11005 11000 10999 10996 ] final  -54.31 input  -57.11 | X-H torsion

> <Gold.Protein.ActiveResidues>
 VAL166  LYS551  ARG553  GLY616  TRP617  ASP618  TYR619  PRO620  LYS621  CYS622 
 ASP623  PHE694  ASN695  SER759  ASP760  ASP761  ALA762  ILE779  LEU786  VAL792 
 PHE793  MET794  SER795  GLU796  ALA797  LYS798  CYS799  TRP800  GLU811  SER814 

> <Gold.Protein.RotatedAtoms>
  152.0714  134.9531  160.0574 H   0  0  0  0  0  0  0  0  0  0  0  0  # atno 6907 bound_to 6896
  152.0855  133.4169  159.4528 H   0  0  0  0  0  0  0  0  0  0  0  0  # atno 6908 bound_to 6896
  150.6836  134.2852  159.4687 H   0  0  0  0  0  0  0  0  0  0  0  0  # atno 6909 bound_to 6896
  146.1542  139.6641  142.9078 H   0  0  0  0  0  0  0  0  0  0  0  0  # atno 7974 bound_to 7965
  156.2463  140.1932  156.6843 H   0  0  0  0  0  0  0  0  0  0  0  0  # atno 8008 bound_to 7997
  154.6299  140.0597  156.9745 H   0  0  0  0  0  0  0  0  0  0  0  0  # atno 8009 bound_to 7997
  155.1728  140.3269  155.4392 H   0  0  0  0  0  0  0  0  0  0  0  0  # atno 8010 bound_to 7997
  139.6459  144.0173  152.2126 H   0  0  0  0  0  0  0  0  0  0  0  0  # atno 10167 bound_to 10162
  157.1179  131.0485  151.2428 H   0  0  0  0  0  0  0  0  0  0  0  0  # atno 10718 bound_to 10713
  153.7836  135.6903  153.4884 H   0  0  0  0  0  0  0  0  0  0  0  0  # atno 10763 bound_to 10752
  153.1795  135.4512  155.0008 H   0  0  0  0  0  0  0  0  0  0  0  0  # atno 10764 bound_to 10752
  154.8072  135.3362  154.7338 H   0  0  0  0  0  0  0  0  0  0  0  0  # atno 10765 bound_to 10752
  141.1019  133.6617  156.4302 H   0  0  0  0  0  0  0  0  0  0  0  0  # atno 11005 bound_to 11000
  145.4748  141.0437  143.2678 LP  0  0  0  0  0  0  0  0  0  0  0  0  # atno 17320 bound_to 7965
  144.7942  139.6267  143.7100 LP  0  0  0  0  0  0  0  0  0  0  0  0  # atno 17321 bound_to 7965
  139.9875  144.6385  150.7845 LP  0  0  0  0  0  0  0  0  0  0  0  0  # atno 17342 bound_to 10162
  140.7514  143.2972  151.3173 LP  0  0  0  0  0  0  0  0  0  0  0  0  # atno 17343 bound_to 10162
  157.4502  130.7594  149.7144 LP  0  0  0  0  0  0  0  0  0  0  0  0  # atno 17370 bound_to 10713
  155.9835  130.4000  150.3360 LP  0  0  0  0  0  0  0  0  0  0  0  0  # atno 17371 bound_to 10713
  140.4999  134.6495  157.5244 LP  0  0  0  0  0  0  0  0  0  0  0  0  # atno 17394 bound_to 11000
  139.9874  134.7039  155.9749 LP  0  0  0  0  0  0  0  0  0  0  0  0  # atno 17395 bound_to 11000

$$$$
