AV-unprocessed.smi:1762|AV-procd|sdf|7108|dock10
  -GOLD-   22720 8333D 1   1.00000     0.00000
 Structure written by MMmdl.
 53 54  0  0  0  0  0  0  0  0  2 V2000
  149.8454  134.6080  156.4569 C   0  0  0  0  0  0  0  0  0  0  0  0
  149.9201  135.7526  155.4399 C   0  0  1  0  0  0  0  0  0  0  0  0
  148.8291  136.8160  155.6719 C   0  0  0  0  0  0  0  0  0  0  0  0
  148.9367  137.9519  154.7481 N   0  0  0  0  0  0  0  0  0  0  0  0
  147.8635  138.9669  154.9444 C   0  0  1  0  0  0  0  0  0  0  0  0
  148.1046  139.8768  156.1722 C   0  0  0  0  0  0  0  0  0  0  0  0
  147.5079  139.6681  157.2292 O   0  0  0  0  0  0  0  0  0  0  0  0
  148.9598  140.8988  156.0090 N   0  0  0  0  0  0  0  0  0  0  0  0
  149.2931  141.8756  157.0385 C   0  0  0  0  0  0  0  0  0  0  0  0
  150.8064  141.9138  157.3107 C   0  0  0  0  0  0  0  0  0  0  0  0
  151.1832  142.9936  158.3059 C   0  0  0  0  0  0  0  0  0  0  0  0
  151.9040  142.7065  159.4855 C   0  0  0  0  0  0  0  0  0  0  0  0
  152.2292  143.7580  160.3676 C   0  0  0  0  0  0  0  0  0  0  0  0
  151.8290  145.0728  160.0512 C   0  0  0  0  0  0  0  0  0  0  0  0
  151.1130  145.3033  158.8586 C   0  0  0  0  0  0  0  0  0  0  0  0
  150.8199  144.2693  158.0394 N   0  3  0  0  0  0  0  0  0  0  0  0
  147.5240  139.8243  153.6789 C   0  0  0  0  0  0  0  0  0  0  0  0
  146.7153  141.0998  153.9872 C   0  0  0  0  0  0  0  0  0  0  0  0
  146.8437  139.0174  152.5547 C   0  0  0  0  0  0  0  0  0  0  0  0
  150.3053  138.4913  154.8319 C   0  0  0  0  0  0  0  0  0  0  0  0
  151.3855  137.4152  154.6104 C   0  0  1  0  0  0  0  0  0  0  0  0
  152.8038  137.9689  154.7865 C   0  0  0  0  0  0  0  0  0  0  0  0
  151.1988  136.3644  155.5498 O   0  0  0  0  0  0  0  0  0  0  0  0
  148.8854  134.0944  156.3998 H   0  0  0  0  0  0  0  0  0  0  0  0
  149.9688  134.9756  157.4759 H   0  0  0  0  0  0  0  0  0  0  0  0
  150.6272  133.8711  156.2715 H   0  0  0  0  0  0  0  0  0  0  0  0
  149.8130  135.3339  154.4377 H   0  0  0  0  0  0  0  0  0  0  0  0
  147.8712  136.3133  155.5557 H   0  0  0  0  0  0  0  0  0  0  0  0
  148.8763  137.1709  156.7030 H   0  0  0  0  0  0  0  0  0  0  0  0
  146.9516  138.4100  155.1709 H   0  0  0  0  0  0  0  0  0  0  0  0
  149.4074  141.0050  155.1099 H   0  0  0  0  0  0  0  0  0  0  0  0
  148.9328  142.8626  156.7429 H   0  0  0  0  0  0  0  0  0  0  0  0
  148.7549  141.6084  157.9482 H   0  0  0  0  0  0  0  0  0  0  0  0
  151.1438  140.9476  157.6883 H   0  0  0  0  0  0  0  0  0  0  0  0
  151.3537  142.0872  156.3831 H   0  0  0  0  0  0  0  0  0  0  0  0
  152.2059  141.6942  159.7126 H   0  0  0  0  0  0  0  0  0  0  0  0
  152.7798  143.5591  161.2756 H   0  0  0  0  0  0  0  0  0  0  0  0
  152.0684  145.8922  160.7131 H   0  0  0  0  0  0  0  0  0  0  0  0
  150.7690  146.2759  158.5376 H   0  0  0  0  0  0  0  0  0  0  0  0
  148.4643  140.1457  153.2343 H   0  0  0  0  0  0  0  0  0  0  0  0
  145.7106  140.8703  154.3410 H   0  0  0  0  0  0  0  0  0  0  0  0
  146.6105  141.7164  153.0942 H   0  0  0  0  0  0  0  0  0  0  0  0
  147.2039  141.7119  154.7454 H   0  0  0  0  0  0  0  0  0  0  0  0
  145.8283  138.7201  152.8186 H   0  0  0  0  0  0  0  0  0  0  0  0
  147.4083  138.1142  152.3214 H   0  0  0  0  0  0  0  0  0  0  0  0
  146.7792  139.6063  151.6395 H   0  0  0  0  0  0  0  0  0  0  0  0
  150.4753  139.2629  154.0820 H   0  0  0  0  0  0  0  0  0  0  0  0
  150.4542  138.9636  155.8047 H   0  0  0  0  0  0  0  0  0  0  0  0
  151.2934  137.0095  153.6014 H   0  0  0  0  0  0  0  0  0  0  0  0
  153.0033  138.7710  154.0757 H   0  0  0  0  0  0  0  0  0  0  0  0
  153.5488  137.1894  154.6245 H   0  0  0  0  0  0  0  0  0  0  0  0
  152.9508  138.3664  155.7910 H   0  0  0  0  0  0  0  0  0  0  0  0
  150.3014  144.4594  157.1816 H   0  0  0  0  0  0  0  0  0  0  0  0
  1  2  1  0  0  0  0
  1 24  1  0  0  0  0
  1 25  1  0  0  0  0
  1 26  1  0  0  0  0
  2 23  1  0  0  0  0
  2  3  1  0  0  0  0
  2 27  1  0  0  0  0
  3  4  1  0  0  0  0
  3 28  1  0  0  0  0
  3 29  1  0  0  0  0
  4  5  1  0  0  0  0
  4 20  1  0  0  0  0
  5  6  1  0  0  0  0
  5 17  1  0  0  0  0
  5 30  1  0  0  0  0
  6  7  2  0  0  0  0
  6  8  1  0  0  0  0
  8  9  1  0  0  0  0
  8 31  1  0  0  0  0
  9 10  1  0  0  0  0
  9 32  1  0  0  0  0
  9 33  1  0  0  0  0
 10 11  1  0  0  0  0
 10 34  1  0  0  0  0
 10 35  1  0  0  0  0
 11 16  1  0  0  0  0
 11 12  2  0  0  0  0
 12 13  1  0  0  0  0
 12 36  1  0  0  0  0
 13 14  2  0  0  0  0
 13 37  1  0  0  0  0
 14 15  1  0  0  0  0
 14 38  1  0  0  0  0
 15 16  2  0  0  0  0
 15 39  1  0  0  0  0
 16 53  1  0  0  0  0
 17 18  1  0  0  0  0
 17 19  1  0  0  0  0
 17 40  1  0  0  0  0
 18 41  1  0  0  0  0
 18 42  1  0  0  0  0
 18 43  1  0  0  0  0
 19 44  1  0  0  0  0
 19 45  1  0  0  0  0
 19 46  1  0  0  0  0
 20 21  1  0  0  0  0
 20 47  1  0  0  0  0
 20 48  1  0  0  0  0
 21 22  1  0  0  0  0
 21 23  1  0  0  0  0
 21 49  1  0  0  0  0
 22 50  1  0  0  0  0
 22 51  1  0  0  0  0
 22 52  1  0  0  0  0
M  CHG  1  16   1
M  END
> <s_m_source_file>
AV-unprocessed.smi

> <i_m_source_file_index>
1762

> <i_lp_mmshare_version>
43012

> <i_f3d_flags>
0

> <s_epik_input>
W0NIM11bQ0BASF0xW0NIMl1OKFtDSDJdW0NASF0oTzEpW0NIM10pW0NAQEhdKFtDSF0oW0NIM10pW0NIM10pQyg9TylbTkhdW0NIMl1bQ0gyXWMyW2NIXVtjSF1bY0hdW2NIXW4y

> <s_epik_cmdline>
J2VwaWtfcHl0aG9uJywgJy1waCcsICc3LjAnLCAnLXRuJywgJzgnLCAnLW1hJywgJzIwMCcsICctbWV0YWxfYmluZGluZycsICctaW1hZScsICc8aW5maWxlLm1hZT4nLCAnLW9tYWUnLCAnPG91dGZpbGUubWFlPic=

> <r_epik_Ionization_Penalty>
1.86475

> <r_epik_Ionization_Penalty_Charging>
1.85347

> <r_epik_Ionization_Penalty_Neutral>
0.0112771

> <r_epik_State_Penalty>
1.99714

> <r_epik_Charging_Adjusted_Penalty>
3.85061

> <i_epik_Tot_Q>
1

> <i_epik_Tot_abs_Q>
1

> <r_epik_Metal_State_Penalty>
2.02271

> <b_epik_Metal_Only>
0

> <s_lp_Force_Field>
OPLS_2005

> <r_lp_Energy>
32.1869

> <b_lp_Chiralities_Consistent>
1

> <s_lp_Variant>
AV-unprocessed.smi:1762-10

> <Gold.Version>
5.8.1

> <Gold.Id.Protein>
6NUR|6NUR_protein|mol2

> <Gold.PLP.Fitness>
48.4630

> <Gold.PLP.PLP>
-41.2898

> <Gold.PLP.part.hbond>
-1.9440

> <Gold.PLP.part.metal>
0.0000

> <Gold.PLP.part.buried>
-4.8695

> <Gold.PLP.part.nonpolar>
-36.2845

> <Gold.PLP.part.repulsive>
0.4017

> <Gold.PLP.ligand.clash>
0.0431

> <Gold.PLP.ligand.torsion>
1.0533

> <Gold.PLP.Chemscore.Hbond>
3.0000

> <Gold.PLP.Chemscore.CHOScore>
0.0000

> <Gold.PLP.Chemscore.Metal>
0.0000

> <Gold.Chemscore.Hbonds>
donor molecule, donor type, donor heavy atom, donor atom, acceptor molecule, acceptor atom, score
      L1  H    16    53       P1  8028  1.85
      P1  H 10752 10765       L1    23  0.34

> <Gold.PLP.Chemscore.Internal.Correction>
0.3228

> <Gold.Rescore>
     Score         DG    S(hbond)    S(metal)    S(lipo)     H(rot)  DE(clash)    DE(int)     intcor
     18.98     -21.31       1.53        0.00     129.11       1.72       0.55       1.78       ----

> <Gold.Chemscore.Fitness>
18.9825

> <Gold.Chemscore.DG>
-21.3135

> <Gold.Chemscore.ZeroCoef>
-5.4800

> <Gold.Chemscore.Hbond>
1.5341

> <Gold.Chemscore.Metal>
0.0000

> <Gold.Chemscore.Lipo>
129.1131

> <Gold.Chemscore.Internal_Hbond>
0.0000

> <Gold.Chemscore.DEClash>
0.5464

> <Gold.Chemscore.DEInternal>
1.7846

> <Gold.Chemscore.Rot>
1.7174

> <Gold.Chemscore.Internal.Correction>
   9.000000E+99

> <Gold.Chemscore.Hbonds>
donor molecule, donor type, donor heavy atom, donor atom, acceptor molecule, acceptor atom, score
      L1  H    16    53       P1  8028  0.58
      P1  H 10752 10765       L1    23  0.01

> <Gold.Chemscore.Hbond.Weighted>
-5.1238

> <Gold.Chemscore.Metal.Weighted>
-0.0000

> <Gold.Chemscore.Lipo.Weighted>
-15.1062

> <Gold.Chemscore.Internal_Hbond.Weighted>
0.0000

> <Gold.Chemscore.DEClash.Weighted>
0.5464

> <Gold.Chemscore.DEInternal.Weighted>
1.7846

> <Gold.Chemscore.Rot.Weighted>
4.3966

> <Gold.Chemscore.Internal.Correction.Weighted>
   9.000000E+99

> <Gold.Protein.RotatedTorsions>
[ 6907 6896 6895 6894 ] final   27.54 input  -60.11 | X-H torsion
[ 7974 7965 7964 7962 ] final   56.89 input  175.53 | X-H torsion
[ 8008 7997 7996 7995 ] final  179.58 input   59.86 | X-H torsion
[ 10167 10162 10161 10158 ] final  -13.19 input  -65.29 | X-H torsion
[ 10718 10713 10712 10709 ] final -168.43 input   66.30 | X-H torsion
[ 10763 10752 10751 10750 ] final -159.40 input  -60.55 | X-H torsion
[ 11005 11000 10999 10996 ] final  -76.72 input  -57.11 | X-H torsion

> <Gold.Protein.ActiveResidues>
 VAL166  LYS551  ARG553  GLY616  TRP617  ASP618  TYR619  PRO620  LYS621  CYS622 
 ASP623  PHE694  ASN695  SER759  ASP760  ASP761  ALA762  ILE779  LEU786  VAL792 
 PHE793  MET794  SER795  GLU796  ALA797  LYS798  CYS799  TRP800  GLU811  SER814 

> <Gold.Protein.RotatedAtoms>
  152.0038  134.9914  160.0565 H   0  0  0  0  0  0  0  0  0  0  0  0  # atno 6907 bound_to 6896
  152.1494  133.4507  159.4814 H   0  0  0  0  0  0  0  0  0  0  0  0  # atno 6908 bound_to 6896
  150.6874  134.2126  159.4408 H   0  0  0  0  0  0  0  0  0  0  0  0  # atno 6909 bound_to 6896
  145.9350  139.3839  143.0398 H   0  0  0  0  0  0  0  0  0  0  0  0  # atno 7974 bound_to 7965
  156.0417  140.1305  157.0148 H   0  0  0  0  0  0  0  0  0  0  0  0  # atno 8008 bound_to 7997
  154.4394  140.1029  156.6318 H   0  0  0  0  0  0  0  0  0  0  0  0  # atno 8009 bound_to 7997
  155.5656  140.3465  155.4504 H   0  0  0  0  0  0  0  0  0  0  0  0  # atno 8010 bound_to 7997
  140.7177  143.5452  150.9363 H   0  0  0  0  0  0  0  0  0  0  0  0  # atno 10167 bound_to 10162
  156.6968  130.9181  151.3075 H   0  0  0  0  0  0  0  0  0  0  0  0  # atno 10718 bound_to 10713
  154.7478  135.3084  154.8613 H   0  0  0  0  0  0  0  0  0  0  0  0  # atno 10763 bound_to 10752
  153.9409  135.6775  153.4748 H   0  0  0  0  0  0  0  0  0  0  0  0  # atno 10764 bound_to 10752
  153.1074  135.4882  154.8903 H   0  0  0  0  0  0  0  0  0  0  0  0  # atno 10765 bound_to 10752
  141.1656  133.6994  156.7711 H   0  0  0  0  0  0  0  0  0  0  0  0  # atno 11005 bound_to 11000
  145.8376  140.9598  143.0816 LP  0  0  0  0  0  0  0  0  0  0  0  0  # atno 17320 bound_to 7965
  144.6770  140.0243  143.7483 LP  0  0  0  0  0  0  0  0  0  0  0  0  # atno 17321 bound_to 7965
  139.9176  143.6645  152.3103 LP  0  0  0  0  0  0  0  0  0  0  0  0  # atno 17342 bound_to 10162
  139.7050  144.7629  151.1208 LP  0  0  0  0  0  0  0  0  0  0  0  0  # atno 17343 bound_to 10162
  157.6988  130.9310  150.0723 LP  0  0  0  0  0  0  0  0  0  0  0  0  # atno 17370 bound_to 10713
  156.1757  130.3648  149.9103 LP  0  0  0  0  0  0  0  0  0  0  0  0  # atno 17371 bound_to 10713
  140.2463  134.8575  157.3624 LP  0  0  0  0  0  0  0  0  0  0  0  0  # atno 17394 bound_to 11000
  140.1746  134.4566  155.7810 LP  0  0  0  0  0  0  0  0  0  0  0  0  # atno 17395 bound_to 11000

$$$$
