AV-unprocessed.smi:2128|AV-procd|sdf|8681|dock6
  -GOLD-   2272011433D 1   1.00000     0.00000
 Structure written by MMmdl.
 50 52  0  0  0  0  0  0  0  0  1 V2000
  148.1974  128.7443  152.3615 O   0  0  0  0  0  0  0  0  0  0  0  0
  148.9371  129.0603  153.2907 C   0  0  0  0  0  0  0  0  0  0  0  0
  148.8905  130.4982  153.8398 C   0  0  0  0  0  0  0  0  0  0  0  0
  149.9180  130.8365  154.8362 N   0  0  0  0  0  0  0  0  0  0  0  0
  150.0524  132.2052  155.1793 C   0  0  0  0  0  0  0  0  0  0  0  0
  150.8591  132.6115  156.2721 C   0  0  0  0  0  0  0  0  0  0  0  0
  150.9655  133.9802  156.5856 C   0  0  0  0  0  0  0  0  0  0  0  0
  150.2675  134.9212  155.7952 C   0  0  0  0  0  0  0  0  0  0  0  0
  150.2781  136.3240  156.0221 N   0  0  0  0  0  0  0  0  0  0  0  0
  150.6001  136.9848  157.1470 C   0  0  0  0  0  0  0  0  0  0  0  0
  150.9623  136.4602  158.1999 O   0  0  0  0  0  0  0  0  0  0  0  0
  150.5059  138.3112  156.9720 N   0  0  0  0  0  0  0  0  0  0  0  0
  150.8398  139.3256  157.9690 C   0  0  0  0  0  0  0  0  0  0  0  0
  151.9007  140.3175  157.4522 C   0  0  0  0  0  0  0  0  0  0  0  0
  151.9841  141.6083  158.2534 C   0  0  0  0  0  0  0  0  0  0  0  0
  152.5581  141.6533  159.4717 C   0  0  0  0  0  0  0  0  0  0  0  0
  152.6861  142.9130  160.3092 C   0  0  0  0  0  0  0  0  0  0  0  0
  152.4237  144.1889  159.4920 C   0  0  0  0  0  0  0  0  0  0  0  0
  151.2065  144.0187  158.5747 C   0  0  0  0  0  0  0  0  0  0  0  0
  151.4039  142.8526  157.5898 C   0  0  0  0  0  0  0  0  0  0  0  0
  149.4805  134.4262  154.7380 C   0  0  0  0  0  0  0  0  0  0  0  0
  149.3784  133.1160  154.4337 N   0  0  0  0  0  0  0  0  0  0  0  0
  151.0833  129.9589  154.9795 C   0  0  0  0  0  0  0  0  0  0  0  0
  150.6669  128.4818  154.9608 C   0  0  0  0  0  0  0  0  0  0  0  0
  149.7963  128.1834  153.8324 N   0  0  0  0  0  0  0  0  0  0  0  0
  148.9577  131.1879  152.9968 H   0  0  0  0  0  0  0  0  0  0  0  0
  147.9046  130.6254  154.2873 H   0  0  0  0  0  0  0  0  0  0  0  0
  151.4026  131.9019  156.8767 H   0  0  0  0  0  0  0  0  0  0  0  0
  151.5677  134.2755  157.4305 H   0  0  0  0  0  0  0  0  0  0  0  0
  150.0822  136.8945  155.2127 H   0  0  0  0  0  0  0  0  0  0  0  0
  150.2009  138.6481  156.0705 H   0  0  0  0  0  0  0  0  0  0  0  0
  149.9261  139.8707  158.2061 H   0  0  0  0  0  0  0  0  0  0  0  0
  151.1613  138.8659  158.9046 H   0  0  0  0  0  0  0  0  0  0  0  0
  152.8760  139.8286  157.4583 H   0  0  0  0  0  0  0  0  0  0  0  0
  151.6967  140.5687  156.4108 H   0  0  0  0  0  0  0  0  0  0  0  0
  152.9456  140.7481  159.9161 H   0  0  0  0  0  0  0  0  0  0  0  0
  151.9756  142.8410  161.1333 H   0  0  0  0  0  0  0  0  0  0  0  0
  153.6823  142.9532  160.7504 H   0  0  0  0  0  0  0  0  0  0  0  0
  152.2803  145.0378  160.1610 H   0  0  0  0  0  0  0  0  0  0  0  0
  153.2997  144.4190  158.8842 H   0  0  0  0  0  0  0  0  0  0  0  0
  150.3218  143.8313  159.1851 H   0  0  0  0  0  0  0  0  0  0  0  0
  151.0127  144.9405  158.0260 H   0  0  0  0  0  0  0  0  0  0  0  0
  152.0805  143.1517  156.7886 H   0  0  0  0  0  0  0  0  0  0  0  0
  150.4489  142.6181  157.1206 H   0  0  0  0  0  0  0  0  0  0  0  0
  148.9167  135.1014  154.1107 H   0  0  0  0  0  0  0  0  0  0  0  0
  151.7822  130.1628  154.1665 H   0  0  0  0  0  0  0  0  0  0  0  0
  151.6099  130.1505  155.9155 H   0  0  0  0  0  0  0  0  0  0  0  0
  151.5464  127.8390  154.9193 H   0  0  0  0  0  0  0  0  0  0  0  0
  150.1333  128.2322  155.8790 H   0  0  0  0  0  0  0  0  0  0  0  0
  149.8273  127.2469  153.4561 H   0  0  0  0  0  0  0  0  0  0  0  0
  1  2  2  0  0  0  0
  2 25  1  0  0  0  0
  2  3  1  0  0  0  0
  3  4  1  0  0  0  0
  3 26  1  0  0  0  0
  3 27  1  0  0  0  0
  4  5  1  0  0  0  0
  4 23  1  0  0  0  0
  5 22  1  0  0  0  0
  5  6  2  0  0  0  0
  6  7  1  0  0  0  0
  6 28  1  0  0  0  0
  7  8  2  0  0  0  0
  7 29  1  0  0  0  0
  8  9  1  0  0  0  0
  8 21  1  0  0  0  0
  9 10  1  0  0  0  0
  9 30  1  0  0  0  0
 10 11  2  0  0  0  0
 10 12  1  0  0  0  0
 12 13  1  0  0  0  0
 12 31  1  0  0  0  0
 13 14  1  0  0  0  0
 13 32  1  0  0  0  0
 13 33  1  0  0  0  0
 14 15  1  0  0  0  0
 14 34  1  0  0  0  0
 14 35  1  0  0  0  0
 15 20  1  0  0  0  0
 15 16  2  0  0  0  0
 16 17  1  0  0  0  0
 16 36  1  0  0  0  0
 17 18  1  0  0  0  0
 17 37  1  0  0  0  0
 17 38  1  0  0  0  0
 18 19  1  0  0  0  0
 18 39  1  0  0  0  0
 18 40  1  0  0  0  0
 19 20  1  0  0  0  0
 19 41  1  0  0  0  0
 19 42  1  0  0  0  0
 20 43  1  0  0  0  0
 20 44  1  0  0  0  0
 21 22  2  0  0  0  0
 21 45  1  0  0  0  0
 23 24  1  0  0  0  0
 23 46  1  0  0  0  0
 23 47  1  0  0  0  0
 24 25  1  0  0  0  0
 24 48  1  0  0  0  0
 24 49  1  0  0  0  0
 25 50  1  0  0  0  0
M  END
> <s_m_source_file>
AV-unprocessed.smi

> <i_m_source_file_index>
2128

> <i_lp_mmshare_version>
43012

> <i_f3d_flags>
0

> <s_epik_input>
Tz1DMVtDSDJdTihbQ0gyXVtDSDJdW05IXTEpYzJbY0hdW2NIXWMoW2NIXW4yKVtOSF1DKD1PKVtOSF1bQ0gyXVtDSDJdQzM9W0NIXVtDSDJdW0NIMl1bQ0gyXVtDSDJdMw==

> <s_epik_cmdline>
J2VwaWtfcHl0aG9uJywgJy1waCcsICc3LjAnLCAnLXRuJywgJzgnLCAnLW1hJywgJzIwMCcsICctbWV0YWxfYmluZGluZycsICctaW1hZScsICc8aW5maWxlLm1hZT4nLCAnLW9tYWUnLCAnPG91dGZpbGUubWFlPic=

> <r_lp_tautomer_probability>
1

> <r_epik_Ionization_Penalty>
0.0211825

> <r_epik_Ionization_Penalty_Charging>
0

> <r_epik_Ionization_Penalty_Neutral>
0.0211825

> <r_epik_State_Penalty>
0.0169697

> <r_epik_Charging_Adjusted_Penalty>
0.0169697

> <i_epik_Tot_Q>
0

> <i_epik_Tot_abs_Q>
0

> <r_epik_Metal_State_Penalty>
0.0163833

> <b_epik_Metal_Only>
0

> <s_lp_Force_Field>
OPLS_2005

> <r_lp_Energy>
24.085

> <b_lp_Chiralities_Consistent>
1

> <s_lp_Variant>
AV-unprocessed.smi:2128-1

> <Gold.Version>
5.8.1

> <Gold.Id.Protein>
6NUR|6NUR_protein|mol2

> <Gold.PLP.Fitness>
47.5150

> <Gold.PLP.PLP>
-44.2988

> <Gold.PLP.part.hbond>
-2.0000

> <Gold.PLP.part.metal>
0.0000

> <Gold.PLP.part.buried>
-7.0750

> <Gold.PLP.part.nonpolar>
-36.4490

> <Gold.PLP.part.repulsive>
1.3661

> <Gold.PLP.ligand.clash>
0.0000

> <Gold.PLP.ligand.torsion>
0.6268

> <Gold.PLP.Chemscore.Hbond>
0.4368

> <Gold.PLP.Chemscore.CHOScore>
0.9915

> <Gold.PLP.Chemscore.Metal>
0.0000

> <Gold.Chemscore.Hbonds>
donor molecule, donor type, donor heavy atom, donor atom, acceptor molecule, acceptor atom, score
      P1  H  6896  6909       L1    11  0.50
      L1  C    21    45       P1  7948  1.00

> <Gold.PLP.Chemscore.Internal.Correction>
0.1849

> <Gold.Rescore>
     Score         DG    S(hbond)    S(metal)    S(lipo)     H(rot)  DE(clash)    DE(int)     intcor
     15.05     -16.80       0.81        0.00     104.57       1.41       0.01       1.74       ----

> <Gold.Chemscore.Fitness>
15.0505

> <Gold.Chemscore.DG>
-16.8042

> <Gold.Chemscore.ZeroCoef>
-5.4800

> <Gold.Chemscore.Hbond>
0.8070

> <Gold.Chemscore.Metal>
0.0000

> <Gold.Chemscore.Lipo>
104.5715

> <Gold.Chemscore.Internal_Hbond>
0.0000

> <Gold.Chemscore.DEClash>
0.0130

> <Gold.Chemscore.DEInternal>
1.7406

> <Gold.Chemscore.Rot>
1.4087

> <Gold.Chemscore.Internal.Correction>
   9.000000E+99

> <Gold.Chemscore.Hbonds>
donor molecule, donor type, donor heavy atom, donor atom, acceptor molecule, acceptor atom, score
      P1  H  6896  6909       L1    11  0.51

> <Gold.Chemscore.Hbond.Weighted>
-2.6955

> <Gold.Chemscore.Metal.Weighted>
-0.0000

> <Gold.Chemscore.Lipo.Weighted>
-12.2349

> <Gold.Chemscore.Internal_Hbond.Weighted>
0.0000

> <Gold.Chemscore.DEClash.Weighted>
0.0130

> <Gold.Chemscore.DEInternal.Weighted>
1.7406

> <Gold.Chemscore.Rot.Weighted>
3.6061

> <Gold.Chemscore.Internal.Correction.Weighted>
   9.000000E+99

> <Gold.Protein.RotatedTorsions>
[ 6907 6896 6895 6894 ] final   87.04 input  -60.11 | X-H torsion
[ 7974 7965 7964 7962 ] final  -42.23 input  175.53 | X-H torsion
[ 8008 7997 7996 7995 ] final   47.76 input   59.86 | X-H torsion
[ 10167 10162 10161 10158 ] final  139.29 input  -65.29 | X-H torsion
[ 10718 10713 10712 10709 ] final  110.01 input   66.30 | X-H torsion
[ 10763 10752 10751 10750 ] final   32.15 input  -60.55 | X-H torsion
[ 11005 11000 10999 10996 ] final -101.52 input  -57.11 | X-H torsion

> <Gold.Protein.ActiveResidues>
 VAL166  LYS551  ARG553  GLY616  TRP617  ASP618  TYR619  PRO620  LYS621  CYS622 
 ASP623  PHE694  ASN695  SER759  ASP760  ASP761  ALA762  ILE779  LEU786  VAL792 
 PHE793  MET794  SER795  GLU796  ALA797  LYS798  CYS799  TRP800  GLU811  SER814 

> <Gold.Protein.RotatedAtoms>
  152.5405  134.2337  159.8834 H   0  0  0  0  0  0  0  0  0  0  0  0  # atno 6907 bound_to 6896
  151.2308  133.4444  159.2611 H   0  0  0  0  0  0  0  0  0  0  0  0  # atno 6908 bound_to 6896
  151.0717  134.9816  159.8368 H   0  0  0  0  0  0  0  0  0  0  0  0  # atno 6909 bound_to 6896
  146.0136  140.6935  142.9212 H   0  0  0  0  0  0  0  0  0  0  0  0  # atno 7974 bound_to 7965
  155.3744  140.3425  155.4244 H   0  0  0  0  0  0  0  0  0  0  0  0  # atno 8008 bound_to 7997
  156.1645  140.1611  156.8589 H   0  0  0  0  0  0  0  0  0  0  0  0  # atno 8009 bound_to 7997
  154.5171  140.0776  156.8084 H   0  0  0  0  0  0  0  0  0  0  0  0  # atno 8010 bound_to 7997
  139.5083  144.6303  151.5834 H   0  0  0  0  0  0  0  0  0  0  0  0  # atno 10167 bound_to 10162
  157.6514  131.0925  150.6539 H   0  0  0  0  0  0  0  0  0  0  0  0  # atno 10718 bound_to 10713
  153.0277  135.6420  154.1310 H   0  0  0  0  0  0  0  0  0  0  0  0  # atno 10763 bound_to 10752
  154.1037  135.2858  155.3247 H   0  0  0  0  0  0  0  0  0  0  0  0  # atno 10764 bound_to 10752
  154.6380  135.5469  153.7820 H   0  0  0  0  0  0  0  0  0  0  0  0  # atno 10765 bound_to 10752
  141.1227  133.8484  157.1242 H   0  0  0  0  0  0  0  0  0  0  0  0  # atno 11005 bound_to 11000
  144.6962  140.3441  143.7194 LP  0  0  0  0  0  0  0  0  0  0  0  0  # atno 17320 bound_to 7965
  145.7304  139.1734  143.2433 LP  0  0  0  0  0  0  0  0  0  0  0  0  # atno 17321 bound_to 7965
  140.6034  143.9569  150.6401 LP  0  0  0  0  0  0  0  0  0  0  0  0  # atno 17342 bound_to 10162
  140.2788  143.3404  152.1170 LP  0  0  0  0  0  0  0  0  0  0  0  0  # atno 17343 bound_to 10162
  156.6850  130.4578  149.5616 LP  0  0  0  0  0  0  0  0  0  0  0  0  # atno 17370 bound_to 10713
  156.1902  130.6555  151.1052 LP  0  0  0  0  0  0  0  0  0  0  0  0  # atno 17371 bound_to 10713
  140.0199  134.9951  157.0569 LP  0  0  0  0  0  0  0  0  0  0  0  0  # atno 17394 bound_to 11000
  140.4458  134.1634  155.7177 LP  0  0  0  0  0  0  0  0  0  0  0  0  # atno 17395 bound_to 11000

$$$$
