AV-unprocessed.smi:203|AV-procd|sdf|1586|dock8
  -GOLD-   2262019483D 1   1.00000     0.00000
 Structure written by MMmdl.
 57 61  0  0  0  0  0  0  0  0  1 V2000
  156.9896  140.2543  161.6399 O   0  0  0  0  0  0  0  0  0  0  0  0
  155.9392  139.9629  161.0727 C   0  0  0  0  0  0  0  0  0  0  0  0
  154.5915  140.5552  161.4465 C   0  0  0  0  0  0  0  0  0  0  0  0
  153.6573  140.0753  160.3165 C   0  0  1  0  0  0  0  0  0  0  0  0
  153.1665  141.2067  159.3579 C   0  0  2  0  0  0  0  0  0  0  0  0
  152.9987  142.5723  160.0762 C   0  0  0  0  0  0  0  0  0  0  0  0
  152.5179  143.6665  159.1142 C   0  0  0  0  0  0  0  0  0  0  0  0
  151.2186  143.2266  158.4315 C   0  0  0  0  0  0  0  0  0  0  0  0
  151.4174  141.8791  157.7252 C   0  0  0  0  0  0  0  0  0  0  0  0
  151.9212  140.8622  158.6484 N   0  0  0  0  0  0  0  0  0  0  0  0
  151.8807  139.6405  158.0710 C   0  0  0  0  0  0  0  0  0  0  0  0
  152.9400  139.2835  157.3046 N   0  0  0  0  0  0  0  0  0  0  0  0
  152.9528  138.0926  156.6983 C   0  0  0  0  0  0  0  0  0  0  0  0
  152.0303  137.1278  156.7313 N   0  0  0  0  0  0  0  0  0  0  0  0
  150.9672  137.4840  157.5083 C   0  0  0  0  0  0  0  0  0  0  0  0
  150.8103  138.7121  158.2094 C   0  0  0  0  0  0  0  0  0  0  0  0
  149.5994  138.7184  158.8917 N   0  0  0  0  0  0  0  0  0  0  0  0
  149.0707  137.5586  158.6101 C   0  0  0  0  0  0  0  0  0  0  0  0
  149.8250  136.7546  157.7865 N   0  0  0  0  0  0  0  0  0  0  0  0
  149.4791  135.4239  157.3199 C   0  0  0  0  0  0  0  0  0  0  0  0
  149.2107  135.3862  155.8004 C   0  0  1  0  0  0  0  0  0  0  0  0
  150.3586  135.7921  155.0822 O   0  0  0  0  0  0  0  0  0  0  0  0
  148.7564  134.0109  155.2692 C   0  0  2  0  0  0  0  0  0  0  0  0
  149.7543  132.8737  155.5219 C   0  0  0  0  0  0  0  0  0  0  0  0
  149.6030  131.9603  154.3123 C   0  0  0  0  0  0  0  0  0  0  0  0
  148.5544  132.6556  153.4463 C   0  0  0  0  0  0  0  0  0  0  0  0
  148.6189  134.0115  153.8553 O   0  0  0  0  0  0  0  0  0  0  0  0
  154.4473  138.9620  159.5952 C   0  0  0  0  0  0  0  0  0  0  0  0
  155.8119  139.1021  160.0649 N   0  0  0  0  0  0  0  0  0  0  0  0
  154.2781  140.1532  162.4105 H   0  0  0  0  0  0  0  0  0  0  0  0
  154.6433  141.6406  161.5344 H   0  0  0  0  0  0  0  0  0  0  0  0
  152.7894  139.5926  160.7669 H   0  0  0  0  0  0  0  0  0  0  0  0
  153.9359  141.3416  158.5967 H   0  0  0  0  0  0  0  0  0  0  0  0
  152.2801  142.4857  160.8914 H   0  0  0  0  0  0  0  0  0  0  0  0
  153.9362  142.8909  160.5302 H   0  0  0  0  0  0  0  0  0  0  0  0
  152.3618  144.6009  159.6541 H   0  0  0  0  0  0  0  0  0  0  0  0
  153.2842  143.8613  158.3631 H   0  0  0  0  0  0  0  0  0  0  0  0
  150.4226  143.1401  159.1725 H   0  0  0  0  0  0  0  0  0  0  0  0
  150.8970  143.9814  157.7137 H   0  0  0  0  0  0  0  0  0  0  0  0
  150.4700  141.5531  157.2927 H   0  0  0  0  0  0  0  0  0  0  0  0
  152.1195  141.9990  156.8989 H   0  0  0  0  0  0  0  0  0  0  0  0
  153.8269  137.8828  156.0996 H   0  0  0  0  0  0  0  0  0  0  0  0
  148.1085  137.2551  158.9966 H   0  0  0  0  0  0  0  0  0  0  0  0
  150.2883  134.7425  157.5851 H   0  0  0  0  0  0  0  0  0  0  0  0
  148.6014  135.0907  157.8736 H   0  0  0  0  0  0  0  0  0  0  0  0
  148.4352  136.1148  155.5604 H   0  0  0  0  0  0  0  0  0  0  0  0
  151.1122  135.6885  155.6434 H   0  0  0  0  0  0  0  0  0  0  0  0
  147.7987  133.7317  155.7138 H   0  0  0  0  0  0  0  0  0  0  0  0
  150.7784  133.2437  155.5734 H   0  0  0  0  0  0  0  0  0  0  0  0
  149.5448  132.3584  156.4598 H   0  0  0  0  0  0  0  0  0  0  0  0
  150.5516  131.8900  153.7789 H   0  0  0  0  0  0  0  0  0  0  0  0
  149.2960  130.9502  154.5852 H   0  0  0  0  0  0  0  0  0  0  0  0
  148.7501  132.5477  152.3792 H   0  0  0  0  0  0  0  0  0  0  0  0
  147.5578  132.2625  153.6537 H   0  0  0  0  0  0  0  0  0  0  0  0
  154.0788  137.9767  159.8841 H   0  0  0  0  0  0  0  0  0  0  0  0
  154.3915  139.0266  158.5085 H   0  0  0  0  0  0  0  0  0  0  0  0
  156.5819  138.5918  159.6572 H   0  0  0  0  0  0  0  0  0  0  0  0
  1  2  2  0  0  0  0
  2 29  1  0  0  0  0
  2  3  1  0  0  0  0
  3  4  1  0  0  0  0
  3 30  1  0  0  0  0
  3 31  1  0  0  0  0
  4  5  1  0  0  0  0
  4 28  1  0  0  0  0
  4 32  1  0  0  0  0
  5 10  1  0  0  0  0
  5  6  1  0  0  0  0
  5 33  1  0  0  0  0
  6  7  1  0  0  0  0
  6 34  1  0  0  0  0
  6 35  1  0  0  0  0
  7  8  1  0  0  0  0
  7 36  1  0  0  0  0
  7 37  1  0  0  0  0
  8  9  1  0  0  0  0
  8 38  1  0  0  0  0
  8 39  1  0  0  0  0
  9 10  1  0  0  0  0
  9 40  1  0  0  0  0
  9 41  1  0  0  0  0
 10 11  1  0  0  0  0
 11 16  1  0  0  0  0
 11 12  2  0  0  0  0
 12 13  1  0  0  0  0
 13 14  2  0  0  0  0
 13 42  1  0  0  0  0
 14 15  1  0  0  0  0
 15 19  1  0  0  0  0
 15 16  2  0  0  0  0
 16 17  1  0  0  0  0
 17 18  2  0  0  0  0
 18 19  1  0  0  0  0
 18 43  1  0  0  0  0
 19 20  1  0  0  0  0
 20 21  1  0  0  0  0
 20 44  1  0  0  0  0
 20 45  1  0  0  0  0
 21 22  1  0  0  0  0
 21 23  1  0  0  0  0
 21 46  1  0  0  0  0
 22 47  1  0  0  0  0
 23 27  1  0  0  0  0
 23 24  1  0  0  0  0
 23 48  1  0  0  0  0
 24 25  1  0  0  0  0
 24 49  1  0  0  0  0
 24 50  1  0  0  0  0
 25 26  1  0  0  0  0
 25 51  1  0  0  0  0
 25 52  1  0  0  0  0
 26 27  1  0  0  0  0
 26 53  1  0  0  0  0
 26 54  1  0  0  0  0
 28 29  1  0  0  0  0
 28 55  1  0  0  0  0
 28 56  1  0  0  0  0
 29 57  1  0  0  0  0
M  END
> <s_m_source_file>
AV-unprocessed.smi

> <i_m_source_file_index>
203

> <i_lp_mmshare_version>
43012

> <i_f3d_flags>
0

> <s_epik_input>
Tz1DMVtDSDJdW0NASF0oW0NIMl1bTkhdMSlbQ0BASF0yW0NIMl1bQ0gyXVtDSDJdW0NIMl1OMmMobltjSF1uMyljKGMzNCluW2NIXW40W0NIMl1bQ0BIXShbT0hdKVtDQEBIXTVbQ0gyXVtDSDJdW0NIMl1PNQ==

> <s_epik_cmdline>
J2VwaWtfcHl0aG9uJywgJy1waCcsICc3LjAnLCAnLXRuJywgJzgnLCAnLW1hJywgJzIwMCcsICctbWV0YWxfYmluZGluZycsICctaW1hZScsICc8aW5maWxlLm1hZT4nLCAnLW9tYWUnLCAnPG91dGZpbGUubWFlPic=

> <r_lp_tautomer_probability>
1

> <r_epik_Ionization_Penalty>
0.00175146

> <r_epik_Ionization_Penalty_Charging>
0

> <r_epik_Ionization_Penalty_Neutral>
0.00175146

> <r_epik_State_Penalty>
0.00109045

> <r_epik_Charging_Adjusted_Penalty>
0.00109045

> <i_epik_Tot_Q>
0

> <i_epik_Tot_abs_Q>
0

> <r_epik_Metal_State_Penalty>
-0

> <b_epik_Metal_Only>
0

> <s_lp_Force_Field>
OPLS_2005

> <r_lp_Energy>
58.3664

> <b_lp_Chiralities_Consistent>
1

> <s_lp_Variant>
AV-unprocessed.smi:203-5

> <Gold.Version>
5.8.1

> <Gold.Id.Protein>
6NUR|6NUR_protein|mol2

> <Gold.PLP.Fitness>
43.2716

> <Gold.PLP.PLP>
-42.1794

> <Gold.PLP.part.hbond>
-2.9470

> <Gold.PLP.part.metal>
0.0000

> <Gold.PLP.part.buried>
-5.9441

> <Gold.PLP.part.nonpolar>
-33.5737

> <Gold.PLP.part.repulsive>
0.7359

> <Gold.PLP.ligand.clash>
0.0000

> <Gold.PLP.ligand.torsion>
1.1184

> <Gold.PLP.Chemscore.Hbond>
1.0000

> <Gold.PLP.Chemscore.CHOScore>
0.0000

> <Gold.PLP.Chemscore.Metal>
0.0000

> <Gold.Chemscore.Hbonds>
donor molecule, donor type, donor heavy atom, donor atom, acceptor molecule, acceptor atom, score
      P1  H  7997  8010       L1    12  1.00

> <Gold.PLP.Chemscore.Internal.Correction>
0.3289

> <Gold.Rescore>
     Score         DG    S(hbond)    S(metal)    S(lipo)     H(rot)  DE(clash)    DE(int)     intcor
      9.92     -13.64       0.91        0.00     103.34       2.72       0.01       3.70       ----

> <Gold.Chemscore.Fitness>
9.9194

> <Gold.Chemscore.DG>
-13.6380

> <Gold.Chemscore.ZeroCoef>
-5.4800

> <Gold.Chemscore.Hbond>
0.9052

> <Gold.Chemscore.Metal>
0.0000

> <Gold.Chemscore.Lipo>
103.3360

> <Gold.Chemscore.Internal_Hbond>
0.0000

> <Gold.Chemscore.DEClash>
0.0137

> <Gold.Chemscore.DEInternal>
3.7049

> <Gold.Chemscore.Rot>
2.7171

> <Gold.Chemscore.Internal.Correction>
   9.000000E+99

> <Gold.Chemscore.Hbonds>
donor molecule, donor type, donor heavy atom, donor atom, acceptor molecule, acceptor atom, score
      P1  H  7997  8010       L1    12  0.40

> <Gold.Chemscore.Hbond.Weighted>
-3.0234

> <Gold.Chemscore.Metal.Weighted>
-0.0000

> <Gold.Chemscore.Lipo.Weighted>
-12.0903

> <Gold.Chemscore.Internal_Hbond.Weighted>
0.0000

> <Gold.Chemscore.DEClash.Weighted>
0.0137

> <Gold.Chemscore.DEInternal.Weighted>
3.7049

> <Gold.Chemscore.Rot.Weighted>
6.9557

> <Gold.Chemscore.Internal.Correction.Weighted>
   9.000000E+99

> <Gold.Protein.RotatedTorsions>
[ 6907 6896 6895 6894 ] final -121.25 input  -60.11 | X-H torsion
[ 7974 7965 7964 7962 ] final  -93.14 input  175.53 | X-H torsion
[ 8008 7997 7996 7995 ] final   60.99 input   59.86 | X-H torsion
[ 10167 10162 10161 10158 ] final   -8.71 input  -65.29 | X-H torsion
[ 10718 10713 10712 10709 ] final  -58.52 input   66.30 | X-H torsion
[ 10763 10752 10751 10750 ] final -140.14 input  -60.55 | X-H torsion
[ 11005 11000 10999 10996 ] final  -49.25 input  -57.11 | X-H torsion

> <Gold.Protein.ActiveResidues>
 VAL166  LYS551  ARG553  GLY616  TRP617  ASP618  TYR619  PRO620  LYS621  CYS622 
 ASP623  PHE694  ASN695  SER759  ASP760  ASP761  ALA762  ILE779  LEU786  VAL792 
 PHE793  MET794  SER795  GLU796  ALA797  LYS798  CYS799  TRP800  GLU811  SER814 

> <Gold.Protein.RotatedAtoms>
  150.8466  133.7852  159.3040 H   0  0  0  0  0  0  0  0  0  0  0  0  # atno 6907 bound_to 6896
  151.5537  135.1065  159.9965 H   0  0  0  0  0  0  0  0  0  0  0  0  # atno 6908 bound_to 6896
  152.4518  133.7602  159.6798 H   0  0  0  0  0  0  0  0  0  0  0  0  # atno 6909 bound_to 6896
  145.3905  140.9527  143.2343 H   0  0  0  0  0  0  0  0  0  0  0  0  # atno 7974 bound_to 7965
  155.5912  140.3493  155.4567 H   0  0  0  0  0  0  0  0  0  0  0  0  # atno 8008 bound_to 7997
  156.0299  140.1272  157.0293 H   0  0  0  0  0  0  0  0  0  0  0  0  # atno 8009 bound_to 7997
  154.4348  140.1045  156.6071 H   0  0  0  0  0  0  0  0  0  0  0  0  # atno 8010 bound_to 7997
  140.7067  143.5938  150.8867 H   0  0  0  0  0  0  0  0  0  0  0  0  # atno 10167 bound_to 10162
  156.1129  130.4173  150.0589 H   0  0  0  0  0  0  0  0  0  0  0  0  # atno 10718 bound_to 10713
  154.8588  135.3562  154.5659 H   0  0  0  0  0  0  0  0  0  0  0  0  # atno 10763 bound_to 10752
  153.6273  135.7003  153.5293 H   0  0  0  0  0  0  0  0  0  0  0  0  # atno 10764 bound_to 10752
  153.3079  135.4187  155.1270 H   0  0  0  0  0  0  0  0  0  0  0  0  # atno 10765 bound_to 10752
  141.0748  133.6669  156.3558 H   0  0  0  0  0  0  0  0  0  0  0  0  # atno 11005 bound_to 11000
  144.8444  139.5421  143.6885 LP  0  0  0  0  0  0  0  0  0  0  0  0  # atno 17320 bound_to 7965
  146.2800  139.6852  142.9236 LP  0  0  0  0  0  0  0  0  0  0  0  0  # atno 17321 bound_to 7965
  139.9663  143.6107  152.2987 LP  0  0  0  0  0  0  0  0  0  0  0  0  # atno 17342 bound_to 10162
  139.6677  144.7662  151.1841 LP  0  0  0  0  0  0  0  0  0  0  0  0  # atno 17343 bound_to 10162
  156.8548  130.9471  151.3623 LP  0  0  0  0  0  0  0  0  0  0  0  0  # atno 17370 bound_to 10713
  157.6311  130.8730  149.9275 LP  0  0  0  0  0  0  0  0  0  0  0  0  # atno 17371 bound_to 10713
  140.5596  134.5947  157.5430 LP  0  0  0  0  0  0  0  0  0  0  0  0  # atno 17394 bound_to 11000
  139.9561  134.7533  156.0340 LP  0  0  0  0  0  0  0  0  0  0  0  0  # atno 17395 bound_to 11000

$$$$
