AV-unprocessed.smi:560|AV-procd|sdf|2931|dock7
  -GOLD-   2262023423D 1   1.00000     0.00000
 Structure written by MMmdl.
 42 43  0  0  0  0  0  0  0  0  2 V2000
  149.6840  140.7719  158.4864 C   0  0  0  0  0  0  0  0  0  0  0  0
  151.0166  141.1827  157.8274 C   0  0  1  0  0  0  0  0  0  0  0  0
  151.1497  140.6756  156.3820 C   0  0  0  0  0  0  0  0  0  0  0  0
  152.2171  140.7701  155.7753 O   0  0  0  0  0  0  0  0  0  0  0  0
  150.0452  140.1392  155.8381 N   0  0  0  0  0  0  0  0  0  0  0  0
  149.9523  139.5737  154.4929 C   0  0  2  0  0  0  0  0  0  0  0  0
  148.6682  138.7413  154.3049 C   0  0  0  0  0  0  0  0  0  0  0  0
  148.7127  137.4284  155.1050 C   0  0  0  0  0  0  0  0  0  0  0  0
  149.9113  136.6245  154.7457 N   0  3  2  0  0  0  0  0  0  0  0  0
  149.9261  135.2831  155.3846 C   0  0  0  0  0  0  0  0  0  0  0  0
  148.6490  134.4791  155.1190 C   0  0  0  0  0  0  0  0  0  0  0  0
  148.2646  134.3613  153.8461 N   0  0  0  0  0  0  0  0  0  0  0  0
  148.0098  133.9834  156.0451 O   0  0  0  0  0  0  0  0  0  0  0  0
  151.1674  137.3805  154.9840 C   0  0  0  0  0  0  0  0  0  0  0  0
  151.1839  138.7016  154.1923 C   0  0  0  0  0  0  0  0  0  0  0  0
  151.2350  142.6239  157.8828 N   0  0  0  0  0  0  0  0  0  0  0  0
  152.2331  143.3063  158.5486 C   0  0  0  0  0  0  0  0  0  0  0  0
  152.0664  144.6362  158.2883 C   0  0  0  0  0  0  0  0  0  0  0  0
  150.9302  144.6730  157.4334 C   0  0  0  0  0  0  0  0  0  0  0  0
  150.4408  143.4694  157.1856 N   0  0  0  0  0  0  0  0  0  0  0  0
  149.5651  139.6879  158.4903 H   0  0  0  0  0  0  0  0  0  0  0  0
  148.8220  141.1959  157.9693 H   0  0  0  0  0  0  0  0  0  0  0  0
  149.6439  141.1077  159.5228 H   0  0  0  0  0  0  0  0  0  0  0  0
  151.8156  140.7152  158.4048 H   0  0  0  0  0  0  0  0  0  0  0  0
  149.2155  140.0939  156.4112 H   0  0  0  0  0  0  0  0  0  0  0  0
  149.9428  140.4022  153.7821 H   0  0  0  0  0  0  0  0  0  0  0  0
  147.7874  139.3201  154.5846 H   0  0  0  0  0  0  0  0  0  0  0  0
  148.5476  138.5067  153.2464 H   0  0  0  0  0  0  0  0  0  0  0  0
  148.7190  137.6382  156.1758 H   0  0  0  0  0  0  0  0  0  0  0  0
  147.8042  136.8600  154.9039 H   0  0  0  0  0  0  0  0  0  0  0  0
  150.7526  134.6946  154.9843 H   0  0  0  0  0  0  0  0  0  0  0  0
  150.1016  135.3816  156.4572 H   0  0  0  0  0  0  0  0  0  0  0  0
  147.4328  133.8390  153.6111 H   0  0  0  0  0  0  0  0  0  0  0  0
  148.8127  134.7943  153.1161 H   0  0  0  0  0  0  0  0  0  0  0  0
  151.2800  137.5737  156.0520 H   0  0  0  0  0  0  0  0  0  0  0  0
  152.0228  136.7758  154.6811 H   0  0  0  0  0  0  0  0  0  0  0  0
  151.2071  138.4746  153.1254 H   0  0  0  0  0  0  0  0  0  0  0  0
  152.1001  139.2548  154.4031 H   0  0  0  0  0  0  0  0  0  0  0  0
  152.9722  142.7944  159.1469 H   0  0  0  0  0  0  0  0  0  0  0  0
  152.6664  145.4577  158.6503 H   0  0  0  0  0  0  0  0  0  0  0  0
  150.4525  145.5314  156.9848 H   0  0  0  0  0  0  0  0  0  0  0  0
  149.8653  136.4574  153.7501 H   0  0  0  0  0  0  0  0  0  0  0  0
  1  2  1  0  0  0  0
  1 21  1  0  0  0  0
  1 22  1  0  0  0  0
  1 23  1  0  0  0  0
  2  3  1  0  0  0  0
  2 16  1  0  0  0  0
  2 24  1  0  0  0  0
  3  4  2  0  0  0  0
  3  5  1  0  0  0  0
  5  6  1  0  0  0  0
  5 25  1  0  0  0  0
  6 15  1  0  0  0  0
  6  7  1  0  0  0  0
  6 26  1  0  0  0  0
  7  8  1  0  0  0  0
  7 27  1  0  0  0  0
  7 28  1  0  0  0  0
  8  9  1  0  0  0  0
  8 29  1  0  0  0  0
  8 30  1  0  0  0  0
  9 10  1  0  0  0  0
  9 14  1  0  0  0  0
  9 42  1  0  0  0  0
 10 11  1  0  0  0  0
 10 31  1  0  0  0  0
 10 32  1  0  0  0  0
 11 12  1  0  0  0  0
 11 13  2  0  0  0  0
 12 33  1  0  0  0  0
 12 34  1  0  0  0  0
 14 15  1  0  0  0  0
 14 35  1  0  0  0  0
 14 36  1  0  0  0  0
 15 37  1  0  0  0  0
 15 38  1  0  0  0  0
 16 20  1  0  0  0  0
 16 17  1  0  0  0  0
 17 18  2  0  0  0  0
 17 39  1  0  0  0  0
 18 19  1  0  0  0  0
 18 40  1  0  0  0  0
 19 20  2  0  0  0  0
 19 41  1  0  0  0  0
M  CHG  1   9   1
M  END
> <s_m_source_file>
AV-unprocessed.smi

> <i_m_source_file_index>
560

> <i_lp_mmshare_version>
43012

> <i_f3d_flags>
0

> <s_epik_input>
bjFbY0hdW2NIXVtjSF1uMVtDQEhdKFtDSDNdKUMoPU8pW05IXVtDSF0yW0NIMl1bQ0gyXU4oW0NIMl1bQ0gyXTIpW0NIMl1DKD1PKVtOSDJd

> <s_epik_cmdline>
J2VwaWtfcHl0aG9uJywgJy1waCcsICc3LjAnLCAnLXRuJywgJzgnLCAnLW1hJywgJzIwMCcsICctbWV0YWxfYmluZGluZycsICctaW1hZScsICc8aW5maWxlLm1hZT4nLCAnLW9tYWUnLCAnPG91dGZpbGUubWFlPic=

> <r_lp_tautomer_probability>
1

> <r_epik_Ionization_Penalty>
1.02943

> <r_epik_Ionization_Penalty_Charging>
1.02936

> <r_epik_Ionization_Penalty_Neutral>
7.4537e-05

> <r_epik_State_Penalty>
1.08036

> <r_epik_Charging_Adjusted_Penalty>
2.10972

> <i_epik_Tot_Q>
1

> <i_epik_Tot_abs_Q>
1

> <r_epik_Metal_State_Penalty>
1.09347

> <b_epik_Metal_Only>
0

> <s_lp_Force_Field>
OPLS_2005

> <r_lp_Energy>
15.8217

> <b_lp_Chiralities_Consistent>
1

> <s_lp_Variant>
AV-unprocessed.smi:560-6

> <Gold.Version>
5.8.1

> <Gold.Id.Protein>
6NUR|6NUR_protein|mol2

> <Gold.PLP.Fitness>
43.8628

> <Gold.PLP.PLP>
-32.6694

> <Gold.PLP.part.hbond>
-3.0000

> <Gold.PLP.part.metal>
0.0000

> <Gold.PLP.part.buried>
-1.1442

> <Gold.PLP.part.nonpolar>
-28.3564

> <Gold.PLP.part.repulsive>
0.4102

> <Gold.PLP.ligand.clash>
0.1223

> <Gold.PLP.ligand.torsion>
0.3943

> <Gold.PLP.Chemscore.Hbond>
3.9920

> <Gold.PLP.Chemscore.CHOScore>
0.0000

> <Gold.PLP.Chemscore.Metal>
0.0000

> <Gold.Chemscore.Hbonds>
donor molecule, donor type, donor heavy atom, donor atom, acceptor molecule, acceptor atom, score
      L1  H     9    42       P1  7948  1.79
      L1  H    12    34       P1  7948  0.93
      P1  H  7989  7998       L1     4  0.12
      P1  H  7997  8010       L1     4  0.19
      L1  C    19    41       P1  8028  0.33

> <Gold.PLP.Chemscore.Internal.Correction>
0.1282

> <Gold.Rescore>
     Score         DG    S(hbond)    S(metal)    S(lipo)     H(rot)  DE(clash)    DE(int)     intcor
     17.39     -18.01       2.98        0.00      77.20       2.52       0.45       0.17       ----

> <Gold.Chemscore.Fitness>
17.3862

> <Gold.Chemscore.DG>
-18.0091

> <Gold.Chemscore.ZeroCoef>
-5.4800

> <Gold.Chemscore.Hbond>
2.9818

> <Gold.Chemscore.Metal>
0.0000

> <Gold.Chemscore.Lipo>
77.1963

> <Gold.Chemscore.Internal_Hbond>
0.0000

> <Gold.Chemscore.DEClash>
0.4503

> <Gold.Chemscore.DEInternal>
0.1725

> <Gold.Chemscore.Rot>
2.5243

> <Gold.Chemscore.Internal.Correction>
   9.000000E+99

> <Gold.Chemscore.Hbonds>
donor molecule, donor type, donor heavy atom, donor atom, acceptor molecule, acceptor atom, score
      L1  H     9    42       P1  7948  0.26
      L1  H    12    34       P1  7948  0.20
      P1  H  7989  7998       L1     4  0.07
      P1  H  7997  8010       L1     4  0.19

> <Gold.Chemscore.Hbond.Weighted>
-9.9593

> <Gold.Chemscore.Metal.Weighted>
-0.0000

> <Gold.Chemscore.Lipo.Weighted>
-9.0320

> <Gold.Chemscore.Internal_Hbond.Weighted>
0.0000

> <Gold.Chemscore.DEClash.Weighted>
0.4503

> <Gold.Chemscore.DEInternal.Weighted>
0.1725

> <Gold.Chemscore.Rot.Weighted>
6.4622

> <Gold.Chemscore.Internal.Correction.Weighted>
   9.000000E+99

> <Gold.Protein.RotatedTorsions>
[ 6907 6896 6895 6894 ] final  141.31 input  -60.11 | X-H torsion
[ 7974 7965 7964 7962 ] final  125.68 input  175.53 | X-H torsion
[ 8008 7997 7996 7995 ] final   69.04 input   59.86 | X-H torsion
[ 10167 10162 10161 10158 ] final  106.28 input  -65.29 | X-H torsion
[ 10718 10713 10712 10709 ] final -130.28 input   66.30 | X-H torsion
[ 10763 10752 10751 10750 ] final -156.57 input  -60.55 | X-H torsion
[ 11005 11000 10999 10996 ] final -165.13 input  -57.11 | X-H torsion

> <Gold.Protein.ActiveResidues>
 VAL166  LYS551  ARG553  GLY616  TRP617  ASP618  TYR619  PRO620  LYS621  CYS622 
 ASP623  PHE694  ASN695  SER759  ASP760  ASP761  ALA762  ILE779  LEU786  VAL792 
 PHE793  MET794  SER795  GLU796  ALA797  LYS798  CYS799  TRP800  GLU811  SER814 

> <Gold.Protein.RotatedAtoms>
  152.2325  133.5070  159.5223 H   0  0  0  0  0  0  0  0  0  0  0  0  # atno 6907 bound_to 6896
  150.7041  134.1197  159.4039 H   0  0  0  0  0  0  0  0  0  0  0  0  # atno 6908 bound_to 6896
  151.9118  135.0335  160.0566 H   0  0  0  0  0  0  0  0  0  0  0  0  # atno 6909 bound_to 6896
  145.0702  139.3736  143.4961 H   0  0  0  0  0  0  0  0  0  0  0  0  # atno 7974 bound_to 7965
  155.7176  140.3493  155.5001 H   0  0  0  0  0  0  0  0  0  0  0  0  # atno 8008 bound_to 7997
  155.9299  140.1082  157.1162 H   0  0  0  0  0  0  0  0  0  0  0  0  # atno 8009 bound_to 7997
  154.4083  140.1233  156.4776 H   0  0  0  0  0  0  0  0  0  0  0  0  # atno 8010 bound_to 7997
  139.7022  144.7092  151.1167 H   0  0  0  0  0  0  0  0  0  0  0  0  # atno 10167 bound_to 10162
  156.2129  130.6930  151.0670 H   0  0  0  0  0  0  0  0  0  0  0  0  # atno 10718 bound_to 10713
  154.7702  135.3143  154.8204 H   0  0  0  0  0  0  0  0  0  0  0  0  # atno 10763 bound_to 10752
  153.8942  135.6822  153.4763 H   0  0  0  0  0  0  0  0  0  0  0  0  # atno 10764 bound_to 10752
  153.1315  135.4778  154.9290 H   0  0  0  0  0  0  0  0  0  0  0  0  # atno 10765 bound_to 10752
  140.5792  134.5159  157.5175 H   0  0  0  0  0  0  0  0  0  0  0  0  # atno 11005 bound_to 11000
  146.3528  140.0443  142.8640 LP  0  0  0  0  0  0  0  0  0  0  0  0  # atno 17320 bound_to 7965
  145.1302  140.9513  143.4549 LP  0  0  0  0  0  0  0  0  0  0  0  0  # atno 17321 bound_to 7965
  140.7712  143.5408  150.9315 LP  0  0  0  0  0  0  0  0  0  0  0  0  # atno 17342 bound_to 10162
  139.9090  143.6743  152.3118 LP  0  0  0  0  0  0  0  0  0  0  0  0  # atno 17343 bound_to 10162
  157.7048  131.0761  150.6703 LP  0  0  0  0  0  0  0  0  0  0  0  0  # atno 17370 bound_to 10713
  156.6763  130.4554  149.5641 LP  0  0  0  0  0  0  0  0  0  0  0  0  # atno 17371 bound_to 10713
  139.9325  134.7936  156.0891 LP  0  0  0  0  0  0  0  0  0  0  0  0  # atno 17394 bound_to 11000
  141.1007  133.6678  156.2748 LP  0  0  0  0  0  0  0  0  0  0  0  0  # atno 17395 bound_to 11000

$$$$
