AV-unprocessed.smi:2399|AV-procd|sdf|9500|dock4
  -GOLD-   2272013133D 1   1.00000     0.00000
 Structure written by MMmdl.
 53 55  0  0  0  0  0  0  0  0  2 V2000
  154.2113  138.9887  159.5185 C   0  0  0  0  0  0  0  0  0  0  0  0
  153.3892  139.7779  158.6717 O   0  0  0  0  0  0  0  0  0  0  0  0
  152.8884  140.9656  159.1685 C   0  0  0  0  0  0  0  0  0  0  0  0
  153.4334  141.6383  160.2918 C   0  0  0  0  0  0  0  0  0  0  0  0
  152.8543  142.8443  160.7228 C   0  0  0  0  0  0  0  0  0  0  0  0
  151.7449  143.3393  160.0147 C   0  0  0  0  0  0  0  0  0  0  0  0
  151.0724  144.6331  160.4221 C   0  0  0  0  0  0  0  0  0  0  0  0
  151.2192  142.7100  158.9445 N   0  0  0  0  0  0  0  0  0  0  0  0
  151.7691  141.5462  158.5180 C   0  0  0  0  0  0  0  0  0  0  0  0
  151.2715  140.8231  157.3990 N   0  0  0  0  0  0  0  0  0  0  0  0
  150.0695  140.9235  156.8053 C   0  0  0  0  0  0  0  0  0  0  0  0
  149.1679  141.6918  157.1415 O   0  0  0  0  0  0  0  0  0  0  0  0
  149.9687  140.0759  155.7710 N   0  0  0  0  0  0  0  0  0  0  0  0
  148.8062  139.9515  154.8966 C   0  0  2  0  0  0  0  0  0  0  0  0
  148.5882  141.2679  154.1302 C   0  0  0  0  0  0  0  0  0  0  0  0
  147.2917  141.2233  153.2990 C   0  0  0  0  0  0  0  0  0  0  0  0
  146.1016  140.9075  154.1370 N   0  3  2  0  0  0  0  0  0  0  0  0
  145.6544  142.0250  155.0223 C   0  0  0  0  0  0  0  0  0  0  0  0
  144.3292  141.7485  155.7452 C   0  0  0  0  0  0  0  0  0  0  0  0
  143.8230  143.1269  156.1773 C   0  0  0  0  0  0  0  0  0  0  0  0
  144.4152  144.1283  155.1767 C   0  0  0  0  0  0  0  0  0  0  0  0
  145.3442  143.3225  154.2613 C   0  0  0  0  0  0  0  0  0  0  0  0
  146.2868  139.6032  154.8308 C   0  0  0  0  0  0  0  0  0  0  0  0
  147.5491  139.5931  155.7131 C   0  0  0  0  0  0  0  0  0  0  0  0
  154.5259  138.0941  158.9814 H   0  0  0  0  0  0  0  0  0  0  0  0
  153.6719  138.6654  160.4097 H   0  0  0  0  0  0  0  0  0  0  0  0
  155.1119  139.5277  159.8157 H   0  0  0  0  0  0  0  0  0  0  0  0
  154.2851  141.2544  160.8322 H   0  0  0  0  0  0  0  0  0  0  0  0
  153.2551  143.3729  161.5753 H   0  0  0  0  0  0  0  0  0  0  0  0
  151.4165  144.9647  161.4022 H   0  0  0  0  0  0  0  0  0  0  0  0
  149.9906  144.5047  160.4690 H   0  0  0  0  0  0  0  0  0  0  0  0
  151.2943  145.4173  159.6983 H   0  0  0  0  0  0  0  0  0  0  0  0
  151.9172  140.1582  156.9991 H   0  0  0  0  0  0  0  0  0  0  0  0
  150.7584  139.4803  155.5680 H   0  0  0  0  0  0  0  0  0  0  0  0
  148.9891  139.1615  154.1655 H   0  0  0  0  0  0  0  0  0  0  0  0
  148.5536  142.1077  154.8253 H   0  0  0  0  0  0  0  0  0  0  0  0
  149.4372  141.4560  153.4717 H   0  0  0  0  0  0  0  0  0  0  0  0
  147.1556  142.1561  152.7534 H   0  0  0  0  0  0  0  0  0  0  0  0
  147.3835  140.4505  152.5344 H   0  0  0  0  0  0  0  0  0  0  0  0
  146.4170  142.2370  155.7726 H   0  0  0  0  0  0  0  0  0  0  0  0
  143.6129  141.2983  155.0559 H   0  0  0  0  0  0  0  0  0  0  0  0
  144.4410  141.0772  156.5972 H   0  0  0  0  0  0  0  0  0  0  0  0
  142.7337  143.1679  156.2064 H   0  0  0  0  0  0  0  0  0  0  0  0
  144.1852  143.3560  157.1805 H   0  0  0  0  0  0  0  0  0  0  0  0
  143.6379  144.6302  154.5995 H   0  0  0  0  0  0  0  0  0  0  0  0
  144.9745  144.8994  155.7082 H   0  0  0  0  0  0  0  0  0  0  0  0
  146.2423  143.8851  154.0040 H   0  0  0  0  0  0  0  0  0  0  0  0
  144.8200  143.0928  153.3323 H   0  0  0  0  0  0  0  0  0  0  0  0
  145.4080  139.3367  155.4162 H   0  0  0  0  0  0  0  0  0  0  0  0
  146.3765  138.8246  154.0721 H   0  0  0  0  0  0  0  0  0  0  0  0
  147.6669  138.6067  156.1630 H   0  0  0  0  0  0  0  0  0  0  0  0
  147.4282  140.2908  156.5426 H   0  0  0  0  0  0  0  0  0  0  0  0
  145.3387  140.7675  153.4897 H   0  0  0  0  0  0  0  0  0  0  0  0
  1  2  1  0  0  0  0
  1 25  1  0  0  0  0
  1 26  1  0  0  0  0
  1 27  1  0  0  0  0
  2  3  1  0  0  0  0
  3  9  1  0  0  0  0
  3  4  2  0  0  0  0
  4  5  1  0  0  0  0
  4 28  1  0  0  0  0
  5  6  2  0  0  0  0
  5 29  1  0  0  0  0
  6  7  1  0  0  0  0
  6  8  1  0  0  0  0
  7 30  1  0  0  0  0
  7 31  1  0  0  0  0
  7 32  1  0  0  0  0
  8  9  2  0  0  0  0
  9 10  1  0  0  0  0
 10 11  1  0  0  0  0
 10 33  1  0  0  0  0
 11 12  2  0  0  0  0
 11 13  1  0  0  0  0
 13 14  1  0  0  0  0
 13 34  1  0  0  0  0
 14 24  1  0  0  0  0
 14 15  1  0  0  0  0
 14 35  1  0  0  0  0
 15 16  1  0  0  0  0
 15 36  1  0  0  0  0
 15 37  1  0  0  0  0
 16 17  1  0  0  0  0
 16 38  1  0  0  0  0
 16 39  1  0  0  0  0
 17 18  1  0  0  0  0
 17 23  1  0  0  0  0
 17 53  1  0  0  0  0
 18 22  1  0  0  0  0
 18 19  1  0  0  0  0
 18 40  1  0  0  0  0
 19 20  1  0  0  0  0
 19 41  1  0  0  0  0
 19 42  1  0  0  0  0
 20 21  1  0  0  0  0
 20 43  1  0  0  0  0
 20 44  1  0  0  0  0
 21 22  1  0  0  0  0
 21 45  1  0  0  0  0
 21 46  1  0  0  0  0
 22 47  1  0  0  0  0
 22 48  1  0  0  0  0
 23 24  1  0  0  0  0
 23 49  1  0  0  0  0
 23 50  1  0  0  0  0
 24 51  1  0  0  0  0
 24 52  1  0  0  0  0
M  CHG  1  17   1
M  END
> <s_m_source_file>
AV-unprocessed.smi

> <i_m_source_file_index>
2399

> <i_lp_mmshare_version>
43012

> <i_f3d_flags>
0

> <s_epik_input>
W0NIM11PYzFbY0hdW2NIXWMoW0NIM10pbmMxW05IXUMoPU8pW05IXVtDSF0yW0NIMl1bQ0gyXU4oW0NIMl1bQ0gyXTIpW0NIXTNbQ0gyXVtDSDJdW0NIMl1bQ0gyXTM=

> <s_epik_cmdline>
J2VwaWtfcHl0aG9uJywgJy1waCcsICc3LjAnLCAnLXRuJywgJzgnLCAnLW1hJywgJzIwMCcsICctbWV0YWxfYmluZGluZycsICctaW1hZScsICc8aW5maWxlLm1hZT4nLCAnLW9tYWUnLCAnPG91dGZpbGUubWFlPic=

> <r_lp_tautomer_probability>
1

> <r_epik_Ionization_Penalty>
0.00183805

> <r_epik_Ionization_Penalty_Charging>
0.00179121

> <r_epik_Ionization_Penalty_Neutral>
4.68398e-05

> <r_epik_State_Penalty>
0.00121448

> <r_epik_Charging_Adjusted_Penalty>
0.0030057

> <i_epik_Tot_Q>
1

> <i_epik_Tot_abs_Q>
1

> <r_epik_Metal_State_Penalty>
-0

> <b_epik_Metal_Only>
0

> <s_lp_Force_Field>
OPLS_2005

> <r_lp_Energy>
44.4335

> <b_lp_Chiralities_Consistent>
1

> <s_lp_Variant>
AV-unprocessed.smi:2399-2

> <Gold.Version>
5.8.1

> <Gold.Id.Protein>
6NUR|6NUR_protein|mol2

> <Gold.PLP.Fitness>
49.9081

> <Gold.PLP.PLP>
-41.5997

> <Gold.PLP.part.hbond>
-2.0000

> <Gold.PLP.part.metal>
0.0000

> <Gold.PLP.part.buried>
-6.3866

> <Gold.PLP.part.nonpolar>
-33.0713

> <Gold.PLP.part.repulsive>
0.3050

> <Gold.PLP.ligand.clash>
0.0000

> <Gold.PLP.ligand.torsion>
0.3732

> <Gold.PLP.Chemscore.Hbond>
3.0000

> <Gold.PLP.Chemscore.CHOScore>
0.0000

> <Gold.PLP.Chemscore.Metal>
0.0000

> <Gold.Chemscore.Hbonds>
donor molecule, donor type, donor heavy atom, donor atom, acceptor molecule, acceptor atom, score
      L1  H    17    53       P1 10175  2.00
      P1  H  7997  8010       L1     2  0.83

> <Gold.PLP.Chemscore.Internal.Correction>
0.0549

> <Gold.Rescore>
     Score         DG    S(hbond)    S(metal)    S(lipo)     H(rot)  DE(clash)    DE(int)     intcor
     16.93     -20.07       1.57        0.00     110.29       1.38       0.25       2.89       ----

> <Gold.Chemscore.Fitness>
16.9310

> <Gold.Chemscore.DG>
-20.0742

> <Gold.Chemscore.ZeroCoef>
-5.4800

> <Gold.Chemscore.Hbond>
1.5660

> <Gold.Chemscore.Metal>
0.0000

> <Gold.Chemscore.Lipo>
110.2890

> <Gold.Chemscore.Internal_Hbond>
0.0000

> <Gold.Chemscore.DEClash>
0.2531

> <Gold.Chemscore.DEInternal>
2.8900

> <Gold.Chemscore.Rot>
1.3828

> <Gold.Chemscore.Internal.Correction>
   9.000000E+99

> <Gold.Chemscore.Hbonds>
donor molecule, donor type, donor heavy atom, donor atom, acceptor molecule, acceptor atom, score
      L1  H    17    53       P1 10175  0.87
      P1  H  7997  8010       L1     2  0.11

> <Gold.Chemscore.Hbond.Weighted>
-5.2303

> <Gold.Chemscore.Metal.Weighted>
-0.0000

> <Gold.Chemscore.Lipo.Weighted>
-12.9038

> <Gold.Chemscore.Internal_Hbond.Weighted>
0.0000

> <Gold.Chemscore.DEClash.Weighted>
0.2531

> <Gold.Chemscore.DEInternal.Weighted>
2.8900

> <Gold.Chemscore.Rot.Weighted>
3.5399

> <Gold.Chemscore.Internal.Correction.Weighted>
   9.000000E+99

> <Gold.Protein.RotatedTorsions>
[ 6907 6896 6895 6894 ] final -148.16 input  -60.11 | X-H torsion
[ 7974 7965 7964 7962 ] final    5.19 input  175.53 | X-H torsion
[ 8008 7997 7996 7995 ] final   21.99 input   59.86 | X-H torsion
[ 10167 10162 10161 10158 ] final  -73.35 input  -65.29 | X-H torsion
[ 10718 10713 10712 10709 ] final   56.59 input   66.30 | X-H torsion
[ 10763 10752 10751 10750 ] final -121.46 input  -60.55 | X-H torsion
[ 11005 11000 10999 10996 ] final -179.15 input  -57.11 | X-H torsion

> <Gold.Protein.ActiveResidues>
 VAL166  LYS551  ARG553  GLY616  TRP617  ASP618  TYR619  PRO620  LYS621  CYS622 
 ASP623  PHE694  ASN695  SER759  ASP760  ASP761  ALA762  ILE779  LEU786  VAL792 
 PHE793  MET794  SER795  GLU796  ALA797  LYS798  CYS799  TRP800  GLU811  SER814 

> <Gold.Protein.RotatedAtoms>
  151.1658  133.4815  159.2593 H   0  0  0  0  0  0  0  0  0  0  0  0  # atno 6907 bound_to 6896
  151.1406  135.0177  159.8634 H   0  0  0  0  0  0  0  0  0  0  0  0  # atno 6908 bound_to 6896
  152.5462  134.1552  159.8588 H   0  0  0  0  0  0  0  0  0  0  0  0  # atno 6909 bound_to 6896
  146.2441  140.0421  142.8381 H   0  0  0  0  0  0  0  0  0  0  0  0  # atno 7974 bound_to 7965
  154.9589  140.3075  155.5040 H   0  0  0  0  0  0  0  0  0  0  0  0  # atno 8008 bound_to 7997
  156.2979  140.2305  156.4611 H   0  0  0  0  0  0  0  0  0  0  0  0  # atno 8009 bound_to 7997
  154.7983  140.0435  157.1242 H   0  0  0  0  0  0  0  0  0  0  0  0  # atno 8010 bound_to 7997
  140.5117  143.2344  151.7581 H   0  0  0  0  0  0  0  0  0  0  0  0  # atno 10167 bound_to 10162
  157.5443  130.8720  149.8869 H   0  0  0  0  0  0  0  0  0  0  0  0  # atno 10718 bound_to 10713
  154.8669  135.4167  154.2625 H   0  0  0  0  0  0  0  0  0  0  0  0  # atno 10763 bound_to 10752
  153.3550  135.7000  153.6763 H   0  0  0  0  0  0  0  0  0  0  0  0  # atno 10764 bound_to 10752
  153.5688  135.3595  155.2801 H   0  0  0  0  0  0  0  0  0  0  0  0  # atno 10765 bound_to 10752
  140.4219  134.6598  157.4668 H   0  0  0  0  0  0  0  0  0  0  0  0  # atno 11005 bound_to 11000
  145.1060  140.9375  143.4684 LP  0  0  0  0  0  0  0  0  0  0  0  0  # atno 17320 bound_to 7965
  145.0624  139.3095  143.5873 LP  0  0  0  0  0  0  0  0  0  0  0  0  # atno 17321 bound_to 7965
  139.4898  144.4381  151.9796 LP  0  0  0  0  0  0  0  0  0  0  0  0  # atno 17342 bound_to 10162
  140.3473  144.3131  150.5955 LP  0  0  0  0  0  0  0  0  0  0  0  0  # atno 17343 bound_to 10162
  156.0523  130.3715  150.1173 LP  0  0  0  0  0  0  0  0  0  0  0  0  # atno 17370 bound_to 10713
  156.9350  130.9726  151.3526 LP  0  0  0  0  0  0  0  0  0  0  0  0  # atno 17371 bound_to 10713
  140.0194  134.6570  155.9261 LP  0  0  0  0  0  0  0  0  0  0  0  0  # atno 17394 bound_to 11000
  141.1781  133.6542  156.4907 LP  0  0  0  0  0  0  0  0  0  0  0  0  # atno 17395 bound_to 11000

$$$$
