AV-unprocessed.smi:2339|AV-procd|sdf|9340|dock3
  -GOLD-   2272012563D 1   1.00000     0.00000
 Structure written by MMmdl.
 49 52  0  0  0  0  0  0  0  0  1 V2000
  148.5751  131.1904  161.3467 C   0  0  0  0  0  0  0  0  0  0  0  0
  147.7456  132.0755  160.4099 C   0  0  0  0  0  0  0  0  0  0  0  0
  147.7823  133.4735  160.8149 N   0  0  0  0  0  0  0  0  0  0  0  0
  147.3477  133.8720  162.0746 C   0  0  0  0  0  0  0  0  0  0  0  0
  147.2953  135.1541  162.4839 C   0  0  0  0  0  0  0  0  0  0  0  0
  147.7141  136.2265  161.5592 C   0  0  0  0  0  0  0  0  0  0  0  0
  147.6779  137.4083  161.9012 O   0  0  0  0  0  0  0  0  0  0  0  0
  148.1752  135.8014  160.2110 C   0  0  0  0  0  0  0  0  0  0  0  0
  148.5806  136.8290  159.3437 N   0  0  0  0  0  0  0  0  0  0  0  0
  149.8038  137.3640  159.1531 C   0  0  0  0  0  0  0  0  0  0  0  0
  150.8372  136.9971  159.7075 O   0  0  0  0  0  0  0  0  0  0  0  0
  149.8179  138.3816  158.2753 N   0  0  0  0  0  0  0  0  0  0  0  0
  150.9683  139.1762  157.8438 C   0  0  2  0  0  0  0  0  0  0  0  0
  151.2166  140.3697  158.7670 C   0  0  1  0  0  0  0  0  0  0  0  0
  152.2866  140.7324  159.7338 C   0  0  0  0  0  0  0  0  0  0  0  0
  152.4993  142.2000  159.2770 C   0  0  0  0  0  0  0  0  0  0  0  0
  151.7602  142.3415  158.0394 O   0  0  0  0  0  0  0  0  0  0  0  0
  151.7346  141.0324  157.5077 C   0  0  2  0  0  0  0  0  0  0  0  0
  150.6379  140.2619  156.7475 C   0  0  0  0  0  0  0  0  0  0  0  0
  149.2310  140.8731  156.6540 C   0  0  0  0  0  0  0  0  0  0  0  0
  148.5137  140.1637  155.5069 C   0  0  0  0  0  0  0  0  0  0  0  0
  149.6167  139.7449  154.5353 C   0  0  0  0  0  0  0  0  0  0  0  0
  150.9414  139.9070  155.2914 C   0  0  0  0  0  0  0  0  0  0  0  0
  148.1799  134.4732  159.9296 C   0  0  0  0  0  0  0  0  0  0  0  0
  148.5350  130.1480  161.0304 H   0  0  0  0  0  0  0  0  0  0  0  0
  148.2030  131.2427  162.3702 H   0  0  0  0  0  0  0  0  0  0  0  0
  149.6217  131.4963  161.3531 H   0  0  0  0  0  0  0  0  0  0  0  0
  148.1159  131.9831  159.3881 H   0  0  0  0  0  0  0  0  0  0  0  0
  146.7117  131.7289  160.3924 H   0  0  0  0  0  0  0  0  0  0  0  0
  147.0532  133.0588  162.7222 H   0  0  0  0  0  0  0  0  0  0  0  0
  146.9537  135.4164  163.4744 H   0  0  0  0  0  0  0  0  0  0  0  0
  147.8329  137.2318  158.7977 H   0  0  0  0  0  0  0  0  0  0  0  0
  148.9321  138.6302  157.8592 H   0  0  0  0  0  0  0  0  0  0  0  0
  151.8731  138.5927  157.6491 H   0  0  0  0  0  0  0  0  0  0  0  0
  150.2661  140.7957  159.1019 H   0  0  0  0  0  0  0  0  0  0  0  0
  151.9630  140.6592  160.7722 H   0  0  0  0  0  0  0  0  0  0  0  0
  153.1836  140.1272  159.5955 H   0  0  0  0  0  0  0  0  0  0  0  0
  152.1229  142.9139  160.0101 H   0  0  0  0  0  0  0  0  0  0  0  0
  153.5580  142.4066  159.1148 H   0  0  0  0  0  0  0  0  0  0  0  0
  152.7411  140.7110  157.2160 H   0  0  0  0  0  0  0  0  0  0  0  0
  148.6536  140.7911  157.5745 H   0  0  0  0  0  0  0  0  0  0  0  0
  149.3081  141.9373  156.4275 H   0  0  0  0  0  0  0  0  0  0  0  0
  148.0049  139.2766  155.8850 H   0  0  0  0  0  0  0  0  0  0  0  0
  147.7602  140.7956  155.0357 H   0  0  0  0  0  0  0  0  0  0  0  0
  149.4700  138.7170  154.2016 H   0  0  0  0  0  0  0  0  0  0  0  0
  149.6112  140.3785  153.6478 H   0  0  0  0  0  0  0  0  0  0  0  0
  151.5229  140.7041  154.8267 H   0  0  0  0  0  0  0  0  0  0  0  0
  151.5469  139.0044  155.2143 H   0  0  0  0  0  0  0  0  0  0  0  0
  148.5082  134.0723  158.9844 H   0  0  0  0  0  0  0  0  0  0  0  0
  1  2  1  0  0  0  0
  1 25  1  0  0  0  0
  1 26  1  0  0  0  0
  1 27  1  0  0  0  0
  2  3  1  0  0  0  0
  2 28  1  0  0  0  0
  2 29  1  0  0  0  0
  3 24  1  0  0  0  0
  3  4  1  0  0  0  0
  4  5  2  0  0  0  0
  4 30  1  0  0  0  0
  5  6  1  0  0  0  0
  5 31  1  0  0  0  0
  6  7  2  0  0  0  0
  6  8  1  0  0  0  0
  8  9  1  0  0  0  0
  8 24  2  0  0  0  0
  9 10  1  0  0  0  0
  9 32  1  0  0  0  0
 10 11  2  0  0  0  0
 10 12  1  0  0  0  0
 12 13  1  0  0  0  0
 12 33  1  0  0  0  0
 13 19  1  0  0  0  0
 13 14  1  0  0  0  0
 13 34  1  0  0  0  0
 14 18  1  0  0  0  0
 14 15  1  0  0  0  0
 14 35  1  0  0  0  0
 15 16  1  0  0  0  0
 15 36  1  0  0  0  0
 15 37  1  0  0  0  0
 16 17  1  0  0  0  0
 16 38  1  0  0  0  0
 16 39  1  0  0  0  0
 17 18  1  0  0  0  0
 18 19  1  0  0  0  0
 18 40  1  0  0  0  0
 19 23  1  0  0  0  0
 19 20  1  0  0  0  0
 20 21  1  0  0  0  0
 20 41  1  0  0  0  0
 20 42  1  0  0  0  0
 21 22  1  0  0  0  0
 21 43  1  0  0  0  0
 21 44  1  0  0  0  0
 22 23  1  0  0  0  0
 22 45  1  0  0  0  0
 22 46  1  0  0  0  0
 23 47  1  0  0  0  0
 23 48  1  0  0  0  0
 24 49  1  0  0  0  0
M  END
> <s_m_source_file>
AV-unprocessed.smi

> <i_m_source_file_index>
2339

> <i_lp_mmshare_version>
43012

> <i_f3d_flags>
0

> <s_epik_input>
W0NIM11bQ0gyXW4xW2NIXVtjSF1jKD1PKWMoW2NIXTEpW05IXUMoPU8pW05IXVtDQEBIXTJbQ0BASF0oW0NIMl1bQ0gyXU8zKVtDQEBIXTNDMjRbQ0gyXVtDSDJdW0NIMl1bQ0gyXTQ=

> <s_epik_cmdline>
J2VwaWtfcHl0aG9uJywgJy1waCcsICc3LjAnLCAnLXRuJywgJzgnLCAnLW1hJywgJzIwMCcsICctbWV0YWxfYmluZGluZycsICctaW1hZScsICc8aW5maWxlLm1hZT4nLCAnLW9tYWUnLCAnPG91dGZpbGUubWFlPic=

> <r_lp_tautomer_probability>
1

> <r_epik_Ionization_Penalty>
0.00145966

> <r_epik_Ionization_Penalty_Charging>
0.00143969

> <r_epik_Ionization_Penalty_Neutral>
1.99697e-05

> <r_epik_State_Penalty>
0.000961843

> <r_epik_Charging_Adjusted_Penalty>
0.00240153

> <i_epik_Tot_Q>
0

> <i_epik_Tot_abs_Q>
0

> <r_epik_Metal_State_Penalty>
-0

> <b_epik_Metal_Only>
0

> <s_lp_Force_Field>
OPLS_2005

> <r_lp_Energy>
78.6194

> <b_lp_Chiralities_Consistent>
1

> <s_lp_Variant>
AV-unprocessed.smi:2339-5

> <Gold.Version>
5.8.1

> <Gold.Id.Protein>
6NUR|6NUR_protein|mol2

> <Gold.PLP.Fitness>
46.8358

> <Gold.PLP.PLP>
-41.2229

> <Gold.PLP.part.hbond>
-2.6825

> <Gold.PLP.part.metal>
0.0000

> <Gold.PLP.part.buried>
-3.0328

> <Gold.PLP.part.nonpolar>
-35.6242

> <Gold.PLP.part.repulsive>
0.3662

> <Gold.PLP.ligand.clash>
0.0000

> <Gold.PLP.ligand.torsion>
0.9508

> <Gold.PLP.Chemscore.Hbond>
2.4080

> <Gold.PLP.Chemscore.CHOScore>
0.0000

> <Gold.PLP.Chemscore.Metal>
0.0000

> <Gold.Chemscore.Hbonds>
donor molecule, donor type, donor heavy atom, donor atom, acceptor molecule, acceptor atom, score
      P1  H  6896  6909       L1    11  1.00
      P1  H  6931  6943       L1     7  0.90
      P1  H  6934  6947       L1     7  0.59

> <Gold.PLP.Chemscore.Internal.Correction>
0.2905

> <Gold.Rescore>
     Score         DG    S(hbond)    S(metal)    S(lipo)     H(rot)  DE(clash)    DE(int)     intcor
     21.29     -22.29       2.66        0.00      93.37       1.17       0.05       0.95       ----

> <Gold.Chemscore.Fitness>
21.2909

> <Gold.Chemscore.DG>
-22.2870

> <Gold.Chemscore.ZeroCoef>
-5.4800

> <Gold.Chemscore.Hbond>
2.6558

> <Gold.Chemscore.Metal>
0.0000

> <Gold.Chemscore.Lipo>
93.3692

> <Gold.Chemscore.Internal_Hbond>
0.0000

> <Gold.Chemscore.DEClash>
0.0465

> <Gold.Chemscore.DEInternal>
0.9496

> <Gold.Chemscore.Rot>
1.1670

> <Gold.Chemscore.Internal.Correction>
   9.000000E+99

> <Gold.Chemscore.Hbonds>
donor molecule, donor type, donor heavy atom, donor atom, acceptor molecule, acceptor atom, score
      P1  H  6896  6909       L1    11  0.96
      P1  H  6931  6943       L1     7  0.84
      P1  H  6934  6947       L1     7  0.60

> <Gold.Chemscore.Hbond.Weighted>
-8.8703

> <Gold.Chemscore.Metal.Weighted>
-0.0000

> <Gold.Chemscore.Lipo.Weighted>
-10.9242

> <Gold.Chemscore.Internal_Hbond.Weighted>
0.0000

> <Gold.Chemscore.DEClash.Weighted>
0.0465

> <Gold.Chemscore.DEInternal.Weighted>
0.9496

> <Gold.Chemscore.Rot.Weighted>
2.9874

> <Gold.Chemscore.Internal.Correction.Weighted>
   9.000000E+99

> <Gold.Protein.RotatedTorsions>
[ 6907 6896 6895 6894 ] final   96.83 input  -60.11 | X-H torsion
[ 7974 7965 7964 7962 ] final -101.38 input  175.53 | X-H torsion
[ 8008 7997 7996 7995 ] final    8.14 input   59.86 | X-H torsion
[ 10167 10162 10161 10158 ] final  128.57 input  -65.29 | X-H torsion
[ 10718 10713 10712 10709 ] final  -21.23 input   66.30 | X-H torsion
[ 10763 10752 10751 10750 ] final  -66.59 input  -60.55 | X-H torsion
[ 11005 11000 10999 10996 ] final  -77.22 input  -57.11 | X-H torsion

> <Gold.Protein.ActiveResidues>
 VAL166  LYS551  ARG553  GLY616  TRP617  ASP618  TYR619  PRO620  LYS621  CYS622 
 ASP623  PHE694  ASN695  SER759  ASP760  ASP761  ALA762  ILE779  LEU786  VAL792 
 PHE793  MET794  SER795  GLU796  ALA797  LYS798  CYS799  TRP800  GLU811  SER814 

> <Gold.Protein.RotatedAtoms>
  152.5430  134.0826  159.8241 H   0  0  0  0  0  0  0  0  0  0  0  0  # atno 6907 bound_to 6896
  151.0926  133.5297  159.2621 H   0  0  0  0  0  0  0  0  0  0  0  0  # atno 6908 bound_to 6896
  151.2082  135.0479  159.8954 H   0  0  0  0  0  0  0  0  0  0  0  0  # atno 6909 bound_to 6896
  145.2824  140.9330  143.2924 H   0  0  0  0  0  0  0  0  0  0  0  0  # atno 7974 bound_to 7965
  154.7630  140.2788  155.6199 H   0  0  0  0  0  0  0  0  0  0  0  0  # atno 8008 bound_to 7997
  156.2919  140.2656  156.2340 H   0  0  0  0  0  0  0  0  0  0  0  0  # atno 8009 bound_to 7997
  154.9994  140.0373  157.2343 H   0  0  0  0  0  0  0  0  0  0  0  0  # atno 8010 bound_to 7997
  139.5520  144.6821  151.4294 H   0  0  0  0  0  0  0  0  0  0  0  0  # atno 10167 bound_to 10162
  156.5210  130.4632  149.6597 H   0  0  0  0  0  0  0  0  0  0  0  0  # atno 10718 bound_to 10713
  154.3621  135.6114  153.5696 H   0  0  0  0  0  0  0  0  0  0  0  0  # atno 10763 bound_to 10752
  152.9793  135.5817  154.4621 H   0  0  0  0  0  0  0  0  0  0  0  0  # atno 10764 bound_to 10752
  154.4361  135.2849  155.1857 H   0  0  0  0  0  0  0  0  0  0  0  0  # atno 10765 bound_to 10752
  141.1659  133.7014  156.7788 H   0  0  0  0  0  0  0  0  0  0  0  0  # atno 11005 bound_to 11000
  144.9242  139.4375  143.6526 LP  0  0  0  0  0  0  0  0  0  0  0  0  # atno 17320 bound_to 7965
  146.3212  139.8118  142.8944 LP  0  0  0  0  0  0  0  0  0  0  0  0  # atno 17321 bound_to 7965
  140.6785  143.8135  150.7090 LP  0  0  0  0  0  0  0  0  0  0  0  0  # atno 17342 bound_to 10162
  140.1581  143.4299  152.2086 LP  0  0  0  0  0  0  0  0  0  0  0  0  # atno 17343 bound_to 10162
  156.3149  130.7249  151.2150 LP  0  0  0  0  0  0  0  0  0  0  0  0  # atno 17370 bound_to 10713
  157.7437  131.0471  150.4927 LP  0  0  0  0  0  0  0  0  0  0  0  0  # atno 17371 bound_to 10713
  140.2410  134.8614  157.3573 LP  0  0  0  0  0  0  0  0  0  0  0  0  # atno 17394 bound_to 11000
  140.1796  134.4506  155.7780 LP  0  0  0  0  0  0  0  0  0  0  0  0  # atno 17395 bound_to 11000

$$$$
