AV-unprocessed.smi:2872|AV-procd|sdf|11035|dock4
  -GOLD-   2272015503D 1   1.00000     0.00000
 Structure written by MMmdl.
 40 42  0  0  0  0  0  0  0  0  2 V2000
  150.7051  133.8449  155.8543 O   0  0  0  0  0  0  0  0  0  0  0  0
  150.6810  134.3841  154.7492 C   0  0  0  0  0  0  0  0  0  0  0  0
  150.1997  133.8080  153.6384 N   0  0  0  0  0  0  0  0  0  0  0  0
  149.5864  132.4842  153.5822 C   0  0  0  0  0  0  0  0  0  0  0  0
  148.2835  132.4352  152.8406 C   0  0  0  0  0  0  0  0  0  0  0  0
  147.6916  133.4513  152.1472 N   0  3  0  0  0  0  0  0  0  0  0  0
  146.4842  133.0151  151.6012 C   0  0  0  0  0  0  0  0  0  0  0  0
  145.5387  133.6813  150.8275 C   0  0  0  0  0  0  0  0  0  0  0  0
  144.4052  132.9389  150.4354 C   0  0  0  0  0  0  0  0  0  0  0  0
  144.2446  131.5896  150.8131 C   0  0  0  0  0  0  0  0  0  0  0  0
  145.2114  130.9244  151.5958 C   0  0  0  0  0  0  0  0  0  0  0  0
  146.3292  131.6657  151.9772 C   0  0  0  0  0  0  0  0  0  0  0  0
  147.4637  131.3504  152.7325 N   0  0  0  0  0  0  0  0  0  0  0  0
  147.6099  129.9934  153.2735 C   0  0  0  0  0  0  0  0  0  0  0  0
  148.9739  129.3831  152.9306 C   0  0  0  0  0  0  0  0  0  0  0  0
  148.9153  127.9867  153.1822 O   0  0  0  0  0  0  0  0  0  0  0  0
  148.4950  127.1578  152.1644 C   0  0  0  0  0  0  0  0  0  0  0  0
  148.4471  125.7763  152.4439 C   0  0  0  0  0  0  0  0  0  0  0  0
  148.0292  124.8560  151.4634 C   0  0  0  0  0  0  0  0  0  0  0  0
  147.6531  125.3116  150.1864 C   0  0  0  0  0  0  0  0  0  0  0  0
  147.6966  126.6871  149.8930 C   0  0  0  0  0  0  0  0  0  0  0  0
  148.1145  127.6077  150.8743 C   0  0  0  0  0  0  0  0  0  0  0  0
  151.0527  135.3985  154.5376 H   0  0  0  0  0  0  0  0  0  0  0  0
  150.2296  134.3355  152.7777 H   0  0  0  0  0  0  0  0  0  0  0  0
  150.2771  131.7665  153.1364 H   0  0  0  0  0  0  0  0  0  0  0  0
  149.4153  132.1521  154.6065 H   0  0  0  0  0  0  0  0  0  0  0  0
  145.6595  134.7149  150.5380 H   0  0  0  0  0  0  0  0  0  0  0  0
  143.6434  133.4138  149.8341 H   0  0  0  0  0  0  0  0  0  0  0  0
  143.3620  131.0531  150.4960 H   0  0  0  0  0  0  0  0  0  0  0  0
  145.0790  129.8911  151.8809 H   0  0  0  0  0  0  0  0  0  0  0  0
  147.4514  130.0237  154.3521 H   0  0  0  0  0  0  0  0  0  0  0  0
  146.8086  129.3800  152.8602 H   0  0  0  0  0  0  0  0  0  0  0  0
  149.2074  129.5681  151.8807 H   0  0  0  0  0  0  0  0  0  0  0  0
  149.7521  129.8438  153.5408 H   0  0  0  0  0  0  0  0  0  0  0  0
  148.7345  125.4180  153.4216 H   0  0  0  0  0  0  0  0  0  0  0  0
  147.9972  123.8009  151.6918 H   0  0  0  0  0  0  0  0  0  0  0  0
  147.3323  124.6072  149.4331 H   0  0  0  0  0  0  0  0  0  0  0  0
  147.4086  127.0378  148.9129 H   0  0  0  0  0  0  0  0  0  0  0  0
  148.1343  128.6542  150.6110 H   0  0  0  0  0  0  0  0  0  0  0  0
  148.0928  134.3757  152.0536 H   0  0  0  0  0  0  0  0  0  0  0  0
  1  2  2  0  0  0  0
  2  3  1  0  0  0  0
  2 23  1  0  0  0  0
  3  4  1  0  0  0  0
  3 24  1  0  0  0  0
  4  5  1  0  0  0  0
  4 25  1  0  0  0  0
  4 26  1  0  0  0  0
  5 13  1  0  0  0  0
  5  6  2  0  0  0  0
  6  7  1  0  0  0  0
  6 40  1  0  0  0  0
  7 12  2  0  0  0  0
  7  8  1  0  0  0  0
  8  9  2  0  0  0  0
  8 27  1  0  0  0  0
  9 10  1  0  0  0  0
  9 28  1  0  0  0  0
 10 11  2  0  0  0  0
 10 29  1  0  0  0  0
 11 12  1  0  0  0  0
 11 30  1  0  0  0  0
 12 13  1  0  0  0  0
 13 14  1  0  0  0  0
 14 15  1  0  0  0  0
 14 31  1  0  0  0  0
 14 32  1  0  0  0  0
 15 16  1  0  0  0  0
 15 33  1  0  0  0  0
 15 34  1  0  0  0  0
 16 17  1  0  0  0  0
 17 22  1  0  0  0  0
 17 18  2  0  0  0  0
 18 19  1  0  0  0  0
 18 35  1  0  0  0  0
 19 20  2  0  0  0  0
 19 36  1  0  0  0  0
 20 21  1  0  0  0  0
 20 37  1  0  0  0  0
 21 22  2  0  0  0  0
 21 38  1  0  0  0  0
 22 39  1  0  0  0  0
M  CHG  1   6   1
M  END
> <s_m_source_file>
AV-unprocessed.smi

> <i_m_source_file_index>
2872

> <i_lp_mmshare_version>
43012

> <i_f3d_flags>
0

> <s_epik_input>
Tz1bQ0hdW05IXVtDSDJdYyhuMSluKGMoYzEyKVtjSF1bY0hdW2NIXVtjSF0yKVtDSDJdW0NIMl1PYzNbY0hdW2NIXVtjSF1bY0hdW2NIXTM=

> <s_epik_cmdline>
J2VwaWtfcHl0aG9uJywgJy1waCcsICc3LjAnLCAnLXRuJywgJzgnLCAnLW1hJywgJzIwMCcsICctbWV0YWxfYmluZGluZycsICctaW1hZScsICc8aW5maWxlLm1hZT4nLCAnLW9tYWUnLCAnPG91dGZpbGUubWFlPic=

> <r_lp_tautomer_probability>
1

> <r_epik_Ionization_Penalty>
1.33318

> <r_epik_Ionization_Penalty_Charging>
1.33318

> <r_epik_Ionization_Penalty_Neutral>
7.38905e-08

> <r_epik_State_Penalty>
1.40978

> <r_epik_Charging_Adjusted_Penalty>
2.74296

> <i_epik_Tot_Q>
1

> <i_epik_Tot_abs_Q>
1

> <r_epik_Metal_State_Penalty>
1.46995

> <b_epik_Metal_Only>
0

> <s_lp_Force_Field>
OPLS_2005

> <r_lp_Energy>
15.6009

> <b_lp_Chiralities_Consistent>
1

> <s_lp_Variant>
AV-unprocessed.smi:2872-2

> <Gold.Version>
5.8.1

> <Gold.Id.Protein>
6NUR|6NUR_protein|mol2

> <Gold.PLP.Fitness>
50.1420

> <Gold.PLP.PLP>
-44.8004

> <Gold.PLP.part.hbond>
-2.0069

> <Gold.PLP.part.metal>
0.0000

> <Gold.PLP.part.buried>
-5.6898

> <Gold.PLP.part.nonpolar>
-36.0546

> <Gold.PLP.part.repulsive>
0.1725

> <Gold.PLP.ligand.clash>
0.0000

> <Gold.PLP.ligand.torsion>
0.3948

> <Gold.PLP.Chemscore.Hbond>
2.0000

> <Gold.PLP.Chemscore.CHOScore>
0.0000

> <Gold.PLP.Chemscore.Metal>
0.0000

> <Gold.Chemscore.Hbonds>
donor molecule, donor type, donor heavy atom, donor atom, acceptor molecule, acceptor atom, score
      L1  H     6    40       P1  7948  1.40

> <Gold.PLP.Chemscore.Internal.Correction>
0.1311

> <Gold.Rescore>
     Score         DG    S(hbond)    S(metal)    S(lipo)     H(rot)  DE(clash)    DE(int)     intcor
     13.38     -14.07       0.79        0.00     105.32       2.49       0.19       0.50       ----

> <Gold.Chemscore.Fitness>
13.3830

> <Gold.Chemscore.DG>
-14.0654

> <Gold.Chemscore.ZeroCoef>
-5.4800

> <Gold.Chemscore.Hbond>
0.7862

> <Gold.Chemscore.Metal>
0.0000

> <Gold.Chemscore.Lipo>
105.3184

> <Gold.Chemscore.Internal_Hbond>
0.0000

> <Gold.Chemscore.DEClash>
0.1851

> <Gold.Chemscore.DEInternal>
0.4972

> <Gold.Chemscore.Rot>
2.4854

> <Gold.Chemscore.Internal.Correction>
   9.000000E+99

> <Gold.Chemscore.Hbonds>
donor molecule, donor type, donor heavy atom, donor atom, acceptor molecule, acceptor atom, score
      L1  H     6    40       P1  7948  0.07

> <Gold.Chemscore.Hbond.Weighted>
-2.6259

> <Gold.Chemscore.Metal.Weighted>
-0.0000

> <Gold.Chemscore.Lipo.Weighted>
-12.3223

> <Gold.Chemscore.Internal_Hbond.Weighted>
0.0000

> <Gold.Chemscore.DEClash.Weighted>
0.1851

> <Gold.Chemscore.DEInternal.Weighted>
0.4972

> <Gold.Chemscore.Rot.Weighted>
6.3627

> <Gold.Chemscore.Internal.Correction.Weighted>
   9.000000E+99

> <Gold.Protein.RotatedTorsions>
[ 6907 6896 6895 6894 ] final -159.22 input  -60.11 | X-H torsion
[ 7974 7965 7964 7962 ] final  153.88 input  175.53 | X-H torsion
[ 8008 7997 7996 7995 ] final -179.49 input   59.86 | X-H torsion
[ 10167 10162 10161 10158 ] final  -98.22 input  -65.29 | X-H torsion
[ 10718 10713 10712 10709 ] final  -34.72 input   66.30 | X-H torsion
[ 10763 10752 10751 10750 ] final   92.86 input  -60.55 | X-H torsion
[ 11005 11000 10999 10996 ] final  110.48 input  -57.11 | X-H torsion

> <Gold.Protein.ActiveResidues>
 VAL166  LYS551  ARG553  GLY616  TRP617  ASP618  TYR619  PRO620  LYS621  CYS622 
 ASP623  PHE694  ASN695  SER759  ASP760  ASP761  ALA762  ILE779  LEU786  VAL792 
 PHE793  MET794  SER795  GLU796  ALA797  LYS798  CYS799  TRP800  GLU811  SER814 

> <Gold.Protein.RotatedAtoms>
  151.3302  133.4004  159.2661 H   0  0  0  0  0  0  0  0  0  0  0  0  # atno 6907 bound_to 6896
  150.9962  134.9286  159.7938 H   0  0  0  0  0  0  0  0  0  0  0  0  # atno 6908 bound_to 6896
  152.5262  134.3267  159.9220 H   0  0  0  0  0  0  0  0  0  0  0  0  # atno 6909 bound_to 6896
  144.8125  139.6859  143.6135 H   0  0  0  0  0  0  0  0  0  0  0  0  # atno 7974 bound_to 7965
  156.0312  140.1282  157.0256 H   0  0  0  0  0  0  0  0  0  0  0  0  # atno 8008 bound_to 7997
  154.4350  140.1049  156.6172 H   0  0  0  0  0  0  0  0  0  0  0  0  # atno 8009 bound_to 7997
  155.5805  140.3468  155.4541 H   0  0  0  0  0  0  0  0  0  0  0  0  # atno 8010 bound_to 7997
  140.2752  143.3317  152.0495 H   0  0  0  0  0  0  0  0  0  0  0  0  # atno 10167 bound_to 10162
  156.3472  130.4303  149.7735 H   0  0  0  0  0  0  0  0  0  0  0  0  # atno 10718 bound_to 10713
  153.2239  135.4346  155.0520 H   0  0  0  0  0  0  0  0  0  0  0  0  # atno 10763 bound_to 10752
  154.8263  135.3363  154.6887 H   0  0  0  0  0  0  0  0  0  0  0  0  # atno 10764 bound_to 10752
  153.7318  135.7010  153.5044 H   0  0  0  0  0  0  0  0  0  0  0  0  # atno 10765 bound_to 10752
  139.8883  134.9485  156.6285 H   0  0  0  0  0  0  0  0  0  0  0  0  # atno 11005 bound_to 11000
  146.2425  139.6031  142.9482 LP  0  0  0  0  0  0  0  0  0  0  0  0  # atno 17320 bound_to 7965
  145.5290  141.0428  143.2393 LP  0  0  0  0  0  0  0  0  0  0  0  0  # atno 17321 bound_to 7965
  139.4977  144.6629  151.6423 LP  0  0  0  0  0  0  0  0  0  0  0  0  # atno 17342 bound_to 10162
  140.5857  143.9869  150.6294 LP  0  0  0  0  0  0  0  0  0  0  0  0  # atno 17343 bound_to 10162
  156.4949  130.8102  151.3110 LP  0  0  0  0  0  0  0  0  0  0  0  0  # atno 17370 bound_to 10713
  157.7456  130.9963  150.2775 LP  0  0  0  0  0  0  0  0  0  0  0  0  # atno 17371 bound_to 10713
  140.7685  133.8758  155.8473 LP  0  0  0  0  0  0  0  0  0  0  0  0  # atno 17394 bound_to 11000
  140.9862  134.1339  157.4450 LP  0  0  0  0  0  0  0  0  0  0  0  0  # atno 17395 bound_to 11000

$$$$
