AV-unprocessed.smi:1470|AV-procd|sdf|5960|dock4
  -GOLD-   22720 6 43D 1   1.00000     0.00000
 Structure written by MMmdl.
 42 43  0  0  0  0  0  0  0  0  1 V2000
  146.5249  132.4375  151.8791 C   0  0  0  0  0  0  0  0  0  0  0  0
  147.7481  132.9468  152.3793 O   0  0  0  0  0  0  0  0  0  0  0  0
  147.9931  132.5609  153.7216 C   0  0  0  0  0  0  0  0  0  0  0  0
  149.3874  133.0380  154.1551 C   0  0  0  0  0  0  0  0  0  0  0  0
  149.5532  134.4742  153.9582 N   0  0  0  0  0  0  0  0  0  0  0  0
  150.0239  135.3300  154.8765 C   0  0  0  0  0  0  0  0  0  0  0  0
  150.3936  134.9882  155.9996 O   0  0  0  0  0  0  0  0  0  0  0  0
  150.0571  136.5857  154.3988 N   0  0  0  0  0  0  0  0  0  0  0  0
  150.4295  137.7739  155.0826 C   0  0  0  0  0  0  0  0  0  0  0  0
  150.6383  137.7062  156.4734 C   0  0  0  0  0  0  0  0  0  0  0  0
  151.0315  138.8662  157.1673 C   0  0  0  0  0  0  0  0  0  0  0  0
  151.2172  140.0705  156.4486 C   0  0  0  0  0  0  0  0  0  0  0  0
  151.6120  141.2462  157.1238 N   0  0  0  0  0  0  0  0  0  0  0  0
  150.8221  142.4594  156.8953 C   0  0  0  0  0  0  0  0  0  0  0  0
  151.5763  143.7128  157.3706 C   0  0  0  0  0  0  0  0  0  0  0  0
  152.0240  143.5663  158.8321 C   0  0  0  0  0  0  0  0  0  0  0  0
  152.8523  142.2841  159.0004 C   0  0  0  0  0  0  0  0  0  0  0  0
  152.0766  141.0538  158.4992 C   0  0  0  0  0  0  0  0  0  0  0  0
  151.0352  140.1297  155.1065 N   0  0  0  0  0  0  0  0  0  0  0  0
  150.6549  139.0165  154.4450 C   0  0  0  0  0  0  0  0  0  0  0  0
  146.3885  132.7623  150.8477 H   0  0  0  0  0  0  0  0  0  0  0  0
  145.6780  132.8019  152.4619 H   0  0  0  0  0  0  0  0  0  0  0  0
  146.5169  131.3468  151.8925 H   0  0  0  0  0  0  0  0  0  0  0  0
  147.2388  133.0115  154.3685 H   0  0  0  0  0  0  0  0  0  0  0  0
  147.9104  131.4782  153.8314 H   0  0  0  0  0  0  0  0  0  0  0  0
  149.5886  132.7552  155.1898 H   0  0  0  0  0  0  0  0  0  0  0  0
  150.1424  132.5375  153.5486 H   0  0  0  0  0  0  0  0  0  0  0  0
  149.2795  134.8440  153.0597 H   0  0  0  0  0  0  0  0  0  0  0  0
  149.8239  136.6997  153.4234 H   0  0  0  0  0  0  0  0  0  0  0  0
  150.4989  136.7773  157.0071 H   0  0  0  0  0  0  0  0  0  0  0  0
  151.2010  138.8162  158.2326 H   0  0  0  0  0  0  0  0  0  0  0  0
  150.5928  142.5650  155.8341 H   0  0  0  0  0  0  0  0  0  0  0  0
  149.8720  142.3727  157.4246 H   0  0  0  0  0  0  0  0  0  0  0  0
  152.4491  143.8752  156.7366 H   0  0  0  0  0  0  0  0  0  0  0  0
  150.9432  144.5933  157.2581 H   0  0  0  0  0  0  0  0  0  0  0  0
  152.6072  144.4355  159.1378 H   0  0  0  0  0  0  0  0  0  0  0  0
  151.1503  143.5292  159.4837 H   0  0  0  0  0  0  0  0  0  0  0  0
  153.7860  142.3771  158.4439 H   0  0  0  0  0  0  0  0  0  0  0  0
  153.1273  142.1508  160.0469 H   0  0  0  0  0  0  0  0  0  0  0  0
  151.2090  140.8783  159.1364 H   0  0  0  0  0  0  0  0  0  0  0  0
  152.7124  140.1743  158.5917 H   0  0  0  0  0  0  0  0  0  0  0  0
  150.5571  139.1363  153.3773 H   0  0  0  0  0  0  0  0  0  0  0  0
  1  2  1  0  0  0  0
  1 21  1  0  0  0  0
  1 22  1  0  0  0  0
  1 23  1  0  0  0  0
  2  3  1  0  0  0  0
  3  4  1  0  0  0  0
  3 24  1  0  0  0  0
  3 25  1  0  0  0  0
  4  5  1  0  0  0  0
  4 26  1  0  0  0  0
  4 27  1  0  0  0  0
  5  6  1  0  0  0  0
  5 28  1  0  0  0  0
  6  7  2  0  0  0  0
  6  8  1  0  0  0  0
  8  9  1  0  0  0  0
  8 29  1  0  0  0  0
  9 20  1  0  0  0  0
  9 10  2  0  0  0  0
 10 11  1  0  0  0  0
 10 30  1  0  0  0  0
 11 12  2  0  0  0  0
 11 31  1  0  0  0  0
 12 13  1  0  0  0  0
 12 19  1  0  0  0  0
 13 18  1  0  0  0  0
 13 14  1  0  0  0  0
 14 15  1  0  0  0  0
 14 32  1  0  0  0  0
 14 33  1  0  0  0  0
 15 16  1  0  0  0  0
 15 34  1  0  0  0  0
 15 35  1  0  0  0  0
 16 17  1  0  0  0  0
 16 36  1  0  0  0  0
 16 37  1  0  0  0  0
 17 18  1  0  0  0  0
 17 38  1  0  0  0  0
 17 39  1  0  0  0  0
 18 40  1  0  0  0  0
 18 41  1  0  0  0  0
 19 20  2  0  0  0  0
 20 42  1  0  0  0  0
M  END
> <s_m_source_file>
AV-unprocessed.smi

> <i_m_source_file_index>
1470

> <i_lp_mmshare_version>
43012

> <i_f3d_flags>
0

> <s_epik_input>
W0NIM11PW0NIMl1bQ0gyXVtOSF1DKD1PKVtOSF1jMVtjSF1bY0hdYyhuW2NIXTEpTjJbQ0gyXVtDSDJdW0NIMl1bQ0gyXVtDSDJdMg==

> <s_epik_cmdline>
J2VwaWtfcHl0aG9uJywgJy1waCcsICc3LjAnLCAnLXRuJywgJzgnLCAnLW1hJywgJzIwMCcsICctbWV0YWxfYmluZGluZycsICctaW1hZScsICc8aW5maWxlLm1hZT4nLCAnLW9tYWUnLCAnPG91dGZpbGUubWFlPic=

> <r_lp_tautomer_probability>
1

> <r_epik_Ionization_Penalty>
0.104129

> <r_epik_Ionization_Penalty_Charging>
0

> <r_epik_Ionization_Penalty_Neutral>
0.104129

> <r_epik_State_Penalty>
0.0879167

> <r_epik_Charging_Adjusted_Penalty>
0.0879167

> <i_epik_Tot_Q>
0

> <i_epik_Tot_abs_Q>
0

> <r_epik_Metal_State_Penalty>
0.0753231

> <b_epik_Metal_Only>
0

> <s_lp_Force_Field>
OPLS_2005

> <r_lp_Energy>
19.434

> <b_lp_Chiralities_Consistent>
1

> <s_lp_Variant>
AV-unprocessed.smi:1470-1

> <Gold.Version>
5.8.1

> <Gold.Id.Protein>
6NUR|6NUR_protein|mol2

> <Gold.PLP.Fitness>
43.0822

> <Gold.PLP.PLP>
-34.6442

> <Gold.PLP.part.hbond>
-3.6888

> <Gold.PLP.part.metal>
0.0000

> <Gold.PLP.part.buried>
-2.8799

> <Gold.PLP.part.nonpolar>
-28.6270

> <Gold.PLP.part.repulsive>
0.3706

> <Gold.PLP.ligand.clash>
0.0000

> <Gold.PLP.ligand.torsion>
0.3049

> <Gold.PLP.Chemscore.Hbond>
1.9500

> <Gold.PLP.Chemscore.CHOScore>
0.9174

> <Gold.PLP.Chemscore.Metal>
0.0000

> <Gold.Chemscore.Hbonds>
donor molecule, donor type, donor heavy atom, donor atom, acceptor molecule, acceptor atom, score
      L1  H     5    28       P1  7948  0.40
      L1  H     8    29       P1  7948  1.00
      P1  H  7989  7998       L1    19  0.50
      L1  C    20    42       P1  7957  0.93

> <Gold.PLP.Chemscore.Internal.Correction>
0.4456

> <Gold.Rescore>
     Score         DG    S(hbond)    S(metal)    S(lipo)     H(rot)  DE(clash)    DE(int)     intcor
     15.24     -16.97       1.77        0.00      82.78       1.61       0.01       1.72       ----

> <Gold.Chemscore.Fitness>
15.2395

> <Gold.Chemscore.DG>
-16.9728

> <Gold.Chemscore.ZeroCoef>
-5.4800

> <Gold.Chemscore.Hbond>
1.7740

> <Gold.Chemscore.Metal>
0.0000

> <Gold.Chemscore.Lipo>
82.7821

> <Gold.Chemscore.Internal_Hbond>
0.0000

> <Gold.Chemscore.DEClash>
0.0106

> <Gold.Chemscore.DEInternal>
1.7227

> <Gold.Chemscore.Rot>
1.6086

> <Gold.Chemscore.Internal.Correction>
   9.000000E+99

> <Gold.Chemscore.Hbonds>
donor molecule, donor type, donor heavy atom, donor atom, acceptor molecule, acceptor atom, score
      L1  H     5    28       P1  7948  0.01
      L1  H     8    29       P1  7948  0.29
      P1  H  7989  7998       L1    19  0.02

> <Gold.Chemscore.Hbond.Weighted>
-5.9252

> <Gold.Chemscore.Metal.Weighted>
-0.0000

> <Gold.Chemscore.Lipo.Weighted>
-9.6855

> <Gold.Chemscore.Internal_Hbond.Weighted>
0.0000

> <Gold.Chemscore.DEClash.Weighted>
0.0106

> <Gold.Chemscore.DEInternal.Weighted>
1.7227

> <Gold.Chemscore.Rot.Weighted>
4.1179

> <Gold.Chemscore.Internal.Correction.Weighted>
   9.000000E+99

> <Gold.Protein.RotatedTorsions>
[ 6907 6896 6895 6894 ] final   96.02 input  -60.11 | X-H torsion
[ 7974 7965 7964 7962 ] final -109.76 input  175.53 | X-H torsion
[ 8008 7997 7996 7995 ] final  -10.91 input   59.86 | X-H torsion
[ 10167 10162 10161 10158 ] final   -7.04 input  -65.29 | X-H torsion
[ 10718 10713 10712 10709 ] final  -91.11 input   66.30 | X-H torsion
[ 10763 10752 10751 10750 ] final   13.55 input  -60.55 | X-H torsion
[ 11005 11000 10999 10996 ] final  173.79 input  -57.11 | X-H torsion

> <Gold.Protein.ActiveResidues>
 VAL166  LYS551  ARG553  GLY616  TRP617  ASP618  TYR619  PRO620  LYS621  CYS622 
 ASP623  PHE694  ASN695  SER759  ASP760  ASP761  ALA762  ILE779  LEU786  VAL792 
 PHE793  MET794  SER795  GLU796  ALA797  LYS798  CYS799  TRP800  GLU811  SER814 

> <Gold.Protein.RotatedAtoms>
  152.5439  134.0951  159.8293 H   0  0  0  0  0  0  0  0  0  0  0  0  # atno 6907 bound_to 6896
  151.1036  133.5218  159.2616 H   0  0  0  0  0  0  0  0  0  0  0  0  # atno 6908 bound_to 6896
  151.1964  135.0433  159.8908 H   0  0  0  0  0  0  0  0  0  0  0  0  # atno 6909 bound_to 6896
  145.1765  140.8951  143.3505 H   0  0  0  0  0  0  0  0  0  0  0  0  # atno 7974 bound_to 7965
  154.5512  140.2316  155.8482 H   0  0  0  0  0  0  0  0  0  0  0  0  # atno 8008 bound_to 7997
  156.1948  140.3068  155.9366 H   0  0  0  0  0  0  0  0  0  0  0  0  # atno 8009 bound_to 7997
  155.3067  140.0433  157.3023 H   0  0  0  0  0  0  0  0  0  0  0  0  # atno 8010 bound_to 7997
  140.7016  143.6125  150.8690 H   0  0  0  0  0  0  0  0  0  0  0  0  # atno 10167 bound_to 10162
  155.9991  130.4935  150.5424 H   0  0  0  0  0  0  0  0  0  0  0  0  # atno 10718 bound_to 10713
  153.1710  135.6812  153.8608 H   0  0  0  0  0  0  0  0  0  0  0  0  # atno 10763 bound_to 10752
  153.7972  135.3161  155.3387 H   0  0  0  0  0  0  0  0  0  0  0  0  # atno 10764 bound_to 10752
  154.7998  135.4785  154.0340 H   0  0  0  0  0  0  0  0  0  0  0  0  # atno 10765 bound_to 10752
  140.3443  134.7250  157.4224 H   0  0  0  0  0  0  0  0  0  0  0  0  # atno 11005 bound_to 11000
  145.0179  139.3450  143.6087 LP  0  0  0  0  0  0  0  0  0  0  0  0  # atno 17320 bound_to 7965
  146.3460  139.9468  142.8734 LP  0  0  0  0  0  0  0  0  0  0  0  0  # atno 17321 bound_to 7965
  139.9848  143.5911  152.2930 LP  0  0  0  0  0  0  0  0  0  0  0  0  # atno 17342 bound_to 10162
  139.6545  144.7662  151.2082 LP  0  0  0  0  0  0  0  0  0  0  0  0  # atno 17343 bound_to 10162
  157.3359  131.0708  151.1826 LP  0  0  0  0  0  0  0  0  0  0  0  0  # atno 17370 bound_to 10713
  157.2691  130.6695  149.6010 LP  0  0  0  0  0  0  0  0  0  0  0  0  # atno 17371 bound_to 10713
  140.0755  134.5803  155.8595 LP  0  0  0  0  0  0  0  0  0  0  0  0  # atno 17394 bound_to 11000
  141.2030  133.6629  156.6037 LP  0  0  0  0  0  0  0  0  0  0  0  0  # atno 17395 bound_to 11000

$$$$
