AV-unprocessed.smi:1570|AV-procd|sdf|6320|dock7
  -GOLD-   22720 6523D 1   1.00000     0.00000
 Structure written by MMmdl.
 52 54  0  0  0  0  0  0  0  0  2 V2000
  150.0922  144.4500  159.7921 C   0  0  0  0  0  0  0  0  0  0  0  0
  151.6078  144.2470  159.6666 C   0  0  0  0  0  0  0  0  0  0  0  0
  151.9234  142.8908  159.2256 N   0  0  0  0  0  0  0  0  0  0  0  0
  151.5824  142.3294  158.0419 C   0  0  0  0  0  0  0  0  0  0  0  0
  150.9579  142.8776  157.1339 O   0  0  0  0  0  0  0  0  0  0  0  0
  152.0123  141.0452  158.0452 N   0  0  0  0  0  0  0  0  0  0  0  0
  151.8177  140.0549  156.9867 C   0  0  0  0  0  0  0  0  0  0  0  0
  150.3960  140.1133  156.3914 C   0  0  2  0  0  0  0  0  0  0  0  0
  149.5569  139.3107  157.1970 O   0  0  0  0  0  0  0  0  0  0  0  0
  150.3221  139.5989  154.9373 C   0  0  0  0  0  0  0  0  0  0  0  0
  149.0107  139.8751  154.2997 N   0  3  1  0  0  0  0  0  0  0  0  0
  147.9936  138.8262  154.5588 C   0  0  0  0  0  0  0  0  0  0  0  0
  146.6748  139.1405  153.8259 C   0  0  2  0  0  0  0  0  0  0  0  0
  146.7474  138.9091  152.3061 C   0  0  0  0  0  0  0  0  0  0  0  0
  146.2301  140.4571  154.1533 O   0  0  0  0  0  0  0  0  0  0  0  0
  147.1745  141.4914  153.8887 C   0  0  1  0  0  0  0  0  0  0  0  0
  146.5416  142.8255  154.2995 C   0  0  0  0  0  0  0  0  0  0  0  0
  148.4752  141.2076  154.6606 C   0  0  0  0  0  0  0  0  0  0  0  0
  152.6340  140.7742  159.2724 C   0  0  0  0  0  0  0  0  0  0  0  0
  153.2246  139.5992  159.7690 C   0  0  0  0  0  0  0  0  0  0  0  0
  153.7623  139.6489  161.0765 C   0  0  0  0  0  0  0  0  0  0  0  0
  153.7000  140.8415  161.8432 C   0  0  0  0  0  0  0  0  0  0  0  0
  153.0998  142.0103  161.3185 C   0  0  0  0  0  0  0  0  0  0  0  0
  152.5759  141.9340  160.0161 C   0  0  0  0  0  0  0  0  0  0  0  0
  149.8624  145.4634  160.1216 H   0  0  0  0  0  0  0  0  0  0  0  0
  149.6602  143.7591  160.5168 H   0  0  0  0  0  0  0  0  0  0  0  0
  149.5922  144.2904  158.8362 H   0  0  0  0  0  0  0  0  0  0  0  0
  152.0213  144.9712  158.9628 H   0  0  0  0  0  0  0  0  0  0  0  0
  152.0927  144.4449  160.6227 H   0  0  0  0  0  0  0  0  0  0  0  0
  152.5642  140.1868  156.2014 H   0  0  0  0  0  0  0  0  0  0  0  0
  152.0046  139.0675  157.4110 H   0  0  0  0  0  0  0  0  0  0  0  0
  150.0320  141.1380  156.4575 H   0  0  0  0  0  0  0  0  0  0  0  0
  149.3667  139.7793  157.9959 H   0  0  0  0  0  0  0  0  0  0  0  0
  151.1040  140.0437  154.3216 H   0  0  0  0  0  0  0  0  0  0  0  0
  150.5145  138.5247  154.9408 H   0  0  0  0  0  0  0  0  0  0  0  0
  148.3568  137.8453  154.2536 H   0  0  0  0  0  0  0  0  0  0  0  0
  147.8074  138.7687  155.6325 H   0  0  0  0  0  0  0  0  0  0  0  0
  145.9130  138.4615  154.2104 H   0  0  0  0  0  0  0  0  0  0  0  0
  146.9591  137.8627  152.0851 H   0  0  0  0  0  0  0  0  0  0  0  0
  147.5287  139.5028  151.8322 H   0  0  0  0  0  0  0  0  0  0  0  0
  145.7999  139.1603  151.8291 H   0  0  0  0  0  0  0  0  0  0  0  0
  147.3848  141.5338  152.8199 H   0  0  0  0  0  0  0  0  0  0  0  0
  147.2213  143.6573  154.1111 H   0  0  0  0  0  0  0  0  0  0  0  0
  146.2887  142.8337  155.3603 H   0  0  0  0  0  0  0  0  0  0  0  0
  145.6260  143.0118  153.7376 H   0  0  0  0  0  0  0  0  0  0  0  0
  148.2983  141.2500  155.7367 H   0  0  0  0  0  0  0  0  0  0  0  0
  149.2120  141.9767  154.4260 H   0  0  0  0  0  0  0  0  0  0  0  0
  153.2666  138.6941  159.1817 H   0  0  0  0  0  0  0  0  0  0  0  0
  154.2249  138.7680  161.4966 H   0  0  0  0  0  0  0  0  0  0  0  0
  154.1154  140.8569  162.8402 H   0  0  0  0  0  0  0  0  0  0  0  0
  153.0467  142.9193  161.8990 H   0  0  0  0  0  0  0  0  0  0  0  0
  149.1771  139.8954  153.3035 H   0  0  0  0  0  0  0  0  0  0  0  0
  1  2  1  0  0  0  0
  1 25  1  0  0  0  0
  1 26  1  0  0  0  0
  1 27  1  0  0  0  0
  2  3  1  0  0  0  0
  2 28  1  0  0  0  0
  2 29  1  0  0  0  0
  3 24  1  0  0  0  0
  3  4  1  0  0  0  0
  4  5  2  0  0  0  0
  4  6  1  0  0  0  0
  6  7  1  0  0  0  0
  6 19  1  0  0  0  0
  7  8  1  0  0  0  0
  7 30  1  0  0  0  0
  7 31  1  0  0  0  0
  8  9  1  0  0  0  0
  8 10  1  0  0  0  0
  8 32  1  0  0  0  0
  9 33  1  0  0  0  0
 10 11  1  0  0  0  0
 10 34  1  0  0  0  0
 10 35  1  0  0  0  0
 11 18  1  0  0  0  0
 11 12  1  0  0  0  0
 11 52  1  0  0  0  0
 12 13  1  0  0  0  0
 12 36  1  0  0  0  0
 12 37  1  0  0  0  0
 13 14  1  0  0  0  0
 13 15  1  0  0  0  0
 13 38  1  0  0  0  0
 14 39  1  0  0  0  0
 14 40  1  0  0  0  0
 14 41  1  0  0  0  0
 15 16  1  0  0  0  0
 16 17  1  0  0  0  0
 16 18  1  0  0  0  0
 16 42  1  0  0  0  0
 17 43  1  0  0  0  0
 17 44  1  0  0  0  0
 17 45  1  0  0  0  0
 18 46  1  0  0  0  0
 18 47  1  0  0  0  0
 19 24  2  0  0  0  0
 19 20  1  0  0  0  0
 20 21  2  0  0  0  0
 20 48  1  0  0  0  0
 21 22  1  0  0  0  0
 21 49  1  0  0  0  0
 22 23  2  0  0  0  0
 22 50  1  0  0  0  0
 23 24  1  0  0  0  0
 23 51  1  0  0  0  0
M  CHG  1  11   1
M  END
> <s_m_source_file>
AV-unprocessed.smi

> <i_m_source_file_index>
1570

> <i_lp_mmshare_version>
43012

> <i_f3d_flags>
0

> <s_epik_input>
W2NIXTFbY0hdW2NIXVtjSF1jKGMxMiluKFtDSDJdW0NIM10pYyg9TyluMltDSDJdW0NASF0oW09IXSlbQ0gyXU4zW0NIMl1bQ0BASF0oW0NIM10pT1tDQEBIXShbQ0gzXSlbQ0gyXTM=

> <s_epik_cmdline>
J2VwaWtfcHl0aG9uJywgJy1waCcsICc3LjAnLCAnLXRuJywgJzgnLCAnLW1hJywgJzIwMCcsICctbWV0YWxfYmluZGluZycsICctaW1hZScsICc8aW5maWxlLm1hZT4nLCAnLW9tYWUnLCAnPG91dGZpbGUubWFlPic=

> <r_epik_Ionization_Penalty>
0.706332

> <r_epik_Ionization_Penalty_Charging>
0.706318

> <r_epik_Ionization_Penalty_Neutral>
1.42224e-05

> <r_epik_State_Penalty>
0.729493

> <r_epik_Charging_Adjusted_Penalty>
1.43581

> <i_epik_Tot_Q>
1

> <i_epik_Tot_abs_Q>
1

> <r_epik_Metal_State_Penalty>
0.729493

> <b_epik_Metal_Only>
0

> <s_lp_Force_Field>
OPLS_2005

> <r_lp_Energy>
53.5828

> <b_lp_Chiralities_Consistent>
1

> <s_lp_Variant>
AV-unprocessed.smi:1570-9

> <Gold.Version>
5.8.1

> <Gold.Id.Protein>
6NUR|6NUR_protein|mol2

> <Gold.PLP.Fitness>
51.6231

> <Gold.PLP.PLP>
-50.2711

> <Gold.PLP.part.hbond>
-0.9515

> <Gold.PLP.part.metal>
0.0000

> <Gold.PLP.part.buried>
-6.2929

> <Gold.PLP.part.nonpolar>
-44.8082

> <Gold.PLP.part.repulsive>
2.6909

> <Gold.PLP.ligand.clash>
0.0000

> <Gold.PLP.ligand.torsion>
0.8490

> <Gold.PLP.Chemscore.Hbond>
0.9913

> <Gold.PLP.Chemscore.CHOScore>
0.0000

> <Gold.PLP.Chemscore.Metal>
0.0000

> <Gold.Chemscore.Hbonds>
donor molecule, donor type, donor heavy atom, donor atom, acceptor molecule, acceptor atom, score
      L1  H    11    52       P1  7957  0.60

> <Gold.PLP.Chemscore.Internal.Correction>
0.0764

> <Gold.Rescore>
     Score         DG    S(hbond)    S(metal)    S(lipo)     H(rot)  DE(clash)    DE(int)     intcor
     15.95     -18.70       0.95        0.00     132.42       2.13       2.31       0.44       ----

> <Gold.Chemscore.Fitness>
15.9539

> <Gold.Chemscore.DG>
-18.7026

> <Gold.Chemscore.ZeroCoef>
-5.4800

> <Gold.Chemscore.Hbond>
0.9530

> <Gold.Chemscore.Metal>
0.0000

> <Gold.Chemscore.Lipo>
132.4189

> <Gold.Chemscore.Internal_Hbond>
0.0000

> <Gold.Chemscore.DEClash>
2.3070

> <Gold.Chemscore.DEInternal>
0.4417

> <Gold.Chemscore.Rot>
2.1303

> <Gold.Chemscore.Internal.Correction>
   9.000000E+99

> <Gold.Chemscore.Hbonds>
donor molecule, donor type, donor heavy atom, donor atom, acceptor molecule, acceptor atom, score
      L1  H    11    52       P1  7957  0.60

> <Gold.Chemscore.Hbond.Weighted>
-3.1832

> <Gold.Chemscore.Metal.Weighted>
-0.0000

> <Gold.Chemscore.Lipo.Weighted>
-15.4930

> <Gold.Chemscore.Internal_Hbond.Weighted>
0.0000

> <Gold.Chemscore.DEClash.Weighted>
2.3070

> <Gold.Chemscore.DEInternal.Weighted>
0.4417

> <Gold.Chemscore.Rot.Weighted>
5.4535

> <Gold.Chemscore.Internal.Correction.Weighted>
   9.000000E+99

> <Gold.Protein.RotatedTorsions>
[ 6907 6896 6895 6894 ] final  -52.65 input  -60.11 | X-H torsion
[ 7974 7965 7964 7962 ] final  -62.35 input  175.53 | X-H torsion
[ 8008 7997 7996 7995 ] final  107.62 input   59.86 | X-H torsion
[ 10167 10162 10161 10158 ] final  108.32 input  -65.29 | X-H torsion
[ 10718 10713 10712 10709 ] final   81.92 input   66.30 | X-H torsion
[ 10763 10752 10751 10750 ] final   61.64 input  -60.55 | X-H torsion
[ 11005 11000 10999 10996 ] final  175.63 input  -57.11 | X-H torsion

> <Gold.Protein.ActiveResidues>
 VAL166  LYS551  ARG553  GLY616  TRP617  ASP618  TYR619  PRO620  LYS621  CYS622 
 ASP623  PHE694  ASN695  SER759  ASP760  ASP761  ALA762  ILE779  LEU786  VAL792 
 PHE793  MET794  SER795  GLU796  ALA797  LYS798  CYS799  TRP800  GLU811  SER814 

> <Gold.Protein.RotatedAtoms>
  150.8498  134.7819  159.6999 H   0  0  0  0  0  0  0  0  0  0  0  0  # atno 6907 bound_to 6896
  152.4566  134.5275  159.9811 H   0  0  0  0  0  0  0  0  0  0  0  0  # atno 6908 bound_to 6896
  151.5398  133.3396  159.2969 H   0  0  0  0  0  0  0  0  0  0  0  0  # atno 6909 bound_to 6896
  145.7923  140.8702  143.0274 H   0  0  0  0  0  0  0  0  0  0  0  0  # atno 7974 bound_to 7965
  156.1839  140.3091  155.9200 H   0  0  0  0  0  0  0  0  0  0  0  0  # atno 8008 bound_to 7997
  155.3324  140.0461  157.3060 H   0  0  0  0  0  0  0  0  0  0  0  0  # atno 8009 bound_to 7997
  154.5373  140.2250  155.8710 H   0  0  0  0  0  0  0  0  0  0  0  0  # atno 8010 bound_to 7997
  139.6856  144.7114  151.1438 H   0  0  0  0  0  0  0  0  0  0  0  0  # atno 10167 bound_to 10162
  157.6845  131.0025  150.2298 H   0  0  0  0  0  0  0  0  0  0  0  0  # atno 10718 bound_to 10713
  152.9957  135.5493  154.6065 H   0  0  0  0  0  0  0  0  0  0  0  0  # atno 10763 bound_to 10752
  154.5395  135.2819  155.1110 H   0  0  0  0  0  0  0  0  0  0  0  0  # atno 10764 bound_to 10752
  154.2393  135.6419  153.5254 H   0  0  0  0  0  0  0  0  0  0  0  0  # atno 10765 bound_to 10752
  140.3643  134.7086  157.4351 H   0  0  0  0  0  0  0  0  0  0  0  0  # atno 11005 bound_to 11000
  144.6780  140.0142  143.7484 LP  0  0  0  0  0  0  0  0  0  0  0  0  # atno 17320 bound_to 7965
  145.9963  139.3055  143.0954 LP  0  0  0  0  0  0  0  0  0  0  0  0  # atno 17321 bound_to 7965
  140.7666  143.5635  150.9073 LP  0  0  0  0  0  0  0  0  0  0  0  0  # atno 17342 bound_to 10162
  139.9309  143.6494  152.3076 LP  0  0  0  0  0  0  0  0  0  0  0  0  # atno 17343 bound_to 10162
  156.2933  130.3748  149.7820 LP  0  0  0  0  0  0  0  0  0  0  0  0  # atno 17370 bound_to 10713
  156.5473  130.8326  151.3288 LP  0  0  0  0  0  0  0  0  0  0  0  0  # atno 17371 bound_to 10713
  140.0602  134.6006  155.8758 LP  0  0  0  0  0  0  0  0  0  0  0  0  # atno 17394 bound_to 11000
  141.1974  133.6596  156.5742 LP  0  0  0  0  0  0  0  0  0  0  0  0  # atno 17395 bound_to 11000

$$$$
