AV-unprocessed.smi:3354|AV-procd|sdf|12956|dock2
  -GOLD-   2272019393D 1   1.00000     0.00000
 Structure written by MMmdl.
 38 40  0  0  0  0  0  0  0  0  1 V2000
  152.1362  138.4864  154.3556 C   0  0  0  0  0  0  0  0  0  0  0  0
  151.4879  138.9028  155.6615 C   0  0  1  0  0  0  0  0  0  0  0  0
  150.0593  139.3947  155.6905 C   0  0  0  0  0  0  0  0  0  0  0  0
  150.4152  138.0696  156.3357 C   0  0  1  0  0  0  0  0  0  0  0  0
  149.9959  136.8333  155.7426 N   0  0  0  0  0  0  0  0  0  0  0  0
  148.6964  136.6823  155.1022 C   0  0  0  0  0  0  0  0  0  0  0  0
  148.4685  135.1644  154.9883 C   0  0  1  0  0  0  0  0  0  0  0  0
  147.9716  134.8034  153.6618 N   0  0  0  0  0  0  0  0  0  0  0  0
  147.0057  133.9097  153.4048 C   0  0  0  0  0  0  0  0  0  0  0  0
  146.4091  133.2797  154.2778 O   0  0  0  0  0  0  0  0  0  0  0  0
  146.7720  133.8172  152.0842 N   0  0  0  0  0  0  0  0  0  0  0  0
  145.8532  132.9725  151.4040 C   0  0  0  0  0  0  0  0  0  0  0  0
  145.4615  131.6899  151.8589 C   0  0  0  0  0  0  0  0  0  0  0  0
  144.5576  130.9399  151.0820 C   0  0  0  0  0  0  0  0  0  0  0  0
  144.0843  131.4947  149.8772 C   0  0  0  0  0  0  0  0  0  0  0  0
  144.4592  132.7097  149.4246 N   0  0  0  0  0  0  0  0  0  0  0  0
  145.3266  133.4226  150.1744 C   0  0  0  0  0  0  0  0  0  0  0  0
  149.8328  134.5246  155.2789 C   0  0  0  0  0  0  0  0  0  0  0  0
  150.6355  135.6664  155.8784 C   0  0  0  0  0  0  0  0  0  0  0  0
  151.7243  135.4978  156.4256 O   0  0  0  0  0  0  0  0  0  0  0  0
  151.4027  138.0704  153.6647 H   0  0  0  0  0  0  0  0  0  0  0  0
  152.9029  137.7344  154.5433 H   0  0  0  0  0  0  0  0  0  0  0  0
  152.6039  139.3486  153.8804 H   0  0  0  0  0  0  0  0  0  0  0  0
  152.1779  139.4024  156.3389 H   0  0  0  0  0  0  0  0  0  0  0  0
  149.8333  140.2279  156.3526 H   0  0  0  0  0  0  0  0  0  0  0  0
  149.5148  139.3965  154.7487 H   0  0  0  0  0  0  0  0  0  0  0  0
  150.4276  138.0762  157.4245 H   0  0  0  0  0  0  0  0  0  0  0  0
  147.9074  137.1584  155.6861 H   0  0  0  0  0  0  0  0  0  0  0  0
  148.7261  137.1604  154.1219 H   0  0  0  0  0  0  0  0  0  0  0  0
  147.7731  134.8562  155.7713 H   0  0  0  0  0  0  0  0  0  0  0  0
  148.3977  135.2748  152.8772 H   0  0  0  0  0  0  0  0  0  0  0  0
  147.2798  134.4632  151.4977 H   0  0  0  0  0  0  0  0  0  0  0  0
  145.8440  131.2616  152.7723 H   0  0  0  0  0  0  0  0  0  0  0  0
  144.2384  129.9584  151.4005 H   0  0  0  0  0  0  0  0  0  0  0  0
  143.3912  130.9453  149.2574 H   0  0  0  0  0  0  0  0  0  0  0  0
  145.6069  134.3883  149.7795 H   0  0  0  0  0  0  0  0  0  0  0  0
  149.7537  133.6871  155.9728 H   0  0  0  0  0  0  0  0  0  0  0  0
  150.3312  134.1791  154.3720 H   0  0  0  0  0  0  0  0  0  0  0  0
  1  2  1  0  0  0  0
  1 21  1  0  0  0  0
  1 22  1  0  0  0  0
  1 23  1  0  0  0  0
  2  4  1  0  0  0  0
  2  3  1  0  0  0  0
  2 24  1  0  0  0  0
  3  4  1  0  0  0  0
  3 25  1  0  0  0  0
  3 26  1  0  0  0  0
  4  5  1  0  0  0  0
  4 27  1  0  0  0  0
  5 19  1  0  0  0  0
  5  6  1  0  0  0  0
  6  7  1  0  0  0  0
  6 28  1  0  0  0  0
  6 29  1  0  0  0  0
  7  8  1  0  0  0  0
  7 18  1  0  0  0  0
  7 30  1  0  0  0  0
  8  9  1  0  0  0  0
  8 31  1  0  0  0  0
  9 10  2  0  0  0  0
  9 11  1  0  0  0  0
 11 12  1  0  0  0  0
 11 32  1  0  0  0  0
 12 17  1  0  0  0  0
 12 13  2  0  0  0  0
 13 14  1  0  0  0  0
 13 33  1  0  0  0  0
 14 15  2  0  0  0  0
 14 34  1  0  0  0  0
 15 16  1  0  0  0  0
 15 35  1  0  0  0  0
 16 17  2  0  0  0  0
 17 36  1  0  0  0  0
 18 19  1  0  0  0  0
 18 37  1  0  0  0  0
 18 38  1  0  0  0  0
 19 20  2  0  0  0  0
M  END
> <s_m_source_file>
AV-unprocessed.smi

> <i_m_source_file_index>
3354

> <i_lp_mmshare_version>
43012

> <i_f3d_flags>
0

> <s_epik_input>
W0NIM11bQ0BASF0xW0NIMl1bQ0BIXTFOMltDSDJdW0NASF0oW0NIMl1DMj1PKVtOSF1DKD1PKVtOSF1jM1tjSF1bY0hdW2NIXW5bY0hdMw==

> <s_epik_cmdline>
J2VwaWtfcHl0aG9uJywgJy1waCcsICc3LjAnLCAnLXRuJywgJzgnLCAnLW1hJywgJzIwMCcsICctbWV0YWxfYmluZGluZycsICctaW1hZScsICc8aW5maWxlLm1hZT4nLCAnLW9tYWUnLCAnPG91dGZpbGUubWFlPic=

> <r_epik_Ionization_Penalty>
0.00456191

> <r_epik_Ionization_Penalty_Charging>
0

> <r_epik_Ionization_Penalty_Neutral>
0.00456191

> <r_epik_State_Penalty>
0.00327094

> <r_epik_Charging_Adjusted_Penalty>
0.00327094

> <i_epik_Tot_Q>
0

> <i_epik_Tot_abs_Q>
0

> <r_epik_Metal_State_Penalty>
-0

> <b_epik_Metal_Only>
0

> <s_lp_Force_Field>
OPLS_2005

> <r_lp_Energy>
43.9825

> <b_lp_Chiralities_Consistent>
1

> <s_lp_Variant>
AV-unprocessed.smi:3354-2

> <Gold.Version>
5.8.1

> <Gold.Id.Protein>
6NUR|6NUR_protein|mol2

> <Gold.PLP.Fitness>
38.6029

> <Gold.PLP.PLP>
-28.6915

> <Gold.PLP.part.hbond>
-2.7604

> <Gold.PLP.part.metal>
0.0000

> <Gold.PLP.part.buried>
-3.9953

> <Gold.PLP.part.nonpolar>
-22.4092

> <Gold.PLP.part.repulsive>
0.2708

> <Gold.PLP.ligand.clash>
0.0000

> <Gold.PLP.ligand.torsion>
0.9814

> <Gold.PLP.Chemscore.Hbond>
2.5724

> <Gold.PLP.Chemscore.CHOScore>
1.3174

> <Gold.PLP.Chemscore.Metal>
0.0000

> <Gold.Chemscore.Hbonds>
donor molecule, donor type, donor heavy atom, donor atom, acceptor molecule, acceptor atom, score
      L1  H     8    31       P1  7948  0.86
      L1  H    11    32       P1  7948  0.05
      P1  H 10752 10763       L1    20  1.00
      L1  C    15    35       P1 10952  0.68
      L1  C    17    36       P1  7921  0.91

> <Gold.PLP.Chemscore.Internal.Correction>
0.2048

> <Gold.Rescore>
     Score         DG    S(hbond)    S(metal)    S(lipo)     H(rot)  DE(clash)    DE(int)     intcor
     18.57     -19.20       2.64        0.00      69.09       1.24       0.00       0.63       ----

> <Gold.Chemscore.Fitness>
18.5718

> <Gold.Chemscore.DG>
-19.2013

> <Gold.Chemscore.ZeroCoef>
-5.4800

> <Gold.Chemscore.Hbond>
2.6353

> <Gold.Chemscore.Metal>
0.0000

> <Gold.Chemscore.Lipo>
69.0918

> <Gold.Chemscore.Internal_Hbond>
0.0000

> <Gold.Chemscore.DEClash>
0.0000

> <Gold.Chemscore.DEInternal>
0.6295

> <Gold.Chemscore.Rot>
1.2361

> <Gold.Chemscore.Internal.Correction>
   9.000000E+99

> <Gold.Chemscore.Hbonds>
donor molecule, donor type, donor heavy atom, donor atom, acceptor molecule, acceptor atom, score
      L1  H     8    31       P1  7948  0.78
      L1  H    11    32       P1  7948  0.03
      P1  H 10752 10763       L1    20  0.84

> <Gold.Chemscore.Hbond.Weighted>
-8.8019

> <Gold.Chemscore.Metal.Weighted>
-0.0000

> <Gold.Chemscore.Lipo.Weighted>
-8.0837

> <Gold.Chemscore.Internal_Hbond.Weighted>
0.0000

> <Gold.Chemscore.DEClash.Weighted>
0.0000

> <Gold.Chemscore.DEInternal.Weighted>
0.6295

> <Gold.Chemscore.Rot.Weighted>
3.1643

> <Gold.Chemscore.Internal.Correction.Weighted>
   9.000000E+99

> <Gold.Protein.RotatedTorsions>
[ 6907 6896 6895 6894 ] final   61.30 input  -60.11 | X-H torsion
[ 7974 7965 7964 7962 ] final -127.81 input  175.53 | X-H torsion
[ 8008 7997 7996 7995 ] final   -2.74 input   59.86 | X-H torsion
[ 10167 10162 10161 10158 ] final  -58.49 input  -65.29 | X-H torsion
[ 10718 10713 10712 10709 ] final  172.82 input   66.30 | X-H torsion
[ 10763 10752 10751 10750 ] final   96.70 input  -60.55 | X-H torsion
[ 11005 11000 10999 10996 ] final  162.12 input  -57.11 | X-H torsion

> <Gold.Protein.ActiveResidues>
 VAL166  LYS551  ARG553  GLY616  TRP617  ASP618  TYR619  PRO620  LYS621  CYS622 
 ASP623  PHE694  ASN695  SER759  ASP760  ASP761  ALA762  ILE779  LEU786  VAL792 
 PHE793  MET794  SER795  GLU796  ALA797  LYS798  CYS799  TRP800  GLU811  SER814 

> <Gold.Protein.RotatedAtoms>
  152.4077  134.6179  160.0042 H   0  0  0  0  0  0  0  0  0  0  0  0  # atno 6907 bound_to 6896
  151.6365  133.3323  159.3128 H   0  0  0  0  0  0  0  0  0  0  0  0  # atno 6908 bound_to 6896
  150.7970  134.7078  159.6631 H   0  0  0  0  0  0  0  0  0  0  0  0  # atno 6909 bound_to 6896
  144.9733  140.7568  143.4657 H   0  0  0  0  0  0  0  0  0  0  0  0  # atno 7974 bound_to 7965
  154.6324  140.2527  155.7418 H   0  0  0  0  0  0  0  0  0  0  0  0  # atno 8008 bound_to 7997
  156.2486  140.2904  156.0602 H   0  0  0  0  0  0  0  0  0  0  0  0  # atno 8009 bound_to 7997
  155.1724  140.0387  157.2856 H   0  0  0  0  0  0  0  0  0  0  0  0  # atno 8010 bound_to 7997
  140.6194  143.2414  151.5517 H   0  0  0  0  0  0  0  0  0  0  0  0  # atno 10167 bound_to 10162
  156.9733  131.0097  151.2900 H   0  0  0  0  0  0  0  0  0  0  0  0  # atno 10718 bound_to 10713
  153.2681  135.4209  155.0961 H   0  0  0  0  0  0  0  0  0  0  0  0  # atno 10763 bound_to 10752
  154.8446  135.3465  154.6283 H   0  0  0  0  0  0  0  0  0  0  0  0  # atno 10764 bound_to 10752
  153.6703  135.7044  153.5206 H   0  0  0  0  0  0  0  0  0  0  0  0  # atno 10765 bound_to 10752
  140.2225  134.8185  157.3235 H   0  0  0  0  0  0  0  0  0  0  0  0  # atno 11005 bound_to 11000
  145.2526  139.2025  143.4934 LP  0  0  0  0  0  0  0  0  0  0  0  0  # atno 17320 bound_to 7965
  146.3388  140.2442  142.8596 LP  0  0  0  0  0  0  0  0  0  0  0  0  # atno 17321 bound_to 7965
  139.5426  144.2607  152.1380 LP  0  0  0  0  0  0  0  0  0  0  0  0  # atno 17342 bound_to 10162
  140.1824  144.4832  150.6521 LP  0  0  0  0  0  0  0  0  0  0  0  0  # atno 17343 bound_to 10162
  157.5577  130.8225  149.8225 LP  0  0  0  0  0  0  0  0  0  0  0  0  # atno 17370 bound_to 10713
  156.0274  130.3775  150.1785 LP  0  0  0  0  0  0  0  0  0  0  0  0  # atno 17371 bound_to 10713
  140.1834  134.4461  155.7758 LP  0  0  0  0  0  0  0  0  0  0  0  0  # atno 17394 bound_to 11000
  141.2222  133.6994  156.7907 LP  0  0  0  0  0  0  0  0  0  0  0  0  # atno 17395 bound_to 11000

$$$$
