AV-unprocessed.smi:1726|AV-procd|sdf|6961|dock1
  -GOLD-   22720 8173D 1   1.00000     0.00000
 Structure written by MMmdl.
 42 43  0  0  0  0  0  0  0  0  3 V2000
  143.5583  132.4825  149.3113 C   0  0  0  0  0  0  0  0  0  0  0  0
  144.4959  133.4632  150.0306 C   0  0  0  0  0  0  0  0  0  0  0  0
  143.7690  134.3923  150.9325 N   0  3  1  0  0  0  0  0  0  0  0  0
  143.3281  133.7244  152.1849 C   0  0  0  0  0  0  0  0  0  0  0  0
  142.4625  134.6620  153.0427 C   0  0  0  0  0  0  0  0  0  0  0  0
  143.2055  135.9674  153.3543 C   0  0  0  0  0  0  0  0  0  0  0  0
  143.6728  136.6285  152.0488 C   0  0  1  0  0  0  0  0  0  0  0  0
  144.4298  137.8401  152.3477 N   0  0  0  0  0  0  0  0  0  0  0  0
  145.6206  137.8725  152.9632 C   0  0  0  0  0  0  0  0  0  0  0  0
  146.2049  136.8598  153.3491 O   0  0  0  0  0  0  0  0  0  0  0  0
  146.0498  139.1382  153.1120 N   0  0  0  0  0  0  0  0  0  0  0  0
  147.2448  139.6086  153.6818 C   0  0  0  0  0  0  0  0  0  0  0  0
  148.2791  138.8161  154.0776 C   0  0  0  0  0  0  0  0  0  0  0  0
  149.5048  139.3608  154.6477 C   0  0  0  0  0  0  0  0  0  0  0  0
  150.6351  138.5039  155.1892 C   0  0  0  0  0  0  0  0  0  0  0  0
  150.1668  137.6661  156.1133 F   0  0  0  0  0  0  0  0  0  0  0  0
  151.1971  137.7812  154.2197 F   0  0  0  0  0  0  0  0  0  0  0  0
  151.5788  139.2588  155.7522 F   0  0  0  0  0  0  0  0  0  0  0  0
  149.4738  140.7390  154.7379 C   0  0  0  0  0  0  0  0  0  0  0  0
  148.5057  141.5956  154.3448 N   0  5  0  0  0  0  0  0  0  0  0  0
  147.3646  141.0755  153.8109 C   0  0  0  0  0  0  0  0  0  0  0  0
  146.4397  141.7979  153.4372 O   0  0  0  0  0  0  0  0  0  0  0  0
  144.5219  135.6427  151.2183 C   0  0  0  0  0  0  0  0  0  0  0  0
  144.1338  131.7547  148.7389 H   0  0  0  0  0  0  0  0  0  0  0  0
  142.8930  132.9870  148.6113 H   0  0  0  0  0  0  0  0  0  0  0  0
  142.9439  131.9301  150.0229 H   0  0  0  0  0  0  0  0  0  0  0  0
  145.2018  132.8740  150.6176 H   0  0  0  0  0  0  0  0  0  0  0  0
  145.0899  134.0275  149.3103 H   0  0  0  0  0  0  0  0  0  0  0  0
  142.7519  132.8303  151.9437 H   0  0  0  0  0  0  0  0  0  0  0  0
  144.2018  133.3961  152.7504 H   0  0  0  0  0  0  0  0  0  0  0  0
  141.5332  134.8855  152.5170 H   0  0  0  0  0  0  0  0  0  0  0  0
  142.1803  134.1639  153.9707 H   0  0  0  0  0  0  0  0  0  0  0  0
  142.5548  136.6430  153.9109 H   0  0  0  0  0  0  0  0  0  0  0  0
  144.0622  135.7572  153.9965 H   0  0  0  0  0  0  0  0  0  0  0  0
  142.7871  136.9037  151.4721 H   0  0  0  0  0  0  0  0  0  0  0  0
  144.0183  138.7185  152.0674 H   0  0  0  0  0  0  0  0  0  0  0  0
  145.4192  139.8679  152.8132 H   0  0  0  0  0  0  0  0  0  0  0  0
  148.2319  137.7461  153.9585 H   0  0  0  0  0  0  0  0  0  0  0  0
  150.3591  141.2268  155.1987 H   0  0  0  0  0  0  0  0  0  0  0  0
  145.4451  135.3986  151.7467 H   0  0  0  0  0  0  0  0  0  0  0  0
  144.8125  136.1210  150.2836 H   0  0  0  0  0  0  0  0  0  0  0  0
  142.9264  134.6627  150.4453 H   0  0  0  0  0  0  0  0  0  0  0  0
  1  2  1  0  0  0  0
  1 24  1  0  0  0  0
  1 25  1  0  0  0  0
  1 26  1  0  0  0  0
  2  3  1  0  0  0  0
  2 27  1  0  0  0  0
  2 28  1  0  0  0  0
  3 23  1  0  0  0  0
  3  4  1  0  0  0  0
  3 42  1  0  0  0  0
  4  5  1  0  0  0  0
  4 29  1  0  0  0  0
  4 30  1  0  0  0  0
  5  6  1  0  0  0  0
  5 31  1  0  0  0  0
  5 32  1  0  0  0  0
  6  7  1  0  0  0  0
  6 33  1  0  0  0  0
  6 34  1  0  0  0  0
  7  8  1  0  0  0  0
  7 23  1  0  0  0  0
  7 35  1  0  0  0  0
  8  9  1  0  0  0  0
  8 36  1  0  0  0  0
  9 10  2  0  0  0  0
  9 11  1  0  0  0  0
 11 12  1  0  0  0  0
 11 37  1  0  0  0  0
 12 21  1  0  0  0  0
 12 13  2  0  0  0  0
 13 14  1  0  0  0  0
 13 38  1  0  0  0  0
 14 15  1  0  0  0  0
 14 19  2  0  0  0  0
 15 16  1  0  0  0  0
 15 17  1  0  0  0  0
 15 18  1  0  0  0  0
 19 20  1  0  0  0  0
 19 39  1  0  0  0  0
 20 21  1  0  0  0  0
 21 22  2  0  0  0  0
 23 40  1  0  0  0  0
 23 41  1  0  0  0  0
M  CHG  1   3   1
M  CHG  1  20  -1
M  END
> <s_m_source_file>
AV-unprocessed.smi

> <i_m_source_file_index>
1726

> <i_lp_mmshare_version>
43012

> <i_f3d_flags>
0

> <s_epik_input>
W0NIM11bQ0gyXU4xW0NIMl1bQ0gyXVtDSDJdW0NASF0oW0NIMl0xKVtOSF1DKD1PKVtOSF1jMltjSF1jKEMoRikoRilGKVtjSF1bbkhdYzI9Tw==

> <s_epik_cmdline>
J2VwaWtfcHl0aG9uJywgJy1waCcsICc3LjAnLCAnLXRuJywgJzgnLCAnLW1hJywgJzIwMCcsICctbWV0YWxfYmluZGluZycsICctaW1hZScsICc8aW5maWxlLm1hZT4nLCAnLW9tYWUnLCAnPG91dGZpbGUubWFlPic=

> <r_lp_tautomer_probability>
1

> <r_epik_Ionization_Penalty>
3.01007

> <r_epik_Ionization_Penalty_Charging>
0.14897

> <r_epik_Ionization_Penalty_Neutral>
2.8611

> <r_epik_State_Penalty>
2.85632

> <r_epik_Charging_Adjusted_Penalty>
3.00529

> <i_epik_Tot_Q>
0

> <i_epik_Tot_abs_Q>
2

> <r_epik_Metal_State_Penalty>
0.443826

> <b_epik_Metal_Only>
1

> <s_lp_Force_Field>
OPLS_2005

> <r_lp_Energy>
27.5117

> <b_lp_Chiralities_Consistent>
1

> <s_lp_Variant>
AV-unprocessed.smi:1726-5

> <Gold.Version>
5.8.1

> <Gold.Id.Protein>
6NUR|6NUR_protein|mol2

> <Gold.PLP.Fitness>
49.5144

> <Gold.PLP.PLP>
-38.0884

> <Gold.PLP.part.hbond>
-4.3481

> <Gold.PLP.part.metal>
0.0000

> <Gold.PLP.part.buried>
-0.5032

> <Gold.PLP.part.nonpolar>
-35.6356

> <Gold.PLP.part.repulsive>
0.5631

> <Gold.PLP.ligand.clash>
0.0000

> <Gold.PLP.ligand.torsion>
0.2498

> <Gold.PLP.Chemscore.Hbond>
3.9500

> <Gold.PLP.Chemscore.CHOScore>
0.0000

> <Gold.PLP.Chemscore.Metal>
0.0000

> <Gold.Chemscore.Hbonds>
donor molecule, donor type, donor heavy atom, donor atom, acceptor molecule, acceptor atom, score
      L1  H     3    42       P1 10186  1.56
      L1  H     8    36       P1 10175  0.99
      L1  H    11    37       P1 10175  1.00

> <Gold.PLP.Chemscore.Internal.Correction>
0.0757

> <Gold.Rescore>
     Score         DG    S(hbond)    S(metal)    S(lipo)     H(rot)  DE(clash)    DE(int)     intcor
     15.71     -18.76       2.33        0.00      75.05       1.28       0.55       2.50       ----

> <Gold.Chemscore.Fitness>
15.7070

> <Gold.Chemscore.DG>
-18.7592

> <Gold.Chemscore.ZeroCoef>
-5.4800

> <Gold.Chemscore.Hbond>
2.3277

> <Gold.Chemscore.Metal>
0.0000

> <Gold.Chemscore.Lipo>
75.0486

> <Gold.Chemscore.Internal_Hbond>
0.0000

> <Gold.Chemscore.DEClash>
0.5518

> <Gold.Chemscore.DEInternal>
2.5004

> <Gold.Chemscore.Rot>
1.2796

> <Gold.Chemscore.Internal.Correction>
   9.000000E+99

> <Gold.Chemscore.Hbonds>
donor molecule, donor type, donor heavy atom, donor atom, acceptor molecule, acceptor atom, score
      L1  H     3    42       P1 10186  0.30
      L1  H     8    36       P1 10175  0.94
      L1  H    11    37       P1 10175  0.95

> <Gold.Chemscore.Hbond.Weighted>
-7.7744

> <Gold.Chemscore.Metal.Weighted>
-0.0000

> <Gold.Chemscore.Lipo.Weighted>
-8.7807

> <Gold.Chemscore.Internal_Hbond.Weighted>
0.0000

> <Gold.Chemscore.DEClash.Weighted>
0.5518

> <Gold.Chemscore.DEInternal.Weighted>
2.5004

> <Gold.Chemscore.Rot.Weighted>
3.2759

> <Gold.Chemscore.Internal.Correction.Weighted>
   9.000000E+99

> <Gold.Protein.RotatedTorsions>
[ 6907 6896 6895 6894 ] final   13.54 input  -60.11 | X-H torsion
[ 7974 7965 7964 7962 ] final  -76.22 input  175.53 | X-H torsion
[ 8008 7997 7996 7995 ] final  145.10 input   59.86 | X-H torsion
[ 10167 10162 10161 10158 ] final -131.13 input  -65.29 | X-H torsion
[ 10718 10713 10712 10709 ] final   85.74 input   66.30 | X-H torsion
[ 10763 10752 10751 10750 ] final  146.43 input  -60.55 | X-H torsion
[ 11005 11000 10999 10996 ] final  -76.34 input  -57.11 | X-H torsion

> <Gold.Protein.ActiveResidues>
 VAL166  LYS551  ARG553  GLY616  TRP617  ASP618  TYR619  PRO620  LYS621  CYS622 
 ASP623  PHE694  ASN695  SER759  ASP760  ASP761  ALA762  ILE779  LEU786  VAL792 
 PHE793  MET794  SER795  GLU796  ALA797  LYS798  CYS799  TRP800  GLU811  SER814 

> <Gold.Protein.RotatedAtoms>
  151.7880  135.0743  160.0382 H   0  0  0  0  0  0  0  0  0  0  0  0  # atno 6907 bound_to 6896
  152.3177  133.5815  159.5731 H   0  0  0  0  0  0  0  0  0  0  0  0  # atno 6908 bound_to 6896
  150.7353  133.9974  159.3669 H   0  0  0  0  0  0  0  0  0  0  0  0  # atno 6909 bound_to 6896
  145.6158  140.9375  143.1165 H   0  0  0  0  0  0  0  0  0  0  0  0  # atno 7974 bound_to 7965
  156.2892  140.2218  156.5160 H   0  0  0  0  0  0  0  0  0  0  0  0  # atno 8008 bound_to 7997
  154.7569  140.0476  157.0962 H   0  0  0  0  0  0  0  0  0  0  0  0  # atno 8009 bound_to 7997
  155.0040  140.3105  155.4859 H   0  0  0  0  0  0  0  0  0  0  0  0  # atno 8010 bound_to 7997
  139.9221  143.6370  152.2551 H   0  0  0  0  0  0  0  0  0  0  0  0  # atno 10167 bound_to 10162
  157.6919  131.0187  150.2868 H   0  0  0  0  0  0  0  0  0  0  0  0  # atno 10718 bound_to 10713
  154.0217  135.2905  155.3380 H   0  0  0  0  0  0  0  0  0  0  0  0  # atno 10763 bound_to 10752
  154.7042  135.5176  153.8574 H   0  0  0  0  0  0  0  0  0  0  0  0  # atno 10764 bound_to 10752
  153.0678  135.6637  154.0438 H   0  0  0  0  0  0  0  0  0  0  0  0  # atno 10765 bound_to 10752
  141.1653  133.6980  156.7654 H   0  0  0  0  0  0  0  0  0  0  0  0  # atno 11005 bound_to 11000
  144.7251  139.7901  143.7368 LP  0  0  0  0  0  0  0  0  0  0  0  0  # atno 17320 bound_to 7965
  146.1470  139.4542  143.0073 LP  0  0  0  0  0  0  0  0  0  0  0  0  # atno 17321 bound_to 7965
  139.6852  144.7652  151.1536 LP  0  0  0  0  0  0  0  0  0  0  0  0  # atno 17342 bound_to 10162
  140.7659  143.5667  150.9040 LP  0  0  0  0  0  0  0  0  0  0  0  0  # atno 17343 bound_to 10162
  156.3406  130.3815  149.7412 LP  0  0  0  0  0  0  0  0  0  0  0  0  # atno 17370 bound_to 10713
  156.4922  130.8090  151.3099 LP  0  0  0  0  0  0  0  0  0  0  0  0  # atno 17371 bound_to 10713
  140.2503  134.8546  157.3660 LP  0  0  0  0  0  0  0  0  0  0  0  0  # atno 17394 bound_to 11000
  140.1709  134.4609  155.7832 LP  0  0  0  0  0  0  0  0  0  0  0  0  # atno 17395 bound_to 11000

$$$$
