AV-unprocessed.smi:470|AV-procd|sdf|2655|dock3
  -GOLD-   2262023 63D 1   1.00000     0.00000
 Structure written by MMmdl.
 33 34  0  0  0  0  0  0  0  0  1 V2000
  144.8982  141.4692  154.8782 N   0  0  0  0  0  0  0  0  0  0  0  0
  146.0358  142.0643  155.2474 C   0  0  0  0  0  0  0  0  0  0  0  0
  146.1790  142.5810  156.3534 O   0  0  0  0  0  0  0  0  0  0  0  0
  147.1760  142.0857  154.2278 C   0  0  0  0  0  0  0  0  0  0  0  0
  148.4052  141.4507  154.8092 C   0  0  0  0  0  0  0  0  0  0  0  0
  149.0794  140.3564  154.3236 C   0  0  0  0  0  0  0  0  0  0  0  0
  150.4681  139.9578  155.2996 S   0  0  0  0  0  0  0  0  0  0  0  0
  150.0547  141.2910  156.3660 C   0  0  0  0  0  0  0  0  0  0  0  0
  150.8614  141.6379  157.4819 N   0  0  0  0  0  0  0  0  0  0  0  0
  152.0133  141.0989  157.9322 C   0  0  0  0  0  0  0  0  0  0  0  0
  152.5040  140.1381  157.3414 O   0  0  0  0  0  0  0  0  0  0  0  0
  152.7262  141.6477  159.1859 C   0  0  1  0  0  0  0  0  0  0  0  0
  151.9257  142.7893  159.8596 C   0  0  0  0  0  0  0  0  0  0  0  0
  152.5144  143.1777  161.2046 C   0  0  0  0  0  0  0  0  0  0  0  0
  153.3762  142.4016  161.8843 C   0  0  0  0  0  0  0  0  0  0  0  0
  153.8531  141.0485  161.3859 C   0  0  0  0  0  0  0  0  0  0  0  0
  153.0030  140.5290  160.2114 C   0  0  0  0  0  0  0  0  0  0  0  0
  148.9794  141.9788  155.9696 N   0  0  0  0  0  0  0  0  0  0  0  0
  144.1231  141.4254  155.5237 H   0  0  0  0  0  0  0  0  0  0  0  0
  144.8196  141.0582  153.9591 H   0  0  0  0  0  0  0  0  0  0  0  0
  146.8623  141.5686  153.3197 H   0  0  0  0  0  0  0  0  0  0  0  0
  147.3787  143.1174  153.9383 H   0  0  0  0  0  0  0  0  0  0  0  0
  148.8486  139.7695  153.4470 H   0  0  0  0  0  0  0  0  0  0  0  0
  150.5023  142.3993  158.0393 H   0  0  0  0  0  0  0  0  0  0  0  0
  153.6728  142.0961  158.8880 H   0  0  0  0  0  0  0  0  0  0  0  0
  151.9207  143.6683  159.2143 H   0  0  0  0  0  0  0  0  0  0  0  0
  150.8845  142.5105  160.0261 H   0  0  0  0  0  0  0  0  0  0  0  0
  152.1985  144.1232  161.6206 H   0  0  0  0  0  0  0  0  0  0  0  0
  153.7706  142.7390  162.8316 H   0  0  0  0  0  0  0  0  0  0  0  0
  154.8947  141.1495  161.0791 H   0  0  0  0  0  0  0  0  0  0  0  0
  153.8306  140.3322  162.2073 H   0  0  0  0  0  0  0  0  0  0  0  0
  152.0547  140.1486  160.5947 H   0  0  0  0  0  0  0  0  0  0  0  0
  153.5037  139.6792  159.7461 H   0  0  0  0  0  0  0  0  0  0  0  0
  1  2  1  0  0  0  0
  1 19  1  0  0  0  0
  1 20  1  0  0  0  0
  2  3  2  0  0  0  0
  2  4  1  0  0  0  0
  4  5  1  0  0  0  0
  4 21  1  0  0  0  0
  4 22  1  0  0  0  0
  5 18  1  0  0  0  0
  5  6  2  0  0  0  0
  6  7  1  0  0  0  0
  6 23  1  0  0  0  0
  7  8  1  0  0  0  0
  8  9  1  0  0  0  0
  8 18  2  0  0  0  0
  9 10  1  0  0  0  0
  9 24  1  0  0  0  0
 10 11  2  0  0  0  0
 10 12  1  0  0  0  0
 12 17  1  0  0  0  0
 12 13  1  0  0  0  0
 12 25  1  0  0  0  0
 13 14  1  0  0  0  0
 13 26  1  0  0  0  0
 13 27  1  0  0  0  0
 14 15  2  0  0  0  0
 14 28  1  0  0  0  0
 15 16  1  0  0  0  0
 15 29  1  0  0  0  0
 16 17  1  0  0  0  0
 16 30  1  0  0  0  0
 16 31  1  0  0  0  0
 17 32  1  0  0  0  0
 17 33  1  0  0  0  0
M  END
> <s_m_source_file>
AV-unprocessed.smi

> <i_m_source_file_index>
470

> <i_lp_mmshare_version>
43012

> <i_f3d_flags>
0

> <s_epik_input>
W05IMl1DKD1PKVtDSDJdYzFbY0hdc2MobjEpW05IXUMoPU8pW0NAQEhdMltDSDJdW0NIXT1bQ0hdW0NIMl1bQ0gyXTI=

> <s_epik_cmdline>
J2VwaWtfcHl0aG9uJywgJy1waCcsICc3LjAnLCAnLXRuJywgJzgnLCAnLW1hJywgJzIwMCcsICctbWV0YWxfYmluZGluZycsICctaW1hZScsICc8aW5maWxlLm1hZT4nLCAnLW9tYWUnLCAnPG91dGZpbGUubWFlPic=

> <r_lp_tautomer_probability>
1

> <r_epik_Ionization_Penalty>
0.00025496

> <r_epik_Ionization_Penalty_Charging>
0

> <r_epik_Ionization_Penalty_Neutral>
0.00025496

> <r_epik_State_Penalty>
-0

> <r_epik_Charging_Adjusted_Penalty>
0

> <i_epik_Tot_Q>
0

> <i_epik_Tot_abs_Q>
0

> <r_epik_Metal_State_Penalty>
0.149391

> <b_epik_Metal_Only>
0

> <s_lp_Force_Field>
OPLS_2005

> <r_lp_Energy>
12.0987

> <b_lp_Chiralities_Consistent>
1

> <s_lp_Variant>
AV-unprocessed.smi:470-2

> <Gold.Version>
5.8.1

> <Gold.Id.Protein>
6NUR|6NUR_protein|mol2

> <Gold.PLP.Fitness>
44.7069

> <Gold.PLP.PLP>
-35.8314

> <Gold.PLP.part.hbond>
-2.0000

> <Gold.PLP.part.metal>
0.0000

> <Gold.PLP.part.buried>
-3.9583

> <Gold.PLP.part.nonpolar>
-32.1338

> <Gold.PLP.part.repulsive>
2.3199

> <Gold.PLP.ligand.clash>
0.0000

> <Gold.PLP.ligand.torsion>
0.0751

> <Gold.PLP.Chemscore.Hbond>
2.0000

> <Gold.PLP.Chemscore.CHOScore>
0.9992

> <Gold.PLP.Chemscore.Metal>
0.0000

> <Gold.Chemscore.Hbonds>
donor molecule, donor type, donor heavy atom, donor atom, acceptor molecule, acceptor atom, score
      L1  H     1    20       P1 10175  0.96
      P1  H  7997  8009       L1    11  1.00
      L1  C     6    23       P1  7957  1.00

> <Gold.PLP.Chemscore.Internal.Correction>
0.0281

> <Gold.Rescore>
     Score         DG    S(hbond)    S(metal)    S(lipo)     H(rot)  DE(clash)    DE(int)     intcor
     13.71     -17.35       1.92        0.00      88.13       1.90       1.08       2.57       ----

> <Gold.Chemscore.Fitness>
13.7081

> <Gold.Chemscore.DG>
-17.3547

> <Gold.Chemscore.ZeroCoef>
-5.4800

> <Gold.Chemscore.Hbond>
1.9218

> <Gold.Chemscore.Metal>
0.0000

> <Gold.Chemscore.Lipo>
88.1344

> <Gold.Chemscore.Internal_Hbond>
0.0000

> <Gold.Chemscore.DEClash>
1.0782

> <Gold.Chemscore.DEInternal>
2.5684

> <Gold.Chemscore.Rot>
1.8968

> <Gold.Chemscore.Internal.Correction>
   9.000000E+99

> <Gold.Chemscore.Hbonds>
donor molecule, donor type, donor heavy atom, donor atom, acceptor molecule, acceptor atom, score
      L1  H     1    20       P1 10175  0.72
      P1  H  7997  8009       L1    11  0.91

> <Gold.Chemscore.Hbond.Weighted>
-6.4187

> <Gold.Chemscore.Metal.Weighted>
-0.0000

> <Gold.Chemscore.Lipo.Weighted>
-10.3117

> <Gold.Chemscore.Internal_Hbond.Weighted>
0.0000

> <Gold.Chemscore.DEClash.Weighted>
1.0782

> <Gold.Chemscore.DEInternal.Weighted>
2.5684

> <Gold.Chemscore.Rot.Weighted>
4.8558

> <Gold.Chemscore.Internal.Correction.Weighted>
   9.000000E+99

> <Gold.Protein.RotatedTorsions>
[ 6907 6896 6895 6894 ] final  134.67 input  -60.11 | X-H torsion
[ 7974 7965 7964 7962 ] final   22.25 input  175.53 | X-H torsion
[ 8008 7997 7996 7995 ] final -174.49 input   59.86 | X-H torsion
[ 10167 10162 10161 10158 ] final   -9.29 input  -65.29 | X-H torsion
[ 10718 10713 10712 10709 ] final   54.26 input   66.30 | X-H torsion
[ 10763 10752 10751 10750 ] final -128.02 input  -60.55 | X-H torsion
[ 11005 11000 10999 10996 ] final  138.23 input  -57.11 | X-H torsion

> <Gold.Protein.ActiveResidues>
 VAL166  LYS551  ARG553  GLY616  TRP617  ASP618  TYR619  PRO620  LYS621  CYS622 
 ASP623  PHE694  ASN695  SER759  ASP760  ASP761  ALA762  ILE779  LEU786  VAL792 
 PHE793  MET794  SER795  GLU796  ALA797  LYS798  CYS799  TRP800  GLU811  SER814 

> <Gold.Protein.RotatedAtoms>
  152.3087  133.5730  159.5666 H   0  0  0  0  0  0  0  0  0  0  0  0  # atno 6907 bound_to 6896
  150.7312  134.0184  159.3702 H   0  0  0  0  0  0  0  0  0  0  0  0  # atno 6908 bound_to 6896
  151.8078  135.0690  160.0460 H   0  0  0  0  0  0  0  0  0  0  0  0  # atno 6909 bound_to 6896
  146.2037  139.7912  142.8742 H   0  0  0  0  0  0  0  0  0  0  0  0  # atno 7974 bound_to 7965
  155.9707  140.1162  157.0814 H   0  0  0  0  0  0  0  0  0  0  0  0  # atno 8008 bound_to 7997
  154.4156  140.1164  156.5370 H   0  0  0  0  0  0  0  0  0  0  0  0  # atno 8009 bound_to 7997
  155.6600  140.3473  155.4781 H   0  0  0  0  0  0  0  0  0  0  0  0  # atno 8010 bound_to 7997
  140.7083  143.5874  150.8928 H   0  0  0  0  0  0  0  0  0  0  0  0  # atno 10167 bound_to 10162
  157.5241  130.8585  149.8598 H   0  0  0  0  0  0  0  0  0  0  0  0  # atno 10718 bound_to 10713
  154.8755  135.3942  154.3689 H   0  0  0  0  0  0  0  0  0  0  0  0  # atno 10763 bound_to 10752
  153.4452  135.7027  153.6149 H   0  0  0  0  0  0  0  0  0  0  0  0  # atno 10764 bound_to 10752
  153.4713  135.3790  155.2361 H   0  0  0  0  0  0  0  0  0  0  0  0  # atno 10765 bound_to 10752
  140.0169  134.9414  157.0395 H   0  0  0  0  0  0  0  0  0  0  0  0  # atno 11005 bound_to 11000
  145.3396  141.0285  143.3400 LP  0  0  0  0  0  0  0  0  0  0  0  0  # atno 17320 bound_to 7965
  144.8741  139.4996  143.6754 LP  0  0  0  0  0  0  0  0  0  0  0  0  # atno 17321 bound_to 7965
  139.9600  143.6174  152.3005 LP  0  0  0  0  0  0  0  0  0  0  0  0  # atno 17342 bound_to 10162
  139.6724  144.7660  151.1759 LP  0  0  0  0  0  0  0  0  0  0  0  0  # atno 17343 bound_to 10162
  156.0374  130.3747  150.1524 LP  0  0  0  0  0  0  0  0  0  0  0  0  # atno 17370 bound_to 10713
  156.9711  130.9835  151.3458 LP  0  0  0  0  0  0  0  0  0  0  0  0  # atno 17371 bound_to 10713
  140.4455  134.1637  155.7177 LP  0  0  0  0  0  0  0  0  0  0  0  0  # atno 17394 bound_to 11000
  141.1749  133.8535  157.1454 LP  0  0  0  0  0  0  0  0  0  0  0  0  # atno 17395 bound_to 11000

$$$$
