AV-unprocessed.smi:1971|AV-procd|sdf|7964|dock4
  -GOLD-   2272010133D 1   1.00000     0.00000
 Structure written by MMmdl.
 44 45  0  0  0  0  0  0  0  0  2 V2000
  150.9653  141.5419  156.1752 C   0  0  0  0  0  0  0  0  0  0  0  0
  151.6018  140.1819  155.8541 C   0  0  0  0  0  0  0  0  0  0  0  0
  151.0582  139.5969  154.6257 N   0  0  0  0  0  0  0  0  0  0  0  0
  151.6850  138.3147  154.2930 C   0  0  0  0  0  0  0  0  0  0  0  0
  151.2556  137.1914  155.2602 C   0  0  0  0  0  0  0  0  0  0  0  0
  149.7771  137.0380  155.2456 N   0  3  0  0  0  0  0  0  0  0  0  0
  149.2360  135.8763  156.0107 C   0  0  2  0  0  0  0  0  0  0  0  0
  149.8160  135.7703  157.4389 C   0  0  0  0  0  0  0  0  0  0  0  0
  149.3990  134.5701  155.2043 C   0  0  0  0  0  0  0  0  0  0  0  0
  148.6460  134.6075  153.9547 N   0  0  0  0  0  0  0  0  0  0  0  0
  147.6000  133.8181  153.6738 C   0  0  0  0  0  0  0  0  0  0  0  0
  147.1752  132.9592  154.4470 O   0  0  0  0  0  0  0  0  0  0  0  0
  147.0938  134.0891  152.4578 N   0  0  0  0  0  0  0  0  0  0  0  0
  145.9591  133.5085  151.8320 C   0  0  0  0  0  0  0  0  0  0  0  0
  145.6437  132.2096  151.8978 N   0  0  0  0  0  0  0  0  0  0  0  0
  144.4715  131.9182  151.1956 C   0  0  0  0  0  0  0  0  0  0  0  0
  143.9031  133.0149  150.5970 C   0  0  0  0  0  0  0  0  0  0  0  0
  144.8216  134.4665  150.8952 S   0  0  0  0  0  0  0  0  0  0  0  0
  149.1235  138.3293  155.5748 C   0  0  0  0  0  0  0  0  0  0  0  0
  149.6003  139.4336  154.6081 C   0  0  0  0  0  0  0  0  0  0  0  0
  151.4816  142.0145  157.0109 H   0  0  0  0  0  0  0  0  0  0  0  0
  149.9171  141.4481  156.4576 H   0  0  0  0  0  0  0  0  0  0  0  0
  151.0294  142.2204  155.3239 H   0  0  0  0  0  0  0  0  0  0  0  0
  152.6721  140.3390  155.7148 H   0  0  0  0  0  0  0  0  0  0  0  0
  151.4975  139.5075  156.7032 H   0  0  0  0  0  0  0  0  0  0  0  0
  151.4077  138.0448  153.2731 H   0  0  0  0  0  0  0  0  0  0  0  0
  152.7702  138.4237  154.2958 H   0  0  0  0  0  0  0  0  0  0  0  0
  151.7328  136.2628  154.9497 H   0  0  0  0  0  0  0  0  0  0  0  0
  151.6127  137.4026  156.2683 H   0  0  0  0  0  0  0  0  0  0  0  0
  148.1616  136.0388  156.1099 H   0  0  0  0  0  0  0  0  0  0  0  0
  149.2925  135.0122  158.0217 H   0  0  0  0  0  0  0  0  0  0  0  0
  149.7206  136.7082  157.9854 H   0  0  0  0  0  0  0  0  0  0  0  0
  150.8703  135.4937  157.4279 H   0  0  0  0  0  0  0  0  0  0  0  0
  150.4506  134.4022  154.9676 H   0  0  0  0  0  0  0  0  0  0  0  0
  149.0695  133.7177  155.7996 H   0  0  0  0  0  0  0  0  0  0  0  0
  148.9346  135.2835  153.2626 H   0  0  0  0  0  0  0  0  0  0  0  0
  147.5628  134.8047  151.9227 H   0  0  0  0  0  0  0  0  0  0  0  0
  144.1123  130.8999  151.1742 H   0  0  0  0  0  0  0  0  0  0  0  0
  143.0029  133.0562  150.0020 H   0  0  0  0  0  0  0  0  0  0  0  0
  148.0422  138.2239  155.4807 H   0  0  0  0  0  0  0  0  0  0  0  0
  149.3181  138.6077  156.6103 H   0  0  0  0  0  0  0  0  0  0  0  0
  149.1058  140.3772  154.8353 H   0  0  0  0  0  0  0  0  0  0  0  0
  149.2975  139.1770  153.5920 H   0  0  0  0  0  0  0  0  0  0  0  0
  149.5297  136.8589  154.2830 H   0  0  0  0  0  0  0  0  0  0  0  0
  1  2  1  0  0  0  0
  1 21  1  0  0  0  0
  1 22  1  0  0  0  0
  1 23  1  0  0  0  0
  2  3  1  0  0  0  0
  2 24  1  0  0  0  0
  2 25  1  0  0  0  0
  3 20  1  0  0  0  0
  3  4  1  0  0  0  0
  4  5  1  0  0  0  0
  4 26  1  0  0  0  0
  4 27  1  0  0  0  0
  5  6  1  0  0  0  0
  5 28  1  0  0  0  0
  5 29  1  0  0  0  0
  6  7  1  0  0  0  0
  6 19  1  0  0  0  0
  6 44  1  0  0  0  0
  7  8  1  0  0  0  0
  7  9  1  0  0  0  0
  7 30  1  0  0  0  0
  8 31  1  0  0  0  0
  8 32  1  0  0  0  0
  8 33  1  0  0  0  0
  9 10  1  0  0  0  0
  9 34  1  0  0  0  0
  9 35  1  0  0  0  0
 10 11  1  0  0  0  0
 10 36  1  0  0  0  0
 11 12  2  0  0  0  0
 11 13  1  0  0  0  0
 13 14  1  0  0  0  0
 13 37  1  0  0  0  0
 14 18  1  0  0  0  0
 14 15  2  0  0  0  0
 15 16  1  0  0  0  0
 16 17  2  0  0  0  0
 16 38  1  0  0  0  0
 17 18  1  0  0  0  0
 17 39  1  0  0  0  0
 19 20  1  0  0  0  0
 19 40  1  0  0  0  0
 19 41  1  0  0  0  0
 20 42  1  0  0  0  0
 20 43  1  0  0  0  0
M  CHG  1   6   1
M  END
> <s_m_source_file>
AV-unprocessed.smi

> <i_m_source_file_index>
1971

> <i_lp_mmshare_version>
43012

> <i_f3d_flags>
0

> <s_epik_input>
W0NIM11bQ0gyXU4xW0NIMl1bQ0gyXU4oW0NIMl1bQ0gyXTEpW0NASF0oW0NIM10pW0NIMl1bTkhdQyg9TylbTkhdYzJuW2NIXVtjSF1zMg==

> <s_epik_cmdline>
J2VwaWtfcHl0aG9uJywgJy1waCcsICc3LjAnLCAnLXRuJywgJzgnLCAnLW1hJywgJzIwMCcsICctbWV0YWxfYmluZGluZycsICctaW1hZScsICc8aW5maWxlLm1hZT4nLCAnLW9tYWUnLCAnPG91dGZpbGUubWFlPic=

> <r_epik_Ionization_Penalty>
0.150098

> <r_epik_Ionization_Penalty_Charging>
0.148467

> <r_epik_Ionization_Penalty_Neutral>
0.00163072

> <r_epik_State_Penalty>
0.974087

> <r_epik_Charging_Adjusted_Penalty>
1.12255

> <i_epik_Tot_Q>
1

> <i_epik_Tot_abs_Q>
1

> <r_epik_Metal_State_Penalty>
1.00741

> <b_epik_Metal_Only>
0

> <s_lp_Force_Field>
OPLS_2005

> <r_lp_Energy>
20.3005

> <b_lp_Chiralities_Consistent>
1

> <s_lp_Variant>
AV-unprocessed.smi:1971-3

> <Gold.Version>
5.8.1

> <Gold.Id.Protein>
6NUR|6NUR_protein|mol2

> <Gold.PLP.Fitness>
43.0313

> <Gold.PLP.PLP>
-32.4548

> <Gold.PLP.part.hbond>
-3.0000

> <Gold.PLP.part.metal>
0.0000

> <Gold.PLP.part.buried>
-5.5091

> <Gold.PLP.part.nonpolar>
-24.0811

> <Gold.PLP.part.repulsive>
0.2789

> <Gold.PLP.ligand.clash>
0.0000

> <Gold.PLP.ligand.torsion>
0.7380

> <Gold.PLP.Chemscore.Hbond>
2.9760

> <Gold.PLP.Chemscore.CHOScore>
1.0000

> <Gold.PLP.Chemscore.Metal>
0.0000

> <Gold.Chemscore.Hbonds>
donor molecule, donor type, donor heavy atom, donor atom, acceptor molecule, acceptor atom, score
      L1  H    10    36       P1  7948  1.00
      L1  H    13    37       P1  7948  0.98
      P1  H  7989  7998       L1     3  0.85
      L1  C    17    39       P1 10186  1.00

> <Gold.PLP.Chemscore.Internal.Correction>
0.1245

> <Gold.Rescore>
     Score         DG    S(hbond)    S(metal)    S(lipo)     H(rot)  DE(clash)    DE(int)     intcor
     14.53     -15.46       1.94        0.00      69.15       1.79       0.01       0.92       ----

> <Gold.Chemscore.Fitness>
14.5305

> <Gold.Chemscore.DG>
-15.4582

> <Gold.Chemscore.ZeroCoef>
-5.4800

> <Gold.Chemscore.Hbond>
1.9399

> <Gold.Chemscore.Metal>
0.0000

> <Gold.Chemscore.Lipo>
69.1530

> <Gold.Chemscore.Internal_Hbond>
0.0000

> <Gold.Chemscore.DEClash>
0.0115

> <Gold.Chemscore.DEInternal>
0.9162

> <Gold.Chemscore.Rot>
1.7937

> <Gold.Chemscore.Internal.Correction>
   9.000000E+99

> <Gold.Chemscore.Hbonds>
donor molecule, donor type, donor heavy atom, donor atom, acceptor molecule, acceptor atom, score
      L1  H    10    36       P1  7948  0.50
      L1  H    13    37       P1  7948  0.65
      P1  H  7989  7998       L1     3  0.09

> <Gold.Chemscore.Hbond.Weighted>
-6.4793

> <Gold.Chemscore.Metal.Weighted>
-0.0000

> <Gold.Chemscore.Lipo.Weighted>
-8.0909

> <Gold.Chemscore.Internal_Hbond.Weighted>
0.0000

> <Gold.Chemscore.DEClash.Weighted>
0.0115

> <Gold.Chemscore.DEInternal.Weighted>
0.9162

> <Gold.Chemscore.Rot.Weighted>
4.5919

> <Gold.Chemscore.Internal.Correction.Weighted>
   9.000000E+99

> <Gold.Protein.RotatedTorsions>
[ 6907 6896 6895 6894 ] final  -57.88 input  -60.11 | X-H torsion
[ 7974 7965 7964 7962 ] final   39.05 input  175.53 | X-H torsion
[ 8008 7997 7996 7995 ] final  134.08 input   59.86 | X-H torsion
[ 10167 10162 10161 10158 ] final  -43.53 input  -65.29 | X-H torsion
[ 10718 10713 10712 10709 ] final  124.71 input   66.30 | X-H torsion
[ 10763 10752 10751 10750 ] final  134.20 input  -60.55 | X-H torsion
[ 11005 11000 10999 10996 ] final  146.37 input  -57.11 | X-H torsion

> <Gold.Protein.ActiveResidues>
 VAL166  LYS551  ARG553  GLY616  TRP617  ASP618  TYR619  PRO620  LYS621  CYS622 
 ASP623  PHE694  ASN695  SER759  ASP760  ASP761  ALA762  ILE779  LEU786  VAL792 
 PHE793  MET794  SER795  GLU796  ALA797  LYS798  CYS799  TRP800  GLU811  SER814 

> <Gold.Protein.RotatedAtoms>
  150.8051  134.7170  159.6636 H   0  0  0  0  0  0  0  0  0  0  0  0  # atno 6907 bound_to 6896
  152.4170  134.6021  160.0012 H   0  0  0  0  0  0  0  0  0  0  0  0  # atno 6908 bound_to 6896
  151.6247  133.3299  159.3131 H   0  0  0  0  0  0  0  0  0  0  0  0  # atno 6909 bound_to 6896
  146.1015  139.5698  142.9411 H   0  0  0  0  0  0  0  0  0  0  0  0  # atno 7974 bound_to 7965
  156.2997  140.2505  156.3358 H   0  0  0  0  0  0  0  0  0  0  0  0  # atno 8008 bound_to 7997
  154.9101  140.0403  157.1961 H   0  0  0  0  0  0  0  0  0  0  0  0  # atno 8009 bound_to 7997
  154.8413  140.2891  155.5661 H   0  0  0  0  0  0  0  0  0  0  0  0  # atno 8010 bound_to 7997
  140.6930  143.2978  151.3365 H   0  0  0  0  0  0  0  0  0  0  0  0  # atno 10167 bound_to 10162
  157.5563  131.1092  150.8616 H   0  0  0  0  0  0  0  0  0  0  0  0  # atno 10718 bound_to 10713
  153.8197  135.3118  155.3409 H   0  0  0  0  0  0  0  0  0  0  0  0  # atno 10763 bound_to 10752
  154.8017  135.4722  154.0296 H   0  0  0  0  0  0  0  0  0  0  0  0  # atno 10764 bound_to 10752
  153.1701  135.6876  153.8709 H   0  0  0  0  0  0  0  0  0  0  0  0  # atno 10765 bound_to 10752
  140.0787  134.9109  157.1466 H   0  0  0  0  0  0  0  0  0  0  0  0  # atno 11005 bound_to 11000
  145.5846  141.0378  143.2103 LP  0  0  0  0  0  0  0  0  0  0  0  0  # atno 17320 bound_to 7965
  144.7436  139.7381  143.7301 LP  0  0  0  0  0  0  0  0  0  0  0  0  # atno 17321 bound_to 7965
  139.6354  144.0641  152.2511 LP  0  0  0  0  0  0  0  0  0  0  0  0  # atno 17342 bound_to 10162
  140.0129  144.6210  150.7632 LP  0  0  0  0  0  0  0  0  0  0  0  0  # atno 17343 bound_to 10162
  156.9126  130.5286  149.5280 LP  0  0  0  0  0  0  0  0  0  0  0  0  # atno 17370 bound_to 10713
  156.0621  130.5672  150.9215 LP  0  0  0  0  0  0  0  0  0  0  0  0  # atno 17371 bound_to 10713
  140.3519  134.2589  155.7197 LP  0  0  0  0  0  0  0  0  0  0  0  0  # atno 17394 bound_to 11000
  141.2039  133.7900  157.0316 LP  0  0  0  0  0  0  0  0  0  0  0  0  # atno 17395 bound_to 11000

$$$$
