AV-unprocessed.smi:21|AV-procd|sdf|162|dock8
  -GOLD-   2262015403D 1   1.00000     0.00000
 Structure written by MMmdl.
 61 64  0  0  0  0  0  0  0  0  1 V2000
  153.2538  142.6691  162.3777 C   0  0  0  0  0  0  0  0  0  0  0  0
  152.2937  142.3713  161.3766 O   0  0  0  0  0  0  0  0  0  0  0  0
  152.8632  142.1623  160.0923 C   0  0  2  0  0  0  0  0  0  0  0  0
  151.8076  141.9054  159.0006 C   0  0  0  0  0  0  0  0  0  0  0  0
  152.1192  140.4921  158.4833 C   0  0  1  0  0  0  0  0  0  0  0  0
  151.7441  140.2795  156.9997 C   0  0  0  0  0  0  0  0  0  0  0  0
  151.9030  138.8940  156.5573 N   0  0  0  0  0  0  0  0  0  0  0  0
  152.5150  138.6592  155.2501 C   0  0  0  0  0  0  0  0  0  0  0  0
  151.2095  137.8792  157.1546 C   0  0  0  0  0  0  0  0  0  0  0  0
  150.7647  138.0679  158.4275 N   0  0  0  0  0  0  0  0  0  0  0  0
  150.0918  137.1128  159.0730 C   0  0  0  0  0  0  0  0  0  0  0  0
  149.7493  135.9004  158.6409 N   0  0  0  0  0  0  0  0  0  0  0  0
  150.1756  135.6963  157.3630 C   0  0  0  0  0  0  0  0  0  0  0  0
  150.9044  136.6173  156.5529 C   0  0  0  0  0  0  0  0  0  0  0  0
  151.1504  136.0352  155.3127 N   0  0  0  0  0  0  0  0  0  0  0  0
  150.6152  134.8490  155.3891 C   0  0  0  0  0  0  0  0  0  0  0  0
  149.9898  134.5698  156.5809 N   0  0  0  0  0  0  0  0  0  0  0  0
  149.3152  133.3347  156.9389 C   0  0  0  0  0  0  0  0  0  0  0  0
  149.4765  132.1871  155.9074 C   0  0  2  0  0  0  0  0  0  0  0  0
  148.6219  130.9778  156.3529 C   0  0  0  0  0  0  0  0  0  0  0  0
  147.2386  131.2497  156.2514 O   0  0  0  0  0  0  0  0  0  0  0  0
  150.9537  131.7974  155.6053 C   0  0  1  0  0  0  0  0  0  0  0  0
  151.7942  131.4874  156.8347 C   0  0  0  0  0  0  0  0  0  0  0  0
  152.9625  130.7167  156.2392 C   0  0  0  0  0  0  0  0  0  0  0  0
  152.3686  129.9066  155.2377 O   0  0  0  0  0  0  0  0  0  0  0  0
  151.1538  130.5050  154.7947 C   0  0  0  0  0  0  0  0  0  0  0  0
  153.5268  140.2877  158.7838 N   0  0  0  0  0  0  0  0  0  0  0  0
  153.9391  138.8907  158.7496 C   0  0  0  0  0  0  0  0  0  0  0  0
  153.6880  140.8725  160.1002 C   0  0  0  0  0  0  0  0  0  0  0  0
  153.5059  142.9980  159.8091 H   0  0  0  0  0  0  0  0  0  0  0  0
  151.5428  139.7959  159.0948 H   0  0  0  0  0  0  0  0  0  0  0  0
  152.7499  142.8135  163.3333 H   0  0  0  0  0  0  0  0  0  0  0  0
  153.8058  143.5813  162.1502 H   0  0  0  0  0  0  0  0  0  0  0  0
  153.9655  141.8510  162.4954 H   0  0  0  0  0  0  0  0  0  0  0  0
  150.7850  141.9664  159.3744 H   0  0  0  0  0  0  0  0  0  0  0  0
  151.9157  142.6467  158.2079 H   0  0  0  0  0  0  0  0  0  0  0  0
  150.7070  140.5829  156.8524 H   0  0  0  0  0  0  0  0  0  0  0  0
  152.3134  140.9354  156.3444 H   0  0  0  0  0  0  0  0  0  0  0  0
  153.1972  137.8093  155.2904 H   0  0  0  0  0  0  0  0  0  0  0  0
  153.0901  139.5242  154.9195 H   0  0  0  0  0  0  0  0  0  0  0  0
  151.7524  138.4582  154.4969 H   0  0  0  0  0  0  0  0  0  0  0  0
  149.7843  137.3561  160.0793 H   0  0  0  0  0  0  0  0  0  0  0  0
  150.6496  134.1484  154.5675 H   0  0  0  0  0  0  0  0  0  0  0  0
  149.6783  133.0156  157.9165 H   0  0  0  0  0  0  0  0  0  0  0  0
  148.2586  133.5721  157.0684 H   0  0  0  0  0  0  0  0  0  0  0  0
  149.0358  132.5262  154.9692 H   0  0  0  0  0  0  0  0  0  0  0  0
  148.8500  130.1050  155.7402 H   0  0  0  0  0  0  0  0  0  0  0  0
  148.8496  130.6915  157.3797 H   0  0  0  0  0  0  0  0  0  0  0  0
  146.7606  130.5133  156.6012 H   0  0  0  0  0  0  0  0  0  0  0  0
  151.4374  132.6166  155.0704 H   0  0  0  0  0  0  0  0  0  0  0  0
  152.1177  132.3797  157.3714 H   0  0  0  0  0  0  0  0  0  0  0  0
  151.2427  130.8497  157.5272 H   0  0  0  0  0  0  0  0  0  0  0  0
  153.6732  131.3989  155.7704 H   0  0  0  0  0  0  0  0  0  0  0  0
  153.4962  130.1183  156.9776 H   0  0  0  0  0  0  0  0  0  0  0  0
  150.3463  129.7937  154.9702 H   0  0  0  0  0  0  0  0  0  0  0  0
  151.2067  130.6991  153.7241 H   0  0  0  0  0  0  0  0  0  0  0  0
  154.9874  138.7944  159.0337 H   0  0  0  0  0  0  0  0  0  0  0  0
  153.8308  138.4744  157.7485 H   0  0  0  0  0  0  0  0  0  0  0  0
  153.3453  138.2854  159.4358 H   0  0  0  0  0  0  0  0  0  0  0  0
  154.7373  141.0522  160.3360 H   0  0  0  0  0  0  0  0  0  0  0  0
  153.2910  140.1928  160.8565 H   0  0  0  0  0  0  0  0  0  0  0  0
  1  2  1  0  0  0  0
  1 32  1  0  0  0  0
  1 33  1  0  0  0  0
  1 34  1  0  0  0  0
  2  3  1  0  0  0  0
  3 30  1  0  0  0  0
  3 29  1  0  0  0  0
  3  4  1  0  0  0  0
  4  5  1  0  0  0  0
  4 35  1  0  0  0  0
  4 36  1  0  0  0  0
  5 31  1  0  0  0  0
  5  6  1  0  0  0  0
  5 27  1  0  0  0  0
  6  7  1  0  0  0  0
  6 37  1  0  0  0  0
  6 38  1  0  0  0  0
  7  8  1  0  0  0  0
  7  9  1  0  0  0  0
  8 39  1  0  0  0  0
  8 40  1  0  0  0  0
  8 41  1  0  0  0  0
  9 14  1  0  0  0  0
  9 10  2  0  0  0  0
 10 11  1  0  0  0  0
 11 12  2  0  0  0  0
 11 42  1  0  0  0  0
 12 13  1  0  0  0  0
 13 17  1  0  0  0  0
 13 14  2  0  0  0  0
 14 15  1  0  0  0  0
 15 16  2  0  0  0  0
 16 17  1  0  0  0  0
 16 43  1  0  0  0  0
 17 18  1  0  0  0  0
 18 19  1  0  0  0  0
 18 44  1  0  0  0  0
 18 45  1  0  0  0  0
 19 20  1  0  0  0  0
 19 22  1  0  0  0  0
 19 46  1  0  0  0  0
 20 21  1  0  0  0  0
 20 47  1  0  0  0  0
 20 48  1  0  0  0  0
 21 49  1  0  0  0  0
 22 26  1  0  0  0  0
 22 23  1  0  0  0  0
 22 50  1  0  0  0  0
 23 24  1  0  0  0  0
 23 51  1  0  0  0  0
 23 52  1  0  0  0  0
 24 25  1  0  0  0  0
 24 53  1  0  0  0  0
 24 54  1  0  0  0  0
 25 26  1  0  0  0  0
 26 55  1  0  0  0  0
 26 56  1  0  0  0  0
 27 28  1  0  0  0  0
 27 29  1  0  0  0  0
 28 57  1  0  0  0  0
 28 58  1  0  0  0  0
 28 59  1  0  0  0  0
 29 60  1  0  0  0  0
 29 61  1  0  0  0  0
M  END
> <s_m_source_file>
AV-unprocessed.smi

> <i_m_source_file_index>
21

> <i_lp_mmshare_version>
43012

> <i_f3d_flags>
0

> <s_epik_input>
W0NIM11PW0NASF0xW0NIMl1bQ0BIXShOKFtDSDNdKVtDSDJdMSlbQ0gyXU4oW0NIM10pYyhuW2NIXW4yKWMoYzIzKW5bY0hdbjNbQ0gyXVtDQEhdKFtDSDJdW09IXSlbQ0BASF00W0NIMl1bQ0gyXU9bQ0gyXTQ=

> <s_epik_cmdline>
J2VwaWtfcHl0aG9uJywgJy1waCcsICc3LjAnLCAnLXRuJywgJzgnLCAnLW1hJywgJzIwMCcsICctbWV0YWxfYmluZGluZycsICctaW1hZScsICc8aW5maWxlLm1hZT4nLCAnLW9tYWUnLCAnPG91dGZpbGUubWFlPic=

> <r_lp_tautomer_probability>
1

> <r_epik_Ionization_Penalty>
2.17574

> <r_epik_Ionization_Penalty_Charging>
0

> <r_epik_Ionization_Penalty_Neutral>
2.17574

> <r_epik_State_Penalty>
2.31336

> <r_epik_Charging_Adjusted_Penalty>
2.31336

> <i_epik_Tot_Q>
0

> <i_epik_Tot_abs_Q>
0

> <r_epik_Metal_State_Penalty>
2.31025

> <b_epik_Metal_Only>
0

> <s_lp_Force_Field>
OPLS_2005

> <r_lp_Energy>
68.3176

> <b_lp_Chiralities_Consistent>
1

> <s_lp_Variant>
AV-unprocessed.smi:21-42

> <Gold.Version>
5.8.1

> <Gold.Id.Protein>
6NUR|6NUR_protein|mol2

> <Gold.PLP.Fitness>
47.6087

> <Gold.PLP.PLP>
-41.4224

> <Gold.PLP.part.hbond>
-3.9150

> <Gold.PLP.part.metal>
0.0000

> <Gold.PLP.part.buried>
-5.9766

> <Gold.PLP.part.nonpolar>
-32.7733

> <Gold.PLP.part.repulsive>
0.2218

> <Gold.PLP.ligand.clash>
0.0000

> <Gold.PLP.ligand.torsion>
0.5900

> <Gold.PLP.Chemscore.Hbond>
2.2317

> <Gold.PLP.Chemscore.CHOScore>
0.0000

> <Gold.PLP.Chemscore.Metal>
0.0000

> <Gold.Chemscore.Hbonds>
donor molecule, donor type, donor heavy atom, donor atom, acceptor molecule, acceptor atom, score
      P1  H  6896  6907       L1    12  1.00
      P1  H 10752 10764       L1    15  0.95

> <Gold.PLP.Chemscore.Internal.Correction>
0.6713

> <Gold.Rescore>
     Score         DG    S(hbond)    S(metal)    S(lipo)     H(rot)  DE(clash)    DE(int)     intcor
      7.60     -11.95       0.86        0.00      96.39       3.00       0.02       4.34       ----

> <Gold.Chemscore.Fitness>
7.5961

> <Gold.Chemscore.DG>
-11.9533

> <Gold.Chemscore.ZeroCoef>
-5.4800

> <Gold.Chemscore.Hbond>
0.8634

> <Gold.Chemscore.Metal>
0.0000

> <Gold.Chemscore.Lipo>
96.3899

> <Gold.Chemscore.Internal_Hbond>
0.0000

> <Gold.Chemscore.DEClash>
0.0174

> <Gold.Chemscore.DEInternal>
4.3397

> <Gold.Chemscore.Rot>
3.0031

> <Gold.Chemscore.Internal.Correction>
   9.000000E+99

> <Gold.Chemscore.Hbonds>
donor molecule, donor type, donor heavy atom, donor atom, acceptor molecule, acceptor atom, score
      P1  H  6896  6907       L1    12  0.13
      P1  H  6933  6945       L1     2  0.02
      P1  H 10752 10764       L1    15  0.21

> <Gold.Chemscore.Hbond.Weighted>
-2.8836

> <Gold.Chemscore.Metal.Weighted>
-0.0000

> <Gold.Chemscore.Lipo.Weighted>
-11.2776

> <Gold.Chemscore.Internal_Hbond.Weighted>
0.0000

> <Gold.Chemscore.DEClash.Weighted>
0.0174

> <Gold.Chemscore.DEInternal.Weighted>
4.3397

> <Gold.Chemscore.Rot.Weighted>
7.6880

> <Gold.Chemscore.Internal.Correction.Weighted>
   9.000000E+99

> <Gold.Protein.RotatedTorsions>
[ 6907 6896 6895 6894 ] final  -48.60 input  -60.11 | X-H torsion
[ 7974 7965 7964 7962 ] final   13.31 input  175.53 | X-H torsion
[ 8008 7997 7996 7995 ] final  146.85 input   59.86 | X-H torsion
[ 10167 10162 10161 10158 ] final -166.32 input  -65.29 | X-H torsion
[ 10718 10713 10712 10709 ] final -132.17 input   66.30 | X-H torsion
[ 10763 10752 10751 10750 ] final  -48.15 input  -60.55 | X-H torsion
[ 11005 11000 10999 10996 ] final  151.12 input  -57.11 | X-H torsion

> <Gold.Protein.ActiveResidues>
 VAL166  LYS551  ARG553  GLY616  TRP617  ASP618  TYR619  PRO620  LYS621  CYS622 
 ASP623  PHE694  ASN695  SER759  ASP760  ASP761  ALA762  ILE779  LEU786  VAL792 
 PHE793  MET794  SER795  GLU796  ALA797  LYS798  CYS799  TRP800  GLU811  SER814 

> <Gold.Protein.RotatedAtoms>
  150.8889  134.8291  159.7278 H   0  0  0  0  0  0  0  0  0  0  0  0  # atno 6907 bound_to 6896
  152.4825  134.4679  159.9636 H   0  0  0  0  0  0  0  0  0  0  0  0  # atno 6908 bound_to 6896
  151.4744  133.3522  159.2864 H   0  0  0  0  0  0  0  0  0  0  0  0  # atno 6909 bound_to 6896
  146.2332  139.9207  142.8510 H   0  0  0  0  0  0  0  0  0  0  0  0  # atno 7974 bound_to 7965
  156.2843  140.2171  156.5444 H   0  0  0  0  0  0  0  0  0  0  0  0  # atno 8008 bound_to 7997
  154.7343  140.0493  157.0777 H   0  0  0  0  0  0  0  0  0  0  0  0  # atno 8009 bound_to 7997
  155.0313  140.3135  155.4760 H   0  0  0  0  0  0  0  0  0  0  0  0  # atno 8010 bound_to 7997
  139.6123  144.0790  152.1854 H   0  0  0  0  0  0  0  0  0  0  0  0  # atno 10167 bound_to 10162
  156.2318  130.7042  151.0866 H   0  0  0  0  0  0  0  0  0  0  0  0  # atno 10718 bound_to 10713
  154.0731  135.6602  153.4827 H   0  0  0  0  0  0  0  0  0  0  0  0  # atno 10763 bound_to 10752
  153.0383  135.5162  154.7547 H   0  0  0  0  0  0  0  0  0  0  0  0  # atno 10764 bound_to 10752
  154.6619  135.3016  154.9823 H   0  0  0  0  0  0  0  0  0  0  0  0  # atno 10765 bound_to 10752
  140.1191  134.8875  157.2046 H   0  0  0  0  0  0  0  0  0  0  0  0  # atno 11005 bound_to 11000
  145.2139  140.9907  143.4084 LP  0  0  0  0  0  0  0  0  0  0  0  0  # atno 17320 bound_to 7965
  144.9667  139.3922  143.6329 LP  0  0  0  0  0  0  0  0  0  0  0  0  # atno 17321 bound_to 7965
  140.0412  144.6006  150.7410 LP  0  0  0  0  0  0  0  0  0  0  0  0  # atno 17342 bound_to 10162
  140.7327  143.2709  151.3892 LP  0  0  0  0  0  0  0  0  0  0  0  0  # atno 17343 bound_to 10162
  157.7136  131.0721  150.6408 LP  0  0  0  0  0  0  0  0  0  0  0  0  # atno 17370 bound_to 10713
  156.6477  130.4476  149.5730 LP  0  0  0  0  0  0  0  0  0  0  0  0  # atno 17371 bound_to 10713
  140.2989  134.3154  155.7295 LP  0  0  0  0  0  0  0  0  0  0  0  0  # atno 17394 bound_to 11000
  141.2148  133.7580  156.9612 LP  0  0  0  0  0  0  0  0  0  0  0  0  # atno 17395 bound_to 11000

$$$$
