AV-unprocessed.smi:911|AV-procd|sdf|4139|dock1
  -GOLD-   22720 2 43D 1   1.00000     0.00000
 Structure written by MMmdl.
 47 49  0  0  0  0  0  0  0  0  3 V2000
  145.0469  134.2171  162.9332 C   0  0  0  0  0  0  0  0  0  0  0  0
  145.3330  135.0769  161.6700 C   0  0  0  0  0  0  0  0  0  0  0  0
  144.1397  134.8103  160.7105 C   0  0  0  0  0  0  0  0  0  0  0  0
  145.5880  136.5674  161.9700 C   0  0  1  0  0  0  0  0  0  0  0  0
  146.8820  136.5538  162.8151 C   0  0  0  0  0  0  0  0  0  0  0  0
  147.6724  135.3828  162.1991 C   0  0  0  0  0  0  0  0  0  0  0  0
  146.7447  134.9146  161.0430 C   0  0  1  0  0  0  0  0  0  0  0  0
  147.0887  133.5032  160.5350 C   0  0  0  0  0  0  0  0  0  0  0  0
  146.7551  136.0113  159.9276 C   0  0  2  0  0  0  0  0  0  0  0  0
  148.0910  136.4634  159.5440 N   0  0  0  0  0  0  0  0  0  0  0  0
  148.5071  136.6911  158.2895 C   0  0  0  0  0  0  0  0  0  0  0  0
  147.7724  136.6313  157.3043 O   0  0  0  0  0  0  0  0  0  0  0  0
  149.9941  137.0132  158.1231 C   0  0  0  0  0  0  0  0  0  0  0  0
  150.2663  137.5009  156.7624 N   0  0  0  0  0  0  0  0  0  0  0  0
  149.6493  138.7127  156.3941 C   0  0  0  0  0  0  0  0  0  0  0  0
  149.8610  139.2900  155.1959 C   0  0  0  0  0  0  0  0  0  0  0  0
  149.2369  140.5475  154.8490 N   0  3  0  0  0  0  0  0  0  0  0  0
  149.5090  141.0604  153.7685 O   0  0  0  0  0  0  0  0  0  0  0  0
  148.4583  141.0647  155.6447 O   0  5  0  0  0  0  0  0  0  0  0  0
  150.7494  138.6152  154.2702 C   0  0  0  0  0  0  0  0  0  0  0  0
  151.3427  137.4553  154.6156 C   0  0  0  0  0  0  0  0  0  0  0  0
  151.1191  136.8341  155.9257 C   0  0  0  0  0  0  0  0  0  0  0  0
  151.6690  135.7821  156.2508 O   0  0  0  0  0  0  0  0  0  0  0  0
  145.9566  137.1571  160.5912 C   0  0  0  0  0  0  0  0  0  0  0  0
  144.0978  134.5069  163.3850 H   0  0  0  0  0  0  0  0  0  0  0  0
  145.7930  134.2876  163.7212 H   0  0  0  0  0  0  0  0  0  0  0  0
  144.9671  133.1611  162.6743 H   0  0  0  0  0  0  0  0  0  0  0  0
  144.1741  135.3483  159.7663 H   0  0  0  0  0  0  0  0  0  0  0  0
  143.1974  135.0848  161.1859 H   0  0  0  0  0  0  0  0  0  0  0  0
  144.0744  133.7511  160.4606 H   0  0  0  0  0  0  0  0  0  0  0  0
  144.7615  137.0883  162.4544 H   0  0  0  0  0  0  0  0  0  0  0  0
  147.4280  137.4957  162.7517 H   0  0  0  0  0  0  0  0  0  0  0  0
  146.6721  136.3760  163.8702 H   0  0  0  0  0  0  0  0  0  0  0  0
  148.6693  135.6808  161.8771 H   0  0  0  0  0  0  0  0  0  0  0  0
  147.8268  134.5909  162.9320 H   0  0  0  0  0  0  0  0  0  0  0  0
  148.1137  133.4564  160.1674 H   0  0  0  0  0  0  0  0  0  0  0  0
  146.4308  133.2029  159.7195 H   0  0  0  0  0  0  0  0  0  0  0  0
  146.9963  132.7608  161.3276 H   0  0  0  0  0  0  0  0  0  0  0  0
  146.2284  135.6676  159.0362 H   0  0  0  0  0  0  0  0  0  0  0  0
  148.7687  136.5478  160.2876 H   0  0  0  0  0  0  0  0  0  0  0  0
  150.2913  137.7450  158.8763 H   0  0  0  0  0  0  0  0  0  0  0  0
  150.5901  136.1247  158.3389 H   0  0  0  0  0  0  0  0  0  0  0  0
  149.0134  139.1398  157.1564 H   0  0  0  0  0  0  0  0  0  0  0  0
  150.9476  139.0360  153.2954 H   0  0  0  0  0  0  0  0  0  0  0  0
  152.0034  136.9704  153.9118 H   0  0  0  0  0  0  0  0  0  0  0  0
  145.0663  137.4019  160.0115 H   0  0  0  0  0  0  0  0  0  0  0  0
  146.5300  138.0808  160.6853 H   0  0  0  0  0  0  0  0  0  0  0  0
  1  2  1  0  0  0  0
  1 25  1  0  0  0  0
  1 26  1  0  0  0  0
  1 27  1  0  0  0  0
  2  7  1  0  0  0  0
  2  3  1  0  0  0  0
  2  4  1  0  0  0  0
  3 28  1  0  0  0  0
  3 29  1  0  0  0  0
  3 30  1  0  0  0  0
  4 24  1  0  0  0  0
  4  5  1  0  0  0  0
  4 31  1  0  0  0  0
  5  6  1  0  0  0  0
  5 32  1  0  0  0  0
  5 33  1  0  0  0  0
  6  7  1  0  0  0  0
  6 34  1  0  0  0  0
  6 35  1  0  0  0  0
  7  8  1  0  0  0  0
  7  9  1  0  0  0  0
  8 36  1  0  0  0  0
  8 37  1  0  0  0  0
  8 38  1  0  0  0  0
  9 10  1  0  0  0  0
  9 24  1  0  0  0  0
  9 39  1  0  0  0  0
 10 11  1  0  0  0  0
 10 40  1  0  0  0  0
 11 12  2  0  0  0  0
 11 13  1  0  0  0  0
 13 14  1  0  0  0  0
 13 41  1  0  0  0  0
 13 42  1  0  0  0  0
 14 22  1  0  0  0  0
 14 15  1  0  0  0  0
 15 16  2  0  0  0  0
 15 43  1  0  0  0  0
 16 17  1  0  0  0  0
 16 20  1  0  0  0  0
 17 18  2  0  0  0  0
 17 19  1  0  0  0  0
 20 21  2  0  0  0  0
 20 44  1  0  0  0  0
 21 22  1  0  0  0  0
 21 45  1  0  0  0  0
 22 23  2  0  0  0  0
 24 46  1  0  0  0  0
 24 47  1  0  0  0  0
M  CHG  1  17   1
M  CHG  1  19  -1
M  END
> <s_m_source_file>
AV-unprocessed.smi

> <i_m_source_file_index>
911

> <i_lp_mmshare_version>
43012

> <i_f3d_flags>
0

> <s_epik_input>
W0NIM11bQ0BdMTJDKFtDSDNdKShbQ0gzXSlbQ0BIXShbQ0gyXVtDSDJdMSlbQ0gyXVtDQEBIXTJbTkhdQyg9TylbQ0gyXW4zW2NIXWMoW04rXSg9TylbTy1dKVtjSF1bY0hdYzM9Tw==

> <s_epik_cmdline>
J2VwaWtfcHl0aG9uJywgJy1waCcsICc3LjAnLCAnLXRuJywgJzgnLCAnLW1hJywgJzIwMCcsICctbWV0YWxfYmluZGluZycsICctaW1hZScsICc8aW5maWxlLm1hZT4nLCAnLW9tYWUnLCAnPG91dGZpbGUubWFlPic=

> <r_lp_tautomer_probability>
1

> <r_epik_Ionization_Penalty>
2.04092e-08

> <r_epik_Ionization_Penalty_Charging>
8.54191e-11

> <r_epik_Ionization_Penalty_Neutral>
2.03238e-08

> <r_epik_State_Penalty>
-0

> <r_epik_Charging_Adjusted_Penalty>
8.54191e-11

> <i_epik_Tot_Q>
0

> <i_epik_Tot_abs_Q>
2

> <r_epik_Metal_State_Penalty>
-0

> <b_epik_Metal_Only>
0

> <s_lp_Force_Field>
OPLS_2005

> <r_lp_Energy>
68.3511

> <b_lp_Chiralities_Consistent>
1

> <s_lp_Variant>
AV-unprocessed.smi:911-4

> <Gold.Version>
5.8.1

> <Gold.Id.Protein>
6NUR|6NUR_protein|mol2

> <Gold.PLP.Fitness>
37.3730

> <Gold.PLP.PLP>
-31.5890

> <Gold.PLP.part.hbond>
-3.0000

> <Gold.PLP.part.metal>
0.0000

> <Gold.PLP.part.buried>
-4.9946

> <Gold.PLP.part.nonpolar>
-25.4190

> <Gold.PLP.part.repulsive>
1.9636

> <Gold.PLP.ligand.clash>
0.0000

> <Gold.PLP.ligand.torsion>
0.3245

> <Gold.PLP.Chemscore.Hbond>
2.1352

> <Gold.PLP.Chemscore.CHOScore>
0.0000

> <Gold.PLP.Chemscore.Metal>
0.0000

> <Gold.Chemscore.Hbonds>
donor molecule, donor type, donor heavy atom, donor atom, acceptor molecule, acceptor atom, score
      P1  H  7989  7998       L1    18  0.27
      P1  H  8011  8017       L1    18  0.94
      P1  H 10752 10765       L1    23  1.00

> <Gold.PLP.Chemscore.Internal.Correction>
0.0273

> <Gold.Rescore>
     Score         DG    S(hbond)    S(metal)    S(lipo)     H(rot)  DE(clash)    DE(int)     intcor
     16.10     -17.76       1.74        0.00      88.84       1.53       0.14       1.53       ----

> <Gold.Chemscore.Fitness>
16.0951

> <Gold.Chemscore.DG>
-17.7627

> <Gold.Chemscore.ZeroCoef>
-5.4800

> <Gold.Chemscore.Hbond>
1.7365

> <Gold.Chemscore.Metal>
0.0000

> <Gold.Chemscore.Lipo>
88.8355

> <Gold.Chemscore.Internal_Hbond>
0.0000

> <Gold.Chemscore.DEClash>
0.1366

> <Gold.Chemscore.DEInternal>
1.5309

> <Gold.Chemscore.Rot>
1.5277

> <Gold.Chemscore.Internal.Correction>
   9.000000E+99

> <Gold.Chemscore.Hbonds>
donor molecule, donor type, donor heavy atom, donor atom, acceptor molecule, acceptor atom, score
      P1  H  7989  7998       L1    18  0.19
      P1  H  8011  8017       L1    18  0.88
      P1  H 10752 10765       L1    23  0.60

> <Gold.Chemscore.Hbond.Weighted>
-5.7999

> <Gold.Chemscore.Metal.Weighted>
-0.0000

> <Gold.Chemscore.Lipo.Weighted>
-10.3938

> <Gold.Chemscore.Internal_Hbond.Weighted>
0.0000

> <Gold.Chemscore.DEClash.Weighted>
0.1366

> <Gold.Chemscore.DEInternal.Weighted>
1.5309

> <Gold.Chemscore.Rot.Weighted>
3.9110

> <Gold.Chemscore.Internal.Correction.Weighted>
   9.000000E+99

> <Gold.Protein.RotatedTorsions>
[ 6907 6896 6895 6894 ] final   60.36 input  -60.11 | X-H torsion
[ 7974 7965 7964 7962 ] final -130.42 input  175.53 | X-H torsion
[ 8008 7997 7996 7995 ] final  -39.52 input   59.86 | X-H torsion
[ 10167 10162 10161 10158 ] final  -71.66 input  -65.29 | X-H torsion
[ 10718 10713 10712 10709 ] final  140.26 input   66.30 | X-H torsion
[ 10763 10752 10751 10750 ] final -156.04 input  -60.55 | X-H torsion
[ 11005 11000 10999 10996 ] final  -12.12 input  -57.11 | X-H torsion

> <Gold.Protein.ActiveResidues>
 VAL166  LYS551  ARG553  GLY616  TRP617  ASP618  TYR619  PRO620  LYS621  CYS622 
 ASP623  PHE694  ASN695  SER759  ASP760  ASP761  ALA762  ILE779  LEU786  VAL792 
 PHE793  MET794  SER795  GLU796  ALA797  LYS798  CYS799  TRP800  GLU811  SER814 

> <Gold.Protein.RotatedAtoms>
  152.3996  134.6308  160.0074 H   0  0  0  0  0  0  0  0  0  0  0  0  # atno 6907 bound_to 6896
  151.6517  133.3315  159.3161 H   0  0  0  0  0  0  0  0  0  0  0  0  # atno 6908 bound_to 6896
  150.7899  134.6956  159.6566 H   0  0  0  0  0  0  0  0  0  0  0  0  # atno 6909 bound_to 6896
  144.9477  140.7309  143.4807 H   0  0  0  0  0  0  0  0  0  0  0  0  # atno 7974 bound_to 7965
  154.4022  140.1549  156.2877 H   0  0  0  0  0  0  0  0  0  0  0  0  # atno 8008 bound_to 7997
  155.8813  140.3443  155.5868 H   0  0  0  0  0  0  0  0  0  0  0  0  # atno 8009 bound_to 7997
  155.7663  140.0824  157.2121 H   0  0  0  0  0  0  0  0  0  0  0  0  # atno 8010 bound_to 7997
  140.5255  143.2327  151.7354 H   0  0  0  0  0  0  0  0  0  0  0  0  # atno 10167 bound_to 10162
  157.4052  131.1021  151.0510 H   0  0  0  0  0  0  0  0  0  0  0  0  # atno 10718 bound_to 10713
  154.7743  135.3154  154.8125 H   0  0  0  0  0  0  0  0  0  0  0  0  # atno 10763 bound_to 10752
  153.8853  135.6831  153.4768 H   0  0  0  0  0  0  0  0  0  0  0  0  # atno 10764 bound_to 10752
  153.1363  135.4758  154.9362 H   0  0  0  0  0  0  0  0  0  0  0  0  # atno 10765 bound_to 10752
  140.7624  133.8504  155.9136 H   0  0  0  0  0  0  0  0  0  0  0  0  # atno 11005 bound_to 11000
  145.2893  139.1889  143.4749 LP  0  0  0  0  0  0  0  0  0  0  0  0  # atno 17320 bound_to 7965
  146.3309  140.2867  142.8613 LP  0  0  0  0  0  0  0  0  0  0  0  0  # atno 17321 bound_to 7965
  139.4937  144.4191  151.9997 LP  0  0  0  0  0  0  0  0  0  0  0  0  # atno 17342 bound_to 10162
  140.3290  144.3338  150.5991 LP  0  0  0  0  0  0  0  0  0  0  0  0  # atno 17343 bound_to 10162
  157.1495  130.6178  149.5578 LP  0  0  0  0  0  0  0  0  0  0  0  0  # atno 17370 bound_to 10713
  155.9834  130.4854  150.6933 LP  0  0  0  0  0  0  0  0  0  0  0  0  # atno 17371 bound_to 10713
  140.9650  134.1606  157.4623 LP  0  0  0  0  0  0  0  0  0  0  0  0  # atno 17394 bound_to 11000
  139.8768  134.9958  156.5764 LP  0  0  0  0  0  0  0  0  0  0  0  0  # atno 17395 bound_to 11000

$$$$
