AV-unprocessed.smi:817|AV-procd|sdf|3829|dock4
  -GOLD-   22720 1273D 1   1.00000     0.00000
 Structure written by MMmdl.
 48 49  0  0  0  0  0  0  0  0  2 V2000
  147.9589  141.4476  157.2531 C   0  0  0  0  0  0  0  0  0  0  0  0
  147.6730  140.6554  155.9688 C   0  0  1  0  0  0  0  0  0  0  0  0
  147.6231  141.5859  154.7444 C   0  0  0  0  0  0  0  0  0  0  0  0
  147.3899  140.8043  153.4445 C   0  0  0  0  0  0  0  0  0  0  0  0
  148.4371  139.6915  153.2487 C   0  0  0  0  0  0  0  0  0  0  0  0
  148.5293  138.7026  154.4480 C   0  0  1  0  0  0  0  0  0  0  0  0
  147.2026  137.8890  154.5645 C   0  0  0  0  0  0  0  0  0  0  0  0
  147.0829  136.8642  153.5248 N   0  0  0  0  0  0  0  0  0  0  0  0
  146.0016  136.1246  153.2250 C   0  0  0  0  0  0  0  0  0  0  0  0
  144.9455  136.2742  153.8339 O   0  0  0  0  0  0  0  0  0  0  0  0
  146.1936  135.2570  152.2119 N   0  0  0  0  0  0  0  0  0  0  0  0
  145.2844  134.3183  151.6532 C   0  0  0  0  0  0  0  0  0  0  0  0
  145.7833  133.4140  150.6932 C   0  0  0  0  0  0  0  0  0  0  0  0
  144.9154  132.4585  150.1321 C   0  0  0  0  0  0  0  0  0  0  0  0
  143.5744  132.4392  150.5605 C   0  0  0  0  0  0  0  0  0  0  0  0
  143.0823  133.2879  151.4872 N   0  0  0  0  0  0  0  0  0  0  0  0
  143.9201  134.2032  152.0206 C   0  0  0  0  0  0  0  0  0  0  0  0
  149.6702  137.7268  154.2620 N   0  3  0  0  0  0  0  0  0  0  0  0
  151.0185  138.3393  154.1271 C   0  0  0  0  0  0  0  0  0  0  0  0
  149.7215  136.5791  155.2052 C   0  0  0  0  0  0  0  0  0  0  0  0
  148.7282  139.5491  155.7494 C   0  0  0  0  0  0  0  0  0  0  0  0
  148.9225  141.9556  157.2029 H   0  0  0  0  0  0  0  0  0  0  0  0
  147.9739  140.7920  158.1242 H   0  0  0  0  0  0  0  0  0  0  0  0
  147.1933  142.2048  157.4254 H   0  0  0  0  0  0  0  0  0  0  0  0
  146.6916  140.2014  156.0996 H   0  0  0  0  0  0  0  0  0  0  0  0
  146.8348  142.3293  154.8707 H   0  0  0  0  0  0  0  0  0  0  0  0
  148.5584  142.1417  154.6663 H   0  0  0  0  0  0  0  0  0  0  0  0
  146.3845  140.3834  153.4413 H   0  0  0  0  0  0  0  0  0  0  0  0
  147.4268  141.4904  152.5979 H   0  0  0  0  0  0  0  0  0  0  0  0
  148.1983  139.1608  152.3270 H   0  0  0  0  0  0  0  0  0  0  0  0
  149.4055  140.1642  153.0822 H   0  0  0  0  0  0  0  0  0  0  0  0
  147.1111  137.4013  155.5330 H   0  0  0  0  0  0  0  0  0  0  0  0
  146.3408  138.5538  154.5121 H   0  0  0  0  0  0  0  0  0  0  0  0
  147.9122  136.6858  152.9774 H   0  0  0  0  0  0  0  0  0  0  0  0
  147.0931  135.3051  151.7566 H   0  0  0  0  0  0  0  0  0  0  0  0
  146.8184  133.4515  150.3860 H   0  0  0  0  0  0  0  0  0  0  0  0
  145.2695  131.7564  149.3917 H   0  0  0  0  0  0  0  0  0  0  0  0
  142.8802  131.7197  150.1518 H   0  0  0  0  0  0  0  0  0  0  0  0
  143.4720  134.8337  152.7716 H   0  0  0  0  0  0  0  0  0  0  0  0
  151.3634  138.7600  155.0720 H   0  0  0  0  0  0  0  0  0  0  0  0
  151.0549  139.1182  153.3682 H   0  0  0  0  0  0  0  0  0  0  0  0
  151.7447  137.5844  153.8239 H   0  0  0  0  0  0  0  0  0  0  0  0
  149.7366  136.9097  156.2437 H   0  0  0  0  0  0  0  0  0  0  0  0
  150.6170  135.9796  155.0377 H   0  0  0  0  0  0  0  0  0  0  0  0
  148.8808  135.9014  155.0607 H   0  0  0  0  0  0  0  0  0  0  0  0
  149.6853  140.0687  155.7196 H   0  0  0  0  0  0  0  0  0  0  0  0
  148.7671  138.8976  156.6233 H   0  0  0  0  0  0  0  0  0  0  0  0
  149.4929  137.3014  153.3630 H   0  0  0  0  0  0  0  0  0  0  0  0
  1  2  1  0  0  0  0
  1 22  1  0  0  0  0
  1 23  1  0  0  0  0
  1 24  1  0  0  0  0
  2 21  1  0  0  0  0
  2  3  1  0  0  0  0
  2 25  1  0  0  0  0
  3  4  1  0  0  0  0
  3 26  1  0  0  0  0
  3 27  1  0  0  0  0
  4  5  1  0  0  0  0
  4 28  1  0  0  0  0
  4 29  1  0  0  0  0
  5  6  1  0  0  0  0
  5 30  1  0  0  0  0
  5 31  1  0  0  0  0
  6  7  1  0  0  0  0
  6 18  1  0  0  0  0
  6 21  1  0  0  0  0
  7  8  1  0  0  0  0
  7 32  1  0  0  0  0
  7 33  1  0  0  0  0
  8  9  1  0  0  0  0
  8 34  1  0  0  0  0
  9 10  2  0  0  0  0
  9 11  1  0  0  0  0
 11 12  1  0  0  0  0
 11 35  1  0  0  0  0
 12 17  1  0  0  0  0
 12 13  2  0  0  0  0
 13 14  1  0  0  0  0
 13 36  1  0  0  0  0
 14 15  2  0  0  0  0
 14 37  1  0  0  0  0
 15 16  1  0  0  0  0
 15 38  1  0  0  0  0
 16 17  2  0  0  0  0
 17 39  1  0  0  0  0
 18 19  1  0  0  0  0
 18 20  1  0  0  0  0
 18 48  1  0  0  0  0
 19 40  1  0  0  0  0
 19 41  1  0  0  0  0
 19 42  1  0  0  0  0
 20 43  1  0  0  0  0
 20 44  1  0  0  0  0
 20 45  1  0  0  0  0
 21 46  1  0  0  0  0
 21 47  1  0  0  0  0
M  CHG  1  18   1
M  END
> <s_m_source_file>
AV-unprocessed.smi

> <i_m_source_file_index>
817

> <i_lp_mmshare_version>
43012

> <i_f3d_flags>
0

> <s_epik_input>
W0NIM11bQ0BASF0oW0NIMl0xKVtDSDJdW0NIMl1bQ0gyXVtDQF0xKE4oW0NIM10pW0NIM10pW0NIMl1bTkhdQyg9TylbTkhdYzJbY0hdW2NIXVtjSF1uW2NIXTI=

> <s_epik_cmdline>
J2VwaWtfcHl0aG9uJywgJy1waCcsICc3LjAnLCAnLXRuJywgJzgnLCAnLW1hJywgJzIwMCcsICctbWV0YWxfYmluZGluZycsICctaW1hZScsICc8aW5maWxlLm1hZT4nLCAnLW9tYWUnLCAnPG91dGZpbGUubWFlPic=

> <r_lp_tautomer_probability>
1

> <r_epik_Ionization_Penalty>
0.00584939

> <r_epik_Ionization_Penalty_Charging>
0.00160539

> <r_epik_Ionization_Penalty_Neutral>
0.004244

> <r_epik_State_Penalty>
-0

> <r_epik_Charging_Adjusted_Penalty>
0.00160539

> <i_epik_Tot_Q>
1

> <i_epik_Tot_abs_Q>
1

> <r_epik_Metal_State_Penalty>
-0

> <b_epik_Metal_Only>
0

> <s_lp_Force_Field>
OPLS_2005

> <r_lp_Energy>
49.3624

> <b_lp_Chiralities_Consistent>
1

> <s_lp_Variant>
AV-unprocessed.smi:817-2

> <Gold.Version>
5.8.1

> <Gold.Id.Protein>
6NUR|6NUR_protein|mol2

> <Gold.PLP.Fitness>
42.6774

> <Gold.PLP.PLP>
-28.5766

> <Gold.PLP.part.hbond>
-3.0000

> <Gold.PLP.part.metal>
0.0000

> <Gold.PLP.part.buried>
-1.8082

> <Gold.PLP.part.nonpolar>
-24.5612

> <Gold.PLP.part.repulsive>
0.6304

> <Gold.PLP.ligand.clash>
0.0000

> <Gold.PLP.ligand.torsion>
0.2704

> <Gold.PLP.Chemscore.Hbond>
3.8882

> <Gold.PLP.Chemscore.CHOScore>
0.9548

> <Gold.PLP.Chemscore.Metal>
0.0000

> <Gold.Chemscore.Hbonds>
donor molecule, donor type, donor heavy atom, donor atom, acceptor molecule, acceptor atom, score
      L1  H     8    34       P1  7948  1.00
      L1  H    11    35       P1  7948  0.86
      L1  H    18    48       P1  7948  2.00
      L1  C    15    38       P1 10952  0.97

> <Gold.PLP.Chemscore.Internal.Correction>
0.1125

> <Gold.Rescore>
     Score         DG    S(hbond)    S(metal)    S(lipo)     H(rot)  DE(clash)    DE(int)     intcor
     17.51     -20.82       2.77        0.00      83.50       1.44       1.85       1.46       ----

> <Gold.Chemscore.Fitness>
17.5077

> <Gold.Chemscore.DG>
-20.8230

> <Gold.Chemscore.ZeroCoef>
-5.4800

> <Gold.Chemscore.Hbond>
2.7730

> <Gold.Chemscore.Metal>
0.0000

> <Gold.Chemscore.Lipo>
83.4952

> <Gold.Chemscore.Internal_Hbond>
0.0000

> <Gold.Chemscore.DEClash>
1.8535

> <Gold.Chemscore.DEInternal>
1.4617

> <Gold.Chemscore.Rot>
1.4405

> <Gold.Chemscore.Internal.Correction>
   9.000000E+99

> <Gold.Chemscore.Hbonds>
donor molecule, donor type, donor heavy atom, donor atom, acceptor molecule, acceptor atom, score
      L1  H     8    34       P1  7948  0.98
      L1  H    11    35       P1  7948  0.78
      L1  H    18    48       P1  7948  0.91

> <Gold.Chemscore.Hbond.Weighted>
-9.2618

> <Gold.Chemscore.Metal.Weighted>
-0.0000

> <Gold.Chemscore.Lipo.Weighted>
-9.7689

> <Gold.Chemscore.Internal_Hbond.Weighted>
0.0000

> <Gold.Chemscore.DEClash.Weighted>
1.8535

> <Gold.Chemscore.DEInternal.Weighted>
1.4617

> <Gold.Chemscore.Rot.Weighted>
3.6878

> <Gold.Chemscore.Internal.Correction.Weighted>
   9.000000E+99

> <Gold.Protein.RotatedTorsions>
[ 6907 6896 6895 6894 ] final  -56.22 input  -60.11 | X-H torsion
[ 7974 7965 7964 7962 ] final    5.60 input  175.53 | X-H torsion
[ 8008 7997 7996 7995 ] final   24.88 input   59.86 | X-H torsion
[ 10167 10162 10161 10158 ] final  152.83 input  -65.29 | X-H torsion
[ 10718 10713 10712 10709 ] final -179.74 input   66.30 | X-H torsion
[ 10763 10752 10751 10750 ] final  137.74 input  -60.55 | X-H torsion
[ 11005 11000 10999 10996 ] final   34.16 input  -57.11 | X-H torsion

> <Gold.Protein.ActiveResidues>
 VAL166  LYS551  ARG553  GLY616  TRP617  ASP618  TYR619  PRO620  LYS621  CYS622 
 ASP623  PHE694  ASN695  SER759  ASP760  ASP761  ALA762  ILE779  LEU786  VAL792 
 PHE793  MET794  SER795  GLU796  ALA797  LYS798  CYS799  TRP800  GLU811  SER814 

> <Gold.Protein.RotatedAtoms>
  150.8185  134.7381  159.6751 H   0  0  0  0  0  0  0  0  0  0  0  0  # atno 6907 bound_to 6896
  152.4303  134.5788  159.9951 H   0  0  0  0  0  0  0  0  0  0  0  0  # atno 6908 bound_to 6896
  151.5978  133.3322  159.3077 H   0  0  0  0  0  0  0  0  0  0  0  0  # atno 6909 bound_to 6896
  146.2439  140.0360  142.8386 H   0  0  0  0  0  0  0  0  0  0  0  0  # atno 7974 bound_to 7965
  155.0030  140.3127  155.4859 H   0  0  0  0  0  0  0  0  0  0  0  0  # atno 8008 bound_to 7997
  156.2922  140.2228  156.5082 H   0  0  0  0  0  0  0  0  0  0  0  0  # atno 8009 bound_to 7997
  154.7601  140.0459  157.0954 H   0  0  0  0  0  0  0  0  0  0  0  0  # atno 8010 bound_to 7997
  139.4830  144.5325  151.7699 H   0  0  0  0  0  0  0  0  0  0  0  0  # atno 10167 bound_to 10162
  156.8636  130.9760  151.3081 H   0  0  0  0  0  0  0  0  0  0  0  0  # atno 10718 bound_to 10713
  153.8780  135.3047  155.3444 H   0  0  0  0  0  0  0  0  0  0  0  0  # atno 10763 bound_to 10752
  154.7775  135.4853  153.9777 H   0  0  0  0  0  0  0  0  0  0  0  0  # atno 10764 bound_to 10752
  153.1368  135.6815  153.9187 H   0  0  0  0  0  0  0  0  0  0  0  0  # atno 10765 bound_to 10752
  140.2557  134.3251  155.7875 H   0  0  0  0  0  0  0  0  0  0  0  0  # atno 11005 bound_to 11000
  145.1112  140.9406  143.4655 LP  0  0  0  0  0  0  0  0  0  0  0  0  # atno 17320 bound_to 7965
  145.0574  139.3132  143.5897 LP  0  0  0  0  0  0  0  0  0  0  0  0  # atno 17321 bound_to 7965
  140.4853  144.1390  150.5940 LP  0  0  0  0  0  0  0  0  0  0  0  0  # atno 17342 bound_to 10162
  140.4232  143.2602  151.9689 LP  0  0  0  0  0  0  0  0  0  0  0  0  # atno 17343 bound_to 10162
  157.6236  130.8674  149.9151 LP  0  0  0  0  0  0  0  0  0  0  0  0  # atno 17370 bound_to 10713
  156.0764  130.3678  150.0670 LP  0  0  0  0  0  0  0  0  0  0  0  0  # atno 17371 bound_to 10713
  141.2196  133.7379  156.9107 LP  0  0  0  0  0  0  0  0  0  0  0  0  # atno 17394 bound_to 11000
  140.1514  134.9227  157.2597 LP  0  0  0  0  0  0  0  0  0  0  0  0  # atno 17395 bound_to 11000

$$$$
