AV-unprocessed.smi:614|AV-procd|sdf|3069|dock7
  -GOLD-   2262023593D 1   1.00000     0.00000
 Structure written by MMmdl.
 44 45  0  0  0  0  0  0  0  0  1 V2000
  144.4164  132.4171  149.6405 C   0  0  0  0  0  0  0  0  0  0  0  0
  144.5355  133.5397  150.5455 N   0  0  0  0  0  0  0  0  0  0  0  0
  143.5448  134.1683  151.2724 C   0  0  0  0  0  0  0  0  0  0  0  0
  144.1339  135.1765  151.9815 C   0  0  0  0  0  0  0  0  0  0  0  0
  145.5043  135.0779  151.6135 C   0  0  0  0  0  0  0  0  0  0  0  0
  146.4626  135.9775  152.1472 N   0  0  0  0  0  0  0  0  0  0  0  0
  146.2420  137.0276  152.9562 C   0  0  0  0  0  0  0  0  0  0  0  0
  145.1333  137.4019  153.3365 O   0  0  0  0  0  0  0  0  0  0  0  0
  147.3990  137.6237  153.2915 N   0  0  0  0  0  0  0  0  0  0  0  0
  147.6221  138.7855  154.1660 C   0  0  2  0  0  0  0  0  0  0  0  0
  146.9840  138.3711  155.5128 C   0  0  0  0  0  0  0  0  0  0  0  0
  146.7946  139.9952  153.6329 C   0  0  0  0  0  0  0  0  0  0  0  0
  146.9244  140.2222  152.2437 O   0  0  0  0  0  0  0  0  0  0  0  0
  149.1532  139.0962  154.3464 C   0  0  0  0  0  0  0  0  0  0  0  0
  150.0337  137.8445  154.5992 C   0  0  0  0  0  0  0  0  0  0  0  0
  151.5287  138.2011  154.6454 C   0  0  0  0  0  0  0  0  0  0  0  0
  151.8154  139.2736  155.7061 C   0  0  0  0  0  0  0  0  0  0  0  0
  150.9492  140.5202  155.4755 C   0  0  0  0  0  0  0  0  0  0  0  0
  149.4553  140.1597  155.4327 C   0  0  0  0  0  0  0  0  0  0  0  0
  145.7466  134.0978  150.7537 N   0  0  0  0  0  0  0  0  0  0  0  0
  143.3810  132.0779  149.5987 H   0  0  0  0  0  0  0  0  0  0  0  0
  145.0451  131.5961  149.9864 H   0  0  0  0  0  0  0  0  0  0  0  0
  144.7327  132.7149  148.6404 H   0  0  0  0  0  0  0  0  0  0  0  0
  142.5139  133.8497  151.2242 H   0  0  0  0  0  0  0  0  0  0  0  0
  143.6578  135.8732  152.6553 H   0  0  0  0  0  0  0  0  0  0  0  0
  147.4225  135.7931  151.8966 H   0  0  0  0  0  0  0  0  0  0  0  0
  148.2372  137.2197  152.9004 H   0  0  0  0  0  0  0  0  0  0  0  0
  147.0460  139.1611  156.2606 H   0  0  0  0  0  0  0  0  0  0  0  0
  147.4494  137.4804  155.9345 H   0  0  0  0  0  0  0  0  0  0  0  0
  145.9242  138.1428  155.3890 H   0  0  0  0  0  0  0  0  0  0  0  0
  145.7377  139.8870  153.8805 H   0  0  0  0  0  0  0  0  0  0  0  0
  147.1225  140.9151  154.1181 H   0  0  0  0  0  0  0  0  0  0  0  0
  147.8418  140.2008  152.0191 H   0  0  0  0  0  0  0  0  0  0  0  0
  149.5093  139.5185  153.4066 H   0  0  0  0  0  0  0  0  0  0  0  0
  149.7576  137.3702  155.5408 H   0  0  0  0  0  0  0  0  0  0  0  0
  149.8810  137.0971  153.8211 H   0  0  0  0  0  0  0  0  0  0  0  0
  152.1174  137.3075  154.8541 H   0  0  0  0  0  0  0  0  0  0  0  0
  151.8486  138.5599  153.6664 H   0  0  0  0  0  0  0  0  0  0  0  0
  151.6173  138.8688  156.6994 H   0  0  0  0  0  0  0  0  0  0  0  0
  152.8714  139.5445  155.6861 H   0  0  0  0  0  0  0  0  0  0  0  0
  151.1324  141.2499  156.2647 H   0  0  0  0  0  0  0  0  0  0  0  0
  151.2372  140.9990  154.5388 H   0  0  0  0  0  0  0  0  0  0  0  0
  148.8811  141.0685  155.2550 H   0  0  0  0  0  0  0  0  0  0  0  0
  149.1576  139.7946  156.4153 H   0  0  0  0  0  0  0  0  0  0  0  0
  1  2  1  0  0  0  0
  1 21  1  0  0  0  0
  1 22  1  0  0  0  0
  1 23  1  0  0  0  0
  2 20  1  0  0  0  0
  2  3  1  0  0  0  0
  3  4  2  0  0  0  0
  3 24  1  0  0  0  0
  4  5  1  0  0  0  0
  4 25  1  0  0  0  0
  5  6  1  0  0  0  0
  5 20  2  0  0  0  0
  6  7  1  0  0  0  0
  6 26  1  0  0  0  0
  7  8  2  0  0  0  0
  7  9  1  0  0  0  0
  9 10  1  0  0  0  0
  9 27  1  0  0  0  0
 10 11  1  0  0  0  0
 10 12  1  0  0  0  0
 10 14  1  0  0  0  0
 11 28  1  0  0  0  0
 11 29  1  0  0  0  0
 11 30  1  0  0  0  0
 12 13  1  0  0  0  0
 12 31  1  0  0  0  0
 12 32  1  0  0  0  0
 13 33  1  0  0  0  0
 14 19  1  0  0  0  0
 14 15  1  0  0  0  0
 14 34  1  0  0  0  0
 15 16  1  0  0  0  0
 15 35  1  0  0  0  0
 15 36  1  0  0  0  0
 16 17  1  0  0  0  0
 16 37  1  0  0  0  0
 16 38  1  0  0  0  0
 17 18  1  0  0  0  0
 17 39  1  0  0  0  0
 17 40  1  0  0  0  0
 18 19  1  0  0  0  0
 18 41  1  0  0  0  0
 18 42  1  0  0  0  0
 19 43  1  0  0  0  0
 19 44  1  0  0  0  0
M  END
> <s_m_source_file>
AV-unprocessed.smi

> <i_m_source_file_index>
614

> <i_lp_mmshare_version>
43012

> <i_f3d_flags>
0

> <s_epik_input>
W0NIM11uMVtjSF1bY0hdYyhuMSlbTkhdQyg9TylbTkhdW0NAQF0oW0NIM10pKFtDSDJdW09IXSlbQ0hdMltDSDJdW0NIMl1bQ0gyXVtDSDJdW0NIMl0y

> <s_epik_cmdline>
J2VwaWtfcHl0aG9uJywgJy1waCcsICc3LjAnLCAnLXRuJywgJzgnLCAnLW1hJywgJzIwMCcsICctbWV0YWxfYmluZGluZycsICctaW1hZScsICc8aW5maWxlLm1hZT4nLCAnLW9tYWUnLCAnPG91dGZpbGUubWFlPic=

> <r_lp_tautomer_probability>
1

> <r_epik_Ionization_Penalty>
3.66621e-05

> <r_epik_Ionization_Penalty_Charging>
0

> <r_epik_Ionization_Penalty_Neutral>
3.66621e-05

> <r_epik_State_Penalty>
-0

> <r_epik_Charging_Adjusted_Penalty>
0

> <i_epik_Tot_Q>
0

> <i_epik_Tot_abs_Q>
0

> <r_epik_Metal_State_Penalty>
-0

> <b_epik_Metal_Only>
0

> <s_lp_Force_Field>
OPLS_2005

> <r_lp_Energy>
19.716

> <b_lp_Chiralities_Consistent>
1

> <s_lp_Variant>
AV-unprocessed.smi:614-2

> <Gold.Version>
5.8.1

> <Gold.Id.Protein>
6NUR|6NUR_protein|mol2

> <Gold.PLP.Fitness>
42.4644

> <Gold.PLP.PLP>
-31.5556

> <Gold.PLP.part.hbond>
-3.1589

> <Gold.PLP.part.metal>
0.0000

> <Gold.PLP.part.buried>
-3.2771

> <Gold.PLP.part.nonpolar>
-26.0326

> <Gold.PLP.part.repulsive>
0.3962

> <Gold.PLP.ligand.clash>
0.0000

> <Gold.PLP.ligand.torsion>
0.3918

> <Gold.PLP.Chemscore.Hbond>
3.0000

> <Gold.PLP.Chemscore.CHOScore>
0.8599

> <Gold.PLP.Chemscore.Metal>
0.0000

> <Gold.Chemscore.Hbonds>
donor molecule, donor type, donor heavy atom, donor atom, acceptor molecule, acceptor atom, score
      L1  H     6    26       P1  7948  1.00
      L1  H     9    27       P1  7948  1.00
      L1  H    13    33       P1  7957  1.00
      L1  C     3    24       P1 10186  0.92

> <Gold.PLP.Chemscore.Internal.Correction>
0.1128

> <Gold.Rescore>
     Score         DG    S(hbond)    S(metal)    S(lipo)     H(rot)  DE(clash)    DE(int)     intcor
     14.85     -18.07       2.92        0.00      69.48       2.07       0.11       3.11       ----

> <Gold.Chemscore.Fitness>
14.8484

> <Gold.Chemscore.DG>
-18.0676

> <Gold.Chemscore.ZeroCoef>
-5.4800

> <Gold.Chemscore.Hbond>
2.9221

> <Gold.Chemscore.Metal>
0.0000

> <Gold.Chemscore.Lipo>
69.4819

> <Gold.Chemscore.Internal_Hbond>
0.0000

> <Gold.Chemscore.DEClash>
0.1129

> <Gold.Chemscore.DEInternal>
3.1064

> <Gold.Chemscore.Rot>
2.0710

> <Gold.Chemscore.Internal.Correction>
   9.000000E+99

> <Gold.Chemscore.Hbonds>
donor molecule, donor type, donor heavy atom, donor atom, acceptor molecule, acceptor atom, score
      L1  H     6    26       P1  7948  0.92
      L1  H     9    27       P1  7948  0.94
      L1  H    13    33       P1  7957  0.99

> <Gold.Chemscore.Hbond.Weighted>
-9.7599

> <Gold.Chemscore.Metal.Weighted>
-0.0000

> <Gold.Chemscore.Lipo.Weighted>
-8.1294

> <Gold.Chemscore.Internal_Hbond.Weighted>
0.0000

> <Gold.Chemscore.DEClash.Weighted>
0.1129

> <Gold.Chemscore.DEInternal.Weighted>
3.1064

> <Gold.Chemscore.Rot.Weighted>
5.3017

> <Gold.Chemscore.Internal.Correction.Weighted>
   9.000000E+99

> <Gold.Protein.RotatedTorsions>
[ 6907 6896 6895 6894 ] final  -95.83 input  -60.11 | X-H torsion
[ 7974 7965 7964 7962 ] final  -78.29 input  175.53 | X-H torsion
[ 8008 7997 7996 7995 ] final  -17.31 input   59.86 | X-H torsion
[ 10167 10162 10161 10158 ] final  108.45 input  -65.29 | X-H torsion
[ 10718 10713 10712 10709 ] final   64.30 input   66.30 | X-H torsion
[ 10763 10752 10751 10750 ] final   -4.59 input  -60.55 | X-H torsion
[ 11005 11000 10999 10996 ] final   84.08 input  -57.11 | X-H torsion

> <Gold.Protein.ActiveResidues>
 VAL166  LYS551  ARG553  GLY616  TRP617  ASP618  TYR619  PRO620  LYS621  CYS622 
 ASP623  PHE694  ASN695  SER759  ASP760  ASP761  ALA762  ILE779  LEU786  VAL792 
 PHE793  MET794  SER795  GLU796  ALA797  LYS798  CYS799  TRP800  GLU811  SER814 

> <Gold.Protein.RotatedAtoms>
  150.6973  134.1597  159.4171 H   0  0  0  0  0  0  0  0  0  0  0  0  # atno 6907 bound_to 6896
  151.9577  135.0136  160.0555 H   0  0  0  0  0  0  0  0  0  0  0  0  # atno 6908 bound_to 6896
  152.1954  133.4768  159.5067 H   0  0  0  0  0  0  0  0  0  0  0  0  # atno 6909 bound_to 6896
  145.5884  140.9434  143.1305 H   0  0  0  0  0  0  0  0  0  0  0  0  # atno 7974 bound_to 7965
  154.4987  140.2146  155.9391 H   0  0  0  0  0  0  0  0  0  0  0  0  # atno 8008 bound_to 7997
  156.1405  140.3180  155.8456 H   0  0  0  0  0  0  0  0  0  0  0  0  # atno 8009 bound_to 7997
  155.4128  140.0491  157.3021 H   0  0  0  0  0  0  0  0  0  0  0  0  # atno 8010 bound_to 7997
  139.6845  144.7115  151.1457 H   0  0  0  0  0  0  0  0  0  0  0  0  # atno 10167 bound_to 10162
  157.6030  130.9152  149.9827 H   0  0  0  0  0  0  0  0  0  0  0  0  # atno 10718 bound_to 10713
  153.3870  135.7000  153.6523 H   0  0  0  0  0  0  0  0  0  0  0  0  # atno 10763 bound_to 10752
  153.5111  135.3632  155.2587 H   0  0  0  0  0  0  0  0  0  0  0  0  # atno 10764 bound_to 10752
  154.8698  135.4135  154.3179 H   0  0  0  0  0  0  0  0  0  0  0  0  # atno 10765 bound_to 10752
  139.9011  134.8191  156.2396 H   0  0  0  0  0  0  0  0  0  0  0  0  # atno 11005 bound_to 11000
  144.7362  139.7579  143.7328 LP  0  0  0  0  0  0  0  0  0  0  0  0  # atno 17320 bound_to 7965
  146.1665  139.4798  142.9955 LP  0  0  0  0  0  0  0  0  0  0  0  0  # atno 17321 bound_to 7965
  140.7663  143.5650  150.9057 LP  0  0  0  0  0  0  0  0  0  0  0  0  # atno 17342 bound_to 10162
  139.9324  143.6478  152.3073 LP  0  0  0  0  0  0  0  0  0  0  0  0  # atno 17343 bound_to 10162
  156.1108  130.3650  150.0052 LP  0  0  0  0  0  0  0  0  0  0  0  0  # atno 17370 bound_to 10713
  156.8151  130.9339  151.3643 LP  0  0  0  0  0  0  0  0  0  0  0  0  # atno 17371 bound_to 10713
  141.0293  133.6997  156.1402 LP  0  0  0  0  0  0  0  0  0  0  0  0  # atno 17394 bound_to 11000
  140.7120  134.4451  157.5581 LP  0  0  0  0  0  0  0  0  0  0  0  0  # atno 17395 bound_to 11000

$$$$
