AV-unprocessed.smi:36|AV-procd|sdf|290|dock4
  -GOLD-   2262016 73D 1   1.00000     0.00000
 Structure written by MMmdl.
 64 67  0  0  0  0  0  0  0  0  1 V2000
  145.8919  136.4537  150.3071 C   0  0  0  0  0  0  0  0  0  0  0  0
  145.4787  135.4576  151.4031 C   0  0  0  0  0  0  0  0  0  0  0  0
  144.2881  134.6127  150.9200 C   0  0  0  0  0  0  0  0  0  0  0  0
  146.6615  134.5364  151.7456 C   0  0  0  0  0  0  0  0  0  0  0  0
  144.9650  136.4169  152.9736 Si  0  0  0  0  0  0  0  0  0  0  0  0
  143.5548  137.6348  152.5993 C   0  0  0  0  0  0  0  0  0  0  0  0
  144.4413  135.2325  154.3640 C   0  0  0  0  0  0  0  0  0  0  0  0
  146.3069  137.2979  153.5058 O   0  0  0  0  0  0  0  0  0  0  0  0
  146.2385  138.2955  154.5025 C   0  0  0  0  0  0  0  0  0  0  0  0
  147.5289  139.1261  154.4621 C   0  0  1  0  0  0  0  0  0  0  0  0
  148.6608  138.3425  154.8401 O   0  0  0  0  0  0  0  0  0  0  0  0
  149.7810  138.7148  154.0941 C   0  0  2  0  0  0  0  0  0  0  0  0
  150.8971  139.0510  155.0299 N   0  0  0  0  0  0  0  0  0  0  0  0
  152.1275  139.4697  154.6792 C   0  0  0  0  0  0  0  0  0  0  0  0
  152.9584  139.7115  155.6893 N   0  0  0  0  0  0  0  0  0  0  0  0
  152.1796  139.4108  156.8019 C   0  0  0  0  0  0  0  0  0  0  0  0
  152.5103  139.4704  158.2422 C   0  0  0  0  0  0  0  0  0  0  0  0
  153.6993  139.8766  158.5710 N   0  0  0  0  0  0  0  0  0  0  0  0
  154.0659  139.9515  159.9084 C   0  0  0  0  0  0  0  0  0  0  0  0
  154.7245  139.1492  160.5761 O   0  0  0  0  0  0  0  0  0  0  0  0
  153.5267  141.1611  160.6006 C   0  0  0  0  0  0  0  0  0  0  0  0
  153.7082  141.3194  161.9911 C   0  0  0  0  0  0  0  0  0  0  0  0
  153.1951  142.4564  162.6455 C   0  0  0  0  0  0  0  0  0  0  0  0
  152.4975  143.4365  161.9128 C   0  0  0  0  0  0  0  0  0  0  0  0
  152.3113  143.2792  160.5255 C   0  0  0  0  0  0  0  0  0  0  0  0
  152.8244  142.1430  159.8696 C   0  0  0  0  0  0  0  0  0  0  0  0
  151.4073  139.0579  159.0008 N   0  0  0  0  0  0  0  0  0  0  0  0
  150.1618  138.6591  158.4923 C   0  0  0  0  0  0  0  0  0  0  0  0
  149.8536  138.6123  157.2239 N   0  0  0  0  0  0  0  0  0  0  0  0
  150.9186  139.0018  156.4231 C   0  0  0  0  0  0  0  0  0  0  0  0
  149.3916  139.9263  153.2449 C   0  0  0  0  0  0  0  0  0  0  0  0
  147.8979  139.7249  153.0978 C   0  0  1  0  0  0  0  0  0  0  0  0
  147.6116  138.8400  152.0306 O   0  0  0  0  0  0  0  0  0  0  0  0
  146.1869  135.9370  149.3932 H   0  0  0  0  0  0  0  0  0  0  0  0
  146.7362  137.0662  150.6246 H   0  0  0  0  0  0  0  0  0  0  0  0
  145.0735  137.1277  150.0531 H   0  0  0  0  0  0  0  0  0  0  0  0
  143.4330  135.2391  150.6650 H   0  0  0  0  0  0  0  0  0  0  0  0
  143.9638  133.9105  151.6887 H   0  0  0  0  0  0  0  0  0  0  0  0
  144.5466  134.0338  150.0327 H   0  0  0  0  0  0  0  0  0  0  0  0
  146.9760  133.9551  150.8782 H   0  0  0  0  0  0  0  0  0  0  0  0
  146.3993  133.8328  152.5366 H   0  0  0  0  0  0  0  0  0  0  0  0
  147.5247  135.1080  152.0874 H   0  0  0  0  0  0  0  0  0  0  0  0
  142.6773  137.1230  152.2052 H   0  0  0  0  0  0  0  0  0  0  0  0
  143.8552  138.3807  151.8638 H   0  0  0  0  0  0  0  0  0  0  0  0
  143.2406  138.1711  153.4944 H   0  0  0  0  0  0  0  0  0  0  0  0
  143.5956  134.6132  154.0662 H   0  0  0  0  0  0  0  0  0  0  0  0
  144.1446  135.7769  155.2602 H   0  0  0  0  0  0  0  0  0  0  0  0
  145.2527  134.5622  154.6463 H   0  0  0  0  0  0  0  0  0  0  0  0
  145.3612  138.9254  154.3537 H   0  0  0  0  0  0  0  0  0  0  0  0
  146.1339  137.8067  155.4717 H   0  0  0  0  0  0  0  0  0  0  0  0
  147.4453  139.9484  155.1742 H   0  0  0  0  0  0  0  0  0  0  0  0
  150.1344  137.8679  153.5042 H   0  0  0  0  0  0  0  0  0  0  0  0
  152.4227  139.6057  153.6491 H   0  0  0  0  0  0  0  0  0  0  0  0
  154.2414  140.5712  162.5604 H   0  0  0  0  0  0  0  0  0  0  0  0
  153.3358  142.5764  163.7098 H   0  0  0  0  0  0  0  0  0  0  0  0
  152.1038  144.3077  162.4154 H   0  0  0  0  0  0  0  0  0  0  0  0
  151.7738  144.0296  159.9646 H   0  0  0  0  0  0  0  0  0  0  0  0
  152.6756  142.0282  158.8055 H   0  0  0  0  0  0  0  0  0  0  0  0
  149.4380  138.3801  159.2595 H   0  0  0  0  0  0  0  0  0  0  0  0
  149.5915  140.8474  153.7943 H   0  0  0  0  0  0  0  0  0  0  0  0
  149.9420  139.9498  152.3037 H   0  0  0  0  0  0  0  0  0  0  0  0
  147.3774  140.6653  152.9146 H   0  0  0  0  0  0  0  0  0  0  0  0
  148.2317  138.1274  152.0602 H   0  0  0  0  0  0  0  0  0  0  0  0
  151.5181  139.0527  160.0047 H   0  0  0  0  0  0  0  0  0  0  0  0
  1  2  1  0  0  0  0
  1 34  1  0  0  0  0
  1 35  1  0  0  0  0
  1 36  1  0  0  0  0
  2  3  1  0  0  0  0
  2  4  1  0  0  0  0
  2  5  1  0  0  0  0
  3 37  1  0  0  0  0
  3 38  1  0  0  0  0
  3 39  1  0  0  0  0
  4 40  1  0  0  0  0
  4 41  1  0  0  0  0
  4 42  1  0  0  0  0
  5  6  1  0  0  0  0
  5  7  1  0  0  0  0
  5  8  1  0  0  0  0
  6 43  1  0  0  0  0
  6 44  1  0  0  0  0
  6 45  1  0  0  0  0
  7 46  1  0  0  0  0
  7 47  1  0  0  0  0
  7 48  1  0  0  0  0
  8  9  1  0  0  0  0
  9 10  1  0  0  0  0
  9 49  1  0  0  0  0
  9 50  1  0  0  0  0
 10 32  1  0  0  0  0
 10 11  1  0  0  0  0
 10 51  1  0  0  0  0
 11 12  1  0  0  0  0
 12 13  1  0  0  0  0
 12 31  1  0  0  0  0
 12 52  1  0  0  0  0
 13 30  1  0  0  0  0
 13 14  1  0  0  0  0
 14 15  2  0  0  0  0
 14 53  1  0  0  0  0
 15 16  1  0  0  0  0
 16 30  2  0  0  0  0
 16 17  1  0  0  0  0
 17 18  2  0  0  0  0
 17 27  1  0  0  0  0
 18 19  1  0  0  0  0
 19 20  2  0  0  0  0
 19 21  1  0  0  0  0
 21 26  1  0  0  0  0
 21 22  2  0  0  0  0
 22 23  1  0  0  0  0
 22 54  1  0  0  0  0
 23 24  2  0  0  0  0
 23 55  1  0  0  0  0
 24 25  1  0  0  0  0
 24 56  1  0  0  0  0
 25 26  2  0  0  0  0
 25 57  1  0  0  0  0
 26 58  1  0  0  0  0
 27 28  1  0  0  0  0
 27 64  1  0  0  0  0
 28 29  2  0  0  0  0
 28 59  1  0  0  0  0
 29 30  1  0  0  0  0
 31 32  1  0  0  0  0
 31 60  1  0  0  0  0
 31 61  1  0  0  0  0
 32 33  1  0  0  0  0
 32 62  1  0  0  0  0
 33 63  1  0  0  0  0
M  END
> <s_m_source_file>
AV-unprocessed.smi

> <i_m_source_file_index>
36

> <i_lp_mmshare_version>
43012

> <i_f3d_flags>
0

> <s_epik_input>
W0NIM11DKFtDSDNdKShbQ0gzXSlbU2ldKFtDSDNdKShbQ0gzXSlPW0NIMl1bQ0BASF0xT1tDQEhdKFtDSDJdW0NASF0xW09IXSluKFtjSF1uMiljKGMyMyluW2NIXW5jM1tOSF1DKD1PKWM0W2NIXVtjSF1bY0hdW2NIXVtjSF00

> <s_epik_cmdline>
J2VwaWtfcHl0aG9uJywgJy1waCcsICc3LjAnLCAnLXRuJywgJzgnLCAnLW1hJywgJzIwMCcsICctbWV0YWxfYmluZGluZycsICctaW1hZScsICc8aW5maWxlLm1hZT4nLCAnLW9tYWUnLCAnPG91dGZpbGUubWFlPic=

> <r_epik_Ionization_Penalty>
0.0850405

> <r_epik_Ionization_Penalty_Charging>
0.0850403

> <r_epik_Ionization_Penalty_Neutral>
1.47497e-07

> <r_epik_State_Penalty>
2.6133

> <r_epik_Charging_Adjusted_Penalty>
2.69834

> <i_epik_Tot_Q>
0

> <i_epik_Tot_abs_Q>
0

> <r_epik_Metal_State_Penalty>
2.92945

> <b_epik_Metal_Only>
0

> <s_epik_Chemistry_Notes>
This compound contains an acetal/aminal-like group ( X-CH(R)-Y where X, Y are N, S, or O) that may be acid/base labile, releasing an aldehyde.

> <s_lp_Force_Field>
OPLS_2005

> <r_lp_Energy>
50.4083

> <b_lp_Chiralities_Consistent>
1

> <s_lp_Variant>
AV-unprocessed.smi:36-12

> <Gold.Version>
5.8.1

> <Gold.Id.Protein>
6NUR|6NUR_protein|mol2

> <Gold.PLP.Fitness>
59.2067

> <Gold.PLP.PLP>
-53.2959

> <Gold.PLP.part.hbond>
-4.0000

> <Gold.PLP.part.metal>
0.0000

> <Gold.PLP.part.buried>
0.6649

> <Gold.PLP.part.nonpolar>
-49.3126

> <Gold.PLP.part.repulsive>
0.3301

> <Gold.PLP.ligand.clash>
0.0000

> <Gold.PLP.ligand.torsion>
0.9108

> <Gold.PLP.Chemscore.Hbond>
2.4720

> <Gold.PLP.Chemscore.CHOScore>
0.0000

> <Gold.PLP.Chemscore.Metal>
0.0000

> <Gold.Chemscore.Hbonds>
donor molecule, donor type, donor heavy atom, donor atom, acceptor molecule, acceptor atom, score
      L1  H    33    63       P1  7948  1.00
      P1  H  7997  8008       L1    18  0.93
      P1  H  7997  8009       L1    15  0.58

> <Gold.PLP.Chemscore.Internal.Correction>
0.3165

> <Gold.Rescore>
     Score         DG    S(hbond)    S(metal)    S(lipo)     H(rot)  DE(clash)    DE(int)     intcor
     13.01     -19.42       2.39        0.00     110.15       2.70       2.27       4.13       ----

> <Gold.Chemscore.Fitness>
13.0144

> <Gold.Chemscore.DG>
-19.4218

> <Gold.Chemscore.ZeroCoef>
-5.4800

> <Gold.Chemscore.Hbond>
2.3884

> <Gold.Chemscore.Metal>
0.0000

> <Gold.Chemscore.Lipo>
110.1463

> <Gold.Chemscore.Internal_Hbond>
0.0000

> <Gold.Chemscore.DEClash>
2.2747

> <Gold.Chemscore.DEInternal>
4.1327

> <Gold.Chemscore.Rot>
2.7041

> <Gold.Chemscore.Internal.Correction>
   9.000000E+99

> <Gold.Chemscore.Hbonds>
donor molecule, donor type, donor heavy atom, donor atom, acceptor molecule, acceptor atom, score
      L1  H    33    63       P1  7948  0.95
      P1  H  7997  8008       L1    18  0.85
      P1  H  7997  8009       L1    15  0.58

> <Gold.Chemscore.Hbond.Weighted>
-7.9772

> <Gold.Chemscore.Metal.Weighted>
-0.0000

> <Gold.Chemscore.Lipo.Weighted>
-12.8871

> <Gold.Chemscore.Internal_Hbond.Weighted>
0.0000

> <Gold.Chemscore.DEClash.Weighted>
2.2747

> <Gold.Chemscore.DEInternal.Weighted>
4.1327

> <Gold.Chemscore.Rot.Weighted>
6.9225

> <Gold.Chemscore.Internal.Correction.Weighted>
   9.000000E+99

> <Gold.Protein.RotatedTorsions>
[ 6907 6896 6895 6894 ] final  171.10 input  -60.11 | X-H torsion
[ 7974 7965 7964 7962 ] final   59.13 input  175.53 | X-H torsion
[ 8008 7997 7996 7995 ] final -113.99 input   59.86 | X-H torsion
[ 10167 10162 10161 10158 ] final  124.49 input  -65.29 | X-H torsion
[ 10718 10713 10712 10709 ] final   78.65 input   66.30 | X-H torsion
[ 10763 10752 10751 10750 ] final -165.87 input  -60.55 | X-H torsion
[ 11005 11000 10999 10996 ] final  -57.99 input  -57.11 | X-H torsion

> <Gold.Protein.ActiveResidues>
 VAL166  LYS551  ARG553  GLY616  TRP617  ASP618  TYR619  PRO620  LYS621  CYS622 
 ASP623  PHE694  ASN695  SER759  ASP760  ASP761  ALA762  ILE779  LEU786  VAL792 
 PHE793  MET794  SER795  GLU796  ALA797  LYS798  CYS799  TRP800  GLU811  SER814 

> <Gold.Protein.RotatedAtoms>
  151.8056  133.3375  159.3539 H   0  0  0  0  0  0  0  0  0  0  0  0  # atno 6907 bound_to 6896
  150.7343  134.5712  159.5901 H   0  0  0  0  0  0  0  0  0  0  0  0  # atno 6908 bound_to 6896
  152.3112  134.7496  160.0387 H   0  0  0  0  0  0  0  0  0  0  0  0  # atno 6909 bound_to 6896
  145.9105  139.3650  143.0538 H   0  0  0  0  0  0  0  0  0  0  0  0  # atno 7974 bound_to 7965
  155.0293  140.0393  157.2468 H   0  0  0  0  0  0  0  0  0  0  0  0  # atno 8008 bound_to 7997
  154.7310  140.2730  155.6432 H   0  0  0  0  0  0  0  0  0  0  0  0  # atno 8009 bound_to 7997
  156.2841  140.2684  156.2010 H   0  0  0  0  0  0  0  0  0  0  0  0  # atno 8010 bound_to 7997
  139.5739  144.6953  151.3706 H   0  0  0  0  0  0  0  0  0  0  0  0  # atno 10167 bound_to 10162
  157.6752  130.9878  150.1817 H   0  0  0  0  0  0  0  0  0  0  0  0  # atno 10718 bound_to 10713
  154.6889  135.2967  154.9508 H   0  0  0  0  0  0  0  0  0  0  0  0  # atno 10763 bound_to 10752
  154.0478  135.6648  153.4801 H   0  0  0  0  0  0  0  0  0  0  0  0  # atno 10764 bound_to 10752
  153.0598  135.5122  154.7971 H   0  0  0  0  0  0  0  0  0  0  0  0  # atno 10765 bound_to 10752
  141.1188  133.6611  156.4853 H   0  0  0  0  0  0  0  0  0  0  0  0  # atno 11005 bound_to 11000
  145.8677  140.9438  143.0667 LP  0  0  0  0  0  0  0  0  0  0  0  0  # atno 17320 bound_to 7965
  144.6743  140.0614  143.7476 LP  0  0  0  0  0  0  0  0  0  0  0  0  # atno 17321 bound_to 7965
  140.7022  143.7603  150.7422 LP  0  0  0  0  0  0  0  0  0  0  0  0  # atno 17342 bound_to 10162
  140.1117  143.4693  152.2366 LP  0  0  0  0  0  0  0  0  0  0  0  0  # atno 17343 bound_to 10162
  156.2548  130.3704  149.8193 LP  0  0  0  0  0  0  0  0  0  0  0  0  # atno 17370 bound_to 10713
  156.5955  130.8524  151.3419 LP  0  0  0  0  0  0  0  0  0  0  0  0  # atno 17371 bound_to 10713
  140.4567  134.6879  157.5066 LP  0  0  0  0  0  0  0  0  0  0  0  0  # atno 17394 bound_to 11000
  140.0130  134.6662  155.9352 LP  0  0  0  0  0  0  0  0  0  0  0  0  # atno 17395 bound_to 11000

$$$$
