AV-unprocessed.smi:1327|AV-procd|sdf|5477|dock5
  -GOLD-   22720 5 53D 1   1.00000     0.00000
 Structure written by MMmdl.
 40 41  0  0  0  0  0  0  0  0  1 V2000
  152.1737  140.1604  156.6342 O   0  0  0  0  0  0  0  0  0  0  0  0
  152.0450  140.1550  158.0994 S   0  0  0  0  0  0  0  0  0  0  0  0
  150.9794  139.3889  158.7638 O   0  0  0  0  0  0  0  0  0  0  0  0
  153.5485  139.6649  158.7813 N   0  0  0  0  0  0  0  0  0  0  0  0
  153.5508  139.0421  160.1039 C   0  0  0  0  0  0  0  0  0  0  0  0
  154.8541  139.3497  160.8598 C   0  0  0  0  0  0  0  0  0  0  0  0
  154.9585  138.6337  162.1968 C   0  0  0  0  0  0  0  0  0  0  0  0
  154.2293  137.4486  162.4333 C   0  0  0  0  0  0  0  0  0  0  0  0
  154.3479  136.8262  163.6910 C   0  0  0  0  0  0  0  0  0  0  0  0
  155.1856  137.4102  164.6605 C   0  0  0  0  0  0  0  0  0  0  0  0
  155.8711  138.5953  164.3273 C   0  0  0  0  0  0  0  0  0  0  0  0
  155.7654  139.1993  163.1240 N   0  0  0  0  0  0  0  0  0  0  0  0
  152.0065  141.7962  158.6594 N   0  0  0  0  0  0  0  0  0  0  0  0
  151.6117  142.8445  157.7016 C   0  0  0  0  0  0  0  0  0  0  0  0
  150.9546  144.0661  158.3735 C   0  0  0  0  0  0  0  0  0  0  0  0
  151.9461  144.9582  159.1360 C   0  0  0  0  0  0  0  0  0  0  0  0
  152.2400  144.5118  160.5791 C   0  0  0  0  0  0  0  0  0  0  0  0
  152.3084  142.9925  160.8119 C   0  0  0  0  0  0  0  0  0  0  0  0
  152.9876  142.2008  159.6847 C   0  0  0  0  0  0  0  0  0  0  0  0
  154.2661  140.3835  158.6835 H   0  0  0  0  0  0  0  0  0  0  0  0
  152.6907  139.3960  160.6733 H   0  0  0  0  0  0  0  0  0  0  0  0
  153.4335  137.9652  159.9810 H   0  0  0  0  0  0  0  0  0  0  0  0
  155.7049  139.0604  160.2419 H   0  0  0  0  0  0  0  0  0  0  0  0
  154.9509  140.4249  161.0174 H   0  0  0  0  0  0  0  0  0  0  0  0
  153.5912  137.0263  161.6709 H   0  0  0  0  0  0  0  0  0  0  0  0
  153.8056  135.9179  163.9082 H   0  0  0  0  0  0  0  0  0  0  0  0
  155.2999  136.9614  165.6360 H   0  0  0  0  0  0  0  0  0  0  0  0
  156.5209  139.0705  165.0469 H   0  0  0  0  0  0  0  0  0  0  0  0
  152.4790  143.1410  157.1107 H   0  0  0  0  0  0  0  0  0  0  0  0
  150.8948  142.4263  156.9955 H   0  0  0  0  0  0  0  0  0  0  0  0
  150.5071  144.6696  157.5829 H   0  0  0  0  0  0  0  0  0  0  0  0
  150.1267  143.7628  159.0154 H   0  0  0  0  0  0  0  0  0  0  0  0
  152.8780  145.0240  158.5729 H   0  0  0  0  0  0  0  0  0  0  0  0
  151.5579  145.9767  159.1702 H   0  0  0  0  0  0  0  0  0  0  0  0
  153.1816  144.9659  160.8902 H   0  0  0  0  0  0  0  0  0  0  0  0
  151.4815  144.9240  161.2455 H   0  0  0  0  0  0  0  0  0  0  0  0
  152.8471  142.8189  161.7439 H   0  0  0  0  0  0  0  0  0  0  0  0
  151.3061  142.5959  160.9819 H   0  0  0  0  0  0  0  0  0  0  0  0
  153.4398  141.3083  160.1170 H   0  0  0  0  0  0  0  0  0  0  0  0
  153.8087  142.7563  159.2302 H   0  0  0  0  0  0  0  0  0  0  0  0
  1  2  2  0  0  0  0
  2  3  2  0  0  0  0
  2  4  1  0  0  0  0
  2 13  1  0  0  0  0
  4  5  1  0  0  0  0
  4 20  1  0  0  0  0
  5  6  1  0  0  0  0
  5 21  1  0  0  0  0
  5 22  1  0  0  0  0
  6  7  1  0  0  0  0
  6 23  1  0  0  0  0
  6 24  1  0  0  0  0
  7 12  1  0  0  0  0
  7  8  2  0  0  0  0
  8  9  1  0  0  0  0
  8 25  1  0  0  0  0
  9 10  2  0  0  0  0
  9 26  1  0  0  0  0
 10 11  1  0  0  0  0
 10 27  1  0  0  0  0
 11 12  2  0  0  0  0
 11 28  1  0  0  0  0
 13 19  1  0  0  0  0
 13 14  1  0  0  0  0
 14 15  1  0  0  0  0
 14 29  1  0  0  0  0
 14 30  1  0  0  0  0
 15 16  1  0  0  0  0
 15 31  1  0  0  0  0
 15 32  1  0  0  0  0
 16 17  1  0  0  0  0
 16 33  1  0  0  0  0
 16 34  1  0  0  0  0
 17 18  1  0  0  0  0
 17 35  1  0  0  0  0
 17 36  1  0  0  0  0
 18 19  1  0  0  0  0
 18 37  1  0  0  0  0
 18 38  1  0  0  0  0
 19 39  1  0  0  0  0
 19 40  1  0  0  0  0
M  END
> <s_m_source_file>
AV-unprocessed.smi

> <i_m_source_file_index>
1327

> <i_lp_mmshare_version>
43012

> <i_f3d_flags>
0

> <s_epik_input>
W0NIMl0xW0NIMl1bQ0gyXVtDSDJdW0NIMl1bQ0gyXU4xUyg9TykoPU8pW05IXVtDSDJdW0NIMl1jMltjSF1bY0hdW2NIXVtjSF1uMg==

> <s_epik_cmdline>
J2VwaWtfcHl0aG9uJywgJy1waCcsICc3LjAnLCAnLXRuJywgJzgnLCAnLW1hJywgJzIwMCcsICctbWV0YWxfYmluZGluZycsICctaW1hZScsICc8aW5maWxlLm1hZT4nLCAnLW9tYWUnLCAnPG91dGZpbGUubWFlPic=

> <r_lp_tautomer_probability>
1

> <r_epik_Ionization_Penalty>
0.00665037

> <r_epik_Ionization_Penalty_Charging>
0

> <r_epik_Ionization_Penalty_Neutral>
0.00665037

> <r_epik_State_Penalty>
-0

> <r_epik_Charging_Adjusted_Penalty>
0

> <i_epik_Tot_Q>
0

> <i_epik_Tot_abs_Q>
0

> <r_epik_Metal_State_Penalty>
0.361784

> <b_epik_Metal_Only>
0

> <s_lp_Force_Field>
OPLS_2005

> <r_lp_Energy>
15.8899

> <b_lp_Chiralities_Consistent>
1

> <s_lp_Variant>
AV-unprocessed.smi:1327-1

> <Gold.Version>
5.8.1

> <Gold.Id.Protein>
6NUR|6NUR_protein|mol2

> <Gold.PLP.Fitness>
40.8016

> <Gold.PLP.PLP>
-43.1599

> <Gold.PLP.part.hbond>
-1.5597

> <Gold.PLP.part.metal>
0.0000

> <Gold.PLP.part.buried>
-5.2565

> <Gold.PLP.part.nonpolar>
-35.8498

> <Gold.PLP.part.repulsive>
0.0000

> <Gold.PLP.ligand.clash>
0.0068

> <Gold.PLP.ligand.torsion>
2.2400

> <Gold.PLP.Chemscore.Hbond>
0.0000

> <Gold.PLP.Chemscore.CHOScore>
0.0000

> <Gold.PLP.Chemscore.Metal>
0.0000

> <Gold.PLP.Chemscore.Internal.Correction>
2.1286

> <Gold.Rescore>
     Score         DG    S(hbond)    S(metal)    S(lipo)     H(rot)  DE(clash)    DE(int)     intcor
     13.28     -15.73       0.00        0.00     119.79       1.47       0.21       2.24       ----

> <Gold.Chemscore.Fitness>
13.2782

> <Gold.Chemscore.DG>
-15.7260

> <Gold.Chemscore.ZeroCoef>
-5.4800

> <Gold.Chemscore.Hbond>
0.0000

> <Gold.Chemscore.Metal>
0.0000

> <Gold.Chemscore.Lipo>
119.7922

> <Gold.Chemscore.Internal_Hbond>
0.0000

> <Gold.Chemscore.DEClash>
0.2069

> <Gold.Chemscore.DEInternal>
2.2408

> <Gold.Chemscore.Rot>
1.4725

> <Gold.Chemscore.Internal.Correction>
   9.000000E+99

> <Gold.Chemscore.Hbond.Weighted>
-0.0000

> <Gold.Chemscore.Metal.Weighted>
-0.0000

> <Gold.Chemscore.Lipo.Weighted>
-14.0157

> <Gold.Chemscore.Internal_Hbond.Weighted>
0.0000

> <Gold.Chemscore.DEClash.Weighted>
0.2069

> <Gold.Chemscore.DEInternal.Weighted>
2.2408

> <Gold.Chemscore.Rot.Weighted>
3.7697

> <Gold.Chemscore.Internal.Correction.Weighted>
   9.000000E+99

> <Gold.Protein.RotatedTorsions>
[ 6907 6896 6895 6894 ] final -125.92 input  -60.11 | X-H torsion
[ 7974 7965 7964 7962 ] final -177.02 input  175.53 | X-H torsion
[ 8008 7997 7996 7995 ] final  134.68 input   59.86 | X-H torsion
[ 10167 10162 10161 10158 ] final  108.71 input  -65.29 | X-H torsion
[ 10718 10713 10712 10709 ] final    6.48 input   66.30 | X-H torsion
[ 10763 10752 10751 10750 ] final  -65.89 input  -60.55 | X-H torsion
[ 11005 11000 10999 10996 ] final  -30.52 input  -57.11 | X-H torsion

> <Gold.Protein.ActiveResidues>
 VAL166  LYS551  ARG553  GLY616  TRP617  ASP618  TYR619  PRO620  LYS621  CYS622 
 ASP623  PHE694  ASN695  SER759  ASP760  ASP761  ALA762  ILE779  LEU786  VAL792 
 PHE793  MET794  SER795  GLU796  ALA797  LYS798  CYS799  TRP800  GLU811  SER814 

> <Gold.Protein.RotatedAtoms>
  150.8916  133.7235  159.2902 H   0  0  0  0  0  0  0  0  0  0  0  0  # atno 6907 bound_to 6896
  151.4783  135.1049  159.9780 H   0  0  0  0  0  0  0  0  0  0  0  0  # atno 6908 bound_to 6896
  152.4824  133.8239  159.7123 H   0  0  0  0  0  0  0  0  0  0  0  0  # atno 6909 bound_to 6896
  144.7127  140.1082  143.6412 H   0  0  0  0  0  0  0  0  0  0  0  0  # atno 7974 bound_to 7965
  156.3000  140.2490  156.3456 H   0  0  0  0  0  0  0  0  0  0  0  0  # atno 8008 bound_to 7997
  154.9014  140.0406  157.1914 H   0  0  0  0  0  0  0  0  0  0  0  0  # atno 8009 bound_to 7997
  154.8497  140.2904  155.5610 H   0  0  0  0  0  0  0  0  0  0  0  0  # atno 8010 bound_to 7997
  139.6824  144.7117  151.1491 H   0  0  0  0  0  0  0  0  0  0  0  0  # atno 10167 bound_to 10162
  156.9228  130.5797  149.5648 H   0  0  0  0  0  0  0  0  0  0  0  0  # atno 10718 bound_to 10713
  154.3517  135.6135  153.5646 H   0  0  0  0  0  0  0  0  0  0  0  0  # atno 10763 bound_to 10752
  152.9798  135.5794  154.4736 H   0  0  0  0  0  0  0  0  0  0  0  0  # atno 10764 bound_to 10752
  154.4458  135.2851  155.1793 H   0  0  0  0  0  0  0  0  0  0  0  0  # atno 10765 bound_to 10752
  140.9390  133.7290  156.1048 H   0  0  0  0  0  0  0  0  0  0  0  0  # atno 11005 bound_to 11000
  145.9478  139.2712  143.1230 LP  0  0  0  0  0  0  0  0  0  0  0  0  # atno 17320 bound_to 7965
  145.9355  140.9017  143.0334 LP  0  0  0  0  0  0  0  0  0  0  0  0  # atno 17321 bound_to 7965
  140.7657  143.5679  150.9028 LP  0  0  0  0  0  0  0  0  0  0  0  0  # atno 17342 bound_to 10162
  139.9351  143.6447  152.3067 LP  0  0  0  0  0  0  0  0  0  0  0  0  # atno 17343 bound_to 10162
  156.0483  130.5556  150.8931 LP  0  0  0  0  0  0  0  0  0  0  0  0  # atno 17370 bound_to 10713
  157.5897  131.0945  150.9139 LP  0  0  0  0  0  0  0  0  0  0  0  0  # atno 17371 bound_to 10713
  140.7760  134.3779  157.5498 LP  0  0  0  0  0  0  0  0  0  0  0  0  # atno 17394 bound_to 11000
  139.8815  134.9052  156.2894 LP  0  0  0  0  0  0  0  0  0  0  0  0  # atno 17395 bound_to 11000

$$$$
