AV-unprocessed.smi:1|AV-procd|sdf|22|dock4
  -GOLD-   2262015123D 1   1.00000     0.00000
 Structure written by MMmdl.
 56 61  0  0  0  0  0  0  0  0  2 V2000
  145.9955  134.2615  154.5986 O   0  0  0  0  0  0  0  0  0  0  0  0
  146.5183  133.3243  153.9917 C   0  0  0  0  0  0  0  0  0  0  0  0
  147.5973  132.5895  154.3626 N   0  5  0  0  0  0  0  0  0  0  0  0
  148.8079  133.1625  154.4424 C   0  0  0  0  0  0  0  0  0  0  0  0
  149.9275  132.3961  154.4764 N   0  0  0  0  0  0  0  0  0  0  0  0
  151.1337  132.9657  154.5800 C   0  0  0  0  0  0  0  0  0  0  0  0
  151.4458  134.2620  154.6703 N   0  0  0  0  0  0  0  0  0  0  0  0
  150.3278  135.0450  154.6380 C   0  0  0  0  0  0  0  0  0  0  0  0
  148.9880  134.5705  154.5287 C   0  0  0  0  0  0  0  0  0  0  0  0
  148.0892  135.6271  154.5303 N   0  0  0  0  0  0  0  0  0  0  0  0
  148.9050  136.6735  154.6332 C   0  0  0  0  0  0  0  0  0  0  0  0
  150.2279  136.4265  154.7035 N   0  0  0  0  0  0  0  0  0  0  0  0
  151.3278  137.4322  154.8215 C   0  0  1  0  0  0  0  0  0  0  0  0
  150.7726  138.7090  154.7827 O   0  0  0  0  0  0  0  0  0  0  0  0
  151.5978  139.5834  155.5348 C   0  0  1  0  0  0  0  0  0  0  0  0
  150.8461  140.8701  155.8996 C   0  0  0  0  0  0  0  0  0  0  0  0
  151.4431  141.4420  157.0556 O   0  0  0  0  0  0  0  0  0  0  0  0
  150.7026  142.1066  157.9678 C   0  0  0  0  0  0  0  0  0  0  0  0
  149.5026  142.3531  157.8323 O   0  0  0  0  0  0  0  0  0  0  0  0
  151.4938  142.5178  159.1637 C   0  0  0  0  0  0  0  0  0  0  0  0
  152.6397  141.7719  159.5265 C   0  0  0  0  0  0  0  0  0  0  0  0
  153.4082  142.1371  160.6489 C   0  0  0  0  0  0  0  0  0  0  0  0
  153.0415  143.2544  161.4213 C   0  0  0  0  0  0  0  0  0  0  0  0
  151.9046  144.0053  161.0706 C   0  0  0  0  0  0  0  0  0  0  0  0
  151.1338  143.6406  159.9494 C   0  0  0  0  0  0  0  0  0  0  0  0
  152.0468  138.7274  156.7213 C   0  0  1  0  0  0  0  0  0  0  0  0
  151.0946  138.7493  157.7703 O   0  0  0  0  0  0  0  0  0  0  0  0
  150.9517  137.2018  158.3750 S   0  0  0  0  0  0  0  0  0  0  0  0
  151.9250  137.0494  159.4675 O   0  0  0  0  0  0  0  0  0  0  0  0
  149.5248  136.8888  158.5410 O   0  0  0  0  0  0  0  0  0  0  0  0
  151.5341  136.3733  157.0472 O   0  0  0  0  0  0  0  0  0  0  0  0
  152.1131  137.3039  156.1419 C   0  0  1  0  0  0  0  0  0  0  0  0
  145.9763  132.9415  152.6399 C   0  0  0  0  0  0  0  0  0  0  0  0
  145.1325  133.8370  151.9436 C   0  0  0  0  0  0  0  0  0  0  0  0
  144.5955  133.4873  150.6892 C   0  0  0  0  0  0  0  0  0  0  0  0
  144.8894  132.2339  150.1206 C   0  0  0  0  0  0  0  0  0  0  0  0
  145.7165  131.3281  150.8103 C   0  0  0  0  0  0  0  0  0  0  0  0
  146.2537  131.6769  152.0649 C   0  0  0  0  0  0  0  0  0  0  0  0
  151.9704  132.2833  154.5977 H   0  0  0  0  0  0  0  0  0  0  0  0
  148.5176  137.6815  154.6581 H   0  0  0  0  0  0  0  0  0  0  0  0
  151.9525  137.2714  153.9417 H   0  0  0  0  0  0  0  0  0  0  0  0
  152.4651  139.8258  154.9178 H   0  0  0  0  0  0  0  0  0  0  0  0
  150.9166  141.5884  155.0826 H   0  0  0  0  0  0  0  0  0  0  0  0
  149.7863  140.6518  156.0368 H   0  0  0  0  0  0  0  0  0  0  0  0
  152.9413  140.9101  158.9486 H   0  0  0  0  0  0  0  0  0  0  0  0
  154.2803  141.5589  160.9169 H   0  0  0  0  0  0  0  0  0  0  0  0
  153.6314  143.5350  162.2814 H   0  0  0  0  0  0  0  0  0  0  0  0
  151.6222  144.8636  161.6627 H   0  0  0  0  0  0  0  0  0  0  0  0
  150.2686  144.2403  159.7074 H   0  0  0  0  0  0  0  0  0  0  0  0
  153.0080  139.0556  157.1181 H   0  0  0  0  0  0  0  0  0  0  0  0
  153.1389  137.0152  155.9111 H   0  0  0  0  0  0  0  0  0  0  0  0
  144.8959  134.8028  152.3664 H   0  0  0  0  0  0  0  0  0  0  0  0
  143.9573  134.1819  150.1634 H   0  0  0  0  0  0  0  0  0  0  0  0
  144.4778  131.9658  149.1590 H   0  0  0  0  0  0  0  0  0  0  0  0
  145.9379  130.3630  150.3791 H   0  0  0  0  0  0  0  0  0  0  0  0
  146.8780  130.9626  152.5820 H   0  0  0  0  0  0  0  0  0  0  0  0
  1  2  2  0  0  0  0
  2  3  1  0  0  0  0
  2 33  1  0  0  0  0
  3  4  1  0  0  0  0
  4  9  1  0  0  0  0
  4  5  2  0  0  0  0
  5  6  1  0  0  0  0
  6  7  2  0  0  0  0
  6 39  1  0  0  0  0
  7  8  1  0  0  0  0
  8 12  1  0  0  0  0
  8  9  2  0  0  0  0
  9 10  1  0  0  0  0
 10 11  2  0  0  0  0
 11 12  1  0  0  0  0
 11 40  1  0  0  0  0
 12 13  1  0  0  0  0
 13 32  1  0  0  0  0
 13 14  1  0  0  0  0
 13 41  1  0  0  0  0
 14 15  1  0  0  0  0
 15 16  1  0  0  0  0
 15 26  1  0  0  0  0
 15 42  1  0  0  0  0
 16 17  1  0  0  0  0
 16 43  1  0  0  0  0
 16 44  1  0  0  0  0
 17 18  1  0  0  0  0
 18 19  2  0  0  0  0
 18 20  1  0  0  0  0
 20 25  1  0  0  0  0
 20 21  2  0  0  0  0
 21 22  1  0  0  0  0
 21 45  1  0  0  0  0
 22 23  2  0  0  0  0
 22 46  1  0  0  0  0
 23 24  1  0  0  0  0
 23 47  1  0  0  0  0
 24 25  2  0  0  0  0
 24 48  1  0  0  0  0
 25 49  1  0  0  0  0
 26 32  1  0  0  0  0
 26 27  1  0  0  0  0
 26 50  1  0  0  0  0
 27 28  1  0  0  0  0
 28 29  2  0  0  0  0
 28 30  2  0  0  0  0
 28 31  1  0  0  0  0
 31 32  1  0  0  0  0
 32 51  1  0  0  0  0
 33 38  1  0  0  0  0
 33 34  2  0  0  0  0
 34 35  1  0  0  0  0
 34 52  1  0  0  0  0
 35 36  2  0  0  0  0
 35 53  1  0  0  0  0
 36 37  1  0  0  0  0
 36 54  1  0  0  0  0
 37 38  2  0  0  0  0
 37 55  1  0  0  0  0
 38 56  1  0  0  0  0
M  CHG  1   3  -1
M  END
> <s_m_source_file>
AV-unprocessed.smi

> <i_m_source_file_index>
1

> <i_lp_mmshare_version>
43012

> <i_f3d_flags>
0

> <s_epik_input>
W2NIXTFbY0hdW2NIXVtjSF1bY0hdYzFDKD1PKVtOSF1jKG5bY0hdbjIpYyhjMjMpbltjSF1uM1tDQEBIXShbQ0BIXShbQ0BIXTQ1KU9TKE81KSg9Tyk9TylPW0NASF00W0NIMl1PQyg9TyljNltjSF1bY0hdW2NIXVtjSF1bY0hdNg==

> <s_epik_cmdline>
J2VwaWtfcHl0aG9uJywgJy1waCcsICc3LjAnLCAnLXRuJywgJzgnLCAnLW1hJywgJzIwMCcsICctbWV0YWxfYmluZGluZycsICctaW1hZScsICc8aW5maWxlLm1hZT4nLCAnLW9tYWUnLCAnPG91dGZpbGUubWFlPic=

> <r_lp_tautomer_probability>
1

> <r_epik_Ionization_Penalty>
4.39121

> <r_epik_Ionization_Penalty_Charging>
3.39398

> <r_epik_Ionization_Penalty_Neutral>
0.997232

> <r_epik_State_Penalty>
3.39839

> <r_epik_Charging_Adjusted_Penalty>
6.79237

> <i_epik_Tot_Q>
-1

> <i_epik_Tot_abs_Q>
1

> <r_epik_Metal_State_Penalty>
0.497663

> <b_epik_Metal_Only>
1

> <s_epik_Chemistry_Notes>
This compound has an ester and may undergo hydrolysis at high or low pH. This compound contains an acetal/aminal-like group ( X-CH(R)-Y where X, Y are N, S, or O) that may be acid/base labile, releasing an aldehyde.

> <s_lp_Force_Field>
OPLS_2005

> <r_lp_Energy>
46.5931

> <b_lp_Chiralities_Consistent>
1

> <s_lp_Variant>
AV-unprocessed.smi:1-22

> <Gold.Version>
5.8.1

> <Gold.Id.Protein>
6NUR|6NUR_protein|mol2

> <Gold.PLP.Fitness>
52.2254

> <Gold.PLP.PLP>
-51.4499

> <Gold.PLP.part.hbond>
-2.2525

> <Gold.PLP.part.metal>
0.0000

> <Gold.PLP.part.buried>
-5.5065

> <Gold.PLP.part.nonpolar>
-44.5435

> <Gold.PLP.part.repulsive>
1.6668

> <Gold.PLP.ligand.clash>
0.0000

> <Gold.PLP.ligand.torsion>
1.6636

> <Gold.PLP.Chemscore.Hbond>
1.0000

> <Gold.PLP.Chemscore.CHOScore>
0.0000

> <Gold.PLP.Chemscore.Metal>
0.0000

> <Gold.Chemscore.Hbonds>
donor molecule, donor type, donor heavy atom, donor atom, acceptor molecule, acceptor atom, score
      P1  H  6896  6908       L1    29  0.95
      P1  H 10752 10763       L1     7  0.29

> <Gold.PLP.Chemscore.Internal.Correction>
1.1028

> <Gold.Rescore>
     Score         DG    S(hbond)    S(metal)    S(lipo)     H(rot)  DE(clash)    DE(int)     intcor
      8.36     -16.78       0.68        0.00     123.33       2.11       0.73       7.69       ----

> <Gold.Chemscore.Fitness>
8.3607

> <Gold.Chemscore.DG>
-16.7817

> <Gold.Chemscore.ZeroCoef>
-5.4800

> <Gold.Chemscore.Hbond>
0.6834

> <Gold.Chemscore.Metal>
0.0000

> <Gold.Chemscore.Lipo>
123.3309

> <Gold.Chemscore.Internal_Hbond>
0.0000

> <Gold.Chemscore.DEClash>
0.7284

> <Gold.Chemscore.DEInternal>
7.6925

> <Gold.Chemscore.Rot>
2.1136

> <Gold.Chemscore.Internal.Correction>
   9.000000E+99

> <Gold.Chemscore.Hbonds>
donor molecule, donor type, donor heavy atom, donor atom, acceptor molecule, acceptor atom, score
      P1  H  6896  6908       L1    29  0.21
      P1  H 10752 10763       L1     7  0.13

> <Gold.Chemscore.Hbond.Weighted>
-2.2827

> <Gold.Chemscore.Metal.Weighted>
-0.0000

> <Gold.Chemscore.Lipo.Weighted>
-14.4297

> <Gold.Chemscore.Internal_Hbond.Weighted>
0.0000

> <Gold.Chemscore.DEClash.Weighted>
0.7284

> <Gold.Chemscore.DEInternal.Weighted>
7.6925

> <Gold.Chemscore.Rot.Weighted>
5.4107

> <Gold.Chemscore.Internal.Correction.Weighted>
   9.000000E+99

> <Gold.Protein.RotatedTorsions>
[ 6907 6896 6895 6894 ] final -124.02 input  -60.11 | X-H torsion
[ 7974 7965 7964 7962 ] final   20.10 input  175.53 | X-H torsion
[ 8008 7997 7996 7995 ] final -137.87 input   59.86 | X-H torsion
[ 10167 10162 10161 10158 ] final  145.63 input  -65.29 | X-H torsion
[ 10718 10713 10712 10709 ] final -117.53 input   66.30 | X-H torsion
[ 10763 10752 10751 10750 ] final   50.56 input  -60.55 | X-H torsion
[ 11005 11000 10999 10996 ] final   62.94 input  -57.11 | X-H torsion

> <Gold.Protein.ActiveResidues>
 VAL166  LYS551  ARG553  GLY616  TRP617  ASP618  TYR619  PRO620  LYS621  CYS622 
 ASP623  PHE694  ASN695  SER759  ASP760  ASP761  ALA762  ILE779  LEU786  VAL792 
 PHE793  MET794  SER795  GLU796  ALA797  LYS798  CYS799  TRP800  GLU811  SER814 

> <Gold.Protein.RotatedAtoms>
  150.8728  133.7482  159.2955 H   0  0  0  0  0  0  0  0  0  0  0  0  # atno 6907 bound_to 6896
  151.5088  135.1063  159.9858 H   0  0  0  0  0  0  0  0  0  0  0  0  # atno 6908 bound_to 6896
  152.4707  133.7977  159.6992 H   0  0  0  0  0  0  0  0  0  0  0  0  # atno 6909 bound_to 6896
  146.2124  139.8218  142.8678 H   0  0  0  0  0  0  0  0  0  0  0  0  # atno 7974 bound_to 7965
  155.4190  140.0517  157.3027 H   0  0  0  0  0  0  0  0  0  0  0  0  # atno 8008 bound_to 7997
  154.4911  140.2120  155.9505 H   0  0  0  0  0  0  0  0  0  0  0  0  # atno 8009 bound_to 7997
  156.1343  140.3166  155.8402 H   0  0  0  0  0  0  0  0  0  0  0  0  # atno 8010 bound_to 7997
  139.4922  144.5888  151.6724 H   0  0  0  0  0  0  0  0  0  0  0  0  # atno 10167 bound_to 10162
  156.1041  130.6195  150.9176 H   0  0  0  0  0  0  0  0  0  0  0  0  # atno 10718 bound_to 10713
  152.9784  135.5875  154.4273 H   0  0  0  0  0  0  0  0  0  0  0  0  # atno 10763 bound_to 10752
  154.3890  135.2767  155.2168 H   0  0  0  0  0  0  0  0  0  0  0  0  # atno 10764 bound_to 10752
  154.4048  135.6095  153.5973 H   0  0  0  0  0  0  0  0  0  0  0  0  # atno 10765 bound_to 10752
  140.0058  134.6372  155.9858 H   0  0  0  0  0  0  0  0  0  0  0  0  # atno 11005 bound_to 11000
  145.3088  141.0214  143.3566 LP  0  0  0  0  0  0  0  0  0  0  0  0  # atno 17320 bound_to 7965
  144.8951  139.4722  143.6659 LP  0  0  0  0  0  0  0  0  0  0  0  0  # atno 17321 bound_to 7965
  140.5510  144.0426  150.6127 LP  0  0  0  0  0  0  0  0  0  0  0  0  # atno 17342 bound_to 10162
  140.3480  143.2980  152.0518 LP  0  0  0  0  0  0  0  0  0  0  0  0  # atno 17343 bound_to 10162
  157.6215  131.0929  150.8613 LP  0  0  0  0  0  0  0  0  0  0  0  0  # atno 17370 bound_to 10713
  156.8736  130.5154  149.5295 LP  0  0  0  0  0  0  0  0  0  0  0  0  # atno 17371 bound_to 10713
  141.1676  133.6537  156.4534 LP  0  0  0  0  0  0  0  0  0  0  0  0  # atno 17394 bound_to 11000
  140.4644  134.6811  157.5100 LP  0  0  0  0  0  0  0  0  0  0  0  0  # atno 17395 bound_to 11000

$$$$
