AV-unprocessed.smi:293|AV-procd|sdf|2251|dock1
  -GOLD-   2262022133D 1   1.00000     0.00000
 Structure written by MMmdl.
 32 33  0  0  0  0  0  0  0  0  1 V2000
  145.7106  142.1864  159.6633 N   0  0  0  0  0  0  0  0  0  0  0  0
  146.0905  142.1089  158.5727 C   0  0  0  0  0  0  0  0  0  0  0  0
  146.5672  142.0117  157.2036 C   0  0  0  0  0  0  0  0  0  0  0  0
  145.7575  142.3022  156.1440 N   0  0  0  0  0  0  0  0  0  0  0  0
  146.6183  142.0769  155.1589 C   0  0  0  0  0  0  0  0  0  0  0  0
  147.8290  141.6887  155.5736 N   0  0  0  0  0  0  0  0  0  0  0  0
  149.0260  141.3670  154.8177 C   0  0  0  0  0  0  0  0  0  0  0  0
  150.2786  141.5134  155.6827 C   0  0  0  0  0  0  0  0  0  0  0  0
  151.1687  140.6655  155.6249 O   0  0  0  0  0  0  0  0  0  0  0  0
  150.3344  142.5956  156.4751 N   0  0  0  0  0  0  0  0  0  0  0  0
  151.4451  142.9461  157.3539 C   0  0  0  0  0  0  0  0  0  0  0  0
  151.4953  141.9586  158.5355 C   0  0  0  0  0  0  0  0  0  0  0  0
  152.6088  142.3238  159.5305 C   0  0  0  0  0  0  0  0  0  0  0  0
  152.4570  143.7688  160.0304 C   0  0  0  0  0  0  0  0  0  0  0  0
  152.4141  144.7592  158.8563 C   0  0  0  0  0  0  0  0  0  0  0  0
  151.3007  144.3971  157.8600 C   0  0  0  0  0  0  0  0  0  0  0  0
  147.8152  141.6386  156.9284 N   0  0  0  0  0  0  0  0  0  0  0  0
  146.3647  142.2021  154.1162 H   0  0  0  0  0  0  0  0  0  0  0  0
  148.9543  140.3483  154.4336 H   0  0  0  0  0  0  0  0  0  0  0  0
  149.0849  142.0337  153.9562 H   0  0  0  0  0  0  0  0  0  0  0  0
  149.5531  143.2354  156.4540 H   0  0  0  0  0  0  0  0  0  0  0  0
  152.3796  142.8567  156.7964 H   0  0  0  0  0  0  0  0  0  0  0  0
  150.5361  141.9558  159.0554 H   0  0  0  0  0  0  0  0  0  0  0  0
  151.6505  140.9433  158.1685 H   0  0  0  0  0  0  0  0  0  0  0  0
  152.5926  141.6349  160.3754 H   0  0  0  0  0  0  0  0  0  0  0  0
  153.5810  142.2027  159.0510 H   0  0  0  0  0  0  0  0  0  0  0  0
  151.5424  143.8585  160.6180 H   0  0  0  0  0  0  0  0  0  0  0  0
  153.2806  144.0200  160.6994 H   0  0  0  0  0  0  0  0  0  0  0  0
  152.2633  145.7724  159.2298 H   0  0  0  0  0  0  0  0  0  0  0  0
  153.3766  144.7593  158.3430 H   0  0  0  0  0  0  0  0  0  0  0  0
  151.3235  145.0943  157.0218 H   0  0  0  0  0  0  0  0  0  0  0  0
  150.3297  144.5255  158.3407 H   0  0  0  0  0  0  0  0  0  0  0  0
  1  2  3  0  0  0  0
  2  3  1  0  0  0  0
  3 17  2  0  0  0  0
  3  4  1  0  0  0  0
  4  5  2  0  0  0  0
  5  6  1  0  0  0  0
  5 18  1  0  0  0  0
  6  7  1  0  0  0  0
  6 17  1  0  0  0  0
  7  8  1  0  0  0  0
  7 19  1  0  0  0  0
  7 20  1  0  0  0  0
  8  9  2  0  0  0  0
  8 10  1  0  0  0  0
 10 11  1  0  0  0  0
 10 21  1  0  0  0  0
 11 16  1  0  0  0  0
 11 12  1  0  0  0  0
 11 22  1  0  0  0  0
 12 13  1  0  0  0  0
 12 23  1  0  0  0  0
 12 24  1  0  0  0  0
 13 14  1  0  0  0  0
 13 25  1  0  0  0  0
 13 26  1  0  0  0  0
 14 15  1  0  0  0  0
 14 27  1  0  0  0  0
 14 28  1  0  0  0  0
 15 16  1  0  0  0  0
 15 29  1  0  0  0  0
 15 30  1  0  0  0  0
 16 31  1  0  0  0  0
 16 32  1  0  0  0  0
M  END
> <s_m_source_file>
AV-unprocessed.smi

> <i_m_source_file_index>
293

> <i_lp_mmshare_version>
43012

> <i_f3d_flags>
0

> <s_epik_input>
TiNDYzFuW2NIXW4objEpW0NIMl1DKD1PKVtOSF1bQ0hdMltDSDJdW0NIMl1bQ0gyXVtDSDJdW0NIMl0y

> <s_epik_cmdline>
J2VwaWtfcHl0aG9uJywgJy1waCcsICc3LjAnLCAnLXRuJywgJzgnLCAnLW1hJywgJzIwMCcsICctbWV0YWxfYmluZGluZycsICctaW1hZScsICc8aW5maWxlLm1hZT4nLCAnLW9tYWUnLCAnPG91dGZpbGUubWFlPic=

> <r_lp_tautomer_probability>
1

> <r_epik_Ionization_Penalty>
5.31112e-08

> <r_epik_Ionization_Penalty_Charging>
0

> <r_epik_Ionization_Penalty_Neutral>
5.31112e-08

> <r_epik_State_Penalty>
-0

> <r_epik_Charging_Adjusted_Penalty>
0

> <i_epik_Tot_Q>
0

> <i_epik_Tot_abs_Q>
0

> <r_epik_Metal_State_Penalty>
-0

> <b_epik_Metal_Only>
0

> <s_lp_Force_Field>
OPLS_2005

> <r_lp_Energy>
12.166

> <b_lp_Chiralities_Consistent>
1

> <s_lp_Variant>
AV-unprocessed.smi:293-1

> <Gold.Version>
5.8.1

> <Gold.Id.Protein>
6NUR|6NUR_protein|mol2

> <Gold.PLP.Fitness>
41.5673

> <Gold.PLP.PLP>
-34.8697

> <Gold.PLP.part.hbond>
-3.0000

> <Gold.PLP.part.metal>
0.0000

> <Gold.PLP.part.buried>
-3.3991

> <Gold.PLP.part.nonpolar>
-28.2782

> <Gold.PLP.part.repulsive>
0.3404

> <Gold.PLP.ligand.clash>
0.0000

> <Gold.PLP.ligand.torsion>
0.6687

> <Gold.PLP.Chemscore.Hbond>
2.6731

> <Gold.PLP.Chemscore.CHOScore>
0.0000

> <Gold.PLP.Chemscore.Metal>
0.0000

> <Gold.Chemscore.Hbonds>
donor molecule, donor type, donor heavy atom, donor atom, acceptor molecule, acceptor atom, score
      L1  H    10    21       P1  8028  0.90
      P1  H  6934  6946       L1     1  0.89
      P1  H  7989  7998       L1     9  0.47

> <Gold.PLP.Chemscore.Internal.Correction>
0.0157

> <Gold.Rescore>
     Score         DG    S(hbond)    S(metal)    S(lipo)     H(rot)  DE(clash)    DE(int)     intcor
     14.26     -16.56       2.14        0.00      76.44       1.96       0.26       2.05       ----

> <Gold.Chemscore.Fitness>
14.2592

> <Gold.Chemscore.DG>
-16.5630

> <Gold.Chemscore.ZeroCoef>
-5.4800

> <Gold.Chemscore.Hbond>
2.1442

> <Gold.Chemscore.Metal>
0.0000

> <Gold.Chemscore.Lipo>
76.4351

> <Gold.Chemscore.Internal_Hbond>
0.0000

> <Gold.Chemscore.DEClash>
0.2562

> <Gold.Chemscore.DEInternal>
2.0476

> <Gold.Chemscore.Rot>
1.9615

> <Gold.Chemscore.Internal.Correction>
   9.000000E+99

> <Gold.Chemscore.Hbonds>
donor molecule, donor type, donor heavy atom, donor atom, acceptor molecule, acceptor atom, score
      L1  H    10    21       P1  8028  0.88
      P1  H  6934  6946       L1     1  0.39
      P1  H  7989  7998       L1     9  0.09

> <Gold.Chemscore.Hbond.Weighted>
-7.1615

> <Gold.Chemscore.Metal.Weighted>
-0.0000

> <Gold.Chemscore.Lipo.Weighted>
-8.9429

> <Gold.Chemscore.Internal_Hbond.Weighted>
0.0000

> <Gold.Chemscore.DEClash.Weighted>
0.2562

> <Gold.Chemscore.DEInternal.Weighted>
2.0476

> <Gold.Chemscore.Rot.Weighted>
5.0214

> <Gold.Chemscore.Internal.Correction.Weighted>
   9.000000E+99

> <Gold.Protein.RotatedTorsions>
[ 6907 6896 6895 6894 ] final    2.78 input  -60.11 | X-H torsion
[ 7974 7965 7964 7962 ] final -138.33 input  175.53 | X-H torsion
[ 8008 7997 7996 7995 ] final -151.64 input   59.86 | X-H torsion
[ 10167 10162 10161 10158 ] final  -48.86 input  -65.29 | X-H torsion
[ 10718 10713 10712 10709 ] final -115.14 input   66.30 | X-H torsion
[ 10763 10752 10751 10750 ] final -179.62 input  -60.55 | X-H torsion
[ 11005 11000 10999 10996 ] final  134.39 input  -57.11 | X-H torsion

> <Gold.Protein.ActiveResidues>
 VAL166  LYS551  ARG553  GLY616  TRP617  ASP618  TYR619  PRO620  LYS621  CYS622 
 ASP623  PHE694  ASN695  SER759  ASP760  ASP761  ALA762  ILE779  LEU786  VAL792 
 PHE793  MET794  SER795  GLU796  ALA797  LYS798  CYS799  TRP800  GLU811  SER814 

> <Gold.Protein.RotatedAtoms>
  151.6144  135.1037  160.0087 H   0  0  0  0  0  0  0  0  0  0  0  0  # atno 6907 bound_to 6896
  152.4191  133.7083  159.6474 H   0  0  0  0  0  0  0  0  0  0  0  0  # atno 6908 bound_to 6896
  150.8079  133.8403  159.3218 H   0  0  0  0  0  0  0  0  0  0  0  0  # atno 6909 bound_to 6896
  144.8767  140.6447  143.5232 H   0  0  0  0  0  0  0  0  0  0  0  0  # atno 7974 bound_to 7965
  155.6426  140.0703  157.2613 H   0  0  0  0  0  0  0  0  0  0  0  0  # atno 8008 bound_to 7997
  154.4180  140.1748  156.1638 H   0  0  0  0  0  0  0  0  0  0  0  0  # atno 8009 bound_to 7997
  155.9843  140.3351  155.6696 H   0  0  0  0  0  0  0  0  0  0  0  0  # atno 8010 bound_to 7997
  140.6711  143.2722  151.4132 H   0  0  0  0  0  0  0  0  0  0  0  0  # atno 10167 bound_to 10162
  156.0876  130.6064  150.8866 H   0  0  0  0  0  0  0  0  0  0  0  0  # atno 10718 bound_to 10713
  154.5327  135.2801  155.1166 H   0  0  0  0  0  0  0  0  0  0  0  0  # atno 10763 bound_to 10752
  154.2679  135.6309  153.5303 H   0  0  0  0  0  0  0  0  0  0  0  0  # atno 10764 bound_to 10752
  152.9960  135.5621  154.5845 H   0  0  0  0  0  0  0  0  0  0  0  0  # atno 10765 bound_to 10752
  139.9912  134.9514  156.9859 H   0  0  0  0  0  0  0  0  0  0  0  0  # atno 11005 bound_to 11000
  145.4030  139.1594  143.4167 LP  0  0  0  0  0  0  0  0  0  0  0  0  # atno 17320 bound_to 7965
  146.2967  140.4128  142.8719 LP  0  0  0  0  0  0  0  0  0  0  0  0  # atno 17321 bound_to 7965
  139.5981  144.1355  152.2166 LP  0  0  0  0  0  0  0  0  0  0  0  0  # atno 17342 bound_to 10162
  140.0730  144.5763  150.7177 LP  0  0  0  0  0  0  0  0  0  0  0  0  # atno 17343 bound_to 10162
  157.6015  131.0941  150.8952 LP  0  0  0  0  0  0  0  0  0  0  0  0  # atno 17370 bound_to 10713
  156.9109  130.5280  149.5280 LP  0  0  0  0  0  0  0  0  0  0  0  0  # atno 17371 bound_to 10713
  140.4905  134.1197  155.7232 LP  0  0  0  0  0  0  0  0  0  0  0  0  # atno 17394 bound_to 11000
  141.1567  133.8869  157.1958 LP  0  0  0  0  0  0  0  0  0  0  0  0  # atno 17395 bound_to 11000

$$$$
