AV-unprocessed.smi:93|AV-procd|sdf|849|dock2
  -GOLD-   2262017293D 1   1.00000     0.00000
 Structure written by MMmdl.
 50 52  0  0  0  0  0  0  0  0  1 V2000
  146.3303  130.8519  152.3998 C   0  0  0  0  0  0  0  0  0  0  0  0
  146.4949  132.2307  152.8474 N   0  0  0  0  0  0  0  0  0  0  0  0
  145.4512  133.2180  152.5424 C   0  0  0  0  0  0  0  0  0  0  0  0
  144.9773  133.2444  151.0574 C   0  0  0  0  0  0  0  0  0  0  0  0
  146.1120  132.7998  150.1058 C   0  0  0  0  0  0  0  0  0  0  0  0
  143.7745  132.2729  150.9194 C   0  0  0  0  0  0  0  0  0  0  0  0
  143.1326  132.3770  149.6631 O   0  0  0  0  0  0  0  0  0  0  0  0
  144.5123  134.6760  150.6783 C   0  0  0  0  0  0  0  0  0  0  0  0
  144.0390  134.7650  149.3485 O   0  0  0  0  0  0  0  0  0  0  0  0
  147.6400  132.5888  153.4929 C   0  0  0  0  0  0  0  0  0  0  0  0
  148.6824  131.7162  153.5066 N   0  0  0  0  0  0  0  0  0  0  0  0
  149.8271  132.0265  154.1197 C   0  0  0  0  0  0  0  0  0  0  0  0
  150.1461  133.1450  154.7709 N   0  0  0  0  0  0  0  0  0  0  0  0
  149.1122  134.0334  154.7602 C   0  0  0  0  0  0  0  0  0  0  0  0
  147.8351  133.8380  154.1575 C   0  0  0  0  0  0  0  0  0  0  0  0
  147.0530  134.9716  154.3552 N   0  0  0  0  0  0  0  0  0  0  0  0
  147.8168  135.7811  155.0351 C   0  0  0  0  0  0  0  0  0  0  0  0
  149.0769  135.3032  155.3105 N   0  0  0  0  0  0  0  0  0  0  0  0
  150.1316  135.9962  156.0354 C   0  0  0  0  0  0  0  0  0  0  0  0
  150.8938  137.0310  155.1740 C   0  0  1  0  0  0  0  0  0  0  0  0
  151.4619  136.3687  154.0566 O   0  0  0  0  0  0  0  0  0  0  0  0
  150.0001  138.1525  154.6608 C   0  0  0  0  0  0  0  0  0  0  0  0
  150.9750  139.3118  154.5055 C   0  0  0  0  0  0  0  0  0  0  0  0
  151.8131  139.1781  155.6410 O   0  0  0  0  0  0  0  0  0  0  0  0
  152.0142  137.7936  155.9119 C   0  0  0  0  0  0  0  0  0  0  0  0
  147.2549  130.4733  151.9628 H   0  0  0  0  0  0  0  0  0  0  0  0
  145.5522  130.7746  151.6404 H   0  0  0  0  0  0  0  0  0  0  0  0
  146.0488  130.2054  153.2306 H   0  0  0  0  0  0  0  0  0  0  0  0
  144.5990  133.0840  153.2085 H   0  0  0  0  0  0  0  0  0  0  0  0
  145.8411  134.2030  152.8006 H   0  0  0  0  0  0  0  0  0  0  0  0
  145.7555  132.6936  149.0810 H   0  0  0  0  0  0  0  0  0  0  0  0
  146.5312  131.8382  150.4032 H   0  0  0  0  0  0  0  0  0  0  0  0
  146.9286  133.5214  150.0875 H   0  0  0  0  0  0  0  0  0  0  0  0
  144.1009  131.2410  151.0523 H   0  0  0  0  0  0  0  0  0  0  0  0
  143.0249  132.4646  151.6879 H   0  0  0  0  0  0  0  0  0  0  0  0
  142.4411  133.0174  149.7317 H   0  0  0  0  0  0  0  0  0  0  0  0
  143.7208  135.0126  151.3488 H   0  0  0  0  0  0  0  0  0  0  0  0
  145.3325  135.3873  150.7731 H   0  0  0  0  0  0  0  0  0  0  0  0
  144.7759  134.6885  148.7618 H   0  0  0  0  0  0  0  0  0  0  0  0
  150.5979  131.2709  154.0807 H   0  0  0  0  0  0  0  0  0  0  0  0
  147.4832  136.7602  155.3476 H   0  0  0  0  0  0  0  0  0  0  0  0
  149.6868  136.4818  156.9050 H   0  0  0  0  0  0  0  0  0  0  0  0
  150.8249  135.2501  156.4257 H   0  0  0  0  0  0  0  0  0  0  0  0
  151.0318  136.6792  153.2746 H   0  0  0  0  0  0  0  0  0  0  0  0
  149.4719  137.9079  153.7382 H   0  0  0  0  0  0  0  0  0  0  0  0
  149.2535  138.4150  155.4115 H   0  0  0  0  0  0  0  0  0  0  0  0
  151.5694  139.2056  153.5967 H   0  0  0  0  0  0  0  0  0  0  0  0
  150.4792  140.2822  154.4833 H   0  0  0  0  0  0  0  0  0  0  0  0
  151.9646  137.6571  156.9915 H   0  0  0  0  0  0  0  0  0  0  0  0
  153.0096  137.4842  155.5896 H   0  0  0  0  0  0  0  0  0  0  0  0
  1  2  1  0  0  0  0
  1 26  1  0  0  0  0
  1 27  1  0  0  0  0
  1 28  1  0  0  0  0
  2  3  1  0  0  0  0
  2 10  1  0  0  0  0
  3  4  1  0  0  0  0
  3 29  1  0  0  0  0
  3 30  1  0  0  0  0
  4  5  1  0  0  0  0
  4  6  1  0  0  0  0
  4  8  1  0  0  0  0
  5 31  1  0  0  0  0
  5 32  1  0  0  0  0
  5 33  1  0  0  0  0
  6  7  1  0  0  0  0
  6 34  1  0  0  0  0
  6 35  1  0  0  0  0
  7 36  1  0  0  0  0
  8  9  1  0  0  0  0
  8 37  1  0  0  0  0
  8 38  1  0  0  0  0
  9 39  1  0  0  0  0
 10 15  1  0  0  0  0
 10 11  2  0  0  0  0
 11 12  1  0  0  0  0
 12 13  2  0  0  0  0
 12 40  1  0  0  0  0
 13 14  1  0  0  0  0
 14 18  1  0  0  0  0
 14 15  2  0  0  0  0
 15 16  1  0  0  0  0
 16 17  2  0  0  0  0
 17 18  1  0  0  0  0
 17 41  1  0  0  0  0
 18 19  1  0  0  0  0
 19 20  1  0  0  0  0
 19 42  1  0  0  0  0
 19 43  1  0  0  0  0
 20 25  1  0  0  0  0
 20 21  1  0  0  0  0
 20 22  1  0  0  0  0
 21 44  1  0  0  0  0
 22 23  1  0  0  0  0
 22 45  1  0  0  0  0
 22 46  1  0  0  0  0
 23 24  1  0  0  0  0
 23 47  1  0  0  0  0
 23 48  1  0  0  0  0
 24 25  1  0  0  0  0
 25 49  1  0  0  0  0
 25 50  1  0  0  0  0
M  END
> <s_m_source_file>
AV-unprocessed.smi

> <i_m_source_file_index>
93

> <i_lp_mmshare_version>
43012

> <i_f3d_flags>
0

> <s_epik_input>
W09IXVtDSDJdQyhbQ0gzXSkoW0NIMl1bT0hdKVtDSDJdTihbQ0gzXSljKG5bY0hdbjEpYyhjMTIpbltjSF1uMltDSDJdW0NAQF0zKFtPSF0pW0NIMl1bQ0gyXU9bQ0gyXTM=

> <s_epik_cmdline>
J2VwaWtfcHl0aG9uJywgJy1waCcsICc3LjAnLCAnLXRuJywgJzgnLCAnLW1hJywgJzIwMCcsICctbWV0YWxfYmluZGluZycsICctaW1hZScsICc8aW5maWxlLm1hZT4nLCAnLW9tYWUnLCAnPG91dGZpbGUubWFlPic=

> <r_lp_tautomer_probability>
1

> <r_epik_Ionization_Penalty>
0.00325397

> <r_epik_Ionization_Penalty_Charging>
0

> <r_epik_Ionization_Penalty_Neutral>
0.00325397

> <r_epik_State_Penalty>
0.00225047

> <r_epik_Charging_Adjusted_Penalty>
0.00225047

> <i_epik_Tot_Q>
0

> <i_epik_Tot_abs_Q>
0

> <r_epik_Metal_State_Penalty>
-0

> <b_epik_Metal_Only>
0

> <s_lp_Force_Field>
OPLS_2005

> <r_lp_Energy>
39.2325

> <b_lp_Chiralities_Consistent>
1

> <s_lp_Variant>
AV-unprocessed.smi:93-1

> <Gold.Version>
5.8.1

> <Gold.Id.Protein>
6NUR|6NUR_protein|mol2

> <Gold.PLP.Fitness>
50.9782

> <Gold.PLP.PLP>
-41.2282

> <Gold.PLP.part.hbond>
-6.2451

> <Gold.PLP.part.metal>
0.0000

> <Gold.PLP.part.buried>
-7.1994

> <Gold.PLP.part.nonpolar>
-28.0629

> <Gold.PLP.part.repulsive>
0.2313

> <Gold.PLP.ligand.clash>
0.0000

> <Gold.PLP.ligand.torsion>
1.0686

> <Gold.PLP.Chemscore.Hbond>
3.7780

> <Gold.PLP.Chemscore.CHOScore>
0.0000

> <Gold.PLP.Chemscore.Metal>
0.0000

> <Gold.Chemscore.Hbonds>
donor molecule, donor type, donor heavy atom, donor atom, acceptor molecule, acceptor atom, score
      L1  H     7    36       P1 10186  1.00
      L1  H     9    39       P1  7921  1.00
      L1  H    21    44       P1  7949  0.56
      P1  H 10752 10764       L1    21  0.96
      P1  H 10785 10796       L1     7  0.03

> <Gold.PLP.Chemscore.Internal.Correction>
0.5532

> <Gold.Rescore>
     Score         DG    S(hbond)    S(metal)    S(lipo)     H(rot)  DE(clash)    DE(int)     intcor
     10.80     -13.23       3.33        0.00      71.79       4.60       0.27       2.16       ----

> <Gold.Chemscore.Fitness>
10.7966

> <Gold.Chemscore.DG>
-13.2288

> <Gold.Chemscore.ZeroCoef>
-5.4800

> <Gold.Chemscore.Hbond>
3.3319

> <Gold.Chemscore.Metal>
0.0000

> <Gold.Chemscore.Lipo>
71.7867

> <Gold.Chemscore.Internal_Hbond>
0.0000

> <Gold.Chemscore.DEClash>
0.2721

> <Gold.Chemscore.DEInternal>
2.1600

> <Gold.Chemscore.Rot>
4.6010

> <Gold.Chemscore.Internal.Correction>
   9.000000E+99

> <Gold.Chemscore.Hbonds>
donor molecule, donor type, donor heavy atom, donor atom, acceptor molecule, acceptor atom, score
      L1  H     7    36       P1 10186  0.95
      L1  H     9    39       P1  7921  1.00
      L1  H    21    44       P1  7949  0.17
      P1  H 10752 10764       L1    21  0.60
      P1  H 10785 10796       L1     7  0.04

> <Gold.Chemscore.Hbond.Weighted>
-11.1284

> <Gold.Chemscore.Metal.Weighted>
-0.0000

> <Gold.Chemscore.Lipo.Weighted>
-8.3990

> <Gold.Chemscore.Internal_Hbond.Weighted>
0.0000

> <Gold.Chemscore.DEClash.Weighted>
0.2721

> <Gold.Chemscore.DEInternal.Weighted>
2.1600

> <Gold.Chemscore.Rot.Weighted>
11.7787

> <Gold.Chemscore.Internal.Correction.Weighted>
   9.000000E+99

> <Gold.Protein.RotatedTorsions>
[ 6907 6896 6895 6894 ] final -139.42 input  -60.11 | X-H torsion
[ 7974 7965 7964 7962 ] final -111.40 input  175.53 | X-H torsion
[ 8008 7997 7996 7995 ] final    2.50 input   59.86 | X-H torsion
[ 10167 10162 10161 10158 ] final    4.81 input  -65.29 | X-H torsion
[ 10718 10713 10712 10709 ] final  139.55 input   66.30 | X-H torsion
[ 10763 10752 10751 10750 ] final  -58.40 input  -60.55 | X-H torsion
[ 11005 11000 10999 10996 ] final -119.35 input  -57.11 | X-H torsion

> <Gold.Protein.ActiveResidues>
 VAL166  LYS551  ARG553  GLY616  TRP617  ASP618  TYR619  PRO620  LYS621  CYS622 
 ASP623  PHE694  ASN695  SER759  ASP760  ASP761  ALA762  ILE779  LEU786  VAL792 
 PHE793  MET794  SER795  GLU796  ALA797  LYS798  CYS799  TRP800  GLU811  SER814 

> <Gold.Protein.RotatedAtoms>
  151.0475  133.5652  159.2645 H   0  0  0  0  0  0  0  0  0  0  0  0  # atno 6907 bound_to 6896
  151.2676  135.0673  159.9131 H   0  0  0  0  0  0  0  0  0  0  0  0  # atno 6908 bound_to 6896
  152.5376  134.0211  159.8036 H   0  0  0  0  0  0  0  0  0  0  0  0  # atno 6909 bound_to 6896
  145.1566  140.8857  143.3615 H   0  0  0  0  0  0  0  0  0  0  0  0  # atno 7974 bound_to 7965
  154.6923  140.2655  155.6800 H   0  0  0  0  0  0  0  0  0  0  0  0  # atno 8008 bound_to 7997
  156.2736  140.2788  156.1429 H   0  0  0  0  0  0  0  0  0  0  0  0  # atno 8009 bound_to 7997
  155.0879  140.0373  157.2650 H   0  0  0  0  0  0  0  0  0  0  0  0  # atno 8010 bound_to 7997
  140.6515  143.7532  150.7583 H   0  0  0  0  0  0  0  0  0  0  0  0  # atno 10167 bound_to 10162
  157.4131  131.1030  151.0433 H   0  0  0  0  0  0  0  0  0  0  0  0  # atno 10718 bound_to 10713
  154.2375  135.6349  153.5196 H   0  0  0  0  0  0  0  0  0  0  0  0  # atno 10763 bound_to 10752
  152.9936  135.5534  154.5946 H   0  0  0  0  0  0  0  0  0  0  0  0  # atno 10764 bound_to 10752
  154.5444  135.2897  155.1041 H   0  0  0  0  0  0  0  0  0  0  0  0  # atno 10765 bound_to 10752
  141.0222  134.0108  157.3267 H   0  0  0  0  0  0  0  0  0  0  0  0  # atno 11005 bound_to 11000
  145.0375  139.3288  143.5993 LP  0  0  0  0  0  0  0  0  0  0  0  0  # atno 17320 bound_to 7965
  146.3488  139.9736  142.8703 LP  0  0  0  0  0  0  0  0  0  0  0  0  # atno 17321 bound_to 7965
  140.1184  143.4635  152.2328 LP  0  0  0  0  0  0  0  0  0  0  0  0  # atno 17342 bound_to 10162
  139.5731  144.7473  151.3837 LP  0  0  0  0  0  0  0  0  0  0  0  0  # atno 17343 bound_to 10162
  157.1390  130.6135  149.5550 LP  0  0  0  0  0  0  0  0  0  0  0  0  # atno 17370 bound_to 10713
  155.9857  130.4888  150.7043 LP  0  0  0  0  0  0  0  0  0  0  0  0  # atno 17371 bound_to 10713
  139.9153  135.0196  156.7856 LP  0  0  0  0  0  0  0  0  0  0  0  0  # atno 17394 bound_to 11000
  140.6554  133.9693  155.7777 LP  0  0  0  0  0  0  0  0  0  0  0  0  # atno 17395 bound_to 11000

$$$$
