AV-unprocessed.smi:1386|AV-procd|sdf|5637|dock3
  -GOLD-   22720 5253D 1   1.00000     0.00000
 Structure written by MMmdl.
 36 37  0  0  0  0  0  0  0  0  2 V2000
  149.9428  141.4007  155.3877 C   0  0  0  0  0  0  0  0  0  0  0  0
  150.8041  140.7845  156.4978 C   0  0  1  0  0  0  0  0  0  0  0  0
  151.8658  139.8255  155.9177 C   0  0  0  0  0  0  0  0  0  0  0  0
  151.2905  138.5745  155.4092 N   0  0  0  0  0  0  0  0  0  0  0  0
  151.4472  137.3147  155.9280 C   0  0  0  0  0  0  0  0  0  0  0  0
  150.7453  136.4657  155.1115 C   0  0  0  0  0  0  0  0  0  0  0  0
  150.1818  137.2433  154.1357 N   0  3  0  0  0  0  0  0  0  0  0  0
  150.5089  138.5259  154.3222 C   0  0  0  0  0  0  0  0  0  0  0  0
  151.4381  141.8585  157.2620 N   0  0  0  0  0  0  0  0  0  0  0  0
  151.8840  141.7665  158.5281 C   0  0  0  0  0  0  0  0  0  0  0  0
  151.7257  140.7516  159.2078 O   0  0  0  0  0  0  0  0  0  0  0  0
  152.5405  142.8643  158.9800 N   0  0  0  0  0  0  0  0  0  0  0  0
  152.8891  143.1425  160.3822 C   0  0  0  0  0  0  0  0  0  0  0  0
  151.7731  143.9914  161.0139 C   0  0  0  0  0  0  0  0  0  0  0  0
  151.6118  145.5956  160.1677 S   0  0  0  0  0  0  0  0  0  0  0  0
  151.5647  145.0394  158.4342 C   0  0  0  0  0  0  0  0  0  0  0  0
  152.7078  144.0537  158.1375 C   0  0  0  0  0  0  0  0  0  0  0  0
  149.4272  140.6279  154.8168 H   0  0  0  0  0  0  0  0  0  0  0  0
  150.5474  141.9815  154.6902 H   0  0  0  0  0  0  0  0  0  0  0  0
  149.1829  142.0641  155.8020 H   0  0  0  0  0  0  0  0  0  0  0  0
  150.1344  140.2147  157.1445 H   0  0  0  0  0  0  0  0  0  0  0  0
  152.3904  140.2991  155.0871 H   0  0  0  0  0  0  0  0  0  0  0  0
  152.6187  139.5825  156.6697 H   0  0  0  0  0  0  0  0  0  0  0  0
  152.0411  137.1195  156.8091 H   0  0  0  0  0  0  0  0  0  0  0  0
  150.6085  135.3947  155.1508 H   0  0  0  0  0  0  0  0  0  0  0  0
  150.2087  139.3563  153.7084 H   0  0  0  0  0  0  0  0  0  0  0  0
  151.5904  142.7304  156.7759 H   0  0  0  0  0  0  0  0  0  0  0  0
  153.0513  142.2368  160.9672 H   0  0  0  0  0  0  0  0  0  0  0  0
  153.8376  143.6794  160.4313 H   0  0  0  0  0  0  0  0  0  0  0  0
  150.8195  143.4654  160.9636 H   0  0  0  0  0  0  0  0  0  0  0  0
  151.9826  144.1722  162.0683 H   0  0  0  0  0  0  0  0  0  0  0  0
  150.5984  144.5733  158.2364 H   0  0  0  0  0  0  0  0  0  0  0  0
  151.6362  145.9117  157.7845 H   0  0  0  0  0  0  0  0  0  0  0  0
  153.6725  144.5247  158.3318 H   0  0  0  0  0  0  0  0  0  0  0  0
  152.7188  143.8018  157.0759 H   0  0  0  0  0  0  0  0  0  0  0  0
  149.5991  136.9000  153.3823 H   0  0  0  0  0  0  0  0  0  0  0  0
  1  2  1  0  0  0  0
  1 18  1  0  0  0  0
  1 19  1  0  0  0  0
  1 20  1  0  0  0  0
  2  3  1  0  0  0  0
  2  9  1  0  0  0  0
  2 21  1  0  0  0  0
  3  4  1  0  0  0  0
  3 22  1  0  0  0  0
  3 23  1  0  0  0  0
  4  8  1  0  0  0  0
  4  5  1  0  0  0  0
  5  6  2  0  0  0  0
  5 24  1  0  0  0  0
  6  7  1  0  0  0  0
  6 25  1  0  0  0  0
  7  8  2  0  0  0  0
  7 36  1  0  0  0  0
  8 26  1  0  0  0  0
  9 10  1  0  0  0  0
  9 27  1  0  0  0  0
 10 11  2  0  0  0  0
 10 12  1  0  0  0  0
 12 17  1  0  0  0  0
 12 13  1  0  0  0  0
 13 14  1  0  0  0  0
 13 28  1  0  0  0  0
 13 29  1  0  0  0  0
 14 15  1  0  0  0  0
 14 30  1  0  0  0  0
 14 31  1  0  0  0  0
 15 16  1  0  0  0  0
 16 17  1  0  0  0  0
 16 32  1  0  0  0  0
 16 33  1  0  0  0  0
 17 34  1  0  0  0  0
 17 35  1  0  0  0  0
M  CHG  1   7   1
M  END
> <s_m_source_file>
AV-unprocessed.smi

> <i_m_source_file_index>
1386

> <i_lp_mmshare_version>
43012

> <i_f3d_flags>
0

> <s_epik_input>
W2NIXTFuW2NIXVtjSF1uMVtDSDJdW0NAQEhdKFtDSDNdKVtOSF1DKD1PKU4yW0NIMl1bQ0gyXVNbQ0gyXVtDSDJdMg==

> <s_epik_cmdline>
J2VwaWtfcHl0aG9uJywgJy1waCcsICc3LjAnLCAnLXRuJywgJzgnLCAnLW1hJywgJzIwMCcsICctbWV0YWxfYmluZGluZycsICctaW1hZScsICc8aW5maWxlLm1hZT4nLCAnLW9tYWUnLCAnPG91dGZpbGUubWFlPic=

> <r_lp_tautomer_probability>
1

> <r_epik_Ionization_Penalty>
0.254941

> <r_epik_Ionization_Penalty_Charging>
0

> <r_epik_Ionization_Penalty_Neutral>
0.254941

> <r_epik_State_Penalty>
0.246388

> <r_epik_Charging_Adjusted_Penalty>
0.246388

> <i_epik_Tot_Q>
1

> <i_epik_Tot_abs_Q>
1

> <r_epik_Metal_State_Penalty>
0.536262

> <b_epik_Metal_Only>
0

> <s_lp_Force_Field>
OPLS_2005

> <r_lp_Energy>
25.7972

> <b_lp_Chiralities_Consistent>
1

> <s_lp_Variant>
AV-unprocessed.smi:1386-2

> <Gold.Version>
5.8.1

> <Gold.Id.Protein>
6NUR|6NUR_protein|mol2

> <Gold.PLP.Fitness>
49.0973

> <Gold.PLP.PLP>
-43.4378

> <Gold.PLP.part.hbond>
-2.0000

> <Gold.PLP.part.metal>
0.0000

> <Gold.PLP.part.buried>
-2.5922

> <Gold.PLP.part.nonpolar>
-39.6957

> <Gold.PLP.part.repulsive>
0.1197

> <Gold.PLP.ligand.clash>
2.4164

> <Gold.PLP.ligand.torsion>
0.4985

> <Gold.PLP.Chemscore.Hbond>
2.0000

> <Gold.PLP.Chemscore.CHOScore>
1.0000

> <Gold.PLP.Chemscore.Metal>
0.0000

> <Gold.Chemscore.Hbonds>
donor molecule, donor type, donor heavy atom, donor atom, acceptor molecule, acceptor atom, score
      L1  H     7    36       P1  7948  2.00
      L1  C     8    26       P1  7957  0.58

> <Gold.PLP.Chemscore.Internal.Correction>
0.0728

> <Gold.Rescore>
     Score         DG    S(hbond)    S(metal)    S(lipo)     H(rot)  DE(clash)    DE(int)     intcor
     15.00     -15.60       0.92        0.00      96.03       1.64       0.10       0.50       ----

> <Gold.Chemscore.Fitness>
14.9972

> <Gold.Chemscore.DG>
-15.6014

> <Gold.Chemscore.ZeroCoef>
-5.4800

> <Gold.Chemscore.Hbond>
0.9237

> <Gold.Chemscore.Metal>
0.0000

> <Gold.Chemscore.Lipo>
96.0322

> <Gold.Chemscore.Internal_Hbond>
0.0000

> <Gold.Chemscore.DEClash>
0.1000

> <Gold.Chemscore.DEInternal>
0.5043

> <Gold.Chemscore.Rot>
1.6404

> <Gold.Chemscore.Internal.Correction>
   9.000000E+99

> <Gold.Chemscore.Hbonds>
donor molecule, donor type, donor heavy atom, donor atom, acceptor molecule, acceptor atom, score
      L1  H     7    36       P1  7948  0.70

> <Gold.Chemscore.Hbond.Weighted>
-3.0852

> <Gold.Chemscore.Metal.Weighted>
-0.0000

> <Gold.Chemscore.Lipo.Weighted>
-11.2358

> <Gold.Chemscore.Internal_Hbond.Weighted>
0.0000

> <Gold.Chemscore.DEClash.Weighted>
0.1000

> <Gold.Chemscore.DEInternal.Weighted>
0.5043

> <Gold.Chemscore.Rot.Weighted>
4.1995

> <Gold.Chemscore.Internal.Correction.Weighted>
   9.000000E+99

> <Gold.Protein.RotatedTorsions>
[ 6907 6896 6895 6894 ] final  111.70 input  -60.11 | X-H torsion
[ 7974 7965 7964 7962 ] final -145.38 input  175.53 | X-H torsion
[ 8008 7997 7996 7995 ] final   20.11 input   59.86 | X-H torsion
[ 10167 10162 10161 10158 ] final   99.49 input  -65.29 | X-H torsion
[ 10718 10713 10712 10709 ] final  -19.89 input   66.30 | X-H torsion
[ 10763 10752 10751 10750 ] final  138.55 input  -60.55 | X-H torsion
[ 11005 11000 10999 10996 ] final -171.21 input  -57.11 | X-H torsion

> <Gold.Protein.ActiveResidues>
 VAL166  LYS551  ARG553  GLY616  TRP617  ASP618  TYR619  PRO620  LYS621  CYS622 
 ASP623  PHE694  ASN695  SER759  ASP760  ASP761  ALA762  ILE779  LEU786  VAL792 
 PHE793  MET794  SER795  GLU796  ALA797  LYS798  CYS799  TRP800  GLU811  SER814 

> <Gold.Protein.RotatedAtoms>
  152.4956  133.8621  159.7255 H   0  0  0  0  0  0  0  0  0  0  0  0  # atno 6907 bound_to 6896
  150.9130  133.6965  159.2857 H   0  0  0  0  0  0  0  0  0  0  0  0  # atno 6908 bound_to 6896
  151.4368  135.1020  159.9711 H   0  0  0  0  0  0  0  0  0  0  0  0  # atno 6909 bound_to 6896
  144.8231  140.5591  143.5565 H   0  0  0  0  0  0  0  0  0  0  0  0  # atno 7974 bound_to 7965
  154.9307  140.3040  155.5169 H   0  0  0  0  0  0  0  0  0  0  0  0  # atno 8008 bound_to 7997
  156.3003  140.2354  156.4303 H   0  0  0  0  0  0  0  0  0  0  0  0  # atno 8009 bound_to 7997
  154.8240  140.0422  157.1419 H   0  0  0  0  0  0  0  0  0  0  0  0  # atno 8010 bound_to 7997
  139.7613  144.6953  151.0289 H   0  0  0  0  0  0  0  0  0  0  0  0  # atno 10167 bound_to 10162
  156.5394  130.4674  149.6506 H   0  0  0  0  0  0  0  0  0  0  0  0  # atno 10718 bound_to 10713
  153.8915  135.3032  155.3447 H   0  0  0  0  0  0  0  0  0  0  0  0  # atno 10763 bound_to 10752
  154.7714  135.4884  153.9659 H   0  0  0  0  0  0  0  0  0  0  0  0  # atno 10764 bound_to 10752
  153.1295  135.6800  153.9300 H   0  0  0  0  0  0  0  0  0  0  0  0  # atno 10765 bound_to 10752
  140.5107  134.5804  157.5018 H   0  0  0  0  0  0  0  0  0  0  0  0  # atno 11005 bound_to 11000
  145.5060  139.1481  143.3631 LP  0  0  0  0  0  0  0  0  0  0  0  0  # atno 17320 bound_to 7965
  146.2537  140.5200  142.8883 LP  0  0  0  0  0  0  0  0  0  0  0  0  # atno 17321 bound_to 7965
  140.7807  143.4694  151.0167 LP  0  0  0  0  0  0  0  0  0  0  0  0  # atno 17342 bound_to 10162
  139.8380  143.7601  152.3180 LP  0  0  0  0  0  0  0  0  0  0  0  0  # atno 17343 bound_to 10162
  156.2986  130.7164  151.2030 LP  0  0  0  0  0  0  0  0  0  0  0  0  # atno 17370 bound_to 10713
  157.7408  131.0512  150.5142 LP  0  0  0  0  0  0  0  0  0  0  0  0  # atno 17371 bound_to 10713
  139.9660  134.7372  156.0137 LP  0  0  0  0  0  0  0  0  0  0  0  0  # atno 17394 bound_to 11000
  141.1387  133.6569  156.3666 LP  0  0  0  0  0  0  0  0  0  0  0  0  # atno 17395 bound_to 11000

$$$$
