AV-unprocessed.smi:3303|AV-procd|sdf|12682|dock7
  -GOLD-   2272019 13D 1   1.00000     0.00000
 Structure written by MMmdl.
 44 45  0  0  0  0  0  0  0  0  2 V2000
  150.5148  138.9842  154.1441 C   0  0  0  0  0  0  0  0  0  0  0  0
  149.2713  139.8117  154.5315 C   0  0  1  0  0  0  0  0  0  0  0  0
  148.3124  139.9772  153.3375 C   0  0  0  0  0  0  0  0  0  0  0  0
  147.6263  138.7054  152.9843 N   0  3  2  0  0  0  0  0  0  0  0  0
  146.8318  138.8634  151.7420 C   0  0  0  0  0  0  0  0  0  0  0  0
  146.8535  138.1404  154.1324 C   0  0  1  0  0  0  0  0  0  0  0  0
  146.1755  136.7999  153.7889 C   0  0  0  0  0  0  0  0  0  0  0  0
  147.7672  137.9540  155.3623 C   0  0  0  0  0  0  0  0  0  0  0  0
  148.4835  139.2587  155.7438 C   0  0  1  0  0  0  0  0  0  0  0  0
  149.3217  139.0170  156.9135 N   0  0  0  0  0  0  0  0  0  0  0  0
  149.6943  140.2552  157.5828 C   0  0  0  0  0  0  0  0  0  0  0  0
  151.1775  140.2059  157.9735 C   0  0  0  0  0  0  0  0  0  0  0  0
  151.6977  141.5666  158.3966 C   0  0  0  0  0  0  0  0  0  0  0  0
  151.4282  142.7151  157.6221 C   0  0  0  0  0  0  0  0  0  0  0  0
  151.9267  143.9554  158.0658 C   0  0  0  0  0  0  0  0  0  0  0  0
  152.6701  143.9997  159.2608 C   0  0  0  0  0  0  0  0  0  0  0  0
  152.8831  142.7964  159.9622 C   0  0  0  0  0  0  0  0  0  0  0  0
  152.4097  141.6019  159.5457 N   0  0  0  0  0  0  0  0  0  0  0  0
  150.2569  137.9662  153.8528 H   0  0  0  0  0  0  0  0  0  0  0  0
  151.2273  138.9231  154.9671 H   0  0  0  0  0  0  0  0  0  0  0  0
  151.0374  139.4410  153.3034 H   0  0  0  0  0  0  0  0  0  0  0  0
  149.6270  140.8115  154.7813 H   0  0  0  0  0  0  0  0  0  0  0  0
  147.5606  140.7332  153.5707 H   0  0  0  0  0  0  0  0  0  0  0  0
  148.8683  140.3505  152.4760 H   0  0  0  0  0  0  0  0  0  0  0  0
  145.9516  139.4837  151.9168 H   0  0  0  0  0  0  0  0  0  0  0  0
  146.5070  137.9013  151.3473 H   0  0  0  0  0  0  0  0  0  0  0  0
  147.4271  139.3349  150.9593 H   0  0  0  0  0  0  0  0  0  0  0  0
  146.0717  138.8558  154.3941 H   0  0  0  0  0  0  0  0  0  0  0  0
  145.6988  136.3687  154.6700 H   0  0  0  0  0  0  0  0  0  0  0  0
  146.8975  136.0722  153.4167 H   0  0  0  0  0  0  0  0  0  0  0  0
  145.3924  136.9151  153.0398 H   0  0  0  0  0  0  0  0  0  0  0  0
  147.1708  137.6080  156.2080 H   0  0  0  0  0  0  0  0  0  0  0  0
  148.4956  137.1660  155.1658 H   0  0  0  0  0  0  0  0  0  0  0  0
  147.7153  139.9819  156.0234 H   0  0  0  0  0  0  0  0  0  0  0  0
  148.8172  138.4368  157.5690 H   0  0  0  0  0  0  0  0  0  0  0  0
  149.5180  141.1082  156.9278 H   0  0  0  0  0  0  0  0  0  0  0  0
  149.0807  140.3907  158.4743 H   0  0  0  0  0  0  0  0  0  0  0  0
  151.3289  139.5012  158.7927 H   0  0  0  0  0  0  0  0  0  0  0  0
  151.7738  139.8384  157.1371 H   0  0  0  0  0  0  0  0  0  0  0  0
  150.8518  142.6502  156.7108 H   0  0  0  0  0  0  0  0  0  0  0  0
  151.7409  144.8566  157.5007 H   0  0  0  0  0  0  0  0  0  0  0  0
  153.0667  144.9330  159.6323 H   0  0  0  0  0  0  0  0  0  0  0  0
  153.4479  142.7931  160.8826 H   0  0  0  0  0  0  0  0  0  0  0  0
  148.3566  138.0404  152.7730 H   0  0  0  0  0  0  0  0  0  0  0  0
  1  2  1  0  0  0  0
  1 19  1  0  0  0  0
  1 20  1  0  0  0  0
  1 21  1  0  0  0  0
  2  9  1  0  0  0  0
  2  3  1  0  0  0  0
  2 22  1  0  0  0  0
  3  4  1  0  0  0  0
  3 23  1  0  0  0  0
  3 24  1  0  0  0  0
  4  5  1  0  0  0  0
  4  6  1  0  0  0  0
  4 44  1  0  0  0  0
  5 25  1  0  0  0  0
  5 26  1  0  0  0  0
  5 27  1  0  0  0  0
  6  7  1  0  0  0  0
  6  8  1  0  0  0  0
  6 28  1  0  0  0  0
  7 29  1  0  0  0  0
  7 30  1  0  0  0  0
  7 31  1  0  0  0  0
  8  9  1  0  0  0  0
  8 32  1  0  0  0  0
  8 33  1  0  0  0  0
  9 10  1  0  0  0  0
  9 34  1  0  0  0  0
 10 11  1  0  0  0  0
 10 35  1  0  0  0  0
 11 12  1  0  0  0  0
 11 36  1  0  0  0  0
 11 37  1  0  0  0  0
 12 13  1  0  0  0  0
 12 38  1  0  0  0  0
 12 39  1  0  0  0  0
 13 18  1  0  0  0  0
 13 14  2  0  0  0  0
 14 15  1  0  0  0  0
 14 40  1  0  0  0  0
 15 16  2  0  0  0  0
 15 41  1  0  0  0  0
 16 17  1  0  0  0  0
 16 42  1  0  0  0  0
 17 18  2  0  0  0  0
 17 43  1  0  0  0  0
M  CHG  1   4   1
M  END
> <s_m_source_file>
AV-unprocessed.smi

> <i_m_source_file_index>
3303

> <i_lp_mmshare_version>
43012

> <i_f3d_flags>
0

> <s_epik_input>
W0NIM11bQ0BASF0xW0NIMl1OKFtDSDNdKVtDQEBIXShbQ0gzXSlbQ0gyXVtDQEhdMVtOSF1bQ0gyXVtDSDJdYzJbY0hdW2NIXVtjSF1bY0hdbjI=

> <s_epik_cmdline>
J2VwaWtfcHl0aG9uJywgJy1waCcsICc3LjAnLCAnLXRuJywgJzgnLCAnLW1hJywgJzIwMCcsICctbWV0YWxfYmluZGluZycsICctaW1hZScsICc8aW5maWxlLm1hZT4nLCAnLW9tYWUnLCAnPG91dGZpbGUubWFlPic=

> <r_epik_Ionization_Penalty>
2.31085

> <r_epik_Ionization_Penalty_Charging>
0.000313057

> <r_epik_Ionization_Penalty_Neutral>
2.31054

> <r_epik_State_Penalty>
2.4087

> <r_epik_Charging_Adjusted_Penalty>
2.40902

> <i_epik_Tot_Q>
1

> <i_epik_Tot_abs_Q>
1

> <r_epik_Metal_State_Penalty>
2.30979

> <b_epik_Metal_Only>
0

> <s_lp_Force_Field>
OPLS_2005

> <r_lp_Energy>
24.7509

> <b_lp_Chiralities_Consistent>
1

> <s_lp_Variant>
AV-unprocessed.smi:3303-26

> <Gold.Version>
5.8.1

> <Gold.Id.Protein>
6NUR|6NUR_protein|mol2

> <Gold.PLP.Fitness>
37.7498

> <Gold.PLP.PLP>
-33.0165

> <Gold.PLP.part.hbond>
-1.9956

> <Gold.PLP.part.metal>
0.0000

> <Gold.PLP.part.buried>
2.1351

> <Gold.PLP.part.nonpolar>
-32.3620

> <Gold.PLP.part.repulsive>
0.0472

> <Gold.PLP.ligand.clash>
0.0000

> <Gold.PLP.ligand.torsion>
0.6127

> <Gold.PLP.Chemscore.Hbond>
1.9840

> <Gold.PLP.Chemscore.CHOScore>
0.0000

> <Gold.PLP.Chemscore.Metal>
0.0000

> <Gold.Chemscore.Hbonds>
donor molecule, donor type, donor heavy atom, donor atom, acceptor molecule, acceptor atom, score
      L1  H     4    44       P1  7948  1.68

> <Gold.PLP.Chemscore.Internal.Correction>
0.0068

> <Gold.Rescore>
     Score         DG    S(hbond)    S(metal)    S(lipo)     H(rot)  DE(clash)    DE(int)     intcor
     15.64     -17.98       0.95        0.00     108.79       1.33       1.82       0.51       ----

> <Gold.Chemscore.Fitness>
15.6435

> <Gold.Chemscore.DG>
-17.9804

> <Gold.Chemscore.ZeroCoef>
-5.4800

> <Gold.Chemscore.Hbond>
0.9489

> <Gold.Chemscore.Metal>
0.0000

> <Gold.Chemscore.Lipo>
108.7919

> <Gold.Chemscore.Internal_Hbond>
0.0000

> <Gold.Chemscore.DEClash>
1.8225

> <Gold.Chemscore.DEInternal>
0.5144

> <Gold.Chemscore.Rot>
1.3272

> <Gold.Chemscore.Internal.Correction>
   9.000000E+99

> <Gold.Chemscore.Hbonds>
donor molecule, donor type, donor heavy atom, donor atom, acceptor molecule, acceptor atom, score
      L1  H     4    44       P1  7948  0.79

> <Gold.Chemscore.Hbond.Weighted>
-3.1694

> <Gold.Chemscore.Metal.Weighted>
-0.0000

> <Gold.Chemscore.Lipo.Weighted>
-12.7286

> <Gold.Chemscore.Internal_Hbond.Weighted>
0.0000

> <Gold.Chemscore.DEClash.Weighted>
1.8225

> <Gold.Chemscore.DEInternal.Weighted>
0.5144

> <Gold.Chemscore.Rot.Weighted>
3.3976

> <Gold.Chemscore.Internal.Correction.Weighted>
   9.000000E+99

> <Gold.Protein.RotatedTorsions>
[ 6907 6896 6895 6894 ] final  -64.27 input  -60.11 | X-H torsion
[ 7974 7965 7964 7962 ] final  162.45 input  175.53 | X-H torsion
[ 8008 7997 7996 7995 ] final  137.98 input   59.86 | X-H torsion
[ 10167 10162 10161 10158 ] final  146.14 input  -65.29 | X-H torsion
[ 10718 10713 10712 10709 ] final -140.84 input   66.30 | X-H torsion
[ 10763 10752 10751 10750 ] final   24.10 input  -60.55 | X-H torsion
[ 11005 11000 10999 10996 ] final -108.80 input  -57.11 | X-H torsion

> <Gold.Protein.ActiveResidues>
 VAL166  LYS551  ARG553  GLY616  TRP617  ASP618  TYR619  PRO620  LYS621  CYS622 
 ASP623  PHE694  ASN695  SER759  ASP760  ASP761  ALA762  ILE779  LEU786  VAL792 
 PHE793  MET794  SER795  GLU796  ALA797  LYS798  CYS799  TRP800  GLU811  SER814 

> <Gold.Protein.RotatedAtoms>
  150.7596  134.6322  159.6191 H   0  0  0  0  0  0  0  0  0  0  0  0  # atno 6907 bound_to 6896
  152.3596  134.6888  160.0220 H   0  0  0  0  0  0  0  0  0  0  0  0  # atno 6908 bound_to 6896
  151.7283  133.3280  159.3370 H   0  0  0  0  0  0  0  0  0  0  0  0  # atno 6909 bound_to 6896
  144.7636  139.8042  143.6323 H   0  0  0  0  0  0  0  0  0  0  0  0  # atno 7974 bound_to 7965
  156.3000  140.2405  156.3998 H   0  0  0  0  0  0  0  0  0  0  0  0  # atno 8008 bound_to 7997
  154.8537  140.0423  157.1641 H   0  0  0  0  0  0  0  0  0  0  0  0  # atno 8009 bound_to 7997
  154.8971  140.2971  155.5342 H   0  0  0  0  0  0  0  0  0  0  0  0  # atno 8010 bound_to 7997
  139.4913  144.5851  151.6794 H   0  0  0  0  0  0  0  0  0  0  0  0  # atno 10167 bound_to 10162
  156.3271  130.7566  151.1676 H   0  0  0  0  0  0  0  0  0  0  0  0  # atno 10718 bound_to 10713
  153.0789  135.6612  154.0087 H   0  0  0  0  0  0  0  0  0  0  0  0  # atno 10763 bound_to 10752
  153.9714  135.2964  155.3428 H   0  0  0  0  0  0  0  0  0  0  0  0  # atno 10764 bound_to 10752
  154.7184  135.5175  153.8844 H   0  0  0  0  0  0  0  0  0  0  0  0  # atno 10765 bound_to 10752
  141.0882  133.9102  157.2137 H   0  0  0  0  0  0  0  0  0  0  0  0  # atno 11005 bound_to 11000
  146.1723  139.4878  142.9920 LP  0  0  0  0  0  0  0  0  0  0  0  0  # atno 17320 bound_to 7965
  145.6540  141.0256  143.1744 LP  0  0  0  0  0  0  0  0  0  0  0  0  # atno 17321 bound_to 7965
  140.5466  144.0494  150.6109 LP  0  0  0  0  0  0  0  0  0  0  0  0  # atno 17342 bound_to 10162
  140.3534  143.2950  152.0462 LP  0  0  0  0  0  0  0  0  0  0  0  0  # atno 17343 bound_to 10162
  157.7423  131.0491  150.5032 LP  0  0  0  0  0  0  0  0  0  0  0  0  # atno 17370 bound_to 10713
  156.5193  130.4158  149.6259 LP  0  0  0  0  0  0  0  0  0  0  0  0  # atno 17371 bound_to 10713
  139.9703  135.0130  156.9495 LP  0  0  0  0  0  0  0  0  0  0  0  0  # atno 17394 bound_to 11000
  140.5314  134.0810  155.7317 LP  0  0  0  0  0  0  0  0  0  0  0  0  # atno 17395 bound_to 11000

$$$$
