AV-unprocessed.smi:460|AV-procd|sdf|2628|dock6
  -GOLD-   2262023 33D 1   1.00000     0.00000
 Structure written by MMmdl.
 47 49  0  0  0  0  0  0  0  0  2 V2000
  146.8306  142.2471  154.5059 C   0  0  0  0  0  0  0  0  0  0  0  0
  147.4192  140.8839  154.9027 C   0  0  0  0  0  0  0  0  0  0  0  0
  148.3588  140.2639  153.8466 C   0  0  2  0  0  0  0  0  0  0  0  0
  147.6658  140.1921  152.6194 O   0  0  0  0  0  0  0  0  0  0  0  0
  148.8881  138.9210  154.2546 C   0  0  0  0  0  0  0  0  0  0  0  0
  148.1993  137.7443  154.2045 N   0  3  0  0  0  0  0  0  0  0  0  0
  149.0057  136.7007  154.6564 C   0  0  0  0  0  0  0  0  0  0  0  0
  148.7403  135.3429  154.8026 C   0  0  0  0  0  0  0  0  0  0  0  0
  149.7909  134.5428  155.2974 C   0  0  0  0  0  0  0  0  0  0  0  0
  151.0445  135.0987  155.6257 C   0  0  0  0  0  0  0  0  0  0  0  0
  151.3016  136.4770  155.4710 C   0  0  0  0  0  0  0  0  0  0  0  0
  150.2580  137.2612  154.9786 C   0  0  0  0  0  0  0  0  0  0  0  0
  150.1487  138.6276  154.6923 N   0  0  0  0  0  0  0  0  0  0  0  0
  151.3240  139.4912  154.8881 C   0  0  0  0  0  0  0  0  0  0  0  0
  151.0751  140.6026  155.9169 C   0  0  0  0  0  0  0  0  0  0  0  0
  152.0635  140.5112  156.9322 O   0  0  0  0  0  0  0  0  0  0  0  0
  152.0908  141.4782  157.9136 C   0  0  0  0  0  0  0  0  0  0  0  0
  151.2237  142.5988  157.9310 C   0  0  0  0  0  0  0  0  0  0  0  0
  151.3148  143.5546  158.9590 C   0  0  0  0  0  0  0  0  0  0  0  0
  152.2718  143.4023  159.9765 C   0  0  0  0  0  0  0  0  0  0  0  0
  153.1368  142.2927  159.9688 C   0  0  0  0  0  0  0  0  0  0  0  0
  153.0520  141.3219  158.9389 C   0  0  0  0  0  0  0  0  0  0  0  0
  153.8553  140.2019  158.8757 O   0  0  0  0  0  0  0  0  0  0  0  0
  154.8289  140.0109  159.8907 C   0  0  0  0  0  0  0  0  0  0  0  0
  146.1047  142.5830  155.2466 H   0  0  0  0  0  0  0  0  0  0  0  0
  146.3212  142.1979  153.5453 H   0  0  0  0  0  0  0  0  0  0  0  0
  147.5999  143.0152  154.4322 H   0  0  0  0  0  0  0  0  0  0  0  0
  147.9469  140.9929  155.8513 H   0  0  0  0  0  0  0  0  0  0  0  0
  146.5974  140.1925  155.0939 H   0  0  0  0  0  0  0  0  0  0  0  0
  149.1976  140.9422  153.6973 H   0  0  0  0  0  0  0  0  0  0  0  0
  148.2999  140.1396  151.9205 H   0  0  0  0  0  0  0  0  0  0  0  0
  147.7801  134.9160  154.5528 H   0  0  0  0  0  0  0  0  0  0  0  0
  149.6320  133.4823  155.4288 H   0  0  0  0  0  0  0  0  0  0  0  0
  151.8254  134.4549  156.0039 H   0  0  0  0  0  0  0  0  0  0  0  0
  152.2653  136.8905  155.7284 H   0  0  0  0  0  0  0  0  0  0  0  0
  152.1713  138.8735  155.1851 H   0  0  0  0  0  0  0  0  0  0  0  0
  151.5907  139.9215  153.9223 H   0  0  0  0  0  0  0  0  0  0  0  0
  151.1076  141.5788  155.4309 H   0  0  0  0  0  0  0  0  0  0  0  0
  150.0827  140.4740  156.3518 H   0  0  0  0  0  0  0  0  0  0  0  0
  150.4827  142.7505  157.1611 H   0  0  0  0  0  0  0  0  0  0  0  0
  150.6511  144.4067  158.9648 H   0  0  0  0  0  0  0  0  0  0  0  0
  152.3421  144.1369  160.7653 H   0  0  0  0  0  0  0  0  0  0  0  0
  153.8560  142.2068  160.7689 H   0  0  0  0  0  0  0  0  0  0  0  0
  155.3968  139.1061  159.6751 H   0  0  0  0  0  0  0  0  0  0  0  0
  154.3651  139.8841  160.8698 H   0  0  0  0  0  0  0  0  0  0  0  0
  155.5349  140.8415  159.9281 H   0  0  0  0  0  0  0  0  0  0  0  0
  147.2401  137.6693  153.8913 H   0  0  0  0  0  0  0  0  0  0  0  0
  1  2  1  0  0  0  0
  1 25  1  0  0  0  0
  1 26  1  0  0  0  0
  1 27  1  0  0  0  0
  2  3  1  0  0  0  0
  2 28  1  0  0  0  0
  2 29  1  0  0  0  0
  3  4  1  0  0  0  0
  3  5  1  0  0  0  0
  3 30  1  0  0  0  0
  4 31  1  0  0  0  0
  5 13  1  0  0  0  0
  5  6  2  0  0  0  0
  6  7  1  0  0  0  0
  6 47  1  0  0  0  0
  7 12  2  0  0  0  0
  7  8  1  0  0  0  0
  8  9  2  0  0  0  0
  8 32  1  0  0  0  0
  9 10  1  0  0  0  0
  9 33  1  0  0  0  0
 10 11  2  0  0  0  0
 10 34  1  0  0  0  0
 11 12  1  0  0  0  0
 11 35  1  0  0  0  0
 12 13  1  0  0  0  0
 13 14  1  0  0  0  0
 14 15  1  0  0  0  0
 14 36  1  0  0  0  0
 14 37  1  0  0  0  0
 15 16  1  0  0  0  0
 15 38  1  0  0  0  0
 15 39  1  0  0  0  0
 16 17  1  0  0  0  0
 17 22  1  0  0  0  0
 17 18  2  0  0  0  0
 18 19  1  0  0  0  0
 18 40  1  0  0  0  0
 19 20  2  0  0  0  0
 19 41  1  0  0  0  0
 20 21  1  0  0  0  0
 20 42  1  0  0  0  0
 21 22  2  0  0  0  0
 21 43  1  0  0  0  0
 22 23  1  0  0  0  0
 23 24  1  0  0  0  0
 24 44  1  0  0  0  0
 24 45  1  0  0  0  0
 24 46  1  0  0  0  0
M  CHG  1   6   1
M  END
> <s_m_source_file>
AV-unprocessed.smi

> <i_m_source_file_index>
460

> <i_lp_mmshare_version>
43012

> <i_f3d_flags>
0

> <s_epik_input>
W2NIXTFbY0hdW2NIXVtjSF1jKGMxMiluKGMobjIpW0NAQEhdKFtPSF0pW0NIMl1bQ0gzXSlbQ0gyXVtDSDJdT2MzW2NIXVtjSF1bY0hdW2NIXWMzT1tDSDNd

> <s_epik_cmdline>
J2VwaWtfcHl0aG9uJywgJy1waCcsICc3LjAnLCAnLXRuJywgJzgnLCAnLW1hJywgJzIwMCcsICctbWV0YWxfYmluZGluZycsICctaW1hZScsICc8aW5maWxlLm1hZT4nLCAnLW9tYWUnLCAnPG91dGZpbGUubWFlPic=

> <r_lp_tautomer_probability>
1

> <r_epik_Ionization_Penalty>
1.48085

> <r_epik_Ionization_Penalty_Charging>
1.48083

> <r_epik_Ionization_Penalty_Neutral>
1.80167e-05

> <r_epik_State_Penalty>
1.56944

> <r_epik_Charging_Adjusted_Penalty>
3.05027

> <i_epik_Tot_Q>
1

> <i_epik_Tot_abs_Q>
1

> <r_epik_Metal_State_Penalty>
5.61877

> <b_epik_Metal_Only>
0

> <s_lp_Force_Field>
OPLS_2005

> <r_lp_Energy>
23.3046

> <b_lp_Chiralities_Consistent>
1

> <s_lp_Variant>
AV-unprocessed.smi:460-3

> <Gold.Version>
5.8.1

> <Gold.Id.Protein>
6NUR|6NUR_protein|mol2

> <Gold.PLP.Fitness>
46.6940

> <Gold.PLP.PLP>
-42.2242

> <Gold.PLP.part.hbond>
-2.8883

> <Gold.PLP.part.metal>
0.0000

> <Gold.PLP.part.buried>
-2.6395

> <Gold.PLP.part.nonpolar>
-36.0470

> <Gold.PLP.part.repulsive>
0.0000

> <Gold.PLP.ligand.clash>
0.0000

> <Gold.PLP.ligand.torsion>
0.7674

> <Gold.PLP.Chemscore.Hbond>
1.9760

> <Gold.PLP.Chemscore.CHOScore>
0.0000

> <Gold.PLP.Chemscore.Metal>
0.0000

> <Gold.Chemscore.Hbonds>
donor molecule, donor type, donor heavy atom, donor atom, acceptor molecule, acceptor atom, score
      L1  H     4    31       P1  7957  0.91
      P1  H  7997  8008       L1    23  0.93

> <Gold.PLP.Chemscore.Internal.Correction>
0.0767

> <Gold.Rescore>
     Score         DG    S(hbond)    S(metal)    S(lipo)     H(rot)  DE(clash)    DE(int)     intcor
     17.55     -18.71       1.65        0.00     119.52       2.45       0.18       0.99       ----

> <Gold.Chemscore.Fitness>
17.5484

> <Gold.Chemscore.DG>
-18.7136

> <Gold.Chemscore.ZeroCoef>
-5.4800

> <Gold.Chemscore.Hbond>
1.6495

> <Gold.Chemscore.Metal>
0.0000

> <Gold.Chemscore.Lipo>
119.5168

> <Gold.Chemscore.Internal_Hbond>
0.0000

> <Gold.Chemscore.DEClash>
0.1752

> <Gold.Chemscore.DEInternal>
0.9900

> <Gold.Chemscore.Rot>
2.4450

> <Gold.Chemscore.Internal.Correction>
   9.000000E+99

> <Gold.Chemscore.Hbonds>
donor molecule, donor type, donor heavy atom, donor atom, acceptor molecule, acceptor atom, score
      L1  H     4    31       P1  7957  0.87
      P1  H  7997  8008       L1    23  0.39

> <Gold.Chemscore.Hbond.Weighted>
-5.5094

> <Gold.Chemscore.Metal.Weighted>
-0.0000

> <Gold.Chemscore.Lipo.Weighted>
-13.9835

> <Gold.Chemscore.Internal_Hbond.Weighted>
0.0000

> <Gold.Chemscore.DEClash.Weighted>
0.1752

> <Gold.Chemscore.DEInternal.Weighted>
0.9900

> <Gold.Chemscore.Rot.Weighted>
6.2593

> <Gold.Chemscore.Internal.Correction.Weighted>
   9.000000E+99

> <Gold.Protein.RotatedTorsions>
[ 6907 6896 6895 6894 ] final  143.46 input  -60.11 | X-H torsion
[ 7974 7965 7964 7962 ] final  -68.36 input  175.53 | X-H torsion
[ 8008 7997 7996 7995 ] final -101.45 input   59.86 | X-H torsion
[ 10167 10162 10161 10158 ] final   19.13 input  -65.29 | X-H torsion
[ 10718 10713 10712 10709 ] final  152.89 input   66.30 | X-H torsion
[ 10763 10752 10751 10750 ] final -149.32 input  -60.55 | X-H torsion
[ 11005 11000 10999 10996 ] final  -83.38 input  -57.11 | X-H torsion

> <Gold.Protein.ActiveResidues>
 VAL166  LYS551  ARG553  GLY616  TRP617  ASP618  TYR619  PRO620  LYS621  CYS622 
 ASP623  PHE694  ASN695  SER759  ASP760  ASP761  ALA762  ILE779  LEU786  VAL792 
 PHE793  MET794  SER795  GLU796  ALA797  LYS798  CYS799  TRP800  GLU811  SER814 

> <Gold.Protein.RotatedAtoms>
  152.2060  133.4876  159.5083 H   0  0  0  0  0  0  0  0  0  0  0  0  # atno 6907 bound_to 6896
  150.6980  134.1529  159.4156 H   0  0  0  0  0  0  0  0  0  0  0  0  # atno 6908 bound_to 6896
  151.9447  135.0197  160.0589 H   0  0  0  0  0  0  0  0  0  0  0  0  # atno 6909 bound_to 6896
  145.7174  140.9053  143.0648 H   0  0  0  0  0  0  0  0  0  0  0  0  # atno 7974 bound_to 7965
  154.8428  140.0434  157.1552 H   0  0  0  0  0  0  0  0  0  0  0  0  # atno 8008 bound_to 7997
  154.9028  140.3002  155.5288 H   0  0  0  0  0  0  0  0  0  0  0  0  # atno 8009 bound_to 7997
  156.2993  140.2372  156.4058 H   0  0  0  0  0  0  0  0  0  0  0  0  # atno 8010 bound_to 7997
  140.5602  143.9351  150.6637 H   0  0  0  0  0  0  0  0  0  0  0  0  # atno 10167 bound_to 10162
  157.2519  131.0780  151.1724 H   0  0  0  0  0  0  0  0  0  0  0  0  # atno 10718 bound_to 10713
  154.8184  135.3312  154.7111 H   0  0  0  0  0  0  0  0  0  0  0  0  # atno 10763 bound_to 10752
  153.7748  135.6923  153.4904 H   0  0  0  0  0  0  0  0  0  0  0  0  # atno 10764 bound_to 10752
  153.2020  135.4512  155.0226 H   0  0  0  0  0  0  0  0  0  0  0  0  # atno 10765 bound_to 10752
  141.1658  133.7292  156.8712 H   0  0  0  0  0  0  0  0  0  0  0  0  # atno 11005 bound_to 11000
  144.6925  139.9156  143.7465 LP  0  0  0  0  0  0  0  0  0  0  0  0  # atno 17320 bound_to 7965
  146.0657  139.3648  143.0554 LP  0  0  0  0  0  0  0  0  0  0  0  0  # atno 17321 bound_to 7965
  140.2799  143.3396  152.1160 LP  0  0  0  0  0  0  0  0  0  0  0  0  # atno 17342 bound_to 10162
  139.5067  144.6818  151.5990 LP  0  0  0  0  0  0  0  0  0  0  0  0  # atno 17343 bound_to 10162
  157.3269  130.6965  149.6301 LP  0  0  0  0  0  0  0  0  0  0  0  0  # atno 17370 bound_to 10713
  155.9666  130.4319  150.4940 LP  0  0  0  0  0  0  0  0  0  0  0  0  # atno 17371 bound_to 10713
  140.1780  134.9053  157.2914 LP  0  0  0  0  0  0  0  0  0  0  0  0  # atno 17394 bound_to 11000
  140.2427  134.3777  155.7474 LP  0  0  0  0  0  0  0  0  0  0  0  0  # atno 17395 bound_to 11000

$$$$
