AV-unprocessed.smi:690|AV-procd|sdf|3362|dock8
  -GOLD-   22720 0343D 1   1.00000     0.00000
 Structure written by MMmdl.
 46 48  0  0  0  0  0  0  0  0  1 V2000
  151.5658  140.9053  156.7521 C   0  0  0  0  0  0  0  0  0  0  0  0
  150.5313  141.7689  156.0277 C   0  0  0  0  0  0  0  0  0  0  0  0
  150.0980  141.0832  154.8655 O   0  0  0  0  0  0  0  0  0  0  0  0
  149.3818  139.8945  155.1607 C   0  0  2  0  0  0  0  0  0  0  0  0
  149.6953  138.7106  154.2405 C   0  0  0  0  0  0  0  0  0  0  0  0
  148.2028  138.3810  154.3422 C   0  0  2  0  0  0  0  0  0  0  0  0
  147.6399  137.8751  153.0960 N   0  0  0  0  0  0  0  0  0  0  0  0
  146.3283  137.7739  152.8408 C   0  0  0  0  0  0  0  0  0  0  0  0
  145.4580  138.0927  153.6519 O   0  0  0  0  0  0  0  0  0  0  0  0
  145.9516  137.2038  151.4663 C   0  0  0  0  0  0  0  0  0  0  0  0
  145.3949  135.8428  151.5382 N   0  0  0  0  0  0  0  0  0  0  0  0
  146.2047  134.7906  151.0656 C   0  0  0  0  0  0  0  0  0  0  0  0
  145.7938  133.5129  151.0897 C   0  0  0  0  0  0  0  0  0  0  0  0
  144.4808  133.2279  151.6182 C   0  0  0  0  0  0  0  0  0  0  0  0
  143.6990  134.2265  152.0747 C   0  0  0  0  0  0  0  0  0  0  0  0
  144.1445  135.6245  152.0514 C   0  0  0  0  0  0  0  0  0  0  0  0
  143.4370  136.5428  152.4668 O   0  0  0  0  0  0  0  0  0  0  0  0
  147.9389  139.8856  154.5966 C   0  0  0  0  0  0  0  0  0  0  0  0
  147.6427  140.8086  153.4069 C   0  0  0  0  0  0  0  0  0  0  0  0
  147.1291  142.1254  153.9922 C   0  0  0  0  0  0  0  0  0  0  0  0
  146.5434  141.7646  155.3614 C   0  0  0  0  0  0  0  0  0  0  0  0
  146.8195  140.2696  155.5582 C   0  0  0  0  0  0  0  0  0  0  0  0
  151.9288  141.4035  157.6510 H   0  0  0  0  0  0  0  0  0  0  0  0
  152.4242  140.7039  156.1109 H   0  0  0  0  0  0  0  0  0  0  0  0
  151.1371  139.9481  157.0495 H   0  0  0  0  0  0  0  0  0  0  0  0
  149.6861  141.9697  156.6874 H   0  0  0  0  0  0  0  0  0  0  0  0
  150.9736  142.7281  155.7550 H   0  0  0  0  0  0  0  0  0  0  0  0
  149.4146  139.6248  156.2191 H   0  0  0  0  0  0  0  0  0  0  0  0
  150.0138  139.0134  153.2411 H   0  0  0  0  0  0  0  0  0  0  0  0
  150.3598  137.9606  154.6699 H   0  0  0  0  0  0  0  0  0  0  0  0
  147.9726  137.7681  155.2173 H   0  0  0  0  0  0  0  0  0  0  0  0
  148.2915  137.5875  152.3803 H   0  0  0  0  0  0  0  0  0  0  0  0
  145.2422  137.8717  150.9735 H   0  0  0  0  0  0  0  0  0  0  0  0
  146.8431  137.2215  150.8381 H   0  0  0  0  0  0  0  0  0  0  0  0
  147.1744  135.0870  150.6929 H   0  0  0  0  0  0  0  0  0  0  0  0
  146.4298  132.7189  150.7271 H   0  0  0  0  0  0  0  0  0  0  0  0
  144.1244  132.2087  151.6491 H   0  0  0  0  0  0  0  0  0  0  0  0
  142.7200  133.9941  152.4678 H   0  0  0  0  0  0  0  0  0  0  0  0
  148.5090  140.9675  152.7641 H   0  0  0  0  0  0  0  0  0  0  0  0
  146.8599  140.3822  152.7784 H   0  0  0  0  0  0  0  0  0  0  0  0
  147.9564  142.8248  154.1187 H   0  0  0  0  0  0  0  0  0  0  0  0
  146.3951  142.5998  153.3401 H   0  0  0  0  0  0  0  0  0  0  0  0
  147.0346  142.3490  156.1403 H   0  0  0  0  0  0  0  0  0  0  0  0
  145.4756  141.9786  155.4157 H   0  0  0  0  0  0  0  0  0  0  0  0
  145.9190  139.7012  155.3213 H   0  0  0  0  0  0  0  0  0  0  0  0
  147.0662  140.0462  156.5966 H   0  0  0  0  0  0  0  0  0  0  0  0
  1  2  1  0  0  0  0
  1 23  1  0  0  0  0
  1 24  1  0  0  0  0
  1 25  1  0  0  0  0
  2  3  1  0  0  0  0
  2 26  1  0  0  0  0
  2 27  1  0  0  0  0
  3  4  1  0  0  0  0
  4 18  1  0  0  0  0
  4  5  1  0  0  0  0
  4 28  1  0  0  0  0
  5  6  1  0  0  0  0
  5 29  1  0  0  0  0
  5 30  1  0  0  0  0
  6  7  1  0  0  0  0
  6 18  1  0  0  0  0
  6 31  1  0  0  0  0
  7  8  1  0  0  0  0
  7 32  1  0  0  0  0
  8  9  2  0  0  0  0
  8 10  1  0  0  0  0
 10 11  1  0  0  0  0
 10 33  1  0  0  0  0
 10 34  1  0  0  0  0
 11 16  1  0  0  0  0
 11 12  1  0  0  0  0
 12 13  2  0  0  0  0
 12 35  1  0  0  0  0
 13 14  1  0  0  0  0
 13 36  1  0  0  0  0
 14 15  2  0  0  0  0
 14 37  1  0  0  0  0
 15 16  1  0  0  0  0
 15 38  1  0  0  0  0
 16 17  2  0  0  0  0
 18 22  1  0  0  0  0
 18 19  1  0  0  0  0
 19 20  1  0  0  0  0
 19 39  1  0  0  0  0
 19 40  1  0  0  0  0
 20 21  1  0  0  0  0
 20 41  1  0  0  0  0
 20 42  1  0  0  0  0
 21 22  1  0  0  0  0
 21 43  1  0  0  0  0
 21 44  1  0  0  0  0
 22 45  1  0  0  0  0
 22 46  1  0  0  0  0
M  END
> <s_m_source_file>
AV-unprocessed.smi

> <i_m_source_file_index>
690

> <i_lp_mmshare_version>
43012

> <i_f3d_flags>
0

> <s_epik_input>
W0NIMl0xW0NIMl1bQ0gyXVtDSDJdQzEyW0NASF0oT1tDSDJdW0NIM10pW0NIMl1bQ0BIXTJbTkhdQyg9TylbQ0gyXW4zW2NIXVtjSF1bY0hdW2NIXWMzPU8=

> <s_epik_cmdline>
J2VwaWtfcHl0aG9uJywgJy1waCcsICc3LjAnLCAnLXRuJywgJzgnLCAnLW1hJywgJzIwMCcsICctbWV0YWxfYmluZGluZycsICctaW1hZScsICc8aW5maWxlLm1hZT4nLCAnLW9tYWUnLCAnPG91dGZpbGUubWFlPic=

> <r_lp_tautomer_probability>
1

> <r_epik_Ionization_Penalty>
4.11691e-07

> <r_epik_Ionization_Penalty_Charging>
3.92797e-07

> <r_epik_Ionization_Penalty_Neutral>
1.88943e-08

> <r_epik_State_Penalty>
-0

> <r_epik_Charging_Adjusted_Penalty>
3.92797e-07

> <i_epik_Tot_Q>
0

> <i_epik_Tot_abs_Q>
0

> <r_epik_Metal_State_Penalty>
-0

> <b_epik_Metal_Only>
0

> <s_lp_Force_Field>
OPLS_2005

> <r_lp_Energy>
45.5322

> <b_lp_Chiralities_Consistent>
1

> <s_lp_Variant>
AV-unprocessed.smi:690-3

> <Gold.Version>
5.8.1

> <Gold.Id.Protein>
6NUR|6NUR_protein|mol2

> <Gold.PLP.Fitness>
41.4203

> <Gold.PLP.PLP>
-35.3921

> <Gold.PLP.part.hbond>
-2.0000

> <Gold.PLP.part.metal>
0.0000

> <Gold.PLP.part.buried>
-4.0195

> <Gold.PLP.part.nonpolar>
-31.2470

> <Gold.PLP.part.repulsive>
0.9964

> <Gold.PLP.ligand.clash>
0.0000

> <Gold.PLP.ligand.torsion>
1.0105

> <Gold.PLP.Chemscore.Hbond>
1.5680

> <Gold.PLP.Chemscore.CHOScore>
1.0000

> <Gold.PLP.Chemscore.Metal>
0.0000

> <Gold.Chemscore.Hbonds>
donor molecule, donor type, donor heavy atom, donor atom, acceptor molecule, acceptor atom, score
      L1  H     7    32       P1  7948  0.78
      P1  H  7989  7998       L1     3  0.60
      L1  C    12    35       P1  7948  1.00

> <Gold.PLP.Chemscore.Internal.Correction>
0.3452

> <Gold.Rescore>
     Score         DG    S(hbond)    S(metal)    S(lipo)     H(rot)  DE(clash)    DE(int)     intcor
     12.88     -15.42       1.33        0.00      83.99       1.69       0.54       2.00       ----

> <Gold.Chemscore.Fitness>
12.8841

> <Gold.Chemscore.DG>
-15.4229

> <Gold.Chemscore.ZeroCoef>
-5.4800

> <Gold.Chemscore.Hbond>
1.3301

> <Gold.Chemscore.Metal>
0.0000

> <Gold.Chemscore.Lipo>
83.9900

> <Gold.Chemscore.Internal_Hbond>
0.0000

> <Gold.Chemscore.DEClash>
0.5366

> <Gold.Chemscore.DEInternal>
2.0022

> <Gold.Chemscore.Rot>
1.6900

> <Gold.Chemscore.Internal.Correction>
   9.000000E+99

> <Gold.Chemscore.Hbonds>
donor molecule, donor type, donor heavy atom, donor atom, acceptor molecule, acceptor atom, score
      L1  H     7    32       P1  7948  0.76
      P1  H  7989  7998       L1     3  0.42

> <Gold.Chemscore.Hbond.Weighted>
-4.4425

> <Gold.Chemscore.Metal.Weighted>
-0.0000

> <Gold.Chemscore.Lipo.Weighted>
-9.8268

> <Gold.Chemscore.Internal_Hbond.Weighted>
0.0000

> <Gold.Chemscore.DEClash.Weighted>
0.5366

> <Gold.Chemscore.DEInternal.Weighted>
2.0022

> <Gold.Chemscore.Rot.Weighted>
4.3265

> <Gold.Chemscore.Internal.Correction.Weighted>
   9.000000E+99

> <Gold.Protein.RotatedTorsions>
[ 6907 6896 6895 6894 ] final  101.90 input  -60.11 | X-H torsion
[ 7974 7965 7964 7962 ] final   95.86 input  175.53 | X-H torsion
[ 8008 7997 7996 7995 ] final   52.46 input   59.86 | X-H torsion
[ 10167 10162 10161 10158 ] final  -92.19 input  -65.29 | X-H torsion
[ 10718 10713 10712 10709 ] final  106.64 input   66.30 | X-H torsion
[ 10763 10752 10751 10750 ] final    2.40 input  -60.55 | X-H torsion
[ 11005 11000 10999 10996 ] final    1.14 input  -57.11 | X-H torsion

> <Gold.Protein.ActiveResidues>
 VAL166  LYS551  ARG553  GLY616  TRP617  ASP618  TYR619  PRO620  LYS621  CYS622 
 ASP623  PHE694  ASN695  SER759  ASP760  ASP761  ALA762  ILE779  LEU786  VAL792 
 PHE793  MET794  SER795  GLU796  ALA797  LYS798  CYS799  TRP800  GLU811  SER814 

> <Gold.Protein.RotatedAtoms>
  152.5337  134.0056  159.7914 H   0  0  0  0  0  0  0  0  0  0  0  0  # atno 6907 bound_to 6896
  151.0267  133.5819  159.2672 H   0  0  0  0  0  0  0  0  0  0  0  0  # atno 6908 bound_to 6896
  151.2839  135.0729  159.9233 H   0  0  0  0  0  0  0  0  0  0  0  0  # atno 6909 bound_to 6896
  145.4466  139.2296  143.3063 H   0  0  0  0  0  0  0  0  0  0  0  0  # atno 7974 bound_to 7965
  155.4521  140.3458  155.4302 H   0  0  0  0  0  0  0  0  0  0  0  0  # atno 8008 bound_to 7997
  156.1214  140.1488  156.9229 H   0  0  0  0  0  0  0  0  0  0  0  0  # atno 8009 bound_to 7997
  154.4826  140.0865  156.7392 H   0  0  0  0  0  0  0  0  0  0  0  0  # atno 8010 bound_to 7997
  140.3373  143.2961  151.9875 H   0  0  0  0  0  0  0  0  0  0  0  0  # atno 10167 bound_to 10162
  157.6660  131.0855  150.6037 H   0  0  0  0  0  0  0  0  0  0  0  0  # atno 10718 bound_to 10713
  153.2960  135.6952  153.7248 H   0  0  0  0  0  0  0  0  0  0  0  0  # atno 10763 bound_to 10752
  153.6180  135.3432  155.3002 H   0  0  0  0  0  0  0  0  0  0  0  0  # atno 10764 bound_to 10752
  154.8537  135.4379  154.2057 H   0  0  0  0  0  0  0  0  0  0  0  0  # atno 10765 bound_to 10752
  140.6188  133.9681  155.8214 H   0  0  0  0  0  0  0  0  0  0  0  0  # atno 11005 bound_to 11000
  146.2527  140.5220  142.8886 LP  0  0  0  0  0  0  0  0  0  0  0  0  # atno 17320 bound_to 7965
  144.8088  140.6347  143.6429 LP  0  0  0  0  0  0  0  0  0  0  0  0  # atno 17321 bound_to 7965
  139.4846  144.6186  151.7299 LP  0  0  0  0  0  0  0  0  0  0  0  0  # atno 17342 bound_to 10162
  140.5342  144.0683  150.6064 LP  0  0  0  0  0  0  0  0  0  0  0  0  # atno 17343 bound_to 10162
  156.6338  130.4439  149.5777 LP  0  0  0  0  0  0  0  0  0  0  0  0  # atno 17370 bound_to 10713
  156.2261  130.6767  151.1417 LP  0  0  0  0  0  0  0  0  0  0  0  0  # atno 17371 bound_to 10713
  141.0757  134.0138  157.3461 LP  0  0  0  0  0  0  0  0  0  0  0  0  # atno 17394 bound_to 11000
  139.9162  135.0197  156.7889 LP  0  0  0  0  0  0  0  0  0  0  0  0  # atno 17395 bound_to 11000

$$$$
