AV-unprocessed.smi:34|AV-procd|sdf|232|dock6
  -GOLD-   2262015563D 1   1.00000     0.00000
 Structure written by MMmdl.
 54 58  0  0  0  0  0  0  0  0  2 V2000
  150.3128  141.5937  155.8889 O   0  0  0  0  0  0  0  0  0  0  0  0
  150.9884  141.2659  156.8666 C   0  0  0  0  0  0  0  0  0  0  0  0
  151.3102  140.0116  157.2736 N   0  5  0  0  0  0  0  0  0  0  0  0
  151.4537  139.0299  156.3701 C   0  0  0  0  0  0  0  0  0  0  0  0
  151.5966  139.3265  155.0532 N   0  0  0  0  0  0  0  0  0  0  0  0
  151.7331  138.3477  154.1513 C   0  0  0  0  0  0  0  0  0  0  0  0
  151.7488  137.0259  154.3444 N   0  0  0  0  0  0  0  0  0  0  0  0
  151.5977  136.7111  155.6633 C   0  0  0  0  0  0  0  0  0  0  0  0
  151.4429  137.6520  156.7232 C   0  0  0  0  0  0  0  0  0  0  0  0
  151.3111  137.0037  157.9424 N   0  0  0  0  0  0  0  0  0  0  0  0
  151.3940  135.7266  157.5777 C   0  0  0  0  0  0  0  0  0  0  0  0
  151.5648  135.4622  156.2672 N   0  0  0  0  0  0  0  0  0  0  0  0
  151.6889  134.1097  155.6358 C   0  0  1  0  0  0  0  0  0  0  0  0
  151.5962  133.1168  156.6158 O   0  0  0  0  0  0  0  0  0  0  0  0
  150.7737  132.0317  156.1752 C   0  0  1  0  0  0  0  0  0  0  0  0
  149.4869  132.0089  157.0158 C   0  0  0  0  0  0  0  0  0  0  0  0
  149.8114  132.2982  158.3659 O   0  0  0  0  0  0  0  0  0  0  0  0
  149.3360  133.4149  158.9509 C   0  0  0  0  0  0  0  0  0  0  0  0
  148.6743  134.2690  158.3571 O   0  0  0  0  0  0  0  0  0  0  0  0
  149.6979  133.5117  160.3943 C   0  0  0  0  0  0  0  0  0  0  0  0
  149.3443  134.6724  161.1211 C   0  0  0  0  0  0  0  0  0  0  0  0
  149.6770  134.7941  162.4844 C   0  0  0  0  0  0  0  0  0  0  0  0
  150.3692  133.7573  163.1367 C   0  0  0  0  0  0  0  0  0  0  0  0
  150.7273  132.5978  162.4246 C   0  0  0  0  0  0  0  0  0  0  0  0
  150.3944  132.4737  161.0615 C   0  0  0  0  0  0  0  0  0  0  0  0
  150.5357  132.3164  154.6884 C   0  0  1  0  0  0  0  0  0  0  0  0
  149.4174  131.7924  154.1831 F   0  0  0  0  0  0  0  0  0  0  0  0
  150.6053  133.8286  154.5868 C   0  0  1  0  0  0  0  0  0  0  0  0
  149.3659  134.4530  154.8730 O   0  0  0  0  0  0  0  0  0  0  0  0
  151.4933  142.3406  157.7926 C   0  0  0  0  0  0  0  0  0  0  0  0
  152.3700  142.0004  158.8483 C   0  0  0  0  0  0  0  0  0  0  0  0
  152.8334  142.9864  159.7413 C   0  0  0  0  0  0  0  0  0  0  0  0
  152.4168  144.3225  159.5947 C   0  0  0  0  0  0  0  0  0  0  0  0
  151.5334  144.6714  158.5562 C   0  0  0  0  0  0  0  0  0  0  0  0
  151.0698  143.6863  157.6626 C   0  0  0  0  0  0  0  0  0  0  0  0
  151.8453  138.6691  153.1264 H   0  0  0  0  0  0  0  0  0  0  0  0
  151.3302  134.9340  158.3086 H   0  0  0  0  0  0  0  0  0  0  0  0
  152.6939  134.0898  155.2119 H   0  0  0  0  0  0  0  0  0  0  0  0
  151.3046  131.0869  156.2974 H   0  0  0  0  0  0  0  0  0  0  0  0
  148.7623  132.7269  156.6323 H   0  0  0  0  0  0  0  0  0  0  0  0
  149.0225  131.0233  156.9700 H   0  0  0  0  0  0  0  0  0  0  0  0
  148.8146  135.4823  160.6405 H   0  0  0  0  0  0  0  0  0  0  0  0
  149.4013  135.6848  163.0291 H   0  0  0  0  0  0  0  0  0  0  0  0
  150.6259  133.8513  164.1814 H   0  0  0  0  0  0  0  0  0  0  0  0
  151.2594  131.8015  162.9240 H   0  0  0  0  0  0  0  0  0  0  0  0
  150.6870  131.5721  160.5435 H   0  0  0  0  0  0  0  0  0  0  0  0
  151.3581  131.8880  154.1139 H   0  0  0  0  0  0  0  0  0  0  0  0
  150.9446  134.1612  153.6054 H   0  0  0  0  0  0  0  0  0  0  0  0
  149.0412  134.8559  154.0820 H   0  0  0  0  0  0  0  0  0  0  0  0
  152.6973  140.9788  158.9770 H   0  0  0  0  0  0  0  0  0  0  0  0
  153.5074  142.7161  160.5405 H   0  0  0  0  0  0  0  0  0  0  0  0
  152.7714  145.0783  160.2798 H   0  0  0  0  0  0  0  0  0  0  0  0
  151.2072  145.6950  158.4460 H   0  0  0  0  0  0  0  0  0  0  0  0
  150.3838  143.9742  156.8791 H   0  0  0  0  0  0  0  0  0  0  0  0
  1  2  2  0  0  0  0
  2  3  1  0  0  0  0
  2 30  1  0  0  0  0
  3  4  1  0  0  0  0
  4  9  1  0  0  0  0
  4  5  2  0  0  0  0
  5  6  1  0  0  0  0
  6  7  2  0  0  0  0
  6 36  1  0  0  0  0
  7  8  1  0  0  0  0
  8 12  1  0  0  0  0
  8  9  2  0  0  0  0
  9 10  1  0  0  0  0
 10 11  2  0  0  0  0
 11 12  1  0  0  0  0
 11 37  1  0  0  0  0
 12 13  1  0  0  0  0
 13 28  1  0  0  0  0
 13 14  1  0  0  0  0
 13 38  1  0  0  0  0
 14 15  1  0  0  0  0
 15 16  1  0  0  0  0
 15 26  1  0  0  0  0
 15 39  1  0  0  0  0
 16 17  1  0  0  0  0
 16 40  1  0  0  0  0
 16 41  1  0  0  0  0
 17 18  1  0  0  0  0
 18 19  2  0  0  0  0
 18 20  1  0  0  0  0
 20 25  1  0  0  0  0
 20 21  2  0  0  0  0
 21 22  1  0  0  0  0
 21 42  1  0  0  0  0
 22 23  2  0  0  0  0
 22 43  1  0  0  0  0
 23 24  1  0  0  0  0
 23 44  1  0  0  0  0
 24 25  2  0  0  0  0
 24 45  1  0  0  0  0
 25 46  1  0  0  0  0
 26 27  1  0  0  0  0
 26 28  1  0  0  0  0
 26 47  1  0  0  0  0
 28 29  1  0  0  0  0
 28 48  1  0  0  0  0
 29 49  1  0  0  0  0
 30 35  1  0  0  0  0
 30 31  2  0  0  0  0
 31 32  1  0  0  0  0
 31 50  1  0  0  0  0
 32 33  2  0  0  0  0
 32 51  1  0  0  0  0
 33 34  1  0  0  0  0
 33 52  1  0  0  0  0
 34 35  2  0  0  0  0
 34 53  1  0  0  0  0
 35 54  1  0  0  0  0
M  CHG  1   3  -1
M  END
> <s_m_source_file>
AV-unprocessed.smi

> <i_m_source_file_index>
34

> <i_lp_mmshare_version>
43012

> <i_f3d_flags>
0

> <s_epik_input>
W2NIXTFbY0hdW2NIXVtjSF1bY0hdYzFDKD1PKVtOSF1jKG5bY0hdbjIpYyhjMjMpbltjSF1uM1tDQEBIXTRPW0NASF0oW0NAQEhdKEYpW0NASF00W09IXSlbQ0gyXU9DKD1PKWM1W2NIXVtjSF1bY0hdW2NIXVtjSF01

> <s_epik_cmdline>
J2VwaWtfcHl0aG9uJywgJy1waCcsICc3LjAnLCAnLXRuJywgJzgnLCAnLW1hJywgJzIwMCcsICctbWV0YWxfYmluZGluZycsICctaW1hZScsICc8aW5maWxlLm1hZT4nLCAnLW9tYWUnLCAnPG91dGZpbGUubWFlPic=

> <r_lp_tautomer_probability>
1

> <r_epik_Ionization_Penalty>
4.33227

> <r_epik_Ionization_Penalty_Charging>
3.41027

> <r_epik_Ionization_Penalty_Neutral>
0.922001

> <r_epik_State_Penalty>
3.41358

> <r_epik_Charging_Adjusted_Penalty>
6.82385

> <i_epik_Tot_Q>
-1

> <i_epik_Tot_abs_Q>
1

> <r_epik_Metal_State_Penalty>
0.496292

> <b_epik_Metal_Only>
1

> <s_epik_Chemistry_Notes>
This compound has an ester and may undergo hydrolysis at high or low pH. This compound contains an acetal/aminal-like group ( X-CH(R)-Y where X, Y are N, S, or O) that may be acid/base labile, releasing an aldehyde.

> <s_lp_Force_Field>
OPLS_2005

> <r_lp_Energy>
54.2336

> <b_lp_Chiralities_Consistent>
1

> <s_lp_Variant>
AV-unprocessed.smi:34-18

> <Gold.Version>
5.8.1

> <Gold.Id.Protein>
6NUR|6NUR_protein|mol2

> <Gold.PLP.Fitness>
65.2069

> <Gold.PLP.PLP>
-58.5702

> <Gold.PLP.part.hbond>
-3.8546

> <Gold.PLP.part.metal>
0.0000

> <Gold.PLP.part.buried>
-6.2843

> <Gold.PLP.part.nonpolar>
-48.7609

> <Gold.PLP.part.repulsive>
0.3025

> <Gold.PLP.ligand.clash>
0.0272

> <Gold.PLP.ligand.torsion>
0.8916

> <Gold.PLP.Chemscore.Hbond>
2.5119

> <Gold.PLP.Chemscore.CHOScore>
0.0000

> <Gold.PLP.Chemscore.Metal>
0.0000

> <Gold.Chemscore.Hbonds>
donor molecule, donor type, donor heavy atom, donor atom, acceptor molecule, acceptor atom, score
      P1  H  7989  7998       L1     5  0.37
      P1  H 10752 10765       L1     7  0.30

> <Gold.PLP.Chemscore.Internal.Correction>
0.9114

> <Gold.Rescore>
     Score         DG    S(hbond)    S(metal)    S(lipo)     H(rot)  DE(clash)    DE(int)     intcor
     15.24     -18.23       1.68        0.00     119.86       2.69       0.21       2.79       ----

> <Gold.Chemscore.Fitness>
15.2351

> <Gold.Chemscore.DG>
-18.2285

> <Gold.Chemscore.ZeroCoef>
-5.4800

> <Gold.Chemscore.Hbond>
1.6832

> <Gold.Chemscore.Metal>
0.0000

> <Gold.Chemscore.Lipo>
119.8642

> <Gold.Chemscore.Internal_Hbond>
0.0000

> <Gold.Chemscore.DEClash>
0.2064

> <Gold.Chemscore.DEInternal>
2.7870

> <Gold.Chemscore.Rot>
2.6944

> <Gold.Chemscore.Internal.Correction>
   9.000000E+99

> <Gold.Chemscore.Hbonds>
donor molecule, donor type, donor heavy atom, donor atom, acceptor molecule, acceptor atom, score
      P1  H  7989  7998       L1     5  0.03

> <Gold.Chemscore.Hbond.Weighted>
-5.6219

> <Gold.Chemscore.Metal.Weighted>
-0.0000

> <Gold.Chemscore.Lipo.Weighted>
-14.0241

> <Gold.Chemscore.Internal_Hbond.Weighted>
0.0000

> <Gold.Chemscore.DEClash.Weighted>
0.2064

> <Gold.Chemscore.DEInternal.Weighted>
2.7870

> <Gold.Chemscore.Rot.Weighted>
6.8975

> <Gold.Chemscore.Internal.Correction.Weighted>
   9.000000E+99

> <Gold.Protein.RotatedTorsions>
[ 6907 6896 6895 6894 ] final  142.87 input  -60.11 | X-H torsion
[ 7974 7965 7964 7962 ] final   27.44 input  175.53 | X-H torsion
[ 8008 7997 7996 7995 ] final  172.91 input   59.86 | X-H torsion
[ 10167 10162 10161 10158 ] final  100.15 input  -65.29 | X-H torsion
[ 10718 10713 10712 10709 ] final  -21.37 input   66.30 | X-H torsion
[ 10763 10752 10751 10750 ] final  161.20 input  -60.55 | X-H torsion
[ 11005 11000 10999 10996 ] final   78.90 input  -57.11 | X-H torsion

> <Gold.Protein.ActiveResidues>
 VAL166  LYS551  ARG553  GLY616  TRP617  ASP618  TYR619  PRO620  LYS621  CYS622 
 ASP623  PHE694  ASN695  SER759  ASP760  ASP761  ALA762  ILE779  LEU786  VAL792 
 PHE793  MET794  SER795  GLU796  ALA797  LYS798  CYS799  TRP800  GLU811  SER814 

> <Gold.Protein.RotatedAtoms>
  152.2133  133.4927  159.5121 H   0  0  0  0  0  0  0  0  0  0  0  0  # atno 6907 bound_to 6896
  150.6995  134.1438  159.4124 H   0  0  0  0  0  0  0  0  0  0  0  0  # atno 6908 bound_to 6896
  151.9358  135.0236  160.0583 H   0  0  0  0  0  0  0  0  0  0  0  0  # atno 6909 bound_to 6896
  146.1784  139.7191  142.8918 H   0  0  0  0  0  0  0  0  0  0  0  0  # atno 7974 bound_to 7965
  156.1128  140.1474  156.9314 H   0  0  0  0  0  0  0  0  0  0  0  0  # atno 8008 bound_to 7997
  154.4779  140.0888  156.7350 H   0  0  0  0  0  0  0  0  0  0  0  0  # atno 8009 bound_to 7997
  155.4566  140.3437  155.4309 H   0  0  0  0  0  0  0  0  0  0  0  0  # atno 8010 bound_to 7997
  139.7553  144.6971  151.0372 H   0  0  0  0  0  0  0  0  0  0  0  0  # atno 10167 bound_to 10162
  156.5191  130.4628  149.6606 H   0  0  0  0  0  0  0  0  0  0  0  0  # atno 10718 bound_to 10713
  154.2592  135.2769  155.2785 H   0  0  0  0  0  0  0  0  0  0  0  0  # atno 10763 bound_to 10752
  154.5398  135.5706  153.6833 H   0  0  0  0  0  0  0  0  0  0  0  0  # atno 10764 bound_to 10752
  152.9965  135.6248  154.2742 H   0  0  0  0  0  0  0  0  0  0  0  0  # atno 10765 bound_to 10752
  139.9194  134.7800  156.1709 H   0  0  0  0  0  0  0  0  0  0  0  0  # atno 11005 bound_to 11000
  145.4147  141.0400  143.2997 LP  0  0  0  0  0  0  0  0  0  0  0  0  # atno 17320 bound_to 7965
  144.8274  139.5687  143.6959 LP  0  0  0  0  0  0  0  0  0  0  0  0  # atno 17321 bound_to 7965
  140.7802  143.4761  151.0081 LP  0  0  0  0  0  0  0  0  0  0  0  0  # atno 17342 bound_to 10162
  139.8448  143.7516  152.3179 LP  0  0  0  0  0  0  0  0  0  0  0  0  # atno 17343 bound_to 10162
  156.3167  130.7258  151.2162 LP  0  0  0  0  0  0  0  0  0  0  0  0  # atno 17370 bound_to 10713
  157.7439  131.0467  150.4905 LP  0  0  0  0  0  0  0  0  0  0  0  0  # atno 17371 bound_to 10713
  141.0701  133.6801  156.2122 LP  0  0  0  0  0  0  0  0  0  0  0  0  # atno 17394 bound_to 11000
  140.6521  134.5056  157.5578 LP  0  0  0  0  0  0  0  0  0  0  0  0  # atno 17395 bound_to 11000

$$$$
