AV-unprocessed.smi:187|AV-procd|sdf|1468|dock8
  -GOLD-   2262019283D 1   1.00000     0.00000
 Structure written by MMmdl.
 53 56  0  0  0  0  0  0  0  0  1 V2000
  152.2142  145.1547  159.0635 C   0  0  0  0  0  0  0  0  0  0  0  0
  152.1344  143.9308  158.1284 C   0  0  2  0  0  0  0  0  0  0  0  0
  151.1557  144.2184  156.9717 C   0  0  0  0  0  0  0  0  0  0  0  0
  151.0219  143.0106  156.0339 C   0  0  0  0  0  0  0  0  0  0  0  0
  150.5978  141.7634  156.8321 C   0  0  1  0  0  0  0  0  0  0  0  0
  150.5015  140.5325  155.9220 C   0  0  0  0  0  0  0  0  0  0  0  0
  149.3403  139.8734  155.9102 N   0  0  0  0  0  0  0  0  0  0  0  0
  151.4603  140.1785  155.2379 O   0  0  0  0  0  0  0  0  0  0  0  0
  151.5976  141.5186  157.9789 C   0  0  0  0  0  0  0  0  0  0  0  0
  151.7346  142.7013  158.8283 N   0  0  0  0  0  0  0  0  0  0  0  0
  152.4238  142.4059  159.9528 C   0  0  0  0  0  0  0  0  0  0  0  0
  152.1546  143.1480  161.0547 N   0  0  0  0  0  0  0  0  0  0  0  0
  152.8066  142.9079  162.1962 C   0  0  0  0  0  0  0  0  0  0  0  0
  153.7401  141.9870  162.4469 N   0  0  0  0  0  0  0  0  0  0  0  0
  154.0023  141.2306  161.3421 C   0  0  0  0  0  0  0  0  0  0  0  0
  153.3976  141.3734  160.0619 C   0  0  0  0  0  0  0  0  0  0  0  0
  153.9231  140.4359  159.1814 N   0  0  0  0  0  0  0  0  0  0  0  0
  154.7961  139.7819  159.8980 C   0  0  0  0  0  0  0  0  0  0  0  0
  154.8873  140.1742  161.2147 N   0  0  0  0  0  0  0  0  0  0  0  0
  155.7826  139.6546  162.2061 C   0  0  0  0  0  0  0  0  0  0  0  0
  155.6777  138.2060  162.6894 C   0  0  0  0  0  0  0  0  0  0  0  0
  156.1532  138.6477  164.0925 C   0  0  0  0  0  0  0  0  0  0  0  0
  155.4121  138.0052  165.2767 C   0  0  0  0  0  0  0  0  0  0  0  0
  155.8009  136.6582  165.4541 O   0  0  0  0  0  0  0  0  0  0  0  0
  157.6734  138.5540  164.3337 C   0  0  0  0  0  0  0  0  0  0  0  0
  158.0944  137.2110  164.4613 O   0  0  0  0  0  0  0  0  0  0  0  0
  155.6405  140.0444  163.6790 C   0  0  0  0  0  0  0  0  0  0  0  0
  152.4578  146.0573  158.5026 H   0  0  0  0  0  0  0  0  0  0  0  0
  152.9853  145.0374  159.8251 H   0  0  0  0  0  0  0  0  0  0  0  0
  151.2650  145.3268  159.5720 H   0  0  0  0  0  0  0  0  0  0  0  0
  153.1213  143.7683  157.6939 H   0  0  0  0  0  0  0  0  0  0  0  0
  150.1742  144.4731  157.3746 H   0  0  0  0  0  0  0  0  0  0  0  0
  151.4910  145.0866  156.4035 H   0  0  0  0  0  0  0  0  0  0  0  0
  150.2924  143.2290  155.2531 H   0  0  0  0  0  0  0  0  0  0  0  0
  151.9752  142.8362  155.5323 H   0  0  0  0  0  0  0  0  0  0  0  0
  149.6151  141.9515  157.2692 H   0  0  0  0  0  0  0  0  0  0  0  0
  149.2294  139.0569  155.3266 H   0  0  0  0  0  0  0  0  0  0  0  0
  148.5761  140.1952  156.4865 H   0  0  0  0  0  0  0  0  0  0  0  0
  151.2643  140.6713  158.5808 H   0  0  0  0  0  0  0  0  0  0  0  0
  152.5766  141.2543  157.5750 H   0  0  0  0  0  0  0  0  0  0  0  0
  152.5417  143.5439  163.0279 H   0  0  0  0  0  0  0  0  0  0  0  0
  155.3948  138.9846  159.4823 H   0  0  0  0  0  0  0  0  0  0  0  0
  156.7897  139.8696  161.8445 H   0  0  0  0  0  0  0  0  0  0  0  0
  154.6494  137.8392  162.6853 H   0  0  0  0  0  0  0  0  0  0  0  0
  156.3390  137.5111  162.1713 H   0  0  0  0  0  0  0  0  0  0  0  0
  155.6300  138.5371  166.2033 H   0  0  0  0  0  0  0  0  0  0  0  0
  154.3305  138.0487  165.1470 H   0  0  0  0  0  0  0  0  0  0  0  0
  155.7160  136.4394  166.3697 H   0  0  0  0  0  0  0  0  0  0  0  0
  158.2321  139.0002  163.5109 H   0  0  0  0  0  0  0  0  0  0  0  0
  157.9698  139.1007  165.2293 H   0  0  0  0  0  0  0  0  0  0  0  0
  158.8929  137.0989  163.9685 H   0  0  0  0  0  0  0  0  0  0  0  0
  156.2737  140.8763  163.9899 H   0  0  0  0  0  0  0  0  0  0  0  0
  154.6011  140.2182  163.9645 H   0  0  0  0  0  0  0  0  0  0  0  0
  1  2  1  0  0  0  0
  1 28  1  0  0  0  0
  1 29  1  0  0  0  0
  1 30  1  0  0  0  0
  2 10  1  0  0  0  0
  2  3  1  0  0  0  0
  2 31  1  0  0  0  0
  3  4  1  0  0  0  0
  3 32  1  0  0  0  0
  3 33  1  0  0  0  0
  4  5  1  0  0  0  0
  4 34  1  0  0  0  0
  4 35  1  0  0  0  0
  5  6  1  0  0  0  0
  5  9  1  0  0  0  0
  5 36  1  0  0  0  0
  6  7  1  0  0  0  0
  6  8  2  0  0  0  0
  7 37  1  0  0  0  0
  7 38  1  0  0  0  0
  9 10  1  0  0  0  0
  9 39  1  0  0  0  0
  9 40  1  0  0  0  0
 10 11  1  0  0  0  0
 11 16  1  0  0  0  0
 11 12  2  0  0  0  0
 12 13  1  0  0  0  0
 13 14  2  0  0  0  0
 13 41  1  0  0  0  0
 14 15  1  0  0  0  0
 15 19  1  0  0  0  0
 15 16  2  0  0  0  0
 16 17  1  0  0  0  0
 17 18  2  0  0  0  0
 18 19  1  0  0  0  0
 18 42  1  0  0  0  0
 19 20  1  0  0  0  0
 20 27  1  0  0  0  0
 20 21  1  0  0  0  0
 20 43  1  0  0  0  0
 21 22  1  0  0  0  0
 21 44  1  0  0  0  0
 21 45  1  0  0  0  0
 22 23  1  0  0  0  0
 22 25  1  0  0  0  0
 22 27  1  0  0  0  0
 23 24  1  0  0  0  0
 23 46  1  0  0  0  0
 23 47  1  0  0  0  0
 24 48  1  0  0  0  0
 25 26  1  0  0  0  0
 25 49  1  0  0  0  0
 25 50  1  0  0  0  0
 26 51  1  0  0  0  0
 27 52  1  0  0  0  0
 27 53  1  0  0  0  0
M  END
> <s_m_source_file>
AV-unprocessed.smi

> <i_m_source_file_index>
187

> <i_lp_mmshare_version>
43012

> <i_f3d_flags>
0

> <s_epik_input>
W0NIM11bQ0BASF0xW0NIMl1bQ0gyXVtDQEBIXShDKD1PKVtOSDJdKVtDSDJdTjFjKG5bY0hdbjIpYyhjMjMpbltjSF1uM1tDSF0oW0NIMl00KVtDSDJdQzQoW0NIMl1bT0hdKVtDSDJdW09IXQ==

> <s_epik_cmdline>
J2VwaWtfcHl0aG9uJywgJy1waCcsICc3LjAnLCAnLXRuJywgJzgnLCAnLW1hJywgJzIwMCcsICctbWV0YWxfYmluZGluZycsICctaW1hZScsICc8aW5maWxlLm1hZT4nLCAnLW9tYWUnLCAnPG91dGZpbGUubWFlPic=

> <r_lp_tautomer_probability>
1

> <r_epik_Ionization_Penalty>
0.0017711

> <r_epik_Ionization_Penalty_Charging>
0

> <r_epik_Ionization_Penalty_Neutral>
0.0017711

> <r_epik_State_Penalty>
0.00107211

> <r_epik_Charging_Adjusted_Penalty>
0.00107211

> <i_epik_Tot_Q>
0

> <i_epik_Tot_abs_Q>
0

> <r_epik_Metal_State_Penalty>
-0

> <b_epik_Metal_Only>
0

> <s_lp_Force_Field>
OPLS_2005

> <r_lp_Energy>
40.3757

> <b_lp_Chiralities_Consistent>
1

> <s_lp_Variant>
AV-unprocessed.smi:187-1

> <Gold.Version>
5.8.1

> <Gold.Id.Protein>
6NUR|6NUR_protein|mol2

> <Gold.PLP.Fitness>
49.9265

> <Gold.PLP.PLP>
-46.7034

> <Gold.PLP.part.hbond>
-3.3819

> <Gold.PLP.part.metal>
0.0000

> <Gold.PLP.part.buried>
-0.6888

> <Gold.PLP.part.nonpolar>
-42.6448

> <Gold.PLP.part.repulsive>
0.1917

> <Gold.PLP.ligand.clash>
0.0000

> <Gold.PLP.ligand.torsion>
0.8761

> <Gold.PLP.Chemscore.Hbond>
1.4265

> <Gold.PLP.Chemscore.CHOScore>
0.0000

> <Gold.PLP.Chemscore.Metal>
0.0000

> <Gold.Chemscore.Hbonds>
donor molecule, donor type, donor heavy atom, donor atom, acceptor molecule, acceptor atom, score
      P1  H  7989  7998       L1     8  1.00
      P1  H  7997  8009       L1    17  0.43

> <Gold.PLP.Chemscore.Internal.Correction>
0.6957

> <Gold.Rescore>
     Score         DG    S(hbond)    S(metal)    S(lipo)     H(rot)  DE(clash)    DE(int)     intcor
      1.74     -10.14       0.95        0.00     100.01       3.99       3.79       4.60       ----

> <Gold.Chemscore.Fitness>
1.7423

> <Gold.Chemscore.DG>
-10.1367

> <Gold.Chemscore.ZeroCoef>
-5.4800

> <Gold.Chemscore.Hbond>
0.9493

> <Gold.Chemscore.Metal>
0.0000

> <Gold.Chemscore.Lipo>
100.0081

> <Gold.Chemscore.Internal_Hbond>
0.0000

> <Gold.Chemscore.DEClash>
3.7917

> <Gold.Chemscore.DEInternal>
4.6027

> <Gold.Chemscore.Rot>
3.9902

> <Gold.Chemscore.Internal.Correction>
   9.000000E+99

> <Gold.Chemscore.Hbonds>
donor molecule, donor type, donor heavy atom, donor atom, acceptor molecule, acceptor atom, score
      P1  H  7989  7998       L1     8  0.92
      P1  H  7997  8009       L1    17  0.09

> <Gold.Chemscore.Hbond.Weighted>
-3.1706

> <Gold.Chemscore.Metal.Weighted>
-0.0000

> <Gold.Chemscore.Lipo.Weighted>
-11.7009

> <Gold.Chemscore.Internal_Hbond.Weighted>
0.0000

> <Gold.Chemscore.DEClash.Weighted>
3.7917

> <Gold.Chemscore.DEInternal.Weighted>
4.6027

> <Gold.Chemscore.Rot.Weighted>
10.2148

> <Gold.Chemscore.Internal.Correction.Weighted>
   9.000000E+99

> <Gold.Protein.RotatedTorsions>
[ 6907 6896 6895 6894 ] final  -14.02 input  -60.11 | X-H torsion
[ 7974 7965 7964 7962 ] final   -3.89 input  175.53 | X-H torsion
[ 8008 7997 7996 7995 ] final  139.32 input   59.86 | X-H torsion
[ 10167 10162 10161 10158 ] final   98.32 input  -65.29 | X-H torsion
[ 10718 10713 10712 10709 ] final -175.69 input   66.30 | X-H torsion
[ 10763 10752 10751 10750 ] final  170.50 input  -60.55 | X-H torsion
[ 11005 11000 10999 10996 ] final   43.78 input  -57.11 | X-H torsion

> <Gold.Protein.ActiveResidues>
 VAL166  LYS551  ARG553  GLY616  TRP617  ASP618  TYR619  PRO620  LYS621  CYS622 
 ASP623  PHE694  ASN695  SER759  ASP760  ASP761  ALA762  ILE779  LEU786  VAL792 
 PHE793  MET794  SER795  GLU796  ALA797  LYS798  CYS799  TRP800  GLU811  SER814 

> <Gold.Protein.RotatedAtoms>
  151.3459  135.0874  159.9386 H   0  0  0  0  0  0  0  0  0  0  0  0  # atno 6907 bound_to 6896
  152.5199  133.9401  159.7632 H   0  0  0  0  0  0  0  0  0  0  0  0  # atno 6908 bound_to 6896
  150.9766  133.6234  159.2759 H   0  0  0  0  0  0  0  0  0  0  0  0  # atno 6909 bound_to 6896
  146.2382  140.1789  142.8332 H   0  0  0  0  0  0  0  0  0  0  0  0  # atno 7974 bound_to 7965
  156.2990  140.2371  156.4217 H   0  0  0  0  0  0  0  0  0  0  0  0  # atno 8008 bound_to 7997
  154.8349  140.0431  157.1522 H   0  0  0  0  0  0  0  0  0  0  0  0  # atno 8009 bound_to 7997
  154.9167  140.2998  155.5241 H   0  0  0  0  0  0  0  0  0  0  0  0  # atno 8010 bound_to 7997
  139.7720  144.6919  151.0143 H   0  0  0  0  0  0  0  0  0  0  0  0  # atno 10167 bound_to 10162
  156.8036  130.9561  151.3118 H   0  0  0  0  0  0  0  0  0  0  0  0  # atno 10718 bound_to 10713
  154.3985  135.2754  155.2111 H   0  0  0  0  0  0  0  0  0  0  0  0  # atno 10763 bound_to 10752
  154.4147  135.6014  153.5977 H   0  0  0  0  0  0  0  0  0  0  0  0  # atno 10764 bound_to 10752
  152.9831  135.5958  154.4249 H   0  0  0  0  0  0  0  0  0  0  0  0  # atno 10765 bound_to 10752
  140.1613  134.4338  155.8316 H   0  0  0  0  0  0  0  0  0  0  0  0  # atno 11005 bound_to 11000
  144.9950  140.8581  143.5316 LP  0  0  0  0  0  0  0  0  0  0  0  0  # atno 17320 bound_to 7965
  145.1800  139.2357  143.5297 LP  0  0  0  0  0  0  0  0  0  0  0  0  # atno 17321 bound_to 7965
  140.7814  143.4578  151.0321 LP  0  0  0  0  0  0  0  0  0  0  0  0  # atno 17342 bound_to 10162
  139.8261  143.7754  152.3178 LP  0  0  0  0  0  0  0  0  0  0  0  0  # atno 17343 bound_to 10162
  157.6541  130.8909  149.9693 LP  0  0  0  0  0  0  0  0  0  0  0  0  # atno 17370 bound_to 10713
  156.1086  130.3651  150.0089 LP  0  0  0  0  0  0  0  0  0  0  0  0  # atno 17371 bound_to 10713
  141.2209  133.6914  156.7599 LP  0  0  0  0  0  0  0  0  0  0  0  0  # atno 17394 bound_to 11000
  140.2486  134.8558  157.3645 LP  0  0  0  0  0  0  0  0  0  0  0  0  # atno 17395 bound_to 11000

$$$$
