AV-unprocessed.smi:1947|AV-procd|sdf|7869|dock2
  -GOLD-   2272010 23D 1   1.00000     0.00000
 Structure written by MMmdl.
 38 39  0  0  0  0  0  0  0  0  2 V2000
  150.9916  142.4893  156.6344 C   0  0  0  0  0  0  0  0  0  0  0  0
  151.3829  142.4762  158.1215 C   0  0  2  0  0  0  0  0  0  0  0  0
  152.0837  143.7932  158.5111 C   0  0  0  0  0  0  0  0  0  0  0  0
  152.4919  143.8052  159.9918 C   0  0  0  0  0  0  0  0  0  0  0  0
  153.3813  142.6003  160.3278 C   0  0  0  0  0  0  0  0  0  0  0  0
  152.6879  141.2817  159.9552 C   0  0  0  0  0  0  0  0  0  0  0  0
  152.2719  141.2602  158.4688 C   0  0  1  0  0  0  0  0  0  0  0  0
  151.5205  140.0855  158.1901 O   0  0  0  0  0  0  0  0  0  0  0  0
  152.2451  138.8698  158.3127 C   0  0  0  0  0  0  0  0  0  0  0  0
  151.2664  137.6986  158.1793 C   0  0  0  0  0  0  0  0  0  0  0  0
  150.2332  137.7796  159.2034 N   0  0  0  0  0  0  0  0  0  0  0  0
  149.3534  136.8124  159.4931 C   0  0  0  0  0  0  0  0  0  0  0  0
  149.3806  135.7507  158.8667 O   0  0  0  0  0  0  0  0  0  0  0  0
  148.4988  137.1346  160.4908 N   0  5  0  0  0  0  0  0  0  0  0  0
  147.8861  136.1654  161.1904 C   0  0  0  0  0  0  0  0  0  0  0  0
  147.5441  134.9887  160.6412 N   0  0  0  0  0  0  0  0  0  0  0  0
  146.9152  134.1314  161.5340 N   0  0  0  0  0  0  0  0  0  0  0  0
  146.7906  134.6898  162.7377 C   0  0  0  0  0  0  0  0  0  0  0  0
  147.4280  136.3137  162.8895 S   0  0  0  0  0  0  0  0  0  0  0  0
  151.8722  142.5370  155.9932 H   0  0  0  0  0  0  0  0  0  0  0  0
  150.3632  143.3489  156.4011 H   0  0  0  0  0  0  0  0  0  0  0  0
  150.4318  141.5939  156.3623 H   0  0  0  0  0  0  0  0  0  0  0  0
  150.4637  142.4024  158.7046 H   0  0  0  0  0  0  0  0  0  0  0  0
  152.9693  143.9366  157.8903 H   0  0  0  0  0  0  0  0  0  0  0  0
  151.4258  144.6391  158.3084 H   0  0  0  0  0  0  0  0  0  0  0  0
  153.0171  144.7316  160.2258 H   0  0  0  0  0  0  0  0  0  0  0  0
  151.5991  143.7883  160.6182 H   0  0  0  0  0  0  0  0  0  0  0  0
  154.3263  142.6813  159.7895 H   0  0  0  0  0  0  0  0  0  0  0  0
  153.6279  142.6047  161.3898 H   0  0  0  0  0  0  0  0  0  0  0  0
  153.3573  140.4514  160.1786 H   0  0  0  0  0  0  0  0  0  0  0  0
  151.8064  141.1448  160.5831 H   0  0  0  0  0  0  0  0  0  0  0  0
  153.1628  141.2949  157.8388 H   0  0  0  0  0  0  0  0  0  0  0  0
  153.0173  138.7972  157.5449 H   0  0  0  0  0  0  0  0  0  0  0  0
  152.7413  138.8240  159.2819 H   0  0  0  0  0  0  0  0  0  0  0  0
  150.7947  137.7231  157.1960 H   0  0  0  0  0  0  0  0  0  0  0  0
  151.7992  136.7499  158.2600 H   0  0  0  0  0  0  0  0  0  0  0  0
  150.1851  138.6329  159.7405 H   0  0  0  0  0  0  0  0  0  0  0  0
  146.3172  134.1440  163.5399 H   0  0  0  0  0  0  0  0  0  0  0  0
  1  2  1  0  0  0  0
  1 20  1  0  0  0  0
  1 21  1  0  0  0  0
  1 22  1  0  0  0  0
  2  7  1  0  0  0  0
  2  3  1  0  0  0  0
  2 23  1  0  0  0  0
  3  4  1  0  0  0  0
  3 24  1  0  0  0  0
  3 25  1  0  0  0  0
  4  5  1  0  0  0  0
  4 26  1  0  0  0  0
  4 27  1  0  0  0  0
  5  6  1  0  0  0  0
  5 28  1  0  0  0  0
  5 29  1  0  0  0  0
  6  7  1  0  0  0  0
  6 30  1  0  0  0  0
  6 31  1  0  0  0  0
  7  8  1  0  0  0  0
  7 32  1  0  0  0  0
  8  9  1  0  0  0  0
  9 10  1  0  0  0  0
  9 33  1  0  0  0  0
  9 34  1  0  0  0  0
 10 11  1  0  0  0  0
 10 35  1  0  0  0  0
 10 36  1  0  0  0  0
 11 12  1  0  0  0  0
 11 37  1  0  0  0  0
 12 13  2  0  0  0  0
 12 14  1  0  0  0  0
 14 15  1  0  0  0  0
 15 19  1  0  0  0  0
 15 16  2  0  0  0  0
 16 17  1  0  0  0  0
 17 18  2  0  0  0  0
 18 19  1  0  0  0  0
 18 38  1  0  0  0  0
M  CHG  1  14  -1
M  END
> <s_m_source_file>
AV-unprocessed.smi

> <i_m_source_file_index>
1947

> <i_lp_mmshare_version>
43012

> <i_f3d_flags>
0

> <s_epik_input>
W0NIM11bQ0BASF0xW0NIMl1bQ0gyXVtDSDJdW0NIMl1bQ0BIXTFPW0NIMl1bQ0gyXVtOSF1DKD1PKVtOSF1jMm5uW2NIXXMy

> <s_epik_cmdline>
J2VwaWtfcHl0aG9uJywgJy1waCcsICc3LjAnLCAnLXRuJywgJzgnLCAnLW1hJywgJzIwMCcsICctbWV0YWxfYmluZGluZycsICctaW1hZScsICc8aW5maWxlLm1hZT4nLCAnLW9tYWUnLCAnPG91dGZpbGUubWFlPic=

> <r_lp_tautomer_probability>
1

> <r_epik_Ionization_Penalty>
3.35961

> <r_epik_Ionization_Penalty_Charging>
3.31977

> <r_epik_Ionization_Penalty_Neutral>
0.0398394

> <r_epik_State_Penalty>
3.31759

> <r_epik_Charging_Adjusted_Penalty>
6.63736

> <i_epik_Tot_Q>
-1

> <i_epik_Tot_abs_Q>
1

> <r_epik_Metal_State_Penalty>
0.484557

> <b_epik_Metal_Only>
1

> <s_lp_Force_Field>
OPLS_2005

> <r_lp_Energy>
9.33336

> <b_lp_Chiralities_Consistent>
1

> <s_lp_Variant>
AV-unprocessed.smi:1947-5

> <Gold.Version>
5.8.1

> <Gold.Id.Protein>
6NUR|6NUR_protein|mol2

> <Gold.PLP.Fitness>
49.0270

> <Gold.PLP.PLP>
-41.0073

> <Gold.PLP.part.hbond>
-3.0000

> <Gold.PLP.part.metal>
0.0000

> <Gold.PLP.part.buried>
-4.9154

> <Gold.PLP.part.nonpolar>
-33.5937

> <Gold.PLP.part.repulsive>
0.2301

> <Gold.PLP.ligand.clash>
0.0000

> <Gold.PLP.ligand.torsion>
0.4070

> <Gold.PLP.Chemscore.Hbond>
2.9317

> <Gold.PLP.Chemscore.CHOScore>
0.0000

> <Gold.PLP.Chemscore.Metal>
0.0000

> <Gold.Chemscore.Hbonds>
donor molecule, donor type, donor heavy atom, donor atom, acceptor molecule, acceptor atom, score
      P1  H  6896  6907       L1    13  1.00
      P1  H  6931  6943       L1    14  1.50
      P1  H  6934  6947       L1    14  0.27

> <Gold.PLP.Chemscore.Internal.Correction>
0.0386

> <Gold.Rescore>
     Score         DG    S(hbond)    S(metal)    S(lipo)     H(rot)  DE(clash)    DE(int)     intcor
     15.20     -17.47       1.45        0.00     102.65       1.90       0.33       1.95       ----

> <Gold.Chemscore.Fitness>
15.1996

> <Gold.Chemscore.DG>
-17.4734

> <Gold.Chemscore.ZeroCoef>
-5.4800

> <Gold.Chemscore.Hbond>
1.4500

> <Gold.Chemscore.Metal>
0.0000

> <Gold.Chemscore.Lipo>
102.6502

> <Gold.Chemscore.Internal_Hbond>
0.0000

> <Gold.Chemscore.DEClash>
0.3265

> <Gold.Chemscore.DEInternal>
1.9473

> <Gold.Chemscore.Rot>
1.8984

> <Gold.Chemscore.Internal.Correction>
   9.000000E+99

> <Gold.Chemscore.Hbonds>
donor molecule, donor type, donor heavy atom, donor atom, acceptor molecule, acceptor atom, score
      P1  H  6896  6907       L1    13  0.50
      P1  H  6931  6943       L1    14  0.22
      P1  H  6934  6947       L1    14  0.06

> <Gold.Chemscore.Hbond.Weighted>
-4.8431

> <Gold.Chemscore.Metal.Weighted>
-0.0000

> <Gold.Chemscore.Lipo.Weighted>
-12.0101

> <Gold.Chemscore.Internal_Hbond.Weighted>
0.0000

> <Gold.Chemscore.DEClash.Weighted>
0.3265

> <Gold.Chemscore.DEInternal.Weighted>
1.9473

> <Gold.Chemscore.Rot.Weighted>
4.8598

> <Gold.Chemscore.Internal.Correction.Weighted>
   9.000000E+99

> <Gold.Protein.RotatedTorsions>
[ 6907 6896 6895 6894 ] final  -56.85 input  -60.11 | X-H torsion
[ 7974 7965 7964 7962 ] final  -71.31 input  175.53 | X-H torsion
[ 8008 7997 7996 7995 ] final   49.51 input   59.86 | X-H torsion
[ 10167 10162 10161 10158 ] final -114.50 input  -65.29 | X-H torsion
[ 10718 10713 10712 10709 ] final -175.22 input   66.30 | X-H torsion
[ 10763 10752 10751 10750 ] final  -44.64 input  -60.55 | X-H torsion
[ 11005 11000 10999 10996 ] final  156.19 input  -57.11 | X-H torsion

> <Gold.Protein.ActiveResidues>
 VAL166  LYS551  ARG553  GLY616  TRP617  ASP618  TYR619  PRO620  LYS621  CYS622 
 ASP623  PHE694  ASN695  SER759  ASP760  ASP761  ALA762  ILE779  LEU786  VAL792 
 PHE793  MET794  SER795  GLU796  ALA797  LYS798  CYS799  TRP800  GLU811  SER814 

> <Gold.Protein.RotatedAtoms>
  150.8133  134.7301  159.6707 H   0  0  0  0  0  0  0  0  0  0  0  0  # atno 6907 bound_to 6896
  152.4253  134.5877  159.9975 H   0  0  0  0  0  0  0  0  0  0  0  0  # atno 6908 bound_to 6896
  151.6080  133.3312  159.3097 H   0  0  0  0  0  0  0  0  0  0  0  0  # atno 6909 bound_to 6896
  145.6797  140.9192  143.0839 H   0  0  0  0  0  0  0  0  0  0  0  0  # atno 7974 bound_to 7965
  155.4034  140.3439  155.4258 H   0  0  0  0  0  0  0  0  0  0  0  0  # atno 8008 bound_to 7997
  156.1490  140.1565  156.8832 H   0  0  0  0  0  0  0  0  0  0  0  0  # atno 8009 bound_to 7997
  154.5036  140.0808  156.7830 H   0  0  0  0  0  0  0  0  0  0  0  0  # atno 8010 bound_to 7997
  140.1003  143.4619  152.1816 H   0  0  0  0  0  0  0  0  0  0  0  0  # atno 10167 bound_to 10162
  156.7966  130.9537  151.3119 H   0  0  0  0  0  0  0  0  0  0  0  0  # atno 10718 bound_to 10713
  154.0155  135.6676  153.4768 H   0  0  0  0  0  0  0  0  0  0  0  0  # atno 10763 bound_to 10752
  153.0602  135.5032  154.8073 H   0  0  0  0  0  0  0  0  0  0  0  0  # atno 10764 bound_to 10752
  154.6970  135.3071  154.9362 H   0  0  0  0  0  0  0  0  0  0  0  0  # atno 10765 bound_to 10752
  140.1652  134.8582  157.2623 H   0  0  0  0  0  0  0  0  0  0  0  0  # atno 11005 bound_to 11000
  144.7030  139.8680  143.7438 LP  0  0  0  0  0  0  0  0  0  0  0  0  # atno 17320 bound_to 7965
  146.0975  139.3968  143.0367 LP  0  0  0  0  0  0  0  0  0  0  0  0  # atno 17321 bound_to 7965
  139.5675  144.7443  151.3982 LP  0  0  0  0  0  0  0  0  0  0  0  0  # atno 17342 bound_to 10162
  140.6981  143.7699  150.7359 LP  0  0  0  0  0  0  0  0  0  0  0  0  # atno 17343 bound_to 10162
  157.6574  130.8936  149.9758 LP  0  0  0  0  0  0  0  0  0  0  0  0  # atno 17370 bound_to 10713
  156.1126  130.3649  150.0022 LP  0  0  0  0  0  0  0  0  0  0  0  0  # atno 17371 bound_to 10713
  140.2443  134.3759  155.7468 LP  0  0  0  0  0  0  0  0  0  0  0  0  # atno 17394 bound_to 11000
  141.2213  133.7282  156.8837 LP  0  0  0  0  0  0  0  0  0  0  0  0  # atno 17395 bound_to 11000

$$$$
