AV-unprocessed.smi:33|AV-procd|sdf|211|dock4
  -GOLD-   2262015513D 1   1.00000     0.00000
 Structure written by MMmdl.
 67 72  0  0  0  0  0  0  0  0  1 V2000
  153.0436  139.9744  157.9417 O   0  0  0  0  0  0  0  0  0  0  0  0
  152.4607  140.9567  158.4053 C   0  0  0  0  0  0  0  0  0  0  0  0
  151.4762  141.6124  157.7600 O   0  0  0  0  0  0  0  0  0  0  0  0
  151.1715  141.2855  156.4140 C   0  0  0  0  0  0  0  0  0  0  0  0
  149.6478  141.3125  156.2102 C   0  0  2  0  0  0  0  0  0  0  0  0
  149.0824  140.1495  156.7976 O   0  0  0  0  0  0  0  0  0  0  0  0
  149.0520  139.1118  155.8651 C   0  0  1  0  0  0  0  0  0  0  0  0
  147.7398  138.4209  156.0256 N   0  0  0  0  0  0  0  0  0  0  0  0
  146.4801  138.8953  155.7290 C   0  0  0  0  0  0  0  0  0  0  0  0
  145.4993  138.0715  155.9842 N   0  0  0  0  0  0  0  0  0  0  0  0
  146.1318  136.9475  156.5000 C   0  0  0  0  0  0  0  0  0  0  0  0
  145.6779  135.6919  156.9851 C   0  0  0  0  0  0  0  0  0  0  0  0
  144.3697  135.3468  157.0190 N   0  0  0  0  0  0  0  0  0  0  0  0
  143.5929  135.5579  155.7886 C   0  0  0  0  0  0  0  0  0  0  0  0
  142.3714  135.7070  155.8589 O   0  0  0  0  0  0  0  0  0  0  0  0
  144.2811  135.6388  154.4553 C   0  0  0  0  0  0  0  0  0  0  0  0
  143.8238  136.5506  153.4788 C   0  0  0  0  0  0  0  0  0  0  0  0
  144.4554  136.6209  152.2219 C   0  0  0  0  0  0  0  0  0  0  0  0
  145.5355  135.7675  151.9269 C   0  0  0  0  0  0  0  0  0  0  0  0
  145.9780  134.8363  152.8856 C   0  0  0  0  0  0  0  0  0  0  0  0
  145.3475  134.7656  154.1427 C   0  0  0  0  0  0  0  0  0  0  0  0
  143.8517  134.7946  158.2795 C   0  0  0  0  0  0  0  0  0  0  0  0
  142.8554  134.0690  158.2603 O   0  0  0  0  0  0  0  0  0  0  0  0
  144.5571  135.0606  159.5793 C   0  0  0  0  0  0  0  0  0  0  0  0
  144.6337  134.0479  160.5606 C   0  0  0  0  0  0  0  0  0  0  0  0
  145.2818  134.2940  161.7865 C   0  0  0  0  0  0  0  0  0  0  0  0
  145.8404  135.5596  162.0467 C   0  0  0  0  0  0  0  0  0  0  0  0
  145.7431  136.5825  161.0843 C   0  0  0  0  0  0  0  0  0  0  0  0
  145.0959  136.3371  159.8578 C   0  0  0  0  0  0  0  0  0  0  0  0
  146.6061  134.8073  157.4334 N   0  0  0  0  0  0  0  0  0  0  0  0
  147.9019  135.1335  157.4047 C   0  0  0  0  0  0  0  0  0  0  0  0
  148.4699  136.2646  156.9785 N   0  0  0  0  0  0  0  0  0  0  0  0
  147.5377  137.1556  156.5316 C   0  0  0  0  0  0  0  0  0  0  0  0
  149.1625  139.7303  154.4600 C   0  0  2  0  0  0  0  0  0  0  0  0
  150.3361  139.3173  153.7894 O   0  0  0  0  0  0  0  0  0  0  0  0
  149.2144  141.2251  154.7461 C   0  0  1  0  0  0  0  0  0  0  0  0
  147.9917  141.7431  154.6182 F   0  0  0  0  0  0  0  0  0  0  0  0
  152.7732  141.5442  159.7401 C   0  0  0  0  0  0  0  0  0  0  0  0
  153.6698  140.8691  160.6009 C   0  0  0  0  0  0  0  0  0  0  0  0
  153.9828  141.3970  161.8685 C   0  0  0  0  0  0  0  0  0  0  0  0
  153.4015  142.6064  162.2916 C   0  0  0  0  0  0  0  0  0  0  0  0
  152.5077  143.2878  161.4449 C   0  0  0  0  0  0  0  0  0  0  0  0
  152.1949  142.7620  160.1761 C   0  0  0  0  0  0  0  0  0  0  0  0
  151.6681  141.9751  155.7303 H   0  0  0  0  0  0  0  0  0  0  0  0
  151.5532  140.2862  156.2009 H   0  0  0  0  0  0  0  0  0  0  0  0
  149.2356  142.1977  156.6966 H   0  0  0  0  0  0  0  0  0  0  0  0
  149.8157  138.3645  156.0845 H   0  0  0  0  0  0  0  0  0  0  0  0
  146.3108  139.8793  155.3167 H   0  0  0  0  0  0  0  0  0  0  0  0
  142.9959  137.2104  153.6943 H   0  0  0  0  0  0  0  0  0  0  0  0
  144.1094  137.3292  151.4837 H   0  0  0  0  0  0  0  0  0  0  0  0
  146.0197  135.8222  150.9630 H   0  0  0  0  0  0  0  0  0  0  0  0
  146.8004  134.1750  152.6567 H   0  0  0  0  0  0  0  0  0  0  0  0
  145.6925  134.0434  154.8686 H   0  0  0  0  0  0  0  0  0  0  0  0
  144.2090  133.0725  160.3712 H   0  0  0  0  0  0  0  0  0  0  0  0
  145.3493  133.5112  162.5274 H   0  0  0  0  0  0  0  0  0  0  0  0
  146.3373  135.7478  162.9870 H   0  0  0  0  0  0  0  0  0  0  0  0
  146.1638  137.5563  161.2869 H   0  0  0  0  0  0  0  0  0  0  0  0
  145.0230  137.1312  159.1286 H   0  0  0  0  0  0  0  0  0  0  0  0
  148.5808  134.3809  157.7774 H   0  0  0  0  0  0  0  0  0  0  0  0
  148.3031  139.4666  153.8409 H   0  0  0  0  0  0  0  0  0  0  0  0
  150.1114  139.1026  152.8967 H   0  0  0  0  0  0  0  0  0  0  0  0
  149.8603  141.7836  154.0669 H   0  0  0  0  0  0  0  0  0  0  0  0
  154.1286  139.9388  160.2983 H   0  0  0  0  0  0  0  0  0  0  0  0
  154.6694  140.8725  162.5164 H   0  0  0  0  0  0  0  0  0  0  0  0
  153.6405  143.0107  163.2641 H   0  0  0  0  0  0  0  0  0  0  0  0
  152.0603  144.2157  161.7692 H   0  0  0  0  0  0  0  0  0  0  0  0
  151.5036  143.3097  159.5522 H   0  0  0  0  0  0  0  0  0  0  0  0
  1  2  2  0  0  0  0
  2  3  1  0  0  0  0
  2 38  1  0  0  0  0
  3  4  1  0  0  0  0
  4  5  1  0  0  0  0
  4 44  1  0  0  0  0
  4 45  1  0  0  0  0
  5 36  1  0  0  0  0
  5  6  1  0  0  0  0
  5 46  1  0  0  0  0
  6  7  1  0  0  0  0
  7  8  1  0  0  0  0
  7 34  1  0  0  0  0
  7 47  1  0  0  0  0
  8 33  1  0  0  0  0
  8  9  1  0  0  0  0
  9 10  2  0  0  0  0
  9 48  1  0  0  0  0
 10 11  1  0  0  0  0
 11 33  2  0  0  0  0
 11 12  1  0  0  0  0
 12 13  1  0  0  0  0
 12 30  2  0  0  0  0
 13 14  1  0  0  0  0
 13 22  1  0  0  0  0
 14 15  2  0  0  0  0
 14 16  1  0  0  0  0
 16 21  1  0  0  0  0
 16 17  2  0  0  0  0
 17 18  1  0  0  0  0
 17 49  1  0  0  0  0
 18 19  2  0  0  0  0
 18 50  1  0  0  0  0
 19 20  1  0  0  0  0
 19 51  1  0  0  0  0
 20 21  2  0  0  0  0
 20 52  1  0  0  0  0
 21 53  1  0  0  0  0
 22 23  2  0  0  0  0
 22 24  1  0  0  0  0
 24 29  1  0  0  0  0
 24 25  2  0  0  0  0
 25 26  1  0  0  0  0
 25 54  1  0  0  0  0
 26 27  2  0  0  0  0
 26 55  1  0  0  0  0
 27 28  1  0  0  0  0
 27 56  1  0  0  0  0
 28 29  2  0  0  0  0
 28 57  1  0  0  0  0
 29 58  1  0  0  0  0
 30 31  1  0  0  0  0
 31 32  2  0  0  0  0
 31 59  1  0  0  0  0
 32 33  1  0  0  0  0
 34 35  1  0  0  0  0
 34 36  1  0  0  0  0
 34 60  1  0  0  0  0
 35 61  1  0  0  0  0
 36 37  1  0  0  0  0
 36 62  1  0  0  0  0
 38 43  1  0  0  0  0
 38 39  2  0  0  0  0
 39 40  1  0  0  0  0
 39 63  1  0  0  0  0
 40 41  2  0  0  0  0
 40 64  1  0  0  0  0
 41 42  1  0  0  0  0
 41 65  1  0  0  0  0
 42 43  2  0  0  0  0
 42 66  1  0  0  0  0
 43 67  1  0  0  0  0
M  END
> <s_m_source_file>
AV-unprocessed.smi

> <i_m_source_file_index>
33

> <i_lp_mmshare_version>
43012

> <i_f3d_flags>
0

> <s_epik_input>
W2NIXTFbY0hdW2NIXVtjSF1bY0hdYzFDKD1PKU9bQ0gyXVtDQEBIXTJPW0NASF0oW0NAQEhdKFtPSF0pW0NAQEhdMkYpbihbY0hdbjMpYyhjMzQpbltjSF1uYzROKEMoPU8pYzVbY0hdW2NIXVtjSF1bY0hdW2NIXTUpQyg9TyljNltjSF1bY0hdW2NIXVtjSF1bY0hdNg==

> <s_epik_cmdline>
J2VwaWtfcHl0aG9uJywgJy1waCcsICc3LjAnLCAnLXRuJywgJzgnLCAnLW1hJywgJzIwMCcsICctbWV0YWxfYmluZGluZycsICctaW1hZScsICc8aW5maWxlLm1hZT4nLCAnLW9tYWUnLCAnPG91dGZpbGUubWFlPic=

> <r_lp_tautomer_probability>
1

> <r_epik_Ionization_Penalty>
0.00067664

> <r_epik_Ionization_Penalty_Charging>
0

> <r_epik_Ionization_Penalty_Neutral>
0.00067664

> <r_epik_State_Penalty>
0.000428095

> <r_epik_Charging_Adjusted_Penalty>
0.000428095

> <i_epik_Tot_Q>
0

> <i_epik_Tot_abs_Q>
0

> <r_epik_Metal_State_Penalty>
-0

> <b_epik_Metal_Only>
0

> <s_epik_Chemistry_Notes>
This compound has an ester and may undergo hydrolysis at high or low pH. This compound contains an acetal/aminal-like group ( X-CH(R)-Y where X, Y are N, S, or O) that may be acid/base labile, releasing an aldehyde.

> <s_lp_Force_Field>
OPLS_2005

> <r_lp_Energy>
69.3236

> <b_lp_Chiralities_Consistent>
1

> <s_lp_Variant>
AV-unprocessed.smi:33-13

> <Gold.Version>
5.8.1

> <Gold.Id.Protein>
6NUR|6NUR_protein|mol2

> <Gold.PLP.Fitness>
63.1766

> <Gold.PLP.PLP>
-53.1463

> <Gold.PLP.part.hbond>
-5.0000

> <Gold.PLP.part.metal>
0.0000

> <Gold.PLP.part.buried>
-5.4447

> <Gold.PLP.part.nonpolar>
-40.8082

> <Gold.PLP.part.repulsive>
0.1447

> <Gold.PLP.ligand.clash>
0.0000

> <Gold.PLP.ligand.torsion>
3.1148

> <Gold.PLP.Chemscore.Hbond>
3.8080

> <Gold.PLP.Chemscore.CHOScore>
0.0000

> <Gold.PLP.Chemscore.Metal>
0.0000

> <Gold.Chemscore.Hbonds>
donor molecule, donor type, donor heavy atom, donor atom, acceptor molecule, acceptor atom, score
      L1  H    35    61       P1  7957  0.80
      P1  H  7989  7998       L1    35  0.99
      P1  H  7997  8008       L1     1  1.00
      P1  H 11000 11005       L1    23  1.00

> <Gold.PLP.Chemscore.Internal.Correction>
4.8358

> <Gold.Rescore>
     Score         DG    S(hbond)    S(metal)    S(lipo)     H(rot)  DE(clash)    DE(int)     intcor
     18.05     -24.27       3.10        0.00     127.29       2.52       0.11       6.11       ----

> <Gold.Chemscore.Fitness>
18.0547

> <Gold.Chemscore.DG>
-24.2681

> <Gold.Chemscore.ZeroCoef>
-5.4800

> <Gold.Chemscore.Hbond>
3.1014

> <Gold.Chemscore.Metal>
0.0000

> <Gold.Chemscore.Lipo>
127.2896

> <Gold.Chemscore.Internal_Hbond>
0.0000

> <Gold.Chemscore.DEClash>
0.1052

> <Gold.Chemscore.DEInternal>
6.1083

> <Gold.Chemscore.Rot>
2.5247

> <Gold.Chemscore.Internal.Correction>
   9.000000E+99

> <Gold.Chemscore.Hbonds>
donor molecule, donor type, donor heavy atom, donor atom, acceptor molecule, acceptor atom, score
      L1  H    35    61       P1  7957  0.62
      P1  H  7989  7998       L1    35  0.18
      P1  H  7997  8008       L1     1  0.98
      P1  H 11000 11005       L1    23  0.97

> <Gold.Chemscore.Hbond.Weighted>
-10.3585

> <Gold.Chemscore.Metal.Weighted>
-0.0000

> <Gold.Chemscore.Lipo.Weighted>
-14.8929

> <Gold.Chemscore.Internal_Hbond.Weighted>
0.0000

> <Gold.Chemscore.DEClash.Weighted>
0.1052

> <Gold.Chemscore.DEInternal.Weighted>
6.1083

> <Gold.Chemscore.Rot.Weighted>
6.4633

> <Gold.Chemscore.Internal.Correction.Weighted>
   9.000000E+99

> <Gold.Protein.RotatedTorsions>
[ 6907 6896 6895 6894 ] final  121.06 input  -60.11 | X-H torsion
[ 7974 7965 7964 7962 ] final  116.39 input  175.53 | X-H torsion
[ 8008 7997 7996 7995 ] final  -73.31 input   59.86 | X-H torsion
[ 10167 10162 10161 10158 ] final -169.24 input  -65.29 | X-H torsion
[ 10718 10713 10712 10709 ] final -104.16 input   66.30 | X-H torsion
[ 10763 10752 10751 10750 ] final    9.82 input  -60.55 | X-H torsion
[ 11005 11000 10999 10996 ] final -118.91 input  -57.11 | X-H torsion

> <Gold.Protein.ActiveResidues>
 VAL166  LYS551  ARG553  GLY616  TRP617  ASP618  TYR619  PRO620  LYS621  CYS622 
 ASP623  PHE694  ASN695  SER759  ASP760  ASP761  ALA762  ILE779  LEU786  VAL792 
 PHE793  MET794  SER795  GLU796  ALA797  LYS798  CYS799  TRP800  GLU811  SER814 

> <Gold.Protein.RotatedAtoms>
  152.4351  133.7346  159.6606 H   0  0  0  0  0  0  0  0  0  0  0  0  # atno 6907 bound_to 6896
  150.8234  133.8203  159.3135 H   0  0  0  0  0  0  0  0  0  0  0  0  # atno 6908 bound_to 6896
  151.5879  135.1057  160.0084 H   0  0  0  0  0  0  0  0  0  0  0  0  # atno 6909 bound_to 6896
  145.1802  139.3054  143.4422 H   0  0  0  0  0  0  0  0  0  0  0  0  # atno 7974 bound_to 7965
  154.5237  140.0781  156.8218 H   0  0  0  0  0  0  0  0  0  0  0  0  # atno 8008 bound_to 7997
  155.3522  140.3413  155.4221 H   0  0  0  0  0  0  0  0  0  0  0  0  # atno 8009 bound_to 7997
  156.1708  140.1619  156.8437 H   0  0  0  0  0  0  0  0  0  0  0  0  # atno 8010 bound_to 7997
  139.5935  144.1163  152.1662 H   0  0  0  0  0  0  0  0  0  0  0  0  # atno 10167 bound_to 10162
  156.0293  130.5502  150.7357 H   0  0  0  0  0  0  0  0  0  0  0  0  # atno 10718 bound_to 10713
  153.2099  135.6867  153.8127 H   0  0  0  0  0  0  0  0  0  0  0  0  # atno 10763 bound_to 10752
  153.7364  135.3245  155.3296 H   0  0  0  0  0  0  0  0  0  0  0  0  # atno 10764 bound_to 10752
  154.8216  135.4648  154.0901 H   0  0  0  0  0  0  0  0  0  0  0  0  # atno 10765 bound_to 10752
  141.0253  134.0063  157.3224 H   0  0  0  0  0  0  0  0  0  0  0  0  # atno 11005 bound_to 11000
  146.3454  140.1979  142.8589 LP  0  0  0  0  0  0  0  0  0  0  0  0  # atno 17320 bound_to 7965
  145.0144  140.8741  143.5205 LP  0  0  0  0  0  0  0  0  0  0  0  0  # atno 17321 bound_to 7965
  140.0742  144.5754  150.7169 LP  0  0  0  0  0  0  0  0  0  0  0  0  # atno 17342 bound_to 10162
  140.7192  143.2573  151.4333 LP  0  0  0  0  0  0  0  0  0  0  0  0  # atno 17343 bound_to 10162
  157.4938  131.0913  151.0395 LP  0  0  0  0  0  0  0  0  0  0  0  0  # atno 17370 bound_to 10713
  157.0795  130.5897  149.5417 LP  0  0  0  0  0  0  0  0  0  0  0  0  # atno 17371 bound_to 10713
  139.9172  135.0198  156.7926 LP  0  0  0  0  0  0  0  0  0  0  0  0  # atno 17394 bound_to 11000
  140.6502  133.9738  155.7751 LP  0  0  0  0  0  0  0  0  0  0  0  0  # atno 17395 bound_to 11000

$$$$
