AV-unprocessed.smi:1806|AV-procd|sdf|7300|dock3
  -GOLD-   22720 8553D 1   1.00000     0.00000
 Structure written by MMmdl.
 27 28  0  0  0  0  0  0  0  0  2 V2000
  152.9015  142.7210  161.2442 C   0  0  0  0  0  0  0  0  0  0  0  0
  152.3445  142.8987  159.8475 C   0  0  0  0  0  0  0  0  0  0  0  0
  152.5024  144.1171  159.1585 C   0  0  0  0  0  0  0  0  0  0  0  0
  151.9618  144.2186  157.8644 C   0  0  0  0  0  0  0  0  0  0  0  0
  151.2886  143.1081  157.3204 C   0  0  0  0  0  0  0  0  0  0  0  0
  151.1651  141.9229  158.0826 C   0  0  0  0  0  0  0  0  0  0  0  0
  150.5370  140.8543  157.5692 N   0  5  0  0  0  0  0  0  0  0  0  0
  150.3778  140.7181  156.2271 C   0  0  0  0  0  0  0  0  0  0  0  0
  151.2343  140.2476  155.4725 O   0  0  0  0  0  0  0  0  0  0  0  0
  149.0936  141.1697  155.6973 C   0  0  0  0  0  0  0  0  0  0  0  0
  148.8542  141.1235  154.3649 C   0  0  0  0  0  0  0  0  0  0  0  0
  147.6902  141.5589  153.7819 O   0  0  0  0  0  0  0  0  0  0  0  0
  146.8337  142.2970  154.6450 C   0  0  0  0  0  0  0  0  0  0  0  0
  146.8046  141.6615  156.0421 C   0  0  0  0  0  0  0  0  0  0  0  0
  148.1211  141.5931  156.5769 O   0  0  0  0  0  0  0  0  0  0  0  0
  151.6978  141.8338  159.3250 N   0  0  0  0  0  0  0  0  0  0  0  0
  153.7285  143.4083  161.4243 H   0  0  0  0  0  0  0  0  0  0  0  0
  153.2696  141.7044  161.3890 H   0  0  0  0  0  0  0  0  0  0  0  0
  152.1257  142.9150  161.9850 H   0  0  0  0  0  0  0  0  0  0  0  0
  153.0233  144.9503  159.6065 H   0  0  0  0  0  0  0  0  0  0  0  0
  152.0615  145.1318  157.2967 H   0  0  0  0  0  0  0  0  0  0  0  0
  150.8674  143.1670  156.3274 H   0  0  0  0  0  0  0  0  0  0  0  0
  149.5604  140.7797  153.6228 H   0  0  0  0  0  0  0  0  0  0  0  0
  147.1846  143.3282  154.7037 H   0  0  0  0  0  0  0  0  0  0  0  0
  145.8316  142.3226  154.2167 H   0  0  0  0  0  0  0  0  0  0  0  0
  146.1760  142.2454  156.7146 H   0  0  0  0  0  0  0  0  0  0  0  0
  146.3817  140.6569  155.9972 H   0  0  0  0  0  0  0  0  0  0  0  0
  1  2  1  0  0  0  0
  1 17  1  0  0  0  0
  1 18  1  0  0  0  0
  1 19  1  0  0  0  0
  2 16  1  0  0  0  0
  2  3  2  0  0  0  0
  3  4  1  0  0  0  0
  3 20  1  0  0  0  0
  4  5  2  0  0  0  0
  4 21  1  0  0  0  0
  5  6  1  0  0  0  0
  5 22  1  0  0  0  0
  6  7  1  0  0  0  0
  6 16  2  0  0  0  0
  7  8  1  0  0  0  0
  8  9  2  0  0  0  0
  8 10  1  0  0  0  0
 10 15  1  0  0  0  0
 10 11  2  0  0  0  0
 11 12  1  0  0  0  0
 11 23  1  0  0  0  0
 12 13  1  0  0  0  0
 13 14  1  0  0  0  0
 13 24  1  0  0  0  0
 13 25  1  0  0  0  0
 14 15  1  0  0  0  0
 14 26  1  0  0  0  0
 14 27  1  0  0  0  0
M  CHG  1   7  -1
M  END
> <s_m_source_file>
AV-unprocessed.smi

> <i_m_source_file_index>
1806

> <i_lp_mmshare_version>
43012

> <i_f3d_flags>
0

> <s_epik_input>
W0NIM11jMVtjSF1bY0hdW2NIXWMobjEpW05IXUMoPU8pQzI9W0NIXU9bQ0gyXVtDSDJdTzI=

> <s_epik_cmdline>
J2VwaWtfcHl0aG9uJywgJy1waCcsICc3LjAnLCAnLXRuJywgJzgnLCAnLW1hJywgJzIwMCcsICctbWV0YWxfYmluZGluZycsICctaW1hZScsICc8aW5maWxlLm1hZT4nLCAnLW9tYWUnLCAnPG91dGZpbGUubWFlPic=

> <r_lp_tautomer_probability>
1

> <r_epik_Ionization_Penalty>
11.2807

> <r_epik_Ionization_Penalty_Charging>
5.82682

> <r_epik_Ionization_Penalty_Neutral>
5.45386

> <r_epik_State_Penalty>
5.82679

> <r_epik_Charging_Adjusted_Penalty>
11.6536

> <i_epik_Tot_Q>
-1

> <i_epik_Tot_abs_Q>
1

> <r_epik_Metal_State_Penalty>
1.79445

> <b_epik_Metal_Only>
1

> <s_lp_Force_Field>
OPLS_2005

> <r_lp_Energy>
4.64637

> <b_lp_Chiralities_Consistent>
1

> <s_lp_Variant>
AV-unprocessed.smi:1806-2

> <Gold.Version>
5.8.1

> <Gold.Id.Protein>
6NUR|6NUR_protein|mol2

> <Gold.PLP.Fitness>
39.7123

> <Gold.PLP.PLP>
-35.3672

> <Gold.PLP.part.hbond>
-1.0000

> <Gold.PLP.part.metal>
0.0000

> <Gold.PLP.part.buried>
-4.4846

> <Gold.PLP.part.nonpolar>
-30.3520

> <Gold.PLP.part.repulsive>
0.3283

> <Gold.PLP.ligand.clash>
0.0000

> <Gold.PLP.ligand.torsion>
0.8471

> <Gold.PLP.Chemscore.Hbond>
0.9600

> <Gold.PLP.Chemscore.CHOScore>
1.0000

> <Gold.PLP.Chemscore.Metal>
0.0000

> <Gold.Chemscore.Hbonds>
donor molecule, donor type, donor heavy atom, donor atom, acceptor molecule, acceptor atom, score
      P1  H  7989  7998       L1     9  0.81
      L1  C    11    23       P1  7957  0.91

> <Gold.PLP.Chemscore.Internal.Correction>
0.1594

> <Gold.Rescore>
     Score         DG    S(hbond)    S(metal)    S(lipo)     H(rot)  DE(clash)    DE(int)     intcor
     17.60     -18.47       0.93        0.00      84.36       0.00       0.09       0.78       ----

> <Gold.Chemscore.Fitness>
17.5984

> <Gold.Chemscore.DG>
-18.4687

> <Gold.Chemscore.ZeroCoef>
-5.4800

> <Gold.Chemscore.Hbond>
0.9337

> <Gold.Chemscore.Metal>
0.0000

> <Gold.Chemscore.Lipo>
84.3594

> <Gold.Chemscore.Internal_Hbond>
0.0000

> <Gold.Chemscore.DEClash>
0.0917

> <Gold.Chemscore.DEInternal>
0.7786

> <Gold.Chemscore.Rot>
0.0000

> <Gold.Chemscore.Internal.Correction>
   9.000000E+99

> <Gold.Chemscore.Hbonds>
donor molecule, donor type, donor heavy atom, donor atom, acceptor molecule, acceptor atom, score
      P1  H  7989  7998       L1     9  0.76

> <Gold.Chemscore.Hbond.Weighted>
-3.1186

> <Gold.Chemscore.Metal.Weighted>
-0.0000

> <Gold.Chemscore.Lipo.Weighted>
-9.8701

> <Gold.Chemscore.Internal_Hbond.Weighted>
0.0000

> <Gold.Chemscore.DEClash.Weighted>
0.0917

> <Gold.Chemscore.DEInternal.Weighted>
0.7786

> <Gold.Chemscore.Rot.Weighted>
0.0000

> <Gold.Chemscore.Internal.Correction.Weighted>
   9.000000E+99

> <Gold.Protein.RotatedTorsions>
[ 6907 6896 6895 6894 ] final  -73.56 input  -60.11 | X-H torsion
[ 7974 7965 7964 7962 ] final  -41.29 input  175.53 | X-H torsion
[ 8008 7997 7996 7995 ] final   86.21 input   59.86 | X-H torsion
[ 10167 10162 10161 10158 ] final  -35.16 input  -65.29 | X-H torsion
[ 10718 10713 10712 10709 ] final   50.71 input   66.30 | X-H torsion
[ 10763 10752 10751 10750 ] final  161.81 input  -60.55 | X-H torsion
[ 11005 11000 10999 10996 ] final  143.79 input  -57.11 | X-H torsion

> <Gold.Protein.ActiveResidues>
 VAL166  LYS551  ARG553  GLY616  TRP617  ASP618  TYR619  PRO620  LYS621  CYS622 
 ASP623  PHE694  ASN695  SER759  ASP760  ASP761  ALA762  ILE779  LEU786  VAL792 
 PHE793  MET794  SER795  GLU796  ALA797  LYS798  CYS799  TRP800  GLU811  SER814 

> <Gold.Protein.RotatedAtoms>
  150.7125  134.4998  159.5555 H   0  0  0  0  0  0  0  0  0  0  0  0  # atno 6907 bound_to 6896
  152.2598  134.8043  160.0441 H   0  0  0  0  0  0  0  0  0  0  0  0  # atno 6908 bound_to 6896
  151.8761  133.3450  159.3787 H   0  0  0  0  0  0  0  0  0  0  0  0  # atno 6909 bound_to 6896
  146.0225  140.6832  142.9171 H   0  0  0  0  0  0  0  0  0  0  0  0  # atno 7974 bound_to 7965
  155.9599  140.3394  155.6481 H   0  0  0  0  0  0  0  0  0  0  0  0  # atno 8008 bound_to 7997
  155.6812  140.0738  157.2502 H   0  0  0  0  0  0  0  0  0  0  0  0  # atno 8009 bound_to 7997
  154.4140  140.1674  156.1972 H   0  0  0  0  0  0  0  0  0  0  0  0  # atno 8010 bound_to 7997
  140.7171  143.3497  151.2182 H   0  0  0  0  0  0  0  0  0  0  0  0  # atno 10167 bound_to 10162
  157.4910  130.8376  149.8203 H   0  0  0  0  0  0  0  0  0  0  0  0  # atno 10718 bound_to 10713
  154.2687  135.2766  155.2747 H   0  0  0  0  0  0  0  0  0  0  0  0  # atno 10763 bound_to 10752
  154.5321  135.5727  153.6771 H   0  0  0  0  0  0  0  0  0  0  0  0  # atno 10764 bound_to 10752
  152.9949  135.6230  154.2840 H   0  0  0  0  0  0  0  0  0  0  0  0  # atno 10765 bound_to 10752
  140.0581  134.9219  157.1136 H   0  0  0  0  0  0  0  0  0  0  0  0  # atno 11005 bound_to 11000
  144.6996  140.3591  143.7167 LP  0  0  0  0  0  0  0  0  0  0  0  0  # atno 17320 bound_to 7965
  145.7170  139.1699  143.2506 LP  0  0  0  0  0  0  0  0  0  0  0  0  # atno 17321 bound_to 7965
  139.7024  143.9510  152.2911 LP  0  0  0  0  0  0  0  0  0  0  0  0  # atno 17342 bound_to 10162
  139.9208  144.6801  150.8463 LP  0  0  0  0  0  0  0  0  0  0  0  0  # atno 17343 bound_to 10162
  156.0174  130.3808  150.2069 LP  0  0  0  0  0  0  0  0  0  0  0  0  # atno 17370 bound_to 10713
  157.0257  130.9992  151.3327 LP  0  0  0  0  0  0  0  0  0  0  0  0  # atno 17371 bound_to 10713
  140.3812  134.2285  155.7171 LP  0  0  0  0  0  0  0  0  0  0  0  0  # atno 17394 bound_to 11000
  141.1961  133.8090  157.0686 LP  0  0  0  0  0  0  0  0  0  0  0  0  # atno 17395 bound_to 11000

$$$$
