AV-unprocessed.smi:16|AV-procd|sdf|89|dock6
  -GOLD-   2262015233D 1   1.00000     0.00000
 Structure written by MMmdl.
 60 64  0  0  0  0  0  0  0  0  2 V2000
  149.2948  134.8228  155.2771 C   0  0  0  0  0  0  0  0  0  0  0  0
  147.8695  135.3665  155.0995 C   0  0  0  0  0  0  0  0  0  0  0  0
  147.8365  136.6645  154.3785 N   0  3  1  0  0  0  0  0  0  0  0  0
  146.4596  137.0321  153.9558 C   0  0  0  0  0  0  0  0  0  0  0  0
  146.4570  138.3147  153.1087 C   0  0  0  0  0  0  0  0  0  0  0  0
  147.1151  139.4649  153.8777 C   0  0  2  0  0  0  0  0  0  0  0  0
  147.1552  140.6277  153.0583 O   0  0  0  0  0  0  0  0  0  0  0  0
  147.7029  141.7426  153.7544 C   0  0  0  0  0  0  0  0  0  0  0  0
  149.1455  141.4215  154.1762 C   0  0  0  0  0  0  0  0  0  0  0  0
  149.1839  140.1950  154.9696 N   0  0  0  0  0  0  0  0  0  0  0  0
  150.4103  139.9329  155.4764 C   0  0  0  0  0  0  0  0  0  0  0  0
  151.3591  139.3445  154.7011 N   0  0  0  0  0  0  0  0  0  0  0  0
  152.5609  139.0663  155.2154 C   0  0  0  0  0  0  0  0  0  0  0  0
  153.0063  139.2752  156.4566 N   0  0  0  0  0  0  0  0  0  0  0  0
  152.0489  139.8525  157.2384 C   0  0  0  0  0  0  0  0  0  0  0  0
  150.7371  140.2171  156.8277 C   0  0  0  0  0  0  0  0  0  0  0  0
  150.0435  140.7863  157.8874 N   0  0  0  0  0  0  0  0  0  0  0  0
  150.9029  140.7689  158.8703 C   0  0  0  0  0  0  0  0  0  0  0  0
  152.1211  140.1971  158.5764 N   0  0  0  0  0  0  0  0  0  0  0  0
  153.2495  140.0800  159.4525 C   0  0  0  0  0  0  0  0  0  0  0  0
  154.3968  141.0939  159.4022 C   0  0  0  0  0  0  0  0  0  0  0  0
  155.3871  139.9734  159.7927 C   0  0  0  0  0  0  0  0  0  0  0  0
  156.7608  139.9932  159.0937 C   0  0  0  0  0  0  0  0  0  0  0  0
  156.7846  139.2083  157.9180 O   0  0  0  0  0  0  0  0  0  0  0  0
  155.6482  139.8664  161.3073 C   0  0  0  0  0  0  0  0  0  0  0  0
  156.3977  140.9657  161.7838 O   0  0  0  0  0  0  0  0  0  0  0  0
  154.3189  139.0054  159.2325 C   0  0  0  0  0  0  0  0  0  0  0  0
  148.5496  139.0662  154.2832 C   0  0  1  0  0  0  0  0  0  0  0  0
  148.4990  137.7679  155.1257 C   0  0  0  0  0  0  0  0  0  0  0  0
  146.5195  139.6778  154.7681 H   0  0  0  0  0  0  0  0  0  0  0  0
  149.1242  138.8652  153.3770 H   0  0  0  0  0  0  0  0  0  0  0  0
  149.2700  133.8237  155.7131 H   0  0  0  0  0  0  0  0  0  0  0  0
  149.8940  135.4457  155.9404 H   0  0  0  0  0  0  0  0  0  0  0  0
  149.8124  134.7518  154.3201 H   0  0  0  0  0  0  0  0  0  0  0  0
  147.3042  134.6275  154.5300 H   0  0  0  0  0  0  0  0  0  0  0  0
  147.3697  135.4602  156.0647 H   0  0  0  0  0  0  0  0  0  0  0  0
  146.0231  136.2199  153.3734 H   0  0  0  0  0  0  0  0  0  0  0  0
  145.8311  137.1634  154.8381 H   0  0  0  0  0  0  0  0  0  0  0  0
  146.9896  138.1405  152.1726 H   0  0  0  0  0  0  0  0  0  0  0  0
  145.4343  138.5818  152.8401 H   0  0  0  0  0  0  0  0  0  0  0  0
  147.6878  142.6138  153.0996 H   0  0  0  0  0  0  0  0  0  0  0  0
  147.0875  141.9850  154.6223 H   0  0  0  0  0  0  0  0  0  0  0  0
  149.7655  141.3089  153.2856 H   0  0  0  0  0  0  0  0  0  0  0  0
  149.5575  142.2499  154.7540 H   0  0  0  0  0  0  0  0  0  0  0  0
  153.2657  138.6066  154.5382 H   0  0  0  0  0  0  0  0  0  0  0  0
  150.6659  141.1685  159.8458 H   0  0  0  0  0  0  0  0  0  0  0  0
  152.8387  140.0125  160.4613 H   0  0  0  0  0  0  0  0  0  0  0  0
  154.5507  141.4910  158.3975 H   0  0  0  0  0  0  0  0  0  0  0  0
  154.3113  141.9039  160.1274 H   0  0  0  0  0  0  0  0  0  0  0  0
  157.0419  141.0109  158.8215 H   0  0  0  0  0  0  0  0  0  0  0  0
  157.5425  139.6167  159.7539 H   0  0  0  0  0  0  0  0  0  0  0  0
  156.9280  138.3068  158.1626 H   0  0  0  0  0  0  0  0  0  0  0  0
  154.7121  139.8128  161.8643 H   0  0  0  0  0  0  0  0  0  0  0  0
  156.1990  138.9581  161.5526 H   0  0  0  0  0  0  0  0  0  0  0  0
  156.4849  140.8862  162.7215 H   0  0  0  0  0  0  0  0  0  0  0  0
  154.1670  138.0964  159.8155 H   0  0  0  0  0  0  0  0  0  0  0  0
  154.4584  138.7683  158.1766 H   0  0  0  0  0  0  0  0  0  0  0  0
  147.9726  137.9438  156.0654 H   0  0  0  0  0  0  0  0  0  0  0  0
  149.5109  137.4588  155.3830 H   0  0  0  0  0  0  0  0  0  0  0  0
  148.3643  136.5303  153.5277 H   0  0  0  0  0  0  0  0  0  0  0  0
  1  2  1  0  0  0  0
  1 32  1  0  0  0  0
  1 33  1  0  0  0  0
  1 34  1  0  0  0  0
  2  3  1  0  0  0  0
  2 35  1  0  0  0  0
  2 36  1  0  0  0  0
  3 29  1  0  0  0  0
  3  4  1  0  0  0  0
  3 60  1  0  0  0  0
  4  5  1  0  0  0  0
  4 37  1  0  0  0  0
  4 38  1  0  0  0  0
  5  6  1  0  0  0  0
  5 39  1  0  0  0  0
  5 40  1  0  0  0  0
  6 30  1  0  0  0  0
  6 28  1  0  0  0  0
  6  7  1  0  0  0  0
  7  8  1  0  0  0  0
  8  9  1  0  0  0  0
  8 41  1  0  0  0  0
  8 42  1  0  0  0  0
  9 10  1  0  0  0  0
  9 43  1  0  0  0  0
  9 44  1  0  0  0  0
 10 11  1  0  0  0  0
 10 28  1  0  0  0  0
 11 16  1  0  0  0  0
 11 12  2  0  0  0  0
 12 13  1  0  0  0  0
 13 14  2  0  0  0  0
 13 45  1  0  0  0  0
 14 15  1  0  0  0  0
 15 19  1  0  0  0  0
 15 16  2  0  0  0  0
 16 17  1  0  0  0  0
 17 18  2  0  0  0  0
 18 19  1  0  0  0  0
 18 46  1  0  0  0  0
 19 20  1  0  0  0  0
 20 27  1  0  0  0  0
 20 21  1  0  0  0  0
 20 47  1  0  0  0  0
 21 22  1  0  0  0  0
 21 48  1  0  0  0  0
 21 49  1  0  0  0  0
 22 23  1  0  0  0  0
 22 25  1  0  0  0  0
 22 27  1  0  0  0  0
 23 24  1  0  0  0  0
 23 50  1  0  0  0  0
 23 51  1  0  0  0  0
 24 52  1  0  0  0  0
 25 26  1  0  0  0  0
 25 53  1  0  0  0  0
 25 54  1  0  0  0  0
 26 55  1  0  0  0  0
 27 56  1  0  0  0  0
 27 57  1  0  0  0  0
 28 31  1  0  0  0  0
 28 29  1  0  0  0  0
 29 58  1  0  0  0  0
 29 59  1  0  0  0  0
M  CHG  1   3   1
M  END
> <s_m_source_file>
AV-unprocessed.smi

> <i_m_source_file_index>
16

> <i_lp_mmshare_version>
43012

> <i_f3d_flags>
0

> <s_epik_input>
W0NIM11bQ0gyXU4oW0NIMl1bQ0gyXTEpW0NIMl1bQ0BASF0oW0NAQEhdMTIpTihbQ0gyXVtDSDJdTzIpYyhuW2NIXW4zKWMoYzM0KW5bY0hdbjRbQ0hdKFtDSDJdNSlbQ0gyXUM1KFtDSDJdW09IXSlbQ0gyXVtPSF0=

> <s_epik_cmdline>
J2VwaWtfcHl0aG9uJywgJy1waCcsICc3LjAnLCAnLXRuJywgJzgnLCAnLW1hJywgJzIwMCcsICctbWV0YWxfYmluZGluZycsICctaW1hZScsICc8aW5maWxlLm1hZT4nLCAnLW9tYWUnLCAnPG91dGZpbGUubWFlPic=

> <r_lp_tautomer_probability>
1

> <r_epik_Ionization_Penalty>
0.0135603

> <r_epik_Ionization_Penalty_Charging>
0.0131385

> <r_epik_Ionization_Penalty_Neutral>
0.000421734

> <r_epik_State_Penalty>
0.0102091

> <r_epik_Charging_Adjusted_Penalty>
0.0233476

> <i_epik_Tot_Q>
1

> <i_epik_Tot_abs_Q>
1

> <r_epik_Metal_State_Penalty>
0.0103746

> <b_epik_Metal_Only>
0

> <s_lp_Force_Field>
OPLS_2005

> <r_lp_Energy>
54.8635

> <b_lp_Chiralities_Consistent>
1

> <s_lp_Variant>
AV-unprocessed.smi:16-3

> <Gold.Version>
5.8.1

> <Gold.Id.Protein>
6NUR|6NUR_protein|mol2

> <Gold.PLP.Fitness>
49.6364

> <Gold.PLP.PLP>
-37.9809

> <Gold.PLP.part.hbond>
-4.7031

> <Gold.PLP.part.metal>
0.0000

> <Gold.PLP.part.buried>
-2.4807

> <Gold.PLP.part.nonpolar>
-30.4123

> <Gold.PLP.part.repulsive>
0.3420

> <Gold.PLP.ligand.clash>
0.0000

> <Gold.PLP.ligand.torsion>
1.9752

> <Gold.PLP.Chemscore.Hbond>
5.0000

> <Gold.PLP.Chemscore.CHOScore>
0.0000

> <Gold.PLP.Chemscore.Metal>
0.0000

> <Gold.Chemscore.Hbonds>
donor molecule, donor type, donor heavy atom, donor atom, acceptor molecule, acceptor atom, score
      L1  H     3    60       P1  7948  2.00
      P1  H  7989  7998       L1    12  0.85
      P1  H  7997  8008       L1    14  1.00
      P1  H  7997  8010       L1    24  0.78

> <Gold.PLP.Chemscore.Internal.Correction>
0.6059

> <Gold.Rescore>
     Score         DG    S(hbond)    S(metal)    S(lipo)     H(rot)  DE(clash)    DE(int)     intcor
     14.14     -17.01       3.05        0.00      84.13       3.33       0.41       2.46       ----

> <Gold.Chemscore.Fitness>
14.1431

> <Gold.Chemscore.DG>
-17.0104

> <Gold.Chemscore.ZeroCoef>
-5.4800

> <Gold.Chemscore.Hbond>
3.0535

> <Gold.Chemscore.Metal>
0.0000

> <Gold.Chemscore.Lipo>
84.1344

> <Gold.Chemscore.Internal_Hbond>
0.0000

> <Gold.Chemscore.DEClash>
0.4095

> <Gold.Chemscore.DEInternal>
2.4578

> <Gold.Chemscore.Rot>
3.3251

> <Gold.Chemscore.Internal.Correction>
   9.000000E+99

> <Gold.Chemscore.Hbonds>
donor molecule, donor type, donor heavy atom, donor atom, acceptor molecule, acceptor atom, score
      L1  H     3    60       P1  7948  1.00
      P1  H  7989  7998       L1    12  0.07
      P1  H  7997  8008       L1    14  0.62
      P1  H  7997  8010       L1    24  0.23

> <Gold.Chemscore.Hbond.Weighted>
-10.1988

> <Gold.Chemscore.Metal.Weighted>
-0.0000

> <Gold.Chemscore.Lipo.Weighted>
-9.8437

> <Gold.Chemscore.Internal_Hbond.Weighted>
0.0000

> <Gold.Chemscore.DEClash.Weighted>
0.4095

> <Gold.Chemscore.DEInternal.Weighted>
2.4578

> <Gold.Chemscore.Rot.Weighted>
8.5122

> <Gold.Chemscore.Internal.Correction.Weighted>
   9.000000E+99

> <Gold.Protein.RotatedTorsions>
[ 6907 6896 6895 6894 ] final -149.41 input  -60.11 | X-H torsion
[ 7974 7965 7964 7962 ] final   -5.97 input  175.53 | X-H torsion
[ 8008 7997 7996 7995 ] final  -66.30 input   59.86 | X-H torsion
[ 10167 10162 10161 10158 ] final  119.08 input  -65.29 | X-H torsion
[ 10718 10713 10712 10709 ] final    8.53 input   66.30 | X-H torsion
[ 10763 10752 10751 10750 ] final  168.69 input  -60.55 | X-H torsion
[ 11005 11000 10999 10996 ] final  -81.33 input  -57.11 | X-H torsion

> <Gold.Protein.ActiveResidues>
 VAL166  LYS551  ARG553  GLY616  TRP617  ASP618  TYR619  PRO620  LYS621  CYS622 
 ASP623  PHE694  ASN695  SER759  ASP760  ASP761  ALA762  ILE779  LEU786  VAL792 
 PHE793  MET794  SER795  GLU796  ALA797  LYS798  CYS799  TRP800  GLU811  SER814 

> <Gold.Protein.RotatedAtoms>
  151.1838  133.4709  159.2594 H   0  0  0  0  0  0  0  0  0  0  0  0  # atno 6907 bound_to 6896
  151.1233  135.0091  159.8558 H   0  0  0  0  0  0  0  0  0  0  0  0  # atno 6908 bound_to 6896
  152.5457  134.1747  159.8664 H   0  0  0  0  0  0  0  0  0  0  0  0  # atno 6909 bound_to 6896
  146.2341  140.2100  142.8335 H   0  0  0  0  0  0  0  0  0  0  0  0  # atno 7974 bound_to 7965
  154.4726  140.0915  156.7182 H   0  0  0  0  0  0  0  0  0  0  0  0  # atno 8008 bound_to 7997
  155.4684  140.3463  155.4304 H   0  0  0  0  0  0  0  0  0  0  0  0  # atno 8009 bound_to 7997
  156.1063  140.1436  156.9387 H   0  0  0  0  0  0  0  0  0  0  0  0  # atno 8010 bound_to 7997
  139.6069  144.7072  151.2932 H   0  0  0  0  0  0  0  0  0  0  0  0  # atno 10167 bound_to 10162
  156.9529  130.5904  149.5657 H   0  0  0  0  0  0  0  0  0  0  0  0  # atno 10718 bound_to 10713
  154.3722  135.2753  155.2260 H   0  0  0  0  0  0  0  0  0  0  0  0  # atno 10763 bound_to 10752
  154.4402  135.5956  153.6128 H   0  0  0  0  0  0  0  0  0  0  0  0  # atno 10764 bound_to 10752
  152.9838  135.6017  154.3955 H   0  0  0  0  0  0  0  0  0  0  0  0  # atno 10765 bound_to 10752
  141.1666  133.7191  156.8406 H   0  0  0  0  0  0  0  0  0  0  0  0  # atno 11005 bound_to 11000
  144.9714  140.8372  143.5453 LP  0  0  0  0  0  0  0  0  0  0  0  0  # atno 17320 bound_to 7965
  145.2082  139.2218  143.5157 LP  0  0  0  0  0  0  0  0  0  0  0  0  # atno 17321 bound_to 7965
  140.7291  143.6916  150.7918 LP  0  0  0  0  0  0  0  0  0  0  0  0  # atno 17342 bound_to 10162
  140.0503  143.5256  152.2677 LP  0  0  0  0  0  0  0  0  0  0  0  0  # atno 17343 bound_to 10162
  156.0355  130.5443  150.8642 LP  0  0  0  0  0  0  0  0  0  0  0  0  # atno 17370 bound_to 10713
  157.5710  131.0946  150.9418 LP  0  0  0  0  0  0  0  0  0  0  0  0  # atno 17371 bound_to 10713
  140.1986  134.8913  157.3143 LP  0  0  0  0  0  0  0  0  0  0  0  0  # atno 17394 bound_to 11000
  140.2212  134.4021  155.7565 LP  0  0  0  0  0  0  0  0  0  0  0  0  # atno 17395 bound_to 11000

$$$$
