AV-unprocessed.smi:2406|AV-procd|sdf|9516|dock3
  -GOLD-   2272013143D 1   1.00000     0.00000
 Structure written by MMmdl.
 36 37  0  0  0  0  0  0  0  0  1 V2000
  150.7771  138.2357  154.1808 C   0  0  0  0  0  0  0  0  0  0  0  0
  150.6842  139.6293  154.4539 O   0  0  0  0  0  0  0  0  0  0  0  0
  149.4362  140.2164  154.4266 C   0  0  0  0  0  0  0  0  0  0  0  0
  148.3503  139.5057  153.8756 C   0  0  0  0  0  0  0  0  0  0  0  0
  147.0881  140.1408  153.8721 C   0  0  0  0  0  0  0  0  0  0  0  0
  146.0205  139.3871  153.3167 N   0  0  0  0  0  0  0  0  0  0  0  0
  145.9003  138.0501  153.2409 C   0  0  0  0  0  0  0  0  0  0  0  0
  146.7147  137.2373  153.6795 O   0  0  0  0  0  0  0  0  0  0  0  0
  144.7611  137.7017  152.6228 N   0  0  0  0  0  0  0  0  0  0  0  0
  144.3149  136.3352  152.3536 C   0  0  2  0  0  0  0  0  0  0  0  0
  144.0019  135.6392  153.6852 C   0  0  0  0  0  0  0  0  0  0  0  0
  145.3725  135.5572  151.5453 C   0  0  0  0  0  0  0  0  0  0  0  0
  144.8286  134.3096  150.8713 C   0  0  0  0  0  0  0  0  0  0  0  0
  144.5658  133.0517  151.6636 C   0  0  0  0  0  0  0  0  0  0  0  0
  145.7026  133.0951  150.6684 C   0  0  0  0  0  0  0  0  0  0  0  0
  146.9581  141.3901  154.3834 N   0  0  0  0  0  0  0  0  0  0  0  0
  148.0476  141.9788  154.8803 C   0  0  0  0  0  0  0  0  0  0  0  0
  149.2764  141.4636  154.9317 N   0  0  0  0  0  0  0  0  0  0  0  0
  151.8205  137.9258  154.2369 H   0  0  0  0  0  0  0  0  0  0  0  0
  150.4158  138.0018  153.1784 H   0  0  0  0  0  0  0  0  0  0  0  0
  150.2177  137.6471  154.9093 H   0  0  0  0  0  0  0  0  0  0  0  0
  148.4856  138.5111  153.4760 H   0  0  0  0  0  0  0  0  0  0  0  0
  145.2673  139.9288  152.9197 H   0  0  0  0  0  0  0  0  0  0  0  0
  144.1543  138.4420  152.3023 H   0  0  0  0  0  0  0  0  0  0  0  0
  143.3898  136.3522  151.7746 H   0  0  0  0  0  0  0  0  0  0  0  0
  143.6426  134.6230  153.5211 H   0  0  0  0  0  0  0  0  0  0  0  0
  143.2285  136.1752  154.2362 H   0  0  0  0  0  0  0  0  0  0  0  0
  144.8857  135.5807  154.3214 H   0  0  0  0  0  0  0  0  0  0  0  0
  145.8104  136.1995  150.7804 H   0  0  0  0  0  0  0  0  0  0  0  0
  146.1898  135.2667  152.2068 H   0  0  0  0  0  0  0  0  0  0  0  0
  144.1245  134.5165  150.0676 H   0  0  0  0  0  0  0  0  0  0  0  0
  144.8227  133.0564  152.7213 H   0  0  0  0  0  0  0  0  0  0  0  0
  143.6844  132.4706  151.4002 H   0  0  0  0  0  0  0  0  0  0  0  0
  145.5811  132.5379  149.7417 H   0  0  0  0  0  0  0  0  0  0  0  0
  146.7152  133.1238  151.0657 H   0  0  0  0  0  0  0  0  0  0  0  0
  147.9211  142.9726  155.2832 H   0  0  0  0  0  0  0  0  0  0  0  0
  1  2  1  0  0  0  0
  1 19  1  0  0  0  0
  1 20  1  0  0  0  0
  1 21  1  0  0  0  0
  2  3  1  0  0  0  0
  3 18  1  0  0  0  0
  3  4  2  0  0  0  0
  4  5  1  0  0  0  0
  4 22  1  0  0  0  0
  5  6  1  0  0  0  0
  5 16  2  0  0  0  0
  6  7  1  0  0  0  0
  6 23  1  0  0  0  0
  7  8  2  0  0  0  0
  7  9  1  0  0  0  0
  9 10  1  0  0  0  0
  9 24  1  0  0  0  0
 10 11  1  0  0  0  0
 10 12  1  0  0  0  0
 10 25  1  0  0  0  0
 11 26  1  0  0  0  0
 11 27  1  0  0  0  0
 11 28  1  0  0  0  0
 12 13  1  0  0  0  0
 12 29  1  0  0  0  0
 12 30  1  0  0  0  0
 13 15  1  0  0  0  0
 13 14  1  0  0  0  0
 13 31  1  0  0  0  0
 14 15  1  0  0  0  0
 14 32  1  0  0  0  0
 14 33  1  0  0  0  0
 15 34  1  0  0  0  0
 15 35  1  0  0  0  0
 16 17  1  0  0  0  0
 17 18  2  0  0  0  0
 17 36  1  0  0  0  0
M  END
> <s_m_source_file>
AV-unprocessed.smi

> <i_m_source_file_index>
2406

> <i_lp_mmshare_version>
43012

> <i_f3d_flags>
0

> <s_epik_input>
W0NIM11PYzFbY0hdYyhuW2NIXW4xKVtOSF1DKD1PKVtOSF1bQ0BIXShbQ0gzXSlbQ0gyXVtDSF0yW0NIMl1bQ0gyXTI=

> <s_epik_cmdline>
J2VwaWtfcHl0aG9uJywgJy1waCcsICc3LjAnLCAnLXRuJywgJzgnLCAnLW1hJywgJzIwMCcsICctbWV0YWxfYmluZGluZycsICctaW1hZScsICc8aW5maWxlLm1hZT4nLCAnLW9tYWUnLCAnPG91dGZpbGUubWFlPic=

> <r_lp_tautomer_probability>
1

> <r_epik_Ionization_Penalty>
2.82876e-05

> <r_epik_Ionization_Penalty_Charging>
0

> <r_epik_Ionization_Penalty_Neutral>
2.82876e-05

> <r_epik_State_Penalty>
-0

> <r_epik_Charging_Adjusted_Penalty>
0

> <i_epik_Tot_Q>
0

> <i_epik_Tot_abs_Q>
0

> <r_epik_Metal_State_Penalty>
-0

> <b_epik_Metal_Only>
0

> <s_lp_Force_Field>
OPLS_2005

> <r_lp_Energy>
11.282

> <b_lp_Chiralities_Consistent>
1

> <s_lp_Variant>
AV-unprocessed.smi:2406-1

> <Gold.Version>
5.8.1

> <Gold.Id.Protein>
6NUR|6NUR_protein|mol2

> <Gold.PLP.Fitness>
39.7964

> <Gold.PLP.PLP>
-28.8527

> <Gold.PLP.part.hbond>
-4.0000

> <Gold.PLP.part.metal>
0.0000

> <Gold.PLP.part.buried>
-3.0741

> <Gold.PLP.part.nonpolar>
-22.8874

> <Gold.PLP.part.repulsive>
1.1064

> <Gold.PLP.ligand.clash>
0.0000

> <Gold.PLP.ligand.torsion>
0.7316

> <Gold.PLP.Chemscore.Hbond>
2.9440

> <Gold.PLP.Chemscore.CHOScore>
1.0000

> <Gold.PLP.Chemscore.Metal>
0.0000

> <Gold.Chemscore.Hbonds>
donor molecule, donor type, donor heavy atom, donor atom, acceptor molecule, acceptor atom, score
      L1  H     6    23       P1 10175  1.00
      L1  H     9    24       P1 10175  0.87
      P1  H  7989  7998       L1     2  1.00
      L1  C    17    36       P1  8028  0.93

> <Gold.PLP.Chemscore.Internal.Correction>
0.5749

> <Gold.Rescore>
     Score         DG    S(hbond)    S(metal)    S(lipo)     H(rot)  DE(clash)    DE(int)     intcor
     10.99     -14.62       2.51        0.00      46.74       1.85       0.34       3.30       ----

> <Gold.Chemscore.Fitness>
10.9862

> <Gold.Chemscore.DG>
-14.6225

> <Gold.Chemscore.ZeroCoef>
-5.4800

> <Gold.Chemscore.Hbond>
2.5149

> <Gold.Chemscore.Metal>
0.0000

> <Gold.Chemscore.Lipo>
46.7372

> <Gold.Chemscore.Internal_Hbond>
0.0000

> <Gold.Chemscore.DEClash>
0.3405

> <Gold.Chemscore.DEInternal>
3.2958

> <Gold.Chemscore.Rot>
1.8458

> <Gold.Chemscore.Internal.Correction>
   9.000000E+99

> <Gold.Chemscore.Hbonds>
donor molecule, donor type, donor heavy atom, donor atom, acceptor molecule, acceptor atom, score
      L1  H     6    23       P1 10175  1.00
      L1  H     9    24       P1 10175  0.81
      P1  H  7989  7998       L1     2  0.25

> <Gold.Chemscore.Hbond.Weighted>
-8.3996

> <Gold.Chemscore.Metal.Weighted>
-0.0000

> <Gold.Chemscore.Lipo.Weighted>
-5.4682

> <Gold.Chemscore.Internal_Hbond.Weighted>
0.0000

> <Gold.Chemscore.DEClash.Weighted>
0.3405

> <Gold.Chemscore.DEInternal.Weighted>
3.2958

> <Gold.Chemscore.Rot.Weighted>
4.7254

> <Gold.Chemscore.Internal.Correction.Weighted>
   9.000000E+99

> <Gold.Protein.RotatedTorsions>
[ 6907 6896 6895 6894 ] final    3.42 input  -60.11 | X-H torsion
[ 7974 7965 7964 7962 ] final   14.97 input  175.53 | X-H torsion
[ 8008 7997 7996 7995 ] final  102.02 input   59.86 | X-H torsion
[ 10167 10162 10161 10158 ] final  165.98 input  -65.29 | X-H torsion
[ 10718 10713 10712 10709 ] final    6.89 input   66.30 | X-H torsion
[ 10763 10752 10751 10750 ] final   45.45 input  -60.55 | X-H torsion
[ 11005 11000 10999 10996 ] final  -81.04 input  -57.11 | X-H torsion

> <Gold.Protein.ActiveResidues>
 VAL166  LYS551  ARG553  GLY616  TRP617  ASP618  TYR619  PRO620  LYS621  CYS622 
 ASP623  PHE694  ASN695  SER759  ASP760  ASP761  ALA762  ILE779  LEU786  VAL792 
 PHE793  MET794  SER795  GLU796  ALA797  LYS798  CYS799  TRP800  GLU811  SER814 

> <Gold.Protein.RotatedAtoms>
  151.6249  135.1028  160.0109 H   0  0  0  0  0  0  0  0  0  0  0  0  # atno 6907 bound_to 6896
  152.4138  133.7001  159.6429 H   0  0  0  0  0  0  0  0  0  0  0  0  # atno 6908 bound_to 6896
  150.8027  133.8494  159.3242 H   0  0  0  0  0  0  0  0  0  0  0  0  # atno 6909 bound_to 6896
  146.2291  139.8963  142.8546 H   0  0  0  0  0  0  0  0  0  0  0  0  # atno 7974 bound_to 7965
  156.1354  140.3188  155.8412 H   0  0  0  0  0  0  0  0  0  0  0  0  # atno 8008 bound_to 7997
  155.4255  140.0515  157.3039 H   0  0  0  0  0  0  0  0  0  0  0  0  # atno 8009 bound_to 7997
  154.4932  140.2100  155.9515 H   0  0  0  0  0  0  0  0  0  0  0  0  # atno 8010 bound_to 7997
  139.4916  144.4076  151.9337 H   0  0  0  0  0  0  0  0  0  0  0  0  # atno 10167 bound_to 10162
  156.9288  130.5818  149.5649 H   0  0  0  0  0  0  0  0  0  0  0  0  # atno 10718 bound_to 10713
  152.9824  135.6039  154.3439 H   0  0  0  0  0  0  0  0  0  0  0  0  # atno 10763 bound_to 10752
  154.3134  135.2771  155.2557 H   0  0  0  0  0  0  0  0  0  0  0  0  # atno 10764 bound_to 10752
  154.4756  135.5930  153.6408 H   0  0  0  0  0  0  0  0  0  0  0  0  # atno 10765 bound_to 10752
  141.1667  133.7178  156.8363 H   0  0  0  0  0  0  0  0  0  0  0  0  # atno 11005 bound_to 11000
  145.2367  140.9994  143.3959 LP  0  0  0  0  0  0  0  0  0  0  0  0  # atno 17320 bound_to 7965
  144.9485  139.4109  143.6414 LP  0  0  0  0  0  0  0  0  0  0  0  0  # atno 17321 bound_to 7965
  140.3516  144.3082  150.5948 LP  0  0  0  0  0  0  0  0  0  0  0  0  # atno 17342 bound_to 10162
  140.5480  143.2211  151.7975 LP  0  0  0  0  0  0  0  0  0  0  0  0  # atno 17343 bound_to 10162
  156.0457  130.5533  150.8874 LP  0  0  0  0  0  0  0  0  0  0  0  0  # atno 17370 bound_to 10713
  157.5860  131.0945  150.9195 LP  0  0  0  0  0  0  0  0  0  0  0  0  # atno 17371 bound_to 10713
  140.2015  134.8893  157.3174 LP  0  0  0  0  0  0  0  0  0  0  0  0  # atno 17394 bound_to 11000
  140.2182  134.4055  155.7579 LP  0  0  0  0  0  0  0  0  0  0  0  0  # atno 17395 bound_to 11000

$$$$
