AV-unprocessed.smi:229|AV-procd|sdf|1756|dock7
  -GOLD-   2262020283D 1   1.00000     0.00000
 Structure written by MMmdl.
 58 62  0  0  0  0  0  0  0  0  1 V2000
  147.7998  136.5029  160.7891 C   0  0  0  0  0  0  0  0  0  0  0  0
  148.1961  135.1374  160.2140 C   0  0  0  0  0  0  0  0  0  0  0  0
  148.5661  135.2010  158.7247 C   0  0  1  0  0  0  0  0  0  0  0  0
  149.4068  136.4464  158.3959 C   0  0  0  0  0  0  0  0  0  0  0  0
  149.8220  136.4085  156.9982 N   0  0  0  0  0  0  0  0  0  0  0  0
  150.2922  137.5483  156.4314 C   0  0  0  0  0  0  0  0  0  0  0  0
  150.8037  137.5199  155.1712 N   0  0  0  0  0  0  0  0  0  0  0  0
  151.2719  138.6366  154.6059 C   0  0  0  0  0  0  0  0  0  0  0  0
  151.3299  139.8687  155.1148 N   0  0  0  0  0  0  0  0  0  0  0  0
  150.8240  139.9029  156.3803 C   0  0  0  0  0  0  0  0  0  0  0  0
  150.2877  138.8020  157.1064 C   0  0  0  0  0  0  0  0  0  0  0  0
  149.8820  139.2224  158.3684 N   0  0  0  0  0  0  0  0  0  0  0  0
  150.1542  140.4987  158.3837 C   0  0  0  0  0  0  0  0  0  0  0  0
  150.7297  140.9876  157.2328 N   0  0  0  0  0  0  0  0  0  0  0  0
  151.1531  142.3540  156.9802 C   0  0  0  0  0  0  0  0  0  0  0  0
  150.8639  143.2877  158.1756 C   0  0  2  0  0  0  0  0  0  0  0  0
  150.6693  144.5958  157.6726 O   0  0  0  0  0  0  0  0  0  0  0  0
  152.0179  143.3420  159.1965 C   0  0  2  0  0  0  0  0  0  0  0  0
  152.4536  141.9816  159.7471 C   0  0  0  0  0  0  0  0  0  0  0  0
  153.0534  142.3123  161.1049 C   0  0  0  0  0  0  0  0  0  0  0  0
  152.5501  143.7279  161.3942 C   0  0  0  0  0  0  0  0  0  0  0  0
  151.5836  143.9852  160.3860 O   0  0  0  0  0  0  0  0  0  0  0  0
  150.5495  135.1919  156.6569 C   0  0  0  0  0  0  0  0  0  0  0  0
  149.7228  133.9392  157.0270 C   0  0  2  0  0  0  0  0  0  0  0  0
  150.5537  132.6694  156.8722 C   0  0  0  0  0  0  0  0  0  0  0  0
  150.1852  132.1785  155.4804 C   0  0  0  0  0  0  0  0  0  0  0  0
  148.7937  132.4295  155.4297 O   0  0  0  0  0  0  0  0  0  0  0  0
  148.5447  133.6820  156.0577 C   0  0  0  0  0  0  0  0  0  0  0  0
  149.3125  134.0275  158.3950 O   0  0  0  0  0  0  0  0  0  0  0  0
  147.5512  136.4202  161.8471 H   0  0  0  0  0  0  0  0  0  0  0  0
  146.9300  136.9122  160.2746 H   0  0  0  0  0  0  0  0  0  0  0  0
  148.6142  137.2217  160.6943 H   0  0  0  0  0  0  0  0  0  0  0  0
  149.0448  134.7528  160.7808 H   0  0  0  0  0  0  0  0  0  0  0  0
  147.3814  134.4275  160.3621 H   0  0  0  0  0  0  0  0  0  0  0  0
  147.6452  135.2346  158.1419 H   0  0  0  0  0  0  0  0  0  0  0  0
  148.8202  137.3454  158.5912 H   0  0  0  0  0  0  0  0  0  0  0  0
  150.2903  136.4865  159.0349 H   0  0  0  0  0  0  0  0  0  0  0  0
  151.6566  138.5264  153.6029 H   0  0  0  0  0  0  0  0  0  0  0  0
  149.9529  141.1195  159.2447 H   0  0  0  0  0  0  0  0  0  0  0  0
  152.2194  142.3358  156.7541 H   0  0  0  0  0  0  0  0  0  0  0  0
  150.6505  142.7154  156.0820 H   0  0  0  0  0  0  0  0  0  0  0  0
  149.9490  142.9641  158.6742 H   0  0  0  0  0  0  0  0  0  0  0  0
  150.0370  144.5550  156.9713 H   0  0  0  0  0  0  0  0  0  0  0  0
  152.8827  143.8675  158.7854 H   0  0  0  0  0  0  0  0  0  0  0  0
  151.5847  141.3359  159.8831 H   0  0  0  0  0  0  0  0  0  0  0  0
  153.1560  141.4663  159.0913 H   0  0  0  0  0  0  0  0  0  0  0  0
  152.7214  141.6010  161.8619 H   0  0  0  0  0  0  0  0  0  0  0  0
  154.1434  142.2913  161.0774 H   0  0  0  0  0  0  0  0  0  0  0  0
  152.1145  143.8244  162.3891 H   0  0  0  0  0  0  0  0  0  0  0  0
  153.3624  144.4508  161.3059 H   0  0  0  0  0  0  0  0  0  0  0  0
  150.8203  135.1608  155.6023 H   0  0  0  0  0  0  0  0  0  0  0  0
  151.4866  135.1950  157.2155 H   0  0  0  0  0  0  0  0  0  0  0  0
  151.6253  132.8266  156.9986 H   0  0  0  0  0  0  0  0  0  0  0  0
  150.2411  131.9234  157.6048 H   0  0  0  0  0  0  0  0  0  0  0  0
  150.6955  132.7576  154.7090 H   0  0  0  0  0  0  0  0  0  0  0  0
  150.4101  131.1224  155.3304 H   0  0  0  0  0  0  0  0  0  0  0  0
  147.5807  133.6312  156.5632 H   0  0  0  0  0  0  0  0  0  0  0  0
  148.4781  134.4597  155.2956 H   0  0  0  0  0  0  0  0  0  0  0  0
  1  2  1  0  0  0  0
  1 30  1  0  0  0  0
  1 31  1  0  0  0  0
  1 32  1  0  0  0  0
  2  3  1  0  0  0  0
  2 33  1  0  0  0  0
  2 34  1  0  0  0  0
  3 29  1  0  0  0  0
  3  4  1  0  0  0  0
  3 35  1  0  0  0  0
  4  5  1  0  0  0  0
  4 36  1  0  0  0  0
  4 37  1  0  0  0  0
  5  6  1  0  0  0  0
  5 23  1  0  0  0  0
  6 11  1  0  0  0  0
  6  7  2  0  0  0  0
  7  8  1  0  0  0  0
  8  9  2  0  0  0  0
  8 38  1  0  0  0  0
  9 10  1  0  0  0  0
 10 14  1  0  0  0  0
 10 11  2  0  0  0  0
 11 12  1  0  0  0  0
 12 13  2  0  0  0  0
 13 14  1  0  0  0  0
 13 39  1  0  0  0  0
 14 15  1  0  0  0  0
 15 16  1  0  0  0  0
 15 40  1  0  0  0  0
 15 41  1  0  0  0  0
 16 17  1  0  0  0  0
 16 18  1  0  0  0  0
 16 42  1  0  0  0  0
 17 43  1  0  0  0  0
 18 22  1  0  0  0  0
 18 19  1  0  0  0  0
 18 44  1  0  0  0  0
 19 20  1  0  0  0  0
 19 45  1  0  0  0  0
 19 46  1  0  0  0  0
 20 21  1  0  0  0  0
 20 47  1  0  0  0  0
 20 48  1  0  0  0  0
 21 22  1  0  0  0  0
 21 49  1  0  0  0  0
 21 50  1  0  0  0  0
 23 24  1  0  0  0  0
 23 51  1  0  0  0  0
 23 52  1  0  0  0  0
 24 28  1  0  0  0  0
 24 25  1  0  0  0  0
 24 29  1  0  0  0  0
 25 26  1  0  0  0  0
 25 53  1  0  0  0  0
 25 54  1  0  0  0  0
 26 27  1  0  0  0  0
 26 55  1  0  0  0  0
 26 56  1  0  0  0  0
 27 28  1  0  0  0  0
 28 57  1  0  0  0  0
 28 58  1  0  0  0  0
M  END
> <s_m_source_file>
AV-unprocessed.smi

> <i_m_source_file_index>
229

> <i_lp_mmshare_version>
43012

> <i_f3d_flags>
0

> <s_epik_input>
W0NIMl0xT1tDSDJdW0NIMl1bQ0BdMTJbQ0gyXU4oW0NIMl1bQ0BIXShPMilbQ0gyXVtDSDNdKWMobltjSF1uMyljKGMzNCluW2NIXW40W0NIMl1bQ0BIXShbT0hdKVtDQEBIXTVbQ0gyXVtDSDJdW0NIMl1PNQ==

> <s_epik_cmdline>
J2VwaWtfcHl0aG9uJywgJy1waCcsICc3LjAnLCAnLXRuJywgJzgnLCAnLW1hJywgJzIwMCcsICctbWV0YWxfYmluZGluZycsICctaW1hZScsICc8aW5maWxlLm1hZT4nLCAnLW9tYWUnLCAnPG91dGZpbGUubWFlPic=

> <r_lp_tautomer_probability>
1

> <r_epik_Ionization_Penalty>
0.00318402

> <r_epik_Ionization_Penalty_Charging>
0

> <r_epik_Ionization_Penalty_Neutral>
0.00318402

> <r_epik_State_Penalty>
0.00215642

> <r_epik_Charging_Adjusted_Penalty>
0.00215642

> <i_epik_Tot_Q>
0

> <i_epik_Tot_abs_Q>
0

> <r_epik_Metal_State_Penalty>
-0

> <b_epik_Metal_Only>
0

> <s_lp_Force_Field>
OPLS_2005

> <r_lp_Energy>
55.2871

> <b_lp_Chiralities_Consistent>
1

> <s_lp_Variant>
AV-unprocessed.smi:229-10

> <Gold.Version>
5.8.1

> <Gold.Id.Protein>
6NUR|6NUR_protein|mol2

> <Gold.PLP.Fitness>
50.7244

> <Gold.PLP.PLP>
-43.4377

> <Gold.PLP.part.hbond>
-3.6232

> <Gold.PLP.part.metal>
0.0000

> <Gold.PLP.part.buried>
-8.5732

> <Gold.PLP.part.nonpolar>
-33.1252

> <Gold.PLP.part.repulsive>
0.2727

> <Gold.PLP.ligand.clash>
0.0000

> <Gold.PLP.ligand.torsion>
0.9780

> <Gold.PLP.Chemscore.Hbond>
2.9500

> <Gold.PLP.Chemscore.CHOScore>
0.0000

> <Gold.PLP.Chemscore.Metal>
0.0000

> <Gold.Chemscore.Hbonds>
donor molecule, donor type, donor heavy atom, donor atom, acceptor molecule, acceptor atom, score
      L1  H    17    43       P1  8028  1.00
      P1  H  6896  6907       L1    29  0.98
      P1  H  7989  7998       L1     9  1.00

> <Gold.PLP.Chemscore.Internal.Correction>
0.3927

> <Gold.Rescore>
     Score         DG    S(hbond)    S(metal)    S(lipo)     H(rot)  DE(clash)    DE(int)     intcor
     16.05     -18.53       2.14        0.00     104.25       2.46       0.07       2.41       ----

> <Gold.Chemscore.Fitness>
16.0479

> <Gold.Chemscore.DG>
-18.5283

> <Gold.Chemscore.ZeroCoef>
-5.4800

> <Gold.Chemscore.Hbond>
2.1395

> <Gold.Chemscore.Metal>
0.0000

> <Gold.Chemscore.Lipo>
104.2542

> <Gold.Chemscore.Internal_Hbond>
0.0000

> <Gold.Chemscore.DEClash>
0.0688

> <Gold.Chemscore.DEInternal>
2.4115

> <Gold.Chemscore.Rot>
2.4591

> <Gold.Chemscore.Internal.Correction>
   9.000000E+99

> <Gold.Chemscore.Hbonds>
donor molecule, donor type, donor heavy atom, donor atom, acceptor molecule, acceptor atom, score
      L1  H    17    43       P1  8028  0.55
      P1  H  6896  6907       L1    29  0.35
      P1  H  7989  7998       L1     9  0.25

> <Gold.Chemscore.Hbond.Weighted>
-7.1459

> <Gold.Chemscore.Metal.Weighted>
-0.0000

> <Gold.Chemscore.Lipo.Weighted>
-12.1977

> <Gold.Chemscore.Internal_Hbond.Weighted>
0.0000

> <Gold.Chemscore.DEClash.Weighted>
0.0688

> <Gold.Chemscore.DEInternal.Weighted>
2.4115

> <Gold.Chemscore.Rot.Weighted>
6.2953

> <Gold.Chemscore.Internal.Correction.Weighted>
   9.000000E+99

> <Gold.Protein.RotatedTorsions>
[ 6907 6896 6895 6894 ] final -122.89 input  -60.11 | X-H torsion
[ 7974 7965 7964 7962 ] final  155.99 input  175.53 | X-H torsion
[ 8008 7997 7996 7995 ] final   91.05 input   59.86 | X-H torsion
[ 10167 10162 10161 10158 ] final   95.48 input  -65.29 | X-H torsion
[ 10718 10713 10712 10709 ] final -135.60 input   66.30 | X-H torsion
[ 10763 10752 10751 10750 ] final   97.16 input  -60.55 | X-H torsion
[ 11005 11000 10999 10996 ] final  151.75 input  -57.11 | X-H torsion

> <Gold.Protein.ActiveResidues>
 VAL166  LYS551  ARG553  GLY616  TRP617  ASP618  TYR619  PRO620  LYS621  CYS622 
 ASP623  PHE694  ASN695  SER759  ASP760  ASP761  ALA762  ILE779  LEU786  VAL792 
 PHE793  MET794  SER795  GLU796  ALA797  LYS798  CYS799  TRP800  GLU811  SER814 

> <Gold.Protein.RotatedAtoms>
  150.8619  133.7632  159.2989 H   0  0  0  0  0  0  0  0  0  0  0  0  # atno 6907 bound_to 6896
  151.5271  135.1066  159.9903 H   0  0  0  0  0  0  0  0  0  0  0  0  # atno 6908 bound_to 6896
  152.4632  133.7823  159.6913 H   0  0  0  0  0  0  0  0  0  0  0  0  # atno 6909 bound_to 6896
  144.7990  139.7143  143.6189 H   0  0  0  0  0  0  0  0  0  0  0  0  # atno 7974 bound_to 7965
  156.0192  140.3342  155.7021 H   0  0  0  0  0  0  0  0  0  0  0  0  # atno 8008 bound_to 7997
  155.6047  140.0659  157.2741 H   0  0  0  0  0  0  0  0  0  0  0  0  # atno 8009 bound_to 7997
  154.4309  140.1804  156.1197 H   0  0  0  0  0  0  0  0  0  0  0  0  # atno 8010 bound_to 7997
  139.7984  144.6824  150.9797 H   0  0  0  0  0  0  0  0  0  0  0  0  # atno 10167 bound_to 10162
  156.2680  130.7248  151.1206 H   0  0  0  0  0  0  0  0  0  0  0  0  # atno 10718 bound_to 10713
  153.2736  135.4193  155.1011 H   0  0  0  0  0  0  0  0  0  0  0  0  # atno 10763 bound_to 10752
  154.8465  135.3478  154.6210 H   0  0  0  0  0  0  0  0  0  0  0  0  # atno 10764 bound_to 10752
  153.6630  135.7047  153.5229 H   0  0  0  0  0  0  0  0  0  0  0  0  # atno 10765 bound_to 10752
  140.1246  134.8841  157.2120 H   0  0  0  0  0  0  0  0  0  0  0  0  # atno 11005 bound_to 11000
  146.2267  139.5736  142.9582 LP  0  0  0  0  0  0  0  0  0  0  0  0  # atno 17320 bound_to 7965
  145.5599  141.0405  143.2232 LP  0  0  0  0  0  0  0  0  0  0  0  0  # atno 17321 bound_to 7965
  140.7820  143.4307  151.0699 LP  0  0  0  0  0  0  0  0  0  0  0  0  # atno 17342 bound_to 10162
  139.7980  143.8124  152.3160 LP  0  0  0  0  0  0  0  0  0  0  0  0  # atno 17343 bound_to 10162
  157.7274  131.0639  150.5868 LP  0  0  0  0  0  0  0  0  0  0  0  0  # atno 17370 bound_to 10713
  156.5961  130.4342  149.5916 LP  0  0  0  0  0  0  0  0  0  0  0  0  # atno 17371 bound_to 10713
  140.2920  134.3229  155.7312 LP  0  0  0  0  0  0  0  0  0  0  0  0  # atno 17394 bound_to 11000
  141.2158  133.7540  156.9517 LP  0  0  0  0  0  0  0  0  0  0  0  0  # atno 17395 bound_to 11000

$$$$
