AV-unprocessed.smi:2770|AV-procd|sdf|10661|dock2
  -GOLD-   2272015103D 1   1.00000     0.00000
 Structure written by MMmdl.
 35 36  0  0  0  0  0  0  0  0  2 V2000
  145.9359  142.4628  154.5091 C   0  0  0  0  0  0  0  0  0  0  0  0
  147.3580  142.2259  154.7043 N   0  0  0  0  0  0  0  0  0  0  0  0
  147.9533  141.0329  154.5598 C   0  0  0  0  0  0  0  0  0  0  0  0
  147.3405  140.0119  154.2455 O   0  0  0  0  0  0  0  0  0  0  0  0
  149.4632  140.9919  154.8287 C   0  0  1  0  0  0  0  0  0  0  0  0
  149.8324  141.4753  156.2496 C   0  0  0  0  0  0  0  0  0  0  0  0
  151.2636  141.3237  156.4765 N   0  0  0  0  0  0  0  0  0  0  0  0
  151.6848  141.8381  157.7096 C   0  0  0  0  0  0  0  0  0  0  0  0
  152.3567  141.0683  158.6876 C   0  0  0  0  0  0  0  0  0  0  0  0
  152.7413  141.6769  159.9002 C   0  0  0  0  0  0  0  0  0  0  0  0
  152.4495  143.0399  160.1123 C   0  0  0  0  0  0  0  0  0  0  0  0
  151.7770  143.7634  159.1050 C   0  0  0  0  0  0  0  0  0  0  0  0
  151.4262  145.2284  159.2559 C   0  0  0  0  0  0  0  0  0  0  0  0
  151.4254  143.1413  157.9575 N   0  3  0  0  0  0  0  0  0  0  0  0
  151.7297  139.9658  156.2308 C   0  0  0  0  0  0  0  0  0  0  0  0
  151.3251  139.5223  154.8153 C   0  0  0  0  0  0  0  0  0  0  0  0
  149.9143  139.6471  154.6645 O   0  0  0  0  0  0  0  0  0  0  0  0
  145.6964  143.5006  154.7407 H   0  0  0  0  0  0  0  0  0  0  0  0
  145.3406  141.8222  155.1613 H   0  0  0  0  0  0  0  0  0  0  0  0
  145.6495  142.2690  153.4748 H   0  0  0  0  0  0  0  0  0  0  0  0
  147.9283  143.0183  154.9629 H   0  0  0  0  0  0  0  0  0  0  0  0
  149.9489  141.6273  154.0856 H   0  0  0  0  0  0  0  0  0  0  0  0
  149.5567  142.5237  156.3738 H   0  0  0  0  0  0  0  0  0  0  0  0
  149.2801  140.9038  156.9973 H   0  0  0  0  0  0  0  0  0  0  0  0
  152.5762  140.0246  158.5157 H   0  0  0  0  0  0  0  0  0  0  0  0
  153.2542  141.1043  160.6589 H   0  0  0  0  0  0  0  0  0  0  0  0
  152.7385  143.5199  161.0362 H   0  0  0  0  0  0  0  0  0  0  0  0
  151.7386  145.6094  160.2288 H   0  0  0  0  0  0  0  0  0  0  0  0
  150.3493  145.3729  159.1638 H   0  0  0  0  0  0  0  0  0  0  0  0
  151.9206  145.8192  158.4841 H   0  0  0  0  0  0  0  0  0  0  0  0
  152.8137  139.9211  156.3423 H   0  0  0  0  0  0  0  0  0  0  0  0
  151.2999  139.2866  156.9685 H   0  0  0  0  0  0  0  0  0  0  0  0
  151.8369  140.1177  154.0574 H   0  0  0  0  0  0  0  0  0  0  0  0
  151.6098  138.4833  154.6501 H   0  0  0  0  0  0  0  0  0  0  0  0
  150.9388  143.6830  157.2428 H   0  0  0  0  0  0  0  0  0  0  0  0
  1  2  1  0  0  0  0
  1 18  1  0  0  0  0
  1 19  1  0  0  0  0
  1 20  1  0  0  0  0
  2  3  1  0  0  0  0
  2 21  1  0  0  0  0
  3  4  2  0  0  0  0
  3  5  1  0  0  0  0
  5 17  1  0  0  0  0
  5  6  1  0  0  0  0
  5 22  1  0  0  0  0
  6  7  1  0  0  0  0
  6 23  1  0  0  0  0
  6 24  1  0  0  0  0
  7  8  1  0  0  0  0
  7 15  1  0  0  0  0
  8 14  1  0  0  0  0
  8  9  2  0  0  0  0
  9 10  1  0  0  0  0
  9 25  1  0  0  0  0
 10 11  2  0  0  0  0
 10 26  1  0  0  0  0
 11 12  1  0  0  0  0
 11 27  1  0  0  0  0
 12 13  1  0  0  0  0
 12 14  2  0  0  0  0
 13 28  1  0  0  0  0
 13 29  1  0  0  0  0
 13 30  1  0  0  0  0
 14 35  1  0  0  0  0
 15 16  1  0  0  0  0
 15 31  1  0  0  0  0
 15 32  1  0  0  0  0
 16 17  1  0  0  0  0
 16 33  1  0  0  0  0
 16 34  1  0  0  0  0
M  CHG  1  14   1
M  END
> <s_m_source_file>
AV-unprocessed.smi

> <i_m_source_file_index>
2770

> <i_lp_mmshare_version>
43012

> <i_f3d_flags>
0

> <s_epik_input>
W0NIM11bTkhdQyg9TylbQ0BASF0xW0NIMl1OKFtDSDJdW0NIMl1PMSljMltjSF1bY0hdW2NIXWMobjIpW0NIM10=

> <s_epik_cmdline>
J2VwaWtfcHl0aG9uJywgJy1waCcsICc3LjAnLCAnLXRuJywgJzgnLCAnLW1hJywgJzIwMCcsICctbWV0YWxfYmluZGluZycsICctaW1hZScsICc8aW5maWxlLm1hZT4nLCAnLW9tYWUnLCAnPG91dGZpbGUubWFlPic=

> <r_lp_tautomer_probability>
0.999994

> <r_epik_Ionization_Penalty>
2.33902

> <r_epik_Ionization_Penalty_Charging>
2.33902

> <r_epik_Ionization_Penalty_Neutral>
5.66859e-08

> <r_epik_State_Penalty>
2.4925

> <r_epik_Charging_Adjusted_Penalty>
4.83152

> <i_epik_Tot_Q>
1

> <i_epik_Tot_abs_Q>
1

> <r_epik_Metal_State_Penalty>
2.50392

> <b_epik_Metal_Only>
0

> <s_lp_Force_Field>
OPLS_2005

> <r_lp_Energy>
23.4151

> <b_lp_Chiralities_Consistent>
1

> <s_lp_Variant>
AV-unprocessed.smi:2770-4

> <Gold.Version>
5.8.1

> <Gold.Id.Protein>
6NUR|6NUR_protein|mol2

> <Gold.PLP.Fitness>
41.8019

> <Gold.PLP.PLP>
-38.8301

> <Gold.PLP.part.hbond>
-1.0000

> <Gold.PLP.part.metal>
0.0000

> <Gold.PLP.part.buried>
-4.2998

> <Gold.PLP.part.nonpolar>
-33.8000

> <Gold.PLP.part.repulsive>
0.4608

> <Gold.PLP.ligand.clash>
0.0000

> <Gold.PLP.ligand.torsion>
0.0631

> <Gold.PLP.Chemscore.Hbond>
1.0000

> <Gold.PLP.Chemscore.CHOScore>
0.0000

> <Gold.PLP.Chemscore.Metal>
0.0000

> <Gold.Chemscore.Hbonds>
donor molecule, donor type, donor heavy atom, donor atom, acceptor molecule, acceptor atom, score
      L1  H     2    21       P1  8028  0.98

> <Gold.PLP.Chemscore.Internal.Correction>
0.0980

> <Gold.Rescore>
     Score         DG    S(hbond)    S(metal)    S(lipo)     H(rot)  DE(clash)    DE(int)     intcor
     15.77     -15.89       0.97        0.00      89.57       1.30       0.05       0.08       ----

> <Gold.Chemscore.Fitness>
15.7663

> <Gold.Chemscore.DG>
-15.8929

> <Gold.Chemscore.ZeroCoef>
-5.4800

> <Gold.Chemscore.Hbond>
0.9736

> <Gold.Chemscore.Metal>
0.0000

> <Gold.Chemscore.Lipo>
89.5686

> <Gold.Chemscore.Internal_Hbond>
0.0000

> <Gold.Chemscore.DEClash>
0.0498

> <Gold.Chemscore.DEInternal>
0.0767

> <Gold.Chemscore.Rot>
1.2963

> <Gold.Chemscore.Internal.Correction>
   9.000000E+99

> <Gold.Chemscore.Hbonds>
donor molecule, donor type, donor heavy atom, donor atom, acceptor molecule, acceptor atom, score
      L1  H     2    21       P1  8028  0.80

> <Gold.Chemscore.Hbond.Weighted>
-3.2519

> <Gold.Chemscore.Metal.Weighted>
-0.0000

> <Gold.Chemscore.Lipo.Weighted>
-10.4795

> <Gold.Chemscore.Internal_Hbond.Weighted>
0.0000

> <Gold.Chemscore.DEClash.Weighted>
0.0498

> <Gold.Chemscore.DEInternal.Weighted>
0.0767

> <Gold.Chemscore.Rot.Weighted>
3.3185

> <Gold.Chemscore.Internal.Correction.Weighted>
   9.000000E+99

> <Gold.Protein.RotatedTorsions>
[ 6907 6896 6895 6894 ] final  -86.58 input  -60.11 | X-H torsion
[ 7974 7965 7964 7962 ] final   96.63 input  175.53 | X-H torsion
[ 8008 7997 7996 7995 ] final  113.78 input   59.86 | X-H torsion
[ 10167 10162 10161 10158 ] final  145.22 input  -65.29 | X-H torsion
[ 10718 10713 10712 10709 ] final  -42.79 input   66.30 | X-H torsion
[ 10763 10752 10751 10750 ] final  -29.15 input  -60.55 | X-H torsion
[ 11005 11000 10999 10996 ] final -103.44 input  -57.11 | X-H torsion

> <Gold.Protein.ActiveResidues>
 VAL166  LYS551  ARG553  GLY616  TRP617  ASP618  TYR619  PRO620  LYS621  CYS622 
 ASP623  PHE694  ASN695  SER759  ASP760  ASP761  ALA762  ILE779  LEU786  VAL792 
 PHE793  MET794  SER795  GLU796  ALA797  LYS798  CYS799  TRP800  GLU811  SER814 

> <Gold.Protein.RotatedAtoms>
  150.6867  134.3028  159.4713 H   0  0  0  0  0  0  0  0  0  0  0  0  # atno 6907 bound_to 6896
  152.0922  134.9397  160.0581 H   0  0  0  0  0  0  0  0  0  0  0  0  # atno 6908 bound_to 6896
  152.0708  133.4071  159.4495 H   0  0  0  0  0  0  0  0  0  0  0  0  # atno 6909 bound_to 6896
  145.4363  139.2305  143.3116 H   0  0  0  0  0  0  0  0  0  0  0  0  # atno 7974 bound_to 7965
  156.2280  140.2972  156.0115 H   0  0  0  0  0  0  0  0  0  0  0  0  # atno 8008 bound_to 7997
  155.2304  140.0419  157.2978 H   0  0  0  0  0  0  0  0  0  0  0  0  # atno 8009 bound_to 7997
  154.5947  140.2411  155.7880 H   0  0  0  0  0  0  0  0  0  0  0  0  # atno 8010 bound_to 7997
  139.4930  144.5917  151.6667 H   0  0  0  0  0  0  0  0  0  0  0  0  # atno 10167 bound_to 10162
  156.2558  130.4192  149.8598 H   0  0  0  0  0  0  0  0  0  0  0  0  # atno 10718 bound_to 10713
  153.7600  135.6920  153.4927 H   0  0  0  0  0  0  0  0  0  0  0  0  # atno 10763 bound_to 10752
  153.1945  135.4459  155.0189 H   0  0  0  0  0  0  0  0  0  0  0  0  # atno 10764 bound_to 10752
  154.8156  135.3397  154.7115 H   0  0  0  0  0  0  0  0  0  0  0  0  # atno 10765 bound_to 10752
  141.1145  133.8640  157.1486 H   0  0  0  0  0  0  0  0  0  0  0  0  # atno 11005 bound_to 11000
  146.2580  140.5106  142.8865 LP  0  0  0  0  0  0  0  0  0  0  0  0  # atno 17320 bound_to 7965
  144.8150  140.6452  143.6390 LP  0  0  0  0  0  0  0  0  0  0  0  0  # atno 17321 bound_to 7965
  140.5546  144.0370  150.6142 LP  0  0  0  0  0  0  0  0  0  0  0  0  # atno 17342 bound_to 10162
  140.3435  143.3005  152.0563 LP  0  0  0  0  0  0  0  0  0  0  0  0  # atno 17343 bound_to 10162
  156.6130  130.8595  151.3458 LP  0  0  0  0  0  0  0  0  0  0  0  0  # atno 17370 bound_to 10713
  157.7232  130.9586  150.1524 LP  0  0  0  0  0  0  0  0  0  0  0  0  # atno 17371 bound_to 10713
  140.0059  135.0008  157.0292 LP  0  0  0  0  0  0  0  0  0  0  0  0  # atno 17394 bound_to 11000
  140.4683  134.1413  155.7200 LP  0  0  0  0  0  0  0  0  0  0  0  0  # atno 17395 bound_to 11000

$$$$
