AV-unprocessed.smi:1484|AV-procd|sdf|6000|dock2
  -GOLD-   22720 6 93D 1   1.00000     0.00000
 Structure written by MMmdl.
 38 39  0  0  0  0  0  0  0  0  1 V2000
  153.0238  142.7307  162.5338 C   0  0  0  0  0  0  0  0  0  0  0  0
  152.4131  143.0457  161.1614 C   0  0  1  0  0  0  0  0  0  0  0  0
  151.9804  144.5210  161.0611 C   0  0  0  0  0  0  0  0  0  0  0  0
  151.3744  144.8431  159.6853 C   0  0  0  0  0  0  0  0  0  0  0  0
  152.3368  144.4694  158.5432 C   0  0  0  0  0  0  0  0  0  0  0  0
  152.7883  142.9982  158.6231 C   0  0  2  0  0  0  0  0  0  0  0  0
  151.6636  142.1155  158.3221 N   0  0  0  0  0  0  0  0  0  0  0  0
  151.7425  140.7989  158.0787 C   0  0  0  0  0  0  0  0  0  0  0  0
  152.8049  140.1831  157.9975 O   0  0  0  0  0  0  0  0  0  0  0  0
  150.4085  140.0650  157.9175 C   0  0  0  0  0  0  0  0  0  0  0  0
  150.0602  139.9209  156.4982 N   0  0  0  0  0  0  0  0  0  0  0  0
  149.7409  141.1200  155.8774 N   0  0  0  0  0  0  0  0  0  0  0  0
  149.3712  141.1291  154.6418 C   0  0  0  0  0  0  0  0  0  0  0  0
  149.0578  142.3380  154.0710 O   0  0  0  0  0  0  0  0  0  0  0  0
  149.2878  139.9047  153.8771 C   0  0  0  0  0  0  0  0  0  0  0  0
  149.6045  138.7423  154.4881 C   0  0  0  0  0  0  0  0  0  0  0  0
  150.0216  138.6950  155.8908 C   0  0  0  0  0  0  0  0  0  0  0  0
  150.3053  137.6486  156.4730 O   0  0  0  0  0  0  0  0  0  0  0  0
  153.3855  142.6930  160.0161 C   0  0  0  0  0  0  0  0  0  0  0  0
  149.1762  142.9772  154.7566 H   0  0  0  0  0  0  0  0  0  0  0  0
  153.9228  143.3211  162.7141 H   0  0  0  0  0  0  0  0  0  0  0  0
  153.2958  141.6774  162.6089 H   0  0  0  0  0  0  0  0  0  0  0  0
  152.3171  142.9454  163.3359 H   0  0  0  0  0  0  0  0  0  0  0  0
  151.5222  142.4244  161.0564 H   0  0  0  0  0  0  0  0  0  0  0  0
  151.2544  144.7509  161.8417 H   0  0  0  0  0  0  0  0  0  0  0  0
  152.8394  145.1694  161.2387 H   0  0  0  0  0  0  0  0  0  0  0  0
  150.4324  144.3065  159.5669 H   0  0  0  0  0  0  0  0  0  0  0  0
  151.1303  145.9043  159.6296 H   0  0  0  0  0  0  0  0  0  0  0  0
  151.8683  144.6695  157.5786 H   0  0  0  0  0  0  0  0  0  0  0  0
  153.2143  145.1152  158.5929 H   0  0  0  0  0  0  0  0  0  0  0  0
  153.5567  142.8354  157.8651 H   0  0  0  0  0  0  0  0  0  0  0  0
  150.7437  142.5296  158.3609 H   0  0  0  0  0  0  0  0  0  0  0  0
  150.4666  139.0838  158.3930 H   0  0  0  0  0  0  0  0  0  0  0  0
  149.6322  140.6051  158.4621 H   0  0  0  0  0  0  0  0  0  0  0  0
  148.9789  139.9293  152.8423 H   0  0  0  0  0  0  0  0  0  0  0  0
  149.5469  137.8204  153.9283 H   0  0  0  0  0  0  0  0  0  0  0  0
  154.3072  143.2636  160.1382 H   0  0  0  0  0  0  0  0  0  0  0  0
  153.6763  141.6441  160.0828 H   0  0  0  0  0  0  0  0  0  0  0  0
  1  2  1  0  0  0  0
  1 21  1  0  0  0  0
  1 22  1  0  0  0  0
  1 23  1  0  0  0  0
  2 19  1  0  0  0  0
  2  3  1  0  0  0  0
  2 24  1  0  0  0  0
  3  4  1  0  0  0  0
  3 25  1  0  0  0  0
  3 26  1  0  0  0  0
  4  5  1  0  0  0  0
  4 27  1  0  0  0  0
  4 28  1  0  0  0  0
  5  6  1  0  0  0  0
  5 29  1  0  0  0  0
  5 30  1  0  0  0  0
  6  7  1  0  0  0  0
  6 19  1  0  0  0  0
  6 31  1  0  0  0  0
  7  8  1  0  0  0  0
  7 32  1  0  0  0  0
  8  9  2  0  0  0  0
  8 10  1  0  0  0  0
 10 33  1  0  0  0  0
 10 34  1  0  0  0  0
 10 11  1  0  0  0  0
 11 12  1  0  0  0  0
 11 17  1  0  0  0  0
 12 13  2  0  0  0  0
 13 14  1  0  0  0  0
 13 15  1  0  0  0  0
 14 20  1  0  0  0  0
 15 35  1  0  0  0  0
 15 16  2  0  0  0  0
 16 36  1  0  0  0  0
 16 17  1  0  0  0  0
 17 18  2  0  0  0  0
 19 37  1  0  0  0  0
 19 38  1  0  0  0  0
M  END
> <s_m_source_file>
AV-unprocessed.smi

> <i_m_source_file_index>
1484

> <i_lp_mmshare_version>
43012

> <i_f3d_flags>
0

> <s_epik_input>
W0NIM11bQ0BASF0xW0NIMl1bQ0gyXVtDSDJdW0NASF0oW0NIMl0xKVtOSF1DKD1PKVtDSDJdbjJbbkhdYyg9TylbY0hdW2NIXWMyPU8=

> <s_epik_cmdline>
J2VwaWtfcHl0aG9uJywgJy1waCcsICc3LjAnLCAnLXRuJywgJzgnLCAnLW1hJywgJzIwMCcsICctbWV0YWxfYmluZGluZycsICctaW1hZScsICc8aW5maWxlLm1hZT4nLCAnLW9tYWUnLCAnPG91dGZpbGUubWFlPic=

> <r_lp_tautomer_probability>
0.9996

> <r_epik_Ionization_Penalty>
2.10343

> <r_epik_Ionization_Penalty_Charging>
3.97871e-08

> <r_epik_Ionization_Penalty_Neutral>
2.10343

> <r_epik_State_Penalty>
1.67966

> <r_epik_Charging_Adjusted_Penalty>
1.67966

> <i_epik_Tot_Q>
0

> <i_epik_Tot_abs_Q>
0

> <r_epik_Metal_State_Penalty>
1.67966

> <b_epik_Metal_Only>
0

> <s_lp_Force_Field>
OPLS_2005

> <r_lp_Energy>
21.1153

> <b_lp_Chiralities_Consistent>
1

> <s_lp_Variant>
AV-unprocessed.smi:1484-8

> <Gold.Version>
5.8.1

> <Gold.Id.Protein>
6NUR|6NUR_protein|mol2

> <Gold.PLP.Fitness>
47.5633

> <Gold.PLP.PLP>
-41.8784

> <Gold.PLP.part.hbond>
-3.0000

> <Gold.PLP.part.metal>
0.0000

> <Gold.PLP.part.buried>
-3.4467

> <Gold.PLP.part.nonpolar>
-35.6835

> <Gold.PLP.part.repulsive>
0.1332

> <Gold.PLP.ligand.clash>
0.0000

> <Gold.PLP.ligand.torsion>
0.4968

> <Gold.PLP.Chemscore.Hbond>
2.2227

> <Gold.PLP.Chemscore.CHOScore>
0.0000

> <Gold.PLP.Chemscore.Metal>
0.0000

> <Gold.Chemscore.Hbonds>
donor molecule, donor type, donor heavy atom, donor atom, acceptor molecule, acceptor atom, score
      L1  H    14    20       P1  8028  1.00
      P1  H  7997  8008       L1     9  0.94
      P1  H  8011  8017       L1    14  0.22

> <Gold.PLP.Chemscore.Internal.Correction>
0.0103

> <Gold.Rescore>
     Score         DG    S(hbond)    S(metal)    S(lipo)     H(rot)  DE(clash)    DE(int)     intcor
     17.45     -18.34       1.96        0.00     102.98       2.24       0.22       0.67       ----

> <Gold.Chemscore.Fitness>
17.4507

> <Gold.Chemscore.DG>
-18.3422

> <Gold.Chemscore.ZeroCoef>
-5.4800

> <Gold.Chemscore.Hbond>
1.9623

> <Gold.Chemscore.Metal>
0.0000

> <Gold.Chemscore.Lipo>
102.9751

> <Gold.Chemscore.Internal_Hbond>
0.0000

> <Gold.Chemscore.DEClash>
0.2241

> <Gold.Chemscore.DEInternal>
0.6674

> <Gold.Chemscore.Rot>
2.2421

> <Gold.Chemscore.Internal.Correction>
   9.000000E+99

> <Gold.Chemscore.Hbonds>
donor molecule, donor type, donor heavy atom, donor atom, acceptor molecule, acceptor atom, score
      L1  H    14    20       P1  8028  0.96
      P1  H  7997  8008       L1     9  0.84
      P1  H  8011  8017       L1    14  0.17

> <Gold.Chemscore.Hbond.Weighted>
-6.5539

> <Gold.Chemscore.Metal.Weighted>
-0.0000

> <Gold.Chemscore.Lipo.Weighted>
-12.0481

> <Gold.Chemscore.Internal_Hbond.Weighted>
0.0000

> <Gold.Chemscore.DEClash.Weighted>
0.2241

> <Gold.Chemscore.DEInternal.Weighted>
0.6674

> <Gold.Chemscore.Rot.Weighted>
5.7398

> <Gold.Chemscore.Internal.Correction.Weighted>
   9.000000E+99

> <Gold.Protein.RotatedTorsions>
[ 6907 6896 6895 6894 ] final  173.52 input  -60.11 | X-H torsion
[ 7974 7965 7964 7962 ] final  -93.59 input  175.53 | X-H torsion
[ 8008 7997 7996 7995 ] final  -86.31 input   59.86 | X-H torsion
[ 10167 10162 10161 10158 ] final  118.84 input  -65.29 | X-H torsion
[ 10718 10713 10712 10709 ] final -163.34 input   66.30 | X-H torsion
[ 10763 10752 10751 10750 ] final   49.18 input  -60.55 | X-H torsion
[ 11005 11000 10999 10996 ] final  101.73 input  -57.11 | X-H torsion

> <Gold.Protein.ActiveResidues>
 VAL166  LYS551  ARG553  GLY616  TRP617  ASP618  TYR619  PRO620  LYS621  CYS622 
 ASP623  PHE694  ASN695  SER759  ASP760  ASP761  ALA762  ILE779  LEU786  VAL792 
 PHE793  MET794  SER795  GLU796  ALA797  LYS798  CYS799  TRP800  GLU811  SER814 

> <Gold.Protein.RotatedAtoms>
  151.7670  133.3338  159.3433 H   0  0  0  0  0  0  0  0  0  0  0  0  # atno 6907 bound_to 6896
  150.7476  134.6053  159.6067 H   0  0  0  0  0  0  0  0  0  0  0  0  # atno 6908 bound_to 6896
  152.3367  134.7191  160.0326 H   0  0  0  0  0  0  0  0  0  0  0  0  # atno 6909 bound_to 6896
  145.3846  140.9521  143.2375 H   0  0  0  0  0  0  0  0  0  0  0  0  # atno 7974 bound_to 7965
  154.6504  140.0580  156.9949 H   0  0  0  0  0  0  0  0  0  0  0  0  # atno 8008 bound_to 7997
  155.1380  140.3262  155.4440 H   0  0  0  0  0  0  0  0  0  0  0  0  # atno 8009 bound_to 7997
  156.2573  140.1969  156.6496 H   0  0  0  0  0  0  0  0  0  0  0  0  # atno 8010 bound_to 7997
  139.6085  144.7076  151.2897 H   0  0  0  0  0  0  0  0  0  0  0  0  # atno 10167 bound_to 10162
  156.6233  130.8899  151.2962 H   0  0  0  0  0  0  0  0  0  0  0  0  # atno 10718 bound_to 10713
  152.9788  135.5920  154.4047 H   0  0  0  0  0  0  0  0  0  0  0  0  # atno 10763 bound_to 10752
  154.3689  135.2767  155.2279 H   0  0  0  0  0  0  0  0  0  0  0  0  # atno 10764 bound_to 10752
  154.4244  135.6051  153.6084 H   0  0  0  0  0  0  0  0  0  0  0  0  # atno 10765 bound_to 10752
  139.8774  134.9195  156.4952 H   0  0  0  0  0  0  0  0  0  0  0  0  # atno 11005 bound_to 11000
  144.8483  139.5361  143.6868 LP  0  0  0  0  0  0  0  0  0  0  0  0  # atno 17320 bound_to 7965
  146.2826  139.6918  142.9218 LP  0  0  0  0  0  0  0  0  0  0  0  0  # atno 17321 bound_to 7965
  140.7302  143.6885  150.7941 LP  0  0  0  0  0  0  0  0  0  0  0  0  # atno 17342 bound_to 10162
  140.0476  143.5283  152.2689 LP  0  0  0  0  0  0  0  0  0  0  0  0  # atno 17343 bound_to 10162
  157.7221  130.9572  150.1482 LP  0  0  0  0  0  0  0  0  0  0  0  0  # atno 17370 bound_to 10713
  156.2293  130.3680  149.8463 LP  0  0  0  0  0  0  0  0  0  0  0  0  # atno 17371 bound_to 10713
  140.8630  133.8045  155.9284 LP  0  0  0  0  0  0  0  0  0  0  0  0  # atno 17394 bound_to 11000
  140.9030  134.2354  157.5030 LP  0  0  0  0  0  0  0  0  0  0  0  0  # atno 17395 bound_to 11000

$$$$
