AV-unprocessed.smi:184|AV-procd|sdf|1463|dock4
  -GOLD-   2262019273D 1   1.00000     0.00000
 Structure written by MMmdl.
 54 58  0  0  0  0  0  0  0  0  1 V2000
  149.7138  141.5693  155.0498 O   0  0  0  0  0  0  0  0  0  0  0  0
  150.4666  141.6961  156.0127 C   0  0  0  0  0  0  0  0  0  0  0  0
  151.0693  140.4423  156.6732 C   0  0  0  0  0  0  0  0  0  0  0  0
  151.9650  140.7091  157.8089 N   0  0  0  0  0  0  0  0  0  0  0  0
  152.2448  139.5782  158.4949 C   0  0  0  0  0  0  0  0  0  0  0  0
  151.2318  138.6951  158.6727 N   0  0  0  0  0  0  0  0  0  0  0  0
  151.4476  137.5582  159.3410 C   0  0  0  0  0  0  0  0  0  0  0  0
  152.5764  137.1221  159.9046 N   0  0  0  0  0  0  0  0  0  0  0  0
  153.5938  138.0149  159.7362 C   0  0  0  0  0  0  0  0  0  0  0  0
  153.5147  139.2612  159.0543 C   0  0  0  0  0  0  0  0  0  0  0  0
  154.7450  139.9049  159.0985 N   0  0  0  0  0  0  0  0  0  0  0  0
  155.5109  139.0812  159.7598 C   0  0  0  0  0  0  0  0  0  0  0  0
  154.9041  137.9157  160.1713 N   0  0  0  0  0  0  0  0  0  0  0  0
  155.5214  136.8291  160.9173 C   0  0  0  0  0  0  0  0  0  0  0  0
  155.9533  137.2172  162.3581 C   0  0  0  0  0  0  0  0  0  0  0  0
  156.9810  138.1855  162.2487 O   0  0  0  0  0  0  0  0  0  0  0  0
  154.7973  137.8648  163.1463 C   0  0  0  0  0  0  0  0  0  0  0  0
  153.7638  136.8181  163.6021 C   0  0  0  0  0  0  0  0  0  0  0  0
  154.4036  135.8020  164.3666 O   0  0  0  0  0  0  0  0  0  0  0  0
  155.3868  135.0844  163.6285 C   0  0  0  0  0  0  0  0  0  0  0  0
  156.5101  136.0394  163.1873 C   0  0  0  0  0  0  0  0  0  0  0  0
  151.7183  141.9270  158.5867 C   0  0  1  0  0  0  0  0  0  0  0  0
  152.7596  142.1868  159.7022 C   0  0  0  0  0  0  0  0  0  0  0  0
  152.4458  143.4896  160.4573 C   0  0  0  0  0  0  0  0  0  0  0  0
  152.3530  144.6908  159.5026 C   0  0  0  0  0  0  0  0  0  0  0  0
  151.3462  144.4315  158.3702 C   0  0  0  0  0  0  0  0  0  0  0  0
  151.6901  143.1322  157.6219 C   0  0  2  0  0  0  0  0  0  0  0  0
  150.7652  142.9045  156.5167 N   0  0  0  0  0  0  0  0  0  0  0  0
  150.2415  139.8054  156.9905 H   0  0  0  0  0  0  0  0  0  0  0  0
  151.6213  139.8885  155.9125 H   0  0  0  0  0  0  0  0  0  0  0  0
  150.5942  136.9033  159.4368 H   0  0  0  0  0  0  0  0  0  0  0  0
  156.5495  139.2998  159.9622 H   0  0  0  0  0  0  0  0  0  0  0  0
  154.8129  135.9998  160.9493 H   0  0  0  0  0  0  0  0  0  0  0  0
  156.3733  136.4684  160.3415 H   0  0  0  0  0  0  0  0  0  0  0  0
  156.6901  138.9809  162.6682 H   0  0  0  0  0  0  0  0  0  0  0  0
  155.1916  138.3617  164.0345 H   0  0  0  0  0  0  0  0  0  0  0  0
  154.3128  138.6411  162.5527 H   0  0  0  0  0  0  0  0  0  0  0  0
  153.0035  137.2931  164.2222 H   0  0  0  0  0  0  0  0  0  0  0  0
  153.2417  136.3762  162.7528 H   0  0  0  0  0  0  0  0  0  0  0  0
  155.7958  134.2980  164.2630 H   0  0  0  0  0  0  0  0  0  0  0  0
  154.9238  134.5898  162.7744 H   0  0  0  0  0  0  0  0  0  0  0  0
  157.2807  135.4946  162.6418 H   0  0  0  0  0  0  0  0  0  0  0  0
  156.9976  136.4244  164.0844 H   0  0  0  0  0  0  0  0  0  0  0  0
  150.7333  141.8373  159.0479 H   0  0  0  0  0  0  0  0  0  0  0  0
  152.7791  141.3672  160.4207 H   0  0  0  0  0  0  0  0  0  0  0  0
  153.7600  142.2428  159.2706 H   0  0  0  0  0  0  0  0  0  0  0  0
  151.5028  143.3788  160.9941 H   0  0  0  0  0  0  0  0  0  0  0  0
  153.2104  143.6740  161.2124 H   0  0  0  0  0  0  0  0  0  0  0  0
  152.0678  145.5854  160.0570 H   0  0  0  0  0  0  0  0  0  0  0  0
  153.3361  144.8925  159.0756 H   0  0  0  0  0  0  0  0  0  0  0  0
  150.3383  144.3676  158.7829 H   0  0  0  0  0  0  0  0  0  0  0  0
  151.3470  145.2759  157.6798 H   0  0  0  0  0  0  0  0  0  0  0  0
  152.6795  143.2458  157.1747 H   0  0  0  0  0  0  0  0  0  0  0  0
  150.3506  143.7179  156.0853 H   0  0  0  0  0  0  0  0  0  0  0  0
  1  2  2  0  0  0  0
  2 28  1  0  0  0  0
  2  3  1  0  0  0  0
  3  4  1  0  0  0  0
  3 29  1  0  0  0  0
  3 30  1  0  0  0  0
  4  5  1  0  0  0  0
  4 22  1  0  0  0  0
  5 10  1  0  0  0  0
  5  6  2  0  0  0  0
  6  7  1  0  0  0  0
  7  8  2  0  0  0  0
  7 31  1  0  0  0  0
  8  9  1  0  0  0  0
  9 13  1  0  0  0  0
  9 10  2  0  0  0  0
 10 11  1  0  0  0  0
 11 12  2  0  0  0  0
 12 13  1  0  0  0  0
 12 32  1  0  0  0  0
 13 14  1  0  0  0  0
 14 15  1  0  0  0  0
 14 33  1  0  0  0  0
 14 34  1  0  0  0  0
 15 21  1  0  0  0  0
 15 16  1  0  0  0  0
 15 17  1  0  0  0  0
 16 35  1  0  0  0  0
 17 18  1  0  0  0  0
 17 36  1  0  0  0  0
 17 37  1  0  0  0  0
 18 19  1  0  0  0  0
 18 38  1  0  0  0  0
 18 39  1  0  0  0  0
 19 20  1  0  0  0  0
 20 21  1  0  0  0  0
 20 40  1  0  0  0  0
 20 41  1  0  0  0  0
 21 42  1  0  0  0  0
 21 43  1  0  0  0  0
 22 27  1  0  0  0  0
 22 23  1  0  0  0  0
 22 44  1  0  0  0  0
 23 24  1  0  0  0  0
 23 45  1  0  0  0  0
 23 46  1  0  0  0  0
 24 25  1  0  0  0  0
 24 47  1  0  0  0  0
 24 48  1  0  0  0  0
 25 26  1  0  0  0  0
 25 49  1  0  0  0  0
 25 50  1  0  0  0  0
 26 27  1  0  0  0  0
 26 51  1  0  0  0  0
 26 52  1  0  0  0  0
 27 28  1  0  0  0  0
 27 53  1  0  0  0  0
 28 54  1  0  0  0  0
M  END
> <s_m_source_file>
AV-unprocessed.smi

> <i_m_source_file_index>
184

> <i_lp_mmshare_version>
43012

> <i_f3d_flags>
0

> <s_epik_input>
W0NIMl0xW0NIMl1bQ0gyXVtDSDJdW0NASF0oW0NASF0xMilbTkhdQyg9TylbQ0gyXU4yYyhuW2NIXW4zKWMoYzM0KW5bY0hdbjRbQ0gyXUM1KFtPSF0pW0NIMl1bQ0gyXU9bQ0gyXVtDSDJdNQ==

> <s_epik_cmdline>
J2VwaWtfcHl0aG9uJywgJy1waCcsICc3LjAnLCAnLXRuJywgJzgnLCAnLW1hJywgJzIwMCcsICctbWV0YWxfYmluZGluZycsICctaW1hZScsICc8aW5maWxlLm1hZT4nLCAnLW9tYWUnLCAnPG91dGZpbGUubWFlPic=

> <r_lp_tautomer_probability>
1

> <r_epik_Ionization_Penalty>
0.000822761

> <r_epik_Ionization_Penalty_Charging>
0

> <r_epik_Ionization_Penalty_Neutral>
0.000822761

> <r_epik_State_Penalty>
0.000403048

> <r_epik_Charging_Adjusted_Penalty>
0.000403048

> <i_epik_Tot_Q>
0

> <i_epik_Tot_abs_Q>
0

> <r_epik_Metal_State_Penalty>
-0

> <b_epik_Metal_Only>
0

> <s_lp_Force_Field>
OPLS_2005

> <r_lp_Energy>
32.8133

> <b_lp_Chiralities_Consistent>
1

> <s_lp_Variant>
AV-unprocessed.smi:184-3

> <Gold.Version>
5.8.1

> <Gold.Id.Protein>
6NUR|6NUR_protein|mol2

> <Gold.PLP.Fitness>
53.4337

> <Gold.PLP.PLP>
-45.5663

> <Gold.PLP.part.hbond>
-3.5051

> <Gold.PLP.part.metal>
0.0000

> <Gold.PLP.part.buried>
-8.0806

> <Gold.PLP.part.nonpolar>
-35.3888

> <Gold.PLP.part.repulsive>
0.3103

> <Gold.PLP.ligand.clash>
0.0000

> <Gold.PLP.ligand.torsion>
0.6384

> <Gold.PLP.Chemscore.Hbond>
2.9263

> <Gold.PLP.Chemscore.CHOScore>
0.0000

> <Gold.PLP.Chemscore.Metal>
0.0000

> <Gold.Chemscore.Hbonds>
donor molecule, donor type, donor heavy atom, donor atom, acceptor molecule, acceptor atom, score
      L1  H    28    54       P1  8028  1.00
      P1  H  6896  6908       L1     8  0.56
      P1  H  7997  8010       L1    11  0.90

> <Gold.PLP.Chemscore.Internal.Correction>
0.3655

> <Gold.Rescore>
     Score         DG    S(hbond)    S(metal)    S(lipo)     H(rot)  DE(clash)    DE(int)     intcor
     20.51     -21.23       2.38        0.00     114.02       2.17       0.00       0.71       ----

> <Gold.Chemscore.Fitness>
20.5134

> <Gold.Chemscore.DG>
-21.2290

> <Gold.Chemscore.ZeroCoef>
-5.4800

> <Gold.Chemscore.Hbond>
2.3838

> <Gold.Chemscore.Metal>
0.0000

> <Gold.Chemscore.Lipo>
114.0211

> <Gold.Chemscore.Internal_Hbond>
0.0000

> <Gold.Chemscore.DEClash>
0.0038

> <Gold.Chemscore.DEInternal>
0.7118

> <Gold.Chemscore.Rot>
2.1693

> <Gold.Chemscore.Internal.Correction>
   9.000000E+99

> <Gold.Chemscore.Hbonds>
donor molecule, donor type, donor heavy atom, donor atom, acceptor molecule, acceptor atom, score
      L1  H    28    54       P1  8028  0.96
      P1  H  6896  6908       L1     8  0.07
      P1  H  7997  8010       L1    11  0.16

> <Gold.Chemscore.Hbond.Weighted>
-7.9618

> <Gold.Chemscore.Metal.Weighted>
-0.0000

> <Gold.Chemscore.Lipo.Weighted>
-13.3405

> <Gold.Chemscore.Internal_Hbond.Weighted>
0.0000

> <Gold.Chemscore.DEClash.Weighted>
0.0038

> <Gold.Chemscore.DEInternal.Weighted>
0.7118

> <Gold.Chemscore.Rot.Weighted>
5.5533

> <Gold.Chemscore.Internal.Correction.Weighted>
   9.000000E+99

> <Gold.Protein.RotatedTorsions>
[ 6907 6896 6895 6894 ] final  -98.12 input  -60.11 | X-H torsion
[ 7974 7965 7964 7962 ] final  150.56 input  175.53 | X-H torsion
[ 8008 7997 7996 7995 ] final    4.67 input   59.86 | X-H torsion
[ 10167 10162 10161 10158 ] final -115.51 input  -65.29 | X-H torsion
[ 10718 10713 10712 10709 ] final   33.22 input   66.30 | X-H torsion
[ 10763 10752 10751 10750 ] final -159.97 input  -60.55 | X-H torsion
[ 11005 11000 10999 10996 ] final  161.89 input  -57.11 | X-H torsion

> <Gold.Protein.ActiveResidues>
 VAL166  LYS551  ARG553  GLY616  TRP617  ASP618  TYR619  PRO620  LYS621  CYS622 
 ASP623  PHE694  ASN695  SER759  ASP760  ASP761  ALA762  ILE779  LEU786  VAL792 
 PHE793  MET794  SER795  GLU796  ALA797  LYS798  CYS799  TRP800  GLU811  SER814 

> <Gold.Protein.RotatedAtoms>
  150.7037  134.1243  159.4046 H   0  0  0  0  0  0  0  0  0  0  0  0  # atno 6907 bound_to 6896
  151.9229  135.0288  160.0533 H   0  0  0  0  0  0  0  0  0  0  0  0  # atno 6908 bound_to 6896
  152.2241  133.4971  159.5215 H   0  0  0  0  0  0  0  0  0  0  0  0  # atno 6909 bound_to 6896
  144.8355  139.6425  143.6040 H   0  0  0  0  0  0  0  0  0  0  0  0  # atno 7974 bound_to 7965
  154.7188  140.2707  155.6560 H   0  0  0  0  0  0  0  0  0  0  0  0  # atno 8008 bound_to 7997
  156.2817  140.2738  156.1778 H   0  0  0  0  0  0  0  0  0  0  0  0  # atno 8009 bound_to 7997
  155.0534  140.0371  157.2542 H   0  0  0  0  0  0  0  0  0  0  0  0  # atno 8010 bound_to 7997
  140.0893  143.4715  152.1880 H   0  0  0  0  0  0  0  0  0  0  0  0  # atno 10167 bound_to 10162
  157.2951  130.7322  149.6634 H   0  0  0  0  0  0  0  0  0  0  0  0  # atno 10718 bound_to 10713
  154.7430  135.3073  154.8694 H   0  0  0  0  0  0  0  0  0  0  0  0  # atno 10763 bound_to 10752
  153.9503  135.6764  153.4748 H   0  0  0  0  0  0  0  0  0  0  0  0  # atno 10764 bound_to 10752
  153.1028  135.4904  154.8822 H   0  0  0  0  0  0  0  0  0  0  0  0  # atno 10765 bound_to 10752
  140.2202  134.8201  157.3213 H   0  0  0  0  0  0  0  0  0  0  0  0  # atno 11005 bound_to 11000
  146.2654  139.6508  142.9333 LP  0  0  0  0  0  0  0  0  0  0  0  0  # atno 17320 bound_to 7965
  145.4804  141.0438  143.2649 LP  0  0  0  0  0  0  0  0  0  0  0  0  # atno 17321 bound_to 7965
  139.5734  144.7475  151.3829 LP  0  0  0  0  0  0  0  0  0  0  0  0  # atno 17342 bound_to 10162
  140.7037  143.7567  150.7446 LP  0  0  0  0  0  0  0  0  0  0  0  0  # atno 17343 bound_to 10162
  155.9669  130.4297  150.4843 LP  0  0  0  0  0  0  0  0  0  0  0  0  # atno 17370 bound_to 10713
  157.2813  131.0607  151.2196 LP  0  0  0  0  0  0  0  0  0  0  0  0  # atno 17371 bound_to 10713
  140.1857  134.4434  155.7745 LP  0  0  0  0  0  0  0  0  0  0  0  0  # atno 17394 bound_to 11000
  141.2223  133.7004  156.7943 LP  0  0  0  0  0  0  0  0  0  0  0  0  # atno 17395 bound_to 11000

$$$$
