AV-unprocessed.smi:110|AV-procd|sdf|1069|dock6
  -GOLD-   2262018153D 1   1.00000     0.00000
 Structure written by MMmdl.
 46 50  0  0  0  0  0  0  0  0  1 V2000
  147.0476  137.0559  153.3139 O   0  0  0  0  0  0  0  0  0  0  0  0
  147.0789  137.2977  154.7044 C   0  0  0  0  0  0  0  0  0  0  0  0
  147.7162  138.6664  154.9882 C   0  0  1  0  0  0  0  0  0  0  0  0
  149.0596  138.6725  154.5290 O   0  0  0  0  0  0  0  0  0  0  0  0
  149.4696  139.9804  154.2931 C   0  0  2  0  0  0  0  0  0  0  0  0
  150.1699  140.4896  155.5251 N   0  0  0  0  0  0  0  0  0  0  0  0
  149.8631  141.6533  156.1946 C   0  0  0  0  0  0  0  0  0  0  0  0
  150.6092  141.9265  157.2278 N   0  0  0  0  0  0  0  0  0  0  0  0
  151.5330  140.8912  157.2644 C   0  0  0  0  0  0  0  0  0  0  0  0
  152.6264  140.5657  158.1180 C   0  0  0  0  0  0  0  0  0  0  0  0
  153.0129  141.2981  159.1883 N   0  0  0  0  0  0  0  0  0  0  0  0
  153.4798  140.5858  160.3871 C   0  0  0  0  0  0  0  0  0  0  0  0
  153.2978  141.5267  161.5932 C   0  0  0  0  0  0  0  0  0  0  0  0
  152.8038  142.7641  160.9170 C   0  0  0  0  0  0  0  0  0  0  0  0
  152.5080  144.0022  161.5136 C   0  0  0  0  0  0  0  0  0  0  0  0
  152.0677  145.0533  160.6808 C   0  0  0  0  0  0  0  0  0  0  0  0
  151.9398  144.8547  159.2863 C   0  0  0  0  0  0  0  0  0  0  0  0
  152.2442  143.6023  158.7089 C   0  0  0  0  0  0  0  0  0  0  0  0
  152.6649  142.5512  159.5494 C   0  0  0  0  0  0  0  0  0  0  0  0
  153.2969  139.4128  157.8722 N   0  0  0  0  0  0  0  0  0  0  0  0
  152.9504  138.6456  156.8369 C   0  0  0  0  0  0  0  0  0  0  0  0
  151.9706  138.8348  155.9526 N   0  0  0  0  0  0  0  0  0  0  0  0
  151.2658  139.9769  156.2033 C   0  0  0  0  0  0  0  0  0  0  0  0
  148.2191  140.7890  153.9079 C   0  0  1  0  0  0  0  0  0  0  0  0
  148.2384  141.1314  152.5364 O   0  0  0  0  0  0  0  0  0  0  0  0
  147.0710  139.8154  154.1957 C   0  0  2  0  0  0  0  0  0  0  0  0
  146.0693  140.4389  154.9742 O   0  0  0  0  0  0  0  0  0  0  0  0
  147.7007  138.8787  156.0575 H   0  0  0  0  0  0  0  0  0  0  0  0
  150.2468  139.9980  153.5279 H   0  0  0  0  0  0  0  0  0  0  0  0
  148.1623  141.7135  154.4817 H   0  0  0  0  0  0  0  0  0  0  0  0
  146.6382  139.4389  153.2670 H   0  0  0  0  0  0  0  0  0  0  0  0
  147.8201  136.5658  153.0767 H   0  0  0  0  0  0  0  0  0  0  0  0
  146.0750  137.2316  155.1249 H   0  0  0  0  0  0  0  0  0  0  0  0
  147.6748  136.5060  155.1597 H   0  0  0  0  0  0  0  0  0  0  0  0
  149.0535  142.3012  155.8915 H   0  0  0  0  0  0  0  0  0  0  0  0
  152.9218  139.6592  160.5298 H   0  0  0  0  0  0  0  0  0  0  0  0
  154.5311  140.3239  160.2615 H   0  0  0  0  0  0  0  0  0  0  0  0
  152.5524  141.1520  162.2952 H   0  0  0  0  0  0  0  0  0  0  0  0
  154.2340  141.7111  162.1203 H   0  0  0  0  0  0  0  0  0  0  0  0
  152.6170  144.1469  162.5782 H   0  0  0  0  0  0  0  0  0  0  0  0
  151.8327  146.0162  161.1099 H   0  0  0  0  0  0  0  0  0  0  0  0
  151.6098  145.6677  158.6566 H   0  0  0  0  0  0  0  0  0  0  0  0
  152.1560  143.4596  157.6420 H   0  0  0  0  0  0  0  0  0  0  0  0
  153.5405  137.7519  156.6983 H   0  0  0  0  0  0  0  0  0  0  0  0
  148.5090  140.3728  152.0421 H   0  0  0  0  0  0  0  0  0  0  0  0
  145.2259  140.2027  154.6178 H   0  0  0  0  0  0  0  0  0  0  0  0
  1  2  1  0  0  0  0
  1 32  1  0  0  0  0
  2  3  1  0  0  0  0
  2 33  1  0  0  0  0
  2 34  1  0  0  0  0
  3 28  1  0  0  0  0
  3 26  1  0  0  0  0
  3  4  1  0  0  0  0
  4  5  1  0  0  0  0
  5 29  1  0  0  0  0
  5  6  1  0  0  0  0
  5 24  1  0  0  0  0
  6 23  1  0  0  0  0
  6  7  1  0  0  0  0
  7  8  2  0  0  0  0
  7 35  1  0  0  0  0
  8  9  1  0  0  0  0
  9 23  2  0  0  0  0
  9 10  1  0  0  0  0
 10 11  1  0  0  0  0
 10 20  2  0  0  0  0
 11 19  1  0  0  0  0
 11 12  1  0  0  0  0
 12 13  1  0  0  0  0
 12 36  1  0  0  0  0
 12 37  1  0  0  0  0
 13 14  1  0  0  0  0
 13 38  1  0  0  0  0
 13 39  1  0  0  0  0
 14 19  2  0  0  0  0
 14 15  1  0  0  0  0
 15 16  2  0  0  0  0
 15 40  1  0  0  0  0
 16 17  1  0  0  0  0
 16 41  1  0  0  0  0
 17 18  2  0  0  0  0
 17 42  1  0  0  0  0
 18 19  1  0  0  0  0
 18 43  1  0  0  0  0
 20 21  1  0  0  0  0
 21 22  2  0  0  0  0
 21 44  1  0  0  0  0
 22 23  1  0  0  0  0
 24 30  1  0  0  0  0
 24 25  1  0  0  0  0
 24 26  1  0  0  0  0
 25 45  1  0  0  0  0
 26 31  1  0  0  0  0
 26 27  1  0  0  0  0
 27 46  1  0  0  0  0
M  END
> <s_m_source_file>
AV-unprocessed.smi

> <i_m_source_file_index>
110

> <i_lp_mmshare_version>
43012

> <i_f3d_flags>
0

> <s_epik_input>
W09IXVtDSDJdW0NASF0xT1tDQEhdKFtDQEhdKFtPSF0pW0NAQEhdMVtPSF0pbihbY0hdbjIpYyhjMjMpbltjSF1uYzNOKFtDSDJdW0NIMl00KWMoYzQ1KVtjSF1bY0hdW2NIXVtjSF01

> <s_epik_cmdline>
J2VwaWtfcHl0aG9uJywgJy1waCcsICc3LjAnLCAnLXRuJywgJzgnLCAnLW1hJywgJzIwMCcsICctbWV0YWxfYmluZGluZycsICctaW1hZScsICc8aW5maWxlLm1hZT4nLCAnLW9tYWUnLCAnPG91dGZpbGUubWFlPic=

> <r_lp_tautomer_probability>
1

> <r_epik_Ionization_Penalty>
0.00068475

> <r_epik_Ionization_Penalty_Charging>
0

> <r_epik_Ionization_Penalty_Neutral>
0.00068475

> <r_epik_State_Penalty>
0.000417442

> <r_epik_Charging_Adjusted_Penalty>
0.000417442

> <i_epik_Tot_Q>
0

> <i_epik_Tot_abs_Q>
0

> <r_epik_Metal_State_Penalty>
-0

> <b_epik_Metal_Only>
0

> <s_epik_Chemistry_Notes>
This compound contains an acetal/aminal-like group ( X-CH(R)-Y where X, Y are N, S, or O) that may be acid/base labile, releasing an aldehyde.

> <s_lp_Force_Field>
OPLS_2005

> <r_lp_Energy>
55.3724

> <b_lp_Chiralities_Consistent>
1

> <s_lp_Variant>
AV-unprocessed.smi:110-7

> <Gold.Version>
5.8.1

> <Gold.Id.Protein>
6NUR|6NUR_protein|mol2

> <Gold.PLP.Fitness>
60.0434

> <Gold.PLP.PLP>
-47.1841

> <Gold.PLP.part.hbond>
-3.3810

> <Gold.PLP.part.metal>
0.0000

> <Gold.PLP.part.buried>
1.9387

> <Gold.PLP.part.nonpolar>
-44.1178

> <Gold.PLP.part.repulsive>
0.2532

> <Gold.PLP.ligand.clash>
0.0000

> <Gold.PLP.ligand.torsion>
0.3757

> <Gold.PLP.Chemscore.Hbond>
3.4852

> <Gold.PLP.Chemscore.CHOScore>
1.0000

> <Gold.PLP.Chemscore.Metal>
0.0000

> <Gold.Chemscore.Hbonds>
donor molecule, donor type, donor heavy atom, donor atom, acceptor molecule, acceptor atom, score
      L1  H     1    32       P1  7948  0.91
      L1  H    25    45       P1  7957  0.54
      P1  H  7997  8010       L1    20  0.75
      P1  H  8011  8017       L1    25  0.86
      L1  C     7    35       P1  8028  1.00

> <Gold.PLP.Chemscore.Internal.Correction>
0.1551

> <Gold.Rescore>
     Score         DG    S(hbond)    S(metal)    S(lipo)     H(rot)  DE(clash)    DE(int)     intcor
     12.68     -16.68       1.99        0.00     112.86       3.38       2.22       1.78       ----

> <Gold.Chemscore.Fitness>
12.6795

> <Gold.Chemscore.DG>
-16.6759

> <Gold.Chemscore.ZeroCoef>
-5.4800

> <Gold.Chemscore.Hbond>
1.9920

> <Gold.Chemscore.Metal>
0.0000

> <Gold.Chemscore.Lipo>
112.8611

> <Gold.Chemscore.Internal_Hbond>
0.0000

> <Gold.Chemscore.DEClash>
2.2204

> <Gold.Chemscore.DEInternal>
1.7760

> <Gold.Chemscore.Rot>
3.3837

> <Gold.Chemscore.Internal.Correction>
   9.000000E+99

> <Gold.Chemscore.Hbonds>
donor molecule, donor type, donor heavy atom, donor atom, acceptor molecule, acceptor atom, score
      L1  H     1    32       P1  7948  0.90
      L1  H    25    45       P1  7957  0.54
      P1  H  7997  8010       L1    20  0.03
      P1  H  8011  8017       L1    25  0.18

> <Gold.Chemscore.Hbond.Weighted>
-6.6534

> <Gold.Chemscore.Metal.Weighted>
-0.0000

> <Gold.Chemscore.Lipo.Weighted>
-13.2047

> <Gold.Chemscore.Internal_Hbond.Weighted>
0.0000

> <Gold.Chemscore.DEClash.Weighted>
2.2204

> <Gold.Chemscore.DEInternal.Weighted>
1.7760

> <Gold.Chemscore.Rot.Weighted>
8.6622

> <Gold.Chemscore.Internal.Correction.Weighted>
   9.000000E+99

> <Gold.Protein.RotatedTorsions>
[ 6907 6896 6895 6894 ] final -170.63 input  -60.11 | X-H torsion
[ 7974 7965 7964 7962 ] final  -17.50 input  175.53 | X-H torsion
[ 8008 7997 7996 7995 ] final   22.28 input   59.86 | X-H torsion
[ 10167 10162 10161 10158 ] final  122.82 input  -65.29 | X-H torsion
[ 10718 10713 10712 10709 ] final   52.55 input   66.30 | X-H torsion
[ 10763 10752 10751 10750 ] final   90.47 input  -60.55 | X-H torsion
[ 11005 11000 10999 10996 ] final  101.67 input  -57.11 | X-H torsion

> <Gold.Protein.ActiveResidues>
 VAL166  LYS551  ARG553  GLY616  TRP617  ASP618  TYR619  PRO620  LYS621  CYS622 
 ASP623  PHE694  ASN695  SER759  ASP760  ASP761  ALA762  ILE779  LEU786  VAL792 
 PHE793  MET794  SER795  GLU796  ALA797  LYS798  CYS799  TRP800  GLU811  SER814 

> <Gold.Protein.RotatedAtoms>
  151.5109  133.3485  159.2884 H   0  0  0  0  0  0  0  0  0  0  0  0  # atno 6907 bound_to 6896
  150.8713  134.8089  159.7168 H   0  0  0  0  0  0  0  0  0  0  0  0  # atno 6908 bound_to 6896
  152.4700  134.4993  159.9771 H   0  0  0  0  0  0  0  0  0  0  0  0  # atno 6909 bound_to 6896
  146.1938  140.3788  142.8448 H   0  0  0  0  0  0  0  0  0  0  0  0  # atno 7974 bound_to 7965
  154.9633  140.3081  155.5021 H   0  0  0  0  0  0  0  0  0  0  0  0  # atno 8008 bound_to 7997
  156.2974  140.2297  156.4659 H   0  0  0  0  0  0  0  0  0  0  0  0  # atno 8009 bound_to 7997
  154.7944  140.0438  157.1214 H   0  0  0  0  0  0  0  0  0  0  0  0  # atno 8010 bound_to 7997
  139.5836  144.6997  151.3467 H   0  0  0  0  0  0  0  0  0  0  0  0  # atno 10167 bound_to 10162
  157.5085  130.8485  149.8405 H   0  0  0  0  0  0  0  0  0  0  0  0  # atno 10718 bound_to 10713
  153.1979  135.4432  155.0231 H   0  0  0  0  0  0  0  0  0  0  0  0  # atno 10763 bound_to 10752
  154.8130  135.3302  154.7257 H   0  0  0  0  0  0  0  0  0  0  0  0  # atno 10764 bound_to 10752
  153.7705  135.6985  153.4963 H   0  0  0  0  0  0  0  0  0  0  0  0  # atno 10765 bound_to 10752
  139.8774  134.9192  156.4941 H   0  0  0  0  0  0  0  0  0  0  0  0  # atno 11005 bound_to 11000
  144.8539  140.7041  143.6150 LP  0  0  0  0  0  0  0  0  0  0  0  0  # atno 17320 bound_to 7965
  145.3709  139.1659  143.4332 LP  0  0  0  0  0  0  0  0  0  0  0  0  # atno 17321 bound_to 7965
  140.7111  143.7389  150.7568 LP  0  0  0  0  0  0  0  0  0  0  0  0  # atno 17342 bound_to 10162
  140.0927  143.4862  152.2469 LP  0  0  0  0  0  0  0  0  0  0  0  0  # atno 17343 bound_to 10162
  156.0274  130.3775  150.1784 LP  0  0  0  0  0  0  0  0  0  0  0  0  # atno 17370 bound_to 10713
  156.9974  130.9912  151.3399 LP  0  0  0  0  0  0  0  0  0  0  0  0  # atno 17371 bound_to 10713
  140.8637  133.8040  155.9292 LP  0  0  0  0  0  0  0  0  0  0  0  0  # atno 17394 bound_to 11000
  140.9023  134.2363  157.5034 LP  0  0  0  0  0  0  0  0  0  0  0  0  # atno 17395 bound_to 11000

$$$$
