AV-unprocessed.smi:1196|AV-procd|sdf|5002|dock5
  -GOLD-   22720 4 13D 1   1.00000     0.00000
 Structure written by MMmdl.
 36 37  0  0  0  0  0  0  0  0  2 V2000
  149.4710  141.2386  155.9154 C   0  0  0  0  0  0  0  0  0  0  0  0
  150.0794  141.4306  157.3135 C   0  0  2  0  0  0  0  0  0  0  0  0
  151.5084  142.0020  157.2319 C   0  0  0  0  0  0  0  0  0  0  0  0
  151.7108  143.1174  158.1398 N   0  0  0  0  0  0  0  0  0  0  0  0
  151.4481  144.4543  157.9272 C   0  0  0  0  0  0  0  0  0  0  0  0
  151.8095  145.1247  159.0604 C   0  0  0  0  0  0  0  0  0  0  0  0
  152.2891  144.0983  159.9213 C   0  0  0  0  0  0  0  0  0  0  0  0
  152.2275  142.8978  159.3681 N   0  0  0  0  0  0  0  0  0  0  0  0
  150.0905  140.1591  158.0341 N   0  0  0  0  0  0  0  0  0  0  0  0
  150.8251  139.0850  157.7083 C   0  0  0  0  0  0  0  0  0  0  0  0
  151.6133  139.0694  156.7619 O   0  0  0  0  0  0  0  0  0  0  0  0
  150.6271  137.8526  158.5964 C   0  0  0  0  0  0  0  0  0  0  0  0
  149.1554  137.5875  158.9713 C   0  0  0  0  0  0  0  0  0  0  0  0
  149.0023  136.6623  160.1969 C   0  0  1  0  0  0  0  0  0  0  0  0
  147.9867  137.1545  161.1116 N   0  5  0  0  0  0  0  0  0  0  0  0
  147.0312  136.2044  161.2442 C   0  0  0  0  0  0  0  0  0  0  0  0
  146.0164  136.2504  161.9356 O   0  0  0  0  0  0  0  0  0  0  0  0
  147.3186  135.1362  160.4931 N   0  0  0  0  0  0  0  0  0  0  0  0
  148.4535  135.2992  159.8209 C   0  0  0  0  0  0  0  0  0  0  0  0
  148.9791  134.5091  159.0381 O   0  0  0  0  0  0  0  0  0  0  0  0
  149.4437  142.1813  155.3687 H   0  0  0  0  0  0  0  0  0  0  0  0
  148.4475  140.8674  155.9761 H   0  0  0  0  0  0  0  0  0  0  0  0
  150.0491  140.5273  155.3246 H   0  0  0  0  0  0  0  0  0  0  0  0
  149.4594  142.1456  157.8580 H   0  0  0  0  0  0  0  0  0  0  0  0
  152.2456  141.2297  157.4565 H   0  0  0  0  0  0  0  0  0  0  0  0
  151.7188  142.3459  156.2181 H   0  0  0  0  0  0  0  0  0  0  0  0
  151.0349  144.8132  156.9962 H   0  0  0  0  0  0  0  0  0  0  0  0
  151.7437  146.1866  159.2450 H   0  0  0  0  0  0  0  0  0  0  0  0
  152.6773  144.1895  160.9250 H   0  0  0  0  0  0  0  0  0  0  0  0
  149.4729  140.0813  158.8290 H   0  0  0  0  0  0  0  0  0  0  0  0
  151.0385  136.9841  158.0811 H   0  0  0  0  0  0  0  0  0  0  0  0
  151.2191  137.9886  159.5024 H   0  0  0  0  0  0  0  0  0  0  0  0
  148.6413  138.5336  159.1521 H   0  0  0  0  0  0  0  0  0  0  0  0
  148.6540  137.1298  158.1166 H   0  0  0  0  0  0  0  0  0  0  0  0
  149.9687  136.5204  160.6826 H   0  0  0  0  0  0  0  0  0  0  0  0
  146.7385  134.3128  160.4351 H   0  0  0  0  0  0  0  0  0  0  0  0
  1  2  1  0  0  0  0
  1 21  1  0  0  0  0
  1 22  1  0  0  0  0
  1 23  1  0  0  0  0
  2  3  1  0  0  0  0
  2  9  1  0  0  0  0
  2 24  1  0  0  0  0
  3  4  1  0  0  0  0
  3 25  1  0  0  0  0
  3 26  1  0  0  0  0
  4  8  1  0  0  0  0
  4  5  1  0  0  0  0
  5  6  2  0  0  0  0
  5 27  1  0  0  0  0
  6  7  1  0  0  0  0
  6 28  1  0  0  0  0
  7  8  2  0  0  0  0
  7 29  1  0  0  0  0
  9 10  1  0  0  0  0
  9 30  1  0  0  0  0
 10 11  2  0  0  0  0
 10 12  1  0  0  0  0
 12 13  1  0  0  0  0
 12 31  1  0  0  0  0
 12 32  1  0  0  0  0
 13 14  1  0  0  0  0
 13 33  1  0  0  0  0
 13 34  1  0  0  0  0
 14 19  1  0  0  0  0
 14 15  1  0  0  0  0
 14 35  1  0  0  0  0
 15 16  1  0  0  0  0
 16 17  2  0  0  0  0
 16 18  1  0  0  0  0
 18 19  1  0  0  0  0
 18 36  1  0  0  0  0
 19 20  2  0  0  0  0
M  CHG  1  15  -1
M  END
> <s_m_source_file>
AV-unprocessed.smi

> <i_m_source_file_index>
1196

> <i_lp_mmshare_version>
43012

> <i_f3d_flags>
0

> <s_epik_input>
bjFbY0hdW2NIXVtjSF1uMVtDSDJdW0NAQEhdKFtDSDNdKVtOSF1DKD1PKVtDSDJdW0NIMl1bQ0BASF0yW05IXUMoPU8pW05IXUMyPU8=

> <s_epik_cmdline>
J2VwaWtfcHl0aG9uJywgJy1waCcsICc3LjAnLCAnLXRuJywgJzgnLCAnLW1hJywgJzIwMCcsICctbWV0YWxfYmluZGluZycsICctaW1hZScsICc8aW5maWxlLm1hZT4nLCAnLW9tYWUnLCAnPG91dGZpbGUubWFlPic=

> <r_lp_tautomer_probability>
1

> <r_epik_Ionization_Penalty>
5.79547

> <r_epik_Ionization_Penalty_Charging>
5.79516

> <r_epik_Ionization_Penalty_Neutral>
0.000313087

> <r_epik_State_Penalty>
5.80096

> <r_epik_Charging_Adjusted_Penalty>
11.5961

> <i_epik_Tot_Q>
-1

> <i_epik_Tot_abs_Q>
1

> <r_epik_Metal_State_Penalty>
2.14443

> <b_epik_Metal_Only>
1

> <s_lp_Force_Field>
OPLS_2005

> <r_lp_Energy>
10.7967

> <b_lp_Chiralities_Consistent>
1

> <s_lp_Variant>
AV-unprocessed.smi:1196-7

> <Gold.Version>
5.8.1

> <Gold.Id.Protein>
6NUR|6NUR_protein|mol2

> <Gold.PLP.Fitness>
45.7221

> <Gold.PLP.PLP>
-33.3605

> <Gold.PLP.part.hbond>
-3.0000

> <Gold.PLP.part.metal>
0.0000

> <Gold.PLP.part.buried>
-5.3918

> <Gold.PLP.part.nonpolar>
-24.8526

> <Gold.PLP.part.repulsive>
0.1663

> <Gold.PLP.ligand.clash>
0.0000

> <Gold.PLP.ligand.torsion>
2.0476

> <Gold.PLP.Chemscore.Hbond>
4.4560

> <Gold.PLP.Chemscore.CHOScore>
1.0000

> <Gold.PLP.Chemscore.Metal>
0.0000

> <Gold.Chemscore.Hbonds>
donor molecule, donor type, donor heavy atom, donor atom, acceptor molecule, acceptor atom, score
      P1  H  6896  6909       L1    20  1.00
      P1  H  6931  6943       L1    15  1.50
      P1  H  6934  6947       L1    15  1.46
      L1  C     5    27       P1  8028  1.00

> <Gold.PLP.Chemscore.Internal.Correction>
0.0889

> <Gold.Rescore>
     Score         DG    S(hbond)    S(metal)    S(lipo)     H(rot)  DE(clash)    DE(int)     intcor
      9.92     -12.60       1.94        0.00      68.73       2.89       0.00       2.68       ----

> <Gold.Chemscore.Fitness>
9.9222

> <Gold.Chemscore.DG>
-12.6033

> <Gold.Chemscore.ZeroCoef>
-5.4800

> <Gold.Chemscore.Hbond>
1.9437

> <Gold.Chemscore.Metal>
0.0000

> <Gold.Chemscore.Lipo>
68.7306

> <Gold.Chemscore.Internal_Hbond>
0.0000

> <Gold.Chemscore.DEClash>
0.0004

> <Gold.Chemscore.DEInternal>
2.6806

> <Gold.Chemscore.Rot>
2.8946

> <Gold.Chemscore.Internal.Correction>
   9.000000E+99

> <Gold.Chemscore.Hbonds>
donor molecule, donor type, donor heavy atom, donor atom, acceptor molecule, acceptor atom, score
      P1  H  6896  6909       L1    20  0.88
      P1  H  6931  6943       L1    15  0.09
      P1  H  6934  6947       L1    15  0.58

> <Gold.Chemscore.Hbond.Weighted>
-6.4919

> <Gold.Chemscore.Metal.Weighted>
-0.0000

> <Gold.Chemscore.Lipo.Weighted>
-8.0415

> <Gold.Chemscore.Internal_Hbond.Weighted>
0.0000

> <Gold.Chemscore.DEClash.Weighted>
0.0004

> <Gold.Chemscore.DEInternal.Weighted>
2.6806

> <Gold.Chemscore.Rot.Weighted>
7.4101

> <Gold.Chemscore.Internal.Correction.Weighted>
   9.000000E+99

> <Gold.Protein.RotatedTorsions>
[ 6907 6896 6895 6894 ] final   19.55 input  -60.11 | X-H torsion
[ 7974 7965 7964 7962 ] final  -14.66 input  175.53 | X-H torsion
[ 8008 7997 7996 7995 ] final  -25.09 input   59.86 | X-H torsion
[ 10167 10162 10161 10158 ] final -132.05 input  -65.29 | X-H torsion
[ 10718 10713 10712 10709 ] final  -16.78 input   66.30 | X-H torsion
[ 10763 10752 10751 10750 ] final   32.03 input  -60.55 | X-H torsion
[ 11005 11000 10999 10996 ] final   46.33 input  -57.11 | X-H torsion

> <Gold.Protein.ActiveResidues>
 VAL166  LYS551  ARG553  GLY616  TRP617  ASP618  TYR619  PRO620  LYS621  CYS622 
 ASP623  PHE694  ASN695  SER759  ASP760  ASP761  ALA762  ILE779  LEU786  VAL792 
 PHE793  MET794  SER795  GLU796  ALA797  LYS798  CYS799  TRP800  GLU811  SER814 

> <Gold.Protein.RotatedAtoms>
  151.8826  135.0447  160.0489 H   0  0  0  0  0  0  0  0  0  0  0  0  # atno 6907 bound_to 6896
  152.2500  133.5202  159.5328 H   0  0  0  0  0  0  0  0  0  0  0  0  # atno 6908 bound_to 6896
  150.7081  134.0889  159.3967 H   0  0  0  0  0  0  0  0  0  0  0  0  # atno 6909 bound_to 6896
  146.2065  140.3380  142.8405 H   0  0  0  0  0  0  0  0  0  0  0  0  # atno 7974 bound_to 7965
  154.4494  140.1936  156.0566 H   0  0  0  0  0  0  0  0  0  0  0  0  # atno 8008 bound_to 7997
  156.0614  140.3296  155.7439 H   0  0  0  0  0  0  0  0  0  0  0  0  # atno 8009 bound_to 7997
  155.5405  140.0586  157.2861 H   0  0  0  0  0  0  0  0  0  0  0  0  # atno 8010 bound_to 7997
  139.9125  143.6477  152.2572 H   0  0  0  0  0  0  0  0  0  0  0  0  # atno 10167 bound_to 10162
  156.5827  130.4778  149.6313 H   0  0  0  0  0  0  0  0  0  0  0  0  # atno 10718 bound_to 10713
  153.0284  135.6424  154.1291 H   0  0  0  0  0  0  0  0  0  0  0  0  # atno 10763 bound_to 10752
  154.1017  135.2859  155.3252 H   0  0  0  0  0  0  0  0  0  0  0  0  # atno 10764 bound_to 10752
  154.6394  135.5465  153.7835 H   0  0  0  0  0  0  0  0  0  0  0  0  # atno 10765 bound_to 10752
  140.1379  134.4621  155.8472 H   0  0  0  0  0  0  0  0  0  0  0  0  # atno 11005 bound_to 11000
  144.8805  140.7394  143.5989 LP  0  0  0  0  0  0  0  0  0  0  0  0  # atno 17320 bound_to 7965
  145.3300  139.1762  143.4542 LP  0  0  0  0  0  0  0  0  0  0  0  0  # atno 17321 bound_to 7965
  139.6930  144.7644  151.1405 LP  0  0  0  0  0  0  0  0  0  0  0  0  # atno 17342 bound_to 10162
  140.7682  143.5562  150.9149 LP  0  0  0  0  0  0  0  0  0  0  0  0  # atno 17343 bound_to 10162
  156.2617  130.6966  151.1737 LP  0  0  0  0  0  0  0  0  0  0  0  0  # atno 17370 bound_to 10713
  157.7322  131.0601  150.5637 LP  0  0  0  0  0  0  0  0  0  0  0  0  # atno 17371 bound_to 10713
  141.2181  133.6821  156.7191 LP  0  0  0  0  0  0  0  0  0  0  0  0  # atno 17394 bound_to 11000
  140.2759  134.8355  157.3890 LP  0  0  0  0  0  0  0  0  0  0  0  0  # atno 17395 bound_to 11000

$$$$
