AV-unprocessed.smi:39|AV-procd|sdf|352|dock6
  -GOLD-   2262016193D 1   1.00000     0.00000
 Structure written by MMmdl.
 32 33  0  0  0  0  0  0  0  0  3 V2000
  152.5526  142.8663  160.2381 C   0  0  0  0  0  0  0  0  0  0  0  0
  151.9481  142.4126  158.9195 C   0  0  0  0  0  0  0  0  0  0  0  0
  151.9835  141.1183  158.5097 C   0  0  0  0  0  0  0  0  0  0  0  0
  151.4383  140.6739  157.3102 N   0  0  0  0  0  0  0  0  0  0  0  0
  151.4985  139.2250  156.8657 C   0  0  2  0  0  0  0  0  0  0  0  0
  150.5277  138.3608  157.6885 C   0  0  0  0  0  0  0  0  0  0  0  0
  151.4126  137.2192  158.1585 C   0  0  2  0  0  0  0  0  0  0  0  0
  150.9442  136.6575  159.4291 N   0  0  0  0  0  0  0  0  0  0  0  0
  149.7888  136.9407  159.7721 N   0  3  0  0  0  0  0  0  0  0  0  0
  148.6902  137.1589  159.9741 N   0  5  0  0  0  0  0  0  0  0  0  0
  152.7737  137.9115  158.2668 C   0  0  1  0  0  0  0  0  0  0  0  0
  153.9764  136.9554  158.2384 C   0  0  0  0  0  0  0  0  0  0  0  0
  153.9713  136.2164  157.0362 O   0  0  0  0  0  0  0  0  0  0  0  0
  152.7773  138.7081  157.0871 O   0  0  0  0  0  0  0  0  0  0  0  0
  150.8229  141.6054  156.4487 C   0  0  0  0  0  0  0  0  0  0  0  0
  150.3304  141.2860  155.3671 O   0  0  0  0  0  0  0  0  0  0  0  0
  150.7859  142.9334  156.8691 N   0  0  0  0  0  0  0  0  0  0  0  0
  151.3115  143.4207  158.0674 C   0  0  0  0  0  0  0  0  0  0  0  0
  151.2163  144.6186  158.3298 O   0  0  0  0  0  0  0  0  0  0  0  0
  151.2937  139.2341  155.7934 H   0  0  0  0  0  0  0  0  0  0  0  0
  151.4468  136.4640  157.3694 H   0  0  0  0  0  0  0  0  0  0  0  0
  152.7951  138.5465  159.1551 H   0  0  0  0  0  0  0  0  0  0  0  0
  150.3427  143.6007  156.2547 H   0  0  0  0  0  0  0  0  0  0  0  0
  152.9822  142.0335  160.7958 H   0  0  0  0  0  0  0  0  0  0  0  0
  151.7921  143.3309  160.8669 H   0  0  0  0  0  0  0  0  0  0  0  0
  153.3446  143.5951  160.0628 H   0  0  0  0  0  0  0  0  0  0  0  0
  152.4678  140.4110  159.1657 H   0  0  0  0  0  0  0  0  0  0  0  0
  150.1438  138.9335  158.5350 H   0  0  0  0  0  0  0  0  0  0  0  0
  149.6873  138.0286  157.0783 H   0  0  0  0  0  0  0  0  0  0  0  0
  154.9107  137.5152  158.2688 H   0  0  0  0  0  0  0  0  0  0  0  0
  153.9722  136.2852  159.0986 H   0  0  0  0  0  0  0  0  0  0  0  0
  153.1043  135.8653  156.9024 H   0  0  0  0  0  0  0  0  0  0  0  0
  1  2  1  0  0  0  0
  1 24  1  0  0  0  0
  1 25  1  0  0  0  0
  1 26  1  0  0  0  0
  2 18  1  0  0  0  0
  2  3  2  0  0  0  0
  3  4  1  0  0  0  0
  3 27  1  0  0  0  0
  4  5  1  0  0  0  0
  4 15  1  0  0  0  0
  5 20  1  0  0  0  0
  5 14  1  0  0  0  0
  5  6  1  0  0  0  0
  6  7  1  0  0  0  0
  6 28  1  0  0  0  0
  6 29  1  0  0  0  0
  7 21  1  0  0  0  0
  7  8  1  0  0  0  0
  7 11  1  0  0  0  0
  8  9  2  0  0  0  0
  9 10  2  0  0  0  0
 11 22  1  0  0  0  0
 11 12  1  0  0  0  0
 11 14  1  0  0  0  0
 12 13  1  0  0  0  0
 12 30  1  0  0  0  0
 12 31  1  0  0  0  0
 13 32  1  0  0  0  0
 15 16  2  0  0  0  0
 15 17  1  0  0  0  0
 17 23  1  0  0  0  0
 17 18  1  0  0  0  0
 18 19  2  0  0  0  0
M  CHG  1   9   1
M  CHG  1  10  -1
M  END
> <s_m_source_file>
AV-unprocessed.smi

> <i_m_source_file_index>
39

> <i_lp_mmshare_version>
43012

> <i_f3d_flags>
0

> <s_epik_input>
Tz1jMVtuSF1jKD1PKW4oW2NIXWMxW0NIM10pW0NASF0yW0NIMl1bQ0BIXShOPVtOK109W04tXSlbQ0BIXShPMilbQ0gyXVtPSF0=

> <s_epik_cmdline>
J2VwaWtfcHl0aG9uJywgJy1waCcsICc3LjAnLCAnLXRuJywgJzgnLCAnLW1hJywgJzIwMCcsICctbWV0YWxfYmluZGluZycsICctaW1hZScsICc8aW5maWxlLm1hZT4nLCAnLW9tYWUnLCAnPG91dGZpbGUubWFlPic=

> <r_lp_tautomer_probability>
0.999537

> <r_epik_Ionization_Penalty>
0.00127512

> <r_epik_Ionization_Penalty_Charging>
0.00127507

> <r_epik_Ionization_Penalty_Neutral>
5.43433e-08

> <r_epik_State_Penalty>
0.000844892

> <r_epik_Charging_Adjusted_Penalty>
0.00211996

> <i_epik_Tot_Q>
0

> <i_epik_Tot_abs_Q>
2

> <r_epik_Metal_State_Penalty>
0.680636

> <b_epik_Metal_Only>
0

> <s_epik_Chemistry_Notes>
This compound contains an acetal/aminal-like group ( X-CH(R)-Y where X, Y are N, S, or O) that may be acid/base labile, releasing an aldehyde.

> <s_lp_Force_Field>
OPLS_2005

> <r_lp_Energy>
24.5803

> <b_lp_Chiralities_Consistent>
1

> <s_lp_Variant>
AV-unprocessed.smi:39-2

> <Gold.Version>
5.8.1

> <Gold.Id.Protein>
6NUR|6NUR_protein|mol2

> <Gold.PLP.Fitness>
40.4572

> <Gold.PLP.PLP>
-29.5807

> <Gold.PLP.part.hbond>
-7.7683

> <Gold.PLP.part.metal>
0.0000

> <Gold.PLP.part.buried>
-4.2361

> <Gold.PLP.part.nonpolar>
-17.5511

> <Gold.PLP.part.repulsive>
0.2812

> <Gold.PLP.ligand.clash>
0.0000

> <Gold.PLP.ligand.torsion>
0.4905

> <Gold.PLP.Chemscore.Hbond>
3.9393

> <Gold.PLP.Chemscore.CHOScore>
0.0000

> <Gold.PLP.Chemscore.Metal>
0.0000

> <Gold.Chemscore.Hbonds>
donor molecule, donor type, donor heavy atom, donor atom, acceptor molecule, acceptor atom, score
      L1  H    17    23       P1  8028  1.00
      P1  H  6896  6909       L1     8  1.00
      P1  H  6931  6943       L1    10  0.21
      P1  H  7989  7998       L1    16  0.19
      P1  H  7997  8010       L1    14  0.70
      P1  H 10752 10765       L1    13  0.12

> <Gold.PLP.Chemscore.Internal.Correction>
0.0394

> <Gold.Rescore>
     Score         DG    S(hbond)    S(metal)    S(lipo)     H(rot)  DE(clash)    DE(int)     intcor
     12.96     -13.62       3.03        0.00      43.24       2.75       0.19       0.47       ----

> <Gold.Chemscore.Fitness>
12.9598

> <Gold.Chemscore.DG>
-13.6230

> <Gold.Chemscore.ZeroCoef>
-5.4800

> <Gold.Chemscore.Hbond>
3.0330

> <Gold.Chemscore.Metal>
0.0000

> <Gold.Chemscore.Lipo>
43.2379

> <Gold.Chemscore.Internal_Hbond>
0.0000

> <Gold.Chemscore.DEClash>
0.1889

> <Gold.Chemscore.DEInternal>
0.4743

> <Gold.Chemscore.Rot>
2.7524

> <Gold.Chemscore.Internal.Correction>
   9.000000E+99

> <Gold.Chemscore.Hbonds>
donor molecule, donor type, donor heavy atom, donor atom, acceptor molecule, acceptor atom, score
      L1  H    17    23       P1  8028  0.98
      P1  H  6896  6909       L1     8  0.83
      P1  H  6931  6943       L1    10  0.03
      P1  H  7989  7998       L1    16  0.20
      P1  H  7997  8010       L1    14  0.63

> <Gold.Chemscore.Hbond.Weighted>
-10.1303

> <Gold.Chemscore.Metal.Weighted>
-0.0000

> <Gold.Chemscore.Lipo.Weighted>
-5.0588

> <Gold.Chemscore.Internal_Hbond.Weighted>
0.0000

> <Gold.Chemscore.DEClash.Weighted>
0.1889

> <Gold.Chemscore.DEInternal.Weighted>
0.4743

> <Gold.Chemscore.Rot.Weighted>
7.0461

> <Gold.Chemscore.Internal.Correction.Weighted>
   9.000000E+99

> <Gold.Protein.RotatedTorsions>
[ 6907 6896 6895 6894 ] final  113.29 input  -60.11 | X-H torsion
[ 7974 7965 7964 7962 ] final -128.24 input  175.53 | X-H torsion
[ 8008 7997 7996 7995 ] final   58.85 input   59.86 | X-H torsion
[ 10167 10162 10161 10158 ] final   55.25 input  -65.29 | X-H torsion
[ 10718 10713 10712 10709 ] final  163.44 input   66.30 | X-H torsion
[ 10763 10752 10751 10750 ] final  -57.84 input  -60.55 | X-H torsion
[ 11005 11000 10999 10996 ] final   -3.57 input  -57.11 | X-H torsion

> <Gold.Protein.ActiveResidues>
 VAL166  LYS551  ARG553  GLY616  TRP617  ASP618  TYR619  PRO620  LYS621  CYS622 
 ASP623  PHE694  ASN695  SER759  ASP760  ASP761  ALA762  ILE779  LEU786  VAL792 
 PHE793  MET794  SER795  GLU796  ALA797  LYS798  CYS799  TRP800  GLU811  SER814 

> <Gold.Protein.RotatedAtoms>
  152.4869  133.8396  159.7145 H   0  0  0  0  0  0  0  0  0  0  0  0  # atno 6907 bound_to 6896
  150.8963  133.7167  159.2897 H   0  0  0  0  0  0  0  0  0  0  0  0  # atno 6908 bound_to 6896
  151.4623  135.1043  159.9780 H   0  0  0  0  0  0  0  0  0  0  0  0  # atno 6909 bound_to 6896
  144.9690  140.7526  143.4682 H   0  0  0  0  0  0  0  0  0  0  0  0  # atno 7974 bound_to 7965
  155.5567  140.3487  155.4481 H   0  0  0  0  0  0  0  0  0  0  0  0  # atno 8008 bound_to 7997
  156.0544  140.1325  157.0039 H   0  0  0  0  0  0  0  0  0  0  0  0  # atno 8009 bound_to 7997
  154.4449  140.0998  156.6408 H   0  0  0  0  0  0  0  0  0  0  0  0  # atno 8010 bound_to 7997
  140.2214  144.3784  150.6449 H   0  0  0  0  0  0  0  0  0  0  0  0  # atno 10167 bound_to 10162
  157.1084  131.0461  151.2468 H   0  0  0  0  0  0  0  0  0  0  0  0  # atno 10718 bound_to 10713
  154.2287  135.6364  153.5168 H   0  0  0  0  0  0  0  0  0  0  0  0  # atno 10763 bound_to 10752
  152.9953  135.5514  154.6036 H   0  0  0  0  0  0  0  0  0  0  0  0  # atno 10764 bound_to 10752
  154.5514  135.2902  155.0979 H   0  0  0  0  0  0  0  0  0  0  0  0  # atno 10765 bound_to 10752
  140.6708  133.9238  155.8493 H   0  0  0  0  0  0  0  0  0  0  0  0  # atno 11005 bound_to 11000
  145.2587  139.2001  143.4904 LP  0  0  0  0  0  0  0  0  0  0  0  0  # atno 17320 bound_to 7965
  146.3376  140.2513  142.8598 LP  0  0  0  0  0  0  0  0  0  0  0  0  # atno 17321 bound_to 7965
  140.6252  143.2180  151.6611 LP  0  0  0  0  0  0  0  0  0  0  0  0  # atno 17342 bound_to 10162
  139.5143  144.3416  152.0735 LP  0  0  0  0  0  0  0  0  0  0  0  0  # atno 17343 bound_to 10162
  157.4580  130.7637  149.7210 LP  0  0  0  0  0  0  0  0  0  0  0  0  # atno 17370 bound_to 10713
  155.9856  130.3981  150.3252 LP  0  0  0  0  0  0  0  0  0  0  0  0  # atno 17371 bound_to 10713
  141.0394  134.0643  157.3920 LP  0  0  0  0  0  0  0  0  0  0  0  0  # atno 17394 bound_to 11000
  139.8982  135.0154  156.7138 LP  0  0  0  0  0  0  0  0  0  0  0  0  # atno 17395 bound_to 11000

$$$$
