AV-unprocessed.smi:771|AV-procd|sdf|3682|dock10
  -GOLD-   22720 1 93D 1   1.00000     0.00000
 Structure written by MMmdl.
 41 42  0  0  0  0  0  0  0  0  3 V2000
  146.2832  137.7614  155.2703 O   0  0  0  0  0  0  0  0  0  0  0  0
  146.8030  137.7833  154.1539 C   0  0  0  0  0  0  0  0  0  0  0  0
  147.4206  139.0766  153.6053 C   0  0  0  0  0  0  0  0  0  0  0  0
  148.4856  139.6123  154.4699 N   0  0  0  0  0  0  0  0  0  0  0  0
  149.6760  138.8644  154.5634 C   0  0  0  0  0  0  0  0  0  0  0  0
  150.7151  139.2647  155.3223 C   0  0  0  0  0  0  0  0  0  0  0  0
  151.9311  138.4858  155.4048 N   0  3  0  0  0  0  0  0  0  0  0  0
  152.9016  138.9692  155.9791 O   0  0  0  0  0  0  0  0  0  0  0  0
  151.9570  137.3666  154.9012 O   0  5  0  0  0  0  0  0  0  0  0  0
  150.5758  140.5087  156.0546 C   0  0  0  0  0  0  0  0  0  0  0  0
  149.4408  141.2299  155.9672 C   0  0  0  0  0  0  0  0  0  0  0  0
  148.3115  140.7928  155.1402 C   0  0  0  0  0  0  0  0  0  0  0  0
  147.2724  141.4479  155.0544 O   0  0  0  0  0  0  0  0  0  0  0  0
  146.8628  136.7126  153.3483 N   0  0  0  0  0  0  0  0  0  0  0  0
  146.3875  135.3760  153.6915 C   0  0  0  0  0  0  0  0  0  0  0  0
  146.2133  134.4680  152.4512 C   0  0  1  0  0  0  0  0  0  0  0  0
  146.2400  132.9752  152.8393 C   0  0  0  0  0  0  0  0  0  0  0  0
  146.1423  132.0662  151.6038 C   0  0  0  0  0  0  0  0  0  0  0  0
  144.8869  132.3818  150.7773 C   0  0  0  0  0  0  0  0  0  0  0  0
  144.8401  133.8671  150.3793 C   0  0  0  0  0  0  0  0  0  0  0  0
  144.9606  134.8018  151.5986 C   0  0  1  0  0  0  0  0  0  0  0  0
  143.7789  134.7127  152.3728 O   0  0  0  0  0  0  0  0  0  0  0  0
  147.8135  138.9015  152.6016 H   0  0  0  0  0  0  0  0  0  0  0  0
  146.6197  139.8056  153.4752 H   0  0  0  0  0  0  0  0  0  0  0  0
  149.6841  137.9579  153.9754 H   0  0  0  0  0  0  0  0  0  0  0  0
  151.3805  140.8720  156.6768 H   0  0  0  0  0  0  0  0  0  0  0  0
  149.3591  142.1543  156.5198 H   0  0  0  0  0  0  0  0  0  0  0  0
  147.2968  136.8239  152.4431 H   0  0  0  0  0  0  0  0  0  0  0  0
  147.0770  134.9167  154.4015 H   0  0  0  0  0  0  0  0  0  0  0  0
  145.4384  135.4809  154.2175 H   0  0  0  0  0  0  0  0  0  0  0  0
  147.0809  134.6352  151.8108 H   0  0  0  0  0  0  0  0  0  0  0  0
  147.1583  132.7487  153.3820 H   0  0  0  0  0  0  0  0  0  0  0  0
  145.4187  132.7531  153.5220 H   0  0  0  0  0  0  0  0  0  0  0  0
  147.0304  132.1951  150.9837 H   0  0  0  0  0  0  0  0  0  0  0  0
  146.1304  131.0204  151.9121 H   0  0  0  0  0  0  0  0  0  0  0  0
  144.8640  131.7577  149.8836 H   0  0  0  0  0  0  0  0  0  0  0  0
  143.9968  132.1260  151.3535 H   0  0  0  0  0  0  0  0  0  0  0  0
  145.6599  134.0747  149.6906 H   0  0  0  0  0  0  0  0  0  0  0  0
  143.9223  134.0790  149.8295 H   0  0  0  0  0  0  0  0  0  0  0  0
  145.0277  135.8274  151.2338 H   0  0  0  0  0  0  0  0  0  0  0  0
  144.0011  134.3610  153.2210 H   0  0  0  0  0  0  0  0  0  0  0  0
  1  2  2  0  0  0  0
  2  3  1  0  0  0  0
  2 14  1  0  0  0  0
  3  4  1  0  0  0  0
  3 23  1  0  0  0  0
  3 24  1  0  0  0  0
  4 12  1  0  0  0  0
  4  5  1  0  0  0  0
  5  6  2  0  0  0  0
  5 25  1  0  0  0  0
  6  7  1  0  0  0  0
  6 10  1  0  0  0  0
  7  8  2  0  0  0  0
  7  9  1  0  0  0  0
 10 11  2  0  0  0  0
 10 26  1  0  0  0  0
 11 12  1  0  0  0  0
 11 27  1  0  0  0  0
 12 13  2  0  0  0  0
 14 15  1  0  0  0  0
 14 28  1  0  0  0  0
 15 16  1  0  0  0  0
 15 29  1  0  0  0  0
 15 30  1  0  0  0  0
 16 21  1  0  0  0  0
 16 17  1  0  0  0  0
 16 31  1  0  0  0  0
 17 18  1  0  0  0  0
 17 32  1  0  0  0  0
 17 33  1  0  0  0  0
 18 19  1  0  0  0  0
 18 34  1  0  0  0  0
 18 35  1  0  0  0  0
 19 20  1  0  0  0  0
 19 36  1  0  0  0  0
 19 37  1  0  0  0  0
 20 21  1  0  0  0  0
 20 38  1  0  0  0  0
 20 39  1  0  0  0  0
 21 22  1  0  0  0  0
 21 40  1  0  0  0  0
 22 41  1  0  0  0  0
M  CHG  1   7   1
M  CHG  1   9  -1
M  END
> <s_m_source_file>
AV-unprocessed.smi

> <i_m_source_file_index>
771

> <i_lp_mmshare_version>
43012

> <i_f3d_flags>
0

> <s_epik_input>
Tz1jMVtjSF1bY0hdYyhbTitdKD1PKVtPLV0pW2NIXW4xW0NIMl1DKD1PKVtOSF1bQ0gyXVtDQEBIXTJbQ0gyXVtDSDJdW0NIMl1bQ0gyXVtDQEhdMltPSF0=

> <s_epik_cmdline>
J2VwaWtfcHl0aG9uJywgJy1waCcsICc3LjAnLCAnLXRuJywgJzgnLCAnLW1hJywgJzIwMCcsICctbWV0YWxfYmluZGluZycsICctaW1hZScsICc8aW5maWxlLm1hZT4nLCAnLW9tYWUnLCAnPG91dGZpbGUubWFlPic=

> <r_lp_tautomer_probability>
1

> <r_epik_Ionization_Penalty>
3.77175e-07

> <r_epik_Ionization_Penalty_Charging>
7.70067e-11

> <r_epik_Ionization_Penalty_Neutral>
3.77098e-07

> <r_epik_State_Penalty>
-0

> <r_epik_Charging_Adjusted_Penalty>
7.70067e-11

> <i_epik_Tot_Q>
0

> <i_epik_Tot_abs_Q>
2

> <r_epik_Metal_State_Penalty>
-0

> <b_epik_Metal_Only>
0

> <s_lp_Force_Field>
OPLS_2005

> <r_lp_Energy>
25.2575

> <b_lp_Chiralities_Consistent>
1

> <s_lp_Variant>
AV-unprocessed.smi:771-2

> <Gold.Version>
5.8.1

> <Gold.Id.Protein>
6NUR|6NUR_protein|mol2

> <Gold.PLP.Fitness>
47.6231

> <Gold.PLP.PLP>
-38.2764

> <Gold.PLP.part.hbond>
-3.0000

> <Gold.PLP.part.metal>
0.0000

> <Gold.PLP.part.buried>
-0.8002

> <Gold.PLP.part.nonpolar>
-33.5411

> <Gold.PLP.part.repulsive>
0.3668

> <Gold.PLP.ligand.clash>
0.0000

> <Gold.PLP.ligand.torsion>
0.3667

> <Gold.PLP.Chemscore.Hbond>
2.3440

> <Gold.PLP.Chemscore.CHOScore>
1.0000

> <Gold.PLP.Chemscore.Metal>
0.0000

> <Gold.Chemscore.Hbonds>
donor molecule, donor type, donor heavy atom, donor atom, acceptor molecule, acceptor atom, score
      L1  H    14    28       P1  7948  0.61
      P1  H  7997  8010       L1     8  1.00
      P1  H 10752 10764       L1     9  0.78
      L1  C     5    25       P1  7948  0.34

> <Gold.PLP.Chemscore.Internal.Correction>
0.0482

> <Gold.Rescore>
     Score         DG    S(hbond)    S(metal)    S(lipo)     H(rot)  DE(clash)    DE(int)     intcor
     14.01     -14.58       2.18        0.00      69.84       2.48       0.16       0.40       ----

> <Gold.Chemscore.Fitness>
14.0144

> <Gold.Chemscore.DG>
-14.5796

> <Gold.Chemscore.ZeroCoef>
-5.4800

> <Gold.Chemscore.Hbond>
2.1752

> <Gold.Chemscore.Metal>
0.0000

> <Gold.Chemscore.Lipo>
69.8408

> <Gold.Chemscore.Internal_Hbond>
0.0000

> <Gold.Chemscore.DEClash>
0.1630

> <Gold.Chemscore.DEInternal>
0.4022

> <Gold.Chemscore.Rot>
2.4753

> <Gold.Chemscore.Internal.Correction>
   9.000000E+99

> <Gold.Chemscore.Hbonds>
donor molecule, donor type, donor heavy atom, donor atom, acceptor molecule, acceptor atom, score
      L1  H    14    28       P1  7948  0.60
      P1  H  7997  8010       L1     8  0.98
      P1  H 10752 10764       L1     9  0.75

> <Gold.Chemscore.Hbond.Weighted>
-7.2651

> <Gold.Chemscore.Metal.Weighted>
-0.0000

> <Gold.Chemscore.Lipo.Weighted>
-8.1714

> <Gold.Chemscore.Internal_Hbond.Weighted>
0.0000

> <Gold.Chemscore.DEClash.Weighted>
0.1630

> <Gold.Chemscore.DEInternal.Weighted>
0.4022

> <Gold.Chemscore.Rot.Weighted>
6.3369

> <Gold.Chemscore.Internal.Correction.Weighted>
   9.000000E+99

> <Gold.Protein.RotatedTorsions>
[ 6907 6896 6895 6894 ] final -172.26 input  -60.11 | X-H torsion
[ 7974 7965 7964 7962 ] final   95.38 input  175.53 | X-H torsion
[ 8008 7997 7996 7995 ] final   94.62 input   59.86 | X-H torsion
[ 10167 10162 10161 10158 ] final -129.76 input  -65.29 | X-H torsion
[ 10718 10713 10712 10709 ] final  -55.20 input   66.30 | X-H torsion
[ 10763 10752 10751 10750 ] final  -77.40 input  -60.55 | X-H torsion
[ 11005 11000 10999 10996 ] final   -9.07 input  -57.11 | X-H torsion

> <Gold.Protein.ActiveResidues>
 VAL166  LYS551  ARG553  GLY616  TRP617  ASP618  TYR619  PRO620  LYS621  CYS622 
 ASP623  PHE694  ASN695  SER759  ASP760  ASP761  ALA762  ILE779  LEU786  VAL792 
 PHE793  MET794  SER795  GLU796  ALA797  LYS798  CYS799  TRP800  GLU811  SER814 

> <Gold.Protein.RotatedAtoms>
  151.5371  133.3439  159.2928 H   0  0  0  0  0  0  0  0  0  0  0  0  # atno 6907 bound_to 6896
  150.8558  134.7899  159.7055 H   0  0  0  0  0  0  0  0  0  0  0  0  # atno 6908 bound_to 6896
  152.4592  134.5232  159.9840 H   0  0  0  0  0  0  0  0  0  0  0  0  # atno 6909 bound_to 6896
  145.4529  139.2292  143.3030 H   0  0  0  0  0  0  0  0  0  0  0  0  # atno 7974 bound_to 7965
  156.0599  140.3297  155.7449 H   0  0  0  0  0  0  0  0  0  0  0  0  # atno 8008 bound_to 7997
  155.5471  140.0607  157.2875 H   0  0  0  0  0  0  0  0  0  0  0  0  # atno 8009 bound_to 7997
  154.4476  140.1900  156.0637 H   0  0  0  0  0  0  0  0  0  0  0  0  # atno 8010 bound_to 7997
  139.9364  143.6213  152.2515 H   0  0  0  0  0  0  0  0  0  0  0  0  # atno 10167 bound_to 10162
  156.1388  130.4155  150.0139 H   0  0  0  0  0  0  0  0  0  0  0  0  # atno 10718 bound_to 10713
  154.5125  135.5765  153.6616 H   0  0  0  0  0  0  0  0  0  0  0  0  # atno 10763 bound_to 10752
  152.9900  135.6162  154.2861 H   0  0  0  0  0  0  0  0  0  0  0  0  # atno 10764 bound_to 10752
  154.2776  135.2851  155.2691 H   0  0  0  0  0  0  0  0  0  0  0  0  # atno 10765 bound_to 10752
  140.7302  133.8755  155.8887 H   0  0  0  0  0  0  0  0  0  0  0  0  # atno 11005 bound_to 11000
  146.2494  140.5290  142.8900 LP  0  0  0  0  0  0  0  0  0  0  0  0  # atno 17320 bound_to 7965
  144.8050  140.6283  143.6453 LP  0  0  0  0  0  0  0  0  0  0  0  0  # atno 17321 bound_to 7965
  139.6740  144.7659  151.1731 LP  0  0  0  0  0  0  0  0  0  0  0  0  # atno 17342 bound_to 10162
  140.7623  143.5823  150.8882 LP  0  0  0  0  0  0  0  0  0  0  0  0  # atno 17343 bound_to 10162
  156.8030  130.9297  151.3645 LP  0  0  0  0  0  0  0  0  0  0  0  0  # atno 17370 bound_to 10713
  157.6557  130.8922  149.9723 LP  0  0  0  0  0  0  0  0  0  0  0  0  # atno 17371 bound_to 10713
  140.9927  134.1257  157.4393 LP  0  0  0  0  0  0  0  0  0  0  0  0  # atno 17394 bound_to 11000
  139.8828  135.0045  156.6254 LP  0  0  0  0  0  0  0  0  0  0  0  0  # atno 17395 bound_to 11000

$$$$
