AV-unprocessed.smi:2465|AV-procd|sdf|9722|dock10
  -GOLD-   2272013363D 1   1.00000     0.00000
 Structure written by MMmdl.
 40 41  0  0  0  0  0  0  0  0  1 V2000
  151.2851  145.0064  158.2281 C   0  0  0  0  0  0  0  0  0  0  0  0
  151.8070  143.6438  158.6485 C   0  0  0  0  0  0  0  0  0  0  0  0
  152.7114  143.5426  159.7257 C   0  0  0  0  0  0  0  0  0  0  0  0
  153.1836  142.2688  160.0940 C   0  0  0  0  0  0  0  0  0  0  0  0
  152.8195  141.1345  159.4623 N   0  0  0  0  0  0  0  0  0  0  0  0
  151.9524  141.2326  158.4324 C   0  0  0  0  0  0  0  0  0  0  0  0
  151.4017  142.4603  157.9848 C   0  0  0  0  0  0  0  0  0  0  0  0
  150.5048  142.5608  156.8836 N   0  0  0  0  0  0  0  0  0  0  0  0
  149.9999  141.5779  156.1183 C   0  0  0  0  0  0  0  0  0  0  0  0
  150.2160  140.3753  156.2672 O   0  0  0  0  0  0  0  0  0  0  0  0
  149.1969  142.0716  155.1652 N   0  0  0  0  0  0  0  0  0  0  0  0
  148.4852  141.2721  154.1747 C   0  0  0  0  0  0  0  0  0  0  0  0
  146.9872  141.6134  154.1421 C   0  0  0  0  0  0  0  0  0  0  0  0
  146.7037  142.9323  153.4058 C   0  0  0  0  0  0  0  0  0  0  0  0
  145.6178  143.6742  154.0394 N   0  0  0  0  0  0  0  0  0  0  0  0
  145.1893  143.3530  155.3903 C   0  0  0  0  0  0  0  0  0  0  0  0
  144.2127  144.4738  155.7741 C   0  0  0  0  0  0  0  0  0  0  0  0
  143.8576  145.1826  154.4625 C   0  0  0  0  0  0  0  0  0  0  0  0
  144.8989  144.6591  153.4877 C   0  0  0  0  0  0  0  0  0  0  0  0
  145.0338  145.1069  152.3499 O   0  0  0  0  0  0  0  0  0  0  0  0
  151.7142  145.8016  158.8384 H   0  0  0  0  0  0  0  0  0  0  0  0
  150.2007  145.0470  158.3345 H   0  0  0  0  0  0  0  0  0  0  0  0
  151.5390  145.2072  157.1869 H   0  0  0  0  0  0  0  0  0  0  0  0
  153.0409  144.4203  160.2619 H   0  0  0  0  0  0  0  0  0  0  0  0
  153.8769  142.1589  160.9148 H   0  0  0  0  0  0  0  0  0  0  0  0
  151.7231  140.2944  157.9523 H   0  0  0  0  0  0  0  0  0  0  0  0
  150.1632  143.4905  156.6895 H   0  0  0  0  0  0  0  0  0  0  0  0
  149.0695  143.0720  155.1194 H   0  0  0  0  0  0  0  0  0  0  0  0
  148.9310  141.4667  153.1989 H   0  0  0  0  0  0  0  0  0  0  0  0
  148.6322  140.2099  154.3772 H   0  0  0  0  0  0  0  0  0  0  0  0
  146.4369  140.8075  153.6544 H   0  0  0  0  0  0  0  0  0  0  0  0
  146.6081  141.6710  155.1634 H   0  0  0  0  0  0  0  0  0  0  0  0
  147.6015  143.5518  153.3810 H   0  0  0  0  0  0  0  0  0  0  0  0
  146.4412  142.7288  152.3668 H   0  0  0  0  0  0  0  0  0  0  0  0
  144.6906  142.3828  155.3885 H   0  0  0  0  0  0  0  0  0  0  0  0
  146.0368  143.3020  156.0751 H   0  0  0  0  0  0  0  0  0  0  0  0
  143.3295  144.0840  156.2814 H   0  0  0  0  0  0  0  0  0  0  0  0
  144.6981  145.1761  156.4530 H   0  0  0  0  0  0  0  0  0  0  0  0
  142.8625  144.9033  154.1152 H   0  0  0  0  0  0  0  0  0  0  0  0
  143.9064  146.2681  154.5536 H   0  0  0  0  0  0  0  0  0  0  0  0
  1  2  1  0  0  0  0
  1 21  1  0  0  0  0
  1 22  1  0  0  0  0
  1 23  1  0  0  0  0
  2  7  1  0  0  0  0
  2  3  2  0  0  0  0
  3  4  1  0  0  0  0
  3 24  1  0  0  0  0
  4  5  2  0  0  0  0
  4 25  1  0  0  0  0
  5  6  1  0  0  0  0
  6  7  2  0  0  0  0
  6 26  1  0  0  0  0
  7  8  1  0  0  0  0
  8  9  1  0  0  0  0
  8 27  1  0  0  0  0
  9 10  2  0  0  0  0
  9 11  1  0  0  0  0
 11 12  1  0  0  0  0
 11 28  1  0  0  0  0
 12 13  1  0  0  0  0
 12 29  1  0  0  0  0
 12 30  1  0  0  0  0
 13 14  1  0  0  0  0
 13 31  1  0  0  0  0
 13 32  1  0  0  0  0
 14 15  1  0  0  0  0
 14 33  1  0  0  0  0
 14 34  1  0  0  0  0
 15 19  1  0  0  0  0
 15 16  1  0  0  0  0
 16 17  1  0  0  0  0
 16 35  1  0  0  0  0
 16 36  1  0  0  0  0
 17 18  1  0  0  0  0
 17 37  1  0  0  0  0
 17 38  1  0  0  0  0
 18 19  1  0  0  0  0
 18 39  1  0  0  0  0
 18 40  1  0  0  0  0
 19 20  2  0  0  0  0
M  END
> <s_m_source_file>
AV-unprocessed.smi

> <i_m_source_file_index>
2465

> <i_lp_mmshare_version>
43012

> <i_f3d_flags>
0

> <s_epik_input>
W0NIM11jMVtjSF1bY0hdbltjSF1jMVtOSF1DKD1PKVtOSF1bQ0gyXVtDSDJdW0NIMl1OMltDSDJdW0NIMl1bQ0gyXUMyPU8=

> <s_epik_cmdline>
J2VwaWtfcHl0aG9uJywgJy1waCcsICc3LjAnLCAnLXRuJywgJzgnLCAnLW1hJywgJzIwMCcsICctbWV0YWxfYmluZGluZycsICctaW1hZScsICc8aW5maWxlLm1hZT4nLCAnLW9tYWUnLCAnPG91dGZpbGUubWFlPic=

> <r_epik_Ionization_Penalty>
0.0211997

> <r_epik_Ionization_Penalty_Charging>
0

> <r_epik_Ionization_Penalty_Neutral>
0.0211997

> <r_epik_State_Penalty>
0.0170047

> <r_epik_Charging_Adjusted_Penalty>
0.0170047

> <i_epik_Tot_Q>
0

> <i_epik_Tot_abs_Q>
0

> <r_epik_Metal_State_Penalty>
0.0163833

> <b_epik_Metal_Only>
0

> <s_lp_Force_Field>
OPLS_2005

> <r_lp_Energy>
19.6331

> <b_lp_Chiralities_Consistent>
1

> <s_lp_Variant>
AV-unprocessed.smi:2465-1

> <Gold.Version>
5.8.1

> <Gold.Id.Protein>
6NUR|6NUR_protein|mol2

> <Gold.PLP.Fitness>
50.1368

> <Gold.PLP.PLP>
-45.2880

> <Gold.PLP.part.hbond>
-2.8172

> <Gold.PLP.part.metal>
0.0000

> <Gold.PLP.part.buried>
-8.1903

> <Gold.PLP.part.nonpolar>
-34.4633

> <Gold.PLP.part.repulsive>
0.4362

> <Gold.PLP.ligand.clash>
0.0000

> <Gold.PLP.ligand.torsion>
0.5847

> <Gold.PLP.Chemscore.Hbond>
1.9920

> <Gold.PLP.Chemscore.CHOScore>
0.0000

> <Gold.PLP.Chemscore.Metal>
0.0000

> <Gold.Chemscore.Hbonds>
donor molecule, donor type, donor heavy atom, donor atom, acceptor molecule, acceptor atom, score
      L1  H     8    27       P1  8028  0.98
      L1  H    11    28       P1  8028  1.00

> <Gold.PLP.Chemscore.Internal.Correction>
0.0422

> <Gold.Rescore>
     Score         DG    S(hbond)    S(metal)    S(lipo)     H(rot)  DE(clash)    DE(int)     intcor
     16.85     -18.69       1.92        0.00      96.31       1.74       0.22       1.62       ----

> <Gold.Chemscore.Fitness>
16.8456

> <Gold.Chemscore.DG>
-18.6948

> <Gold.Chemscore.ZeroCoef>
-5.4800

> <Gold.Chemscore.Hbond>
1.9174

> <Gold.Chemscore.Metal>
0.0000

> <Gold.Chemscore.Lipo>
96.3053

> <Gold.Chemscore.Internal_Hbond>
0.0000

> <Gold.Chemscore.DEClash>
0.2247

> <Gold.Chemscore.DEInternal>
1.6245

> <Gold.Chemscore.Rot>
1.7410

> <Gold.Chemscore.Internal.Correction>
   9.000000E+99

> <Gold.Chemscore.Hbonds>
donor molecule, donor type, donor heavy atom, donor atom, acceptor molecule, acceptor atom, score
      L1  H     8    27       P1  8028  0.86
      L1  H    11    28       P1  8028  1.00

> <Gold.Chemscore.Hbond.Weighted>
-6.4042

> <Gold.Chemscore.Metal.Weighted>
-0.0000

> <Gold.Chemscore.Lipo.Weighted>
-11.2677

> <Gold.Chemscore.Internal_Hbond.Weighted>
0.0000

> <Gold.Chemscore.DEClash.Weighted>
0.2247

> <Gold.Chemscore.DEInternal.Weighted>
1.6245

> <Gold.Chemscore.Rot.Weighted>
4.4571

> <Gold.Chemscore.Internal.Correction.Weighted>
   9.000000E+99

> <Gold.Protein.RotatedTorsions>
[ 6907 6896 6895 6894 ] final   91.58 input  -60.11 | X-H torsion
[ 7974 7965 7964 7962 ] final   94.75 input  175.53 | X-H torsion
[ 8008 7997 7996 7995 ] final  -28.32 input   59.86 | X-H torsion
[ 10167 10162 10161 10158 ] final  -76.18 input  -65.29 | X-H torsion
[ 10718 10713 10712 10709 ] final  168.00 input   66.30 | X-H torsion
[ 10763 10752 10751 10750 ] final  -73.53 input  -60.55 | X-H torsion
[ 11005 11000 10999 10996 ] final  118.02 input  -57.11 | X-H torsion

> <Gold.Protein.ActiveResidues>
 VAL166  LYS551  ARG553  GLY616  TRP617  ASP618  TYR619  PRO620  LYS621  CYS622 
 ASP623  PHE694  ASN695  SER759  ASP760  ASP761  ALA762  ILE779  LEU786  VAL792 
 PHE793  MET794  SER795  GLU796  ALA797  LYS798  CYS799  TRP800  GLU811  SER814 

> <Gold.Protein.RotatedAtoms>
  152.5450  134.1634  159.8566 H   0  0  0  0  0  0  0  0  0  0  0  0  # atno 6907 bound_to 6896
  151.1650  133.4813  159.2601 H   0  0  0  0  0  0  0  0  0  0  0  0  # atno 6908 bound_to 6896
  151.1333  135.0153  159.8647 H   0  0  0  0  0  0  0  0  0  0  0  0  # atno 6909 bound_to 6896
  145.4613  139.2287  143.2985 H   0  0  0  0  0  0  0  0  0  0  0  0  # atno 7974 bound_to 7965
  154.4337  140.1848  156.1071 H   0  0  0  0  0  0  0  0  0  0  0  0  # atno 8008 bound_to 7997
  156.0247  140.3337  155.7050 H   0  0  0  0  0  0  0  0  0  0  0  0  # atno 8009 bound_to 7997
  155.5926  140.0632  157.2745 H   0  0  0  0  0  0  0  0  0  0  0  0  # atno 8010 bound_to 7997
  140.4879  143.2387  151.7953 H   0  0  0  0  0  0  0  0  0  0  0  0  # atno 10167 bound_to 10162
  157.0435  131.0293  151.2705 H   0  0  0  0  0  0  0  0  0  0  0  0  # atno 10718 bound_to 10713
  154.4607  135.5894  153.6254 H   0  0  0  0  0  0  0  0  0  0  0  0  # atno 10763 bound_to 10752
  152.9823  135.6043  154.3489 H   0  0  0  0  0  0  0  0  0  0  0  0  # atno 10764 bound_to 10752
  154.3361  135.2842  155.2426 H   0  0  0  0  0  0  0  0  0  0  0  0  # atno 10765 bound_to 10752
  139.9094  134.9616  156.7439 H   0  0  0  0  0  0  0  0  0  0  0  0  # atno 11005 bound_to 11000
  146.2449  140.5383  142.8918 LP  0  0  0  0  0  0  0  0  0  0  0  0  # atno 17320 bound_to 7965
  144.8001  140.6196  143.6484 LP  0  0  0  0  0  0  0  0  0  0  0  0  # atno 17321 bound_to 7965
  139.4845  144.4687  151.9452 LP  0  0  0  0  0  0  0  0  0  0  0  0  # atno 17342 bound_to 10162
  140.3773  144.2780  150.5912 LP  0  0  0  0  0  0  0  0  0  0  0  0  # atno 17343 bound_to 10162
  157.5086  130.7924  149.7681 LP  0  0  0  0  0  0  0  0  0  0  0  0  # atno 17370 bound_to 10713
  156.0030  130.3870  150.2533 LP  0  0  0  0  0  0  0  0  0  0  0  0  # atno 17371 bound_to 10713
  140.6827  133.9460  155.7920 LP  0  0  0  0  0  0  0  0  0  0  0  0  # atno 17394 bound_to 11000
  141.0498  134.0501  157.3798 LP  0  0  0  0  0  0  0  0  0  0  0  0  # atno 17395 bound_to 11000

$$$$
