AV-unprocessed.smi:1019|AV-procd|sdf|4445|dock3
  -GOLD-   22720 2403D 1   1.00000     0.00000
 Structure written by MMmdl.
 44 46  0  0  0  0  0  0  0  0  2 V2000
  145.9086  142.5716  154.4254 C   0  0  0  0  0  0  0  0  0  0  0  0
  147.1823  142.1246  155.0363 N   0  3  1  0  0  0  0  0  0  0  0  0
  146.9518  141.1116  156.0967 C   0  0  0  0  0  0  0  0  0  0  0  0
  146.3774  141.7267  157.3614 C   0  0  0  0  0  0  0  0  0  0  0  0
  147.0844  141.6226  158.5781 C   0  0  0  0  0  0  0  0  0  0  0  0
  146.5564  142.1892  159.7546 C   0  0  0  0  0  0  0  0  0  0  0  0
  145.3211  142.8641  159.7187 C   0  0  0  0  0  0  0  0  0  0  0  0
  144.6136  142.9730  158.5059 C   0  0  0  0  0  0  0  0  0  0  0  0
  145.1409  142.4069  157.3289 C   0  0  0  0  0  0  0  0  0  0  0  0
  148.1860  141.6967  154.0260 C   0  0  0  0  0  0  0  0  0  0  0  0
  149.4564  141.0924  154.6648 C   0  0  1  0  0  0  0  0  0  0  0  0
  150.1707  140.3866  153.6702 O   0  0  0  0  0  0  0  0  0  0  0  0
  150.4051  142.1514  155.2609 C   0  0  0  0  0  0  0  0  0  0  0  0
  151.0302  141.7071  156.4930 N   0  0  0  0  0  0  0  0  0  0  0  0
  151.3468  140.4418  156.8291 C   0  0  0  0  0  0  0  0  0  0  0  0
  151.9056  140.2495  158.0202 N   0  0  0  0  0  0  0  0  0  0  0  0
  151.9655  141.5415  158.5135 C   0  0  0  0  0  0  0  0  0  0  0  0
  152.4530  142.0315  159.7461 C   0  0  0  0  0  0  0  0  0  0  0  0
  152.4047  143.4110  160.0358 C   0  0  0  0  0  0  0  0  0  0  0  0
  151.8696  144.3201  159.1002 C   0  0  0  0  0  0  0  0  0  0  0  0
  151.3786  143.8559  157.8650 C   0  0  0  0  0  0  0  0  0  0  0  0
  151.4283  142.4786  157.5799 C   0  0  0  0  0  0  0  0  0  0  0  0
  145.4162  141.7494  153.9046 H   0  0  0  0  0  0  0  0  0  0  0  0
  146.0669  143.3799  153.7127 H   0  0  0  0  0  0  0  0  0  0  0  0
  145.2260  142.9467  155.1885 H   0  0  0  0  0  0  0  0  0  0  0  0
  146.2391  140.3632  155.7471 H   0  0  0  0  0  0  0  0  0  0  0  0
  147.8794  140.5787  156.3126 H   0  0  0  0  0  0  0  0  0  0  0  0
  148.0326  141.1060  158.6131 H   0  0  0  0  0  0  0  0  0  0  0  0
  147.0995  142.1070  160.6846 H   0  0  0  0  0  0  0  0  0  0  0  0
  144.9167  143.2987  160.6213 H   0  0  0  0  0  0  0  0  0  0  0  0
  143.6665  143.4917  158.4785 H   0  0  0  0  0  0  0  0  0  0  0  0
  144.5911  142.4944  156.4031 H   0  0  0  0  0  0  0  0  0  0  0  0
  147.7605  140.9498  153.3561 H   0  0  0  0  0  0  0  0  0  0  0  0
  148.4294  142.5551  153.3991 H   0  0  0  0  0  0  0  0  0  0  0  0
  149.1893  140.3886  155.4526 H   0  0  0  0  0  0  0  0  0  0  0  0
  149.6502  140.3656  152.8810 H   0  0  0  0  0  0  0  0  0  0  0  0
  151.1939  142.3973  154.5484 H   0  0  0  0  0  0  0  0  0  0  0  0
  149.8671  143.0793  155.4605 H   0  0  0  0  0  0  0  0  0  0  0  0
  151.1500  139.6140  156.1636 H   0  0  0  0  0  0  0  0  0  0  0  0
  152.8644  141.3449  160.4711 H   0  0  0  0  0  0  0  0  0  0  0  0
  152.7806  143.7732  160.9814 H   0  0  0  0  0  0  0  0  0  0  0  0
  151.8370  145.3749  159.3312 H   0  0  0  0  0  0  0  0  0  0  0  0
  150.9678  144.5506  157.1475 H   0  0  0  0  0  0  0  0  0  0  0  0
  147.5766  142.9280  155.5053 H   0  0  0  0  0  0  0  0  0  0  0  0
  1  2  1  0  0  0  0
  1 23  1  0  0  0  0
  1 24  1  0  0  0  0
  1 25  1  0  0  0  0
  2  3  1  0  0  0  0
  2 10  1  0  0  0  0
  2 44  1  0  0  0  0
  3  4  1  0  0  0  0
  3 26  1  0  0  0  0
  3 27  1  0  0  0  0
  4  9  1  0  0  0  0
  4  5  2  0  0  0  0
  5  6  1  0  0  0  0
  5 28  1  0  0  0  0
  6  7  2  0  0  0  0
  6 29  1  0  0  0  0
  7  8  1  0  0  0  0
  7 30  1  0  0  0  0
  8  9  2  0  0  0  0
  8 31  1  0  0  0  0
  9 32  1  0  0  0  0
 10 11  1  0  0  0  0
 10 33  1  0  0  0  0
 10 34  1  0  0  0  0
 11 12  1  0  0  0  0
 11 13  1  0  0  0  0
 11 35  1  0  0  0  0
 12 36  1  0  0  0  0
 13 14  1  0  0  0  0
 13 37  1  0  0  0  0
 13 38  1  0  0  0  0
 14 22  1  0  0  0  0
 14 15  1  0  0  0  0
 15 16  2  0  0  0  0
 15 39  1  0  0  0  0
 16 17  1  0  0  0  0
 17 22  2  0  0  0  0
 17 18  1  0  0  0  0
 18 19  2  0  0  0  0
 18 40  1  0  0  0  0
 19 20  1  0  0  0  0
 19 41  1  0  0  0  0
 20 21  2  0  0  0  0
 20 42  1  0  0  0  0
 21 22  1  0  0  0  0
 21 43  1  0  0  0  0
M  CHG  1   2   1
M  END
> <s_m_source_file>
AV-unprocessed.smi

> <i_m_source_file_index>
1019

> <i_lp_mmshare_version>
43012

> <i_f3d_flags>
0

> <s_epik_input>
W2NIXTFbY0hdW2NIXVtjSF1bY0hdYzFbQ0gyXU4oW0NIM10pW0NIMl1bQ0BIXShbT0hdKVtDSDJdbihbY0hdbjIpYyhjMjMpW2NIXVtjSF1bY0hdW2NIXTM=

> <s_epik_cmdline>
J2VwaWtfcHl0aG9uJywgJy1waCcsICc3LjAnLCAnLXRuJywgJzgnLCAnLW1hJywgJzIwMCcsICctbWV0YWxfYmluZGluZycsICctaW1hZScsICc8aW5maWxlLm1hZT4nLCAnLW9tYWUnLCAnPG91dGZpbGUubWFlPic=

> <r_epik_Ionization_Penalty>
0.0996557

> <r_epik_Ionization_Penalty_Charging>
0.0475377

> <r_epik_Ionization_Penalty_Neutral>
0.0521179

> <r_epik_State_Penalty>
0.0851777

> <r_epik_Charging_Adjusted_Penalty>
0.132715

> <i_epik_Tot_Q>
1

> <i_epik_Tot_abs_Q>
1

> <r_epik_Metal_State_Penalty>
0.0423478

> <b_epik_Metal_Only>
0

> <s_lp_Force_Field>
OPLS_2005

> <r_lp_Energy>
16.033

> <b_lp_Chiralities_Consistent>
1

> <s_lp_Variant>
AV-unprocessed.smi:1019-3

> <Gold.Version>
5.8.1

> <Gold.Id.Protein>
6NUR|6NUR_protein|mol2

> <Gold.PLP.Fitness>
53.7467

> <Gold.PLP.PLP>
-44.7427

> <Gold.PLP.part.hbond>
-3.0000

> <Gold.PLP.part.metal>
0.0000

> <Gold.PLP.part.buried>
-3.2242

> <Gold.PLP.part.nonpolar>
-37.4320

> <Gold.PLP.part.repulsive>
0.1237

> <Gold.PLP.ligand.clash>
0.0000

> <Gold.PLP.ligand.torsion>
1.2318

> <Gold.PLP.Chemscore.Hbond>
3.7820

> <Gold.PLP.Chemscore.CHOScore>
0.0000

> <Gold.PLP.Chemscore.Metal>
0.0000

> <Gold.Chemscore.Hbonds>
donor molecule, donor type, donor heavy atom, donor atom, acceptor molecule, acceptor atom, score
      L1  H     2    44       P1  8028  1.20
      L1  H    12    36       P1  7957  0.93
      P1  H  7989  7998       L1    12  0.65

> <Gold.PLP.Chemscore.Internal.Correction>
0.1217

> <Gold.Rescore>
     Score         DG    S(hbond)    S(metal)    S(lipo)     H(rot)  DE(clash)    DE(int)     intcor
     12.78     -16.11       1.42        0.00     101.88       2.36       1.95       1.37       ----

> <Gold.Chemscore.Fitness>
12.7810

> <Gold.Chemscore.DG>
-16.1068

> <Gold.Chemscore.ZeroCoef>
-5.4800

> <Gold.Chemscore.Hbond>
1.4229

> <Gold.Chemscore.Metal>
0.0000

> <Gold.Chemscore.Lipo>
101.8813

> <Gold.Chemscore.Internal_Hbond>
0.0000

> <Gold.Chemscore.DEClash>
1.9530

> <Gold.Chemscore.DEInternal>
1.3728

> <Gold.Chemscore.Rot>
2.3616

> <Gold.Chemscore.Internal.Correction>
   9.000000E+99

> <Gold.Chemscore.Hbonds>
donor molecule, donor type, donor heavy atom, donor atom, acceptor molecule, acceptor atom, score
      L1  H     2    44       P1  8028  0.23
      L1  H    12    36       P1  7957  0.90
      P1  H  7989  7998       L1    12  0.47

> <Gold.Chemscore.Hbond.Weighted>
-4.7524

> <Gold.Chemscore.Metal.Weighted>
-0.0000

> <Gold.Chemscore.Lipo.Weighted>
-11.9201

> <Gold.Chemscore.Internal_Hbond.Weighted>
0.0000

> <Gold.Chemscore.DEClash.Weighted>
1.9530

> <Gold.Chemscore.DEInternal.Weighted>
1.3728

> <Gold.Chemscore.Rot.Weighted>
6.0457

> <Gold.Chemscore.Internal.Correction.Weighted>
   9.000000E+99

> <Gold.Protein.RotatedTorsions>
[ 6907 6896 6895 6894 ] final   11.50 input  -60.11 | X-H torsion
[ 7974 7965 7964 7962 ] final   67.72 input  175.53 | X-H torsion
[ 8008 7997 7996 7995 ] final -163.56 input   59.86 | X-H torsion
[ 10167 10162 10161 10158 ] final -106.16 input  -65.29 | X-H torsion
[ 10718 10713 10712 10709 ] final   -5.29 input   66.30 | X-H torsion
[ 10763 10752 10751 10750 ] final  -33.87 input  -60.55 | X-H torsion
[ 11005 11000 10999 10996 ] final  -99.05 input  -57.11 | X-H torsion

> <Gold.Protein.ActiveResidues>
 VAL166  LYS551  ARG553  GLY616  TRP617  ASP618  TYR619  PRO620  LYS621  CYS622 
 ASP623  PHE694  ASN695  SER759  ASP760  ASP761  ALA762  ILE779  LEU786  VAL792 
 PHE793  MET794  SER795  GLU796  ALA797  LYS798  CYS799  TRP800  GLU811  SER814 

> <Gold.Protein.RotatedAtoms>
  151.7553  135.0823  160.0336 H   0  0  0  0  0  0  0  0  0  0  0  0  # atno 6907 bound_to 6896
  152.3389  133.6040  159.5871 H   0  0  0  0  0  0  0  0  0  0  0  0  # atno 6908 bound_to 6896
  150.7467  133.9668  159.3575 H   0  0  0  0  0  0  0  0  0  0  0  0  # atno 6909 bound_to 6896
  145.8112  139.3033  143.1098 H   0  0  0  0  0  0  0  0  0  0  0  0  # atno 7974 bound_to 7965
  155.8231  140.0922  157.1837 H   0  0  0  0  0  0  0  0  0  0  0  0  # atno 8008 bound_to 7997
  154.3979  140.1433  156.3584 H   0  0  0  0  0  0  0  0  0  0  0  0  # atno 8009 bound_to 7997
  155.8245  140.3445  155.5537 H   0  0  0  0  0  0  0  0  0  0  0  0  # atno 8010 bound_to 7997
  140.1908  143.3893  152.1208 H   0  0  0  0  0  0  0  0  0  0  0  0  # atno 10167 bound_to 10162
  156.7488  130.5233  149.5808 H   0  0  0  0  0  0  0  0  0  0  0  0  # atno 10718 bound_to 10713
  153.8374  135.6860  153.4807 H   0  0  0  0  0  0  0  0  0  0  0  0  # atno 10763 bound_to 10752
  153.1474  135.4632  154.9585 H   0  0  0  0  0  0  0  0  0  0  0  0  # atno 10764 bound_to 10752
  154.7860  135.3285  154.7831 H   0  0  0  0  0  0  0  0  0  0  0  0  # atno 10765 bound_to 10752
  141.1323  133.8292  157.0921 H   0  0  0  0  0  0  0  0  0  0  0  0  # atno 11005 bound_to 11000
  145.9775  140.8710  143.0131 LP  0  0  0  0  0  0  0  0  0  0  0  0  # atno 17320 bound_to 7965
  144.6757  140.2033  143.7385 LP  0  0  0  0  0  0  0  0  0  0  0  0  # atno 17321 bound_to 7965
  139.5257  144.7099  151.5240 LP  0  0  0  0  0  0  0  0  0  0  0  0  # atno 17342 bound_to 10162
  140.6457  143.8799  150.6735 LP  0  0  0  0  0  0  0  0  0  0  0  0  # atno 17343 bound_to 10162
  156.1415  130.6248  151.0473 LP  0  0  0  0  0  0  0  0  0  0  0  0  # atno 17370 bound_to 10713
  157.6786  131.0844  150.7429 LP  0  0  0  0  0  0  0  0  0  0  0  0  # atno 17371 bound_to 10713
  140.0386  134.9866  157.0918 LP  0  0  0  0  0  0  0  0  0  0  0  0  # atno 17394 bound_to 11000
  140.4171  134.1919  155.7163 LP  0  0  0  0  0  0  0  0  0  0  0  0  # atno 17395 bound_to 11000

$$$$
