AV-unprocessed.smi:1255|AV-procd|sdf|5282|dock3
  -GOLD-   22720 4403D 1   1.00000     0.00000
 Structure written by MMmdl.
 40 41  0  0  0  0  0  0  0  0  1 V2000
  149.9940  134.0719  156.2629 C   0  0  0  0  0  0  0  0  0  0  0  0
  150.4348  135.0803  155.1887 C   0  0  1  0  0  0  0  0  0  0  0  0
  149.2448  135.5109  154.4558 N   0  0  0  0  0  0  0  0  0  0  0  0
  148.0656  135.8173  155.0165 C   0  0  0  0  0  0  0  0  0  0  0  0
  147.1442  136.1486  154.1118 N   0  0  0  0  0  0  0  0  0  0  0  0
  147.8423  135.7972  156.2253 O   0  0  0  0  0  0  0  0  0  0  0  0
  151.0961  136.2743  155.8975 C   0  0  0  0  0  0  0  0  0  0  0  0
  152.1191  136.1053  156.5626 O   0  0  0  0  0  0  0  0  0  0  0  0
  150.4810  137.4594  155.7301 N   0  0  0  0  0  0  0  0  0  0  0  0
  150.8462  138.7315  156.2484 C   0  0  0  0  0  0  0  0  0  0  0  0
  150.6747  139.9541  155.5592 C   0  0  0  0  0  0  0  0  0  0  0  0
  151.0593  141.1530  156.1899 C   0  0  0  0  0  0  0  0  0  0  0  0
  151.6014  141.1075  157.4962 C   0  0  0  0  0  0  0  0  0  0  0  0
  151.9956  142.2981  158.1461 N   0  0  0  0  0  0  0  0  0  0  0  0
  151.3392  143.5443  157.7541 C   0  0  0  0  0  0  0  0  0  0  0  0
  152.0908  144.7528  158.3369 C   0  0  0  0  0  0  0  0  0  0  0  0
  152.1989  144.6128  159.7493 O   0  0  0  0  0  0  0  0  0  0  0  0
  152.9380  143.4507  160.1100 C   0  0  0  0  0  0  0  0  0  0  0  0
  152.2248  142.1921  159.5854 C   0  0  0  0  0  0  0  0  0  0  0  0
  151.7445  139.9346  158.1610 N   0  0  0  0  0  0  0  0  0  0  0  0
  151.3754  138.7879  157.5529 C   0  0  0  0  0  0  0  0  0  0  0  0
  150.8458  133.7120  156.8416 H   0  0  0  0  0  0  0  0  0  0  0  0
  149.5215  133.2008  155.8078 H   0  0  0  0  0  0  0  0  0  0  0  0
  149.2773  134.5072  156.9614 H   0  0  0  0  0  0  0  0  0  0  0  0
  151.1408  134.6028  154.5060 H   0  0  0  0  0  0  0  0  0  0  0  0
  149.3213  135.5529  153.4503 H   0  0  0  0  0  0  0  0  0  0  0  0
  146.2136  136.4079  154.4044 H   0  0  0  0  0  0  0  0  0  0  0  0
  147.3867  136.1448  153.1317 H   0  0  0  0  0  0  0  0  0  0  0  0
  149.6080  137.4335  155.2231 H   0  0  0  0  0  0  0  0  0  0  0  0
  150.2417  140.0012  154.5724 H   0  0  0  0  0  0  0  0  0  0  0  0
  150.9155  142.0895  155.6725 H   0  0  0  0  0  0  0  0  0  0  0  0
  151.3074  143.6302  156.6673 H   0  0  0  0  0  0  0  0  0  0  0  0
  150.3089  143.5375  158.1123 H   0  0  0  0  0  0  0  0  0  0  0  0
  153.0831  144.8459  157.8921 H   0  0  0  0  0  0  0  0  0  0  0  0
  151.5536  145.6739  158.1109 H   0  0  0  0  0  0  0  0  0  0  0  0
  153.9530  143.5148  159.7147 H   0  0  0  0  0  0  0  0  0  0  0  0
  153.0226  143.4081  161.1959 H   0  0  0  0  0  0  0  0  0  0  0  0
  151.2631  142.0726  160.0861 H   0  0  0  0  0  0  0  0  0  0  0  0
  152.8232  141.3181  159.8375 H   0  0  0  0  0  0  0  0  0  0  0  0
  151.5115  137.8842  158.1289 H   0  0  0  0  0  0  0  0  0  0  0  0
  1  2  1  0  0  0  0
  1 22  1  0  0  0  0
  1 23  1  0  0  0  0
  1 24  1  0  0  0  0
  2  3  1  0  0  0  0
  2  7  1  0  0  0  0
  2 25  1  0  0  0  0
  3  4  1  0  0  0  0
  3 26  1  0  0  0  0
  4  5  1  0  0  0  0
  4  6  2  0  0  0  0
  5 27  1  0  0  0  0
  5 28  1  0  0  0  0
  7  8  2  0  0  0  0
  7  9  1  0  0  0  0
  9 10  1  0  0  0  0
  9 29  1  0  0  0  0
 10 21  1  0  0  0  0
 10 11  2  0  0  0  0
 11 12  1  0  0  0  0
 11 30  1  0  0  0  0
 12 13  2  0  0  0  0
 12 31  1  0  0  0  0
 13 14  1  0  0  0  0
 13 20  1  0  0  0  0
 14 19  1  0  0  0  0
 14 15  1  0  0  0  0
 15 16  1  0  0  0  0
 15 32  1  0  0  0  0
 15 33  1  0  0  0  0
 16 17  1  0  0  0  0
 16 34  1  0  0  0  0
 16 35  1  0  0  0  0
 17 18  1  0  0  0  0
 18 19  1  0  0  0  0
 18 36  1  0  0  0  0
 18 37  1  0  0  0  0
 19 38  1  0  0  0  0
 19 39  1  0  0  0  0
 20 21  2  0  0  0  0
 21 40  1  0  0  0  0
M  END
> <s_m_source_file>
AV-unprocessed.smi

> <i_m_source_file_index>
1255

> <i_lp_mmshare_version>
43012

> <i_f3d_flags>
0

> <s_epik_input>
W05IMl1DKD1PKVtOSF1bQ0BASF0oW0NIM10pQyg9TylbTkhdYzFbY0hdW2NIXWMobltjSF0xKU4yW0NIMl1bQ0gyXU9bQ0gyXVtDSDJdMg==

> <s_epik_cmdline>
J2VwaWtfcHl0aG9uJywgJy1waCcsICc3LjAnLCAnLXRuJywgJzgnLCAnLW1hJywgJzIwMCcsICctbWV0YWxfYmluZGluZycsICctaW1hZScsICc8aW5maWxlLm1hZT4nLCAnLW9tYWUnLCAnPG91dGZpbGUubWFlPic=

> <r_lp_tautomer_probability>
1

> <r_epik_Ionization_Penalty>
0.00069351

> <r_epik_Ionization_Penalty_Charging>
0

> <r_epik_Ionization_Penalty_Neutral>
0.00069351

> <r_epik_State_Penalty>
0.000408291

> <r_epik_Charging_Adjusted_Penalty>
0.000408291

> <i_epik_Tot_Q>
0

> <i_epik_Tot_abs_Q>
0

> <r_epik_Metal_State_Penalty>
-0

> <b_epik_Metal_Only>
0

> <s_lp_Force_Field>
OPLS_2005

> <r_lp_Energy>
18.2011

> <b_lp_Chiralities_Consistent>
1

> <s_lp_Variant>
AV-unprocessed.smi:1255-2

> <Gold.Version>
5.8.1

> <Gold.Id.Protein>
6NUR|6NUR_protein|mol2

> <Gold.PLP.Fitness>
39.5539

> <Gold.PLP.PLP>
-32.6001

> <Gold.PLP.part.hbond>
-3.0000

> <Gold.PLP.part.metal>
0.0000

> <Gold.PLP.part.buried>
-4.3659

> <Gold.PLP.part.nonpolar>
-25.7712

> <Gold.PLP.part.repulsive>
0.1398

> <Gold.PLP.ligand.clash>
0.0000

> <Gold.PLP.ligand.torsion>
1.0218

> <Gold.PLP.Chemscore.Hbond>
2.8800

> <Gold.PLP.Chemscore.CHOScore>
0.0000

> <Gold.PLP.Chemscore.Metal>
0.0000

> <Gold.Chemscore.Hbonds>
donor molecule, donor type, donor heavy atom, donor atom, acceptor molecule, acceptor atom, score
      L1  H     3    26       P1  7948  1.00
      L1  H     5    28       P1  7948  0.86
      P1  H 10752 10765       L1     8  1.00

> <Gold.PLP.Chemscore.Internal.Correction>
0.3575

> <Gold.Rescore>
     Score         DG    S(hbond)    S(metal)    S(lipo)     H(rot)  DE(clash)    DE(int)     intcor
     12.02     -16.62       2.08        0.00      77.68       1.91       0.02       4.57       ----

> <Gold.Chemscore.Fitness>
12.0225

> <Gold.Chemscore.DG>
-16.6179

> <Gold.Chemscore.ZeroCoef>
-5.4800

> <Gold.Chemscore.Hbond>
2.0750

> <Gold.Chemscore.Metal>
0.0000

> <Gold.Chemscore.Lipo>
77.6792

> <Gold.Chemscore.Internal_Hbond>
0.0000

> <Gold.Chemscore.DEClash>
0.0243

> <Gold.Chemscore.DEInternal>
4.5711

> <Gold.Chemscore.Rot>
1.9067

> <Gold.Chemscore.Internal.Correction>
   9.000000E+99

> <Gold.Chemscore.Hbonds>
donor molecule, donor type, donor heavy atom, donor atom, acceptor molecule, acceptor atom, score
      L1  H     3    26       P1  7948  0.30
      L1  H     5    28       P1  7948  0.80
      P1  H 10752 10765       L1     8  0.52

> <Gold.Chemscore.Hbond.Weighted>
-6.9306

> <Gold.Chemscore.Metal.Weighted>
-0.0000

> <Gold.Chemscore.Lipo.Weighted>
-9.0885

> <Gold.Chemscore.Internal_Hbond.Weighted>
0.0000

> <Gold.Chemscore.DEClash.Weighted>
0.0243

> <Gold.Chemscore.DEInternal.Weighted>
4.5711

> <Gold.Chemscore.Rot.Weighted>
4.8811

> <Gold.Chemscore.Internal.Correction.Weighted>
   9.000000E+99

> <Gold.Protein.RotatedTorsions>
[ 6907 6896 6895 6894 ] final  -10.39 input  -60.11 | X-H torsion
[ 7974 7965 7964 7962 ] final   -5.98 input  175.53 | X-H torsion
[ 8008 7997 7996 7995 ] final -166.22 input   59.86 | X-H torsion
[ 10167 10162 10161 10158 ] final -155.16 input  -65.29 | X-H torsion
[ 10718 10713 10712 10709 ] final  -74.54 input   66.30 | X-H torsion
[ 10763 10752 10751 10750 ] final -124.26 input  -60.55 | X-H torsion
[ 11005 11000 10999 10996 ] final   48.21 input  -57.11 | X-H torsion

> <Gold.Protein.ActiveResidues>
 VAL166  LYS551  ARG553  GLY616  TRP617  ASP618  TYR619  PRO620  LYS621  CYS622 
 ASP623  PHE694  ASN695  SER759  ASP760  ASP761  ALA762  ILE779  LEU786  VAL792 
 PHE793  MET794  SER795  GLU796  ALA797  LYS798  CYS799  TRP800  GLU811  SER814 

> <Gold.Protein.RotatedAtoms>
  151.4028  135.0973  159.9560 H   0  0  0  0  0  0  0  0  0  0  0  0  # atno 6907 bound_to 6896
  152.5045  133.8872  159.7386 H   0  0  0  0  0  0  0  0  0  0  0  0  # atno 6908 bound_to 6896
  150.9350  133.6666  159.2831 H   0  0  0  0  0  0  0  0  0  0  0  0  # atno 6909 bound_to 6896
  146.2341  140.2102  142.8335 H   0  0  0  0  0  0  0  0  0  0  0  0  # atno 7974 bound_to 7965
  155.8608  140.0978  157.1615 H   0  0  0  0  0  0  0  0  0  0  0  0  # atno 8008 bound_to 7997
  154.3990  140.1365  156.4021 H   0  0  0  0  0  0  0  0  0  0  0  0  # atno 8009 bound_to 7997
  155.7859  140.3457  155.5325 H   0  0  0  0  0  0  0  0  0  0  0  0  # atno 8010 bound_to 7997
  139.6954  143.9352  152.2404 H   0  0  0  0  0  0  0  0  0  0  0  0  # atno 10167 bound_to 10162
  156.0239  130.4419  150.2907 H   0  0  0  0  0  0  0  0  0  0  0  0  # atno 10718 bound_to 10713
  154.8720  135.4070  154.3077 H   0  0  0  0  0  0  0  0  0  0  0  0  # atno 10763 bound_to 10752
  153.3926  135.7015  153.6489 H   0  0  0  0  0  0  0  0  0  0  0  0  # atno 10764 bound_to 10752
  153.5266  135.3676  155.2628 H   0  0  0  0  0  0  0  0  0  0  0  0  # atno 10765 bound_to 10752
  140.1211  134.4829  155.8597 H   0  0  0  0  0  0  0  0  0  0  0  0  # atno 11005 bound_to 11000
  144.9713  140.8371  143.5454 LP  0  0  0  0  0  0  0  0  0  0  0  0  # atno 17320 bound_to 7965
  145.2084  139.2217  143.5156 LP  0  0  0  0  0  0  0  0  0  0  0  0  # atno 17321 bound_to 7965
  139.9179  144.6817  150.8492 LP  0  0  0  0  0  0  0  0  0  0  0  0  # atno 17342 bound_to 10162
  140.7695  143.3396  151.2236 LP  0  0  0  0  0  0  0  0  0  0  0  0  # atno 17343 bound_to 10162
  157.1010  131.0196  151.3085 LP  0  0  0  0  0  0  0  0  0  0  0  0  # atno 17370 bound_to 10713
  157.4779  130.7748  149.7386 LP  0  0  0  0  0  0  0  0  0  0  0  0  # atno 17371 bound_to 10713
  141.2152  133.6761  156.6890 LP  0  0  0  0  0  0  0  0  0  0  0  0  # atno 17394 bound_to 11000
  140.2964  134.8199  157.4061 LP  0  0  0  0  0  0  0  0  0  0  0  0  # atno 17395 bound_to 11000

$$$$
