AV-unprocessed.smi:1419|AV-procd|sdf|5781|dock8
  -GOLD-   22720 5423D 1   1.00000     0.00000
 Structure written by MMmdl.
 41 42  0  0  0  0  0  0  0  0  1 V2000
  146.2090  131.1055  153.5356 C   0  0  0  0  0  0  0  0  0  0  0  0
  147.2673  131.8081  152.6747 C   0  0  1  0  0  0  0  0  0  0  0  0
  146.6711  133.0222  151.9296 C   0  0  0  0  0  0  0  0  0  0  0  0
  145.4816  132.6836  151.1682 N   0  0  0  0  0  0  0  0  0  0  0  0
  144.1768  132.6129  151.6378 C   0  0  0  0  0  0  0  0  0  0  0  0
  143.3951  132.2348  150.5696 C   0  0  0  0  0  0  0  0  0  0  0  0
  144.1914  132.0757  149.4377 N   0  0  0  0  0  0  0  0  0  0  0  0
  145.4127  132.3633  149.8683 C   0  0  0  0  0  0  0  0  0  0  0  0
  148.3773  132.2262  153.5298 N   0  0  0  0  0  0  0  0  0  0  0  0
  149.1168  131.4192  154.3111 C   0  0  0  0  0  0  0  0  0  0  0  0
  148.8468  130.2279  154.4701 O   0  0  0  0  0  0  0  0  0  0  0  0
  150.2104  132.0088  154.8528 N   0  0  0  0  0  0  0  0  0  0  0  0
  151.2711  131.3526  155.6278 C   0  0  0  0  0  0  0  0  0  0  0  0
  151.0756  131.7292  157.1097 C   0  0  1  0  0  0  0  0  0  0  0  0
  152.1637  131.1320  158.0077 C   0  0  0  0  0  0  0  0  0  0  0  0
  151.1207  133.1510  157.2365 O   0  0  0  0  0  0  0  0  0  0  0  0
  150.1449  133.8358  156.4496 C   0  0  1  0  0  0  0  0  0  0  0  0
  150.2983  135.3399  156.6970 C   0  0  0  0  0  0  0  0  0  0  0  0
  150.3406  133.4625  154.9655 C   0  0  0  0  0  0  0  0  0  0  0  0
  145.3759  130.7571  152.9246 H   0  0  0  0  0  0  0  0  0  0  0  0
  145.8063  131.7750  154.2965 H   0  0  0  0  0  0  0  0  0  0  0  0
  146.6291  130.2369  154.0439 H   0  0  0  0  0  0  0  0  0  0  0  0
  147.6173  131.0826  151.9380 H   0  0  0  0  0  0  0  0  0  0  0  0
  146.4017  133.8041  152.6404 H   0  0  0  0  0  0  0  0  0  0  0  0
  147.4090  133.4559  151.2530 H   0  0  0  0  0  0  0  0  0  0  0  0
  143.9218  132.8206  152.6664 H   0  0  0  0  0  0  0  0  0  0  0  0
  142.3293  132.0654  150.5293 H   0  0  0  0  0  0  0  0  0  0  0  0
  146.2797  132.3269  149.2252 H   0  0  0  0  0  0  0  0  0  0  0  0
  148.6626  133.1918  153.4571 H   0  0  0  0  0  0  0  0  0  0  0  0
  151.2956  130.2693  155.5091 H   0  0  0  0  0  0  0  0  0  0  0  0
  152.2422  131.7046  155.2763 H   0  0  0  0  0  0  0  0  0  0  0  0
  150.1035  131.3729  157.4548 H   0  0  0  0  0  0  0  0  0  0  0  0
  152.1601  130.0430  157.9567 H   0  0  0  0  0  0  0  0  0  0  0  0
  152.0094  131.4163  159.0487 H   0  0  0  0  0  0  0  0  0  0  0  0
  153.1540  131.4786  157.7111 H   0  0  0  0  0  0  0  0  0  0  0  0
  149.1491  133.5297  156.7769 H   0  0  0  0  0  0  0  0  0  0  0  0
  149.5658  135.9080  156.1230 H   0  0  0  0  0  0  0  0  0  0  0  0
  151.2917  135.6876  156.4118 H   0  0  0  0  0  0  0  0  0  0  0  0
  150.1512  135.5774  157.7507 H   0  0  0  0  0  0  0  0  0  0  0  0
  151.3280  133.7715  154.6189 H   0  0  0  0  0  0  0  0  0  0  0  0
  149.6220  133.9999  154.3450 H   0  0  0  0  0  0  0  0  0  0  0  0
  1  2  1  0  0  0  0
  1 20  1  0  0  0  0
  1 21  1  0  0  0  0
  1 22  1  0  0  0  0
  2  3  1  0  0  0  0
  2  9  1  0  0  0  0
  2 23  1  0  0  0  0
  3  4  1  0  0  0  0
  3 24  1  0  0  0  0
  3 25  1  0  0  0  0
  4  8  1  0  0  0  0
  4  5  1  0  0  0  0
  5  6  2  0  0  0  0
  5 26  1  0  0  0  0
  6  7  1  0  0  0  0
  6 27  1  0  0  0  0
  7  8  2  0  0  0  0
  8 28  1  0  0  0  0
  9 10  1  0  0  0  0
  9 29  1  0  0  0  0
 10 11  2  0  0  0  0
 10 12  1  0  0  0  0
 12 19  1  0  0  0  0
 12 13  1  0  0  0  0
 13 14  1  0  0  0  0
 13 30  1  0  0  0  0
 13 31  1  0  0  0  0
 14 15  1  0  0  0  0
 14 16  1  0  0  0  0
 14 32  1  0  0  0  0
 15 33  1  0  0  0  0
 15 34  1  0  0  0  0
 15 35  1  0  0  0  0
 16 17  1  0  0  0  0
 17 18  1  0  0  0  0
 17 19  1  0  0  0  0
 17 36  1  0  0  0  0
 18 37  1  0  0  0  0
 18 38  1  0  0  0  0
 18 39  1  0  0  0  0
 19 40  1  0  0  0  0
 19 41  1  0  0  0  0
M  END
> <s_m_source_file>
AV-unprocessed.smi

> <i_m_source_file_index>
1419

> <i_lp_mmshare_version>
43012

> <i_f3d_flags>
0

> <s_epik_input>
W2NIXTFuW2NIXVtjSF1uMVtDSDJdW0NAQEhdKFtDSDNdKVtOSF1DKD1PKU4yW0NIMl1bQ0BASF0oW0NIM10pT1tDQEBIXShbQ0gzXSlbQ0gyXTI=

> <s_epik_cmdline>
J2VwaWtfcHl0aG9uJywgJy1waCcsICc3LjAnLCAnLXRuJywgJzgnLCAnLW1hJywgJzIwMCcsICctbWV0YWxfYmluZGluZycsICctaW1hZScsICc8aW5maWxlLm1hZT4nLCAnLW9tYWUnLCAnPG91dGZpbGUubWFlPic=

> <r_lp_tautomer_probability>
1

> <r_epik_Ionization_Penalty>
0.625124

> <r_epik_Ionization_Penalty_Charging>
0.625093

> <r_epik_Ionization_Penalty_Neutral>
3.17415e-05

> <r_epik_State_Penalty>
0.641455

> <r_epik_Charging_Adjusted_Penalty>
1.26655

> <i_epik_Tot_Q>
0

> <i_epik_Tot_abs_Q>
0

> <r_epik_Metal_State_Penalty>
0.307717

> <b_epik_Metal_Only>
0

> <s_lp_Force_Field>
OPLS_2005

> <r_lp_Energy>
27.9017

> <b_lp_Chiralities_Consistent>
1

> <s_lp_Variant>
AV-unprocessed.smi:1419-8

> <Gold.Version>
5.8.1

> <Gold.Id.Protein>
6NUR|6NUR_protein|mol2

> <Gold.PLP.Fitness>
37.9482

> <Gold.PLP.PLP>
-30.3591

> <Gold.PLP.part.hbond>
-1.7880

> <Gold.PLP.part.metal>
0.0000

> <Gold.PLP.part.buried>
-5.7020

> <Gold.PLP.part.nonpolar>
-24.6340

> <Gold.PLP.part.repulsive>
0.2317

> <Gold.PLP.ligand.clash>
0.7810

> <Gold.PLP.ligand.torsion>
0.4480

> <Gold.PLP.Chemscore.Hbond>
1.1214

> <Gold.PLP.Chemscore.CHOScore>
1.9457

> <Gold.PLP.Chemscore.Metal>
0.0000

> <Gold.Chemscore.Hbonds>
donor molecule, donor type, donor heavy atom, donor atom, acceptor molecule, acceptor atom, score
      P1  H  6896  6907       L1    16  0.86
      P1  H 10785 10796       L1     7  0.21
      L1  C     5    26       P1 10957  0.61
      L1  C     6    27       P1 10186  0.11
      L1  C     6    27       P1 10952  1.00

> <Gold.PLP.Chemscore.Internal.Correction>
0.0648

> <Gold.Rescore>
     Score         DG    S(hbond)    S(metal)    S(lipo)     H(rot)  DE(clash)    DE(int)     intcor
      8.97     -11.46       0.94        0.00      58.86       1.58       0.04       2.45       ----

> <Gold.Chemscore.Fitness>
8.9712

> <Gold.Chemscore.DG>
-11.4645

> <Gold.Chemscore.ZeroCoef>
-5.4800

> <Gold.Chemscore.Hbond>
0.9387

> <Gold.Chemscore.Metal>
0.0000

> <Gold.Chemscore.Lipo>
58.8554

> <Gold.Chemscore.Internal_Hbond>
0.0000

> <Gold.Chemscore.DEClash>
0.0405

> <Gold.Chemscore.DEInternal>
2.4528

> <Gold.Chemscore.Rot>
1.5769

> <Gold.Chemscore.Internal.Correction>
   9.000000E+99

> <Gold.Chemscore.Hbonds>
donor molecule, donor type, donor heavy atom, donor atom, acceptor molecule, acceptor atom, score
      P1  H  6896  6907       L1    16  0.36
      P1  H 10785 10796       L1     7  0.03

> <Gold.Chemscore.Hbond.Weighted>
-3.1353

> <Gold.Chemscore.Metal.Weighted>
-0.0000

> <Gold.Chemscore.Lipo.Weighted>
-6.8861

> <Gold.Chemscore.Internal_Hbond.Weighted>
0.0000

> <Gold.Chemscore.DEClash.Weighted>
0.0405

> <Gold.Chemscore.DEInternal.Weighted>
2.4528

> <Gold.Chemscore.Rot.Weighted>
4.0369

> <Gold.Chemscore.Internal.Correction.Weighted>
   9.000000E+99

> <Gold.Protein.RotatedTorsions>
[ 6907 6896 6895 6894 ] final -151.47 input  -60.11 | X-H torsion
[ 7974 7965 7964 7962 ] final   92.80 input  175.53 | X-H torsion
[ 8008 7997 7996 7995 ] final  166.55 input   59.86 | X-H torsion
[ 10167 10162 10161 10158 ] final  -28.32 input  -65.29 | X-H torsion
[ 10718 10713 10712 10709 ] final  157.19 input   66.30 | X-H torsion
[ 10763 10752 10751 10750 ] final  131.21 input  -60.55 | X-H torsion
[ 11005 11000 10999 10996 ] final   -3.08 input  -57.11 | X-H torsion

> <Gold.Protein.ActiveResidues>
 VAL166  LYS551  ARG553  GLY616  TRP617  ASP618  TYR619  PRO620  LYS621  CYS622 
 ASP623  PHE694  ASN695  SER759  ASP760  ASP761  ALA762  ILE779  LEU786  VAL792 
 PHE793  MET794  SER795  GLU796  ALA797  LYS798  CYS799  TRP800  GLU811  SER814 

> <Gold.Protein.RotatedAtoms>
  151.2136  133.4542  159.2598 H   0  0  0  0  0  0  0  0  0  0  0  0  # atno 6907 bound_to 6896
  151.0953  134.9940  159.8432 H   0  0  0  0  0  0  0  0  0  0  0  0  # atno 6908 bound_to 6896
  152.5438  134.2066  159.8786 H   0  0  0  0  0  0  0  0  0  0  0  0  # atno 6909 bound_to 6896
  145.4874  139.2277  143.2849 H   0  0  0  0  0  0  0  0  0  0  0  0  # atno 7974 bound_to 7965
  156.1709  140.1640  156.8449 H   0  0  0  0  0  0  0  0  0  0  0  0  # atno 8008 bound_to 7997
  154.5256  140.0768  156.8286 H   0  0  0  0  0  0  0  0  0  0  0  0  # atno 8009 bound_to 7997
  155.3514  140.3390  155.4241 H   0  0  0  0  0  0  0  0  0  0  0  0  # atno 8010 bound_to 7997
  140.7271  143.4020  151.1249 H   0  0  0  0  0  0  0  0  0  0  0  0  # atno 10167 bound_to 10162
  157.1948  131.0663  151.2059 H   0  0  0  0  0  0  0  0  0  0  0  0  # atno 10718 bound_to 10713
  153.7706  135.3182  155.3351 H   0  0  0  0  0  0  0  0  0  0  0  0  # atno 10763 bound_to 10752
  154.8198  135.4611  154.0748 H   0  0  0  0  0  0  0  0  0  0  0  0  # atno 10764 bound_to 10752
  153.2006  135.6922  153.8320 H   0  0  0  0  0  0  0  0  0  0  0  0  # atno 10765 bound_to 10752
  140.6654  133.9283  155.8462 H   0  0  0  0  0  0  0  0  0  0  0  0  # atno 11005 bound_to 11000
  146.2304  140.5666  142.8978 LP  0  0  0  0  0  0  0  0  0  0  0  0  # atno 17320 bound_to 7965
  144.7853  140.5924  143.6578 LP  0  0  0  0  0  0  0  0  0  0  0  0  # atno 17321 bound_to 7965
  139.7641  143.8591  152.3107 LP  0  0  0  0  0  0  0  0  0  0  0  0  # atno 17342 bound_to 10162
  139.8487  144.7175  150.9241 LP  0  0  0  0  0  0  0  0  0  0  0  0  # atno 17343 bound_to 10162
  157.3825  130.7239  149.6640 LP  0  0  0  0  0  0  0  0  0  0  0  0  # atno 17370 bound_to 10713
  155.9707  130.4168  150.4251 LP  0  0  0  0  0  0  0  0  0  0  0  0  # atno 17371 bound_to 10713
  141.0433  134.0590  157.3875 LP  0  0  0  0  0  0  0  0  0  0  0  0  # atno 17394 bound_to 11000
  139.8999  135.0160  156.7216 LP  0  0  0  0  0  0  0  0  0  0  0  0  # atno 17395 bound_to 11000

$$$$
