AV-unprocessed.smi:1872|AV-procd|sdf|7605|dock10
  -GOLD-   22720 9323D 1   1.00000     0.00000
 Structure written by MMmdl.
 40 42  0  0  0  0  0  0  0  0  2 V2000
  146.8646  139.0716  152.7932 C   0  0  0  0  0  0  0  0  0  0  0  0
  148.1374  139.1236  153.5695 C   0  0  0  0  0  0  0  0  0  0  0  0
  149.2297  138.3327  153.3742 N   0  3  0  0  0  0  0  0  0  0  0  0
  150.2263  138.6693  154.2913 C   0  0  0  0  0  0  0  0  0  0  0  0
  151.5024  138.1477  154.4808 C   0  0  0  0  0  0  0  0  0  0  0  0
  152.2740  138.7219  155.5121 C   0  0  0  0  0  0  0  0  0  0  0  0
  151.7716  139.7733  156.3062 C   0  0  0  0  0  0  0  0  0  0  0  0
  150.4764  140.2937  156.1043 C   0  0  0  0  0  0  0  0  0  0  0  0
  149.7179  139.7187  155.0845 C   0  0  0  0  0  0  0  0  0  0  0  0
  148.4257  139.9644  154.6033 N   0  0  0  0  0  0  0  0  0  0  0  0
  147.6008  141.0146  155.2214 C   0  0  0  0  0  0  0  0  0  0  0  0
  147.3115  142.1909  154.2678 C   0  0  2  0  0  0  0  0  0  0  0  0
  148.4687  142.9897  154.1134 O   0  0  0  0  0  0  0  0  0  0  0  0
  146.1137  142.9989  154.7408 C   0  0  0  0  0  0  0  0  0  0  0  0
  145.6276  144.0648  153.9555 C   0  0  0  0  0  0  0  0  0  0  0  0
  144.5115  144.8095  154.3823 C   0  0  0  0  0  0  0  0  0  0  0  0
  143.8686  144.5061  155.5992 C   0  0  0  0  0  0  0  0  0  0  0  0
  142.7738  145.2611  155.9543 O   0  0  0  0  0  0  0  0  0  0  0  0
  141.9988  145.8089  154.9809 C   0  0  0  0  0  0  0  0  0  0  0  0
  141.4627  144.8273  154.2162 F   0  0  0  0  0  0  0  0  0  0  0  0
  140.9738  146.5071  155.5282 F   0  0  0  0  0  0  0  0  0  0  0  0
  144.3489  143.4271  156.3795 C   0  0  0  0  0  0  0  0  0  0  0  0
  145.4645  142.6813  155.9531 C   0  0  0  0  0  0  0  0  0  0  0  0
  146.9152  138.2999  152.0248 H   0  0  0  0  0  0  0  0  0  0  0  0
  146.6778  140.0307  152.3101 H   0  0  0  0  0  0  0  0  0  0  0  0
  146.0290  138.8466  153.4563 H   0  0  0  0  0  0  0  0  0  0  0  0
  151.8899  137.3434  153.8725 H   0  0  0  0  0  0  0  0  0  0  0  0
  153.2714  138.3498  155.6968 H   0  0  0  0  0  0  0  0  0  0  0  0
  152.3924  140.1905  157.0856 H   0  0  0  0  0  0  0  0  0  0  0  0
  150.1058  141.1031  156.7153 H   0  0  0  0  0  0  0  0  0  0  0  0
  146.6630  140.5476  155.5250 H   0  0  0  0  0  0  0  0  0  0  0  0
  148.0775  141.3552  156.1406 H   0  0  0  0  0  0  0  0  0  0  0  0
  147.0806  141.7902  153.2799 H   0  0  0  0  0  0  0  0  0  0  0  0
  149.0038  142.6111  153.4323 H   0  0  0  0  0  0  0  0  0  0  0  0
  146.1065  144.3148  153.0200 H   0  0  0  0  0  0  0  0  0  0  0  0
  144.1466  145.6223  153.7714 H   0  0  0  0  0  0  0  0  0  0  0  0
  142.5753  146.4633  154.3265 H   0  0  0  0  0  0  0  0  0  0  0  0
  143.8654  143.1551  157.3059 H   0  0  0  0  0  0  0  0  0  0  0  0
  145.8166  141.8592  156.5590 H   0  0  0  0  0  0  0  0  0  0  0  0
  149.2872  137.6144  152.6637 H   0  0  0  0  0  0  0  0  0  0  0  0
  1  2  1  0  0  0  0
  1 24  1  0  0  0  0
  1 25  1  0  0  0  0
  1 26  1  0  0  0  0
  2 10  1  0  0  0  0
  2  3  2  0  0  0  0
  3  4  1  0  0  0  0
  3 40  1  0  0  0  0
  4  9  2  0  0  0  0
  4  5  1  0  0  0  0
  5  6  2  0  0  0  0
  5 27  1  0  0  0  0
  6  7  1  0  0  0  0
  6 28  1  0  0  0  0
  7  8  2  0  0  0  0
  7 29  1  0  0  0  0
  8  9  1  0  0  0  0
  8 30  1  0  0  0  0
  9 10  1  0  0  0  0
 10 11  1  0  0  0  0
 11 12  1  0  0  0  0
 11 31  1  0  0  0  0
 11 32  1  0  0  0  0
 12 13  1  0  0  0  0
 12 14  1  0  0  0  0
 12 33  1  0  0  0  0
 13 34  1  0  0  0  0
 14 23  1  0  0  0  0
 14 15  2  0  0  0  0
 15 16  1  0  0  0  0
 15 35  1  0  0  0  0
 16 17  2  0  0  0  0
 16 36  1  0  0  0  0
 17 18  1  0  0  0  0
 17 22  1  0  0  0  0
 18 19  1  0  0  0  0
 19 20  1  0  0  0  0
 19 21  1  0  0  0  0
 19 37  1  0  0  0  0
 22 23  2  0  0  0  0
 22 38  1  0  0  0  0
 23 39  1  0  0  0  0
M  CHG  1   3   1
M  END
> <s_m_source_file>
AV-unprocessed.smi

> <i_m_source_file_index>
1872

> <i_lp_mmshare_version>
43012

> <i_f3d_flags>
0

> <s_epik_input>
W2NIXTFbY0hdW2NIXVtjSF1jKGMxMiluKGMobjIpW0NIM10pW0NIMl1bQ0BIXShbT0hdKWMzW2NIXVtjSF1jKE9bQ0hdKEYpRilbY0hdW2NIXTM=

> <s_epik_cmdline>
J2VwaWtfcHl0aG9uJywgJy1waCcsICc3LjAnLCAnLXRuJywgJzgnLCAnLW1hJywgJzIwMCcsICctbWV0YWxfYmluZGluZycsICctaW1hZScsICc8aW5maWxlLm1hZT4nLCAnLW9tYWUnLCAnPG91dGZpbGUubWFlPic=

> <r_lp_tautomer_probability>
1

> <r_epik_Ionization_Penalty>
0.963868

> <r_epik_Ionization_Penalty_Charging>
0.963868

> <r_epik_Ionization_Penalty_Neutral>
2.50501e-07

> <r_epik_State_Penalty>
1.00924

> <r_epik_Charging_Adjusted_Penalty>
1.9731

> <i_epik_Tot_Q>
1

> <i_epik_Tot_abs_Q>
1

> <r_epik_Metal_State_Penalty>
4.98304

> <b_epik_Metal_Only>
0

> <s_lp_Force_Field>
OPLS_2005

> <r_lp_Energy>
14.3509

> <b_lp_Chiralities_Consistent>
1

> <s_lp_Variant>
AV-unprocessed.smi:1872-3

> <Gold.Version>
5.8.1

> <Gold.Id.Protein>
6NUR|6NUR_protein|mol2

> <Gold.PLP.Fitness>
52.6016

> <Gold.PLP.PLP>
-44.7606

> <Gold.PLP.part.hbond>
-4.7761

> <Gold.PLP.part.metal>
0.0000

> <Gold.PLP.part.buried>
-4.5588

> <Gold.PLP.part.nonpolar>
-37.3943

> <Gold.PLP.part.repulsive>
0.0800

> <Gold.PLP.ligand.clash>
0.0000

> <Gold.PLP.ligand.torsion>
0.5605

> <Gold.PLP.Chemscore.Hbond>
2.9760

> <Gold.PLP.Chemscore.CHOScore>
0.0000

> <Gold.PLP.Chemscore.Metal>
0.0000

> <Gold.Chemscore.Hbonds>
donor molecule, donor type, donor heavy atom, donor atom, acceptor molecule, acceptor atom, score
      L1  H     3    40       P1  7948  2.00
      P1  H  8022  8030       L1    13  0.95

> <Gold.PLP.Chemscore.Internal.Correction>
0.0341

> <Gold.Rescore>
     Score         DG    S(hbond)    S(metal)    S(lipo)     H(rot)  DE(clash)    DE(int)     intcor
     13.70     -16.94       1.73        0.00      99.46       2.32       3.04       0.20       ----

> <Gold.Chemscore.Fitness>
13.6981

> <Gold.Chemscore.DG>
-16.9415

> <Gold.Chemscore.ZeroCoef>
-5.4800

> <Gold.Chemscore.Hbond>
1.7252

> <Gold.Chemscore.Metal>
0.0000

> <Gold.Chemscore.Lipo>
99.4650

> <Gold.Chemscore.Internal_Hbond>
0.0000

> <Gold.Chemscore.DEClash>
3.0417

> <Gold.Chemscore.DEInternal>
0.2018

> <Gold.Chemscore.Rot>
2.3195

> <Gold.Chemscore.Internal.Correction>
   9.000000E+99

> <Gold.Chemscore.Hbonds>
donor molecule, donor type, donor heavy atom, donor atom, acceptor molecule, acceptor atom, score
      L1  H     3    40       P1  7948  0.91
      P1  H  8022  8030       L1    13  0.21

> <Gold.Chemscore.Hbond.Weighted>
-5.7620

> <Gold.Chemscore.Metal.Weighted>
-0.0000

> <Gold.Chemscore.Lipo.Weighted>
-11.6374

> <Gold.Chemscore.Internal_Hbond.Weighted>
0.0000

> <Gold.Chemscore.DEClash.Weighted>
3.0417

> <Gold.Chemscore.DEInternal.Weighted>
0.2018

> <Gold.Chemscore.Rot.Weighted>
5.9379

> <Gold.Chemscore.Internal.Correction.Weighted>
   9.000000E+99

> <Gold.Protein.RotatedTorsions>
[ 6907 6896 6895 6894 ] final -151.74 input  -60.11 | X-H torsion
[ 7974 7965 7964 7962 ] final  143.55 input  175.53 | X-H torsion
[ 8008 7997 7996 7995 ] final    3.27 input   59.86 | X-H torsion
[ 10167 10162 10161 10158 ] final  -94.82 input  -65.29 | X-H torsion
[ 10718 10713 10712 10709 ] final -169.97 input   66.30 | X-H torsion
[ 10763 10752 10751 10750 ] final -145.17 input  -60.55 | X-H torsion
[ 11005 11000 10999 10996 ] final  132.23 input  -57.11 | X-H torsion

> <Gold.Protein.ActiveResidues>
 VAL166  LYS551  ARG553  GLY616  TRP617  ASP618  TYR619  PRO620  LYS621  CYS622 
 ASP623  PHE694  ASN695  SER759  ASP760  ASP761  ALA762  ILE779  LEU786  VAL792 
 PHE793  MET794  SER795  GLU796  ALA797  LYS798  CYS799  TRP800  GLU811  SER814 

> <Gold.Protein.RotatedAtoms>
  151.2175  133.4521  159.2599 H   0  0  0  0  0  0  0  0  0  0  0  0  # atno 6907 bound_to 6896
  151.0917  134.9920  159.8416 H   0  0  0  0  0  0  0  0  0  0  0  0  # atno 6908 bound_to 6896
  152.5435  134.2108  159.8802 H   0  0  0  0  0  0  0  0  0  0  0  0  # atno 6909 bound_to 6896
  144.8911  139.5557  143.5798 H   0  0  0  0  0  0  0  0  0  0  0  0  # atno 7974 bound_to 7965
  154.7016  140.2674  155.6714 H   0  0  0  0  0  0  0  0  0  0  0  0  # atno 8008 bound_to 7997
  156.2767  140.2771  156.1553 H   0  0  0  0  0  0  0  0  0  0  0  0  # atno 8009 bound_to 7997
  155.0756  140.0372  157.2613 H   0  0  0  0  0  0  0  0  0  0  0  0  # atno 8010 bound_to 7997
  140.3105  143.3108  152.0153 H   0  0  0  0  0  0  0  0  0  0  0  0  # atno 10167 bound_to 10162
  156.7193  130.9264  151.3096 H   0  0  0  0  0  0  0  0  0  0  0  0  # atno 10718 bound_to 10713
  154.8395  135.3420  154.6462 H   0  0  0  0  0  0  0  0  0  0  0  0  # atno 10763 bound_to 10752
  153.7074  135.6966  153.5051 H   0  0  0  0  0  0  0  0  0  0  0  0  # atno 10764 bound_to 10752
  153.2477  135.4363  155.0719 H   0  0  0  0  0  0  0  0  0  0  0  0  # atno 10765 bound_to 10752
  139.9777  134.9558  156.9551 H   0  0  0  0  0  0  0  0  0  0  0  0  # atno 11005 bound_to 11000
  146.3054  139.7563  142.9060 LP  0  0  0  0  0  0  0  0  0  0  0  0  # atno 17320 bound_to 7965
  145.3782  141.0354  143.3193 LP  0  0  0  0  0  0  0  0  0  0  0  0  # atno 17321 bound_to 7965
  139.4895  144.6388  151.6920 LP  0  0  0  0  0  0  0  0  0  0  0  0  # atno 17342 bound_to 10162
  140.5572  144.0328  150.6153 LP  0  0  0  0  0  0  0  0  0  0  0  0  # atno 17343 bound_to 10162
  157.6904  130.9228  150.0500 LP  0  0  0  0  0  0  0  0  0  0  0  0  # atno 17370 bound_to 10713
  156.1606  130.3644  149.9305 LP  0  0  0  0  0  0  0  0  0  0  0  0  # atno 17371 bound_to 10713
  140.5160  134.0955  155.7281 LP  0  0  0  0  0  0  0  0  0  0  0  0  # atno 17394 bound_to 11000
  141.1453  133.9067  157.2231 LP  0  0  0  0  0  0  0  0  0  0  0  0  # atno 17395 bound_to 11000

$$$$
