AV-unprocessed.smi:141|AV-procd|sdf|1187|dock10
  -GOLD-   2262018343D 1   1.00000     0.00000
 Structure written by MMmdl.
 56 59  0  0  0  0  0  0  0  0  1 V2000
  151.4841  136.4175  154.4139 O   0  0  0  0  0  0  0  0  0  0  0  0
  150.4661  136.9741  154.8305 C   0  0  0  0  0  0  0  0  0  0  0  0
  149.1992  136.1290  155.0814 C   0  0  0  0  0  0  0  0  0  0  0  0
  149.4154  134.6716  154.9386 N   0  0  0  0  0  0  0  0  0  0  0  0
  148.8360  134.0028  153.8316 C   0  0  0  0  0  0  0  0  0  0  0  0
  148.1512  134.6084  153.0059 O   0  0  0  0  0  0  0  0  0  0  0  0
  149.1180  132.5748  153.7407 C   0  0  0  0  0  0  0  0  0  0  0  0
  148.6216  131.8616  152.7156 F   0  0  0  0  0  0  0  0  0  0  0  0
  149.8757  131.9564  154.6693 C   0  0  0  0  0  0  0  0  0  0  0  0
  150.4187  132.6153  155.7549 N   0  0  0  0  0  0  0  0  0  0  0  0
  151.2993  131.8513  156.7163 C   0  0  2  0  0  0  0  0  0  0  0  0
  151.5745  130.3989  156.2823 C   0  0  0  0  0  0  0  0  0  0  0  0
  151.0525  129.5886  157.4575 C   0  0  0  0  0  0  0  0  0  0  0  0
  151.0554  130.6022  158.5963 C   0  0  0  0  0  0  0  0  0  0  0  0
  150.6692  131.8098  157.9594 O   0  0  0  0  0  0  0  0  0  0  0  0
  150.2226  134.0089  155.8947 C   0  0  0  0  0  0  0  0  0  0  0  0
  150.7459  134.6341  156.8187 O   0  0  0  0  0  0  0  0  0  0  0  0
  150.4254  138.3056  155.0805 N   0  0  0  0  0  0  0  0  0  0  0  0
  149.2766  139.0385  155.6277 C   0  0  0  0  0  0  0  0  0  0  0  0
  149.6004  139.4454  157.0760 C   0  0  0  0  0  0  0  0  0  0  0  0
  150.8898  140.2949  157.1398 C   0  0  0  0  0  0  0  0  0  0  0  0
  151.2811  140.6419  158.5935 C   0  0  0  0  0  0  0  0  0  0  0  0
  151.4348  142.1349  158.8153 C   0  0  0  0  0  0  0  0  0  0  0  0
  151.3357  143.0273  157.7272 C   0  0  0  0  0  0  0  0  0  0  0  0
  151.4721  144.4137  157.9355 C   0  0  0  0  0  0  0  0  0  0  0  0
  151.7078  144.9118  159.2317 C   0  0  0  0  0  0  0  0  0  0  0  0
  151.8039  144.0235  160.3204 C   0  0  0  0  0  0  0  0  0  0  0  0
  151.6670  142.6371  160.1129 C   0  0  0  0  0  0  0  0  0  0  0  0
  152.0415  139.5973  156.3805 C   0  0  0  0  0  0  0  0  0  0  0  0
  151.6055  139.1712  154.9662 C   0  0  0  0  0  0  0  0  0  0  0  0
  148.8155  136.3532  156.0780 H   0  0  0  0  0  0  0  0  0  0  0  0
  148.4138  136.4682  154.4045 H   0  0  0  0  0  0  0  0  0  0  0  0
  150.0589  130.8983  154.5520 H   0  0  0  0  0  0  0  0  0  0  0  0
  152.2219  132.4271  156.8021 H   0  0  0  0  0  0  0  0  0  0  0  0
  151.0906  130.1432  155.3391 H   0  0  0  0  0  0  0  0  0  0  0  0
  152.6508  130.2706  156.1638 H   0  0  0  0  0  0  0  0  0  0  0  0
  150.0338  129.2539  157.2607 H   0  0  0  0  0  0  0  0  0  0  0  0
  151.6602  128.7092  157.6719 H   0  0  0  0  0  0  0  0  0  0  0  0
  150.3710  130.3344  159.4016 H   0  0  0  0  0  0  0  0  0  0  0  0
  152.0565  130.7145  159.0160 H   0  0  0  0  0  0  0  0  0  0  0  0
  149.0989  139.9292  155.0231 H   0  0  0  0  0  0  0  0  0  0  0  0
  148.3416  138.4820  155.5964 H   0  0  0  0  0  0  0  0  0  0  0  0
  148.7650  140.0053  157.4982 H   0  0  0  0  0  0  0  0  0  0  0  0
  149.7136  138.5484  157.6868 H   0  0  0  0  0  0  0  0  0  0  0  0
  150.6766  141.2233  156.6066 H   0  0  0  0  0  0  0  0  0  0  0  0
  150.5351  140.2650  159.2945 H   0  0  0  0  0  0  0  0  0  0  0  0
  152.2125  140.1480  158.8738 H   0  0  0  0  0  0  0  0  0  0  0  0
  151.1525  142.6509  156.7312 H   0  0  0  0  0  0  0  0  0  0  0  0
  151.3949  145.0945  157.1006 H   0  0  0  0  0  0  0  0  0  0  0  0
  151.8129  145.9749  159.3909 H   0  0  0  0  0  0  0  0  0  0  0  0
  151.9818  144.4049  161.3153 H   0  0  0  0  0  0  0  0  0  0  0  0
  151.7383  141.9604  160.9521 H   0  0  0  0  0  0  0  0  0  0  0  0
  152.9029  140.2630  156.3173 H   0  0  0  0  0  0  0  0  0  0  0  0
  152.3704  138.7163  156.9338 H   0  0  0  0  0  0  0  0  0  0  0  0
  152.4378  138.6895  154.4514 H   0  0  0  0  0  0  0  0  0  0  0  0
  151.3561  140.0484  154.3676 H   0  0  0  0  0  0  0  0  0  0  0  0
  1  2  2  0  0  0  0
  2  3  1  0  0  0  0
  2 18  1  0  0  0  0
  3  4  1  0  0  0  0
  3 31  1  0  0  0  0
  3 32  1  0  0  0  0
  4 16  1  0  0  0  0
  4  5  1  0  0  0  0
  5  6  2  0  0  0  0
  5  7  1  0  0  0  0
  7  8  1  0  0  0  0
  7  9  2  0  0  0  0
  9 10  1  0  0  0  0
  9 33  1  0  0  0  0
 10 11  1  0  0  0  0
 10 16  1  0  0  0  0
 11 15  1  0  0  0  0
 11 12  1  0  0  0  0
 11 34  1  0  0  0  0
 12 13  1  0  0  0  0
 12 35  1  0  0  0  0
 12 36  1  0  0  0  0
 13 14  1  0  0  0  0
 13 37  1  0  0  0  0
 13 38  1  0  0  0  0
 14 15  1  0  0  0  0
 14 39  1  0  0  0  0
 14 40  1  0  0  0  0
 16 17  2  0  0  0  0
 18 30  1  0  0  0  0
 18 19  1  0  0  0  0
 19 20  1  0  0  0  0
 19 41  1  0  0  0  0
 19 42  1  0  0  0  0
 20 21  1  0  0  0  0
 20 43  1  0  0  0  0
 20 44  1  0  0  0  0
 21 22  1  0  0  0  0
 21 29  1  0  0  0  0
 21 45  1  0  0  0  0
 22 23  1  0  0  0  0
 22 46  1  0  0  0  0
 22 47  1  0  0  0  0
 23 28  1  0  0  0  0
 23 24  2  0  0  0  0
 24 25  1  0  0  0  0
 24 48  1  0  0  0  0
 25 26  2  0  0  0  0
 25 49  1  0  0  0  0
 26 27  1  0  0  0  0
 26 50  1  0  0  0  0
 27 28  2  0  0  0  0
 27 51  1  0  0  0  0
 28 52  1  0  0  0  0
 29 30  1  0  0  0  0
 29 53  1  0  0  0  0
 29 54  1  0  0  0  0
 30 55  1  0  0  0  0
 30 56  1  0  0  0  0
M  END
> <s_m_source_file>
AV-unprocessed.smi

> <i_m_source_file_index>
141

> <i_lp_mmshare_version>
43012

> <i_f3d_flags>
0

> <s_epik_input>
W2NIXTFbY0hdW2NIXVtjSF1bY0hdYzFbQ0gyXVtDSF0oW0NIMl1bQ0gyXTIpW0NIMl1bQ0gyXU4yQyg9TylbQ0gyXW4zYyg9TyljKEYpW2NIXW4oYzM9TylbQ0BASF00W0NIMl1bQ0gyXVtDSDJdTzQ=

> <s_epik_cmdline>
J2VwaWtfcHl0aG9uJywgJy1waCcsICc3LjAnLCAnLXRuJywgJzgnLCAnLW1hJywgJzIwMCcsICctbWV0YWxfYmluZGluZycsICctaW1hZScsICc8aW5maWxlLm1hZT4nLCAnLW9tYWUnLCAnPG91dGZpbGUubWFlPic=

> <r_lp_tautomer_probability>
1

> <r_epik_Ionization_Penalty>
3.78313e-08

> <r_epik_Ionization_Penalty_Charging>
4.95074e-09

> <r_epik_Ionization_Penalty_Neutral>
3.28806e-08

> <r_epik_State_Penalty>
-0

> <r_epik_Charging_Adjusted_Penalty>
4.95074e-09

> <i_epik_Tot_Q>
0

> <i_epik_Tot_abs_Q>
0

> <r_epik_Metal_State_Penalty>
-0

> <b_epik_Metal_Only>
0

> <s_epik_Chemistry_Notes>
This compound contains an acetal/aminal-like group ( X-CH(R)-Y where X, Y are N, S, or O) that may be acid/base labile, releasing an aldehyde.

> <s_lp_Force_Field>
OPLS_2005

> <r_lp_Energy>
44.5211

> <b_lp_Chiralities_Consistent>
1

> <s_lp_Variant>
AV-unprocessed.smi:141-1

> <Gold.Version>
5.8.1

> <Gold.Id.Protein>
6NUR|6NUR_protein|mol2

> <Gold.PLP.Fitness>
59.9146

> <Gold.PLP.PLP>
-55.8089

> <Gold.PLP.part.hbond>
-3.0000

> <Gold.PLP.part.metal>
0.0000

> <Gold.PLP.part.buried>
-6.4694

> <Gold.PLP.part.nonpolar>
-48.1702

> <Gold.PLP.part.repulsive>
2.5323

> <Gold.PLP.ligand.clash>
0.0000

> <Gold.PLP.ligand.torsion>
0.9931

> <Gold.PLP.Chemscore.Hbond>
2.0000

> <Gold.PLP.Chemscore.CHOScore>
0.0000

> <Gold.PLP.Chemscore.Metal>
0.0000

> <Gold.Chemscore.Hbonds>
donor molecule, donor type, donor heavy atom, donor atom, acceptor molecule, acceptor atom, score
      P1  H  6896  6908       L1    15  0.23
      P1  H 10752 10763       L1     1  1.00

> <Gold.PLP.Chemscore.Internal.Correction>
0.0920

> <Gold.Rescore>
     Score         DG    S(hbond)    S(metal)    S(lipo)     H(rot)  DE(clash)    DE(int)     intcor
     20.63     -22.29       1.98        0.00     127.56       1.85       0.36       1.30       ----

> <Gold.Chemscore.Fitness>
20.6272

> <Gold.Chemscore.DG>
-22.2860

> <Gold.Chemscore.ZeroCoef>
-5.4800

> <Gold.Chemscore.Hbond>
1.9783

> <Gold.Chemscore.Metal>
0.0000

> <Gold.Chemscore.Lipo>
127.5600

> <Gold.Chemscore.Internal_Hbond>
0.0000

> <Gold.Chemscore.DEClash>
0.3631

> <Gold.Chemscore.DEInternal>
1.2957

> <Gold.Chemscore.Rot>
1.8461

> <Gold.Chemscore.Internal.Correction>
   9.000000E+99

> <Gold.Chemscore.Hbonds>
donor molecule, donor type, donor heavy atom, donor atom, acceptor molecule, acceptor atom, score
      P1  H  6896  6908       L1    15  0.03
      P1  H 10752 10763       L1     1  1.00

> <Gold.Chemscore.Hbond.Weighted>
-6.6075

> <Gold.Chemscore.Metal.Weighted>
-0.0000

> <Gold.Chemscore.Lipo.Weighted>
-14.9245

> <Gold.Chemscore.Internal_Hbond.Weighted>
0.0000

> <Gold.Chemscore.DEClash.Weighted>
0.3631

> <Gold.Chemscore.DEInternal.Weighted>
1.2957

> <Gold.Chemscore.Rot.Weighted>
4.7260

> <Gold.Chemscore.Internal.Correction.Weighted>
   9.000000E+99

> <Gold.Protein.RotatedTorsions>
[ 6907 6896 6895 6894 ] final   50.62 input  -60.11 | X-H torsion
[ 7974 7965 7964 7962 ] final -119.67 input  175.53 | X-H torsion
[ 8008 7997 7996 7995 ] final  -51.00 input   59.86 | X-H torsion
[ 10167 10162 10161 10158 ] final  162.75 input  -65.29 | X-H torsion
[ 10718 10713 10712 10709 ] final -171.62 input   66.30 | X-H torsion
[ 10763 10752 10751 10750 ] final   44.58 input  -60.55 | X-H torsion
[ 11005 11000 10999 10996 ] final -128.53 input  -57.11 | X-H torsion

> <Gold.Protein.ActiveResidues>
 VAL166  LYS551  ARG553  GLY616  TRP617  ASP618  TYR619  PRO620  LYS621  CYS622 
 ASP623  PHE694  ASN695  SER759  ASP760  ASP761  ALA762  ILE779  LEU786  VAL792 
 PHE793  MET794  SER795  GLU796  ALA797  LYS798  CYS799  TRP800  GLU811  SER814 

> <Gold.Protein.RotatedAtoms>
  152.3038  134.7579  160.0351 H   0  0  0  0  0  0  0  0  0  0  0  0  # atno 6907 bound_to 6896
  151.8084  133.3373  159.3556 H   0  0  0  0  0  0  0  0  0  0  0  0  # atno 6908 bound_to 6896
  150.7286  134.5617  159.5890 H   0  0  0  0  0  0  0  0  0  0  0  0  # atno 6909 bound_to 6896
  145.0599  140.8282  143.4158 H   0  0  0  0  0  0  0  0  0  0  0  0  # atno 7974 bound_to 7965
  154.4073  140.1258  156.4757 H   0  0  0  0  0  0  0  0  0  0  0  0  # atno 8008 bound_to 7997
  155.7135  140.3493  155.4964 H   0  0  0  0  0  0  0  0  0  0  0  0  # atno 8009 bound_to 7997
  155.9279  140.1064  157.1145 H   0  0  0  0  0  0  0  0  0  0  0  0  # atno 8010 bound_to 7997
  139.4864  144.4406  151.8957 H   0  0  0  0  0  0  0  0  0  0  0  0  # atno 10167 bound_to 10162
  156.7435  130.9351  151.3111 H   0  0  0  0  0  0  0  0  0  0  0  0  # atno 10718 bound_to 10713
  152.9838  135.6066  154.3297 H   0  0  0  0  0  0  0  0  0  0  0  0  # atno 10763 bound_to 10752
  154.3002  135.2773  155.2616 H   0  0  0  0  0  0  0  0  0  0  0  0  # atno 10764 bound_to 10752
  154.4872  135.5901  153.6489 H   0  0  0  0  0  0  0  0  0  0  0  0  # atno 10765 bound_to 10752
  140.9508  134.1067  157.4063 H   0  0  0  0  0  0  0  0  0  0  0  0  # atno 11005 bound_to 11000
  145.1421  139.2566  143.5485 LP  0  0  0  0  0  0  0  0  0  0  0  0  # atno 17320 bound_to 7965
  146.3524  140.1101  142.8604 LP  0  0  0  0  0  0  0  0  0  0  0  0  # atno 17321 bound_to 7965
  140.3857  144.2679  150.5904 LP  0  0  0  0  0  0  0  0  0  0  0  0  # atno 17342 bound_to 10162
  140.5192  143.2270  151.8415 LP  0  0  0  0  0  0  0  0  0  0  0  0  # atno 17343 bound_to 10162
  157.6808  130.9138  150.0263 LP  0  0  0  0  0  0  0  0  0  0  0  0  # atno 17370 bound_to 10713
  156.1449  130.3642  149.9526 LP  0  0  0  0  0  0  0  0  0  0  0  0  # atno 17371 bound_to 10713
  139.8847  135.0065  156.6386 LP  0  0  0  0  0  0  0  0  0  0  0  0  # atno 17394 bound_to 11000
  140.7605  133.8822  155.8414 LP  0  0  0  0  0  0  0  0  0  0  0  0  # atno 17395 bound_to 11000

$$$$
