AV-unprocessed.smi:350|AV-procd|sdf|2399|dock8
  -GOLD-   2262022333D 1   1.00000     0.00000
 Structure written by MMmdl.
 35 36  0  0  0  0  0  0  0  0  1 V2000
  151.1478  144.4328  160.7034 C   0  0  0  0  0  0  0  0  0  0  0  0
  151.8701  143.1932  160.2492 C   0  0  0  0  0  0  0  0  0  0  0  0
  151.4904  142.6786  159.1261 N   0  0  0  0  0  0  0  0  0  0  0  0
  152.0823  141.5385  158.6202 N   0  0  0  0  0  0  0  0  0  0  0  0
  151.5192  141.0944  157.3389 C   0  0  0  0  0  0  0  0  0  0  0  0
  150.3374  141.9764  156.8792 C   0  0  1  0  0  0  0  0  0  0  0  0
  150.8483  143.1986  156.3841 O   0  0  0  0  0  0  0  0  0  0  0  0
  149.4998  141.2627  155.8288 C   0  0  0  0  0  0  0  0  0  0  0  0
  149.8729  139.9841  155.3578 C   0  0  0  0  0  0  0  0  0  0  0  0
  149.0880  139.3262  154.3910 C   0  0  0  0  0  0  0  0  0  0  0  0
  147.9246  139.9416  153.8900 C   0  0  0  0  0  0  0  0  0  0  0  0
  146.9625  139.1361  152.7058 Cl  0  0  0  0  0  0  0  0  0  0  0  0
  147.5460  141.2147  154.3585 C   0  0  0  0  0  0  0  0  0  0  0  0
  148.3303  141.8724  155.3260 C   0  0  0  0  0  0  0  0  0  0  0  0
  153.0959  140.8557  159.2254 C   0  0  0  0  0  0  0  0  0  0  0  0
  153.5919  139.8379  158.7395 O   0  0  0  0  0  0  0  0  0  0  0  0
  153.5245  141.4458  160.4957 C   0  0  0  0  0  0  0  0  0  0  0  0
  154.5852  140.7620  161.1628 C   0  0  0  0  0  0  0  0  0  0  0  0
  155.4522  140.2254  161.7108 N   0  0  0  0  0  0  0  0  0  0  0  0
  152.9502  142.5653  161.0034 C   0  0  0  0  0  0  0  0  0  0  0  0
  153.3577  143.2178  162.3173 C   0  0  0  0  0  0  0  0  0  0  0  0
  150.6587  144.2653  161.6630 H   0  0  0  0  0  0  0  0  0  0  0  0
  150.3789  144.7390  159.9926 H   0  0  0  0  0  0  0  0  0  0  0  0
  151.8415  145.2660  160.8166 H   0  0  0  0  0  0  0  0  0  0  0  0
  152.2878  141.0514  156.5644 H   0  0  0  0  0  0  0  0  0  0  0  0
  151.1797  140.0631  157.4545 H   0  0  0  0  0  0  0  0  0  0  0  0
  149.6925  142.2113  157.7268 H   0  0  0  0  0  0  0  0  0  0  0  0
  150.1204  143.7615  156.1690 H   0  0  0  0  0  0  0  0  0  0  0  0
  150.7618  139.5026  155.7386 H   0  0  0  0  0  0  0  0  0  0  0  0
  149.3798  138.3488  154.0355 H   0  0  0  0  0  0  0  0  0  0  0  0
  146.6532  141.6881  153.9771 H   0  0  0  0  0  0  0  0  0  0  0  0
  148.0286  142.8470  155.6809 H   0  0  0  0  0  0  0  0  0  0  0  0
  154.1507  142.6679  162.8230 H   0  0  0  0  0  0  0  0  0  0  0  0
  152.5092  143.2688  163.0003 H   0  0  0  0  0  0  0  0  0  0  0  0
  153.7210  144.2311  162.1431 H   0  0  0  0  0  0  0  0  0  0  0  0
  1  2  1  0  0  0  0
  1 22  1  0  0  0  0
  1 23  1  0  0  0  0
  1 24  1  0  0  0  0
  2 20  1  0  0  0  0
  2  3  2  0  0  0  0
  3  4  1  0  0  0  0
  4  5  1  0  0  0  0
  4 15  1  0  0  0  0
  5  6  1  0  0  0  0
  5 25  1  0  0  0  0
  5 26  1  0  0  0  0
  6  7  1  0  0  0  0
  6  8  1  0  0  0  0
  6 27  1  0  0  0  0
  7 28  1  0  0  0  0
  8 14  1  0  0  0  0
  8  9  2  0  0  0  0
  9 10  1  0  0  0  0
  9 29  1  0  0  0  0
 10 11  2  0  0  0  0
 10 30  1  0  0  0  0
 11 12  1  0  0  0  0
 11 13  1  0  0  0  0
 13 14  2  0  0  0  0
 13 31  1  0  0  0  0
 14 32  1  0  0  0  0
 15 16  2  0  0  0  0
 15 17  1  0  0  0  0
 17 18  1  0  0  0  0
 17 20  2  0  0  0  0
 18 19  3  0  0  0  0
 20 21  1  0  0  0  0
 21 33  1  0  0  0  0
 21 34  1  0  0  0  0
 21 35  1  0  0  0  0
M  END
> <s_m_source_file>
AV-unprocessed.smi

> <i_m_source_file_index>
350

> <i_lp_mmshare_version>
43012

> <i_f3d_flags>
0

> <s_epik_input>
TiNDYyhjMVtDSDNdKWMoPU8pbihuYzFbQ0gzXSlbQ0gyXVtDQEhdKFtPSF0pYzJbY0hdW2NIXWMoQ2wpW2NIXVtjSF0y

> <s_epik_cmdline>
J2VwaWtfcHl0aG9uJywgJy1waCcsICc3LjAnLCAnLXRuJywgJzgnLCAnLW1hJywgJzIwMCcsICctbWV0YWxfYmluZGluZycsICctaW1hZScsICc8aW5maWxlLm1hZT4nLCAnLW9tYWUnLCAnPG91dGZpbGUubWFlPic=

> <r_lp_tautomer_probability>
1

> <r_epik_Ionization_Penalty>
1.17315e-07

> <r_epik_Ionization_Penalty_Charging>
1.40848e-10

> <r_epik_Ionization_Penalty_Neutral>
1.17174e-07

> <r_epik_State_Penalty>
-0

> <r_epik_Charging_Adjusted_Penalty>
1.40848e-10

> <i_epik_Tot_Q>
0

> <i_epik_Tot_abs_Q>
0

> <r_epik_Metal_State_Penalty>
-0

> <b_epik_Metal_Only>
0

> <s_lp_Force_Field>
OPLS_2005

> <r_lp_Energy>
28.138

> <b_lp_Chiralities_Consistent>
1

> <s_lp_Variant>
AV-unprocessed.smi:350-2

> <Gold.Version>
5.8.1

> <Gold.Id.Protein>
6NUR|6NUR_protein|mol2

> <Gold.PLP.Fitness>
48.0185

> <Gold.PLP.PLP>
-42.7899

> <Gold.PLP.part.hbond>
-2.7918

> <Gold.PLP.part.metal>
0.0000

> <Gold.PLP.part.buried>
-0.6860

> <Gold.PLP.part.nonpolar>
-37.8627

> <Gold.PLP.part.repulsive>
0.0084

> <Gold.PLP.ligand.clash>
0.0000

> <Gold.PLP.ligand.torsion>
0.1604

> <Gold.PLP.Chemscore.Hbond>
1.8480

> <Gold.PLP.Chemscore.CHOScore>
0.0000

> <Gold.PLP.Chemscore.Metal>
0.0000

> <Gold.Chemscore.Hbonds>
donor molecule, donor type, donor heavy atom, donor atom, acceptor molecule, acceptor atom, score
      L1  H     7    28       P1  8028  1.00
      P1  H  7997  8010       L1    16  0.80

> <Gold.PLP.Chemscore.Internal.Correction>
0.0055

> <Gold.Rescore>
     Score         DG    S(hbond)    S(metal)    S(lipo)     H(rot)  DE(clash)    DE(int)     intcor
     19.02     -19.77       1.88        0.00     110.16       1.90       0.51       0.24       ----

> <Gold.Chemscore.Fitness>
19.0150

> <Gold.Chemscore.DG>
-19.7704

> <Gold.Chemscore.ZeroCoef>
-5.4800

> <Gold.Chemscore.Hbond>
1.8796

> <Gold.Chemscore.Metal>
0.0000

> <Gold.Chemscore.Lipo>
110.1577

> <Gold.Chemscore.Internal_Hbond>
0.0000

> <Gold.Chemscore.DEClash>
0.5118

> <Gold.Chemscore.DEInternal>
0.2436

> <Gold.Chemscore.Rot>
1.9047

> <Gold.Chemscore.Internal.Correction>
   9.000000E+99

> <Gold.Chemscore.Hbonds>
donor molecule, donor type, donor heavy atom, donor atom, acceptor molecule, acceptor atom, score
      L1  H     7    28       P1  8028  1.00
      P1  H  7997  8010       L1    16  0.72

> <Gold.Chemscore.Hbond.Weighted>
-6.2780

> <Gold.Chemscore.Metal.Weighted>
-0.0000

> <Gold.Chemscore.Lipo.Weighted>
-12.8885

> <Gold.Chemscore.Internal_Hbond.Weighted>
0.0000

> <Gold.Chemscore.DEClash.Weighted>
0.5118

> <Gold.Chemscore.DEInternal.Weighted>
0.2436

> <Gold.Chemscore.Rot.Weighted>
4.8760

> <Gold.Chemscore.Internal.Correction.Weighted>
   9.000000E+99

> <Gold.Protein.RotatedTorsions>
[ 6907 6896 6895 6894 ] final   81.88 input  -60.11 | X-H torsion
[ 7974 7965 7964 7962 ] final  -64.93 input  175.53 | X-H torsion
[ 8008 7997 7996 7995 ] final    1.14 input   59.86 | X-H torsion
[ 10167 10162 10161 10158 ] final   69.53 input  -65.29 | X-H torsion
[ 10718 10713 10712 10709 ] final  141.63 input   66.30 | X-H torsion
[ 10763 10752 10751 10750 ] final -125.65 input  -60.55 | X-H torsion
[ 11005 11000 10999 10996 ] final  -94.20 input  -57.11 | X-H torsion

> <Gold.Protein.ActiveResidues>
 VAL166  LYS551  ARG553  GLY616  TRP617  ASP618  TYR619  PRO620  LYS621  CYS622 
 ASP623  PHE694  ASN695  SER759  ASP760  ASP761  ALA762  ILE779  LEU786  VAL792 
 PHE793  MET794  SER795  GLU796  ALA797  LYS798  CYS799  TRP800  GLU811  SER814 

> <Gold.Protein.RotatedAtoms>
  152.5282  134.3136  159.9122 H   0  0  0  0  0  0  0  0  0  0  0  0  # atno 6907 bound_to 6896
  151.3086  133.4084  159.2653 H   0  0  0  0  0  0  0  0  0  0  0  0  # atno 6908 bound_to 6896
  151.0058  134.9375  159.8037 H   0  0  0  0  0  0  0  0  0  0  0  0  # atno 6909 bound_to 6896
  145.7607  140.8863  143.0431 H   0  0  0  0  0  0  0  0  0  0  0  0  # atno 7974 bound_to 7965
  154.6763  140.2623  155.6955 H   0  0  0  0  0  0  0  0  0  0  0  0  # atno 8008 bound_to 7997
  156.2679  140.2819  156.1213 H   0  0  0  0  0  0  0  0  0  0  0  0  # atno 8009 bound_to 7997
  155.1096  140.0375  157.2710 H   0  0  0  0  0  0  0  0  0  0  0  0  # atno 8010 bound_to 7997
  140.0667  144.5187  150.7255 H   0  0  0  0  0  0  0  0  0  0  0  0  # atno 10167 bound_to 10162
  157.3898  131.1003  151.0657 H   0  0  0  0  0  0  0  0  0  0  0  0  # atno 10718 bound_to 10713
  154.8738  135.4022  154.3303 H   0  0  0  0  0  0  0  0  0  0  0  0  # atno 10763 bound_to 10752
  153.4117  135.7021  153.6360 H   0  0  0  0  0  0  0  0  0  0  0  0  # atno 10764 bound_to 10752
  153.5059  135.3717  155.2533 H   0  0  0  0  0  0  0  0  0  0  0  0  # atno 10765 bound_to 10752
  141.1477  133.7940  157.0265 H   0  0  0  0  0  0  0  0  0  0  0  0  # atno 11005 bound_to 11000
  144.6831  139.9718  143.7482 LP  0  0  0  0  0  0  0  0  0  0  0  0  # atno 17320 bound_to 7965
  146.0267  139.3299  143.0780 LP  0  0  0  0  0  0  0  0  0  0  0  0  # atno 17321 bound_to 7965
  140.7145  143.2533  151.4477 LP  0  0  0  0  0  0  0  0  0  0  0  0  # atno 17342 bound_to 10162
  139.5860  144.1603  152.2030 LP  0  0  0  0  0  0  0  0  0  0  0  0  # atno 17343 bound_to 10162
  157.1695  130.6261  149.5636 LP  0  0  0  0  0  0  0  0  0  0  0  0  # atno 17370 bound_to 10713
  155.9795  130.4790  150.6721 LP  0  0  0  0  0  0  0  0  0  0  0  0  # atno 17371 bound_to 10713
  140.0781  134.9664  157.1580 LP  0  0  0  0  0  0  0  0  0  0  0  0  # atno 17394 bound_to 11000
  140.3615  134.2489  155.7186 LP  0  0  0  0  0  0  0  0  0  0  0  0  # atno 17395 bound_to 11000

$$$$
