AV-unprocessed.smi:2237|AV-procd|sdf|9047|dock6
  -GOLD-   2272012253D 1   1.00000     0.00000
 Structure written by MMmdl.
 55 57  0  0  0  0  0  0  0  0  3 V2000
  153.3977  142.1341  161.1891 C   0  0  0  0  0  0  0  0  0  0  0  0
  152.5050  143.1379  160.4903 C   0  0  0  0  0  0  0  0  0  0  0  0
  152.3683  144.4517  160.9802 C   0  0  0  0  0  0  0  0  0  0  0  0
  151.5224  145.3337  160.2845 C   0  0  0  0  0  0  0  0  0  0  0  0
  150.8533  144.8698  159.1354 C   0  0  0  0  0  0  0  0  0  0  0  0
  151.0460  143.5361  158.7098 C   0  0  0  0  0  0  0  0  0  0  0  0
  150.3311  143.1673  157.5390 N   0  0  0  0  0  0  0  0  0  0  0  0
  150.5464  142.1127  156.7327 C   0  0  0  0  0  0  0  0  0  0  0  0
  151.4149  141.2552  156.8961 O   0  0  0  0  0  0  0  0  0  0  0  0
  149.6849  142.1004  155.7044 N   0  0  0  0  0  0  0  0  0  0  0  0
  149.6710  141.1037  154.6372 C   0  0  2  0  0  0  0  0  0  0  0  0
  148.3298  141.1560  153.8862 C   0  0  0  0  0  0  0  0  0  0  0  0
  148.2636  140.0502  152.8166 C   0  0  0  0  0  0  0  0  0  0  0  0
  148.4338  138.6935  153.4125 N   0  3  2  0  0  0  0  0  0  0  0  0
  147.2785  138.1714  154.2202 C   0  0  2  0  0  0  0  0  0  0  0  0
  147.6103  136.7945  154.8481 C   0  0  0  0  0  0  0  0  0  0  0  0
  146.4290  136.2115  155.6425 C   0  0  0  0  0  0  0  0  0  0  0  0
  145.2218  136.0910  154.7928 N   0  3  1  0  0  0  0  0  0  0  0  0
  144.1027  135.4235  155.4924 C   0  0  0  0  0  0  0  0  0  0  0  0
  144.8307  137.3995  154.2202 C   0  0  0  0  0  0  0  0  0  0  0  0
  145.9761  138.0107  153.3951 C   0  0  0  0  0  0  0  0  0  0  0  0
  149.7571  138.6157  154.0979 C   0  0  0  0  0  0  0  0  0  0  0  0
  149.9111  139.6873  155.1965 C   0  0  0  0  0  0  0  0  0  0  0  0
  151.8632  142.6926  159.3887 N   0  0  0  0  0  0  0  0  0  0  0  0
  153.9433  142.5956  162.0126 H   0  0  0  0  0  0  0  0  0  0  0  0
  154.1251  141.7205  160.4900 H   0  0  0  0  0  0  0  0  0  0  0  0
  152.8024  141.3140  161.5914 H   0  0  0  0  0  0  0  0  0  0  0  0
  152.8960  144.7774  161.8646 H   0  0  0  0  0  0  0  0  0  0  0  0
  151.3888  146.3497  160.6252 H   0  0  0  0  0  0  0  0  0  0  0  0
  150.2009  145.5354  158.5892 H   0  0  0  0  0  0  0  0  0  0  0  0
  149.5762  143.7852  157.2810 H   0  0  0  0  0  0  0  0  0  0  0  0
  149.0047  142.8442  155.6462 H   0  0  0  0  0  0  0  0  0  0  0  0
  150.4641  141.3388  153.9243 H   0  0  0  0  0  0  0  0  0  0  0  0
  147.4989  141.0514  154.5852 H   0  0  0  0  0  0  0  0  0  0  0  0
  148.2107  142.1308  153.4116 H   0  0  0  0  0  0  0  0  0  0  0  0
  147.3566  140.1284  152.2201 H   0  0  0  0  0  0  0  0  0  0  0  0
  149.0721  140.2067  152.1008 H   0  0  0  0  0  0  0  0  0  0  0  0
  147.0668  138.8765  155.0241 H   0  0  0  0  0  0  0  0  0  0  0  0
  147.9007  136.0930  154.0645 H   0  0  0  0  0  0  0  0  0  0  0  0
  148.4568  136.8617  155.5289 H   0  0  0  0  0  0  0  0  0  0  0  0
  146.7012  135.2282  156.0290 H   0  0  0  0  0  0  0  0  0  0  0  0
  146.2089  136.8414  156.5060 H   0  0  0  0  0  0  0  0  0  0  0  0
  143.7725  136.0079  156.3522 H   0  0  0  0  0  0  0  0  0  0  0  0
  144.4028  134.4360  155.8448 H   0  0  0  0  0  0  0  0  0  0  0  0
  143.2530  135.2916  154.8215 H   0  0  0  0  0  0  0  0  0  0  0  0
  143.9539  137.2712  153.5840 H   0  0  0  0  0  0  0  0  0  0  0  0
  144.5423  138.0796  155.0237 H   0  0  0  0  0  0  0  0  0  0  0  0
  145.6257  138.9758  153.0302 H   0  0  0  0  0  0  0  0  0  0  0  0
  146.1646  137.3896  152.5181 H   0  0  0  0  0  0  0  0  0  0  0  0
  149.9501  137.6260  154.5055 H   0  0  0  0  0  0  0  0  0  0  0  0
  150.5343  138.7673  153.3476 H   0  0  0  0  0  0  0  0  0  0  0  0
  150.9124  139.6217  155.6244 H   0  0  0  0  0  0  0  0  0  0  0  0
  149.2224  139.4859  156.0171 H   0  0  0  0  0  0  0  0  0  0  0  0
  148.4977  138.0684  152.6213 H   0  0  0  0  0  0  0  0  0  0  0  0
  145.4685  135.4932  154.0165 H   0  0  0  0  0  0  0  0  0  0  0  0
  1  2  1  0  0  0  0
  1 25  1  0  0  0  0
  1 26  1  0  0  0  0
  1 27  1  0  0  0  0
  2 24  1  0  0  0  0
  2  3  2  0  0  0  0
  3  4  1  0  0  0  0
  3 28  1  0  0  0  0
  4  5  2  0  0  0  0
  4 29  1  0  0  0  0
  5  6  1  0  0  0  0
  5 30  1  0  0  0  0
  6  7  1  0  0  0  0
  6 24  2  0  0  0  0
  7  8  1  0  0  0  0
  7 31  1  0  0  0  0
  8  9  2  0  0  0  0
  8 10  1  0  0  0  0
 10 11  1  0  0  0  0
 10 32  1  0  0  0  0
 11 23  1  0  0  0  0
 11 12  1  0  0  0  0
 11 33  1  0  0  0  0
 12 13  1  0  0  0  0
 12 34  1  0  0  0  0
 12 35  1  0  0  0  0
 13 14  1  0  0  0  0
 13 36  1  0  0  0  0
 13 37  1  0  0  0  0
 14 15  1  0  0  0  0
 14 22  1  0  0  0  0
 14 54  1  0  0  0  0
 15 21  1  0  0  0  0
 15 16  1  0  0  0  0
 15 38  1  0  0  0  0
 16 17  1  0  0  0  0
 16 39  1  0  0  0  0
 16 40  1  0  0  0  0
 17 18  1  0  0  0  0
 17 41  1  0  0  0  0
 17 42  1  0  0  0  0
 18 19  1  0  0  0  0
 18 20  1  0  0  0  0
 18 55  1  0  0  0  0
 19 43  1  0  0  0  0
 19 44  1  0  0  0  0
 19 45  1  0  0  0  0
 20 21  1  0  0  0  0
 20 46  1  0  0  0  0
 20 47  1  0  0  0  0
 21 48  1  0  0  0  0
 21 49  1  0  0  0  0
 22 23  1  0  0  0  0
 22 50  1  0  0  0  0
 22 51  1  0  0  0  0
 23 52  1  0  0  0  0
 23 53  1  0  0  0  0
M  CHG  1  14   1
M  CHG  1  18   1
M  END
> <s_m_source_file>
AV-unprocessed.smi

> <i_m_source_file_index>
2237

> <i_lp_mmshare_version>
43012

> <i_f3d_flags>
0

> <s_epik_input>
W0NIM11jMVtjSF1bY0hdW2NIXWMobjEpW05IXUMoPU8pW05IXVtDSF0yW0NIMl1bQ0gyXU4oW0NIMl1bQ0gyXTIpW0NIXTNbQ0gyXVtDSDJdTihbQ0gzXSlbQ0gyXVtDSDJdMw==

> <s_epik_cmdline>
J2VwaWtfcHl0aG9uJywgJy1waCcsICc3LjAnLCAnLXRuJywgJzgnLCAnLW1hJywgJzIwMCcsICctbWV0YWxfYmluZGluZycsICctaW1hZScsICc8aW5maWxlLm1hZT4nLCAnLW9tYWUnLCAnPG91dGZpbGUubWFlPic=

> <r_epik_Ionization_Penalty>
0.180851

> <r_epik_Ionization_Penalty_Charging>
0.180787

> <r_epik_Ionization_Penalty_Neutral>
6.38624e-05

> <r_epik_State_Penalty>
0.153592

> <r_epik_Charging_Adjusted_Penalty>
0.334379

> <i_epik_Tot_Q>
2

> <i_epik_Tot_abs_Q>
2

> <r_epik_Metal_State_Penalty>
0.153595

> <b_epik_Metal_Only>
0

> <s_lp_Force_Field>
OPLS_2005

> <r_lp_Energy>
43.8269

> <b_lp_Chiralities_Consistent>
1

> <s_lp_Variant>
AV-unprocessed.smi:2237-2

> <Gold.Version>
5.8.1

> <Gold.Id.Protein>
6NUR|6NUR_protein|mol2

> <Gold.PLP.Fitness>
48.3837

> <Gold.PLP.PLP>
-38.0004

> <Gold.PLP.part.hbond>
-4.0000

> <Gold.PLP.part.metal>
0.0000

> <Gold.PLP.part.buried>
0.9152

> <Gold.PLP.part.nonpolar>
-35.7832

> <Gold.PLP.part.repulsive>
0.2324

> <Gold.PLP.ligand.clash>
0.0000

> <Gold.PLP.ligand.torsion>
0.3766

> <Gold.PLP.Chemscore.Hbond>
3.6960

> <Gold.PLP.Chemscore.CHOScore>
0.0000

> <Gold.PLP.Chemscore.Metal>
0.0000

> <Gold.Chemscore.Hbonds>
donor molecule, donor type, donor heavy atom, donor atom, acceptor molecule, acceptor atom, score
      L1  H     7    31       P1  8028  0.80
      L1  H    10    32       P1  8028  0.83
      L1  H    14    54       P1  7948  2.00

> <Gold.PLP.Chemscore.Internal.Correction>
0.0486

> <Gold.Rescore>
     Score         DG    S(hbond)    S(metal)    S(lipo)     H(rot)  DE(clash)    DE(int)     intcor
     18.35     -23.99       2.84        0.00     104.15       1.23       2.47       3.18       ----

> <Gold.Chemscore.Fitness>
18.3468

> <Gold.Chemscore.DG>
-23.9904

> <Gold.Chemscore.ZeroCoef>
-5.4800

> <Gold.Chemscore.Hbond>
2.8360

> <Gold.Chemscore.Metal>
0.0000

> <Gold.Chemscore.Lipo>
104.1513

> <Gold.Chemscore.Internal_Hbond>
0.0000

> <Gold.Chemscore.DEClash>
2.4679

> <Gold.Chemscore.DEInternal>
3.1756

> <Gold.Chemscore.Rot>
1.2295

> <Gold.Chemscore.Internal.Correction>
   9.000000E+99

> <Gold.Chemscore.Hbonds>
donor molecule, donor type, donor heavy atom, donor atom, acceptor molecule, acceptor atom, score
      L1  H     7    31       P1  8028  0.54
      L1  H    10    32       P1  8028  0.83
      L1  H    14    54       P1  7948  0.91

> <Gold.Chemscore.Hbond.Weighted>
-9.4721

> <Gold.Chemscore.Metal.Weighted>
-0.0000

> <Gold.Chemscore.Lipo.Weighted>
-12.1857

> <Gold.Chemscore.Internal_Hbond.Weighted>
0.0000

> <Gold.Chemscore.DEClash.Weighted>
2.4679

> <Gold.Chemscore.DEInternal.Weighted>
3.1756

> <Gold.Chemscore.Rot.Weighted>
3.1474

> <Gold.Chemscore.Internal.Correction.Weighted>
   9.000000E+99

> <Gold.Protein.RotatedTorsions>
[ 6907 6896 6895 6894 ] final  -51.81 input  -60.11 | X-H torsion
[ 7974 7965 7964 7962 ] final    0.05 input  175.53 | X-H torsion
[ 8008 7997 7996 7995 ] final -121.67 input   59.86 | X-H torsion
[ 10167 10162 10161 10158 ] final   17.66 input  -65.29 | X-H torsion
[ 10718 10713 10712 10709 ] final  -25.08 input   66.30 | X-H torsion
[ 10763 10752 10751 10750 ] final  119.56 input  -60.55 | X-H torsion
[ 11005 11000 10999 10996 ] final  -67.15 input  -57.11 | X-H torsion

> <Gold.Protein.ActiveResidues>
 VAL166  LYS551  ARG553  GLY616  TRP617  ASP618  TYR619  PRO620  LYS621  CYS622 
 ASP623  PHE694  ASN695  SER759  ASP760  ASP761  ALA762  ILE779  LEU786  VAL792 
 PHE793  MET794  SER795  GLU796  ALA797  LYS798  CYS799  TRP800  GLU811  SER814 

> <Gold.Protein.RotatedAtoms>
  150.8576  134.7919  159.7057 H   0  0  0  0  0  0  0  0  0  0  0  0  # atno 6907 bound_to 6896
  152.4623  134.5153  159.9776 H   0  0  0  0  0  0  0  0  0  0  0  0  # atno 6908 bound_to 6896
  151.5263  133.3419  159.2946 H   0  0  0  0  0  0  0  0  0  0  0  0  # atno 6909 bound_to 6896
  146.2431  140.1197  142.8341 H   0  0  0  0  0  0  0  0  0  0  0  0  # atno 7974 bound_to 7965
  155.1518  140.0404  157.2822 H   0  0  0  0  0  0  0  0  0  0  0  0  # atno 8008 bound_to 7997
  154.6399  140.2544  155.7308 H   0  0  0  0  0  0  0  0  0  0  0  0  # atno 8009 bound_to 7997
  156.2527  140.2858  156.0788 H   0  0  0  0  0  0  0  0  0  0  0  0  # atno 8010 bound_to 7997
  140.5710  143.9162  150.6713 H   0  0  0  0  0  0  0  0  0  0  0  0  # atno 10167 bound_to 10162
  156.4691  130.4520  149.6880 H   0  0  0  0  0  0  0  0  0  0  0  0  # atno 10718 bound_to 10713
  153.5849  135.3477  155.2889 H   0  0  0  0  0  0  0  0  0  0  0  0  # atno 10763 bound_to 10752
  154.8662  135.4191  154.2579 H   0  0  0  0  0  0  0  0  0  0  0  0  # atno 10764 bound_to 10752
  153.3374  135.7048  153.6966 H   0  0  0  0  0  0  0  0  0  0  0  0  # atno 10765 bound_to 10752
  141.1501  133.6713  156.6249 H   0  0  0  0  0  0  0  0  0  0  0  0  # atno 11005 bound_to 11000
  145.0417  140.8950  143.5048 LP  0  0  0  0  0  0  0  0  0  0  0  0  # atno 17320 bound_to 7965
  145.1278  139.2651  143.5555 LP  0  0  0  0  0  0  0  0  0  0  0  0  # atno 17321 bound_to 7965
  140.2637  143.3505  152.1300 LP  0  0  0  0  0  0  0  0  0  0  0  0  # atno 17342 bound_to 10162
  139.5117  144.6905  151.5772 LP  0  0  0  0  0  0  0  0  0  0  0  0  # atno 17343 bound_to 10162
  156.3636  130.7494  151.2469 LP  0  0  0  0  0  0  0  0  0  0  0  0  # atno 17370 bound_to 10713
  157.7492  131.0343  150.4311 LP  0  0  0  0  0  0  0  0  0  0  0  0  # atno 17371 bound_to 10713
  140.3512  134.7767  157.4468 LP  0  0  0  0  0  0  0  0  0  0  0  0  # atno 17394 bound_to 11000
  140.0859  134.5666  155.8492 LP  0  0  0  0  0  0  0  0  0  0  0  0  # atno 17395 bound_to 11000

$$$$
