AV-unprocessed.smi:158|AV-procd|sdf|1332|dock9
  -GOLD-   2262019 33D 1   1.00000     0.00000
 Structure written by MMmdl.
 31 33  0  0  0  0  0  0  0  0  1 V2000
  142.9903  134.6468  155.3649 N   0  0  0  0  0  0  0  0  0  0  0  0
  143.7060  135.7274  155.7072 C   0  0  0  0  0  0  0  0  0  0  0  0
  143.1095  136.6836  156.4562 N   0  0  0  0  0  0  0  0  0  0  0  0
  143.7879  137.7792  156.8191 C   0  0  0  0  0  0  0  0  0  0  0  0
  142.9300  138.9321  157.7720 Cl  0  0  0  0  0  0  0  0  0  0  0  0
  145.0565  138.0818  156.5248 N   0  0  0  0  0  0  0  0  0  0  0  0
  145.6622  137.1199  155.7691 C   0  0  0  0  0  0  0  0  0  0  0  0
  145.0559  135.9156  155.3216 C   0  0  0  0  0  0  0  0  0  0  0  0
  145.9656  135.1741  154.5799 N   0  0  0  0  0  0  0  0  0  0  0  0
  147.0490  135.9043  154.5915 C   0  0  0  0  0  0  0  0  0  0  0  0
  146.9546  137.0918  155.2832 N   0  0  0  0  0  0  0  0  0  0  0  0
  148.0187  138.1272  155.4672 C   0  0  1  0  0  0  0  0  0  0  0  0
  149.2468  137.6110  155.0442 O   0  0  0  0  0  0  0  0  0  0  0  0
  149.8933  138.5327  154.1644 C   0  0  2  0  0  0  0  0  0  0  0  0
  151.4008  138.5433  154.4599 C   0  0  0  0  0  0  0  0  0  0  0  0
  152.0109  137.3665  153.9735 O   0  0  0  0  0  0  0  0  0  0  0  0
  149.1751  139.8628  154.4229 C   0  0  1  0  0  0  0  0  0  0  0  0
  149.2617  140.7802  153.3506 O   0  0  0  0  0  0  0  0  0  0  0  0
  147.7510  139.3970  154.6529 C   0  0  1  0  0  0  0  0  0  0  0  0
  147.1534  139.0836  153.4989 F   0  0  0  0  0  0  0  0  0  0  0  0
  148.0556  138.3110  156.5417 H   0  0  0  0  0  0  0  0  0  0  0  0
  149.7066  138.1938  153.1436 H   0  0  0  0  0  0  0  0  0  0  0  0
  149.5602  140.3303  155.3303 H   0  0  0  0  0  0  0  0  0  0  0  0
  147.1219  140.1030  155.1956 H   0  0  0  0  0  0  0  0  0  0  0  0
  143.4134  133.9199  154.8059 H   0  0  0  0  0  0  0  0  0  0  0  0
  142.0300  134.5621  155.6651 H   0  0  0  0  0  0  0  0  0  0  0  0
  147.9546  135.5936  154.0910 H   0  0  0  0  0  0  0  0  0  0  0  0
  151.8816  139.4161  154.0169 H   0  0  0  0  0  0  0  0  0  0  0  0
  151.5685  138.5947  155.5360 H   0  0  0  0  0  0  0  0  0  0  0  0
  151.7259  137.2264  153.0833 H   0  0  0  0  0  0  0  0  0  0  0  0
  149.2016  140.2978  152.5397 H   0  0  0  0  0  0  0  0  0  0  0  0
  1  2  1  0  0  0  0
  1 25  1  0  0  0  0
  1 26  1  0  0  0  0
  2  8  1  0  0  0  0
  2  3  2  0  0  0  0
  3  4  1  0  0  0  0
  4  5  1  0  0  0  0
  4  6  2  0  0  0  0
  6  7  1  0  0  0  0
  7 11  1  0  0  0  0
  7  8  2  0  0  0  0
  8  9  1  0  0  0  0
  9 10  2  0  0  0  0
 10 11  1  0  0  0  0
 10 27  1  0  0  0  0
 11 12  1  0  0  0  0
 12 21  1  0  0  0  0
 12 19  1  0  0  0  0
 12 13  1  0  0  0  0
 13 14  1  0  0  0  0
 14 22  1  0  0  0  0
 14 15  1  0  0  0  0
 14 17  1  0  0  0  0
 15 16  1  0  0  0  0
 15 28  1  0  0  0  0
 15 29  1  0  0  0  0
 16 30  1  0  0  0  0
 17 23  1  0  0  0  0
 17 18  1  0  0  0  0
 17 19  1  0  0  0  0
 18 31  1  0  0  0  0
 19 24  1  0  0  0  0
 19 20  1  0  0  0  0
M  END
> <s_m_source_file>
AV-unprocessed.smi

> <i_m_source_file_index>
158

> <i_lp_mmshare_version>
43012

> <i_f3d_flags>
0

> <s_epik_input>
Q2xjKG4xKW5jKFtOSDJdKWMoYzEyKW5bY0hdbjJbQ0BASF0zT1tDQEhdKFtDSDJdW09IXSlbQ0BASF0oW09IXSlbQ0BASF0zRg==

> <s_epik_cmdline>
J2VwaWtfcHl0aG9uJywgJy1waCcsICc3LjAnLCAnLXRuJywgJzgnLCAnLW1hJywgJzIwMCcsICctbWV0YWxfYmluZGluZycsICctaW1hZScsICc8aW5maWxlLm1hZT4nLCAnLW9tYWUnLCAnPG91dGZpbGUubWFlPic=

> <r_lp_tautomer_probability>
1

> <r_epik_Ionization_Penalty>
6.51543e-05

> <r_epik_Ionization_Penalty_Charging>
0

> <r_epik_Ionization_Penalty_Neutral>
6.51543e-05

> <r_epik_State_Penalty>
-0

> <r_epik_Charging_Adjusted_Penalty>
0

> <i_epik_Tot_Q>
0

> <i_epik_Tot_abs_Q>
0

> <r_epik_Metal_State_Penalty>
-0

> <b_epik_Metal_Only>
0

> <s_epik_Chemistry_Notes>
This compound contains an acetal/aminal-like group ( X-CH(R)-Y where X, Y are N, S, or O) that may be acid/base labile, releasing an aldehyde.

> <s_lp_Force_Field>
OPLS_2005

> <r_lp_Energy>
35.9633

> <b_lp_Chiralities_Consistent>
1

> <s_lp_Variant>
AV-unprocessed.smi:158-10

> <Gold.Version>
5.8.1

> <Gold.Id.Protein>
6NUR|6NUR_protein|mol2

> <Gold.PLP.Fitness>
35.0683

> <Gold.PLP.PLP>
-19.0667

> <Gold.PLP.part.hbond>
-6.3997

> <Gold.PLP.part.metal>
0.0000

> <Gold.PLP.part.buried>
-4.5831

> <Gold.PLP.part.nonpolar>
-9.6610

> <Gold.PLP.part.repulsive>
0.2010

> <Gold.PLP.ligand.clash>
0.0000

> <Gold.PLP.ligand.torsion>
0.3168

> <Gold.PLP.Chemscore.Hbond>
4.5438

> <Gold.PLP.Chemscore.CHOScore>
1.0000

> <Gold.PLP.Chemscore.Metal>
0.0000

> <Gold.Chemscore.Hbonds>
donor molecule, donor type, donor heavy atom, donor atom, acceptor molecule, acceptor atom, score
      L1  H     1    25       P1 10957  0.17
      L1  H     1    26       P1 11000  1.00
      L1  H    16    30       P1  7949  0.86
      L1  H    18    31       P1  7957  0.83
      P1  H  7989  7998       L1    18  0.04
      P1  H  8011  8017       L1    18  0.45
      P1  H 10752 10765       L1    16  0.84
      L1  C    10    27       P1  7948  1.00

> <Gold.PLP.Chemscore.Internal.Correction>
0.0037

> <Gold.Rescore>
     Score         DG    S(hbond)    S(metal)    S(lipo)     H(rot)  DE(clash)    DE(int)     intcor
     13.70     -13.85       4.06        0.00      24.11       3.12       0.06       0.09       ----

> <Gold.Chemscore.Fitness>
13.7014

> <Gold.Chemscore.DG>
-13.8525

> <Gold.Chemscore.ZeroCoef>
-5.4800

> <Gold.Chemscore.Hbond>
4.0558

> <Gold.Chemscore.Metal>
0.0000

> <Gold.Chemscore.Lipo>
24.1117

> <Gold.Chemscore.Internal_Hbond>
0.0000

> <Gold.Chemscore.DEClash>
0.0580

> <Gold.Chemscore.DEInternal>
0.0931

> <Gold.Chemscore.Rot>
3.1230

> <Gold.Chemscore.Internal.Correction>
   9.000000E+99

> <Gold.Chemscore.Hbonds>
donor molecule, donor type, donor heavy atom, donor atom, acceptor molecule, acceptor atom, score
      L1  H     1    25       P1 10957  0.17
      L1  H     1    26       P1 11000  0.43
      L1  H    16    30       P1  7949  0.79
      L1  H    18    31       P1  7957  0.77
      P1  H  8011  8017       L1    18  0.02
      P1  H 10752 10765       L1    16  0.14

> <Gold.Chemscore.Hbond.Weighted>
-13.5464

> <Gold.Chemscore.Metal.Weighted>
-0.0000

> <Gold.Chemscore.Lipo.Weighted>
-2.8211

> <Gold.Chemscore.Internal_Hbond.Weighted>
0.0000

> <Gold.Chemscore.DEClash.Weighted>
0.0580

> <Gold.Chemscore.DEInternal.Weighted>
0.0931

> <Gold.Chemscore.Rot.Weighted>
7.9950

> <Gold.Chemscore.Internal.Correction.Weighted>
   9.000000E+99

> <Gold.Protein.RotatedTorsions>
[ 6907 6896 6895 6894 ] final  167.01 input  -60.11 | X-H torsion
[ 7974 7965 7964 7962 ] final  -97.07 input  175.53 | X-H torsion
[ 8008 7997 7996 7995 ] final   93.75 input   59.86 | X-H torsion
[ 10167 10162 10161 10158 ] final   17.79 input  -65.29 | X-H torsion
[ 10718 10713 10712 10709 ] final  117.99 input   66.30 | X-H torsion
[ 10763 10752 10751 10750 ] final  154.55 input  -60.55 | X-H torsion
[ 11005 11000 10999 10996 ] final  159.01 input  -57.11 | X-H torsion

> <Gold.Protein.ActiveResidues>
 VAL166  LYS551  ARG553  GLY616  TRP617  ASP618  TYR619  PRO620  LYS621  CYS622 
 ASP623  PHE694  ASN695  SER759  ASP760  ASP761  ALA762  ILE779  LEU786  VAL792 
 PHE793  MET794  SER795  GLU796  ALA797  LYS798  CYS799  TRP800  GLU811  SER814 

> <Gold.Protein.RotatedAtoms>
  151.8700  133.3474  159.3731 H   0  0  0  0  0  0  0  0  0  0  0  0  # atno 6907 bound_to 6896
  150.7155  134.5122  159.5622 H   0  0  0  0  0  0  0  0  0  0  0  0  # atno 6908 bound_to 6896
  152.2653  134.7991  160.0474 H   0  0  0  0  0  0  0  0  0  0  0  0  # atno 6909 bound_to 6896
  145.3385  140.9455  143.2621 H   0  0  0  0  0  0  0  0  0  0  0  0  # atno 7974 bound_to 7965
  156.0503  140.3309  155.7343 H   0  0  0  0  0  0  0  0  0  0  0  0  # atno 8008 bound_to 7997
  155.5611  140.0619  157.2846 H   0  0  0  0  0  0  0  0  0  0  0  0  # atno 8009 bound_to 7997
  154.4433  140.1877  156.0772 H   0  0  0  0  0  0  0  0  0  0  0  0  # atno 8010 bound_to 7997
  140.5700  143.9178  150.6706 H   0  0  0  0  0  0  0  0  0  0  0  0  # atno 10167 bound_to 10162
  157.6060  131.1043  150.7693 H   0  0  0  0  0  0  0  0  0  0  0  0  # atno 10718 bound_to 10713
  154.1541  135.2813  155.3127 H   0  0  0  0  0  0  0  0  0  0  0  0  # atno 10763 bound_to 10752
  154.6195  135.5472  153.7563 H   0  0  0  0  0  0  0  0  0  0  0  0  # atno 10764 bound_to 10752
  153.0212  135.6435  154.1685 H   0  0  0  0  0  0  0  0  0  0  0  0  # atno 10765 bound_to 10752
  140.1920  134.8400  157.2923 H   0  0  0  0  0  0  0  0  0  0  0  0  # atno 11005 bound_to 11000
  144.8808  139.4906  143.6723 LP  0  0  0  0  0  0  0  0  0  0  0  0  # atno 17320 bound_to 7965
  146.3017  139.7447  142.9086 LP  0  0  0  0  0  0  0  0  0  0  0  0  # atno 17321 bound_to 7965
  140.2651  143.3496  152.1288 LP  0  0  0  0  0  0  0  0  0  0  0  0  # atno 17342 bound_to 10162
  139.5113  144.6898  151.5791 LP  0  0  0  0  0  0  0  0  0  0  0  0  # atno 17343 bound_to 10162
  156.8081  130.4943  149.5360 LP  0  0  0  0  0  0  0  0  0  0  0  0  # atno 17370 bound_to 10713
  156.1147  130.6066  151.0101 LP  0  0  0  0  0  0  0  0  0  0  0  0  # atno 17371 bound_to 10713
  140.2148  134.4094  155.7594 LP  0  0  0  0  0  0  0  0  0  0  0  0  # atno 17394 bound_to 11000
  141.2226  133.7136  156.8397 LP  0  0  0  0  0  0  0  0  0  0  0  0  # atno 17395 bound_to 11000

$$$$
