AV-unprocessed.smi:2278|AV-procd|sdf|9180|dock6
  -GOLD-   2272012393D 1   1.00000     0.00000
 Structure written by MMmdl.
 46 47  0  0  0  0  0  0  0  0  2 V2000
  150.4336  143.2762  158.2642 C   0  0  0  0  0  0  0  0  0  0  0  0
  150.8803  142.0368  157.5094 C   0  0  0  0  0  0  0  0  0  0  0  0
  150.1789  141.7611  156.3319 N   0  0  0  0  0  0  0  0  0  0  0  0
  150.4881  140.7245  155.6243 C   0  0  0  0  0  0  0  0  0  0  0  0
  151.5210  139.8530  156.0060 N   0  0  0  0  0  0  0  0  0  0  0  0
  151.7694  138.7043  155.1185 C   0  0  0  0  0  0  0  0  0  0  0  0
  150.4914  137.8711  154.8702 C   0  0  1  0  0  0  0  0  0  0  0  0
  149.9423  138.2564  153.6250 O   0  0  0  0  0  0  0  0  0  0  0  0
  150.8069  136.3636  154.7857 C   0  0  0  0  0  0  0  0  0  0  0  0
  149.5888  135.5373  154.5844 N   0  3  2  0  0  0  0  0  0  0  0  0
  148.4917  135.8690  155.5323 C   0  0  0  0  0  0  0  0  0  0  0  0
  147.2135  135.0819  155.1987 C   0  0  0  0  0  0  0  0  0  0  0  0
  147.4759  133.5668  155.1967 C   0  0  1  0  0  0  0  0  0  0  0  0
  146.2127  132.7716  154.8380 C   0  0  0  0  0  0  0  0  0  0  0  0
  148.6376  133.2562  154.2380 C   0  0  0  0  0  0  0  0  0  0  0  0
  149.8874  134.0821  154.5871 C   0  0  0  0  0  0  0  0  0  0  0  0
  152.2536  140.0465  157.1411 C   0  0  0  0  0  0  0  0  0  0  0  0
  153.1503  139.2671  157.4702 O   0  0  0  0  0  0  0  0  0  0  0  0
  151.8913  141.2311  157.9352 C   0  0  0  0  0  0  0  0  0  0  0  0
  152.6877  141.4788  159.2103 C   0  0  0  0  0  0  0  0  0  0  0  0
  151.2601  143.9797  158.3696 H   0  0  0  0  0  0  0  0  0  0  0  0
  150.0748  143.0079  159.2583 H   0  0  0  0  0  0  0  0  0  0  0  0
  149.6240  143.7889  157.7430 H   0  0  0  0  0  0  0  0  0  0  0  0
  149.9691  140.4639  154.7002 H   0  0  0  0  0  0  0  0  0  0  0  0
  152.2269  138.9999  154.1716 H   0  0  0  0  0  0  0  0  0  0  0  0
  152.5265  138.0766  155.5923 H   0  0  0  0  0  0  0  0  0  0  0  0
  149.7599  138.0605  155.6547 H   0  0  0  0  0  0  0  0  0  0  0  0
  149.4210  137.5423  153.2897 H   0  0  0  0  0  0  0  0  0  0  0  0
  151.5096  136.2015  153.9664 H   0  0  0  0  0  0  0  0  0  0  0  0
  151.3159  136.0255  155.6898 H   0  0  0  0  0  0  0  0  0  0  0  0
  148.8110  135.6470  156.5518 H   0  0  0  0  0  0  0  0  0  0  0  0
  148.2669  136.9345  155.5004 H   0  0  0  0  0  0  0  0  0  0  0  0
  146.4350  135.3251  155.9229 H   0  0  0  0  0  0  0  0  0  0  0  0
  146.8370  135.3953  154.2238 H   0  0  0  0  0  0  0  0  0  0  0  0
  147.7776  133.2727  156.2033 H   0  0  0  0  0  0  0  0  0  0  0  0
  145.8579  133.0190  153.8369 H   0  0  0  0  0  0  0  0  0  0  0  0
  145.4046  132.9823  155.5391 H   0  0  0  0  0  0  0  0  0  0  0  0
  146.4024  131.6983  154.8684 H   0  0  0  0  0  0  0  0  0  0  0  0
  148.8793  132.1934  154.2755 H   0  0  0  0  0  0  0  0  0  0  0  0
  148.3372  133.4682  153.2108 H   0  0  0  0  0  0  0  0  0  0  0  0
  150.6708  133.8653  153.8597 H   0  0  0  0  0  0  0  0  0  0  0  0
  150.2727  133.7900  155.5656 H   0  0  0  0  0  0  0  0  0  0  0  0
  152.5906  140.6283  159.8857 H   0  0  0  0  0  0  0  0  0  0  0  0
  152.3647  142.3656  159.7536 H   0  0  0  0  0  0  0  0  0  0  0  0
  153.7448  141.6056  158.9742 H   0  0  0  0  0  0  0  0  0  0  0  0
  149.2555  135.7525  153.6553 H   0  0  0  0  0  0  0  0  0  0  0  0
  1  2  1  0  0  0  0
  1 21  1  0  0  0  0
  1 22  1  0  0  0  0
  1 23  1  0  0  0  0
  2 19  2  0  0  0  0
  2  3  1  0  0  0  0
  3  4  2  0  0  0  0
  4  5  1  0  0  0  0
  4 24  1  0  0  0  0
  5  6  1  0  0  0  0
  5 17  1  0  0  0  0
  6  7  1  0  0  0  0
  6 25  1  0  0  0  0
  6 26  1  0  0  0  0
  7  8  1  0  0  0  0
  7  9  1  0  0  0  0
  7 27  1  0  0  0  0
  8 28  1  0  0  0  0
  9 10  1  0  0  0  0
  9 29  1  0  0  0  0
  9 30  1  0  0  0  0
 10 16  1  0  0  0  0
 10 11  1  0  0  0  0
 10 46  1  0  0  0  0
 11 12  1  0  0  0  0
 11 31  1  0  0  0  0
 11 32  1  0  0  0  0
 12 13  1  0  0  0  0
 12 33  1  0  0  0  0
 12 34  1  0  0  0  0
 13 14  1  0  0  0  0
 13 15  1  0  0  0  0
 13 35  1  0  0  0  0
 14 36  1  0  0  0  0
 14 37  1  0  0  0  0
 14 38  1  0  0  0  0
 15 16  1  0  0  0  0
 15 39  1  0  0  0  0
 15 40  1  0  0  0  0
 16 41  1  0  0  0  0
 16 42  1  0  0  0  0
 17 18  2  0  0  0  0
 17 19  1  0  0  0  0
 19 20  1  0  0  0  0
 20 43  1  0  0  0  0
 20 44  1  0  0  0  0
 20 45  1  0  0  0  0
M  CHG  1  10   1
M  END
> <s_m_source_file>
AV-unprocessed.smi

> <i_m_source_file_index>
2278

> <i_lp_mmshare_version>
43012

> <i_f3d_flags>
0

> <s_epik_input>
W0NIM11jMW5bY0hdbihjKD1PKWMxW0NIM10pW0NIMl1bQ0BIXShbT0hdKVtDSDJdTjJbQ0gyXVtDSDJdW0NIXShbQ0gzXSlbQ0gyXVtDSDJdMg==

> <s_epik_cmdline>
J2VwaWtfcHl0aG9uJywgJy1waCcsICc3LjAnLCAnLXRuJywgJzgnLCAnLW1hJywgJzIwMCcsICctbWV0YWxfYmluZGluZycsICctaW1hZScsICc8aW5maWxlLm1hZT4nLCAnLW9tYWUnLCAnPG91dGZpbGUubWFlPic=

> <r_lp_tautomer_probability>
1

> <r_epik_Ionization_Penalty>
0.00139489

> <r_epik_Ionization_Penalty_Charging>
0.00136819

> <r_epik_Ionization_Penalty_Neutral>
2.66975e-05

> <r_epik_State_Penalty>
0.000910892

> <r_epik_Charging_Adjusted_Penalty>
0.00227908

> <i_epik_Tot_Q>
1

> <i_epik_Tot_abs_Q>
1

> <r_epik_Metal_State_Penalty>
-0

> <b_epik_Metal_Only>
0

> <s_lp_Force_Field>
OPLS_2005

> <r_lp_Energy>
29.3235

> <b_lp_Chiralities_Consistent>
1

> <s_lp_Variant>
AV-unprocessed.smi:2278-2

> <Gold.Version>
5.8.1

> <Gold.Id.Protein>
6NUR|6NUR_protein|mol2

> <Gold.PLP.Fitness>
44.5267

> <Gold.PLP.PLP>
-33.6435

> <Gold.PLP.part.hbond>
-4.0681

> <Gold.PLP.part.metal>
0.0000

> <Gold.PLP.part.buried>
-1.9090

> <Gold.PLP.part.nonpolar>
-26.6857

> <Gold.PLP.part.repulsive>
0.1341

> <Gold.PLP.ligand.clash>
0.0000

> <Gold.PLP.ligand.torsion>
0.5894

> <Gold.PLP.Chemscore.Hbond>
4.0000

> <Gold.PLP.Chemscore.CHOScore>
0.0000

> <Gold.PLP.Chemscore.Metal>
0.0000

> <Gold.Chemscore.Hbonds>
donor molecule, donor type, donor heavy atom, donor atom, acceptor molecule, acceptor atom, score
      L1  H     8    28       P1  7948  1.00
      L1  H    10    46       P1  7948  2.00
      P1  H  7997  8008       L1    18  1.00

> <Gold.PLP.Chemscore.Internal.Correction>
0.0621

> <Gold.Rescore>
     Score         DG    S(hbond)    S(metal)    S(lipo)     H(rot)  DE(clash)    DE(int)     intcor
     15.53     -16.31       2.57        0.00      67.17       2.20       0.04       0.74       ----

> <Gold.Chemscore.Fitness>
15.5287

> <Gold.Chemscore.DG>
-16.3076

> <Gold.Chemscore.ZeroCoef>
-5.4800

> <Gold.Chemscore.Hbond>
2.5740

> <Gold.Chemscore.Metal>
0.0000

> <Gold.Chemscore.Lipo>
67.1704

> <Gold.Chemscore.Internal_Hbond>
0.0000

> <Gold.Chemscore.DEClash>
0.0427

> <Gold.Chemscore.DEInternal>
0.7362

> <Gold.Chemscore.Rot>
2.1986

> <Gold.Chemscore.Internal.Correction>
   9.000000E+99

> <Gold.Chemscore.Hbonds>
donor molecule, donor type, donor heavy atom, donor atom, acceptor molecule, acceptor atom, score
      L1  H     8    28       P1  7948  0.88
      L1  H    10    46       P1  7948  0.65
      P1  H  7997  8008       L1    18  0.59

> <Gold.Chemscore.Hbond.Weighted>
-8.5972

> <Gold.Chemscore.Metal.Weighted>
-0.0000

> <Gold.Chemscore.Lipo.Weighted>
-7.8589

> <Gold.Chemscore.Internal_Hbond.Weighted>
0.0000

> <Gold.Chemscore.DEClash.Weighted>
0.0427

> <Gold.Chemscore.DEInternal.Weighted>
0.7362

> <Gold.Chemscore.Rot.Weighted>
5.6285

> <Gold.Chemscore.Internal.Correction.Weighted>
   9.000000E+99

> <Gold.Protein.RotatedTorsions>
[ 6907 6896 6895 6894 ] final    6.18 input  -60.11 | X-H torsion
[ 7974 7965 7964 7962 ] final  157.58 input  175.53 | X-H torsion
[ 8008 7997 7996 7995 ] final  -90.56 input   59.86 | X-H torsion
[ 10167 10162 10161 10158 ] final  175.19 input  -65.29 | X-H torsion
[ 10718 10713 10712 10709 ] final  142.74 input   66.30 | X-H torsion
[ 10763 10752 10751 10750 ] final -155.04 input  -60.55 | X-H torsion
[ 11005 11000 10999 10996 ] final  -98.01 input  -57.11 | X-H torsion

> <Gold.Protein.ActiveResidues>
 VAL166  LYS551  ARG553  GLY616  TRP617  ASP618  TYR619  PRO620  LYS621  CYS622 
 ASP623  PHE694  ASN695  SER759  ASP760  ASP761  ALA762  ILE779  LEU786  VAL792 
 PHE793  MET794  SER795  GLU796  ALA797  LYS798  CYS799  TRP800  GLU811  SER814 

> <Gold.Protein.RotatedAtoms>
  151.6695  135.0978  160.0194 H   0  0  0  0  0  0  0  0  0  0  0  0  # atno 6907 bound_to 6896
  152.3900  133.6661  159.6238 H   0  0  0  0  0  0  0  0  0  0  0  0  # atno 6908 bound_to 6896
  150.7817  133.8887  159.3348 H   0  0  0  0  0  0  0  0  0  0  0  0  # atno 6909 bound_to 6896
  144.7895  139.7361  143.6227 H   0  0  0  0  0  0  0  0  0  0  0  0  # atno 7974 bound_to 7965
  154.7000  140.0529  157.0448 H   0  0  0  0  0  0  0  0  0  0  0  0  # atno 8008 bound_to 7997
  155.0698  140.3198  155.4615 H   0  0  0  0  0  0  0  0  0  0  0  0  # atno 8009 bound_to 7997
  156.2757  140.2084  156.5825 H   0  0  0  0  0  0  0  0  0  0  0  0  # atno 8010 bound_to 7997
  139.5168  144.3060  152.0336 H   0  0  0  0  0  0  0  0  0  0  0  0  # atno 10167 bound_to 10162
  157.3770  131.0987  151.0775 H   0  0  0  0  0  0  0  0  0  0  0  0  # atno 10718 bound_to 10713
  154.7816  135.3176  154.7977 H   0  0  0  0  0  0  0  0  0  0  0  0  # atno 10763 bound_to 10752
  153.8687  135.6846  153.4780 H   0  0  0  0  0  0  0  0  0  0  0  0  # atno 10764 bound_to 10752
  153.1454  135.4721  154.9496 H   0  0  0  0  0  0  0  0  0  0  0  0  # atno 10765 bound_to 10752
  141.1359  133.8213  157.0782 H   0  0  0  0  0  0  0  0  0  0  0  0  # atno 11005 bound_to 11000
  146.2141  139.5518  142.9662 LP  0  0  0  0  0  0  0  0  0  0  0  0  # atno 17320 bound_to 7965
  145.5833  141.0379  143.2110 LP  0  0  0  0  0  0  0  0  0  0  0  0  # atno 17321 bound_to 7965
  140.2506  144.4173  150.6223 LP  0  0  0  0  0  0  0  0  0  0  0  0  # atno 17342 bound_to 10162
  140.6227  143.2178  151.6660 LP  0  0  0  0  0  0  0  0  0  0  0  0  # atno 17343 bound_to 10162
  157.1858  130.6329  149.5687 LP  0  0  0  0  0  0  0  0  0  0  0  0  # atno 17370 bound_to 10713
  155.9767  130.4738  150.6548 LP  0  0  0  0  0  0  0  0  0  0  0  0  # atno 17371 bound_to 10713
  140.0468  134.9826  157.1063 LP  0  0  0  0  0  0  0  0  0  0  0  0  # atno 17394 bound_to 11000
  140.4051  134.2041  155.7163 LP  0  0  0  0  0  0  0  0  0  0  0  0  # atno 17395 bound_to 11000

$$$$
