AV-unprocessed.smi:3303|AV-procd|sdf|12666|dock7
  -GOLD-   2272019 03D 1   1.00000     0.00000
 Structure written by MMmdl.
 45 46  0  0  0  0  0  0  0  0  3 V2000
  145.7741  143.1969  153.3694 C   0  0  0  0  0  0  0  0  0  0  0  0
  146.2172  142.8693  154.8067 C   0  0  1  0  0  0  0  0  0  0  0  0
  145.0811  142.2053  155.6120 C   0  0  0  0  0  0  0  0  0  0  0  0
  144.8166  140.8097  155.1720 N   0  3  2  0  0  0  0  0  0  0  0  0
  143.6192  140.2586  155.8525 C   0  0  0  0  0  0  0  0  0  0  0  0
  146.0315  139.9473  155.2827 C   0  0  1  0  0  0  0  0  0  0  0  0
  145.7794  138.5023  154.8092 C   0  0  0  0  0  0  0  0  0  0  0  0
  147.2015  140.5540  154.4768 C   0  0  0  0  0  0  0  0  0  0  0  0
  147.5032  142.0172  154.8472 C   0  0  2  0  0  0  0  0  0  0  0  0
  148.1568  142.1022  156.1752 N   0  3  0  0  0  0  0  0  0  0  0  0
  149.3458  141.2410  156.3348 C   0  0  0  0  0  0  0  0  0  0  0  0
  150.6396  142.0294  156.0916 C   0  0  0  0  0  0  0  0  0  0  0  0
  151.1228  142.7287  157.3478 C   0  0  0  0  0  0  0  0  0  0  0  0
  151.4050  141.9964  158.5207 C   0  0  0  0  0  0  0  0  0  0  0  0
  151.8391  142.7000  159.6613 C   0  0  0  0  0  0  0  0  0  0  0  0
  151.9711  144.0999  159.5851 C   0  0  0  0  0  0  0  0  0  0  0  0
  151.6628  144.7376  158.3670 C   0  0  0  0  0  0  0  0  0  0  0  0
  151.2454  144.0726  157.2678 N   0  0  0  0  0  0  0  0  0  0  0  0
  145.5091  142.3009  152.8080 H   0  0  0  0  0  0  0  0  0  0  0  0
  146.5657  143.7092  152.8216 H   0  0  0  0  0  0  0  0  0  0  0  0
  144.9038  143.8538  153.3695 H   0  0  0  0  0  0  0  0  0  0  0  0
  146.4373  143.8297  155.2759 H   0  0  0  0  0  0  0  0  0  0  0  0
  145.3304  142.2012  156.6743 H   0  0  0  0  0  0  0  0  0  0  0  0
  144.1732  142.8024  155.5136 H   0  0  0  0  0  0  0  0  0  0  0  0
  143.8211  140.0632  156.9064 H   0  0  0  0  0  0  0  0  0  0  0  0
  143.2835  139.3334  155.3855 H   0  0  0  0  0  0  0  0  0  0  0  0
  142.7836  140.9570  155.7921 H   0  0  0  0  0  0  0  0  0  0  0  0
  146.3196  139.9077  156.3345 H   0  0  0  0  0  0  0  0  0  0  0  0
  146.7055  137.9264  154.8062 H   0  0  0  0  0  0  0  0  0  0  0  0
  145.3755  138.4796  153.7962 H   0  0  0  0  0  0  0  0  0  0  0  0
  145.0877  137.9708  155.4625 H   0  0  0  0  0  0  0  0  0  0  0  0
  148.1010  139.9505  154.6077 H   0  0  0  0  0  0  0  0  0  0  0  0
  146.9658  140.4992  153.4130 H   0  0  0  0  0  0  0  0  0  0  0  0
  148.1991  142.4093  154.1031 H   0  0  0  0  0  0  0  0  0  0  0  0
  148.4362  143.0596  156.3354 H   0  0  0  0  0  0  0  0  0  0  0  0
  149.3470  140.8220  157.3422 H   0  0  0  0  0  0  0  0  0  0  0  0
  149.2832  140.4061  155.6351 H   0  0  0  0  0  0  0  0  0  0  0  0
  151.4222  141.3616  155.7283 H   0  0  0  0  0  0  0  0  0  0  0  0
  150.4846  142.7751  155.3103 H   0  0  0  0  0  0  0  0  0  0  0  0
  151.2917  140.9226  158.5505 H   0  0  0  0  0  0  0  0  0  0  0  0
  152.0652  142.1756  160.5781 H   0  0  0  0  0  0  0  0  0  0  0  0
  152.3006  144.6722  160.4398 H   0  0  0  0  0  0  0  0  0  0  0  0
  151.7519  145.8097  158.2731 H   0  0  0  0  0  0  0  0  0  0  0  0
  147.4847  141.8413  156.8828 H   0  0  0  0  0  0  0  0  0  0  0  0
  144.5838  140.8601  154.1900 H   0  0  0  0  0  0  0  0  0  0  0  0
  1  2  1  0  0  0  0
  1 19  1  0  0  0  0
  1 20  1  0  0  0  0
  1 21  1  0  0  0  0
  2  9  1  0  0  0  0
  2  3  1  0  0  0  0
  2 22  1  0  0  0  0
  3  4  1  0  0  0  0
  3 23  1  0  0  0  0
  3 24  1  0  0  0  0
  4  5  1  0  0  0  0
  4  6  1  0  0  0  0
  4 45  1  0  0  0  0
  5 25  1  0  0  0  0
  5 26  1  0  0  0  0
  5 27  1  0  0  0  0
  6  7  1  0  0  0  0
  6  8  1  0  0  0  0
  6 28  1  0  0  0  0
  7 29  1  0  0  0  0
  7 30  1  0  0  0  0
  7 31  1  0  0  0  0
  8  9  1  0  0  0  0
  8 32  1  0  0  0  0
  8 33  1  0  0  0  0
  9 10  1  0  0  0  0
  9 34  1  0  0  0  0
 10 11  1  0  0  0  0
 10 35  1  0  0  0  0
 10 44  1  0  0  0  0
 11 12  1  0  0  0  0
 11 36  1  0  0  0  0
 11 37  1  0  0  0  0
 12 13  1  0  0  0  0
 12 38  1  0  0  0  0
 12 39  1  0  0  0  0
 13 18  1  0  0  0  0
 13 14  2  0  0  0  0
 14 15  1  0  0  0  0
 14 40  1  0  0  0  0
 15 16  2  0  0  0  0
 15 41  1  0  0  0  0
 16 17  1  0  0  0  0
 16 42  1  0  0  0  0
 17 18  2  0  0  0  0
 17 43  1  0  0  0  0
M  CHG  1   4   1
M  CHG  1  10   1
M  END
> <s_m_source_file>
AV-unprocessed.smi

> <i_m_source_file_index>
3303

> <i_lp_mmshare_version>
43012

> <i_f3d_flags>
0

> <s_epik_input>
W0NIM11bQ0BASF0xW0NIMl1OKFtDSDNdKVtDQEBIXShbQ0gzXSlbQ0gyXVtDQEhdMVtOSF1bQ0gyXVtDSDJdYzJbY0hdW2NIXVtjSF1bY0hdbjI=

> <s_epik_cmdline>
J2VwaWtfcHl0aG9uJywgJy1waCcsICc3LjAnLCAnLXRuJywgJzgnLCAnLW1hJywgJzIwMCcsICctbWV0YWxfYmluZGluZycsICctaW1hZScsICc8aW5maWxlLm1hZT4nLCAnLW9tYWUnLCAnPG91dGZpbGUubWFlPic=

> <r_epik_Ionization_Penalty>
0.0769462

> <r_epik_Ionization_Penalty_Charging>
0.0759813

> <r_epik_Ionization_Penalty_Neutral>
0.000964829

> <r_epik_State_Penalty>
0.0654373

> <r_epik_Charging_Adjusted_Penalty>
0.141419

> <i_epik_Tot_Q>
2

> <i_epik_Tot_abs_Q>
2

> <r_epik_Metal_State_Penalty>
0.0656439

> <b_epik_Metal_Only>
0

> <s_lp_Force_Field>
OPLS_2005

> <r_lp_Energy>
35.1377

> <b_lp_Chiralities_Consistent>
1

> <s_lp_Variant>
AV-unprocessed.smi:3303-10

> <Gold.Version>
5.8.1

> <Gold.Id.Protein>
6NUR|6NUR_protein|mol2

> <Gold.PLP.Fitness>
44.3016

> <Gold.PLP.PLP>
-33.1909

> <Gold.PLP.part.hbond>
-2.0000

> <Gold.PLP.part.metal>
0.0000

> <Gold.PLP.part.buried>
-4.1630

> <Gold.PLP.part.nonpolar>
-27.1616

> <Gold.PLP.part.repulsive>
0.4090

> <Gold.PLP.ligand.clash>
0.0000

> <Gold.PLP.ligand.torsion>
0.4285

> <Gold.PLP.Chemscore.Hbond>
3.9840

> <Gold.PLP.Chemscore.CHOScore>
0.0000

> <Gold.PLP.Chemscore.Metal>
0.0000

> <Gold.Chemscore.Hbonds>
donor molecule, donor type, donor heavy atom, donor atom, acceptor molecule, acceptor atom, score
      L1  H     4    45       P1 10175  2.00
      L1  H    10    35       P1  8028  1.98

> <Gold.PLP.Chemscore.Internal.Correction>
0.0158

> <Gold.Rescore>
     Score         DG    S(hbond)    S(metal)    S(lipo)     H(rot)  DE(clash)    DE(int)     intcor
     18.30     -18.90       1.82        0.00      92.90       1.37       0.14       0.45       ----

> <Gold.Chemscore.Fitness>
18.3039

> <Gold.Chemscore.DG>
-18.8951

> <Gold.Chemscore.ZeroCoef>
-5.4800

> <Gold.Chemscore.Hbond>
1.8157

> <Gold.Chemscore.Metal>
0.0000

> <Gold.Chemscore.Lipo>
92.8978

> <Gold.Chemscore.Internal_Hbond>
0.0000

> <Gold.Chemscore.DEClash>
0.1385

> <Gold.Chemscore.DEInternal>
0.4527

> <Gold.Chemscore.Rot>
1.3744

> <Gold.Chemscore.Internal.Correction>
   9.000000E+99

> <Gold.Chemscore.Hbonds>
donor molecule, donor type, donor heavy atom, donor atom, acceptor molecule, acceptor atom, score
      L1  H     4    45       P1 10175  0.94
      L1  H    10    35       P1  8028  0.77

> <Gold.Chemscore.Hbond.Weighted>
-6.0645

> <Gold.Chemscore.Metal.Weighted>
-0.0000

> <Gold.Chemscore.Lipo.Weighted>
-10.8690

> <Gold.Chemscore.Internal_Hbond.Weighted>
0.0000

> <Gold.Chemscore.DEClash.Weighted>
0.1385

> <Gold.Chemscore.DEInternal.Weighted>
0.4527

> <Gold.Chemscore.Rot.Weighted>
3.5185

> <Gold.Chemscore.Internal.Correction.Weighted>
   9.000000E+99

> <Gold.Protein.RotatedTorsions>
[ 6907 6896 6895 6894 ] final -168.19 input  -60.11 | X-H torsion
[ 7974 7965 7964 7962 ] final -117.40 input  175.53 | X-H torsion
[ 8008 7997 7996 7995 ] final  151.92 input   59.86 | X-H torsion
[ 10167 10162 10161 10158 ] final   61.27 input  -65.29 | X-H torsion
[ 10718 10713 10712 10709 ] final -125.84 input   66.30 | X-H torsion
[ 10763 10752 10751 10750 ] final  164.19 input  -60.55 | X-H torsion
[ 11005 11000 10999 10996 ] final  168.49 input  -57.11 | X-H torsion

> <Gold.Protein.ActiveResidues>
 VAL166  LYS551  ARG553  GLY616  TRP617  ASP618  TYR619  PRO620  LYS621  CYS622 
 ASP623  PHE694  ASN695  SER759  ASP760  ASP761  ALA762  ILE779  LEU786  VAL792 
 PHE793  MET794  SER795  GLU796  ALA797  LYS798  CYS799  TRP800  GLU811  SER814 

> <Gold.Protein.RotatedAtoms>
  151.4716  133.3568  159.2824 H   0  0  0  0  0  0  0  0  0  0  0  0  # atno 6907 bound_to 6896
  150.8957  134.8367  159.7336 H   0  0  0  0  0  0  0  0  0  0  0  0  # atno 6908 bound_to 6896
  152.4850  134.4630  159.9663 H   0  0  0  0  0  0  0  0  0  0  0  0  # atno 6909 bound_to 6896
  145.0857  140.8456  143.4012 H   0  0  0  0  0  0  0  0  0  0  0  0  # atno 7974 bound_to 7965
  156.2652  140.2035  156.6252 H   0  0  0  0  0  0  0  0  0  0  0  0  # atno 8008 bound_to 7997
  154.6726  140.0548  157.0206 H   0  0  0  0  0  0  0  0  0  0  0  0  # atno 8009 bound_to 7997
  155.1115  140.3216  155.4523 H   0  0  0  0  0  0  0  0  0  0  0  0  # atno 8010 bound_to 7997
  140.1565  144.4412  150.6731 H   0  0  0  0  0  0  0  0  0  0  0  0  # atno 10167 bound_to 10162
  156.1712  130.6668  151.0182 H   0  0  0  0  0  0  0  0  0  0  0  0  # atno 10718 bound_to 10713
  154.3052  135.2758  155.2592 H   0  0  0  0  0  0  0  0  0  0  0  0  # atno 10763 bound_to 10752
  154.5012  135.5808  153.6535 H   0  0  0  0  0  0  0  0  0  0  0  0  # atno 10764 bound_to 10752
  152.9895  135.6158  154.3225 H   0  0  0  0  0  0  0  0  0  0  0  0  # atno 10765 bound_to 10752
  140.2877  134.7698  157.3812 H   0  0  0  0  0  0  0  0  0  0  0  0  # atno 11005 bound_to 11000
  145.1125  139.2747  143.5630 LP  0  0  0  0  0  0  0  0  0  0  0  0  # atno 17320 bound_to 7965
  146.3531  140.0725  142.8622 LP  0  0  0  0  0  0  0  0  0  0  0  0  # atno 17321 bound_to 7965
  140.6670  143.2271  151.5719 LP  0  0  0  0  0  0  0  0  0  0  0  0  # atno 17342 bound_to 10162
  139.5401  144.2672  152.1333 LP  0  0  0  0  0  0  0  0  0  0  0  0  # atno 17343 bound_to 10162
  157.6804  131.0839  150.7386 LP  0  0  0  0  0  0  0  0  0  0  0  0  # atno 17370 bound_to 10713
  156.7445  130.4749  149.5470 LP  0  0  0  0  0  0  0  0  0  0  0  0  # atno 17371 bound_to 10713
  140.1224  134.5202  155.8173 LP  0  0  0  0  0  0  0  0  0  0  0  0  # atno 17394 bound_to 11000
  141.2152  133.6761  156.6890 LP  0  0  0  0  0  0  0  0  0  0  0  0  # atno 17395 bound_to 11000

$$$$
