AV-unprocessed.smi:649|AV-procd|sdf|3181|dock8
  -GOLD-   22720 0103D 1   1.00000     0.00000
 Structure written by MMmdl.
 34 35  0  0  0  0  0  0  0  0  2 V2000
  154.2218  140.7260  160.6863 C   0  0  0  0  0  0  0  0  0  0  0  0
  153.2499  141.8270  160.3167 C   0  0  0  0  0  0  0  0  0  0  0  0
  153.0369  142.9112  161.1869 C   0  0  0  0  0  0  0  0  0  0  0  0
  152.1447  143.9359  160.8246 C   0  0  0  0  0  0  0  0  0  0  0  0
  151.4581  143.8965  159.5915 C   0  0  0  0  0  0  0  0  0  0  0  0
  150.5228  145.0493  159.2636 C   0  0  0  0  0  0  0  0  0  0  0  0
  151.6660  142.7994  158.7081 C   0  0  0  0  0  0  0  0  0  0  0  0
  150.9993  142.6770  157.3328 C   0  0  1  0  0  0  0  0  0  0  0  0
  151.0654  143.8599  156.5632 O   0  0  0  0  0  0  0  0  0  0  0  0
  151.5035  141.4797  156.4906 C   0  0  0  0  0  0  0  0  0  0  0  0
  150.4901  140.9820  155.5467 N   0  0  0  0  0  0  0  0  0  0  0  0
  149.2987  141.7166  155.4136 C   0  0  0  0  0  0  0  0  0  0  0  0
  148.3330  141.3612  154.5449 C   0  0  0  0  0  0  0  0  0  0  0  0
  146.8871  142.2939  154.3909 Cl  0  0  0  0  0  0  0  0  0  0  0  0
  148.5489  140.1672  153.7303 C   0  0  0  0  0  0  0  0  0  0  0  0
  147.6866  139.8134  152.9273 O   0  0  0  0  0  0  0  0  0  0  0  0
  149.7200  139.4862  153.9010 N   0  5  0  0  0  0  0  0  0  0  0  0
  150.6936  139.8675  154.7841 C   0  0  0  0  0  0  0  0  0  0  0  0
  151.7488  139.2459  154.9101 O   0  0  0  0  0  0  0  0  0  0  0  0
  152.5632  141.7756  159.0892 C   0  0  0  0  0  0  0  0  0  0  0  0
  154.4122  140.7123  161.7598 H   0  0  0  0  0  0  0  0  0  0  0  0
  155.1705  140.8755  160.1703 H   0  0  0  0  0  0  0  0  0  0  0  0
  153.8250  139.7515  160.4003 H   0  0  0  0  0  0  0  0  0  0  0  0
  153.5589  142.9643  162.1310 H   0  0  0  0  0  0  0  0  0  0  0  0
  151.9948  144.7630  161.5028 H   0  0  0  0  0  0  0  0  0  0  0  0
  149.4836  144.7245  159.3095 H   0  0  0  0  0  0  0  0  0  0  0  0
  150.7213  145.4543  158.2736 H   0  0  0  0  0  0  0  0  0  0  0  0
  150.6423  145.8672  159.9745 H   0  0  0  0  0  0  0  0  0  0  0  0
  149.9338  142.5224  157.5062 H   0  0  0  0  0  0  0  0  0  0  0  0
  150.1955  144.2237  156.5042 H   0  0  0  0  0  0  0  0  0  0  0  0
  152.4130  141.7585  155.9555 H   0  0  0  0  0  0  0  0  0  0  0  0
  151.8129  140.6646  157.1433 H   0  0  0  0  0  0  0  0  0  0  0  0
  149.2257  142.5900  156.0450 H   0  0  0  0  0  0  0  0  0  0  0  0
  152.7441  140.9450  158.4220 H   0  0  0  0  0  0  0  0  0  0  0  0
  1  2  1  0  0  0  0
  1 21  1  0  0  0  0
  1 22  1  0  0  0  0
  1 23  1  0  0  0  0
  2 20  1  0  0  0  0
  2  3  2  0  0  0  0
  3  4  1  0  0  0  0
  3 24  1  0  0  0  0
  4  5  2  0  0  0  0
  4 25  1  0  0  0  0
  5  6  1  0  0  0  0
  5  7  1  0  0  0  0
  6 26  1  0  0  0  0
  6 27  1  0  0  0  0
  6 28  1  0  0  0  0
  7  8  1  0  0  0  0
  7 20  2  0  0  0  0
  8  9  1  0  0  0  0
  8 10  1  0  0  0  0
  8 29  1  0  0  0  0
  9 30  1  0  0  0  0
 10 11  1  0  0  0  0
 10 31  1  0  0  0  0
 10 32  1  0  0  0  0
 11 18  1  0  0  0  0
 11 12  1  0  0  0  0
 12 13  2  0  0  0  0
 12 33  1  0  0  0  0
 13 14  1  0  0  0  0
 13 15  1  0  0  0  0
 15 16  2  0  0  0  0
 15 17  1  0  0  0  0
 17 18  1  0  0  0  0
 18 19  2  0  0  0  0
 20 34  1  0  0  0  0
M  CHG  1  17  -1
M  END
> <s_m_source_file>
AV-unprocessed.smi

> <i_m_source_file_index>
649

> <i_lp_mmshare_version>
43012

> <i_f3d_flags>
0

> <s_epik_input>
W0NIM11jMVtjSF1bY0hdYyhbQ0gzXSljKFtjSF0xKVtDQEhdKFtPSF0pW0NIMl1uMltjSF1jKENsKWMoPU8pW25IXWMyPU8=

> <s_epik_cmdline>
J2VwaWtfcHl0aG9uJywgJy1waCcsICc3LjAnLCAnLXRuJywgJzgnLCAnLW1hJywgJzIwMCcsICctbWV0YWxfYmluZGluZycsICctaW1hZScsICc8aW5maWxlLm1hZT4nLCAnLW9tYWUnLCAnPG91dGZpbGUubWFlPic=

> <r_epik_Ionization_Penalty>
1.7979

> <r_epik_Ionization_Penalty_Charging>
3.23819e-08

> <r_epik_Ionization_Penalty_Neutral>
1.7979

> <r_epik_State_Penalty>
1.91135

> <r_epik_Charging_Adjusted_Penalty>
1.91135

> <i_epik_Tot_Q>
-1

> <i_epik_Tot_abs_Q>
1

> <r_epik_Metal_State_Penalty>
0.014155

> <b_epik_Metal_Only>
0

> <s_lp_Force_Field>
OPLS_2005

> <r_lp_Energy>
20.3663

> <b_lp_Chiralities_Consistent>
1

> <s_lp_Variant>
AV-unprocessed.smi:649-4

> <Gold.Version>
5.8.1

> <Gold.Id.Protein>
6NUR|6NUR_protein|mol2

> <Gold.PLP.Fitness>
50.1248

> <Gold.PLP.PLP>
-45.4008

> <Gold.PLP.part.hbond>
-1.0000

> <Gold.PLP.part.metal>
0.0000

> <Gold.PLP.part.buried>
-5.2228

> <Gold.PLP.part.nonpolar>
-40.3020

> <Gold.PLP.part.repulsive>
1.5901

> <Gold.PLP.ligand.clash>
0.4275

> <Gold.PLP.ligand.torsion>
0.4615

> <Gold.PLP.Chemscore.Hbond>
1.0000

> <Gold.PLP.Chemscore.CHOScore>
1.0000

> <Gold.PLP.Chemscore.Metal>
0.0000

> <Gold.Chemscore.Hbonds>
donor molecule, donor type, donor heavy atom, donor atom, acceptor molecule, acceptor atom, score
      L1  H     9    30       P1  8028  1.00
      L1  C    12    33       P1  8028  1.00

> <Gold.PLP.Chemscore.Internal.Correction>
0.0745

> <Gold.Rescore>
     Score         DG    S(hbond)    S(metal)    S(lipo)     H(rot)  DE(clash)    DE(int)     intcor
     16.45     -17.11       1.00        0.00     116.60       2.09       0.34       0.33       ----

> <Gold.Chemscore.Fitness>
16.4455

> <Gold.Chemscore.DG>
-17.1113

> <Gold.Chemscore.ZeroCoef>
-5.4800

> <Gold.Chemscore.Hbond>
0.9974

> <Gold.Chemscore.Metal>
0.0000

> <Gold.Chemscore.Lipo>
116.6008

> <Gold.Chemscore.Internal_Hbond>
0.0000

> <Gold.Chemscore.DEClash>
0.3405

> <Gold.Chemscore.DEInternal>
0.3253

> <Gold.Chemscore.Rot>
2.0868

> <Gold.Chemscore.Internal.Correction>
   9.000000E+99

> <Gold.Chemscore.Hbonds>
donor molecule, donor type, donor heavy atom, donor atom, acceptor molecule, acceptor atom, score
      L1  H     9    30       P1  8028  0.96

> <Gold.Chemscore.Hbond.Weighted>
-3.3313

> <Gold.Chemscore.Metal.Weighted>
-0.0000

> <Gold.Chemscore.Lipo.Weighted>
-13.6423

> <Gold.Chemscore.Internal_Hbond.Weighted>
0.0000

> <Gold.Chemscore.DEClash.Weighted>
0.3405

> <Gold.Chemscore.DEInternal.Weighted>
0.3253

> <Gold.Chemscore.Rot.Weighted>
5.3423

> <Gold.Chemscore.Internal.Correction.Weighted>
   9.000000E+99

> <Gold.Protein.RotatedTorsions>
[ 6907 6896 6895 6894 ] final  -16.47 input  -60.11 | X-H torsion
[ 7974 7965 7964 7962 ] final   92.75 input  175.53 | X-H torsion
[ 8008 7997 7996 7995 ] final  -90.30 input   59.86 | X-H torsion
[ 10167 10162 10161 10158 ] final  160.65 input  -65.29 | X-H torsion
[ 10718 10713 10712 10709 ] final  -42.74 input   66.30 | X-H torsion
[ 10763 10752 10751 10750 ] final  155.39 input  -60.55 | X-H torsion
[ 11005 11000 10999 10996 ] final  -33.79 input  -57.11 | X-H torsion

> <Gold.Protein.ActiveResidues>
 VAL166  LYS551  ARG553  GLY616  TRP617  ASP618  TYR619  PRO620  LYS621  CYS622 
 ASP623  PHE694  ASN695  SER759  ASP760  ASP761  ALA762  ILE779  LEU786  VAL792 
 PHE793  MET794  SER795  GLU796  ALA797  LYS798  CYS799  TRP800  GLU811  SER814 

> <Gold.Protein.RotatedAtoms>
  151.3080  135.0787  159.9262 H   0  0  0  0  0  0  0  0  0  0  0  0  # atno 6907 bound_to 6896
  152.5283  133.9765  159.7796 H   0  0  0  0  0  0  0  0  0  0  0  0  # atno 6908 bound_to 6896
  151.0063  133.5956  159.2718 H   0  0  0  0  0  0  0  0  0  0  0  0  # atno 6909 bound_to 6896
  145.4881  139.2277  143.2845 H   0  0  0  0  0  0  0  0  0  0  0  0  # atno 7974 bound_to 7965
  154.6968  140.0532  157.0419 H   0  0  0  0  0  0  0  0  0  0  0  0  # atno 8008 bound_to 7997
  155.0739  140.3202  155.4603 H   0  0  0  0  0  0  0  0  0  0  0  0  # atno 8009 bound_to 7997
  156.2747  140.2077  156.5867 H   0  0  0  0  0  0  0  0  0  0  0  0  # atno 8010 bound_to 7997
  139.4842  144.4613  151.8701 H   0  0  0  0  0  0  0  0  0  0  0  0  # atno 10167 bound_to 10162
  156.2564  130.4193  149.8591 H   0  0  0  0  0  0  0  0  0  0  0  0  # atno 10718 bound_to 10713
  154.1676  135.2806  155.3090 H   0  0  0  0  0  0  0  0  0  0  0  0  # atno 10763 bound_to 10752
  154.6099  135.5502  153.7466 H   0  0  0  0  0  0  0  0  0  0  0  0  # atno 10764 bound_to 10752
  153.0174  135.6413  154.1817 H   0  0  0  0  0  0  0  0  0  0  0  0  # atno 10765 bound_to 10752
  140.9663  133.7135  156.1451 H   0  0  0  0  0  0  0  0  0  0  0  0  # atno 11005 bound_to 11000
  146.2300  140.5673  142.8979 LP  0  0  0  0  0  0  0  0  0  0  0  0  # atno 17320 bound_to 7965
  144.7849  140.5917  143.6580 LP  0  0  0  0  0  0  0  0  0  0  0  0  # atno 17321 bound_to 7965
  140.4075  144.2412  150.5890 LP  0  0  0  0  0  0  0  0  0  0  0  0  # atno 17342 bound_to 10162
  140.4998  143.2321  151.8696 LP  0  0  0  0  0  0  0  0  0  0  0  0  # atno 17343 bound_to 10162
  156.6122  130.8591  151.3457 LP  0  0  0  0  0  0  0  0  0  0  0  0  # atno 17370 bound_to 10713
  157.7234  130.9589  150.1533 LP  0  0  0  0  0  0  0  0  0  0  0  0  # atno 17371 bound_to 10713
  140.7394  134.4167  157.5556 LP  0  0  0  0  0  0  0  0  0  0  0  0  # atno 17394 bound_to 11000
  139.8896  134.8826  156.2413 LP  0  0  0  0  0  0  0  0  0  0  0  0  # atno 17395 bound_to 11000

$$$$
