AV-unprocessed.smi:759|AV-procd|sdf|3621|dock2
  -GOLD-   22720 1 13D 1   1.00000     0.00000
 Structure written by MMmdl.
 24 25  0  0  0  0  0  0  0  0  2 V2000
  151.3618  141.3349  157.4681 C   0  0  0  0  0  0  0  0  0  0  0  0
  150.9745  142.5972  157.2970 N   0  0  0  0  0  0  0  0  0  0  0  0
  150.1907  142.5070  156.2024 N   0  0  0  0  0  0  0  0  0  0  0  0
  150.1543  141.2387  155.7879 C   0  0  0  0  0  0  0  0  0  0  0  0
  149.3628  140.8097  154.5903 C   0  0  2  0  0  0  0  0  0  0  0  0
  147.8886  141.2474  154.6847 C   0  0  0  0  0  0  0  0  0  0  0  0
  147.1077  140.7802  153.4465 C   0  0  0  0  0  0  0  0  0  0  0  0
  147.2631  139.2648  153.2371 C   0  0  0  0  0  0  0  0  0  0  0  0
  148.6921  138.8937  153.1462 N   0  3  0  0  0  0  0  0  0  0  0  0
  149.4705  139.2911  154.3402 C   0  0  0  0  0  0  0  0  0  0  0  0
  150.8827  140.4353  156.5572 N   0  0  0  0  0  0  0  0  0  0  0  0
  152.0156  141.0502  158.2795 H   0  0  0  0  0  0  0  0  0  0  0  0
  149.7959  141.3126  153.7236 H   0  0  0  0  0  0  0  0  0  0  0  0
  147.4309  140.8279  155.5819 H   0  0  0  0  0  0  0  0  0  0  0  0
  147.8216  142.3319  154.7788 H   0  0  0  0  0  0  0  0  0  0  0  0
  146.0531  141.0365  153.5527 H   0  0  0  0  0  0  0  0  0  0  0  0
  147.4677  141.3112  152.5643 H   0  0  0  0  0  0  0  0  0  0  0  0
  146.8004  138.7174  154.0598 H   0  0  0  0  0  0  0  0  0  0  0  0
  146.7562  138.9549  152.3230 H   0  0  0  0  0  0  0  0  0  0  0  0
  148.7641  137.8932  153.0266 H   0  0  0  0  0  0  0  0  0  0  0  0
  150.5116  139.0031  154.1921 H   0  0  0  0  0  0  0  0  0  0  0  0
  149.1051  138.7319  155.2031 H   0  0  0  0  0  0  0  0  0  0  0  0
  149.0906  139.3477  152.3369 H   0  0  0  0  0  0  0  0  0  0  0  0
  149.7220  143.3032  155.7941 H   0  0  0  0  0  0  0  0  0  0  0  0
  1 11  1  0  0  0  0
  1 12  1  0  0  0  0
  1  2  2  0  0  0  0
  2  3  1  0  0  0  0
  3  4  1  0  0  0  0
  3 24  1  0  0  0  0
  4 11  2  0  0  0  0
  4  5  1  0  0  0  0
  5 10  1  0  0  0  0
  5  6  1  0  0  0  0
  5 13  1  0  0  0  0
  6  7  1  0  0  0  0
  6 14  1  0  0  0  0
  6 15  1  0  0  0  0
  7  8  1  0  0  0  0
  7 16  1  0  0  0  0
  7 17  1  0  0  0  0
  8  9  1  0  0  0  0
  8 18  1  0  0  0  0
  8 19  1  0  0  0  0
  9 10  1  0  0  0  0
  9 20  1  0  0  0  0
  9 23  1  0  0  0  0
 10 21  1  0  0  0  0
 10 22  1  0  0  0  0
M  CHG  1   9   1
M  END
> <s_m_source_file>
AV-unprocessed.smi

> <i_m_source_file_index>
759

> <i_lp_mmshare_version>
43012

> <i_f3d_flags>
0

> <s_epik_input>
W25IXTFbY0hdbm5jMVtDQEBIXTJbQ0gyXVtDSDJdW0NIMl1bTkhdW0NIMl0y

> <s_epik_cmdline>
J2VwaWtfcHl0aG9uJywgJy1waCcsICc3LjAnLCAnLXRuJywgJzgnLCAnLW1hJywgJzIwMCcsICctbWV0YWxfYmluZGluZycsICctaW1hZScsICc8aW5maWxlLm1hZT4nLCAnLW9tYWUnLCAnPG91dGZpbGUubWFlPic=

> <r_epik_Ionization_Penalty>
0.00885924

> <r_epik_Ionization_Penalty_Charging>
0.000426856

> <r_epik_Ionization_Penalty_Neutral>
0.00843239

> <r_epik_State_Penalty>
0.640618

> <r_epik_Charging_Adjusted_Penalty>
0.641045

> <i_epik_Tot_Q>
1

> <i_epik_Tot_abs_Q>
1

> <r_epik_Metal_State_Penalty>
0.906339

> <b_epik_Metal_Only>
0

> <s_lp_Force_Field>
OPLS_2005

> <r_lp_Energy>
13.0828

> <b_lp_Chiralities_Consistent>
1

> <s_lp_Variant>
AV-unprocessed.smi:759-3

> <Gold.Version>
5.8.1

> <Gold.Id.Protein>
6NUR|6NUR_protein|mol2

> <Gold.PLP.Fitness>
32.9988

> <Gold.PLP.PLP>
-21.5597

> <Gold.PLP.part.hbond>
-2.7919

> <Gold.PLP.part.metal>
0.0000

> <Gold.PLP.part.buried>
-3.8494

> <Gold.PLP.part.nonpolar>
-16.2350

> <Gold.PLP.part.repulsive>
0.3125

> <Gold.PLP.ligand.clash>
0.0000

> <Gold.PLP.ligand.torsion>
0.0381

> <Gold.PLP.Chemscore.Hbond>
3.8288

> <Gold.PLP.Chemscore.CHOScore>
0.0000

> <Gold.PLP.Chemscore.Metal>
0.0000

> <Gold.Chemscore.Hbonds>
donor molecule, donor type, donor heavy atom, donor atom, acceptor molecule, acceptor atom, score
      L1  H     3    24       P1  8028  1.00
      L1  H     9    20       P1  7948  2.00
      L1  H     9    23       P1  7957  0.80

> <Gold.PLP.Chemscore.Internal.Correction>
0.0290

> <Gold.Rescore>
     Score         DG    S(hbond)    S(metal)    S(lipo)     H(rot)  DE(clash)    DE(int)     intcor
     16.46     -16.49       2.90        0.00      33.23       1.00       0.00       0.02       ----

> <Gold.Chemscore.Fitness>
16.4646

> <Gold.Chemscore.DG>
-16.4893

> <Gold.Chemscore.ZeroCoef>
-5.4800

> <Gold.Chemscore.Hbond>
2.8985

> <Gold.Chemscore.Metal>
0.0000

> <Gold.Chemscore.Lipo>
33.2340

> <Gold.Chemscore.Internal_Hbond>
0.0000

> <Gold.Chemscore.DEClash>
0.0000

> <Gold.Chemscore.DEInternal>
0.0247

> <Gold.Chemscore.Rot>
1.0000

> <Gold.Chemscore.Internal.Correction>
   9.000000E+99

> <Gold.Chemscore.Hbonds>
donor molecule, donor type, donor heavy atom, donor atom, acceptor molecule, acceptor atom, score
      L1  H     3    24       P1  8028  0.99
      L1  H     9    20       P1  7948  0.90
      L1  H     9    23       P1  7957  0.79

> <Gold.Chemscore.Hbond.Weighted>
-9.6809

> <Gold.Chemscore.Metal.Weighted>
-0.0000

> <Gold.Chemscore.Lipo.Weighted>
-3.8884

> <Gold.Chemscore.Internal_Hbond.Weighted>
0.0000

> <Gold.Chemscore.DEClash.Weighted>
0.0000

> <Gold.Chemscore.DEInternal.Weighted>
0.0247

> <Gold.Chemscore.Rot.Weighted>
2.5600

> <Gold.Chemscore.Internal.Correction.Weighted>
   9.000000E+99

> <Gold.Protein.RotatedTorsions>
[ 6907 6896 6895 6894 ] final  -50.51 input  -60.11 | X-H torsion
[ 7974 7965 7964 7962 ] final -161.38 input  175.53 | X-H torsion
[ 8008 7997 7996 7995 ] final  -65.63 input   59.86 | X-H torsion
[ 10167 10162 10161 10158 ] final -155.85 input  -65.29 | X-H torsion
[ 10718 10713 10712 10709 ] final  -69.07 input   66.30 | X-H torsion
[ 10763 10752 10751 10750 ] final   51.60 input  -60.55 | X-H torsion
[ 11005 11000 10999 10996 ] final   47.07 input  -57.11 | X-H torsion

> <Gold.Protein.ActiveResidues>
 VAL166  LYS551  ARG553  GLY616  TRP617  ASP618  TYR619  PRO620  LYS621  CYS622 
 ASP623  PHE694  ASN695  SER759  ASP760  ASP761  ALA762  ILE779  LEU786  VAL792 
 PHE793  MET794  SER795  GLU796  ALA797  LYS798  CYS799  TRP800  GLU811  SER814 

> <Gold.Protein.RotatedAtoms>
  150.8700  134.8072  159.7147 H   0  0  0  0  0  0  0  0  0  0  0  0  # atno 6907 bound_to 6896
  152.4708  134.4961  159.9720 H   0  0  0  0  0  0  0  0  0  0  0  0  # atno 6908 bound_to 6896
  151.5051  133.3458  159.2911 H   0  0  0  0  0  0  0  0  0  0  0  0  # atno 6909 bound_to 6896
  144.7393  140.3406  143.6135 H   0  0  0  0  0  0  0  0  0  0  0  0  # atno 7974 bound_to 7965
  154.4684  140.0929  156.7080 H   0  0  0  0  0  0  0  0  0  0  0  0  # atno 8008 bound_to 7997
  155.4794  140.3467  155.4319 H   0  0  0  0  0  0  0  0  0  0  0  0  # atno 8009 bound_to 7997
  156.0996  140.1418  156.9473 H   0  0  0  0  0  0  0  0  0  0  0  0  # atno 8010 bound_to 7997
  139.6898  143.9440  152.2379 H   0  0  0  0  0  0  0  0  0  0  0  0  # atno 10167 bound_to 10162
  156.0473  130.4306  150.2094 H   0  0  0  0  0  0  0  0  0  0  0  0  # atno 10718 bound_to 10713
  152.9786  135.5840  154.4441 H   0  0  0  0  0  0  0  0  0  0  0  0  # atno 10763 bound_to 10752
  154.4039  135.2769  155.2081 H   0  0  0  0  0  0  0  0  0  0  0  0  # atno 10764 bound_to 10752
  154.3901  135.6127  153.5892 H   0  0  0  0  0  0  0  0  0  0  0  0  # atno 10765 bound_to 10752
  140.1312  134.4703  155.8520 H   0  0  0  0  0  0  0  0  0  0  0  0  # atno 11005 bound_to 11000
  145.7378  139.1755  143.2393 LP  0  0  0  0  0  0  0  0  0  0  0  0  # atno 17320 bound_to 7965
  146.1157  140.7373  142.9482 LP  0  0  0  0  0  0  0  0  0  0  0  0  # atno 17321 bound_to 7965
  139.9253  144.6775  150.8419 LP  0  0  0  0  0  0  0  0  0  0  0  0  # atno 17342 bound_to 10162
  140.7679  143.3346  151.2336 LP  0  0  0  0  0  0  0  0  0  0  0  0  # atno 17343 bound_to 10162
  157.0182  130.9971  151.3347 LP  0  0  0  0  0  0  0  0  0  0  0  0  # atno 17370 bound_to 10713
  157.5363  130.8090  149.7975 LP  0  0  0  0  0  0  0  0  0  0  0  0  # atno 17371 bound_to 10713
  141.2170  133.6796  156.7072 LP  0  0  0  0  0  0  0  0  0  0  0  0  # atno 17394 bound_to 11000
  140.2840  134.8294  157.3958 LP  0  0  0  0  0  0  0  0  0  0  0  0  # atno 17395 bound_to 11000

$$$$
