AV-unprocessed.smi:680|AV-procd|sdf|3323|dock7
  -GOLD-   22720 0293D 1   1.00000     0.00000
 Structure written by MMmdl.
 32 33  0  0  0  0  0  0  0  0  1 V2000
  150.4349  142.0820  156.0696 C   0  0  0  0  0  0  0  0  0  0  0  0
  150.1193  140.8583  155.2613 C   0  0  0  0  0  0  0  0  0  0  0  0
  148.8742  140.4748  154.6899 C   0  0  0  0  0  0  0  0  0  0  0  0
  149.1756  139.2898  154.0733 C   0  0  0  0  0  0  0  0  0  0  0  0
  148.3552  138.4766  153.3583 N   0  0  0  0  0  0  0  0  0  0  0  0
  147.0109  138.4368  153.3408 C   0  0  0  0  0  0  0  0  0  0  0  0
  146.2663  139.1646  153.9976 O   0  0  0  0  0  0  0  0  0  0  0  0
  146.5688  137.4834  152.5076 N   0  0  0  0  0  0  0  0  0  0  0  0
  145.1678  137.1487  152.2638 C   0  0  0  0  0  0  0  0  0  0  0  0
  144.9701  135.6345  152.0581 C   0  0  2  0  0  0  0  0  0  0  0  0
  145.7757  135.1342  150.8453 C   0  0  0  0  0  0  0  0  0  0  0  0
  145.8684  133.3226  150.7791 S   0  0  0  0  0  0  0  0  0  0  0  0
  144.1078  132.9263  150.6026 C   0  0  0  0  0  0  0  0  0  0  0  0
  143.2886  133.4208  151.8008 C   0  0  0  0  0  0  0  0  0  0  0  0
  143.2047  135.2319  151.8620 S   0  0  0  0  0  0  0  0  0  0  0  0
  150.4812  138.9676  154.2405 O   0  0  0  0  0  0  0  0  0  0  0  0
  151.0760  139.9782  155.0050 N   0  0  0  0  0  0  0  0  0  0  0  0
  149.5514  142.7079  156.1967 H   0  0  0  0  0  0  0  0  0  0  0  0
  151.2016  142.6862  155.5842 H   0  0  0  0  0  0  0  0  0  0  0  0
  150.7979  141.8150  157.0625 H   0  0  0  0  0  0  0  0  0  0  0  0
  147.9308  140.9974  154.7351 H   0  0  0  0  0  0  0  0  0  0  0  0
  148.8258  137.8039  152.7711 H   0  0  0  0  0  0  0  0  0  0  0  0
  147.2556  136.9348  152.0111 H   0  0  0  0  0  0  0  0  0  0  0  0
  144.5188  137.5073  153.0647 H   0  0  0  0  0  0  0  0  0  0  0  0
  144.8629  137.6854  151.3651 H   0  0  0  0  0  0  0  0  0  0  0  0
  145.3316  135.1204  152.9498 H   0  0  0  0  0  0  0  0  0  0  0  0
  145.3494  135.5109  149.9148 H   0  0  0  0  0  0  0  0  0  0  0  0
  146.7990  135.5069  150.8960 H   0  0  0  0  0  0  0  0  0  0  0  0
  143.7303  133.3561  149.6743 H   0  0  0  0  0  0  0  0  0  0  0  0
  144.0126  131.8440  150.5132 H   0  0  0  0  0  0  0  0  0  0  0  0
  142.2700  133.0391  151.7311 H   0  0  0  0  0  0  0  0  0  0  0  0
  143.7051  133.0444  152.7356 H   0  0  0  0  0  0  0  0  0  0  0  0
  1  2  1  0  0  0  0
  1 18  1  0  0  0  0
  1 19  1  0  0  0  0
  1 20  1  0  0  0  0
  2 17  2  0  0  0  0
  2  3  1  0  0  0  0
  3  4  2  0  0  0  0
  3 21  1  0  0  0  0
  4  5  1  0  0  0  0
  4 16  1  0  0  0  0
  5  6  1  0  0  0  0
  5 22  1  0  0  0  0
  6  7  2  0  0  0  0
  6  8  1  0  0  0  0
  8  9  1  0  0  0  0
  8 23  1  0  0  0  0
  9 10  1  0  0  0  0
  9 24  1  0  0  0  0
  9 25  1  0  0  0  0
 10 15  1  0  0  0  0
 10 11  1  0  0  0  0
 10 26  1  0  0  0  0
 11 12  1  0  0  0  0
 11 27  1  0  0  0  0
 11 28  1  0  0  0  0
 12 13  1  0  0  0  0
 13 14  1  0  0  0  0
 13 29  1  0  0  0  0
 13 30  1  0  0  0  0
 14 15  1  0  0  0  0
 14 31  1  0  0  0  0
 14 32  1  0  0  0  0
 16 17  1  0  0  0  0
M  END
> <s_m_source_file>
AV-unprocessed.smi

> <i_m_source_file_index>
680

> <i_lp_mmshare_version>
43012

> <i_f3d_flags>
0

> <s_epik_input>
W0NIM11jMVtjSF1jKG9uMSlbTkhdQyg9TylbTkhdW0NIMl1bQ0BASF0yW0NIMl1TW0NIMl1bQ0gyXVMy

> <s_epik_cmdline>
J2VwaWtfcHl0aG9uJywgJy1waCcsICc3LjAnLCAnLXRuJywgJzgnLCAnLW1hJywgJzIwMCcsICctbWV0YWxfYmluZGluZycsICctaW1hZScsICc8aW5maWxlLm1hZT4nLCAnLW9tYWUnLCAnPG91dGZpbGUubWFlPic=

> <r_epik_Ionization_Penalty>
0.000554698

> <r_epik_Ionization_Penalty_Charging>
0

> <r_epik_Ionization_Penalty_Neutral>
0.000554698

> <r_epik_State_Penalty>
0.000333438

> <r_epik_Charging_Adjusted_Penalty>
0.000333438

> <i_epik_Tot_Q>
0

> <i_epik_Tot_abs_Q>
0

> <r_epik_Metal_State_Penalty>
-0

> <b_epik_Metal_Only>
0

> <s_lp_Force_Field>
OPLS_2005

> <r_lp_Energy>
4.32293

> <b_lp_Chiralities_Consistent>
1

> <s_lp_Variant>
AV-unprocessed.smi:680-1

> <Gold.Version>
5.8.1

> <Gold.Id.Protein>
6NUR|6NUR_protein|mol2

> <Gold.PLP.Fitness>
37.0854

> <Gold.PLP.PLP>
-29.8837

> <Gold.PLP.part.hbond>
-4.4006

> <Gold.PLP.part.metal>
0.0000

> <Gold.PLP.part.buried>
-2.1559

> <Gold.PLP.part.nonpolar>
-23.8516

> <Gold.PLP.part.repulsive>
0.4609

> <Gold.PLP.ligand.clash>
0.0000

> <Gold.PLP.ligand.torsion>
0.2407

> <Gold.PLP.Chemscore.Hbond>
2.5600

> <Gold.PLP.Chemscore.CHOScore>
0.0000

> <Gold.PLP.Chemscore.Metal>
0.0000

> <Gold.Chemscore.Hbonds>
donor molecule, donor type, donor heavy atom, donor atom, acceptor molecule, acceptor atom, score
      L1  H     5    22       P1  7948  1.00
      L1  H     8    23       P1  7948  1.00
      P1  H  7989  7998       L1    17  0.39

> <Gold.PLP.Chemscore.Internal.Correction>
0.0030

> <Gold.Rescore>
     Score         DG    S(hbond)    S(metal)    S(lipo)     H(rot)  DE(clash)    DE(int)     intcor
     15.88     -16.35       1.92        0.00      65.67       1.26       0.06       0.41       ----

> <Gold.Chemscore.Fitness>
15.8845

> <Gold.Chemscore.DG>
-16.3489

> <Gold.Chemscore.ZeroCoef>
-5.4800

> <Gold.Chemscore.Hbond>
1.9187

> <Gold.Chemscore.Metal>
0.0000

> <Gold.Chemscore.Lipo>
65.6728

> <Gold.Chemscore.Internal_Hbond>
0.0000

> <Gold.Chemscore.DEClash>
0.0574

> <Gold.Chemscore.DEInternal>
0.4070

> <Gold.Chemscore.Rot>
1.2590

> <Gold.Chemscore.Internal.Correction>
   9.000000E+99

> <Gold.Chemscore.Hbonds>
donor molecule, donor type, donor heavy atom, donor atom, acceptor molecule, acceptor atom, score
      L1  H     5    22       P1  7948  0.99
      L1  H     8    23       P1  7948  0.96

> <Gold.Chemscore.Hbond.Weighted>
-6.4083

> <Gold.Chemscore.Metal.Weighted>
-0.0000

> <Gold.Chemscore.Lipo.Weighted>
-7.6837

> <Gold.Chemscore.Internal_Hbond.Weighted>
0.0000

> <Gold.Chemscore.DEClash.Weighted>
0.0574

> <Gold.Chemscore.DEInternal.Weighted>
0.4070

> <Gold.Chemscore.Rot.Weighted>
3.2232

> <Gold.Chemscore.Internal.Correction.Weighted>
   9.000000E+99

> <Gold.Protein.RotatedTorsions>
[ 6907 6896 6895 6894 ] final -173.71 input  -60.11 | X-H torsion
[ 7974 7965 7964 7962 ] final   24.95 input  175.53 | X-H torsion
[ 8008 7997 7996 7995 ] final  -70.10 input   59.86 | X-H torsion
[ 10167 10162 10161 10158 ] final  -19.63 input  -65.29 | X-H torsion
[ 10718 10713 10712 10709 ] final  120.97 input   66.30 | X-H torsion
[ 10763 10752 10751 10750 ] final  -77.71 input  -60.55 | X-H torsion
[ 11005 11000 10999 10996 ] final   53.93 input  -57.11 | X-H torsion

> <Gold.Protein.ActiveResidues>
 VAL166  LYS551  ARG553  GLY616  TRP617  ASP618  TYR619  PRO620  LYS621  CYS622 
 ASP623  PHE694  ASN695  SER759  ASP760  ASP761  ALA762  ILE779  LEU786  VAL792 
 PHE793  MET794  SER795  GLU796  ALA797  LYS798  CYS799  TRP800  GLU811  SER814 

> <Gold.Protein.RotatedAtoms>
  151.5605  133.3404  159.2969 H   0  0  0  0  0  0  0  0  0  0  0  0  # atno 6907 bound_to 6896
  150.8425  134.7725  159.6955 H   0  0  0  0  0  0  0  0  0  0  0  0  # atno 6908 bound_to 6896
  152.4490  134.5441  159.9899 H   0  0  0  0  0  0  0  0  0  0  0  0  # atno 6909 bound_to 6896
  146.1913  139.7534  142.8830 H   0  0  0  0  0  0  0  0  0  0  0  0  # atno 7974 bound_to 7965
  154.4987  140.0841  156.7752 H   0  0  0  0  0  0  0  0  0  0  0  0  # atno 8008 bound_to 7997
  155.4054  140.3439  155.4241 H   0  0  0  0  0  0  0  0  0  0  0  0  # atno 8009 bound_to 7997
  156.1428  140.1534  156.8881 H   0  0  0  0  0  0  0  0  0  0  0  0  # atno 8010 bound_to 7997
  140.7270  143.4800  151.0130 H   0  0  0  0  0  0  0  0  0  0  0  0  # atno 10167 bound_to 10162
  157.5852  131.1070  150.8109 H   0  0  0  0  0  0  0  0  0  0  0  0  # atno 10718 bound_to 10713
  154.5164  135.5755  153.6646 H   0  0  0  0  0  0  0  0  0  0  0  0  # atno 10763 bound_to 10752
  152.9908  135.6171  154.2811 H   0  0  0  0  0  0  0  0  0  0  0  0  # atno 10764 bound_to 10752
  154.2729  135.2853  155.2710 H   0  0  0  0  0  0  0  0  0  0  0  0  # atno 10765 bound_to 10752
  140.0727  134.5447  155.9029 H   0  0  0  0  0  0  0  0  0  0  0  0  # atno 11005 bound_to 11000
  145.3784  141.0354  143.3191 LP  0  0  0  0  0  0  0  0  0  0  0  0  # atno 17320 bound_to 7965
  144.8492  139.5349  143.6864 LP  0  0  0  0  0  0  0  0  0  0  0  0  # atno 17321 bound_to 7965
  139.8498  143.7453  152.3178 LP  0  0  0  0  0  0  0  0  0  0  0  0  # atno 17342 bound_to 10162
  139.7631  144.7500  151.0334 LP  0  0  0  0  0  0  0  0  0  0  0  0  # atno 17343 bound_to 10162
  156.8545  130.5092  149.5309 LP  0  0  0  0  0  0  0  0  0  0  0  0  # atno 17370 bound_to 10713
  156.0900  130.5888  150.9717 LP  0  0  0  0  0  0  0  0  0  0  0  0  # atno 17371 bound_to 10713
  141.2018  133.6621  156.5971 LP  0  0  0  0  0  0  0  0  0  0  0  0  # atno 17394 bound_to 11000
  140.3603  134.7693  157.4529 LP  0  0  0  0  0  0  0  0  0  0  0  0  # atno 17395 bound_to 11000

$$$$
