AV-unprocessed.smi:1567|AV-procd|sdf|6306|dock3
  -GOLD-   22720 6503D 1   1.00000     0.00000
 Structure written by MMmdl.
 42 44  0  0  0  0  0  0  0  0  1 V2000
  150.4585  137.7697  153.5408 O   0  0  0  0  0  0  0  0  0  0  0  0
  150.7899  137.1591  154.7696 C   0  0  0  0  0  0  0  0  0  0  0  0
  150.9312  138.2135  155.8764 C   0  0  0  0  0  0  0  0  0  0  0  0
  151.7274  139.4548  155.4395 C   0  0  0  0  0  0  0  0  0  0  0  0
  151.8555  140.4756  156.5353 C   0  0  0  0  0  0  0  0  0  0  0  0
  152.6064  140.2237  157.6091 N   0  0  0  0  0  0  0  0  0  0  0  0
  152.4701  141.3727  158.3601 C   0  0  0  0  0  0  0  0  0  0  0  0
  153.0342  141.7273  159.6063 C   0  0  0  0  0  0  0  0  0  0  0  0
  152.7428  142.9768  160.1914 C   0  0  0  0  0  0  0  0  0  0  0  0
  151.8836  143.8857  159.5409 C   0  0  0  0  0  0  0  0  0  0  0  0
  151.3104  143.5505  158.2991 C   0  0  0  0  0  0  0  0  0  0  0  0
  151.6071  142.3028  157.7176 C   0  0  0  0  0  0  0  0  0  0  0  0
  151.2174  141.6786  156.5355 N   0  0  0  0  0  0  0  0  0  0  0  0
  150.2986  142.2519  155.5573 C   0  0  0  0  0  0  0  0  0  0  0  0
  149.3376  141.2075  154.9555 C   0  0  2  0  0  0  0  0  0  0  0  0
  149.7726  140.9232  153.6414 O   0  0  0  0  0  0  0  0  0  0  0  0
  147.8798  141.6494  154.9900 C   0  0  0  0  0  0  0  0  0  0  0  0
  147.4076  142.6105  154.0684 C   0  0  0  0  0  0  0  0  0  0  0  0
  146.0587  143.0138  154.0874 C   0  0  0  0  0  0  0  0  0  0  0  0
  145.6164  143.9383  153.2027 F   0  0  0  0  0  0  0  0  0  0  0  0
  145.1711  142.4587  155.0283 C   0  0  0  0  0  0  0  0  0  0  0  0
  145.6360  141.5052  155.9541 C   0  0  0  0  0  0  0  0  0  0  0  0
  146.9860  141.1029  155.9393 C   0  0  0  0  0  0  0  0  0  0  0  0
  147.4163  140.1906  156.8436 F   0  0  0  0  0  0  0  0  0  0  0  0
  149.7508  137.2853  153.1437 H   0  0  0  0  0  0  0  0  0  0  0  0
  150.0009  136.4520  155.0269 H   0  0  0  0  0  0  0  0  0  0  0  0
  151.7105  136.5862  154.6566 H   0  0  0  0  0  0  0  0  0  0  0  0
  149.9446  138.5054  156.2386 H   0  0  0  0  0  0  0  0  0  0  0  0
  151.4365  137.7548  156.7246 H   0  0  0  0  0  0  0  0  0  0  0  0
  152.7030  139.1360  155.0828 H   0  0  0  0  0  0  0  0  0  0  0  0
  151.2375  139.9299  154.5891 H   0  0  0  0  0  0  0  0  0  0  0  0
  153.6919  141.0366  160.1129 H   0  0  0  0  0  0  0  0  0  0  0  0
  153.1796  143.2381  161.1440 H   0  0  0  0  0  0  0  0  0  0  0  0
  151.6644  144.8403  159.9962 H   0  0  0  0  0  0  0  0  0  0  0  0
  150.6516  144.2448  157.7993 H   0  0  0  0  0  0  0  0  0  0  0  0
  149.7562  143.0963  155.9763 H   0  0  0  0  0  0  0  0  0  0  0  0
  150.9089  142.6772  154.7593 H   0  0  0  0  0  0  0  0  0  0  0  0
  149.4402  140.2742  155.5095 H   0  0  0  0  0  0  0  0  0  0  0  0
  149.2304  140.2339  153.2892 H   0  0  0  0  0  0  0  0  0  0  0  0
  148.0807  143.0429  153.3426 H   0  0  0  0  0  0  0  0  0  0  0  0
  144.1364  142.7678  155.0439 H   0  0  0  0  0  0  0  0  0  0  0  0
  144.9565  141.0842  156.6802 H   0  0  0  0  0  0  0  0  0  0  0  0
  1  2  1  0  0  0  0
  1 25  1  0  0  0  0
  2  3  1  0  0  0  0
  2 26  1  0  0  0  0
  2 27  1  0  0  0  0
  3  4  1  0  0  0  0
  3 28  1  0  0  0  0
  3 29  1  0  0  0  0
  4  5  1  0  0  0  0
  4 30  1  0  0  0  0
  4 31  1  0  0  0  0
  5 13  1  0  0  0  0
  5  6  2  0  0  0  0
  6  7  1  0  0  0  0
  7 12  2  0  0  0  0
  7  8  1  0  0  0  0
  8  9  2  0  0  0  0
  8 32  1  0  0  0  0
  9 10  1  0  0  0  0
  9 33  1  0  0  0  0
 10 11  2  0  0  0  0
 10 34  1  0  0  0  0
 11 12  1  0  0  0  0
 11 35  1  0  0  0  0
 12 13  1  0  0  0  0
 13 14  1  0  0  0  0
 14 15  1  0  0  0  0
 14 36  1  0  0  0  0
 14 37  1  0  0  0  0
 15 16  1  0  0  0  0
 15 17  1  0  0  0  0
 15 38  1  0  0  0  0
 16 39  1  0  0  0  0
 17 23  1  0  0  0  0
 17 18  2  0  0  0  0
 18 19  1  0  0  0  0
 18 40  1  0  0  0  0
 19 20  1  0  0  0  0
 19 21  2  0  0  0  0
 21 22  1  0  0  0  0
 21 41  1  0  0  0  0
 22 23  2  0  0  0  0
 22 42  1  0  0  0  0
 23 24  1  0  0  0  0
M  END
> <s_m_source_file>
AV-unprocessed.smi

> <i_m_source_file_index>
1567

> <i_lp_mmshare_version>
43012

> <i_f3d_flags>
0

> <s_epik_input>
W09IXVtDSDJdW0NIMl1bQ0gyXWMobjEpbihjKGMxMilbY0hdW2NIXVtjSF1bY0hdMilbQ0gyXVtDQEhdKFtPSF0pYzNbY0hdYyhGKVtjSF1bY0hdYzNG

> <s_epik_cmdline>
J2VwaWtfcHl0aG9uJywgJy1waCcsICc3LjAnLCAnLXRuJywgJzgnLCAnLW1hJywgJzIwMCcsICctbWV0YWxfYmluZGluZycsICctaW1hZScsICc8aW5maWxlLm1hZT4nLCAnLW9tYWUnLCAnPG91dGZpbGUubWFlPic=

> <r_epik_Ionization_Penalty>
0.182562

> <r_epik_Ionization_Penalty_Charging>
0

> <r_epik_Ionization_Penalty_Neutral>
0.182562

> <r_epik_State_Penalty>
0.172086

> <r_epik_Charging_Adjusted_Penalty>
0.172086

> <i_epik_Tot_Q>
0

> <i_epik_Tot_abs_Q>
0

> <r_epik_Metal_State_Penalty>
0.000199649

> <b_epik_Metal_Only>
0

> <s_lp_Force_Field>
OPLS_2005

> <r_lp_Energy>
11.8794

> <b_lp_Chiralities_Consistent>
1

> <s_lp_Variant>
AV-unprocessed.smi:1567-1

> <Gold.Version>
5.8.1

> <Gold.Id.Protein>
6NUR|6NUR_protein|mol2

> <Gold.PLP.Fitness>
56.3372

> <Gold.PLP.PLP>
-48.8807

> <Gold.PLP.part.hbond>
-5.9587

> <Gold.PLP.part.metal>
0.0000

> <Gold.PLP.part.buried>
-0.6278

> <Gold.PLP.part.nonpolar>
-39.3576

> <Gold.PLP.part.repulsive>
0.0000

> <Gold.PLP.ligand.clash>
0.0000

> <Gold.PLP.ligand.torsion>
1.4912

> <Gold.PLP.Chemscore.Hbond>
3.4612

> <Gold.PLP.Chemscore.CHOScore>
0.0000

> <Gold.PLP.Chemscore.Metal>
0.0000

> <Gold.Chemscore.Hbonds>
donor molecule, donor type, donor heavy atom, donor atom, acceptor molecule, acceptor atom, score
      L1  H     1    25       P1  7948  1.00
      L1  H    16    39       P1  7957  0.11
      P1  H  7989  7998       L1    16  0.35
      P1  H  7997  8009       L1     6  1.00
      P1  H  8011  8017       L1    16  1.00

> <Gold.PLP.Chemscore.Internal.Correction>
0.0552

> <Gold.Rescore>
     Score         DG    S(hbond)    S(metal)    S(lipo)     H(rot)  DE(clash)    DE(int)     intcor
     14.22     -19.23       2.30        0.00     122.48       3.23       1.78       3.23       ----

> <Gold.Chemscore.Fitness>
14.2222

> <Gold.Chemscore.DG>
-19.2261

> <Gold.Chemscore.ZeroCoef>
-5.4800

> <Gold.Chemscore.Hbond>
2.2994

> <Gold.Chemscore.Metal>
0.0000

> <Gold.Chemscore.Lipo>
122.4779

> <Gold.Chemscore.Internal_Hbond>
0.0000

> <Gold.Chemscore.DEClash>
1.7757

> <Gold.Chemscore.DEInternal>
3.2283

> <Gold.Chemscore.Rot>
3.2281

> <Gold.Chemscore.Internal.Correction>
   9.000000E+99

> <Gold.Chemscore.Hbonds>
donor molecule, donor type, donor heavy atom, donor atom, acceptor molecule, acceptor atom, score
      L1  H     1    25       P1  7948  0.49
      L1  H    16    39       P1  7957  0.12
      P1  H  7989  7998       L1    16  0.31
      P1  H  7997  8009       L1     6  0.19
      P1  H  8011  8017       L1    16  0.57

> <Gold.Chemscore.Hbond.Weighted>
-7.6801

> <Gold.Chemscore.Metal.Weighted>
-0.0000

> <Gold.Chemscore.Lipo.Weighted>
-14.3299

> <Gold.Chemscore.Internal_Hbond.Weighted>
0.0000

> <Gold.Chemscore.DEClash.Weighted>
1.7757

> <Gold.Chemscore.DEInternal.Weighted>
3.2283

> <Gold.Chemscore.Rot.Weighted>
8.2639

> <Gold.Chemscore.Internal.Correction.Weighted>
   9.000000E+99

> <Gold.Protein.RotatedTorsions>
[ 6907 6896 6895 6894 ] final  -93.30 input  -60.11 | X-H torsion
[ 7974 7965 7964 7962 ] final  -14.96 input  175.53 | X-H torsion
[ 8008 7997 7996 7995 ] final  174.70 input   59.86 | X-H torsion
[ 10167 10162 10161 10158 ] final  -27.21 input  -65.29 | X-H torsion
[ 10718 10713 10712 10709 ] final  -99.29 input   66.30 | X-H torsion
[ 10763 10752 10751 10750 ] final   25.62 input  -60.55 | X-H torsion
[ 11005 11000 10999 10996 ] final -170.75 input  -57.11 | X-H torsion

> <Gold.Protein.ActiveResidues>
 VAL166  LYS551  ARG553  GLY616  TRP617  ASP618  TYR619  PRO620  LYS621  CYS622 
 ASP623  PHE694  ASN695  SER759  ASP760  ASP761  ALA762  ILE779  LEU786  VAL792 
 PHE793  MET794  SER795  GLU796  ALA797  LYS798  CYS799  TRP800  GLU811  SER814 

> <Gold.Protein.RotatedAtoms>
  150.6920  134.1988  159.4313 H   0  0  0  0  0  0  0  0  0  0  0  0  # atno 6907 bound_to 6896
  151.9955  134.9954  160.0572 H   0  0  0  0  0  0  0  0  0  0  0  0  # atno 6908 bound_to 6896
  152.1627  133.4557  159.4906 H   0  0  0  0  0  0  0  0  0  0  0  0  # atno 6909 bound_to 6896
  146.2052  140.3424  142.8409 H   0  0  0  0  0  0  0  0  0  0  0  0  # atno 7974 bound_to 7965
  156.0947  140.1427  156.9547 H   0  0  0  0  0  0  0  0  0  0  0  0  # atno 8008 bound_to 7997
  154.4663  140.0925  156.7076 H   0  0  0  0  0  0  0  0  0  0  0  0  # atno 8009 bound_to 7997
  155.4861  140.3446  155.4349 H   0  0  0  0  0  0  0  0  0  0  0  0  # atno 8010 bound_to 7997
  140.7278  143.4112  151.1102 H   0  0  0  0  0  0  0  0  0  0  0  0  # atno 10167 bound_to 10162
  156.0130  130.5276  150.6648 H   0  0  0  0  0  0  0  0  0  0  0  0  # atno 10718 bound_to 10713
  153.0679  135.6579  154.0313 H   0  0  0  0  0  0  0  0  0  0  0  0  # atno 10763 bound_to 10752
  153.9965  135.2941  155.3408 H   0  0  0  0  0  0  0  0  0  0  0  0  # atno 10764 bound_to 10752
  154.7043  135.5231  153.8642 H   0  0  0  0  0  0  0  0  0  0  0  0  # atno 10765 bound_to 10752
  140.5159  134.5756  157.5033 H   0  0  0  0  0  0  0  0  0  0  0  0  # atno 11005 bound_to 11000
  144.8776  140.7357  143.6007 LP  0  0  0  0  0  0  0  0  0  0  0  0  # atno 17320 bound_to 7965
  145.3344  139.1750  143.4519 LP  0  0  0  0  0  0  0  0  0  0  0  0  # atno 17321 bound_to 7965
  139.7746  143.8444  152.3127 LP  0  0  0  0  0  0  0  0  0  0  0  0  # atno 17342 bound_to 10162
  139.8374  144.7226  150.9373 LP  0  0  0  0  0  0  0  0  0  0  0  0  # atno 17343 bound_to 10162
  157.4383  131.0858  151.0969 LP  0  0  0  0  0  0  0  0  0  0  0  0  # atno 17370 bound_to 10713
  157.1521  130.6188  149.5585 LP  0  0  0  0  0  0  0  0  0  0  0  0  # atno 17371 bound_to 10713
  139.9633  134.7416  156.0192 LP  0  0  0  0  0  0  0  0  0  0  0  0  # atno 17394 bound_to 11000
  141.1360  133.6575  156.3596 LP  0  0  0  0  0  0  0  0  0  0  0  0  # atno 17395 bound_to 11000

$$$$
