AV-unprocessed.smi:48|AV-procd|sdf|447|dock2
  -GOLD-   2262016313D 1   1.00000     0.00000
 Structure written by MMmdl.
 30 32  0  0  0  0  0  0  0  0  1 V2000
  150.1452  143.1755  157.8233 O   0  0  0  0  0  0  0  0  0  0  0  0
  150.9037  142.0318  157.4928 C   0  0  0  0  0  0  0  0  0  0  0  0
  150.6606  141.6432  156.0266 C   0  0  1  0  0  0  0  0  0  0  0  0
  151.4105  140.4776  155.7071 O   0  0  0  0  0  0  0  0  0  0  0  0
  150.8345  139.8409  154.6092 C   0  0  1  0  0  0  0  0  0  0  0  0
  150.8992  138.3678  154.8489 N   0  0  0  0  0  0  0  0  0  0  0  0
  151.2914  137.4126  153.9813 C   0  0  0  0  0  0  0  0  0  0  0  0
  151.2777  136.1509  154.4094 N   0  0  0  0  0  0  0  0  0  0  0  0
  150.8324  136.3062  155.7119 C   0  0  0  0  0  0  0  0  0  0  0  0
  150.5835  135.3840  156.7572 C   0  0  0  0  0  0  0  0  0  0  0  0
  150.8300  133.6918  156.5266 Cl  0  0  0  0  0  0  0  0  0  0  0  0
  150.1451  135.8605  157.9469 N   0  0  0  0  0  0  0  0  0  0  0  0
  149.9623  137.1779  158.0983 C   0  0  0  0  0  0  0  0  0  0  0  0
  150.1513  138.1601  157.2098 N   0  0  0  0  0  0  0  0  0  0  0  0
  150.5929  137.6777  156.0107 C   0  0  0  0  0  0  0  0  0  0  0  0
  149.3778  140.3227  154.4944 C   0  0  2  0  0  0  0  0  0  0  0  0
  149.1851  141.0595  153.3005 O   0  0  0  0  0  0  0  0  0  0  0  0
  149.2271  141.1914  155.7431 C   0  0  2  0  0  0  0  0  0  0  0  0
  148.3307  142.2743  155.5755 O   0  0  0  0  0  0  0  0  0  0  0  0
  150.9358  142.4519  155.3462 H   0  0  0  0  0  0  0  0  0  0  0  0
  151.4272  140.0092  153.7083 H   0  0  0  0  0  0  0  0  0  0  0  0
  148.6798  139.4843  154.5044 H   0  0  0  0  0  0  0  0  0  0  0  0
  148.8695  140.5742  156.5675 H   0  0  0  0  0  0  0  0  0  0  0  0
  149.6272  143.4198  157.0717 H   0  0  0  0  0  0  0  0  0  0  0  0
  151.9624  142.2070  157.6867 H   0  0  0  0  0  0  0  0  0  0  0  0
  150.5827  141.2254  158.1526 H   0  0  0  0  0  0  0  0  0  0  0  0
  151.6028  137.6560  152.9759 H   0  0  0  0  0  0  0  0  0  0  0  0
  149.6122  137.4913  159.0708 H   0  0  0  0  0  0  0  0  0  0  0  0
  149.0302  140.4527  152.5931 H   0  0  0  0  0  0  0  0  0  0  0  0
  148.7652  143.0675  155.8490 H   0  0  0  0  0  0  0  0  0  0  0  0
  1  2  1  0  0  0  0
  1 24  1  0  0  0  0
  2  3  1  0  0  0  0
  2 25  1  0  0  0  0
  2 26  1  0  0  0  0
  3 20  1  0  0  0  0
  3 18  1  0  0  0  0
  3  4  1  0  0  0  0
  4  5  1  0  0  0  0
  5 21  1  0  0  0  0
  5  6  1  0  0  0  0
  5 16  1  0  0  0  0
  6 15  1  0  0  0  0
  6  7  1  0  0  0  0
  7  8  2  0  0  0  0
  7 27  1  0  0  0  0
  8  9  1  0  0  0  0
  9 15  2  0  0  0  0
  9 10  1  0  0  0  0
 10 11  1  0  0  0  0
 10 12  2  0  0  0  0
 12 13  1  0  0  0  0
 13 14  2  0  0  0  0
 13 28  1  0  0  0  0
 14 15  1  0  0  0  0
 16 22  1  0  0  0  0
 16 17  1  0  0  0  0
 16 18  1  0  0  0  0
 17 29  1  0  0  0  0
 18 23  1  0  0  0  0
 18 19  1  0  0  0  0
 19 30  1  0  0  0  0
M  END
> <s_m_source_file>
AV-unprocessed.smi

> <i_m_source_file_index>
48

> <i_lp_mmshare_version>
43012

> <i_f3d_flags>
0

> <s_epik_input>
W09IXVtDSDJdW0NASF0xT1tDQEhdKFtDQEhdKFtPSF0pW0NAQEhdMVtPSF0pbihbY0hdbjIpYyhjMjMpbltjSF1uYzNDbA==

> <s_epik_cmdline>
J2VwaWtfcHl0aG9uJywgJy1waCcsICc3LjAnLCAnLXRuJywgJzgnLCAnLW1hJywgJzIwMCcsICctbWV0YWxfYmluZGluZycsICctaW1hZScsICc8aW5maWxlLm1hZT4nLCAnLW9tYWUnLCAnPG91dGZpbGUubWFlPic=

> <r_lp_tautomer_probability>
1

> <r_epik_Ionization_Penalty>
3.45505e-06

> <r_epik_Ionization_Penalty_Charging>
0

> <r_epik_Ionization_Penalty_Neutral>
3.45505e-06

> <r_epik_State_Penalty>
-0

> <r_epik_Charging_Adjusted_Penalty>
0

> <i_epik_Tot_Q>
0

> <i_epik_Tot_abs_Q>
0

> <r_epik_Metal_State_Penalty>
-0

> <b_epik_Metal_Only>
0

> <s_epik_Chemistry_Notes>
This compound contains an acetal/aminal-like group ( X-CH(R)-Y where X, Y are N, S, or O) that may be acid/base labile, releasing an aldehyde.

> <s_lp_Force_Field>
OPLS_2005

> <r_lp_Energy>
36.5243

> <b_lp_Chiralities_Consistent>
1

> <s_lp_Variant>
AV-unprocessed.smi:48-1

> <Gold.Version>
5.8.1

> <Gold.Id.Protein>
6NUR|6NUR_protein|mol2

> <Gold.PLP.Fitness>
46.7077

> <Gold.PLP.PLP>
-27.9966

> <Gold.PLP.part.hbond>
-6.8968

> <Gold.PLP.part.metal>
0.0000

> <Gold.PLP.part.buried>
-1.2593

> <Gold.PLP.part.nonpolar>
-22.3108

> <Gold.PLP.part.repulsive>
0.2094

> <Gold.PLP.ligand.clash>
0.0000

> <Gold.PLP.ligand.torsion>
0.3244

> <Gold.PLP.Chemscore.Hbond>
5.6971

> <Gold.PLP.Chemscore.CHOScore>
0.7510

> <Gold.PLP.Chemscore.Metal>
0.0000

> <Gold.Chemscore.Hbonds>
donor molecule, donor type, donor heavy atom, donor atom, acceptor molecule, acceptor atom, score
      L1  H     1    24       P1  8028  0.96
      L1  H    17    29       P1  7957  0.82
      L1  H    19    30       P1  8028  0.91
      P1  H  6896  6908       L1    12  0.69
      P1  H  8011  8017       L1    17  0.90
      P1  H 10752 10763       L1     8  1.00
      L1  C     7    27       P1  7949  0.67

> <Gold.PLP.Chemscore.Internal.Correction>
0.0159

> <Gold.Rescore>
     Score         DG    S(hbond)    S(metal)    S(lipo)     H(rot)  DE(clash)    DE(int)     intcor
     12.35     -15.02       4.35        0.00      40.59       3.80       1.38       1.28       ----

> <Gold.Chemscore.Fitness>
12.3543

> <Gold.Chemscore.DG>
-15.0170

> <Gold.Chemscore.ZeroCoef>
-5.4800

> <Gold.Chemscore.Hbond>
4.3474

> <Gold.Chemscore.Metal>
0.0000

> <Gold.Chemscore.Lipo>
40.5911

> <Gold.Chemscore.Internal_Hbond>
0.0000

> <Gold.Chemscore.DEClash>
1.3817

> <Gold.Chemscore.DEInternal>
1.2810

> <Gold.Chemscore.Rot>
3.8017

> <Gold.Chemscore.Internal.Correction>
   9.000000E+99

> <Gold.Chemscore.Hbonds>
donor molecule, donor type, donor heavy atom, donor atom, acceptor molecule, acceptor atom, score
      L1  H     1    24       P1  8028  0.84
      L1  H    17    29       P1  7957  0.80
      L1  H    19    30       P1  8028  0.88
      P1  H  6896  6908       L1    12  0.57
      P1  H  8011  8017       L1    17  0.18
      P1  H 10752 10763       L1     8  0.41

> <Gold.Chemscore.Hbond.Weighted>
-14.5202

> <Gold.Chemscore.Metal.Weighted>
-0.0000

> <Gold.Chemscore.Lipo.Weighted>
-4.7492

> <Gold.Chemscore.Internal_Hbond.Weighted>
0.0000

> <Gold.Chemscore.DEClash.Weighted>
1.3817

> <Gold.Chemscore.DEInternal.Weighted>
1.2810

> <Gold.Chemscore.Rot.Weighted>
9.7324

> <Gold.Chemscore.Internal.Correction.Weighted>
   9.000000E+99

> <Gold.Protein.RotatedTorsions>
[ 6907 6896 6895 6894 ] final -177.46 input  -60.11 | X-H torsion
[ 7974 7965 7964 7962 ] final  101.47 input  175.53 | X-H torsion
[ 8008 7997 7996 7995 ] final    2.63 input   59.86 | X-H torsion
[ 10167 10162 10161 10158 ] final -176.27 input  -65.29 | X-H torsion
[ 10718 10713 10712 10709 ] final   79.05 input   66.30 | X-H torsion
[ 10763 10752 10751 10750 ] final   39.22 input  -60.55 | X-H torsion
[ 11005 11000 10999 10996 ] final  118.30 input  -57.11 | X-H torsion

> <Gold.Protein.ActiveResidues>
 VAL166  LYS551  ARG553  GLY616  TRP617  ASP618  TYR619  PRO620  LYS621  CYS622 
 ASP623  PHE694  ASN695  SER759  ASP760  ASP761  ALA762  ILE779  LEU786  VAL792 
 PHE793  MET794  SER795  GLU796  ALA797  LYS798  CYS799  TRP800  GLU811  SER814 

> <Gold.Protein.RotatedAtoms>
  151.6214  133.3339  159.3088 H   0  0  0  0  0  0  0  0  0  0  0  0  # atno 6907 bound_to 6896
  150.8104  134.7258  159.6694 H   0  0  0  0  0  0  0  0  0  0  0  0  # atno 6908 bound_to 6896
  152.4200  134.5977  160.0043 H   0  0  0  0  0  0  0  0  0  0  0  0  # atno 6909 bound_to 6896
  145.3719  139.2396  143.3451 H   0  0  0  0  0  0  0  0  0  0  0  0  # atno 7974 bound_to 7965
  154.6939  140.2659  155.6786 H   0  0  0  0  0  0  0  0  0  0  0  0  # atno 8008 bound_to 7997
  156.2741  140.2785  156.1450 H   0  0  0  0  0  0  0  0  0  0  0  0  # atno 8009 bound_to 7997
  155.0859  140.0373  157.2643 H   0  0  0  0  0  0  0  0  0  0  0  0  # atno 8010 bound_to 7997
  139.5538  144.2041  152.1124 H   0  0  0  0  0  0  0  0  0  0  0  0  # atno 10167 bound_to 10162
  157.6765  130.9896  150.1876 H   0  0  0  0  0  0  0  0  0  0  0  0  # atno 10718 bound_to 10713
  152.9974  135.6227  154.2431 H   0  0  0  0  0  0  0  0  0  0  0  0  # atno 10763 bound_to 10752
  154.2171  135.2797  155.2940 H   0  0  0  0  0  0  0  0  0  0  0  0  # atno 10764 bound_to 10752
  154.5559  135.5719  153.7022 H   0  0  0  0  0  0  0  0  0  0  0  0  # atno 10765 bound_to 10752
  139.9104  134.9619  156.7482 H   0  0  0  0  0  0  0  0  0  0  0  0  # atno 11005 bound_to 11000
  146.2881  140.4371  142.8750 LP  0  0  0  0  0  0  0  0  0  0  0  0  # atno 17320 bound_to 7965
  144.8570  140.7085  143.6131 LP  0  0  0  0  0  0  0  0  0  0  0  0  # atno 17321 bound_to 7965
  140.1542  144.5086  150.6670 LP  0  0  0  0  0  0  0  0  0  0  0  0  # atno 17342 bound_to 10162
  140.6806  143.2325  151.5393 LP  0  0  0  0  0  0  0  0  0  0  0  0  # atno 17343 bound_to 10162
  156.2595  130.3709  149.8146 LP  0  0  0  0  0  0  0  0  0  0  0  0  # atno 17370 bound_to 10713
  156.5895  130.8500  151.3404 LP  0  0  0  0  0  0  0  0  0  0  0  0  # atno 17371 bound_to 10713
  140.6795  133.9487  155.7902 LP  0  0  0  0  0  0  0  0  0  0  0  0  # atno 17394 bound_to 11000
  141.0520  134.0471  157.3771 LP  0  0  0  0  0  0  0  0  0  0  0  0  # atno 17395 bound_to 11000

$$$$
