AV-unprocessed.smi:48|AV-procd|sdf|448|dock5
  -GOLD-   2262016313D 1   1.00000     0.00000
 Structure written by MMmdl.
 30 32  0  0  0  0  0  0  0  0  1 V2000
  150.0429  139.7614  153.6081 O   0  0  0  0  0  0  0  0  0  0  0  0
  149.6352  139.5268  154.9393 C   0  0  0  0  0  0  0  0  0  0  0  0
  150.5124  140.3384  155.9086 C   0  0  2  0  0  0  0  0  0  0  0  0
  150.1856  140.0558  157.2656 O   0  0  0  0  0  0  0  0  0  0  0  0
  150.7030  141.0590  158.0882 C   0  0  1  0  0  0  0  0  0  0  0  0
  152.0214  140.5941  158.6261 N   0  0  0  0  0  0  0  0  0  0  0  0
  152.8210  139.5930  158.1974 C   0  0  0  0  0  0  0  0  0  0  0  0
  153.9488  139.3770  158.8745 N   0  0  0  0  0  0  0  0  0  0  0  0
  153.8664  140.3414  159.8652 C   0  0  0  0  0  0  0  0  0  0  0  0
  154.7165  140.6900  160.9429 C   0  0  0  0  0  0  0  0  0  0  0  0
  156.1953  139.8445  161.2184 Cl  0  0  0  0  0  0  0  0  0  0  0  0
  154.3411  141.7053  161.7577 N   0  0  0  0  0  0  0  0  0  0  0  0
  153.1875  142.3433  161.5227 C   0  0  0  0  0  0  0  0  0  0  0  0
  152.2900  142.1291  160.5532 N   0  0  0  0  0  0  0  0  0  0  0  0
  152.6732  141.1058  159.7338 C   0  0  0  0  0  0  0  0  0  0  0  0
  150.9070  142.3021  157.2012 C   0  0  2  0  0  0  0  0  0  0  0  0
  150.2795  143.4635  157.7109 O   0  0  0  0  0  0  0  0  0  0  0  0
  150.3319  141.8600  155.8554 C   0  0  2  0  0  0  0  0  0  0  0  0
  148.9603  142.1928  155.7118 O   0  0  0  0  0  0  0  0  0  0  0  0
  151.5667  140.1125  155.7360 H   0  0  0  0  0  0  0  0  0  0  0  0
  150.0793  141.2155  158.9694 H   0  0  0  0  0  0  0  0  0  0  0  0
  151.9745  142.4990  157.0883 H   0  0  0  0  0  0  0  0  0  0  0  0
  150.8777  142.3031  155.0217 H   0  0  0  0  0  0  0  0  0  0  0  0
  149.3245  139.5468  153.0327 H   0  0  0  0  0  0  0  0  0  0  0  0
  148.5944  139.8411  155.0220 H   0  0  0  0  0  0  0  0  0  0  0  0
  149.6734  138.4603  155.1635 H   0  0  0  0  0  0  0  0  0  0  0  0
  152.5663  138.9861  157.3408 H   0  0  0  0  0  0  0  0  0  0  0  0
  152.9477  143.1401  162.2112 H   0  0  0  0  0  0  0  0  0  0  0  0
  149.8286  143.8949  157.0007 H   0  0  0  0  0  0  0  0  0  0  0  0
  148.9029  143.0805  155.3920 H   0  0  0  0  0  0  0  0  0  0  0  0
  1  2  1  0  0  0  0
  1 24  1  0  0  0  0
  2  3  1  0  0  0  0
  2 25  1  0  0  0  0
  2 26  1  0  0  0  0
  3 20  1  0  0  0  0
  3 18  1  0  0  0  0
  3  4  1  0  0  0  0
  4  5  1  0  0  0  0
  5 21  1  0  0  0  0
  5  6  1  0  0  0  0
  5 16  1  0  0  0  0
  6 15  1  0  0  0  0
  6  7  1  0  0  0  0
  7  8  2  0  0  0  0
  7 27  1  0  0  0  0
  8  9  1  0  0  0  0
  9 15  2  0  0  0  0
  9 10  1  0  0  0  0
 10 11  1  0  0  0  0
 10 12  2  0  0  0  0
 12 13  1  0  0  0  0
 13 14  2  0  0  0  0
 13 28  1  0  0  0  0
 14 15  1  0  0  0  0
 16 22  1  0  0  0  0
 16 17  1  0  0  0  0
 16 18  1  0  0  0  0
 17 29  1  0  0  0  0
 18 23  1  0  0  0  0
 18 19  1  0  0  0  0
 19 30  1  0  0  0  0
M  END
> <s_m_source_file>
AV-unprocessed.smi

> <i_m_source_file_index>
48

> <i_lp_mmshare_version>
43012

> <i_f3d_flags>
0

> <s_epik_input>
W09IXVtDSDJdW0NASF0xT1tDQEhdKFtDQEhdKFtPSF0pW0NAQEhdMVtPSF0pbihbY0hdbjIpYyhjMjMpbltjSF1uYzNDbA==

> <s_epik_cmdline>
J2VwaWtfcHl0aG9uJywgJy1waCcsICc3LjAnLCAnLXRuJywgJzgnLCAnLW1hJywgJzIwMCcsICctbWV0YWxfYmluZGluZycsICctaW1hZScsICc8aW5maWxlLm1hZT4nLCAnLW9tYWUnLCAnPG91dGZpbGUubWFlPic=

> <r_lp_tautomer_probability>
1

> <r_epik_Ionization_Penalty>
3.45505e-06

> <r_epik_Ionization_Penalty_Charging>
0

> <r_epik_Ionization_Penalty_Neutral>
3.45505e-06

> <r_epik_State_Penalty>
-0

> <r_epik_Charging_Adjusted_Penalty>
0

> <i_epik_Tot_Q>
0

> <i_epik_Tot_abs_Q>
0

> <r_epik_Metal_State_Penalty>
-0

> <b_epik_Metal_Only>
0

> <s_epik_Chemistry_Notes>
This compound contains an acetal/aminal-like group ( X-CH(R)-Y where X, Y are N, S, or O) that may be acid/base labile, releasing an aldehyde.

> <s_lp_Force_Field>
OPLS_2005

> <r_lp_Energy>
38.272

> <b_lp_Chiralities_Consistent>
1

> <s_lp_Variant>
AV-unprocessed.smi:48-2

> <Gold.Version>
5.8.1

> <Gold.Id.Protein>
6NUR|6NUR_protein|mol2

> <Gold.PLP.Fitness>
44.5491

> <Gold.PLP.PLP>
-34.1710

> <Gold.PLP.part.hbond>
-5.8624

> <Gold.PLP.part.metal>
0.0000

> <Gold.PLP.part.buried>
-2.6439

> <Gold.PLP.part.nonpolar>
-24.4263

> <Gold.PLP.part.repulsive>
0.0209

> <Gold.PLP.ligand.clash>
0.0000

> <Gold.PLP.ligand.torsion>
0.5670

> <Gold.PLP.Chemscore.Hbond>
3.8299

> <Gold.PLP.Chemscore.CHOScore>
0.0000

> <Gold.PLP.Chemscore.Metal>
0.0000

> <Gold.Chemscore.Hbonds>
donor molecule, donor type, donor heavy atom, donor atom, acceptor molecule, acceptor atom, score
      L1  H     1    24       P1  7957  0.29
      L1  H    17    29       P1  8028  1.00
      L1  H    19    30       P1  8028  1.00
      P1  H  7989  7998       L1     1  0.80
      P1  H  7997  8010       L1     8  0.65

> <Gold.PLP.Chemscore.Internal.Correction>
0.0225

> <Gold.Rescore>
     Score         DG    S(hbond)    S(metal)    S(lipo)     H(rot)  DE(clash)    DE(int)     intcor
      9.82     -11.41       2.97        0.00      49.07       3.80       1.09       0.51       ----

> <Gold.Chemscore.Fitness>
9.8152

> <Gold.Chemscore.DG>
-11.4097

> <Gold.Chemscore.ZeroCoef>
-5.4800

> <Gold.Chemscore.Hbond>
2.9702

> <Gold.Chemscore.Metal>
0.0000

> <Gold.Chemscore.Lipo>
49.0725

> <Gold.Chemscore.Internal_Hbond>
0.0000

> <Gold.Chemscore.DEClash>
1.0886

> <Gold.Chemscore.DEInternal>
0.5059

> <Gold.Chemscore.Rot>
3.8017

> <Gold.Chemscore.Internal.Correction>
   9.000000E+99

> <Gold.Chemscore.Hbonds>
donor molecule, donor type, donor heavy atom, donor atom, acceptor molecule, acceptor atom, score
      L1  H     1    24       P1  7957  0.30
      L1  H    17    29       P1  8028  0.93
      L1  H    19    30       P1  8028  0.96
      P1  H  7989  7998       L1     1  0.70
      P1  H  7997  8010       L1     8  0.05

> <Gold.Chemscore.Hbond.Weighted>
-9.9206

> <Gold.Chemscore.Metal.Weighted>
-0.0000

> <Gold.Chemscore.Lipo.Weighted>
-5.7415

> <Gold.Chemscore.Internal_Hbond.Weighted>
0.0000

> <Gold.Chemscore.DEClash.Weighted>
1.0886

> <Gold.Chemscore.DEInternal.Weighted>
0.5059

> <Gold.Chemscore.Rot.Weighted>
9.7324

> <Gold.Chemscore.Internal.Correction.Weighted>
   9.000000E+99

> <Gold.Protein.RotatedTorsions>
[ 6907 6896 6895 6894 ] final  121.31 input  -60.11 | X-H torsion
[ 7974 7965 7964 7962 ] final  -21.48 input  175.53 | X-H torsion
[ 8008 7997 7996 7995 ] final   -5.07 input   59.86 | X-H torsion
[ 10167 10162 10161 10158 ] final  160.73 input  -65.29 | X-H torsion
[ 10718 10713 10712 10709 ] final -145.34 input   66.30 | X-H torsion
[ 10763 10752 10751 10750 ] final  -81.20 input  -60.55 | X-H torsion
[ 11005 11000 10999 10996 ] final   53.71 input  -57.11 | X-H torsion

> <Gold.Protein.ActiveResidues>
 VAL166  LYS551  ARG553  GLY616  TRP617  ASP618  TYR619  PRO620  LYS621  CYS622 
 ASP623  PHE694  ASN695  SER759  ASP760  ASP761  ALA762  ILE779  LEU786  VAL792 
 PHE793  MET794  SER795  GLU796  ALA797  LYS798  CYS799  TRP800  GLU811  SER814 

> <Gold.Protein.RotatedAtoms>
  152.4332  133.7313  159.6588 H   0  0  0  0  0  0  0  0  0  0  0  0  # atno 6907 bound_to 6896
  150.8212  133.8238  159.3144 H   0  0  0  0  0  0  0  0  0  0  0  0  # atno 6908 bound_to 6896
  151.5920  135.1055  160.0092 H   0  0  0  0  0  0  0  0  0  0  0  0  # atno 6909 bound_to 6896
  146.1730  140.4347  142.8524 H   0  0  0  0  0  0  0  0  0  0  0  0  # atno 7974 bound_to 7965
  154.6078  140.2468  155.7709 H   0  0  0  0  0  0  0  0  0  0  0  0  # atno 8008 bound_to 7997
  156.2351  140.2953  156.0243 H   0  0  0  0  0  0  0  0  0  0  0  0  # atno 8009 bound_to 7997
  155.2103  140.0397  157.2923 H   0  0  0  0  0  0  0  0  0  0  0  0  # atno 8010 bound_to 7997
  139.4842  144.4605  151.8710 H   0  0  0  0  0  0  0  0  0  0  0  0  # atno 10167 bound_to 10162
  156.3813  130.7838  151.2031 H   0  0  0  0  0  0  0  0  0  0  0  0  # atno 10718 bound_to 10713
  154.5606  135.5634  153.7004 H   0  0  0  0  0  0  0  0  0  0  0  0  # atno 10763 bound_to 10752
  153.0017  135.6273  154.2249 H   0  0  0  0  0  0  0  0  0  0  0  0  # atno 10764 bound_to 10752
  154.2187  135.2870  155.2912 H   0  0  0  0  0  0  0  0  0  0  0  0  # atno 10765 bound_to 10752
  140.0745  134.5423  155.9011 H   0  0  0  0  0  0  0  0  0  0  0  0  # atno 11005 bound_to 11000
  144.8193  140.6522  143.6364 LP  0  0  0  0  0  0  0  0  0  0  0  0  # atno 17320 bound_to 7965
  145.4288  139.1552  143.4034 LP  0  0  0  0  0  0  0  0  0  0  0  0  # atno 17321 bound_to 7965
  140.4068  144.2422  150.5890 LP  0  0  0  0  0  0  0  0  0  0  0  0  # atno 17342 bound_to 10162
  140.5005  143.2319  151.8686 LP  0  0  0  0  0  0  0  0  0  0  0  0  # atno 17343 bound_to 10162
  157.7492  131.0343  150.4312 LP  0  0  0  0  0  0  0  0  0  0  0  0  # atno 17370 bound_to 10713
  156.4556  130.4021  149.6608 LP  0  0  0  0  0  0  0  0  0  0  0  0  # atno 17371 bound_to 10713
  141.2024  133.6625  156.6006 LP  0  0  0  0  0  0  0  0  0  0  0  0  # atno 17394 bound_to 11000
  140.3578  134.7714  157.4512 LP  0  0  0  0  0  0  0  0  0  0  0  0  # atno 17395 bound_to 11000

$$$$
