AV-unprocessed.smi:287|AV-procd|sdf|2208|dock9
  -GOLD-   2262022 43D 1   1.00000     0.00000
 Structure written by MMmdl.
 55 58  0  0  0  0  0  0  0  0  1 V2000
  146.9647  135.2245  162.5918 C   0  0  0  0  0  0  0  0  0  0  0  0
  145.7959  135.1262  161.6724 C   0  0  0  0  0  0  0  0  0  0  0  0
  145.3351  135.8953  160.6438 C   0  0  0  0  0  0  0  0  0  0  0  0
  144.1479  135.2779  160.1479 C   0  0  0  0  0  0  0  0  0  0  0  0
  143.2860  135.7725  158.9929 C   0  0  2  0  0  0  0  0  0  0  0  0
  142.6528  137.1352  159.3289 C   0  0  0  0  0  0  0  0  0  0  0  0
  142.1851  134.9223  158.7350 O   0  0  0  0  0  0  0  0  0  0  0  0
  144.0819  135.8733  157.6724 C   0  0  0  0  0  0  0  0  0  0  0  0
  143.3264  136.5015  156.5964 N   0  0  0  0  0  0  0  0  0  0  0  0
  143.2358  135.9236  155.3803 C   0  0  0  0  0  0  0  0  0  0  0  0
  141.9829  135.5947  154.9852 N   0  0  0  0  0  0  0  0  0  0  0  0
  141.7824  135.0222  153.7955 C   0  0  0  0  0  0  0  0  0  0  0  0
  142.6808  134.6988  152.8645 N   0  0  0  0  0  0  0  0  0  0  0  0
  143.9481  135.0221  153.2537 C   0  0  0  0  0  0  0  0  0  0  0  0
  144.3122  135.6322  154.4895 C   0  0  0  0  0  0  0  0  0  0  0  0
  145.6927  135.8003  154.5266 N   0  0  0  0  0  0  0  0  0  0  0  0
  146.1099  135.3230  153.3861 C   0  0  0  0  0  0  0  0  0  0  0  0
  145.1255  134.8383  152.5563 N   0  0  0  0  0  0  0  0  0  0  0  0
  145.2969  134.2411  151.1967 C   0  0  1  0  0  0  0  0  0  0  0  0
  145.8789  132.9820  151.3439 O   0  0  0  0  0  0  0  0  0  0  0  0
  145.2462  132.0561  150.4679 C   0  0  1  0  0  0  0  0  0  0  0  0
  145.4230  130.6288  151.0091 C   0  0  0  0  0  0  0  0  0  0  0  0
  146.7170  130.4710  151.5505 O   0  0  0  0  0  0  0  0  0  0  0  0
  143.7941  132.5378  150.4734 C   0  0  2  0  0  0  0  0  0  0  0  0
  143.0463  132.0666  149.3667 O   0  0  0  0  0  0  0  0  0  0  0  0
  143.9374  134.0575  150.5030 C   0  0  2  0  0  0  0  0  0  0  0  0
  143.9587  134.6181  149.2028 O   0  0  0  0  0  0  0  0  0  0  0  0
  143.9895  134.1539  160.9230 C   0  0  0  0  0  0  0  0  0  0  0  0
  142.9895  133.0456  160.9475 C   0  0  0  0  0  0  0  0  0  0  0  0
  144.9806  134.0575  161.8521 O   0  0  0  0  0  0  0  0  0  0  0  0
  145.9699  134.9228  150.6739 H   0  0  0  0  0  0  0  0  0  0  0  0
  145.6654  132.1600  149.4649 H   0  0  0  0  0  0  0  0  0  0  0  0
  143.3016  132.2060  151.3874 H   0  0  0  0  0  0  0  0  0  0  0  0
  143.1334  134.5261  151.0730 H   0  0  0  0  0  0  0  0  0  0  0  0
  147.5871  136.0834  162.3401 H   0  0  0  0  0  0  0  0  0  0  0  0
  147.5830  134.3288  162.5289 H   0  0  0  0  0  0  0  0  0  0  0  0
  146.6351  135.3371  163.6247 H   0  0  0  0  0  0  0  0  0  0  0  0
  145.7995  136.8028  160.2875 H   0  0  0  0  0  0  0  0  0  0  0  0
  143.4113  137.9009  159.4946 H   0  0  0  0  0  0  0  0  0  0  0  0
  142.0413  137.0777  160.2305 H   0  0  0  0  0  0  0  0  0  0  0  0
  142.0129  137.4883  158.5191 H   0  0  0  0  0  0  0  0  0  0  0  0
  141.9548  134.4784  159.5366 H   0  0  0  0  0  0  0  0  0  0  0  0
  145.0280  136.3922  157.8331 H   0  0  0  0  0  0  0  0  0  0  0  0
  144.3247  134.8643  157.3364 H   0  0  0  0  0  0  0  0  0  0  0  0
  142.9346  137.4075  156.8101 H   0  0  0  0  0  0  0  0  0  0  0  0
  140.7553  134.7918  153.5546 H   0  0  0  0  0  0  0  0  0  0  0  0
  147.1558  135.3159  153.1149 H   0  0  0  0  0  0  0  0  0  0  0  0
  144.6651  130.3922  151.7569 H   0  0  0  0  0  0  0  0  0  0  0  0
  145.3175  129.9040  150.2014 H   0  0  0  0  0  0  0  0  0  0  0  0
  147.3484  130.5684  150.8539 H   0  0  0  0  0  0  0  0  0  0  0  0
  142.2889  132.6213  149.2582 H   0  0  0  0  0  0  0  0  0  0  0  0
  144.8341  134.5288  148.8572 H   0  0  0  0  0  0  0  0  0  0  0  0
  142.0118  133.4152  161.2563 H   0  0  0  0  0  0  0  0  0  0  0  0
  143.2866  132.2606  161.6437 H   0  0  0  0  0  0  0  0  0  0  0  0
  142.8864  132.5960  159.9596 H   0  0  0  0  0  0  0  0  0  0  0  0
  1  2  1  0  0  0  0
  1 35  1  0  0  0  0
  1 36  1  0  0  0  0
  1 37  1  0  0  0  0
  2 30  1  0  0  0  0
  2  3  2  0  0  0  0
  3  4  1  0  0  0  0
  3 38  1  0  0  0  0
  4  5  1  0  0  0  0
  4 28  2  0  0  0  0
  5  6  1  0  0  0  0
  5  7  1  0  0  0  0
  5  8  1  0  0  0  0
  6 39  1  0  0  0  0
  6 40  1  0  0  0  0
  6 41  1  0  0  0  0
  7 42  1  0  0  0  0
  8  9  1  0  0  0  0
  8 43  1  0  0  0  0
  8 44  1  0  0  0  0
  9 10  1  0  0  0  0
  9 45  1  0  0  0  0
 10 15  1  0  0  0  0
 10 11  2  0  0  0  0
 11 12  1  0  0  0  0
 12 13  2  0  0  0  0
 12 46  1  0  0  0  0
 13 14  1  0  0  0  0
 14 18  1  0  0  0  0
 14 15  2  0  0  0  0
 15 16  1  0  0  0  0
 16 17  2  0  0  0  0
 17 18  1  0  0  0  0
 17 47  1  0  0  0  0
 18 19  1  0  0  0  0
 19 31  1  0  0  0  0
 19 26  1  0  0  0  0
 19 20  1  0  0  0  0
 20 21  1  0  0  0  0
 21 32  1  0  0  0  0
 21 22  1  0  0  0  0
 21 24  1  0  0  0  0
 22 23  1  0  0  0  0
 22 48  1  0  0  0  0
 22 49  1  0  0  0  0
 23 50  1  0  0  0  0
 24 33  1  0  0  0  0
 24 25  1  0  0  0  0
 24 26  1  0  0  0  0
 25 51  1  0  0  0  0
 26 34  1  0  0  0  0
 26 27  1  0  0  0  0
 27 52  1  0  0  0  0
 28 29  1  0  0  0  0
 28 30  1  0  0  0  0
 29 53  1  0  0  0  0
 29 54  1  0  0  0  0
 29 55  1  0  0  0  0
M  END
> <s_m_source_file>
AV-unprocessed.smi

> <i_m_source_file_index>
287

> <i_lp_mmshare_version>
43012

> <i_f3d_flags>
0

> <s_epik_input>
W0NIM11jMVtjSF1jKGMobzEpW0NIM10pW0NAQF0oW0NIM10pKFtPSF0pW0NIMl1bTkhdYyhuW2NIXW4yKWMoYzIzKW5bY0hdbjNbQ0BASF00T1tDQEhdKFtDSDJdW09IXSlbQ0BASF0oW09IXSlbQ0BIXTRbT0hd

> <s_epik_cmdline>
J2VwaWtfcHl0aG9uJywgJy1waCcsICc3LjAnLCAnLXRuJywgJzgnLCAnLW1hJywgJzIwMCcsICctbWV0YWxfYmluZGluZycsICctaW1hZScsICc8aW5maWxlLm1hZT4nLCAnLW9tYWUnLCAnPG91dGZpbGUubWFlPic=

> <r_lp_tautomer_probability>
1

> <r_epik_Ionization_Penalty>
0.000992612

> <r_epik_Ionization_Penalty_Charging>
0

> <r_epik_Ionization_Penalty_Neutral>
0.000992612

> <r_epik_State_Penalty>
-0

> <r_epik_Charging_Adjusted_Penalty>
0

> <i_epik_Tot_Q>
0

> <i_epik_Tot_abs_Q>
0

> <r_epik_Metal_State_Penalty>
-0

> <b_epik_Metal_Only>
0

> <s_epik_Chemistry_Notes>
This compound contains an acetal/aminal-like group ( X-CH(R)-Y where X, Y are N, S, or O) that may be acid/base labile, releasing an aldehyde.

> <s_lp_Force_Field>
OPLS_2005

> <r_lp_Energy>
44.724

> <b_lp_Chiralities_Consistent>
1

> <s_lp_Variant>
AV-unprocessed.smi:287-32

> <Gold.Version>
5.8.1

> <Gold.Id.Protein>
6NUR|6NUR_protein|mol2

> <Gold.PLP.Fitness>
51.4111

> <Gold.PLP.PLP>
-36.9003

> <Gold.PLP.part.hbond>
-7.7336

> <Gold.PLP.part.metal>
0.0000

> <Gold.PLP.part.buried>
-8.3706

> <Gold.PLP.part.nonpolar>
-21.4484

> <Gold.PLP.part.repulsive>
0.4625

> <Gold.PLP.ligand.clash>
0.0000

> <Gold.PLP.ligand.torsion>
1.1721

> <Gold.PLP.Chemscore.Hbond>
4.5925

> <Gold.PLP.Chemscore.CHOScore>
1.0000

> <Gold.PLP.Chemscore.Metal>
0.0000

> <Gold.Chemscore.Hbonds>
donor molecule, donor type, donor heavy atom, donor atom, acceptor molecule, acceptor atom, score
      L1  H    23    50       P1 10747  1.00
      L1  H    25    51       P1 10186  0.54
      L1  H    27    52       P1  7921  1.00
      P1  H 10785 10796       L1    25  1.00
      P1  H 11000 11005       L1     7  1.00
      L1  C    17    47       P1  7948  1.00

> <Gold.PLP.Chemscore.Internal.Correction>
0.0776

> <Gold.Rescore>
     Score         DG    S(hbond)    S(metal)    S(lipo)     H(rot)  DE(clash)    DE(int)     intcor
     10.60     -14.84       4.37        0.00      70.48       5.27       0.26       3.98       ----

> <Gold.Chemscore.Fitness>
10.6044

> <Gold.Chemscore.DG>
-14.8438

> <Gold.Chemscore.ZeroCoef>
-5.4800

> <Gold.Chemscore.Hbond>
4.3717

> <Gold.Chemscore.Metal>
0.0000

> <Gold.Chemscore.Lipo>
70.4801

> <Gold.Chemscore.Internal_Hbond>
0.0000

> <Gold.Chemscore.DEClash>
0.2639

> <Gold.Chemscore.DEInternal>
3.9755

> <Gold.Chemscore.Rot>
5.2672

> <Gold.Chemscore.Internal.Correction>
   9.000000E+99

> <Gold.Chemscore.Hbonds>
donor molecule, donor type, donor heavy atom, donor atom, acceptor molecule, acceptor atom, score
      L1  H    23    50       P1 10747  0.96
      L1  H    25    51       P1 10186  0.54
      L1  H    27    52       P1  7921  0.97
      P1  H 10785 10796       L1    25  0.91
      P1  H 11000 11005       L1     7  0.35

> <Gold.Chemscore.Hbond.Weighted>
-14.6015

> <Gold.Chemscore.Metal.Weighted>
-0.0000

> <Gold.Chemscore.Lipo.Weighted>
-8.2462

> <Gold.Chemscore.Internal_Hbond.Weighted>
0.0000

> <Gold.Chemscore.DEClash.Weighted>
0.2639

> <Gold.Chemscore.DEInternal.Weighted>
3.9755

> <Gold.Chemscore.Rot.Weighted>
13.4839

> <Gold.Chemscore.Internal.Correction.Weighted>
   9.000000E+99

> <Gold.Protein.RotatedTorsions>
[ 6907 6896 6895 6894 ] final   82.22 input  -60.11 | X-H torsion
[ 7974 7965 7964 7962 ] final  132.65 input  175.53 | X-H torsion
[ 8008 7997 7996 7995 ] final -154.18 input   59.86 | X-H torsion
[ 10167 10162 10161 10158 ] final  -84.65 input  -65.29 | X-H torsion
[ 10718 10713 10712 10709 ] final  -52.85 input   66.30 | X-H torsion
[ 10763 10752 10751 10750 ] final  -57.60 input  -60.55 | X-H torsion
[ 11005 11000 10999 10996 ] final -141.72 input  -57.11 | X-H torsion

> <Gold.Protein.ActiveResidues>
 VAL166  LYS551  ARG553  GLY616  TRP617  ASP618  TYR619  PRO620  LYS621  CYS622 
 ASP623  PHE694  ASN695  SER759  ASP760  ASP761  ALA762  ILE779  LEU786  VAL792 
 PHE793  MET794  SER795  GLU796  ALA797  LYS798  CYS799  TRP800  GLU811  SER814 

> <Gold.Protein.RotatedAtoms>
  152.5292  134.3084  159.9104 H   0  0  0  0  0  0  0  0  0  0  0  0  # atno 6907 bound_to 6896
  151.3034  133.4106  159.2649 H   0  0  0  0  0  0  0  0  0  0  0  0  # atno 6908 bound_to 6896
  151.0100  134.9405  159.8059 H   0  0  0  0  0  0  0  0  0  0  0  0  # atno 6909 bound_to 6896
  144.9946  139.4372  143.5322 H   0  0  0  0  0  0  0  0  0  0  0  0  # atno 7974 bound_to 7965
  155.6823  140.0745  157.2480 H   0  0  0  0  0  0  0  0  0  0  0  0  # atno 8008 bound_to 7997
  154.4103  140.1679  156.2048 H   0  0  0  0  0  0  0  0  0  0  0  0  # atno 8009 bound_to 7997
  155.9524  140.3376  155.6422 H   0  0  0  0  0  0  0  0  0  0  0  0  # atno 8010 bound_to 7997
  140.4112  143.2622  151.9014 H   0  0  0  0  0  0  0  0  0  0  0  0  # atno 10167 bound_to 10162
  156.1585  130.4150  149.9830 H   0  0  0  0  0  0  0  0  0  0  0  0  # atno 10718 bound_to 10713
  154.2249  135.6371  153.5156 H   0  0  0  0  0  0  0  0  0  0  0  0  # atno 10763 bound_to 10752
  152.9961  135.5505  154.6074 H   0  0  0  0  0  0  0  0  0  0  0  0  # atno 10764 bound_to 10752
  154.5543  135.2904  155.0953 H   0  0  0  0  0  0  0  0  0  0  0  0  # atno 10765 bound_to 10752
  140.8297  134.2532  157.4862 H   0  0  0  0  0  0  0  0  0  0  0  0  # atno 11005 bound_to 11000
  146.3439  139.9298  142.8755 LP  0  0  0  0  0  0  0  0  0  0  0  0  # atno 17320 bound_to 7965
  145.2238  140.9945  143.4030 LP  0  0  0  0  0  0  0  0  0  0  0  0  # atno 17321 bound_to 7965
  139.4782  144.5534  151.8350 LP  0  0  0  0  0  0  0  0  0  0  0  0  # atno 17342 bound_to 10162
  140.4635  144.1688  150.5909 LP  0  0  0  0  0  0  0  0  0  0  0  0  # atno 17343 bound_to 10162
  156.7666  130.9171  151.3643 LP  0  0  0  0  0  0  0  0  0  0  0  0  # atno 17370 bound_to 10713
  157.6714  130.9054  150.0049 LP  0  0  0  0  0  0  0  0  0  0  0  0  # atno 17371 bound_to 10713
  139.8705  134.9579  156.4284 LP  0  0  0  0  0  0  0  0  0  0  0  0  # atno 17394 bound_to 11000
  140.9011  133.7778  155.9682 LP  0  0  0  0  0  0  0  0  0  0  0  0  # atno 17395 bound_to 11000

$$$$
