AV-unprocessed.smi:2104|AV-procd|sdf|8587|dock10
  -GOLD-   2272011323D 1   1.00000     0.00000
 Structure written by MMmdl.
 42 43  0  0  0  0  0  0  0  0  2 V2000
  148.2991  135.2837  165.2509 C   0  0  0  0  0  0  0  0  0  0  0  0
  148.5646  135.9518  163.9455 C   0  0  0  0  0  0  0  0  0  0  0  0
  149.1115  135.5126  162.7736 C   0  0  0  0  0  0  0  0  0  0  0  0
  149.0551  136.6611  161.9379 C   0  0  0  0  0  0  0  0  0  0  0  0
  149.4922  136.7327  160.6713 N   0  5  0  0  0  0  0  0  0  0  0  0
  150.6816  137.3150  160.3927 C   0  0  0  0  0  0  0  0  0  0  0  0
  151.7622  137.0662  160.9321 O   0  0  0  0  0  0  0  0  0  0  0  0
  150.6136  138.2472  159.4337 N   0  0  0  0  0  0  0  0  0  0  0  0
  151.7286  139.0568  158.9575 C   0  0  0  0  0  0  0  0  0  0  0  0
  151.3889  140.5470  159.0634 C   0  0  0  0  0  0  0  0  0  0  0  0
  152.4570  141.2926  158.4981 O   0  0  0  0  0  0  0  0  0  0  0  0
  152.5134  142.6546  158.8996 C   0  0  2  0  0  0  0  0  0  0  0  0
  152.5632  142.7383  160.4396 C   0  0  0  0  0  0  0  0  0  0  0  0
  152.4712  144.1908  160.9299 C   0  0  0  0  0  0  0  0  0  0  0  0
  151.2120  144.8780  160.3834 C   0  0  0  0  0  0  0  0  0  0  0  0
  151.1681  144.8082  158.8495 C   0  0  0  0  0  0  0  0  0  0  0  0
  151.2544  143.3553  158.3412 C   0  0  1  0  0  0  0  0  0  0  0  0
  151.2162  143.3128  156.8043 C   0  0  0  0  0  0  0  0  0  0  0  0
  148.5372  137.7104  162.5545 N   0  0  0  0  0  0  0  0  0  0  0  0
  148.2126  137.2614  163.8405 O   0  0  0  0  0  0  0  0  0  0  0  0
  149.1076  134.5983  165.5055 H   0  0  0  0  0  0  0  0  0  0  0  0
  147.3717  134.7128  165.2086 H   0  0  0  0  0  0  0  0  0  0  0  0
  148.2111  136.0146  166.0550 H   0  0  0  0  0  0  0  0  0  0  0  0
  149.4874  134.5265  162.5463 H   0  0  0  0  0  0  0  0  0  0  0  0
  149.7100  138.4248  159.0205 H   0  0  0  0  0  0  0  0  0  0  0  0
  152.6313  138.8424  159.5319 H   0  0  0  0  0  0  0  0  0  0  0  0
  151.9352  138.7931  157.9198 H   0  0  0  0  0  0  0  0  0  0  0  0
  150.4605  140.7535  158.5305 H   0  0  0  0  0  0  0  0  0  0  0  0
  151.2361  140.8216  160.1084 H   0  0  0  0  0  0  0  0  0  0  0  0
  153.3948  143.1404  158.4761 H   0  0  0  0  0  0  0  0  0  0  0  0
  151.7404  142.1606  160.8628 H   0  0  0  0  0  0  0  0  0  0  0  0
  153.4813  142.2886  160.8170 H   0  0  0  0  0  0  0  0  0  0  0  0
  152.4653  144.2160  162.0200 H   0  0  0  0  0  0  0  0  0  0  0  0
  153.3571  144.7416  160.6117 H   0  0  0  0  0  0  0  0  0  0  0  0
  150.3234  144.3997  160.7977 H   0  0  0  0  0  0  0  0  0  0  0  0
  151.1844  145.9181  160.7094 H   0  0  0  0  0  0  0  0  0  0  0  0
  150.2500  145.2747  158.4903 H   0  0  0  0  0  0  0  0  0  0  0  0
  151.9919  145.3925  158.4373 H   0  0  0  0  0  0  0  0  0  0  0  0
  150.3775  142.8199  158.7086 H   0  0  0  0  0  0  0  0  0  0  0  0
  152.0814  143.8163  156.3722 H   0  0  0  0  0  0  0  0  0  0  0  0
  150.3202  143.8003  156.4199 H   0  0  0  0  0  0  0  0  0  0  0  0
  151.2116  142.2869  156.4345 H   0  0  0  0  0  0  0  0  0  0  0  0
  1  2  1  0  0  0  0
  1 21  1  0  0  0  0
  1 22  1  0  0  0  0
  1 23  1  0  0  0  0
  2 20  1  0  0  0  0
  2  3  2  0  0  0  0
  3  4  1  0  0  0  0
  3 24  1  0  0  0  0
  4  5  1  0  0  0  0
  4 19  2  0  0  0  0
  5  6  1  0  0  0  0
  6  7  2  0  0  0  0
  6  8  1  0  0  0  0
  8  9  1  0  0  0  0
  8 25  1  0  0  0  0
  9 10  1  0  0  0  0
  9 26  1  0  0  0  0
  9 27  1  0  0  0  0
 10 11  1  0  0  0  0
 10 28  1  0  0  0  0
 10 29  1  0  0  0  0
 11 12  1  0  0  0  0
 12 17  1  0  0  0  0
 12 13  1  0  0  0  0
 12 30  1  0  0  0  0
 13 14  1  0  0  0  0
 13 31  1  0  0  0  0
 13 32  1  0  0  0  0
 14 15  1  0  0  0  0
 14 33  1  0  0  0  0
 14 34  1  0  0  0  0
 15 16  1  0  0  0  0
 15 35  1  0  0  0  0
 15 36  1  0  0  0  0
 16 17  1  0  0  0  0
 16 37  1  0  0  0  0
 16 38  1  0  0  0  0
 17 18  1  0  0  0  0
 17 39  1  0  0  0  0
 18 40  1  0  0  0  0
 18 41  1  0  0  0  0
 18 42  1  0  0  0  0
 19 20  1  0  0  0  0
M  CHG  1   5  -1
M  END
> <s_m_source_file>
AV-unprocessed.smi

> <i_m_source_file_index>
2104

> <i_lp_mmshare_version>
43012

> <i_f3d_flags>
0

> <s_epik_input>
W0NIM11jMVtjSF1jKG5vMSlbTkhdQyg9TylbTkhdW0NIMl1bQ0gyXU9bQ0BASF0yW0NIMl1bQ0gyXVtDSDJdW0NIMl1bQ0BIXTJbQ0gzXQ==

> <s_epik_cmdline>
J2VwaWtfcHl0aG9uJywgJy1waCcsICc3LjAnLCAnLXRuJywgJzgnLCAnLW1hJywgJzIwMCcsICctbWV0YWxfYmluZGluZycsICctaW1hZScsICc8aW5maWxlLm1hZT4nLCAnLW9tYWUnLCAnPG91dGZpbGUubWFlPic=

> <r_lp_tautomer_probability>
1

> <r_epik_Ionization_Penalty>
6.47137

> <r_epik_Ionization_Penalty_Charging>
6.47125

> <r_epik_Ionization_Penalty_Neutral>
0.000118933

> <r_epik_State_Penalty>
6.47124

> <r_epik_Charging_Adjusted_Penalty>
12.9425

> <i_epik_Tot_Q>
-1

> <i_epik_Tot_abs_Q>
1

> <r_epik_Metal_State_Penalty>
2.3995

> <b_epik_Metal_Only>
1

> <s_lp_Force_Field>
OPLS_2005

> <r_lp_Energy>
5.464

> <b_lp_Chiralities_Consistent>
1

> <s_lp_Variant>
AV-unprocessed.smi:2104-5

> <Gold.Version>
5.8.1

> <Gold.Id.Protein>
6NUR|6NUR_protein|mol2

> <Gold.PLP.Fitness>
51.5986

> <Gold.PLP.PLP>
-45.8836

> <Gold.PLP.part.hbond>
-3.0000

> <Gold.PLP.part.metal>
0.0000

> <Gold.PLP.part.buried>
-5.6714

> <Gold.PLP.part.nonpolar>
-37.5489

> <Gold.PLP.part.repulsive>
0.1381

> <Gold.PLP.ligand.clash>
0.0000

> <Gold.PLP.ligand.torsion>
1.2943

> <Gold.PLP.Chemscore.Hbond>
2.7440

> <Gold.PLP.Chemscore.CHOScore>
0.0000

> <Gold.PLP.Chemscore.Metal>
0.0000

> <Gold.PLP.Chemscore.Internal.Correction>
0.0715

> <Gold.Rescore>
     Score         DG    S(hbond)    S(metal)    S(lipo)     H(rot)  DE(clash)    DE(int)     intcor
     20.77     -22.26       2.45        0.00     110.94       1.71       0.13       1.35       ----

> <Gold.Chemscore.Fitness>
20.7733

> <Gold.Chemscore.DG>
-22.2609

> <Gold.Chemscore.ZeroCoef>
-5.4800

> <Gold.Chemscore.Hbond>
2.4489

> <Gold.Chemscore.Metal>
0.0000

> <Gold.Chemscore.Lipo>
110.9391

> <Gold.Chemscore.Internal_Hbond>
0.0000

> <Gold.Chemscore.DEClash>
0.1344

> <Gold.Chemscore.DEInternal>
1.3532

> <Gold.Chemscore.Rot>
1.7103

> <Gold.Chemscore.Internal.Correction>
   9.000000E+99

> <Gold.Chemscore.Hbond.Weighted>
-8.1794

> <Gold.Chemscore.Metal.Weighted>
-0.0000

> <Gold.Chemscore.Lipo.Weighted>
-12.9799

> <Gold.Chemscore.Internal_Hbond.Weighted>
0.0000

> <Gold.Chemscore.DEClash.Weighted>
0.1344

> <Gold.Chemscore.DEInternal.Weighted>
1.3532

> <Gold.Chemscore.Rot.Weighted>
4.3784

> <Gold.Chemscore.Internal.Correction.Weighted>
   9.000000E+99

> <Gold.Protein.RotatedTorsions>
[ 6907 6896 6895 6894 ] final   86.67 input  -60.11 | X-H torsion
[ 7974 7965 7964 7962 ] final  -43.08 input  175.53 | X-H torsion
[ 8008 7997 7996 7995 ] final -152.37 input   59.86 | X-H torsion
[ 10167 10162 10161 10158 ] final  143.01 input  -65.29 | X-H torsion
[ 10718 10713 10712 10709 ] final  115.47 input   66.30 | X-H torsion
[ 10763 10752 10751 10750 ] final -129.90 input  -60.55 | X-H torsion
[ 11005 11000 10999 10996 ] final  -38.41 input  -57.11 | X-H torsion

> <Gold.Protein.ActiveResidues>
 VAL166  LYS551  ARG553  GLY616  TRP617  ASP618  TYR619  PRO620  LYS621  CYS622 
 ASP623  PHE694  ASN695  SER759  ASP760  ASP761  ALA762  ILE779  LEU786  VAL792 
 PHE793  MET794  SER795  GLU796  ALA797  LYS798  CYS799  TRP800  GLU811  SER814 

> <Gold.Protein.RotatedAtoms>
  152.5398  134.2395  159.8856 H   0  0  0  0  0  0  0  0  0  0  0  0  # atno 6907 bound_to 6896
  151.2363  133.4417  159.2613 H   0  0  0  0  0  0  0  0  0  0  0  0  # atno 6908 bound_to 6896
  151.0668  134.9786  159.8345 H   0  0  0  0  0  0  0  0  0  0  0  0  # atno 6909 bound_to 6896
  146.0054  140.7026  142.9250 H   0  0  0  0  0  0  0  0  0  0  0  0  # atno 7974 bound_to 7965
  155.6541  140.0715  157.2577 H   0  0  0  0  0  0  0  0  0  0  0  0  # atno 8008 bound_to 7997
  154.4156  140.1728  156.1756 H   0  0  0  0  0  0  0  0  0  0  0  0  # atno 8009 bound_to 7997
  155.9752  140.3358  155.6615 H   0  0  0  0  0  0  0  0  0  0  0  0  # atno 8010 bound_to 7997
  139.4980  144.6069  151.6359 H   0  0  0  0  0  0  0  0  0  0  0  0  # atno 10167 bound_to 10162
  157.6220  131.1013  150.7334 H   0  0  0  0  0  0  0  0  0  0  0  0  # atno 10718 bound_to 10713
  154.8757  135.3880  154.3995 H   0  0  0  0  0  0  0  0  0  0  0  0  # atno 10763 bound_to 10752
  153.4721  135.7030  153.5992 H   0  0  0  0  0  0  0  0  0  0  0  0  # atno 10764 bound_to 10752
  153.4445  135.3848  155.2215 H   0  0  0  0  0  0  0  0  0  0  0  0  # atno 10765 bound_to 10752
  141.0025  133.6948  156.2049 H   0  0  0  0  0  0  0  0  0  0  0  0  # atno 11005 bound_to 11000
  144.6934  140.3305  143.7217 LP  0  0  0  0  0  0  0  0  0  0  0  0  # atno 17320 bound_to 7965
  145.7424  139.1768  143.2368 LP  0  0  0  0  0  0  0  0  0  0  0  0  # atno 17321 bound_to 7965
  140.5733  144.0072  150.6228 LP  0  0  0  0  0  0  0  0  0  0  0  0  # atno 17342 bound_to 10162
  140.3197  143.3145  152.0797 LP  0  0  0  0  0  0  0  0  0  0  0  0  # atno 17343 bound_to 10162
  156.7690  130.4823  149.5422 LP  0  0  0  0  0  0  0  0  0  0  0  0  # atno 17370 bound_to 10713
  156.1370  130.6218  151.0414 LP  0  0  0  0  0  0  0  0  0  0  0  0  # atno 17371 bound_to 10713
  140.6866  134.4711  157.5589 LP  0  0  0  0  0  0  0  0  0  0  0  0  # atno 17394 bound_to 11000
  139.9046  134.8478  156.1757 LP  0  0  0  0  0  0  0  0  0  0  0  0  # atno 17395 bound_to 11000

$$$$
