AV-unprocessed.smi:1852|AV-procd|sdf|7525|dock3
  -GOLD-   22720 9233D 1   1.00000     0.00000
 Structure written by MMmdl.
 45 47  0  0  0  0  0  0  0  0  1 V2000
  154.5162  140.4359  160.3086 C   0  0  0  0  0  0  0  0  0  0  0  0
  153.5754  141.6231  160.2844 C   0  0  0  0  0  0  0  0  0  0  0  0
  153.3214  142.3544  161.4611 C   0  0  0  0  0  0  0  0  0  0  0  0
  152.4470  143.4555  161.4286 C   0  0  0  0  0  0  0  0  0  0  0  0
  151.8223  143.8329  160.2219 C   0  0  0  0  0  0  0  0  0  0  0  0
  150.8853  145.0260  160.2034 C   0  0  0  0  0  0  0  0  0  0  0  0
  152.0697  143.1082  159.0331 C   0  0  0  0  0  0  0  0  0  0  0  0
  151.4258  143.5295  157.8888 O   0  0  0  0  0  0  0  0  0  0  0  0
  151.4012  142.6642  156.7617 C   0  0  0  0  0  0  0  0  0  0  0  0
  150.6291  141.3867  157.1224 C   0  0  0  0  0  0  0  0  0  0  0  0
  150.1837  140.6628  155.9399 N   0  0  0  0  0  0  0  0  0  0  0  0
  150.7435  139.5703  155.3612 C   0  0  0  0  0  0  0  0  0  0  0  0
  151.9758  138.9124  155.9113 C   0  0  0  0  0  0  0  0  0  0  0  0
  151.6554  137.5454  156.3099 N   0  0  0  0  0  0  0  0  0  0  0  0
  151.3939  136.5365  155.4667 C   0  0  0  0  0  0  0  0  0  0  0  0
  151.3983  136.6338  154.2408 O   0  0  0  0  0  0  0  0  0  0  0  0
  150.1299  139.1151  154.2681 N   0  0  0  0  0  0  0  0  0  0  0  0
  149.0718  139.9908  154.1254 C   0  0  0  0  0  0  0  0  0  0  0  0
  148.0483  140.0435  153.1524 C   0  0  0  0  0  0  0  0  0  0  0  0
  147.0611  141.0492  153.2087 C   0  0  0  0  0  0  0  0  0  0  0  0
  147.0824  142.0136  154.2369 C   0  0  0  0  0  0  0  0  0  0  0  0
  148.0916  141.9766  155.2180 C   0  0  0  0  0  0  0  0  0  0  0  0
  149.0758  140.9719  155.1566 C   0  0  0  0  0  0  0  0  0  0  0  0
  152.9530  141.9995  159.0771 C   0  0  0  0  0  0  0  0  0  0  0  0
  154.8317  140.1983  161.3250 H   0  0  0  0  0  0  0  0  0  0  0  0
  155.4059  140.6487  159.7156 H   0  0  0  0  0  0  0  0  0  0  0  0
  154.0274  139.5550  159.8914 H   0  0  0  0  0  0  0  0  0  0  0  0
  153.7949  142.0753  162.3911 H   0  0  0  0  0  0  0  0  0  0  0  0
  152.2590  144.0106  162.3360 H   0  0  0  0  0  0  0  0  0  0  0  0
  149.8940  144.7247  159.8636 H   0  0  0  0  0  0  0  0  0  0  0  0
  151.2629  145.7926  159.5259 H   0  0  0  0  0  0  0  0  0  0  0  0
  150.7828  145.4698  161.1940 H   0  0  0  0  0  0  0  0  0  0  0  0
  150.9188  143.1603  155.9183 H   0  0  0  0  0  0  0  0  0  0  0  0
  152.4173  142.4020  156.4639 H   0  0  0  0  0  0  0  0  0  0  0  0
  151.2427  140.7329  157.7415 H   0  0  0  0  0  0  0  0  0  0  0  0
  149.7541  141.6392  157.7219 H   0  0  0  0  0  0  0  0  0  0  0  0
  152.7702  138.9254  155.1630 H   0  0  0  0  0  0  0  0  0  0  0  0
  152.3453  139.4684  156.7723 H   0  0  0  0  0  0  0  0  0  0  0  0
  151.6236  137.3547  157.3006 H   0  0  0  0  0  0  0  0  0  0  0  0
  151.1746  135.6105  156.0203 H   0  0  0  0  0  0  0  0  0  0  0  0
  148.0238  139.3097  152.3606 H   0  0  0  0  0  0  0  0  0  0  0  0
  146.2840  141.0810  152.4591 H   0  0  0  0  0  0  0  0  0  0  0  0
  146.3245  142.7822  154.2719 H   0  0  0  0  0  0  0  0  0  0  0  0
  148.1132  142.7160  156.0046 H   0  0  0  0  0  0  0  0  0  0  0  0
  153.1679  141.4186  158.1930 H   0  0  0  0  0  0  0  0  0  0  0  0
  1  2  1  0  0  0  0
  1 25  1  0  0  0  0
  1 26  1  0  0  0  0
  1 27  1  0  0  0  0
  2 24  1  0  0  0  0
  2  3  2  0  0  0  0
  3  4  1  0  0  0  0
  3 28  1  0  0  0  0
  4  5  2  0  0  0  0
  4 29  1  0  0  0  0
  5  6  1  0  0  0  0
  5  7  1  0  0  0  0
  6 30  1  0  0  0  0
  6 31  1  0  0  0  0
  6 32  1  0  0  0  0
  7  8  1  0  0  0  0
  7 24  2  0  0  0  0
  8  9  1  0  0  0  0
  9 10  1  0  0  0  0
  9 33  1  0  0  0  0
  9 34  1  0  0  0  0
 10 11  1  0  0  0  0
 10 35  1  0  0  0  0
 10 36  1  0  0  0  0
 11 23  1  0  0  0  0
 11 12  1  0  0  0  0
 12 13  1  0  0  0  0
 12 17  2  0  0  0  0
 13 14  1  0  0  0  0
 13 37  1  0  0  0  0
 13 38  1  0  0  0  0
 14 15  1  0  0  0  0
 14 39  1  0  0  0  0
 15 16  2  0  0  0  0
 15 40  1  0  0  0  0
 17 18  1  0  0  0  0
 18 23  2  0  0  0  0
 18 19  1  0  0  0  0
 19 20  2  0  0  0  0
 19 41  1  0  0  0  0
 20 21  1  0  0  0  0
 20 42  1  0  0  0  0
 21 22  2  0  0  0  0
 21 43  1  0  0  0  0
 22 23  1  0  0  0  0
 22 44  1  0  0  0  0
 24 45  1  0  0  0  0
M  END
> <s_m_source_file>
AV-unprocessed.smi

> <i_m_source_file_index>
1852

> <i_lp_mmshare_version>
43012

> <i_f3d_flags>
0

> <s_epik_input>
W0NIM11jMVtjSF1bY0hdYyhbQ0gzXSljKFtjSF0xKU9bQ0gyXVtDSDJdbihjKG4yKVtDSDJdW05IXVtDSF09TyljKGMyMylbY0hdW2NIXVtjSF1bY0hdMw==

> <s_epik_cmdline>
J2VwaWtfcHl0aG9uJywgJy1waCcsICc3LjAnLCAnLXRuJywgJzgnLCAnLW1hJywgJzIwMCcsICctbWV0YWxfYmluZGluZycsICctaW1hZScsICc8aW5maWxlLm1hZT4nLCAnLW9tYWUnLCAnPG91dGZpbGUubWFlPic=

> <r_lp_tautomer_probability>
1

> <r_epik_Ionization_Penalty>
0.0587233

> <r_epik_Ionization_Penalty_Charging>
0

> <r_epik_Ionization_Penalty_Neutral>
0.0587233

> <r_epik_State_Penalty>
0.0508012

> <r_epik_Charging_Adjusted_Penalty>
0.0508012

> <i_epik_Tot_Q>
0

> <i_epik_Tot_abs_Q>
0

> <r_epik_Metal_State_Penalty>
0.0461886

> <b_epik_Metal_Only>
0

> <s_lp_Force_Field>
OPLS_2005

> <r_lp_Energy>
11.3216

> <b_lp_Chiralities_Consistent>
1

> <s_lp_Variant>
AV-unprocessed.smi:1852-1

> <Gold.Version>
5.8.1

> <Gold.Id.Protein>
6NUR|6NUR_protein|mol2

> <Gold.PLP.Fitness>
52.6197

> <Gold.PLP.PLP>
-50.7234

> <Gold.PLP.part.hbond>
-1.0000

> <Gold.PLP.part.metal>
0.0000

> <Gold.PLP.part.buried>
-1.2118

> <Gold.PLP.part.nonpolar>
-50.0196

> <Gold.PLP.part.repulsive>
0.5142

> <Gold.PLP.ligand.clash>
0.0000

> <Gold.PLP.ligand.torsion>
0.5938

> <Gold.PLP.Chemscore.Hbond>
1.0000

> <Gold.PLP.Chemscore.CHOScore>
0.0000

> <Gold.PLP.Chemscore.Metal>
0.0000

> <Gold.Chemscore.Hbonds>
donor molecule, donor type, donor heavy atom, donor atom, acceptor molecule, acceptor atom, score
      P1  H 10752 10763       L1    16  0.10

> <Gold.PLP.Chemscore.Internal.Correction>
0.0839

> <Gold.Rescore>
     Score         DG    S(hbond)    S(metal)    S(lipo)     H(rot)  DE(clash)    DE(int)     intcor
     18.08     -19.20       0.99        0.00     141.18       2.38       0.50       0.62       ----

> <Gold.Chemscore.Fitness>
18.0777

> <Gold.Chemscore.DG>
-19.2050

> <Gold.Chemscore.ZeroCoef>
-5.4800

> <Gold.Chemscore.Hbond>
0.9874

> <Gold.Chemscore.Metal>
0.0000

> <Gold.Chemscore.Lipo>
141.1758

> <Gold.Chemscore.Internal_Hbond>
0.0000

> <Gold.Chemscore.DEClash>
0.5043

> <Gold.Chemscore.DEInternal>
0.6230

> <Gold.Chemscore.Rot>
2.3791

> <Gold.Chemscore.Internal.Correction>
   9.000000E+99

> <Gold.Chemscore.Hbond.Weighted>
-3.2980

> <Gold.Chemscore.Metal.Weighted>
-0.0000

> <Gold.Chemscore.Lipo.Weighted>
-16.5176

> <Gold.Chemscore.Internal_Hbond.Weighted>
0.0000

> <Gold.Chemscore.DEClash.Weighted>
0.5043

> <Gold.Chemscore.DEInternal.Weighted>
0.6230

> <Gold.Chemscore.Rot.Weighted>
6.0906

> <Gold.Chemscore.Internal.Correction.Weighted>
   9.000000E+99

> <Gold.Protein.RotatedTorsions>
[ 6907 6896 6895 6894 ] final -113.70 input  -60.11 | X-H torsion
[ 7974 7965 7964 7962 ] final   85.77 input  175.53 | X-H torsion
[ 8008 7997 7996 7995 ] final  -41.82 input   59.86 | X-H torsion
[ 10167 10162 10161 10158 ] final -130.51 input  -65.29 | X-H torsion
[ 10718 10713 10712 10709 ] final  -93.61 input   66.30 | X-H torsion
[ 10763 10752 10751 10750 ] final   50.26 input  -60.55 | X-H torsion
[ 11005 11000 10999 10996 ] final   66.53 input  -57.11 | X-H torsion

> <Gold.Protein.ActiveResidues>
 VAL166  LYS551  ARG553  GLY616  TRP617  ASP618  TYR619  PRO620  LYS621  CYS622 
 ASP623  PHE694  ASN695  SER759  ASP760  ASP761  ALA762  ILE779  LEU786  VAL792 
 PHE793  MET794  SER795  GLU796  ALA797  LYS798  CYS799  TRP800  GLU811  SER814 

> <Gold.Protein.RotatedAtoms>
  150.7848  133.8906  159.3312 H   0  0  0  0  0  0  0  0  0  0  0  0  # atno 6907 bound_to 6896
  151.6760  135.0967  160.0216 H   0  0  0  0  0  0  0  0  0  0  0  0  # atno 6908 bound_to 6896
  152.3909  133.6639  159.6272 H   0  0  0  0  0  0  0  0  0  0  0  0  # atno 6909 bound_to 6896
  145.5811  139.2325  143.2352 H   0  0  0  0  0  0  0  0  0  0  0  0  # atno 7974 bound_to 7965
  154.4002  140.1489  156.3253 H   0  0  0  0  0  0  0  0  0  0  0  0  # atno 8008 bound_to 7997
  155.8492  140.3458  155.5661 H   0  0  0  0  0  0  0  0  0  0  0  0  # atno 8009 bound_to 7997
  155.8002  140.0869  157.1951 H   0  0  0  0  0  0  0  0  0  0  0  0  # atno 8010 bound_to 7997
  139.9286  143.6298  152.2535 H   0  0  0  0  0  0  0  0  0  0  0  0  # atno 10167 bound_to 10162
  156.0016  130.5034  150.5803 H   0  0  0  0  0  0  0  0  0  0  0  0  # atno 10718 bound_to 10713
  152.9785  135.5885  154.4223 H   0  0  0  0  0  0  0  0  0  0  0  0  # atno 10763 bound_to 10752
  154.3846  135.2767  155.2193 H   0  0  0  0  0  0  0  0  0  0  0  0  # atno 10764 bound_to 10752
  154.4092  135.6085  153.5997 H   0  0  0  0  0  0  0  0  0  0  0  0  # atno 10765 bound_to 10752
  139.9826  134.6719  156.0234 H   0  0  0  0  0  0  0  0  0  0  0  0  # atno 11005 bound_to 11000
  146.1715  140.6638  142.9231 LP  0  0  0  0  0  0  0  0  0  0  0  0  # atno 17320 bound_to 7965
  144.7393  140.4898  143.6880 LP  0  0  0  0  0  0  0  0  0  0  0  0  # atno 17321 bound_to 7965
  139.6801  144.7656  151.1624 LP  0  0  0  0  0  0  0  0  0  0  0  0  # atno 17342 bound_to 10162
  140.7643  143.5737  150.8968 LP  0  0  0  0  0  0  0  0  0  0  0  0  # atno 17343 bound_to 10162
  157.3684  131.0761  151.1578 LP  0  0  0  0  0  0  0  0  0  0  0  0  # atno 17370 bound_to 10713
  157.2340  130.6538  149.5861 LP  0  0  0  0  0  0  0  0  0  0  0  0  # atno 17371 bound_to 10713
  141.1496  133.6550  156.3972 LP  0  0  0  0  0  0  0  0  0  0  0  0  # atno 17394 bound_to 11000
  140.5066  134.6435  157.5268 LP  0  0  0  0  0  0  0  0  0  0  0  0  # atno 17395 bound_to 11000

$$$$
