AV-unprocessed.smi:3127|AV-procd|sdf|11915|dock2
  -GOLD-   2272017293D 1   1.00000     0.00000
 Structure written by MMmdl.
 34 35  0  0  0  0  0  0  0  0  2 V2000
  152.1070  144.5685  157.6924 C   0  0  0  0  0  0  0  0  0  0  0  0
  151.5463  143.4423  158.5830 C   0  0  0  0  0  0  0  0  0  0  0  0
  152.4581  143.2399  159.8093 C   0  0  0  0  0  0  0  0  0  0  0  0
  150.1566  143.8832  159.0911 C   0  0  0  0  0  0  0  0  0  0  0  0
  151.4554  142.1538  157.7894 C   0  0  0  0  0  0  0  0  0  0  0  0
  152.0578  140.9458  158.0581 C   0  0  0  0  0  0  0  0  0  0  0  0
  151.6646  139.7313  156.8729 S   0  0  0  0  0  0  0  0  0  0  0  0
  150.6920  140.9210  156.0209 C   0  0  0  0  0  0  0  0  0  0  0  0
  149.9154  140.6025  154.7839 C   0  0  1  0  0  0  0  0  0  0  0  0
  149.9911  139.1097  154.4117 C   0  0  0  0  0  0  0  0  0  0  0  0
  149.1358  138.8381  153.2399 N   0  3  0  0  0  0  0  0  0  0  0  0
  147.7489  139.2922  153.4658 C   0  0  0  0  0  0  0  0  0  0  0  0
  147.7365  140.7756  153.8754 C   0  0  0  0  0  0  0  0  0  0  0  0
  148.5569  140.9646  155.0236 O   0  0  0  0  0  0  0  0  0  0  0  0
  150.6730  142.1108  156.6278 N   0  0  0  0  0  0  0  0  0  0  0  0
  152.1641  145.5128  158.2347 H   0  0  0  0  0  0  0  0  0  0  0  0
  151.4779  144.7298  156.8160 H   0  0  0  0  0  0  0  0  0  0  0  0
  153.1123  144.3385  157.3377 H   0  0  0  0  0  0  0  0  0  0  0  0
  153.4736  142.9709  159.5162 H   0  0  0  0  0  0  0  0  0  0  0  0
  152.0818  142.4460  160.4556 H   0  0  0  0  0  0  0  0  0  0  0  0
  152.5250  144.1482  160.4093 H   0  0  0  0  0  0  0  0  0  0  0  0
  150.2192  144.8087  159.6647 H   0  0  0  0  0  0  0  0  0  0  0  0
  149.7110  143.1298  159.7422 H   0  0  0  0  0  0  0  0  0  0  0  0
  149.4650  144.0612  158.2664 H   0  0  0  0  0  0  0  0  0  0  0  0
  152.7075  140.6905  158.8823 H   0  0  0  0  0  0  0  0  0  0  0  0
  150.3116  141.2128  153.9701 H   0  0  0  0  0  0  0  0  0  0  0  0
  151.0175  138.8194  154.1852 H   0  0  0  0  0  0  0  0  0  0  0  0
  149.6573  138.4910  155.2462 H   0  0  0  0  0  0  0  0  0  0  0  0
  149.5124  139.3312  152.4429 H   0  0  0  0  0  0  0  0  0  0  0  0
  147.1655  139.1388  152.5577 H   0  0  0  0  0  0  0  0  0  0  0  0
  147.2945  138.6823  154.2477 H   0  0  0  0  0  0  0  0  0  0  0  0
  148.0859  141.4086  153.0581 H   0  0  0  0  0  0  0  0  0  0  0  0
  146.7205  141.0926  154.1112 H   0  0  0  0  0  0  0  0  0  0  0  0
  149.1373  137.8468  153.0451 H   0  0  0  0  0  0  0  0  0  0  0  0
  1  2  1  0  0  0  0
  1 16  1  0  0  0  0
  1 17  1  0  0  0  0
  1 18  1  0  0  0  0
  2  3  1  0  0  0  0
  2  4  1  0  0  0  0
  2  5  1  0  0  0  0
  3 19  1  0  0  0  0
  3 20  1  0  0  0  0
  3 21  1  0  0  0  0
  4 22  1  0  0  0  0
  4 23  1  0  0  0  0
  4 24  1  0  0  0  0
  5 15  1  0  0  0  0
  5  6  2  0  0  0  0
  6  7  1  0  0  0  0
  6 25  1  0  0  0  0
  7  8  1  0  0  0  0
  8  9  1  0  0  0  0
  8 15  2  0  0  0  0
  9 14  1  0  0  0  0
  9 10  1  0  0  0  0
  9 26  1  0  0  0  0
 10 11  1  0  0  0  0
 10 27  1  0  0  0  0
 10 28  1  0  0  0  0
 11 12  1  0  0  0  0
 11 29  1  0  0  0  0
 11 34  1  0  0  0  0
 12 13  1  0  0  0  0
 12 30  1  0  0  0  0
 12 31  1  0  0  0  0
 13 14  1  0  0  0  0
 13 32  1  0  0  0  0
 13 33  1  0  0  0  0
M  CHG  1  11   1
M  END
> <s_m_source_file>
AV-unprocessed.smi

> <i_m_source_file_index>
3127

> <i_lp_mmshare_version>
43012

> <i_f3d_flags>
0

> <s_epik_input>
W0NIM11DKFtDSDNdKShbQ0gzXSljMVtjSF1zYyhuMSlbQ0BASF0yW0NIMl1bTkhdW0NIMl1bQ0gyXU8y

> <s_epik_cmdline>
J2VwaWtfcHl0aG9uJywgJy1waCcsICc3LjAnLCAnLXRuJywgJzgnLCAnLW1hJywgJzIwMCcsICctbWV0YWxfYmluZGluZycsICctaW1hZScsICc8aW5maWxlLm1hZT4nLCAnLW9tYWUnLCAnPG91dGZpbGUubWFlPic=

> <r_epik_Ionization_Penalty>
0.125708

> <r_epik_Ionization_Penalty_Charging>
0.125708

> <r_epik_Ionization_Penalty_Neutral>
5.37588e-07

> <r_epik_State_Penalty>
0.0155352

> <r_epik_Charging_Adjusted_Penalty>
0.141243

> <i_epik_Tot_Q>
1

> <i_epik_Tot_abs_Q>
1

> <r_epik_Metal_State_Penalty>
0.0155796

> <b_epik_Metal_Only>
0

> <s_lp_Force_Field>
OPLS_2005

> <r_lp_Energy>
5.69117

> <b_lp_Chiralities_Consistent>
1

> <s_lp_Variant>
AV-unprocessed.smi:3127-2

> <Gold.Version>
5.8.1

> <Gold.Id.Protein>
6NUR|6NUR_protein|mol2

> <Gold.PLP.Fitness>
41.6465

> <Gold.PLP.PLP>
-32.7828

> <Gold.PLP.part.hbond>
-1.9402

> <Gold.PLP.part.metal>
0.0000

> <Gold.PLP.part.buried>
-3.3556

> <Gold.PLP.part.nonpolar>
-27.9157

> <Gold.PLP.part.repulsive>
0.3009

> <Gold.PLP.ligand.clash>
0.0000

> <Gold.PLP.ligand.torsion>
0.0744

> <Gold.PLP.Chemscore.Hbond>
3.0000

> <Gold.PLP.Chemscore.CHOScore>
0.0000

> <Gold.PLP.Chemscore.Metal>
0.0000

> <Gold.Chemscore.Hbonds>
donor molecule, donor type, donor heavy atom, donor atom, acceptor molecule, acceptor atom, score
      L1  H    11    29       P1  7957  0.83
      L1  H    11    34       P1  7948  2.00

> <Gold.PLP.Chemscore.Internal.Correction>
0.0126

> <Gold.Rescore>
     Score         DG    S(hbond)    S(metal)    S(lipo)     H(rot)  DE(clash)    DE(int)     intcor
     20.53     -20.74       1.92        0.00     100.59       1.14       0.20       0.01       ----

> <Gold.Chemscore.Fitness>
20.5308

> <Gold.Chemscore.DG>
-20.7441

> <Gold.Chemscore.ZeroCoef>
-5.4800

> <Gold.Chemscore.Hbond>
1.9196

> <Gold.Chemscore.Metal>
0.0000

> <Gold.Chemscore.Lipo>
100.5930

> <Gold.Chemscore.Internal_Hbond>
0.0000

> <Gold.Chemscore.DEClash>
0.1996

> <Gold.Chemscore.DEInternal>
0.0138

> <Gold.Chemscore.Rot>
1.1393

> <Gold.Chemscore.Internal.Correction>
   9.000000E+99

> <Gold.Chemscore.Hbonds>
donor molecule, donor type, donor heavy atom, donor atom, acceptor molecule, acceptor atom, score
      L1  H    11    29       P1  7957  0.80
      L1  H    11    34       P1  7948  0.94

> <Gold.Chemscore.Hbond.Weighted>
-6.4115

> <Gold.Chemscore.Metal.Weighted>
-0.0000

> <Gold.Chemscore.Lipo.Weighted>
-11.7694

> <Gold.Chemscore.Internal_Hbond.Weighted>
0.0000

> <Gold.Chemscore.DEClash.Weighted>
0.1996

> <Gold.Chemscore.DEInternal.Weighted>
0.0138

> <Gold.Chemscore.Rot.Weighted>
2.9167

> <Gold.Chemscore.Internal.Correction.Weighted>
   9.000000E+99

> <Gold.Protein.RotatedTorsions>
[ 6907 6896 6895 6894 ] final -142.47 input  -60.11 | X-H torsion
[ 7974 7965 7964 7962 ] final   76.55 input  175.53 | X-H torsion
[ 8008 7997 7996 7995 ] final   74.81 input   59.86 | X-H torsion
[ 10167 10162 10161 10158 ] final  -12.60 input  -65.29 | X-H torsion
[ 10718 10713 10712 10709 ] final   15.47 input   66.30 | X-H torsion
[ 10763 10752 10751 10750 ] final   16.61 input  -60.55 | X-H torsion
[ 11005 11000 10999 10996 ] final  -75.61 input  -57.11 | X-H torsion

> <Gold.Protein.ActiveResidues>
 VAL166  LYS551  ARG553  GLY616  TRP617  ASP618  TYR619  PRO620  LYS621  CYS622 
 ASP623  PHE694  ASN695  SER759  ASP760  ASP761  ALA762  ILE779  LEU786  VAL792 
 PHE793  MET794  SER795  GLU796  ALA797  LYS798  CYS799  TRP800  GLU811  SER814 

> <Gold.Protein.RotatedAtoms>
  151.0875  133.5341  159.2616 H   0  0  0  0  0  0  0  0  0  0  0  0  # atno 6907 bound_to 6896
  151.2221  135.0522  159.8964 H   0  0  0  0  0  0  0  0  0  0  0  0  # atno 6908 bound_to 6896
  152.5430  134.0676  159.8233 H   0  0  0  0  0  0  0  0  0  0  0  0  # atno 6909 bound_to 6896
  145.7014  139.2584  143.1703 H   0  0  0  0  0  0  0  0  0  0  0  0  # atno 7974 bound_to 7965
  155.8038  140.3475  155.5418 H   0  0  0  0  0  0  0  0  0  0  0  0  # atno 8008 bound_to 7997
  155.8511  140.0956  157.1694 H   0  0  0  0  0  0  0  0  0  0  0  0  # atno 8009 bound_to 7997
  154.4008  140.1376  156.3833 H   0  0  0  0  0  0  0  0  0  0  0  0  # atno 8010 bound_to 7997
  140.7165  143.5515  150.9296 H   0  0  0  0  0  0  0  0  0  0  0  0  # atno 10167 bound_to 10162
  157.0539  130.6281  149.5773 H   0  0  0  0  0  0  0  0  0  0  0  0  # atno 10718 bound_to 10713
  153.1415  135.6761  153.9020 H   0  0  0  0  0  0  0  0  0  0  0  0  # atno 10763 bound_to 10752
  153.8475  135.3097  155.3431 H   0  0  0  0  0  0  0  0  0  0  0  0  # atno 10764 bound_to 10752
  154.7791  135.4898  153.9891 H   0  0  0  0  0  0  0  0  0  0  0  0  # atno 10765 bound_to 10752
  141.1647  133.6953  156.7543 H   0  0  0  0  0  0  0  0  0  0  0  0  # atno 11005 bound_to 11000
  146.0794  140.7781  142.9649 LP  0  0  0  0  0  0  0  0  0  0  0  0  # atno 17320 bound_to 7965
  144.6967  140.3465  143.7189 LP  0  0  0  0  0  0  0  0  0  0  0  0  # atno 17321 bound_to 7965
  139.9239  143.6573  152.3091 LP  0  0  0  0  0  0  0  0  0  0  0  0  # atno 17342 bound_to 10162
  139.7000  144.7636  151.1290 LP  0  0  0  0  0  0  0  0  0  0  0  0  # atno 17343 bound_to 10162
  155.9999  130.5076  150.7623 LP  0  0  0  0  0  0  0  0  0  0  0  0  # atno 17370 bound_to 10713
  157.5008  131.0918  151.0316 LP  0  0  0  0  0  0  0  0  0  0  0  0  # atno 17371 bound_to 10713
  140.2581  134.8488  157.3732 LP  0  0  0  0  0  0  0  0  0  0  0  0  # atno 17394 bound_to 11000
  140.1638  134.4695  155.7877 LP  0  0  0  0  0  0  0  0  0  0  0  0  # atno 17395 bound_to 11000

$$$$
