AV-unprocessed.smi:1048|AV-procd|sdf|4607|dock10
  -GOLD-   22720 3103D 1   1.00000     0.00000
 Structure written by MMmdl.
 46 47  0  0  0  0  0  0  0  0  2 V2000
  145.7818  142.7179  157.1774 C   0  0  0  0  0  0  0  0  0  0  0  0
  144.8489  142.4611  155.9810 C   0  0  2  0  0  0  0  0  0  0  0  0
  144.4755  140.9754  155.8234 C   0  0  0  0  0  0  0  0  0  0  0  0
  145.6392  140.1370  155.2647 C   0  0  0  0  0  0  0  0  0  0  0  0
  146.1309  140.6937  153.9770 N   0  3  2  0  0  0  0  0  0  0  0  0
  147.1614  139.8445  153.3262 C   0  0  0  0  0  0  0  0  0  0  0  0
  148.0655  139.1283  154.3505 C   0  0  1  0  0  0  0  0  0  0  0  0
  148.0608  137.7550  154.0123 O   0  0  0  0  0  0  0  0  0  0  0  0
  149.5172  139.6449  154.2792 C   0  0  0  0  0  0  0  0  0  0  0  0
  149.6859  140.9118  154.9849 N   0  0  0  0  0  0  0  0  0  0  0  0
  150.4675  141.0954  156.0586 C   0  0  0  0  0  0  0  0  0  0  0  0
  151.1091  140.1900  156.5900 O   0  0  0  0  0  0  0  0  0  0  0  0
  150.4334  142.3727  156.4753 N   0  0  0  0  0  0  0  0  0  0  0  0
  151.1467  142.9715  157.5491 C   0  0  0  0  0  0  0  0  0  0  0  0
  151.8619  142.1252  158.4215 C   0  0  0  0  0  0  0  0  0  0  0  0
  152.5622  142.6888  159.5050 C   0  0  0  0  0  0  0  0  0  0  0  0
  152.5123  144.0851  159.6806 C   0  0  0  0  0  0  0  0  0  0  0  0
  151.8204  144.9086  158.8656 N   0  0  0  0  0  0  0  0  0  0  0  0
  151.1522  144.3615  157.8272 C   0  0  0  0  0  0  0  0  0  0  0  0
  146.5667  142.1061  154.1210 C   0  0  0  0  0  0  0  0  0  0  0  0
  145.4241  142.9890  154.6541 C   0  0  0  0  0  0  0  0  0  0  0  0
  146.7393  142.2088  157.0712 H   0  0  0  0  0  0  0  0  0  0  0  0
  145.3269  142.3741  158.1066 H   0  0  0  0  0  0  0  0  0  0  0  0
  145.9866  143.7829  157.2899 H   0  0  0  0  0  0  0  0  0  0  0  0
  143.9293  143.0120  156.1837 H   0  0  0  0  0  0  0  0  0  0  0  0
  144.1427  140.5661  156.7780 H   0  0  0  0  0  0  0  0  0  0  0  0
  143.6241  140.8914  155.1466 H   0  0  0  0  0  0  0  0  0  0  0  0
  146.4586  140.0970  155.9838 H   0  0  0  0  0  0  0  0  0  0  0  0
  145.2992  139.1114  155.1251 H   0  0  0  0  0  0  0  0  0  0  0  0
  146.6813  139.0876  152.7035 H   0  0  0  0  0  0  0  0  0  0  0  0
  147.7557  140.4581  152.6475 H   0  0  0  0  0  0  0  0  0  0  0  0
  147.6774  139.2571  155.3611 H   0  0  0  0  0  0  0  0  0  0  0  0
  148.4987  137.6484  153.1802 H   0  0  0  0  0  0  0  0  0  0  0  0
  150.2294  138.8942  154.6278 H   0  0  0  0  0  0  0  0  0  0  0  0
  149.7789  139.8458  153.2399 H   0  0  0  0  0  0  0  0  0  0  0  0
  149.1881  141.7092  154.6166 H   0  0  0  0  0  0  0  0  0  0  0  0
  149.7916  142.9826  155.9905 H   0  0  0  0  0  0  0  0  0  0  0  0
  151.8791  141.0567  158.2626 H   0  0  0  0  0  0  0  0  0  0  0  0
  153.1235  142.0661  160.1858 H   0  0  0  0  0  0  0  0  0  0  0  0
  153.0371  144.5521  160.5008 H   0  0  0  0  0  0  0  0  0  0  0  0
  150.5976  145.0674  157.2294 H   0  0  0  0  0  0  0  0  0  0  0  0
  147.4351  142.1583  154.7793 H   0  0  0  0  0  0  0  0  0  0  0  0
  146.8845  142.4912  153.1512 H   0  0  0  0  0  0  0  0  0  0  0  0
  144.6281  143.0227  153.9089 H   0  0  0  0  0  0  0  0  0  0  0  0
  145.7687  144.0169  154.7728 H   0  0  0  0  0  0  0  0  0  0  0  0
  145.3451  140.7103  153.3422 H   0  0  0  0  0  0  0  0  0  0  0  0
  1  2  1  0  0  0  0
  1 22  1  0  0  0  0
  1 23  1  0  0  0  0
  1 24  1  0  0  0  0
  2 21  1  0  0  0  0
  2  3  1  0  0  0  0
  2 25  1  0  0  0  0
  3  4  1  0  0  0  0
  3 26  1  0  0  0  0
  3 27  1  0  0  0  0
  4  5  1  0  0  0  0
  4 28  1  0  0  0  0
  4 29  1  0  0  0  0
  5  6  1  0  0  0  0
  5 20  1  0  0  0  0
  5 46  1  0  0  0  0
  6  7  1  0  0  0  0
  6 30  1  0  0  0  0
  6 31  1  0  0  0  0
  7  8  1  0  0  0  0
  7  9  1  0  0  0  0
  7 32  1  0  0  0  0
  8 33  1  0  0  0  0
  9 10  1  0  0  0  0
  9 34  1  0  0  0  0
  9 35  1  0  0  0  0
 10 11  1  0  0  0  0
 10 36  1  0  0  0  0
 11 12  2  0  0  0  0
 11 13  1  0  0  0  0
 13 14  1  0  0  0  0
 13 37  1  0  0  0  0
 14 19  1  0  0  0  0
 14 15  2  0  0  0  0
 15 16  1  0  0  0  0
 15 38  1  0  0  0  0
 16 17  2  0  0  0  0
 16 39  1  0  0  0  0
 17 18  1  0  0  0  0
 17 40  1  0  0  0  0
 18 19  2  0  0  0  0
 19 41  1  0  0  0  0
 20 21  1  0  0  0  0
 20 42  1  0  0  0  0
 20 43  1  0  0  0  0
 21 44  1  0  0  0  0
 21 45  1  0  0  0  0
M  CHG  1   5   1
M  END
> <s_m_source_file>
AV-unprocessed.smi

> <i_m_source_file_index>
1048

> <i_lp_mmshare_version>
43012

> <i_f3d_flags>
0

> <s_epik_input>
W0NIM11bQ0hdMVtDSDJdW0NIMl1OKFtDSDJdW0NIMl0xKVtDSDJdW0NASF0oW09IXSlbQ0gyXVtOSF1DKD1PKVtOSF1jMltjSF1bY0hdW2NIXW5bY0hdMg==

> <s_epik_cmdline>
J2VwaWtfcHl0aG9uJywgJy1waCcsICc3LjAnLCAnLXRuJywgJzgnLCAnLW1hJywgJzIwMCcsICctbWV0YWxfYmluZGluZycsICctaW1hZScsICc8aW5maWxlLm1hZT4nLCAnLW9tYWUnLCAnPG91dGZpbGUubWFlPic=

> <r_lp_tautomer_probability>
1

> <r_epik_Ionization_Penalty>
0.00581049

> <r_epik_Ionization_Penalty_Charging>
0.00147689

> <r_epik_Ionization_Penalty_Neutral>
0.0043336

> <r_epik_State_Penalty>
-0

> <r_epik_Charging_Adjusted_Penalty>
0.00147689

> <i_epik_Tot_Q>
1

> <i_epik_Tot_abs_Q>
1

> <r_epik_Metal_State_Penalty>
-0

> <b_epik_Metal_Only>
0

> <s_lp_Force_Field>
OPLS_2005

> <r_lp_Energy>
24.6749

> <b_lp_Chiralities_Consistent>
1

> <s_lp_Variant>
AV-unprocessed.smi:1048-4

> <Gold.Version>
5.8.1

> <Gold.Id.Protein>
6NUR|6NUR_protein|mol2

> <Gold.PLP.Fitness>
51.4058

> <Gold.PLP.PLP>
-39.2732

> <Gold.PLP.part.hbond>
-3.0000

> <Gold.PLP.part.metal>
0.0000

> <Gold.PLP.part.buried>
-5.9662

> <Gold.PLP.part.nonpolar>
-31.5873

> <Gold.PLP.part.repulsive>
0.3039

> <Gold.PLP.ligand.clash>
0.0000

> <Gold.PLP.ligand.torsion>
1.2831

> <Gold.PLP.Chemscore.Hbond>
3.8723

> <Gold.PLP.Chemscore.CHOScore>
0.9915

> <Gold.PLP.Chemscore.Metal>
0.0000

> <Gold.Chemscore.Hbonds>
donor molecule, donor type, donor heavy atom, donor atom, acceptor molecule, acceptor atom, score
      L1  H     5    46       P1 10175  2.00
      L1  H     8    33       P1  7948  0.83
      L1  H    13    37       P1  8028  1.00
      L1  C    19    41       P1  8028  1.00

> <Gold.PLP.Chemscore.Internal.Correction>
0.1074

> <Gold.Rescore>
     Score         DG    S(hbond)    S(metal)    S(lipo)     H(rot)  DE(clash)    DE(int)     intcor
     16.93     -19.81       2.72        0.00      94.76       2.29       0.05       2.84       ----

> <Gold.Chemscore.Fitness>
16.9255

> <Gold.Chemscore.DG>
-19.8122

> <Gold.Chemscore.ZeroCoef>
-5.4800

> <Gold.Chemscore.Hbond>
2.7243

> <Gold.Chemscore.Metal>
0.0000

> <Gold.Chemscore.Lipo>
94.7566

> <Gold.Chemscore.Internal_Hbond>
0.0000

> <Gold.Chemscore.DEClash>
0.0509

> <Gold.Chemscore.DEInternal>
2.8358

> <Gold.Chemscore.Rot>
2.2865

> <Gold.Chemscore.Internal.Correction>
   9.000000E+99

> <Gold.Chemscore.Hbonds>
donor molecule, donor type, donor heavy atom, donor atom, acceptor molecule, acceptor atom, score
      L1  H     5    46       P1 10175  0.85
      L1  H     8    33       P1  7948  0.80
      L1  H    13    37       P1  8028  0.95

> <Gold.Chemscore.Hbond.Weighted>
-9.0992

> <Gold.Chemscore.Metal.Weighted>
-0.0000

> <Gold.Chemscore.Lipo.Weighted>
-11.0865

> <Gold.Chemscore.Internal_Hbond.Weighted>
0.0000

> <Gold.Chemscore.DEClash.Weighted>
0.0509

> <Gold.Chemscore.DEInternal.Weighted>
2.8358

> <Gold.Chemscore.Rot.Weighted>
5.8536

> <Gold.Chemscore.Internal.Correction.Weighted>
   9.000000E+99

> <Gold.Protein.RotatedTorsions>
[ 6907 6896 6895 6894 ] final  -29.94 input  -60.11 | X-H torsion
[ 7974 7965 7964 7962 ] final  -20.74 input  175.53 | X-H torsion
[ 8008 7997 7996 7995 ] final  171.76 input   59.86 | X-H torsion
[ 10167 10162 10161 10158 ] final -107.83 input  -65.29 | X-H torsion
[ 10718 10713 10712 10709 ] final  -12.17 input   66.30 | X-H torsion
[ 10763 10752 10751 10750 ] final -116.38 input  -60.55 | X-H torsion
[ 11005 11000 10999 10996 ] final -110.75 input  -57.11 | X-H torsion

> <Gold.Protein.ActiveResidues>
 VAL166  LYS551  ARG553  GLY616  TRP617  ASP618  TYR619  PRO620  LYS621  CYS622 
 ASP623  PHE694  ASN695  SER759  ASP760  ASP761  ALA762  ILE779  LEU786  VAL792 
 PHE793  MET794  SER795  GLU796  ALA797  LYS798  CYS799  TRP800  GLU811  SER814 

> <Gold.Protein.RotatedAtoms>
  151.1123  135.0033  159.8499 H   0  0  0  0  0  0  0  0  0  0  0  0  # atno 6907 bound_to 6896
  152.5444  134.1821  159.8650 H   0  0  0  0  0  0  0  0  0  0  0  0  # atno 6908 bound_to 6896
  151.1872  133.4644  159.2627 H   0  0  0  0  0  0  0  0  0  0  0  0  # atno 6909 bound_to 6896
  146.1772  140.4244  142.8509 H   0  0  0  0  0  0  0  0  0  0  0  0  # atno 7974 bound_to 7965
  156.1240  140.1503  156.9163 H   0  0  0  0  0  0  0  0  0  0  0  0  # atno 8008 bound_to 7997
  154.4857  140.0866  156.7522 H   0  0  0  0  0  0  0  0  0  0  0  0  # atno 8009 bound_to 7997
  155.4377  140.3430  155.4289 H   0  0  0  0  0  0  0  0  0  0  0  0  # atno 8010 bound_to 7997
  140.1727  143.4030  152.1342 H   0  0  0  0  0  0  0  0  0  0  0  0  # atno 10167 bound_to 10162
  156.6484  130.4948  149.6070 H   0  0  0  0  0  0  0  0  0  0  0  0  # atno 10718 bound_to 10713
  154.8517  135.4348  154.1812 H   0  0  0  0  0  0  0  0  0  0  0  0  # atno 10763 bound_to 10752
  153.2902  135.6961  153.7306 H   0  0  0  0  0  0  0  0  0  0  0  0  # atno 10764 bound_to 10752
  153.6477  135.3457  155.3065 H   0  0  0  0  0  0  0  0  0  0  0  0  # atno 10765 bound_to 10752
  141.0774  133.9278  157.2361 H   0  0  0  0  0  0  0  0  0  0  0  0  # atno 11005 bound_to 11000
  144.8255  140.6621  143.6325 LP  0  0  0  0  0  0  0  0  0  0  0  0  # atno 17320 bound_to 7965
  145.4179  139.1569  143.4090 LP  0  0  0  0  0  0  0  0  0  0  0  0  # atno 17321 bound_to 7965
  139.5331  144.7180  151.4987 LP  0  0  0  0  0  0  0  0  0  0  0  0  # atno 17342 bound_to 10162
  140.6572  143.8575  150.6847 LP  0  0  0  0  0  0  0  0  0  0  0  0  # atno 17343 bound_to 10162
  156.2103  130.6675  151.1262 LP  0  0  0  0  0  0  0  0  0  0  0  0  # atno 17370 bound_to 10713
  157.7148  131.0715  150.6366 LP  0  0  0  0  0  0  0  0  0  0  0  0  # atno 17371 bound_to 10713
  139.9586  135.0159  156.9199 LP  0  0  0  0  0  0  0  0  0  0  0  0  # atno 17394 bound_to 11000
  140.5544  134.0596  155.7379 LP  0  0  0  0  0  0  0  0  0  0  0  0  # atno 17395 bound_to 11000

$$$$
