AV-unprocessed.smi:1251|AV-procd|sdf|5263|dock2
  -GOLD-   22720 4373D 1   1.00000     0.00000
 Structure written by MMmdl.
 38 39  0  0  0  0  0  0  0  0  2 V2000
  146.8915  142.1683  154.0574 C   0  0  0  0  0  0  0  0  0  0  0  0
  147.9405  141.0748  153.8282 C   0  0  0  0  0  0  0  0  0  0  0  0
  148.3531  140.3734  155.1300 C   0  0  0  0  0  0  0  0  0  0  0  0
  149.3747  139.3083  154.9084 C   0  0  0  0  0  0  0  0  0  0  0  0
  150.4651  139.4948  154.1603 N   0  0  0  0  0  0  0  0  0  0  0  0
  151.2468  138.3515  154.0816 N   0  0  0  0  0  0  0  0  0  0  0  0
  150.7264  137.3119  154.7490 C   0  0  0  0  0  0  0  0  0  0  0  0
  151.3298  136.1127  154.7968 N   0  5  0  0  0  0  0  0  0  0  0  0
  150.6149  135.0084  155.1107 C   0  0  0  0  0  0  0  0  0  0  0  0
  150.8696  134.2074  156.0130 O   0  0  0  0  0  0  0  0  0  0  0  0
  149.5452  134.8201  154.3235 N   0  0  0  0  0  0  0  0  0  0  0  0
  148.5827  133.7210  154.3986 C   0  0  1  0  0  0  0  0  0  0  0  0
  147.3449  134.0924  153.5694 C   0  0  0  0  0  0  0  0  0  0  0  0
  149.2273  132.4084  153.9071 C   0  0  1  0  0  0  0  0  0  0  0  0
  150.2397  131.7810  154.8674 C   0  0  0  0  0  0  0  0  0  0  0  0
  150.2326  130.3100  154.4833 C   0  0  0  0  0  0  0  0  0  0  0  0
  148.9541  130.1470  153.6563 C   0  0  0  0  0  0  0  0  0  0  0  0
  148.2576  131.3777  153.7955 O   0  0  0  0  0  0  0  0  0  0  0  0
  149.2057  137.6866  155.5594 S   0  0  0  0  0  0  0  0  0  0  0  0
  146.6189  142.6483  153.1173 H   0  0  0  0  0  0  0  0  0  0  0  0
  147.2683  142.9405  154.7288 H   0  0  0  0  0  0  0  0  0  0  0  0
  145.9826  141.7556  154.4962 H   0  0  0  0  0  0  0  0  0  0  0  0
  147.5451  140.3396  153.1263 H   0  0  0  0  0  0  0  0  0  0  0  0
  148.8198  141.5128  153.3539 H   0  0  0  0  0  0  0  0  0  0  0  0
  148.7528  141.1004  155.8382 H   0  0  0  0  0  0  0  0  0  0  0  0
  147.4811  139.9227  155.6048 H   0  0  0  0  0  0  0  0  0  0  0  0
  149.3871  135.5062  153.6003 H   0  0  0  0  0  0  0  0  0  0  0  0
  148.2545  133.5823  155.4301 H   0  0  0  0  0  0  0  0  0  0  0  0
  146.5841  133.3136  153.6261 H   0  0  0  0  0  0  0  0  0  0  0  0
  147.5982  134.2346  152.5182 H   0  0  0  0  0  0  0  0  0  0  0  0
  146.8941  135.0170  153.9318 H   0  0  0  0  0  0  0  0  0  0  0  0
  149.6926  132.5587  152.9308 H   0  0  0  0  0  0  0  0  0  0  0  0
  151.2285  132.2348  154.7938 H   0  0  0  0  0  0  0  0  0  0  0  0
  149.8968  131.8890  155.8973 H   0  0  0  0  0  0  0  0  0  0  0  0
  151.1090  130.0495  153.8889 H   0  0  0  0  0  0  0  0  0  0  0  0
  150.2267  129.6750  155.3699 H   0  0  0  0  0  0  0  0  0  0  0  0
  149.1964  129.9892  152.6045 H   0  0  0  0  0  0  0  0  0  0  0  0
  148.3412  129.3108  153.9934 H   0  0  0  0  0  0  0  0  0  0  0  0
  1  2  1  0  0  0  0
  1 20  1  0  0  0  0
  1 21  1  0  0  0  0
  1 22  1  0  0  0  0
  2  3  1  0  0  0  0
  2 23  1  0  0  0  0
  2 24  1  0  0  0  0
  3  4  1  0  0  0  0
  3 25  1  0  0  0  0
  3 26  1  0  0  0  0
  4 19  1  0  0  0  0
  4  5  2  0  0  0  0
  5  6  1  0  0  0  0
  6  7  2  0  0  0  0
  7  8  1  0  0  0  0
  7 19  1  0  0  0  0
  8  9  1  0  0  0  0
  9 10  2  0  0  0  0
  9 11  1  0  0  0  0
 11 12  1  0  0  0  0
 11 27  1  0  0  0  0
 12 13  1  0  0  0  0
 12 14  1  0  0  0  0
 12 28  1  0  0  0  0
 13 29  1  0  0  0  0
 13 30  1  0  0  0  0
 13 31  1  0  0  0  0
 14 18  1  0  0  0  0
 14 15  1  0  0  0  0
 14 32  1  0  0  0  0
 15 16  1  0  0  0  0
 15 33  1  0  0  0  0
 15 34  1  0  0  0  0
 16 17  1  0  0  0  0
 16 35  1  0  0  0  0
 16 36  1  0  0  0  0
 17 18  1  0  0  0  0
 17 37  1  0  0  0  0
 17 38  1  0  0  0  0
M  CHG  1   8  -1
M  END
> <s_m_source_file>
AV-unprocessed.smi

> <i_m_source_file_index>
1251

> <i_lp_mmshare_version>
43012

> <i_f3d_flags>
0

> <s_epik_input>
W0NIM11bQ0gyXVtDSDJdYzFubmMoczEpW05IXUMoPU8pW05IXVtDQEhdKFtDSDNdKVtDQEBIXTJbQ0gyXVtDSDJdW0NIMl1PMg==

> <s_epik_cmdline>
J2VwaWtfcHl0aG9uJywgJy1waCcsICc3LjAnLCAnLXRuJywgJzgnLCAnLW1hJywgJzIwMCcsICctbWV0YWxfYmluZGluZycsICctaW1hZScsICc8aW5maWxlLm1hZT4nLCAnLW9tYWUnLCAnPG91dGZpbGUubWFlPic=

> <r_lp_tautomer_probability>
1

> <r_epik_Ionization_Penalty>
4.22551

> <r_epik_Ionization_Penalty_Charging>
4.21437

> <r_epik_Ionization_Penalty_Neutral>
0.0111434

> <r_epik_State_Penalty>
4.21389

> <r_epik_Charging_Adjusted_Penalty>
8.42826

> <i_epik_Tot_Q>
-1

> <i_epik_Tot_abs_Q>
1

> <r_epik_Metal_State_Penalty>
0.69377

> <b_epik_Metal_Only>
1

> <s_lp_Force_Field>
OPLS_2005

> <r_lp_Energy>
11.5683

> <b_lp_Chiralities_Consistent>
1

> <s_lp_Variant>
AV-unprocessed.smi:1251-8

> <Gold.Version>
5.8.1

> <Gold.Id.Protein>
6NUR|6NUR_protein|mol2

> <Gold.PLP.Fitness>
40.2125

> <Gold.PLP.PLP>
-30.0024

> <Gold.PLP.part.hbond>
-3.0000

> <Gold.PLP.part.metal>
0.0000

> <Gold.PLP.part.buried>
-4.4133

> <Gold.PLP.part.nonpolar>
-23.7136

> <Gold.PLP.part.repulsive>
0.6173

> <Gold.PLP.ligand.clash>
0.0000

> <Gold.PLP.ligand.torsion>
1.0037

> <Gold.PLP.Chemscore.Hbond>
4.0000

> <Gold.PLP.Chemscore.CHOScore>
0.0000

> <Gold.PLP.Chemscore.Metal>
0.0000

> <Gold.Chemscore.Hbonds>
donor molecule, donor type, donor heavy atom, donor atom, acceptor molecule, acceptor atom, score
      L1  H    11    27       P1  7948  1.00
      P1  H  7989  7998       L1     5  1.00
      P1  H 10752 10765       L1     8  2.00

> <Gold.PLP.Chemscore.Internal.Correction>
0.2175

> <Gold.Rescore>
     Score         DG    S(hbond)    S(metal)    S(lipo)     H(rot)  DE(clash)    DE(int)     intcor
     12.91     -15.79       2.21        0.00      58.71       1.55       0.29       2.58       ----

> <Gold.Chemscore.Fitness>
12.9124

> <Gold.Chemscore.DG>
-15.7854

> <Gold.Chemscore.ZeroCoef>
-5.4800

> <Gold.Chemscore.Hbond>
2.2145

> <Gold.Chemscore.Metal>
0.0000

> <Gold.Chemscore.Lipo>
58.7089

> <Gold.Chemscore.Internal_Hbond>
0.0000

> <Gold.Chemscore.DEClash>
0.2881

> <Gold.Chemscore.DEInternal>
2.5849

> <Gold.Chemscore.Rot>
1.5469

> <Gold.Chemscore.Internal.Correction>
   9.000000E+99

> <Gold.Chemscore.Hbonds>
donor molecule, donor type, donor heavy atom, donor atom, acceptor molecule, acceptor atom, score
      L1  H    11    27       P1  7948  0.30
      P1  H  7989  7998       L1     5  0.39
      P1  H 10752 10765       L1     8  0.60

> <Gold.Chemscore.Hbond.Weighted>
-7.3965

> <Gold.Chemscore.Metal.Weighted>
-0.0000

> <Gold.Chemscore.Lipo.Weighted>
-6.8689

> <Gold.Chemscore.Internal_Hbond.Weighted>
0.0000

> <Gold.Chemscore.DEClash.Weighted>
0.2881

> <Gold.Chemscore.DEInternal.Weighted>
2.5849

> <Gold.Chemscore.Rot.Weighted>
3.9600

> <Gold.Chemscore.Internal.Correction.Weighted>
   9.000000E+99

> <Gold.Protein.RotatedTorsions>
[ 6907 6896 6895 6894 ] final   -2.54 input  -60.11 | X-H torsion
[ 7974 7965 7964 7962 ] final   47.35 input  175.53 | X-H torsion
[ 8008 7997 7996 7995 ] final -156.97 input   59.86 | X-H torsion
[ 10167 10162 10161 10158 ] final   17.44 input  -65.29 | X-H torsion
[ 10718 10713 10712 10709 ] final   73.98 input   66.30 | X-H torsion
[ 10763 10752 10751 10750 ] final  175.51 input  -60.55 | X-H torsion
[ 11005 11000 10999 10996 ] final  -24.19 input  -57.11 | X-H torsion

> <Gold.Protein.ActiveResidues>
 VAL166  LYS551  ARG553  GLY616  TRP617  ASP618  TYR619  PRO620  LYS621  CYS622 
 ASP623  PHE694  ASN695  SER759  ASP760  ASP761  ALA762  ILE779  LEU786  VAL792 
 PHE793  MET794  SER795  GLU796  ALA797  LYS798  CYS799  TRP800  GLU811  SER814 

> <Gold.Protein.RotatedAtoms>
  151.5282  135.1068  159.9895 H   0  0  0  0  0  0  0  0  0  0  0  0  # atno 6907 bound_to 6896
  152.4590  133.7779  159.6845 H   0  0  0  0  0  0  0  0  0  0  0  0  # atno 6908 bound_to 6896
  150.8545  133.7672  159.3039 H   0  0  0  0  0  0  0  0  0  0  0  0  # atno 6909 bound_to 6896
  146.0306  139.4758  142.9840 H   0  0  0  0  0  0  0  0  0  0  0  0  # atno 7974 bound_to 7965
  155.7253  140.0795  157.2313 H   0  0  0  0  0  0  0  0  0  0  0  0  # atno 8008 bound_to 7997
  154.4040  140.1605  156.2502 H   0  0  0  0  0  0  0  0  0  0  0  0  # atno 8009 bound_to 7997
  155.9159  140.3401  155.6137 H   0  0  0  0  0  0  0  0  0  0  0  0  # atno 8010 bound_to 7997
  140.5726  143.9133  150.6725 H   0  0  0  0  0  0  0  0  0  0  0  0  # atno 10167 bound_to 10162
  157.6572  130.9655  150.1145 H   0  0  0  0  0  0  0  0  0  0  0  0  # atno 10718 bound_to 10713
  154.4686  135.2770  155.1659 H   0  0  0  0  0  0  0  0  0  0  0  0  # atno 10763 bound_to 10752
  154.3418  135.6168  153.5603 H   0  0  0  0  0  0  0  0  0  0  0  0  # atno 10764 bound_to 10752
  152.9862  135.5790  154.5063 H   0  0  0  0  0  0  0  0  0  0  0  0  # atno 10765 bound_to 10752
  140.8822  133.7646  156.0317 H   0  0  0  0  0  0  0  0  0  0  0  0  # atno 11005 bound_to 11000
  145.7047  141.0125  143.1485 LP  0  0  0  0  0  0  0  0  0  0  0  0  # atno 17320 bound_to 7965
  144.7028  139.8686  143.7439 LP  0  0  0  0  0  0  0  0  0  0  0  0  # atno 17321 bound_to 7965
  140.2612  143.3523  152.1321 LP  0  0  0  0  0  0  0  0  0  0  0  0  # atno 17342 bound_to 10162
  139.5125  144.6918  151.5738 LP  0  0  0  0  0  0  0  0  0  0  0  0  # atno 17343 bound_to 10162
  156.2033  130.3661  149.8761 LP  0  0  0  0  0  0  0  0  0  0  0  0  # atno 17370 bound_to 10713
  156.6659  130.8801  151.3554 LP  0  0  0  0  0  0  0  0  0  0  0  0  # atno 17371 bound_to 10713
  140.8447  134.3025  157.5299 LP  0  0  0  0  0  0  0  0  0  0  0  0  # atno 17394 bound_to 11000
  139.8721  134.9435  156.3855 LP  0  0  0  0  0  0  0  0  0  0  0  0  # atno 17395 bound_to 11000

$$$$
