AV-unprocessed.smi:247|AV-procd|sdf|1894|dock9
  -GOLD-   2262020563D 1   1.00000     0.00000
 Structure written by MMmdl.
 61 65  0  0  0  0  0  0  0  0  1 V2000
  147.3080  137.5929  162.2168 O   0  0  0  0  0  0  0  0  0  0  0  0
  147.9390  136.3329  162.0956 C   0  0  0  0  0  0  0  0  0  0  0  0
  147.0182  135.2350  161.4937 C   0  0  0  0  0  0  0  0  0  0  0  0
  146.4992  135.7282  160.1058 C   0  0  0  0  0  0  0  0  0  0  0  0
  147.4843  136.4225  159.2884 N   0  0  0  0  0  0  0  0  0  0  0  0
  148.7914  136.0458  159.0738 C   0  0  0  0  0  0  0  0  0  0  0  0
  149.4775  136.8331  158.2917 N   0  0  0  0  0  0  0  0  0  0  0  0
  148.5716  137.8206  157.9235 C   0  0  0  0  0  0  0  0  0  0  0  0
  148.6464  138.9731  157.0907 C   0  0  0  0  0  0  0  0  0  0  0  0
  149.7892  139.3443  156.4571 N   0  0  0  0  0  0  0  0  0  0  0  0
  150.0990  138.6411  155.2166 C   0  0  0  0  0  0  0  0  0  0  0  0
  151.6195  138.4592  155.1922 C   0  0  0  0  0  0  0  0  0  0  0  0
  152.1284  139.5529  156.1251 C   0  0  0  0  0  0  0  0  0  0  0  0
  151.0263  139.6160  157.1906 C   0  0  1  0  0  0  0  0  0  0  0  0
  150.9945  140.9048  158.0660 C   0  0  1  0  0  0  0  0  0  0  0  0
  152.2033  140.9283  159.0271 C   0  0  0  0  0  0  0  0  0  0  0  0
  152.1386  142.0522  159.8982 O   0  0  0  0  0  0  0  0  0  0  0  0
  152.2024  143.2932  159.2066 C   0  0  0  0  0  0  0  0  0  0  0  0
  150.9885  143.4234  158.2770 C   0  0  0  0  0  0  0  0  0  0  0  0
  150.9335  142.2466  157.2922 C   0  0  2  0  0  0  0  0  0  0  0  0
  149.7382  142.3658  156.5471 O   0  0  0  0  0  0  0  0  0  0  0  0
  147.5152  139.7135  156.9488 N   0  0  0  0  0  0  0  0  0  0  0  0
  146.3902  139.3576  157.5752 C   0  0  0  0  0  0  0  0  0  0  0  0
  146.1785  138.3168  158.3824 N   0  0  0  0  0  0  0  0  0  0  0  0
  147.3089  137.5682  158.5305 C   0  0  0  0  0  0  0  0  0  0  0  0
  147.7974  133.8988  161.3816 C   0  0  0  0  0  0  0  0  0  0  0  0
  146.8829  132.7169  161.0127 C   0  0  0  0  0  0  0  0  0  0  0  0
  145.8403  132.5958  161.9727 O   0  0  0  0  0  0  0  0  0  0  0  0
  144.9930  133.7373  162.0239 C   0  0  0  0  0  0  0  0  0  0  0  0
  145.8038  134.9847  162.4252 C   0  0  0  0  0  0  0  0  0  0  0  0
  146.4486  137.4637  162.5880 H   0  0  0  0  0  0  0  0  0  0  0  0
  148.8293  136.4605  161.4789 H   0  0  0  0  0  0  0  0  0  0  0  0
  148.2814  136.0491  163.0906 H   0  0  0  0  0  0  0  0  0  0  0  0
  146.1119  134.9039  159.5091 H   0  0  0  0  0  0  0  0  0  0  0  0
  145.6519  136.4004  160.2486 H   0  0  0  0  0  0  0  0  0  0  0  0
  149.2254  135.1646  159.5232 H   0  0  0  0  0  0  0  0  0  0  0  0
  149.5883  137.6798  155.1408 H   0  0  0  0  0  0  0  0  0  0  0  0
  149.7779  139.2603  154.3785 H   0  0  0  0  0  0  0  0  0  0  0  0
  151.8785  137.4815  155.6006 H   0  0  0  0  0  0  0  0  0  0  0  0
  152.0382  138.5253  154.1877 H   0  0  0  0  0  0  0  0  0  0  0  0
  153.1104  139.3263  156.5410 H   0  0  0  0  0  0  0  0  0  0  0  0
  152.2033  140.4855  155.5677 H   0  0  0  0  0  0  0  0  0  0  0  0
  151.1884  138.7669  157.8568 H   0  0  0  0  0  0  0  0  0  0  0  0
  150.1077  140.8589  158.6987 H   0  0  0  0  0  0  0  0  0  0  0  0
  152.2129  140.0255  159.6385 H   0  0  0  0  0  0  0  0  0  0  0  0
  153.1454  140.9463  158.4773 H   0  0  0  0  0  0  0  0  0  0  0  0
  152.2047  144.1037  159.9356 H   0  0  0  0  0  0  0  0  0  0  0  0
  153.1352  143.3655  158.6453 H   0  0  0  0  0  0  0  0  0  0  0  0
  150.0790  143.4493  158.8793 H   0  0  0  0  0  0  0  0  0  0  0  0
  151.0326  144.3694  157.7358 H   0  0  0  0  0  0  0  0  0  0  0  0
  151.7757  142.3322  156.6069 H   0  0  0  0  0  0  0  0  0  0  0  0
  149.7112  143.2285  156.1615 H   0  0  0  0  0  0  0  0  0  0  0  0
  145.5385  140.0004  157.4075 H   0  0  0  0  0  0  0  0  0  0  0  0
  148.6197  133.9786  160.6719 H   0  0  0  0  0  0  0  0  0  0  0  0
  148.2641  133.6620  162.3382 H   0  0  0  0  0  0  0  0  0  0  0  0
  146.4645  132.8269  160.0121 H   0  0  0  0  0  0  0  0  0  0  0  0
  147.4588  131.7916  161.0084 H   0  0  0  0  0  0  0  0  0  0  0  0
  144.4856  133.8732  161.0687 H   0  0  0  0  0  0  0  0  0  0  0  0
  144.2122  133.5539  162.7622 H   0  0  0  0  0  0  0  0  0  0  0  0
  146.1402  134.8347  163.4512 H   0  0  0  0  0  0  0  0  0  0  0  0
  145.1542  135.8604  162.4491 H   0  0  0  0  0  0  0  0  0  0  0  0
  1  2  1  0  0  0  0
  1 31  1  0  0  0  0
  2  3  1  0  0  0  0
  2 32  1  0  0  0  0
  2 33  1  0  0  0  0
  3 30  1  0  0  0  0
  3  4  1  0  0  0  0
  3 26  1  0  0  0  0
  4  5  1  0  0  0  0
  4 34  1  0  0  0  0
  4 35  1  0  0  0  0
  5 25  1  0  0  0  0
  5  6  1  0  0  0  0
  6  7  2  0  0  0  0
  6 36  1  0  0  0  0
  7  8  1  0  0  0  0
  8 25  2  0  0  0  0
  8  9  1  0  0  0  0
  9 10  1  0  0  0  0
  9 22  2  0  0  0  0
 10 14  1  0  0  0  0
 10 11  1  0  0  0  0
 11 12  1  0  0  0  0
 11 37  1  0  0  0  0
 11 38  1  0  0  0  0
 12 13  1  0  0  0  0
 12 39  1  0  0  0  0
 12 40  1  0  0  0  0
 13 14  1  0  0  0  0
 13 41  1  0  0  0  0
 13 42  1  0  0  0  0
 14 15  1  0  0  0  0
 14 43  1  0  0  0  0
 15 20  1  0  0  0  0
 15 16  1  0  0  0  0
 15 44  1  0  0  0  0
 16 17  1  0  0  0  0
 16 45  1  0  0  0  0
 16 46  1  0  0  0  0
 17 18  1  0  0  0  0
 18 19  1  0  0  0  0
 18 47  1  0  0  0  0
 18 48  1  0  0  0  0
 19 20  1  0  0  0  0
 19 49  1  0  0  0  0
 19 50  1  0  0  0  0
 20 21  1  0  0  0  0
 20 51  1  0  0  0  0
 21 52  1  0  0  0  0
 22 23  1  0  0  0  0
 23 24  2  0  0  0  0
 23 53  1  0  0  0  0
 24 25  1  0  0  0  0
 26 27  1  0  0  0  0
 26 54  1  0  0  0  0
 26 55  1  0  0  0  0
 27 28  1  0  0  0  0
 27 56  1  0  0  0  0
 27 57  1  0  0  0  0
 28 29  1  0  0  0  0
 29 30  1  0  0  0  0
 29 58  1  0  0  0  0
 29 59  1  0  0  0  0
 30 60  1  0  0  0  0
 30 61  1  0  0  0  0
M  END
> <s_m_source_file>
AV-unprocessed.smi

> <i_m_source_file_index>
247

> <i_lp_mmshare_version>
43012

> <i_f3d_flags>
0

> <s_epik_input>
W0NIMl0xW0NIMl1PW0NIMl1bQ0gyXUMxKFtDSDJdW09IXSlbQ0gyXW4oW2NIXW4yKWMoYzIzKW5bY0hdbmMzTjRbQ0gyXVtDSDJdW0NIMl1bQ0BIXTRbQ0BASF01W0NIMl1PW0NIMl1bQ0gyXVtDQEhdNVtPSF0=

> <s_epik_cmdline>
J2VwaWtfcHl0aG9uJywgJy1waCcsICc3LjAnLCAnLXRuJywgJzgnLCAnLW1hJywgJzIwMCcsICctbWV0YWxfYmluZGluZycsICctaW1hZScsICc8aW5maWxlLm1hZT4nLCAnLW9tYWUnLCAnPG91dGZpbGUubWFlPic=

> <r_lp_tautomer_probability>
1

> <r_epik_Ionization_Penalty>
0.00362597

> <r_epik_Ionization_Penalty_Charging>
0

> <r_epik_Ionization_Penalty_Neutral>
0.00362597

> <r_epik_State_Penalty>
0.00241433

> <r_epik_Charging_Adjusted_Penalty>
0.00241433

> <i_epik_Tot_Q>
0

> <i_epik_Tot_abs_Q>
0

> <r_epik_Metal_State_Penalty>
-0

> <b_epik_Metal_Only>
0

> <s_lp_Force_Field>
OPLS_2005

> <r_lp_Energy>
58.3113

> <b_lp_Chiralities_Consistent>
1

> <s_lp_Variant>
AV-unprocessed.smi:247-7

> <Gold.Version>
5.8.1

> <Gold.Id.Protein>
6NUR|6NUR_protein|mol2

> <Gold.PLP.Fitness>
47.9113

> <Gold.PLP.PLP>
-43.7103

> <Gold.PLP.part.hbond>
-3.2948

> <Gold.PLP.part.metal>
0.0000

> <Gold.PLP.part.buried>
-6.4466

> <Gold.PLP.part.nonpolar>
-33.8760

> <Gold.PLP.part.repulsive>
0.0611

> <Gold.PLP.ligand.clash>
0.0000

> <Gold.PLP.ligand.torsion>
0.9021

> <Gold.PLP.Chemscore.Hbond>
1.8800

> <Gold.PLP.Chemscore.CHOScore>
0.0000

> <Gold.PLP.Chemscore.Metal>
0.0000

> <Gold.Chemscore.Hbonds>
donor molecule, donor type, donor heavy atom, donor atom, acceptor molecule, acceptor atom, score
      L1  H    21    52       P1  8028  1.00
      P1  H  6931  6943       L1     1  0.16
      P1  H  6934  6947       L1     1  0.54

> <Gold.PLP.Chemscore.Internal.Correction>
0.3653

> <Gold.Rescore>
     Score         DG    S(hbond)    S(metal)    S(lipo)     H(rot)  DE(clash)    DE(int)     intcor
     15.32     -15.94       1.63        0.00     113.58       3.23       0.05       0.57       ----

> <Gold.Chemscore.Fitness>
15.3182

> <Gold.Chemscore.DG>
-15.9400

> <Gold.Chemscore.ZeroCoef>
-5.4800

> <Gold.Chemscore.Hbond>
1.6271

> <Gold.Chemscore.Metal>
0.0000

> <Gold.Chemscore.Lipo>
113.5805

> <Gold.Chemscore.Internal_Hbond>
0.0000

> <Gold.Chemscore.DEClash>
0.0533

> <Gold.Chemscore.DEInternal>
0.5685

> <Gold.Chemscore.Rot>
3.2278

> <Gold.Chemscore.Internal.Correction>
   9.000000E+99

> <Gold.Chemscore.Hbonds>
donor molecule, donor type, donor heavy atom, donor atom, acceptor molecule, acceptor atom, score
      L1  H    21    52       P1  8028  0.98
      P1  H  6934  6947       L1     1  0.33

> <Gold.Chemscore.Hbond.Weighted>
-5.4343

> <Gold.Chemscore.Metal.Weighted>
-0.0000

> <Gold.Chemscore.Lipo.Weighted>
-13.2889

> <Gold.Chemscore.Internal_Hbond.Weighted>
0.0000

> <Gold.Chemscore.DEClash.Weighted>
0.0533

> <Gold.Chemscore.DEInternal.Weighted>
0.5685

> <Gold.Chemscore.Rot.Weighted>
8.2633

> <Gold.Chemscore.Internal.Correction.Weighted>
   9.000000E+99

> <Gold.Protein.RotatedTorsions>
[ 6907 6896 6895 6894 ] final  -18.14 input  -60.11 | X-H torsion
[ 7974 7965 7964 7962 ] final  -55.48 input  175.53 | X-H torsion
[ 8008 7997 7996 7995 ] final -170.71 input   59.86 | X-H torsion
[ 10167 10162 10161 10158 ] final -110.95 input  -65.29 | X-H torsion
[ 10718 10713 10712 10709 ] final  -67.14 input   66.30 | X-H torsion
[ 10763 10752 10751 10750 ] final   71.22 input  -60.55 | X-H torsion
[ 11005 11000 10999 10996 ] final -140.31 input  -57.11 | X-H torsion

> <Gold.Protein.ActiveResidues>
 VAL166  LYS551  ARG553  GLY616  TRP617  ASP618  TYR619  PRO620  LYS621  CYS622 
 ASP623  PHE694  ASN695  SER759  ASP760  ASP761  ALA762  ILE779  LEU786  VAL792 
 PHE793  MET794  SER795  GLU796  ALA797  LYS798  CYS799  TRP800  GLU811  SER814 

> <Gold.Protein.RotatedAtoms>
  151.2827  135.0718  159.9174 H   0  0  0  0  0  0  0  0  0  0  0  0  # atno 6907 bound_to 6896
  152.5331  134.0014  159.7907 H   0  0  0  0  0  0  0  0  0  0  0  0  # atno 6908 bound_to 6896
  151.0271  133.5773  159.2695 H   0  0  0  0  0  0  0  0  0  0  0  0  # atno 6909 bound_to 6896
  145.8737  140.8197  142.9875 H   0  0  0  0  0  0  0  0  0  0  0  0  # atno 7974 bound_to 7965
  155.9219  140.1075  157.1200 H   0  0  0  0  0  0  0  0  0  0  0  0  # atno 8008 bound_to 7997
  154.4055  140.1254  156.4756 H   0  0  0  0  0  0  0  0  0  0  0  0  # atno 8009 bound_to 7997
  155.7185  140.3470  155.5008 H   0  0  0  0  0  0  0  0  0  0  0  0  # atno 8010 bound_to 7997
  140.1389  143.4296  152.1576 H   0  0  0  0  0  0  0  0  0  0  0  0  # atno 10167 bound_to 10162
  156.0573  130.4273  150.1812 H   0  0  0  0  0  0  0  0  0  0  0  0  # atno 10718 bound_to 10713
  153.0386  135.5145  154.7559 H   0  0  0  0  0  0  0  0  0  0  0  0  # atno 10763 bound_to 10752
  154.6515  135.2926  154.9983 H   0  0  0  0  0  0  0  0  0  0  0  0  # atno 10764 bound_to 10752
  154.0865  135.6656  153.4898 H   0  0  0  0  0  0  0  0  0  0  0  0  # atno 10765 bound_to 10752
  140.8434  134.2373  157.4798 H   0  0  0  0  0  0  0  0  0  0  0  0  # atno 11005 bound_to 11000
  144.6726  140.1278  143.7445 LP  0  0  0  0  0  0  0  0  0  0  0  0  # atno 17320 bound_to 7965
  145.9106  139.2485  143.1440 LP  0  0  0  0  0  0  0  0  0  0  0  0  # atno 17321 bound_to 7965
  139.5482  144.7316  151.4517 LP  0  0  0  0  0  0  0  0  0  0  0  0  # atno 17342 bound_to 10162
  140.6772  143.8162  150.7074 LP  0  0  0  0  0  0  0  0  0  0  0  0  # atno 17343 bound_to 10162
  156.9886  130.9886  151.3420 LP  0  0  0  0  0  0  0  0  0  0  0  0  # atno 17370 bound_to 10713
  157.5554  130.8210  149.8198 LP  0  0  0  0  0  0  0  0  0  0  0  0  # atno 17371 bound_to 10713
  139.8703  134.9647  156.4504 LP  0  0  0  0  0  0  0  0  0  0  0  0  # atno 17394 bound_to 11000
  140.8869  133.7876  155.9529 LP  0  0  0  0  0  0  0  0  0  0  0  0  # atno 17395 bound_to 11000

$$$$
