AV-unprocessed.smi:1381|AV-procd|sdf|5603|dock4
  -GOLD-   22720 5213D 1   1.00000     0.00000
 Structure written by MMmdl.
 42 43  0  0  0  0  0  0  0  0  1 V2000
  149.2998  131.6108  154.7027 C   0  0  0  0  0  0  0  0  0  0  0  0
  149.7059  132.8081  155.4917 C   0  0  0  0  0  0  0  0  0  0  0  0
  149.8953  134.1204  155.1603 C   0  0  0  0  0  0  0  0  0  0  0  0
  150.2784  134.7099  156.3943 C   0  0  0  0  0  0  0  0  0  0  0  0
  150.5734  136.0944  156.4787 N   0  0  0  0  0  0  0  0  0  0  0  0
  151.1254  136.7528  157.5121 C   0  0  0  0  0  0  0  0  0  0  0  0
  151.4752  136.2400  158.5754 O   0  0  0  0  0  0  0  0  0  0  0  0
  151.2514  138.0604  157.2442 N   0  0  0  0  0  0  0  0  0  0  0  0
  151.8061  139.0566  158.1554 C   0  0  0  0  0  0  0  0  0  0  0  0
  151.1536  140.4429  157.9792 C   0  0  0  0  0  0  0  0  0  0  0  0
  151.5651  141.4511  158.9550 N   0  0  0  0  0  0  0  0  0  0  0  0
  151.3677  142.7960  158.4299 C   0  0  0  0  0  0  0  0  0  0  0  0
  151.7521  143.8767  159.4562 C   0  0  2  0  0  0  0  0  0  0  0  0
  151.6210  145.2908  158.8810 C   0  0  0  0  0  0  0  0  0  0  0  0
  153.1072  143.6847  159.8580 O   0  0  0  0  0  0  0  0  0  0  0  0
  153.4142  142.3829  160.3600 C   0  0  1  0  0  0  0  0  0  0  0  0
  152.8570  142.1728  161.7782 C   0  0  0  0  0  0  0  0  0  0  0  0
  152.9609  141.3001  159.3598 C   0  0  0  0  0  0  0  0  0  0  0  0
  150.3166  133.8373  157.3897 N   0  0  0  0  0  0  0  0  0  0  0  0
  149.9498  132.6139  156.8163 O   0  0  0  0  0  0  0  0  0  0  0  0
  149.2439  131.8455  153.6397 H   0  0  0  0  0  0  0  0  0  0  0  0
  148.3214  131.2517  155.0217 H   0  0  0  0  0  0  0  0  0  0  0  0
  150.0174  130.8005  154.8323 H   0  0  0  0  0  0  0  0  0  0  0  0
  149.7792  134.5808  154.1905 H   0  0  0  0  0  0  0  0  0  0  0  0
  150.3393  136.6423  155.6643 H   0  0  0  0  0  0  0  0  0  0  0  0
  150.9381  138.3950  156.3449 H   0  0  0  0  0  0  0  0  0  0  0  0
  151.6534  138.7113  159.1793 H   0  0  0  0  0  0  0  0  0  0  0  0
  152.8861  139.1147  158.0172 H   0  0  0  0  0  0  0  0  0  0  0  0
  151.2951  140.8149  156.9632 H   0  0  0  0  0  0  0  0  0  0  0  0
  150.0776  140.2957  158.0840 H   0  0  0  0  0  0  0  0  0  0  0  0
  151.9586  142.9278  157.5218 H   0  0  0  0  0  0  0  0  0  0  0  0
  150.3239  142.9302  158.1437 H   0  0  0  0  0  0  0  0  0  0  0  0
  151.1014  143.7998  160.3279 H   0  0  0  0  0  0  0  0  0  0  0  0
  150.5956  145.4943  158.5708 H   0  0  0  0  0  0  0  0  0  0  0  0
  152.2674  145.4259  158.0135 H   0  0  0  0  0  0  0  0  0  0  0  0
  151.8981  146.0398  159.6232 H   0  0  0  0  0  0  0  0  0  0  0  0
  154.5006  142.3333  160.4358 H   0  0  0  0  0  0  0  0  0  0  0  0
  153.2017  141.2257  162.1937 H   0  0  0  0  0  0  0  0  0  0  0  0
  151.7675  142.1566  161.7932 H   0  0  0  0  0  0  0  0  0  0  0  0
  153.1889  142.9670  162.4470 H   0  0  0  0  0  0  0  0  0  0  0  0
  153.1238  140.3188  159.8048 H   0  0  0  0  0  0  0  0  0  0  0  0
  153.5996  141.3473  158.4762 H   0  0  0  0  0  0  0  0  0  0  0  0
  1  2  1  0  0  0  0
  1 21  1  0  0  0  0
  1 22  1  0  0  0  0
  1 23  1  0  0  0  0
  2 20  1  0  0  0  0
  2  3  2  0  0  0  0
  3  4  1  0  0  0  0
  3 24  1  0  0  0  0
  4  5  1  0  0  0  0
  4 19  2  0  0  0  0
  5  6  1  0  0  0  0
  5 25  1  0  0  0  0
  6  7  2  0  0  0  0
  6  8  1  0  0  0  0
  8  9  1  0  0  0  0
  8 26  1  0  0  0  0
  9 10  1  0  0  0  0
  9 27  1  0  0  0  0
  9 28  1  0  0  0  0
 10 11  1  0  0  0  0
 10 29  1  0  0  0  0
 10 30  1  0  0  0  0
 11 18  1  0  0  0  0
 11 12  1  0  0  0  0
 12 13  1  0  0  0  0
 12 31  1  0  0  0  0
 12 32  1  0  0  0  0
 13 14  1  0  0  0  0
 13 15  1  0  0  0  0
 13 33  1  0  0  0  0
 14 34  1  0  0  0  0
 14 35  1  0  0  0  0
 14 36  1  0  0  0  0
 15 16  1  0  0  0  0
 16 17  1  0  0  0  0
 16 18  1  0  0  0  0
 16 37  1  0  0  0  0
 17 38  1  0  0  0  0
 17 39  1  0  0  0  0
 17 40  1  0  0  0  0
 18 41  1  0  0  0  0
 18 42  1  0  0  0  0
 19 20  1  0  0  0  0
M  END
> <s_m_source_file>
AV-unprocessed.smi

> <i_m_source_file_index>
1381

> <i_lp_mmshare_version>
43012

> <i_f3d_flags>
0

> <s_epik_input>
W0NIM11jMVtjSF1jKG5vMSlbTkhdQyg9TylbTkhdW0NIMl1bQ0gyXU4yW0NIMl1bQ0BASF0oW0NIM10pT1tDQEBIXShbQ0gzXSlbQ0gyXTI=

> <s_epik_cmdline>
J2VwaWtfcHl0aG9uJywgJy1waCcsICc3LjAnLCAnLXRuJywgJzgnLCAnLW1hJywgJzIwMCcsICctbWV0YWxfYmluZGluZycsICctaW1hZScsICc8aW5maWxlLm1hZT4nLCAnLW9tYWUnLCAnPG91dGZpbGUubWFlPic=

> <r_epik_Ionization_Penalty>
0.214073

> <r_epik_Ionization_Penalty_Charging>
0

> <r_epik_Ionization_Penalty_Neutral>
0.214073

> <r_epik_State_Penalty>
0.204211

> <r_epik_Charging_Adjusted_Penalty>
0.204211

> <i_epik_Tot_Q>
0

> <i_epik_Tot_abs_Q>
0

> <r_epik_Metal_State_Penalty>
0.217067

> <b_epik_Metal_Only>
0

> <s_lp_Force_Field>
OPLS_2005

> <r_lp_Energy>
25.417

> <b_lp_Chiralities_Consistent>
1

> <s_lp_Variant>
AV-unprocessed.smi:1381-2

> <Gold.Version>
5.8.1

> <Gold.Id.Protein>
6NUR|6NUR_protein|mol2

> <Gold.PLP.Fitness>
37.7969

> <Gold.PLP.PLP>
-35.2589

> <Gold.PLP.part.hbond>
-2.0000

> <Gold.PLP.part.metal>
0.0000

> <Gold.PLP.part.buried>
-5.5504

> <Gold.PLP.part.nonpolar>
-27.9083

> <Gold.PLP.part.repulsive>
0.1383

> <Gold.PLP.ligand.clash>
0.0000

> <Gold.PLP.ligand.torsion>
0.4883

> <Gold.PLP.Chemscore.Hbond>
1.1680

> <Gold.PLP.Chemscore.CHOScore>
0.0000

> <Gold.PLP.Chemscore.Metal>
0.0000

> <Gold.Chemscore.Hbonds>
donor molecule, donor type, donor heavy atom, donor atom, acceptor molecule, acceptor atom, score
      P1  H  6896  6907       L1     7  0.59
      P1  H  6896  6909       L1    19  0.80

> <Gold.PLP.Chemscore.Internal.Correction>
0.0107

> <Gold.Rescore>
     Score         DG    S(hbond)    S(metal)    S(lipo)     H(rot)  DE(clash)    DE(int)     intcor
     14.55     -16.37       1.31        0.00      90.09       1.57       0.02       1.80       ----

> <Gold.Chemscore.Fitness>
14.5547

> <Gold.Chemscore.DG>
-16.3740

> <Gold.Chemscore.ZeroCoef>
-5.4800

> <Gold.Chemscore.Hbond>
1.3091

> <Gold.Chemscore.Metal>
0.0000

> <Gold.Chemscore.Lipo>
90.0862

> <Gold.Chemscore.Internal_Hbond>
0.0000

> <Gold.Chemscore.DEClash>
0.0231

> <Gold.Chemscore.DEInternal>
1.7962

> <Gold.Chemscore.Rot>
1.5697

> <Gold.Chemscore.Internal.Correction>
   9.000000E+99

> <Gold.Chemscore.Hbonds>
donor molecule, donor type, donor heavy atom, donor atom, acceptor molecule, acceptor atom, score
      P1  H  6896  6907       L1     7  0.60
      P1  H  6896  6909       L1    19  0.65

> <Gold.Chemscore.Hbond.Weighted>
-4.3724

> <Gold.Chemscore.Metal.Weighted>
-0.0000

> <Gold.Chemscore.Lipo.Weighted>
-10.5401

> <Gold.Chemscore.Internal_Hbond.Weighted>
0.0000

> <Gold.Chemscore.DEClash.Weighted>
0.0231

> <Gold.Chemscore.DEInternal.Weighted>
1.7962

> <Gold.Chemscore.Rot.Weighted>
4.0185

> <Gold.Chemscore.Internal.Correction.Weighted>
   9.000000E+99

> <Gold.Protein.RotatedTorsions>
[ 6907 6896 6895 6894 ] final  -16.10 input  -60.11 | X-H torsion
[ 7974 7965 7964 7962 ] final   97.69 input  175.53 | X-H torsion
[ 8008 7997 7996 7995 ] final -153.94 input   59.86 | X-H torsion
[ 10167 10162 10161 10158 ] final   92.05 input  -65.29 | X-H torsion
[ 10718 10713 10712 10709 ] final -136.01 input   66.30 | X-H torsion
[ 10763 10752 10751 10750 ] final   25.68 input  -60.55 | X-H torsion
[ 11005 11000 10999 10996 ] final -169.51 input  -57.11 | X-H torsion

> <Gold.Protein.ActiveResidues>
 VAL166  LYS551  ARG553  GLY616  TRP617  ASP618  TYR619  PRO620  LYS621  CYS622 
 ASP623  PHE694  ASN695  SER759  ASP760  ASP761  ALA762  ILE779  LEU786  VAL792 
 PHE793  MET794  SER795  GLU796  ALA797  LYS798  CYS799  TRP800  GLU811  SER814 

> <Gold.Protein.RotatedAtoms>
  151.3137  135.0801  159.9281 H   0  0  0  0  0  0  0  0  0  0  0  0  # atno 6907 bound_to 6896
  152.5272  133.9709  159.7772 H   0  0  0  0  0  0  0  0  0  0  0  0  # atno 6908 bound_to 6896
  151.0018  133.5997  159.2724 H   0  0  0  0  0  0  0  0  0  0  0  0  # atno 6909 bound_to 6896
  145.4221  139.2320  143.3190 H   0  0  0  0  0  0  0  0  0  0  0  0  # atno 7974 bound_to 7965
  155.6786  140.0741  157.2493 H   0  0  0  0  0  0  0  0  0  0  0  0  # atno 8008 bound_to 7997
  154.4110  140.1686  156.2009 H   0  0  0  0  0  0  0  0  0  0  0  0  # atno 8009 bound_to 7997
  155.9555  140.3374  155.6447 H   0  0  0  0  0  0  0  0  0  0  0  0  # atno 8010 bound_to 7997
  139.8315  144.6685  150.9394 H   0  0  0  0  0  0  0  0  0  0  0  0  # atno 10167 bound_to 10162
  156.2723  130.7273  151.1244 H   0  0  0  0  0  0  0  0  0  0  0  0  # atno 10718 bound_to 10713
  153.0675  135.6577  154.0321 H   0  0  0  0  0  0  0  0  0  0  0  0  # atno 10763 bound_to 10752
  153.9975  135.2940  155.3407 H   0  0  0  0  0  0  0  0  0  0  0  0  # atno 10764 bound_to 10752
  154.7038  135.5233  153.8634 H   0  0  0  0  0  0  0  0  0  0  0  0  # atno 10765 bound_to 10752
  140.5299  134.5626  157.5072 H   0  0  0  0  0  0  0  0  0  0  0  0  # atno 11005 bound_to 11000
  146.2651  140.4947  142.8837 LP  0  0  0  0  0  0  0  0  0  0  0  0  # atno 17320 bound_to 7965
  144.8238  140.6594  143.6335 LP  0  0  0  0  0  0  0  0  0  0  0  0  # atno 17321 bound_to 7965
  140.7806  143.3997  151.1170 LP  0  0  0  0  0  0  0  0  0  0  0  0  # atno 17342 bound_to 10162
  139.7650  143.8579  152.3108 LP  0  0  0  0  0  0  0  0  0  0  0  0  # atno 17343 bound_to 10162
  157.7288  131.0629  150.5804 LP  0  0  0  0  0  0  0  0  0  0  0  0  # atno 17370 bound_to 10713
  156.5901  130.4327  149.5940 LP  0  0  0  0  0  0  0  0  0  0  0  0  # atno 17371 bound_to 10713
  139.9560  134.7535  156.0342 LP  0  0  0  0  0  0  0  0  0  0  0  0  # atno 17394 bound_to 11000
  141.1287  133.6592  156.3406 LP  0  0  0  0  0  0  0  0  0  0  0  0  # atno 17395 bound_to 11000

$$$$
