AV-unprocessed.smi:3284|AV-procd|sdf|12576|dock6
  -GOLD-   2272018503D 1   1.00000     0.00000
 Structure written by MMmdl.
 45 46  0  0  0  0  0  0  0  0  3 V2000
  145.7581  143.5067  156.8458 C   0  0  0  0  0  0  0  0  0  0  0  0
  146.2879  142.7781  155.6220 C   0  0  0  0  0  0  0  0  0  0  0  0
  146.3250  143.3868  154.4201 C   0  0  0  0  0  0  0  0  0  0  0  0
  146.7883  142.7322  153.1306 C   0  0  0  0  0  0  0  0  0  0  0  0
  147.3959  141.3360  153.3450 C   0  0  0  0  0  0  0  0  0  0  0  0
  146.6571  140.5633  154.4515 C   0  0  1  0  0  0  0  0  0  0  0  0
  147.0954  139.0903  154.5201 C   0  0  0  0  0  0  0  0  0  0  0  0
  146.7338  141.3214  155.8070 C   0  0  1  0  0  0  0  0  0  0  0  0
  148.1265  141.2164  156.4824 C   0  0  0  0  0  0  0  0  0  0  0  0
  149.1983  141.8487  155.6886 N   0  3  0  0  0  0  0  0  0  0  0  0
  150.5521  141.6712  156.2521 C   0  0  0  0  0  0  0  0  0  0  0  0
  150.5807  141.9184  157.7690 C   0  0  0  0  0  0  0  0  0  0  0  0
  151.2391  143.2084  158.1626 C   0  0  0  0  0  0  0  0  0  0  0  0
  150.9152  144.4163  157.6845 N   0  3  0  0  0  0  0  0  0  0  0  0
  151.7074  145.3810  158.2450 C   0  0  0  0  0  0  0  0  0  0  0  0
  152.5569  144.7333  159.1028 C   0  0  0  0  0  0  0  0  0  0  0  0
  152.2470  143.3992  159.0316 N   0  0  0  0  0  0  0  0  0  0  0  0
  152.8944  142.3186  159.7782 C   0  0  0  0  0  0  0  0  0  0  0  0
  145.0626  142.8754  157.3990 H   0  0  0  0  0  0  0  0  0  0  0  0
  145.2245  144.4136  156.5592 H   0  0  0  0  0  0  0  0  0  0  0  0
  146.5673  143.8057  157.5097 H   0  0  0  0  0  0  0  0  0  0  0  0
  145.9804  144.4066  154.3273 H   0  0  0  0  0  0  0  0  0  0  0  0
  145.9209  142.6574  152.4739 H   0  0  0  0  0  0  0  0  0  0  0  0
  147.5066  143.3817  152.6298 H   0  0  0  0  0  0  0  0  0  0  0  0
  147.3646  140.7824  152.4058 H   0  0  0  0  0  0  0  0  0  0  0  0
  148.4509  141.4307  153.6026 H   0  0  0  0  0  0  0  0  0  0  0  0
  145.6033  140.5409  154.1674 H   0  0  0  0  0  0  0  0  0  0  0  0
  148.1729  138.9889  154.6494 H   0  0  0  0  0  0  0  0  0  0  0  0
  146.8342  138.5681  153.5992 H   0  0  0  0  0  0  0  0  0  0  0  0
  146.6028  138.5691  155.3416 H   0  0  0  0  0  0  0  0  0  0  0  0
  146.0070  140.8453  156.4670 H   0  0  0  0  0  0  0  0  0  0  0  0
  148.1222  141.7079  157.4542 H   0  0  0  0  0  0  0  0  0  0  0  0
  148.3831  140.1709  156.6550 H   0  0  0  0  0  0  0  0  0  0  0  0
  149.1805  141.4462  154.7621 H   0  0  0  0  0  0  0  0  0  0  0  0
  150.9122  140.6660  156.0287 H   0  0  0  0  0  0  0  0  0  0  0  0
  151.2302  142.3695  155.7602 H   0  0  0  0  0  0  0  0  0  0  0  0
  149.5634  141.9615  158.1596 H   0  0  0  0  0  0  0  0  0  0  0  0
  151.0822  141.1025  158.2892 H   0  0  0  0  0  0  0  0  0  0  0  0
  151.6092  146.4285  157.9990 H   0  0  0  0  0  0  0  0  0  0  0  0
  153.3382  145.1155  159.7444 H   0  0  0  0  0  0  0  0  0  0  0  0
  153.6609  142.7359  160.4322 H   0  0  0  0  0  0  0  0  0  0  0  0
  153.3587  141.6234  159.0797 H   0  0  0  0  0  0  0  0  0  0  0  0
  152.1517  141.7992  160.3845 H   0  0  0  0  0  0  0  0  0  0  0  0
  149.0001  142.8363  155.6167 H   0  0  0  0  0  0  0  0  0  0  0  0
  150.1810  144.5924  157.0098 H   0  0  0  0  0  0  0  0  0  0  0  0
  1  2  1  0  0  0  0
  1 19  1  0  0  0  0
  1 20  1  0  0  0  0
  1 21  1  0  0  0  0
  2  8  1  0  0  0  0
  2  3  2  0  0  0  0
  3  4  1  0  0  0  0
  3 22  1  0  0  0  0
  4  5  1  0  0  0  0
  4 23  1  0  0  0  0
  4 24  1  0  0  0  0
  5  6  1  0  0  0  0
  5 25  1  0  0  0  0
  5 26  1  0  0  0  0
  6  7  1  0  0  0  0
  6  8  1  0  0  0  0
  6 27  1  0  0  0  0
  7 28  1  0  0  0  0
  7 29  1  0  0  0  0
  7 30  1  0  0  0  0
  8  9  1  0  0  0  0
  8 31  1  0  0  0  0
  9 10  1  0  0  0  0
  9 32  1  0  0  0  0
  9 33  1  0  0  0  0
 10 11  1  0  0  0  0
 10 34  1  0  0  0  0
 10 44  1  0  0  0  0
 11 12  1  0  0  0  0
 11 35  1  0  0  0  0
 11 36  1  0  0  0  0
 12 13  1  0  0  0  0
 12 37  1  0  0  0  0
 12 38  1  0  0  0  0
 13 17  1  0  0  0  0
 13 14  2  0  0  0  0
 14 15  1  0  0  0  0
 14 45  1  0  0  0  0
 15 16  2  0  0  0  0
 15 39  1  0  0  0  0
 16 17  1  0  0  0  0
 16 40  1  0  0  0  0
 17 18  1  0  0  0  0
 18 41  1  0  0  0  0
 18 42  1  0  0  0  0
 18 43  1  0  0  0  0
M  CHG  1  10   1
M  CHG  1  14   1
M  END
> <s_m_source_file>
AV-unprocessed.smi

> <i_m_source_file_index>
3284

> <i_lp_mmshare_version>
43012

> <i_f3d_flags>
0

> <s_epik_input>
W0NIM11DMT1bQ0hdW0NIMl1bQ0gyXVtDQEBIXShbQ0gzXSlbQ0BIXTFbQ0gyXVtOSF1bQ0gyXVtDSDJdYzJuW2NIXVtjSF1uMltDSDNd

> <s_epik_cmdline>
J2VwaWtfcHl0aG9uJywgJy1waCcsICc3LjAnLCAnLXRuJywgJzgnLCAnLW1hJywgJzIwMCcsICctbWV0YWxfYmluZGluZycsICctaW1hZScsICc8aW5maWxlLm1hZT4nLCAnLW9tYWUnLCAnPG91dGZpbGUubWFlPic=

> <r_lp_tautomer_probability>
1

> <r_epik_Ionization_Penalty>
0.892846

> <r_epik_Ionization_Penalty_Charging>
0.00275802

> <r_epik_Ionization_Penalty_Neutral>
0.890088

> <r_epik_State_Penalty>
0.485211

> <r_epik_Charging_Adjusted_Penalty>
0.487969

> <i_epik_Tot_Q>
2

> <i_epik_Tot_abs_Q>
2

> <r_epik_Metal_State_Penalty>
4.22898

> <b_epik_Metal_Only>
0

> <s_lp_Force_Field>
OPLS_2005

> <r_lp_Energy>
25.5845

> <b_lp_Chiralities_Consistent>
1

> <s_lp_Variant>
AV-unprocessed.smi:3284-5

> <Gold.Version>
5.8.1

> <Gold.Id.Protein>
6NUR|6NUR_protein|mol2

> <Gold.PLP.Fitness>
49.3287

> <Gold.PLP.PLP>
-38.1599

> <Gold.PLP.part.hbond>
-2.0000

> <Gold.PLP.part.metal>
0.0000

> <Gold.PLP.part.buried>
-6.8820

> <Gold.PLP.part.nonpolar>
-29.5261

> <Gold.PLP.part.repulsive>
0.1431

> <Gold.PLP.ligand.clash>
0.0000

> <Gold.PLP.ligand.torsion>
0.4400

> <Gold.PLP.Chemscore.Hbond>
4.0000

> <Gold.PLP.Chemscore.CHOScore>
0.0000

> <Gold.PLP.Chemscore.Metal>
0.0000

> <Gold.Chemscore.Hbonds>
donor molecule, donor type, donor heavy atom, donor atom, acceptor molecule, acceptor atom, score
      L1  H    10    44       P1  8028  2.00
      L1  H    14    45       P1  8028  2.00

> <Gold.PLP.Chemscore.Internal.Correction>
0.0488

> <Gold.Rescore>
     Score         DG    S(hbond)    S(metal)    S(lipo)     H(rot)  DE(clash)    DE(int)     intcor
     16.50     -17.11       1.85        0.00      83.85       1.70       0.00       0.61       ----

> <Gold.Chemscore.Fitness>
16.5040

> <Gold.Chemscore.DG>
-17.1116

> <Gold.Chemscore.ZeroCoef>
-5.4800

> <Gold.Chemscore.Hbond>
1.8481

> <Gold.Chemscore.Metal>
0.0000

> <Gold.Chemscore.Lipo>
83.8476

> <Gold.Chemscore.Internal_Hbond>
0.0000

> <Gold.Chemscore.DEClash>
0.0024

> <Gold.Chemscore.DEInternal>
0.6052

> <Gold.Chemscore.Rot>
1.6997

> <Gold.Chemscore.Internal.Correction>
   9.000000E+99

> <Gold.Chemscore.Hbonds>
donor molecule, donor type, donor heavy atom, donor atom, acceptor molecule, acceptor atom, score
      L1  H    10    44       P1  8028  1.00
      L1  H    14    45       P1  8028  0.60

> <Gold.Chemscore.Hbond.Weighted>
-6.1727

> <Gold.Chemscore.Metal.Weighted>
-0.0000

> <Gold.Chemscore.Lipo.Weighted>
-9.8102

> <Gold.Chemscore.Internal_Hbond.Weighted>
0.0000

> <Gold.Chemscore.DEClash.Weighted>
0.0024

> <Gold.Chemscore.DEInternal.Weighted>
0.6052

> <Gold.Chemscore.Rot.Weighted>
4.3512

> <Gold.Chemscore.Internal.Correction.Weighted>
   9.000000E+99

> <Gold.Protein.RotatedTorsions>
[ 6907 6896 6895 6894 ] final  109.40 input  -60.11 | X-H torsion
[ 7974 7965 7964 7962 ] final  -47.49 input  175.53 | X-H torsion
[ 8008 7997 7996 7995 ] final  137.74 input   59.86 | X-H torsion
[ 10167 10162 10161 10158 ] final -152.25 input  -65.29 | X-H torsion
[ 10718 10713 10712 10709 ] final -173.50 input   66.30 | X-H torsion
[ 10763 10752 10751 10750 ] final  -80.42 input  -60.55 | X-H torsion
[ 11005 11000 10999 10996 ] final  -79.94 input  -57.11 | X-H torsion

> <Gold.Protein.ActiveResidues>
 VAL166  LYS551  ARG553  GLY616  TRP617  ASP618  TYR619  PRO620  LYS621  CYS622 
 ASP623  PHE694  ASN695  SER759  ASP760  ASP761  ALA762  ILE779  LEU786  VAL792 
 PHE793  MET794  SER795  GLU796  ALA797  LYS798  CYS799  TRP800  GLU811  SER814 

> <Gold.Protein.RotatedAtoms>
  152.5069  133.8950  159.7412 H   0  0  0  0  0  0  0  0  0  0  0  0  # atno 6907 bound_to 6896
  150.9380  133.6681  159.2803 H   0  0  0  0  0  0  0  0  0  0  0  0  # atno 6908 bound_to 6896
  151.4003  135.0975  159.9606 H   0  0  0  0  0  0  0  0  0  0  0  0  # atno 6909 bound_to 6896
  145.9610  140.7479  142.9457 H   0  0  0  0  0  0  0  0  0  0  0  0  # atno 7974 bound_to 7965
  156.3001  140.2411  156.3959 H   0  0  0  0  0  0  0  0  0  0  0  0  # atno 8008 bound_to 7997
  154.8571  140.0421  157.1661 H   0  0  0  0  0  0  0  0  0  0  0  0  # atno 8009 bound_to 7997
  154.8936  140.2967  155.5360 H   0  0  0  0  0  0  0  0  0  0  0  0  # atno 8010 bound_to 7997
  139.7197  143.8976  152.2499 H   0  0  0  0  0  0  0  0  0  0  0  0  # atno 10167 bound_to 10162
  156.7712  130.9449  151.3120 H   0  0  0  0  0  0  0  0  0  0  0  0  # atno 10718 bound_to 10713
  154.5510  135.5661  153.6922 H   0  0  0  0  0  0  0  0  0  0  0  0  # atno 10763 bound_to 10752
  152.9989  135.6251  154.2374 H   0  0  0  0  0  0  0  0  0  0  0  0  # atno 10764 bound_to 10752
  154.2309  135.2866  155.2870 H   0  0  0  0  0  0  0  0  0  0  0  0  # atno 10765 bound_to 10752
  141.1668  133.7128  156.8198 H   0  0  0  0  0  0  0  0  0  0  0  0  # atno 11005 bound_to 11000
  144.6815  140.2591  143.7321 LP  0  0  0  0  0  0  0  0  0  0  0  0  # atno 17320 bound_to 7965
  145.8039  139.1975  143.2032 LP  0  0  0  0  0  0  0  0  0  0  0  0  # atno 17321 bound_to 7965
  139.8869  144.6987  150.8815 LP  0  0  0  0  0  0  0  0  0  0  0  0  # atno 17342 bound_to 10162
  140.7751  143.3617  151.1815 LP  0  0  0  0  0  0  0  0  0  0  0  0  # atno 17343 bound_to 10162
  157.6690  130.9033  149.9996 LP  0  0  0  0  0  0  0  0  0  0  0  0  # atno 17370 bound_to 10713
  156.1276  130.3644  149.9783 LP  0  0  0  0  0  0  0  0  0  0  0  0  # atno 17371 bound_to 10713
  140.2127  134.8815  157.3292 LP  0  0  0  0  0  0  0  0  0  0  0  0  # atno 17394 bound_to 11000
  140.2070  134.4185  155.7633 LP  0  0  0  0  0  0  0  0  0  0  0  0  # atno 17395 bound_to 11000

$$$$
