AV-unprocessed.smi:1866|AV-procd|sdf|7559|dock5
  -GOLD-   22720 9273D 1   1.00000     0.00000
 Structure written by MMmdl.
 29 30  0  0  0  0  0  0  0  0  2 V2000
  152.3695  138.6834  154.6931 C   0  0  0  0  0  0  0  0  0  0  0  0
  151.7305  137.6875  155.5992 C   0  0  0  0  0  0  0  0  0  0  0  0
  151.5122  136.4204  155.2398 N   0  0  0  0  0  0  0  0  0  0  0  0
  150.9076  135.6872  156.2507 N   0  0  0  0  0  0  0  0  0  0  0  0
  150.6861  136.4052  157.3608 C   0  0  0  0  0  0  0  0  0  0  0  0
  150.1059  135.8816  158.4534 N   0  5  0  0  0  0  0  0  0  0  0  0
  148.9906  136.4507  158.9649 C   0  0  0  0  0  0  0  0  0  0  0  0
  148.4927  137.5236  158.6167 O   0  0  0  0  0  0  0  0  0  0  0  0
  148.4145  135.7259  159.9359 N   0  0  0  0  0  0  0  0  0  0  0  0
  147.2112  136.0734  160.6942 C   0  0  1  0  0  0  0  0  0  0  0  0
  146.0871  135.0900  160.3008 C   0  0  0  0  0  0  0  0  0  0  0  0
  146.2740  133.7085  160.9356 C   0  0  0  0  0  0  0  0  0  0  0  0
  146.2827  133.8354  162.4636 C   0  0  0  0  0  0  0  0  0  0  0  0
  147.0990  134.9523  162.9336 N   0  0  0  0  0  0  0  0  0  0  0  0
  147.5164  136.0070  162.2093 C   0  0  0  0  0  0  0  0  0  0  0  0
  148.1394  136.9245  162.7399 O   0  0  0  0  0  0  0  0  0  0  0  0
  151.2029  138.0859  157.2254 S   0  0  0  0  0  0  0  0  0  0  0  0
  153.4466  138.5193  154.6603 H   0  0  0  0  0  0  0  0  0  0  0  0
  152.1796  139.6962  155.0489 H   0  0  0  0  0  0  0  0  0  0  0  0
  151.9678  138.5879  153.6840 H   0  0  0  0  0  0  0  0  0  0  0  0
  148.8640  134.8565  160.1820 H   0  0  0  0  0  0  0  0  0  0  0  0
  146.8971  137.0866  160.4373 H   0  0  0  0  0  0  0  0  0  0  0  0
  145.1261  135.4988  160.6158 H   0  0  0  0  0  0  0  0  0  0  0  0
  146.0303  134.9980  159.2152 H   0  0  0  0  0  0  0  0  0  0  0  0
  145.4801  133.0314  160.6195 H   0  0  0  0  0  0  0  0  0  0  0  0
  147.2118  133.2683  160.5944 H   0  0  0  0  0  0  0  0  0  0  0  0
  145.2662  133.9928  162.8254 H   0  0  0  0  0  0  0  0  0  0  0  0
  146.6393  132.9115  162.9192 H   0  0  0  0  0  0  0  0  0  0  0  0
  147.3407  134.9469  163.9139 H   0  0  0  0  0  0  0  0  0  0  0  0
  1  2  1  0  0  0  0
  1 18  1  0  0  0  0
  1 19  1  0  0  0  0
  1 20  1  0  0  0  0
  2 17  1  0  0  0  0
  2  3  2  0  0  0  0
  3  4  1  0  0  0  0
  4  5  2  0  0  0  0
  5  6  1  0  0  0  0
  5 17  1  0  0  0  0
  6  7  1  0  0  0  0
  7  8  2  0  0  0  0
  7  9  1  0  0  0  0
  9 10  1  0  0  0  0
  9 21  1  0  0  0  0
 10 15  1  0  0  0  0
 10 11  1  0  0  0  0
 10 22  1  0  0  0  0
 11 12  1  0  0  0  0
 11 23  1  0  0  0  0
 11 24  1  0  0  0  0
 12 13  1  0  0  0  0
 12 25  1  0  0  0  0
 12 26  1  0  0  0  0
 13 14  1  0  0  0  0
 13 27  1  0  0  0  0
 13 28  1  0  0  0  0
 14 15  1  0  0  0  0
 14 29  1  0  0  0  0
 15 16  2  0  0  0  0
M  CHG  1   6  -1
M  END
> <s_m_source_file>
AV-unprocessed.smi

> <i_m_source_file_index>
1866

> <i_lp_mmshare_version>
43012

> <i_f3d_flags>
0

> <s_epik_input>
W0NIM11jMW5uYyhzMSlbTkhdQyg9TylbTkhdW0NAQEhdMltDSDJdW0NIMl1bQ0gyXVtOSF1DMj1P

> <s_epik_cmdline>
J2VwaWtfcHl0aG9uJywgJy1waCcsICc3LjAnLCAnLXRuJywgJzgnLCAnLW1hJywgJzIwMCcsICctbWV0YWxfYmluZGluZycsICctaW1hZScsICc8aW5maWxlLm1hZT4nLCAnLW9tYWUnLCAnPG91dGZpbGUubWFlPic=

> <r_lp_tautomer_probability>
1

> <r_epik_Ionization_Penalty>
3.97471

> <r_epik_Ionization_Penalty_Charging>
3.84029

> <r_epik_Ionization_Penalty_Neutral>
0.134427

> <r_epik_State_Penalty>
3.83938

> <r_epik_Charging_Adjusted_Penalty>
7.67966

> <i_epik_Tot_Q>
-1

> <i_epik_Tot_abs_Q>
1

> <r_epik_Metal_State_Penalty>
0.577306

> <b_epik_Metal_Only>
1

> <s_lp_Force_Field>
OPLS_2005

> <r_lp_Energy>
8.91558

> <b_lp_Chiralities_Consistent>
1

> <s_lp_Variant>
AV-unprocessed.smi:1866-4

> <Gold.Version>
5.8.1

> <Gold.Id.Protein>
6NUR|6NUR_protein|mol2

> <Gold.PLP.Fitness>
34.2243

> <Gold.PLP.PLP>
-23.6450

> <Gold.PLP.part.hbond>
-3.0000

> <Gold.PLP.part.metal>
0.0000

> <Gold.PLP.part.buried>
-5.9516

> <Gold.PLP.part.nonpolar>
-15.9409

> <Gold.PLP.part.repulsive>
0.4153

> <Gold.PLP.ligand.clash>
0.0000

> <Gold.PLP.ligand.torsion>
0.5804

> <Gold.PLP.Chemscore.Hbond>
3.9120

> <Gold.PLP.Chemscore.CHOScore>
0.0000

> <Gold.PLP.Chemscore.Metal>
0.0000

> <Gold.Chemscore.Hbonds>
donor molecule, donor type, donor heavy atom, donor atom, acceptor molecule, acceptor atom, score
      P1  H  6896  6909       L1     6  2.00
      P1  H  6931  6943       L1    16  0.93
      P1  H 10752 10764       L1     3  1.00

> <Gold.PLP.Chemscore.Internal.Correction>
0.0042

> <Gold.Rescore>
     Score         DG    S(hbond)    S(metal)    S(lipo)     H(rot)  DE(clash)    DE(int)     intcor
     15.90     -16.46       2.59        0.00      41.74       1.00       0.00       0.57       ----

> <Gold.Chemscore.Fitness>
15.8969

> <Gold.Chemscore.DG>
-16.4622

> <Gold.Chemscore.ZeroCoef>
-5.4800

> <Gold.Chemscore.Hbond>
2.5923

> <Gold.Chemscore.Metal>
0.0000

> <Gold.Chemscore.Lipo>
41.7433

> <Gold.Chemscore.Internal_Hbond>
0.0000

> <Gold.Chemscore.DEClash>
0.0000

> <Gold.Chemscore.DEInternal>
0.5653

> <Gold.Chemscore.Rot>
1.0000

> <Gold.Chemscore.Internal.Correction>
   9.000000E+99

> <Gold.Chemscore.Hbonds>
donor molecule, donor type, donor heavy atom, donor atom, acceptor molecule, acceptor atom, score
      P1  H  6896  6909       L1     6  0.66
      P1  H  6931  6943       L1    16  0.90
      P1  H 10752 10764       L1     3  0.79

> <Gold.Chemscore.Hbond.Weighted>
-8.6582

> <Gold.Chemscore.Metal.Weighted>
-0.0000

> <Gold.Chemscore.Lipo.Weighted>
-4.8840

> <Gold.Chemscore.Internal_Hbond.Weighted>
0.0000

> <Gold.Chemscore.DEClash.Weighted>
0.0000

> <Gold.Chemscore.DEInternal.Weighted>
0.5653

> <Gold.Chemscore.Rot.Weighted>
2.5600

> <Gold.Chemscore.Internal.Correction.Weighted>
   9.000000E+99

> <Gold.Protein.RotatedTorsions>
[ 6907 6896 6895 6894 ] final   64.46 input  -60.11 | X-H torsion
[ 7974 7965 7964 7962 ] final   38.33 input  175.53 | X-H torsion
[ 8008 7997 7996 7995 ] final  -66.28 input   59.86 | X-H torsion
[ 10167 10162 10161 10158 ] final  -88.21 input  -65.29 | X-H torsion
[ 10718 10713 10712 10709 ] final   15.80 input   66.30 | X-H torsion
[ 10763 10752 10751 10750 ] final  -68.53 input  -60.55 | X-H torsion
[ 11005 11000 10999 10996 ] final -167.39 input  -57.11 | X-H torsion

> <Gold.Protein.ActiveResidues>
 VAL166  LYS551  ARG553  GLY616  TRP617  ASP618  TYR619  PRO620  LYS621  CYS622 
 ASP623  PHE694  ASN695  SER759  ASP760  ASP761  ALA762  ILE779  LEU786  VAL792 
 PHE793  MET794  SER795  GLU796  ALA797  LYS798  CYS799  TRP800  GLU811  SER814 

> <Gold.Protein.RotatedAtoms>
  152.4333  134.5736  159.9927 H   0  0  0  0  0  0  0  0  0  0  0  0  # atno 6907 bound_to 6896
  151.5853  133.3367  159.3024 H   0  0  0  0  0  0  0  0  0  0  0  0  # atno 6908 bound_to 6896
  150.8228  134.7480  159.6852 H   0  0  0  0  0  0  0  0  0  0  0  0  # atno 6909 bound_to 6896
  146.1070  139.5785  142.9377 H   0  0  0  0  0  0  0  0  0  0  0  0  # atno 7974 bound_to 7965
  154.4725  140.0916  156.7179 H   0  0  0  0  0  0  0  0  0  0  0  0  # atno 8008 bound_to 7997
  155.4686  140.3463  155.4304 H   0  0  0  0  0  0  0  0  0  0  0  0  # atno 8009 bound_to 7997
  156.1062  140.1435  156.9389 H   0  0  0  0  0  0  0  0  0  0  0  0  # atno 8010 bound_to 7997
  140.3769  143.2767  151.9432 H   0  0  0  0  0  0  0  0  0  0  0  0  # atno 10167 bound_to 10162
  157.0587  130.6300  149.5782 H   0  0  0  0  0  0  0  0  0  0  0  0  # atno 10718 bound_to 10713
  154.3903  135.6054  153.5839 H   0  0  0  0  0  0  0  0  0  0  0  0  # atno 10763 bound_to 10752
  152.9787  135.5882  154.4305 H   0  0  0  0  0  0  0  0  0  0  0  0  # atno 10764 bound_to 10752
  154.4088  135.2844  155.2028 H   0  0  0  0  0  0  0  0  0  0  0  0  # atno 10765 bound_to 10752
  140.5538  134.5401  157.5128 H   0  0  0  0  0  0  0  0  0  0  0  0  # atno 11005 bound_to 11000
  145.5741  141.0390  143.2158 LP  0  0  0  0  0  0  0  0  0  0  0  0  # atno 17320 bound_to 7965
  144.7479  139.7272  143.7285 LP  0  0  0  0  0  0  0  0  0  0  0  0  # atno 17321 bound_to 7965
  139.4798  144.5855  151.7861 LP  0  0  0  0  0  0  0  0  0  0  0  0  # atno 17342 bound_to 10162
  140.4977  144.1216  150.5964 LP  0  0  0  0  0  0  0  0  0  0  0  0  # atno 17343 bound_to 10162
  155.9985  130.5059  150.7573 LP  0  0  0  0  0  0  0  0  0  0  0  0  # atno 17370 bound_to 10713
  157.4972  131.0915  151.0357 LP  0  0  0  0  0  0  0  0  0  0  0  0  # atno 17371 bound_to 10713
  139.9442  134.7733  156.0604 LP  0  0  0  0  0  0  0  0  0  0  0  0  # atno 17394 bound_to 11000
  141.1155  133.6629  156.3085 LP  0  0  0  0  0  0  0  0  0  0  0  0  # atno 17395 bound_to 11000

$$$$
