AV-unprocessed.smi:2954|AV-procd|sdf|11299|dock1
  -GOLD-   2272016193D 1   1.00000     0.00000
 Structure written by MMmdl.
 43 45  0  0  0  0  0  0  0  0  2 V2000
  152.5567  137.8315  154.7414 C   0  0  0  0  0  0  0  0  0  0  0  0
  151.1244  137.4241  155.1130 C   0  0  2  0  0  0  0  0  0  0  0  0
  150.7602  136.2025  154.4053 N   0  0  0  0  0  0  0  0  0  0  0  0
  149.8846  135.3011  154.8669 C   0  0  0  0  0  0  0  0  0  0  0  0
  149.3042  135.4191  155.9426 O   0  0  0  0  0  0  0  0  0  0  0  0
  150.1686  138.5461  154.8283 C   0  0  0  0  0  0  0  0  0  0  0  0
  149.1773  138.5295  153.8914 N   0  3  0  0  0  0  0  0  0  0  0  0
  148.5120  139.7550  153.8813 C   0  0  0  0  0  0  0  0  0  0  0  0
  147.4521  140.2086  153.1024 C   0  0  0  0  0  0  0  0  0  0  0  0
  147.0155  141.5291  153.3350 C   0  0  0  0  0  0  0  0  0  0  0  0
  147.6262  142.3424  154.3113 C   0  0  0  0  0  0  0  0  0  0  0  0
  148.6969  141.8692  155.0979 C   0  0  0  0  0  0  0  0  0  0  0  0
  149.1237  140.5618  154.8621 C   0  0  0  0  0  0  0  0  0  0  0  0
  150.1376  139.7744  155.4238 N   0  0  0  0  0  0  0  0  0  0  0  0
  150.9928  140.3448  156.4777 C   0  0  0  0  0  0  0  0  0  0  0  0
  150.2959  140.3365  157.8457 C   0  0  0  0  0  0  0  0  0  0  0  0
  151.2288  140.7385  158.8395 O   0  0  0  0  0  0  0  0  0  0  0  0
  151.4500  142.0845  159.0337 C   0  0  0  0  0  0  0  0  0  0  0  0
  151.0070  143.0939  158.1420 C   0  0  0  0  0  0  0  0  0  0  0  0
  151.2735  144.4502  158.4109 C   0  0  0  0  0  0  0  0  0  0  0  0
  151.9850  144.8146  159.5686 C   0  0  0  0  0  0  0  0  0  0  0  0
  152.4304  143.8202  160.4584 C   0  0  0  0  0  0  0  0  0  0  0  0
  152.1646  142.4627  160.1923 C   0  0  0  0  0  0  0  0  0  0  0  0
  152.7142  141.2601  161.3045 Cl  0  0  0  0  0  0  0  0  0  0  0  0
  152.8673  138.7190  155.2936 H   0  0  0  0  0  0  0  0  0  0  0  0
  152.6461  138.0547  153.6776 H   0  0  0  0  0  0  0  0  0  0  0  0
  153.2645  137.0355  154.9752 H   0  0  0  0  0  0  0  0  0  0  0  0
  151.1084  137.2078  156.1818 H   0  0  0  0  0  0  0  0  0  0  0  0
  151.2050  136.0281  153.5157 H   0  0  0  0  0  0  0  0  0  0  0  0
  149.7596  134.4561  154.1715 H   0  0  0  0  0  0  0  0  0  0  0  0
  146.9856  139.5890  152.3507 H   0  0  0  0  0  0  0  0  0  0  0  0
  146.1984  141.9272  152.7507 H   0  0  0  0  0  0  0  0  0  0  0  0
  147.2693  143.3516  154.4582 H   0  0  0  0  0  0  0  0  0  0  0  0
  149.1611  142.5072  155.8349 H   0  0  0  0  0  0  0  0  0  0  0  0
  151.9324  139.7944  156.5176 H   0  0  0  0  0  0  0  0  0  0  0  0
  151.2555  141.3627  156.1901 H   0  0  0  0  0  0  0  0  0  0  0  0
  149.4404  141.0131  157.8308 H   0  0  0  0  0  0  0  0  0  0  0  0
  149.9283  139.3311  158.0562 H   0  0  0  0  0  0  0  0  0  0  0  0
  150.4630  142.8526  157.2416 H   0  0  0  0  0  0  0  0  0  0  0  0
  150.9321  145.2129  157.7264 H   0  0  0  0  0  0  0  0  0  0  0  0
  152.1890  145.8552  159.7737 H   0  0  0  0  0  0  0  0  0  0  0  0
  152.9757  144.1004  161.3478 H   0  0  0  0  0  0  0  0  0  0  0  0
  148.9777  137.7349  153.2976 H   0  0  0  0  0  0  0  0  0  0  0  0
  1  2  1  0  0  0  0
  1 25  1  0  0  0  0
  1 26  1  0  0  0  0
  1 27  1  0  0  0  0
  2  3  1  0  0  0  0
  2  6  1  0  0  0  0
  2 28  1  0  0  0  0
  3  4  1  0  0  0  0
  3 29  1  0  0  0  0
  4  5  2  0  0  0  0
  4 30  1  0  0  0  0
  6 14  1  0  0  0  0
  6  7  2  0  0  0  0
  7  8  1  0  0  0  0
  7 43  1  0  0  0  0
  8 13  2  0  0  0  0
  8  9  1  0  0  0  0
  9 10  2  0  0  0  0
  9 31  1  0  0  0  0
 10 11  1  0  0  0  0
 10 32  1  0  0  0  0
 11 12  2  0  0  0  0
 11 33  1  0  0  0  0
 12 13  1  0  0  0  0
 12 34  1  0  0  0  0
 13 14  1  0  0  0  0
 14 15  1  0  0  0  0
 15 16  1  0  0  0  0
 15 35  1  0  0  0  0
 15 36  1  0  0  0  0
 16 17  1  0  0  0  0
 16 37  1  0  0  0  0
 16 38  1  0  0  0  0
 17 18  1  0  0  0  0
 18 23  1  0  0  0  0
 18 19  2  0  0  0  0
 19 20  1  0  0  0  0
 19 39  1  0  0  0  0
 20 21  2  0  0  0  0
 20 40  1  0  0  0  0
 21 22  1  0  0  0  0
 21 41  1  0  0  0  0
 22 23  2  0  0  0  0
 22 42  1  0  0  0  0
 23 24  1  0  0  0  0
M  CHG  1   7   1
M  END
> <s_m_source_file>
AV-unprocessed.smi

> <i_m_source_file_index>
2954

> <i_lp_mmshare_version>
43012

> <i_f3d_flags>
0

> <s_epik_input>
Tz1bQ0hdW05IXVtDQEBIXShbQ0gzXSljKG4xKW4oYyhjMTIpW2NIXVtjSF1bY0hdW2NIXTIpW0NIMl1bQ0gyXU9jM1tjSF1bY0hdW2NIXVtjSF1jM0Ns

> <s_epik_cmdline>
J2VwaWtfcHl0aG9uJywgJy1waCcsICc3LjAnLCAnLXRuJywgJzgnLCAnLW1hJywgJzIwMCcsICctbWV0YWxfYmluZGluZycsICctaW1hZScsICc8aW5maWxlLm1hZT4nLCAnLW9tYWUnLCAnPG91dGZpbGUubWFlPic=

> <r_lp_tautomer_probability>
1

> <r_epik_Ionization_Penalty>
1.18508

> <r_epik_Ionization_Penalty_Charging>
1.18508

> <r_epik_Ionization_Penalty_Neutral>
5.5802e-08

> <r_epik_State_Penalty>
1.24934

> <r_epik_Charging_Adjusted_Penalty>
2.43443

> <i_epik_Tot_Q>
1

> <i_epik_Tot_abs_Q>
1

> <r_epik_Metal_State_Penalty>
1.32564

> <b_epik_Metal_Only>
0

> <s_lp_Force_Field>
OPLS_2005

> <r_lp_Energy>
16.9753

> <b_lp_Chiralities_Consistent>
1

> <s_lp_Variant>
AV-unprocessed.smi:2954-3

> <Gold.Version>
5.8.1

> <Gold.Id.Protein>
6NUR|6NUR_protein|mol2

> <Gold.PLP.Fitness>
60.5716

> <Gold.PLP.PLP>
-53.3924

> <Gold.PLP.part.hbond>
-3.9701

> <Gold.PLP.part.metal>
0.0000

> <Gold.PLP.part.buried>
1.1393

> <Gold.PLP.part.nonpolar>
-50.2209

> <Gold.PLP.part.repulsive>
0.6413

> <Gold.PLP.ligand.clash>
0.0000

> <Gold.PLP.ligand.torsion>
0.9711

> <Gold.PLP.Chemscore.Hbond>
3.0000

> <Gold.PLP.Chemscore.CHOScore>
0.0000

> <Gold.PLP.Chemscore.Metal>
0.0000

> <Gold.Chemscore.Hbonds>
donor molecule, donor type, donor heavy atom, donor atom, acceptor molecule, acceptor atom, score
      L1  H     3    29       P1  7949  1.00
      L1  H     7    43       P1  7948  1.85

> <Gold.PLP.Chemscore.Internal.Correction>
0.1214

> <Gold.Rescore>
     Score         DG    S(hbond)    S(metal)    S(lipo)     H(rot)  DE(clash)    DE(int)     intcor
     19.95     -22.27       1.80        0.00     143.47       2.35       1.36       0.95       ----

> <Gold.Chemscore.Fitness>
19.9508

> <Gold.Chemscore.DG>
-22.2686

> <Gold.Chemscore.ZeroCoef>
-5.4800

> <Gold.Chemscore.Hbond>
1.7995

> <Gold.Chemscore.Metal>
0.0000

> <Gold.Chemscore.Lipo>
143.4692

> <Gold.Chemscore.Internal_Hbond>
0.0000

> <Gold.Chemscore.DEClash>
1.3632

> <Gold.Chemscore.DEInternal>
0.9547

> <Gold.Chemscore.Rot>
2.3467

> <Gold.Chemscore.Internal.Correction>
   9.000000E+99

> <Gold.Chemscore.Hbonds>
donor molecule, donor type, donor heavy atom, donor atom, acceptor molecule, acceptor atom, score
      L1  H     3    29       P1  7949  0.40
      L1  H     7    43       P1  7948  0.89

> <Gold.Chemscore.Hbond.Weighted>
-6.0104

> <Gold.Chemscore.Metal.Weighted>
-0.0000

> <Gold.Chemscore.Lipo.Weighted>
-16.7859

> <Gold.Chemscore.Internal_Hbond.Weighted>
0.0000

> <Gold.Chemscore.DEClash.Weighted>
1.3632

> <Gold.Chemscore.DEInternal.Weighted>
0.9547

> <Gold.Chemscore.Rot.Weighted>
6.0077

> <Gold.Chemscore.Internal.Correction.Weighted>
   9.000000E+99

> <Gold.Protein.RotatedTorsions>
[ 6907 6896 6895 6894 ] final  128.87 input  -60.11 | X-H torsion
[ 7974 7965 7964 7962 ] final  -35.15 input  175.53 | X-H torsion
[ 8008 7997 7996 7995 ] final -145.81 input   59.86 | X-H torsion
[ 10167 10162 10161 10158 ] final    9.27 input  -65.29 | X-H torsion
[ 10718 10713 10712 10709 ] final  143.86 input   66.30 | X-H torsion
[ 10763 10752 10751 10750 ] final   26.04 input  -60.55 | X-H torsion
[ 11005 11000 10999 10996 ] final    0.32 input  -57.11 | X-H torsion

> <Gold.Protein.ActiveResidues>
 VAL166  LYS551  ARG553  GLY616  TRP617  ASP618  TYR619  PRO620  LYS621  CYS622 
 ASP623  PHE694  ASN695  SER759  ASP760  ASP761  ALA762  ILE779  LEU786  VAL792 
 PHE793  MET794  SER795  GLU796  ALA797  LYS798  CYS799  TRP800  GLU811  SER814 

> <Gold.Protein.RotatedAtoms>
  152.3678  133.6380  159.6063 H   0  0  0  0  0  0  0  0  0  0  0  0  # atno 6907 bound_to 6896
  150.7647  133.9319  159.3438 H   0  0  0  0  0  0  0  0  0  0  0  0  # atno 6908 bound_to 6896
  151.7147  135.0907  160.0325 H   0  0  0  0  0  0  0  0  0  0  0  0  # atno 6909 bound_to 6896
  146.0770  140.6125  142.8926 H   0  0  0  0  0  0  0  0  0  0  0  0  # atno 7974 bound_to 7965
  155.5492  140.0615  157.2853 H   0  0  0  0  0  0  0  0  0  0  0  0  # atno 8008 bound_to 7997
  154.4426  140.1905  156.0713 H   0  0  0  0  0  0  0  0  0  0  0  0  # atno 8009 bound_to 7997
  156.0529  140.3282  155.7375 H   0  0  0  0  0  0  0  0  0  0  0  0  # atno 8010 bound_to 7997
  140.6265  143.8089  150.7240 H   0  0  0  0  0  0  0  0  0  0  0  0  # atno 10167 bound_to 10162
  157.3639  131.0969  151.0890 H   0  0  0  0  0  0  0  0  0  0  0  0  # atno 10718 bound_to 10713
  153.0650  135.6569  154.0375 H   0  0  0  0  0  0  0  0  0  0  0  0  # atno 10763 bound_to 10752
  154.0034  135.2935  155.3401 H   0  0  0  0  0  0  0  0  0  0  0  0  # atno 10764 bound_to 10752
  154.7004  135.5247  153.8587 H   0  0  0  0  0  0  0  0  0  0  0  0  # atno 10765 bound_to 10752
  140.6279  133.9602  155.8259 H   0  0  0  0  0  0  0  0  0  0  0  0  # atno 11005 bound_to 11000
  144.7268  140.4550  143.6967 LP  0  0  0  0  0  0  0  0  0  0  0  0  # atno 17320 bound_to 7965
  145.6287  139.1533  143.2981 LP  0  0  0  0  0  0  0  0  0  0  0  0  # atno 17321 bound_to 7965
  140.1691  143.4210  152.2013 LP  0  0  0  0  0  0  0  0  0  0  0  0  # atno 17342 bound_to 10162
  139.5485  144.7318  151.4509 LP  0  0  0  0  0  0  0  0  0  0  0  0  # atno 17343 bound_to 10162
  157.2019  130.6398  149.5742 LP  0  0  0  0  0  0  0  0  0  0  0  0  # atno 17370 bound_to 10713
  155.9742  130.4688  150.6373 LP  0  0  0  0  0  0  0  0  0  0  0  0  # atno 17371 bound_to 10713
  141.0696  134.0225  157.3545 LP  0  0  0  0  0  0  0  0  0  0  0  0  # atno 17394 bound_to 11000
  139.9127  135.0192  156.7759 LP  0  0  0  0  0  0  0  0  0  0  0  0  # atno 17395 bound_to 11000

$$$$
