AV-unprocessed.smi:2960|AV-procd|sdf|11311|dock6
  -GOLD-   2272016213D 1   1.00000     0.00000
 Structure written by MMmdl.
 48 50  0  0  0  0  0  0  0  0  1 V2000
  146.2045  135.2494  153.3188 C   0  0  0  0  0  0  0  0  0  0  0  0
  147.2421  134.9306  154.3891 C   0  0  0  0  0  0  0  0  0  0  0  0
  146.8962  134.4170  155.4525 O   0  0  0  0  0  0  0  0  0  0  0  0
  148.5111  135.2519  154.0988 N   0  0  0  0  0  0  0  0  0  0  0  0
  149.6519  135.0385  154.9837 C   0  0  0  0  0  0  0  0  0  0  0  0
  150.4819  136.3169  155.2107 C   0  0  0  0  0  0  0  0  0  0  0  0
  149.7172  137.5876  154.9672 C   0  0  0  0  0  0  0  0  0  0  0  0
  148.3835  137.5993  154.9512 N   0  0  0  0  0  0  0  0  0  0  0  0
  148.0917  138.9244  154.6954 C   0  0  0  0  0  0  0  0  0  0  0  0
  146.8475  139.5804  154.5574 C   0  0  0  0  0  0  0  0  0  0  0  0
  146.7960  140.9636  154.2873 C   0  0  0  0  0  0  0  0  0  0  0  0
  147.9852  141.7087  154.1506 C   0  0  0  0  0  0  0  0  0  0  0  0
  149.2350  141.0746  154.2862 C   0  0  0  0  0  0  0  0  0  0  0  0
  149.2811  139.6938  154.5586 C   0  0  0  0  0  0  0  0  0  0  0  0
  150.3188  138.7850  154.7448 N   0  0  0  0  0  0  0  0  0  0  0  0
  151.7409  139.0938  154.6892 C   0  0  0  0  0  0  0  0  0  0  0  0
  152.2682  139.6334  156.0259 C   0  0  0  0  0  0  0  0  0  0  0  0
  151.5175  140.7814  156.3998 O   0  0  0  0  0  0  0  0  0  0  0  0
  151.8123  141.3930  157.5986 C   0  0  0  0  0  0  0  0  0  0  0  0
  152.3998  140.5903  158.5978 C   0  0  0  0  0  0  0  0  0  0  0  0
  152.7360  141.1323  159.8531 C   0  0  0  0  0  0  0  0  0  0  0  0
  152.4878  142.4919  160.1254 C   0  0  0  0  0  0  0  0  0  0  0  0
  152.8545  143.0718  161.4760 C   0  0  0  0  0  0  0  0  0  0  0  0
  151.9026  143.3041  159.1334 C   0  0  0  0  0  0  0  0  0  0  0  0
  151.5657  142.7608  157.8783 C   0  0  0  0  0  0  0  0  0  0  0  0
  146.4688  134.7704  152.3756 H   0  0  0  0  0  0  0  0  0  0  0  0
  146.1468  136.3262  153.1570 H   0  0  0  0  0  0  0  0  0  0  0  0
  145.2175  134.8947  153.6175 H   0  0  0  0  0  0  0  0  0  0  0  0
  148.7019  135.6748  153.2018 H   0  0  0  0  0  0  0  0  0  0  0  0
  149.3199  134.6293  155.9391 H   0  0  0  0  0  0  0  0  0  0  0  0
  150.2815  134.2740  154.5276 H   0  0  0  0  0  0  0  0  0  0  0  0
  150.9005  136.3112  156.2158 H   0  0  0  0  0  0  0  0  0  0  0  0
  151.3420  136.3068  154.5403 H   0  0  0  0  0  0  0  0  0  0  0  0
  145.9310  139.0181  154.6580 H   0  0  0  0  0  0  0  0  0  0  0  0
  145.8396  141.4547  154.1829 H   0  0  0  0  0  0  0  0  0  0  0  0
  147.9375  142.7673  153.9412 H   0  0  0  0  0  0  0  0  0  0  0  0
  150.1472  141.6424  154.1788 H   0  0  0  0  0  0  0  0  0  0  0  0
  152.2822  138.1873  154.4179 H   0  0  0  0  0  0  0  0  0  0  0  0
  151.9302  139.8058  153.8881 H   0  0  0  0  0  0  0  0  0  0  0  0
  152.1798  138.8584  156.7886 H   0  0  0  0  0  0  0  0  0  0  0  0
  153.3236  139.8914  155.9284 H   0  0  0  0  0  0  0  0  0  0  0  0
  152.5938  139.5461  158.3997 H   0  0  0  0  0  0  0  0  0  0  0  0
  153.1856  140.5016  160.6061 H   0  0  0  0  0  0  0  0  0  0  0  0
  152.4547  144.0789  161.5978 H   0  0  0  0  0  0  0  0  0  0  0  0
  153.9385  143.1190  161.5831 H   0  0  0  0  0  0  0  0  0  0  0  0
  152.4563  142.4496  162.2778 H   0  0  0  0  0  0  0  0  0  0  0  0
  151.7096  144.3488  159.3295 H   0  0  0  0  0  0  0  0  0  0  0  0
  151.1208  143.4164  157.1452 H   0  0  0  0  0  0  0  0  0  0  0  0
  1  2  1  0  0  0  0
  1 26  1  0  0  0  0
  1 27  1  0  0  0  0
  1 28  1  0  0  0  0
  2  3  2  0  0  0  0
  2  4  1  0  0  0  0
  4  5  1  0  0  0  0
  4 29  1  0  0  0  0
  5  6  1  0  0  0  0
  5 30  1  0  0  0  0
  5 31  1  0  0  0  0
  6  7  1  0  0  0  0
  6 32  1  0  0  0  0
  6 33  1  0  0  0  0
  7 15  1  0  0  0  0
  7  8  2  0  0  0  0
  8  9  1  0  0  0  0
  9 14  2  0  0  0  0
  9 10  1  0  0  0  0
 10 11  2  0  0  0  0
 10 34  1  0  0  0  0
 11 12  1  0  0  0  0
 11 35  1  0  0  0  0
 12 13  2  0  0  0  0
 12 36  1  0  0  0  0
 13 14  1  0  0  0  0
 13 37  1  0  0  0  0
 14 15  1  0  0  0  0
 15 16  1  0  0  0  0
 16 17  1  0  0  0  0
 16 38  1  0  0  0  0
 16 39  1  0  0  0  0
 17 18  1  0  0  0  0
 17 40  1  0  0  0  0
 17 41  1  0  0  0  0
 18 19  1  0  0  0  0
 19 25  1  0  0  0  0
 19 20  2  0  0  0  0
 20 21  1  0  0  0  0
 20 42  1  0  0  0  0
 21 22  2  0  0  0  0
 21 43  1  0  0  0  0
 22 23  1  0  0  0  0
 22 24  1  0  0  0  0
 23 44  1  0  0  0  0
 23 45  1  0  0  0  0
 23 46  1  0  0  0  0
 24 25  2  0  0  0  0
 24 47  1  0  0  0  0
 25 48  1  0  0  0  0
M  END
> <s_m_source_file>
AV-unprocessed.smi

> <i_m_source_file_index>
2960

> <i_lp_mmshare_version>
43012

> <i_f3d_flags>
0

> <s_epik_input>
W0NIM11DKD1PKVtOSF1bQ0gyXVtDSDJdYyhuMSluKGMoYzEyKVtjSF1bY0hdW2NIXVtjSF0yKVtDSDJdW0NIMl1PYzNbY0hdW2NIXWMoW0NIM10pW2NIXVtjSF0z

> <s_epik_cmdline>
J2VwaWtfcHl0aG9uJywgJy1waCcsICc3LjAnLCAnLXRuJywgJzgnLCAnLW1hJywgJzIwMCcsICctbWV0YWxfYmluZGluZycsICctaW1hZScsICc8aW5maWxlLm1hZT4nLCAnLW9tYWUnLCAnPG91dGZpbGUubWFlPic=

> <r_lp_tautomer_probability>
1

> <r_epik_Ionization_Penalty>
0.0990099

> <r_epik_Ionization_Penalty_Charging>
0

> <r_epik_Ionization_Penalty_Neutral>
0.0990099

> <r_epik_State_Penalty>
0.0890759

> <r_epik_Charging_Adjusted_Penalty>
0.0890759

> <i_epik_Tot_Q>
0

> <i_epik_Tot_abs_Q>
0

> <r_epik_Metal_State_Penalty>
0.0762215

> <b_epik_Metal_Only>
0

> <s_lp_Force_Field>
OPLS_2005

> <r_lp_Energy>
13.2598

> <b_lp_Chiralities_Consistent>
1

> <s_lp_Variant>
AV-unprocessed.smi:2960-1

> <Gold.Version>
5.8.1

> <Gold.Id.Protein>
6NUR|6NUR_protein|mol2

> <Gold.PLP.Fitness>
46.4620

> <Gold.PLP.PLP>
-45.9145

> <Gold.PLP.part.hbond>
-1.0000

> <Gold.PLP.part.metal>
0.0000

> <Gold.PLP.part.buried>
-3.9314

> <Gold.PLP.part.nonpolar>
-40.2572

> <Gold.PLP.part.repulsive>
0.1309

> <Gold.PLP.ligand.clash>
0.0959

> <Gold.PLP.ligand.torsion>
1.2328

> <Gold.PLP.Chemscore.Hbond>
0.9913

> <Gold.PLP.Chemscore.CHOScore>
0.0000

> <Gold.PLP.Chemscore.Metal>
0.0000

> <Gold.Chemscore.Hbonds>
donor molecule, donor type, donor heavy atom, donor atom, acceptor molecule, acceptor atom, score
      L1  H     4    29       P1  7948  0.81

> <Gold.PLP.Chemscore.Internal.Correction>
0.1352

> <Gold.Rescore>
     Score         DG    S(hbond)    S(metal)    S(lipo)     H(rot)  DE(clash)    DE(int)     intcor
     15.10     -18.19       0.99        0.00     126.38       2.11       0.04       3.04       ----

> <Gold.Chemscore.Fitness>
15.1040

> <Gold.Chemscore.DG>
-18.1854

> <Gold.Chemscore.ZeroCoef>
-5.4800

> <Gold.Chemscore.Hbond>
0.9924

> <Gold.Chemscore.Metal>
0.0000

> <Gold.Chemscore.Lipo>
126.3831

> <Gold.Chemscore.Internal_Hbond>
0.0000

> <Gold.Chemscore.DEClash>
0.0377

> <Gold.Chemscore.DEInternal>
3.0437

> <Gold.Chemscore.Rot>
2.1078

> <Gold.Chemscore.Internal.Correction>
   9.000000E+99

> <Gold.Chemscore.Hbonds>
donor molecule, donor type, donor heavy atom, donor atom, acceptor molecule, acceptor atom, score
      L1  H     4    29       P1  7948  0.79

> <Gold.Chemscore.Hbond.Weighted>
-3.3147

> <Gold.Chemscore.Metal.Weighted>
-0.0000

> <Gold.Chemscore.Lipo.Weighted>
-14.7868

> <Gold.Chemscore.Internal_Hbond.Weighted>
0.0000

> <Gold.Chemscore.DEClash.Weighted>
0.0377

> <Gold.Chemscore.DEInternal.Weighted>
3.0437

> <Gold.Chemscore.Rot.Weighted>
5.3961

> <Gold.Chemscore.Internal.Correction.Weighted>
   9.000000E+99

> <Gold.Protein.RotatedTorsions>
[ 6907 6896 6895 6894 ] final   -1.42 input  -60.11 | X-H torsion
[ 7974 7965 7964 7962 ] final  -49.41 input  175.53 | X-H torsion
[ 8008 7997 7996 7995 ] final  -53.47 input   59.86 | X-H torsion
[ 10167 10162 10161 10158 ] final -140.64 input  -65.29 | X-H torsion
[ 10718 10713 10712 10709 ] final  160.08 input   66.30 | X-H torsion
[ 10763 10752 10751 10750 ] final  -31.91 input  -60.55 | X-H torsion
[ 11005 11000 10999 10996 ] final -175.60 input  -57.11 | X-H torsion

> <Gold.Protein.ActiveResidues>
 VAL166  LYS551  ARG553  GLY616  TRP617  ASP618  TYR619  PRO620  LYS621  CYS622 
 ASP623  PHE694  ASN695  SER759  ASP760  ASP761  ALA762  ILE779  LEU786  VAL792 
 PHE793  MET794  SER795  GLU796  ALA797  LYS798  CYS799  TRP800  GLU811  SER814 

> <Gold.Protein.RotatedAtoms>
  151.5463  135.1068  159.9938 H   0  0  0  0  0  0  0  0  0  0  0  0  # atno 6907 bound_to 6896
  152.4512  133.7629  159.6767 H   0  0  0  0  0  0  0  0  0  0  0  0  # atno 6908 bound_to 6896
  150.8441  133.7822  159.3074 H   0  0  0  0  0  0  0  0  0  0  0  0  # atno 6909 bound_to 6896
  145.9408  140.7663  142.9553 H   0  0  0  0  0  0  0  0  0  0  0  0  # atno 7974 bound_to 7965
  154.4134  140.1199  156.5159 H   0  0  0  0  0  0  0  0  0  0  0  0  # atno 8008 bound_to 7997
  155.6752  140.3496  155.4814 H   0  0  0  0  0  0  0  0  0  0  0  0  # atno 8009 bound_to 7997
  155.9599  140.1121  157.0895 H   0  0  0  0  0  0  0  0  0  0  0  0  # atno 8010 bound_to 7997
  139.8262  143.7508  152.2666 H   0  0  0  0  0  0  0  0  0  0  0  0  # atno 10167 bound_to 10162
  157.1553  131.0574  151.2260 H   0  0  0  0  0  0  0  0  0  0  0  0  # atno 10718 bound_to 10713
  153.8052  135.6887  153.4849 H   0  0  0  0  0  0  0  0  0  0  0  0  # atno 10763 bound_to 10752
  153.1663  135.4560  154.9840 H   0  0  0  0  0  0  0  0  0  0  0  0  # atno 10764 bound_to 10752
  154.7990  135.3330  154.7537 H   0  0  0  0  0  0  0  0  0  0  0  0  # atno 10765 bound_to 10752
  140.4614  134.6251  157.4844 H   0  0  0  0  0  0  0  0  0  0  0  0  # atno 11005 bound_to 11000
  144.6779  140.2278  143.7359 LP  0  0  0  0  0  0  0  0  0  0  0  0  # atno 17320 bound_to 7965
  145.8302  139.2082  143.1887 LP  0  0  0  0  0  0  0  0  0  0  0  0  # atno 17321 bound_to 7965
  139.7701  144.7479  151.0236 LP  0  0  0  0  0  0  0  0  0  0  0  0  # atno 17342 bound_to 10162
  140.7810  143.4654  151.0219 LP  0  0  0  0  0  0  0  0  0  0  0  0  # atno 17343 bound_to 10162
  157.4183  130.7423  149.6893 LP  0  0  0  0  0  0  0  0  0  0  0  0  # atno 17370 bound_to 10713
  155.9763  130.4077  150.3788 LP  0  0  0  0  0  0  0  0  0  0  0  0  # atno 17371 bound_to 10713
  139.9943  134.6936  155.9637 LP  0  0  0  0  0  0  0  0  0  0  0  0  # atno 17394 bound_to 11000
  141.1619  133.6538  156.4348 LP  0  0  0  0  0  0  0  0  0  0  0  0  # atno 17395 bound_to 11000

$$$$
