AV-unprocessed.smi:2511|AV-procd|sdf|9889|dock5
  -GOLD-   2272013523D 1   1.00000     0.00000
 Structure written by MMmdl.
 40 41  0  0  0  0  0  0  0  0  1 V2000
  144.5053  132.7897  162.1149 N   0  0  0  0  0  0  0  0  0  0  0  0
  145.3310  132.7386  161.0642 C   0  0  0  0  0  0  0  0  0  0  0  0
  145.3201  131.8009  160.2681 O   0  0  0  0  0  0  0  0  0  0  0  0
  146.2507  133.9165  160.8799 C   0  0  0  0  0  0  0  0  0  0  0  0
  146.5428  134.7615  161.9747 C   0  0  0  0  0  0  0  0  0  0  0  0
  147.3994  135.8622  161.7825 C   0  0  0  0  0  0  0  0  0  0  0  0
  147.9461  136.0879  160.4974 C   0  0  0  0  0  0  0  0  0  0  0  0
  148.8102  137.1672  160.1688 N   0  0  0  0  0  0  0  0  0  0  0  0
  149.7133  137.2540  159.1724 C   0  0  0  0  0  0  0  0  0  0  0  0
  149.9455  136.3638  158.3577 O   0  0  0  0  0  0  0  0  0  0  0  0
  150.3566  138.4343  159.1106 N   0  0  0  0  0  0  0  0  0  0  0  0
  151.3901  138.8692  158.1647 C   0  0  1  0  0  0  0  0  0  0  0  0
  150.8669  140.0442  157.3164 C   0  0  0  0  0  0  0  0  0  0  0  0
  150.7276  141.3368  158.1382 C   0  0  0  0  0  0  0  0  0  0  0  0
  152.0474  141.7032  158.8349 C   0  0  0  0  0  0  0  0  0  0  0  0
  152.5628  140.5510  159.7229 C   0  0  2  0  0  0  0  0  0  0  0  0
  153.8795  140.9163  160.4392 C   0  0  0  0  0  0  0  0  0  0  0  0
  154.7836  141.3679  159.5695 F   0  0  0  0  0  0  0  0  0  0  0  0
  153.6551  141.8584  161.3553 F   0  0  0  0  0  0  0  0  0  0  0  0
  154.3746  139.8443  161.0580 F   0  0  0  0  0  0  0  0  0  0  0  0
  152.7001  139.2584  158.8868 C   0  0  0  0  0  0  0  0  0  0  0  0
  147.5779  135.2014  159.4656 C   0  0  0  0  0  0  0  0  0  0  0  0
  146.7589  134.1439  159.6442 N   0  0  0  0  0  0  0  0  0  0  0  0
  143.8674  132.0281  162.2933 H   0  0  0  0  0  0  0  0  0  0  0  0
  144.5299  133.5931  162.7263 H   0  0  0  0  0  0  0  0  0  0  0  0
  146.1203  134.5774  162.9519 H   0  0  0  0  0  0  0  0  0  0  0  0
  147.6060  136.5118  162.6184 H   0  0  0  0  0  0  0  0  0  0  0  0
  148.6800  138.0055  160.7162 H   0  0  0  0  0  0  0  0  0  0  0  0
  150.0901  139.1195  159.8031 H   0  0  0  0  0  0  0  0  0  0  0  0
  151.5984  138.0454  157.4801 H   0  0  0  0  0  0  0  0  0  0  0  0
  151.5563  140.2221  156.4900 H   0  0  0  0  0  0  0  0  0  0  0  0
  149.9102  139.7853  156.8609 H   0  0  0  0  0  0  0  0  0  0  0  0
  150.4128  142.1543  157.4890 H   0  0  0  0  0  0  0  0  0  0  0  0
  149.9410  141.2189  158.8844 H   0  0  0  0  0  0  0  0  0  0  0  0
  152.7964  141.9551  158.0830 H   0  0  0  0  0  0  0  0  0  0  0  0
  151.9001  142.6018  159.4346 H   0  0  0  0  0  0  0  0  0  0  0  0
  151.8160  140.3713  160.4979 H   0  0  0  0  0  0  0  0  0  0  0  0
  153.0396  138.4379  159.5193 H   0  0  0  0  0  0  0  0  0  0  0  0
  153.4824  139.3985  158.1398 H   0  0  0  0  0  0  0  0  0  0  0  0
  147.9566  135.3398  158.4633 H   0  0  0  0  0  0  0  0  0  0  0  0
  1  2  1  0  0  0  0
  1 24  1  0  0  0  0
  1 25  1  0  0  0  0
  2  3  2  0  0  0  0
  2  4  1  0  0  0  0
  4 23  1  0  0  0  0
  4  5  2  0  0  0  0
  5  6  1  0  0  0  0
  5 26  1  0  0  0  0
  6  7  2  0  0  0  0
  6 27  1  0  0  0  0
  7  8  1  0  0  0  0
  7 22  1  0  0  0  0
  8  9  1  0  0  0  0
  8 28  1  0  0  0  0
  9 10  2  0  0  0  0
  9 11  1  0  0  0  0
 11 12  1  0  0  0  0
 11 29  1  0  0  0  0
 12 21  1  0  0  0  0
 12 13  1  0  0  0  0
 12 30  1  0  0  0  0
 13 14  1  0  0  0  0
 13 31  1  0  0  0  0
 13 32  1  0  0  0  0
 14 15  1  0  0  0  0
 14 33  1  0  0  0  0
 14 34  1  0  0  0  0
 15 16  1  0  0  0  0
 15 35  1  0  0  0  0
 15 36  1  0  0  0  0
 16 17  1  0  0  0  0
 16 21  1  0  0  0  0
 16 37  1  0  0  0  0
 17 18  1  0  0  0  0
 17 19  1  0  0  0  0
 17 20  1  0  0  0  0
 21 38  1  0  0  0  0
 21 39  1  0  0  0  0
 22 23  2  0  0  0  0
 22 40  1  0  0  0  0
M  END
> <s_m_source_file>
AV-unprocessed.smi

> <i_m_source_file_index>
2511

> <i_lp_mmshare_version>
43012

> <i_f3d_flags>
0

> <s_epik_input>
W05IMl1DKD1PKWMxW2NIXVtjSF1jKFtjSF1uMSlbTkhdQyg9TylbTkhdW0NAQEhdMltDSDJdW0NIMl1bQ0gyXVtDQEBIXShDKEYpKEYpRilbQ0gyXTI=

> <s_epik_cmdline>
J2VwaWtfcHl0aG9uJywgJy1waCcsICc3LjAnLCAnLXRuJywgJzgnLCAnLW1hJywgJzIwMCcsICctbWV0YWxfYmluZGluZycsICctaW1hZScsICc8aW5maWxlLm1hZT4nLCAnLW9tYWUnLCAnPG91dGZpbGUubWFlPic=

> <r_lp_tautomer_probability>
1

> <r_epik_Ionization_Penalty>
4.28758e-05

> <r_epik_Ionization_Penalty_Charging>
0

> <r_epik_Ionization_Penalty_Neutral>
4.28758e-05

> <r_epik_State_Penalty>
-0

> <r_epik_Charging_Adjusted_Penalty>
0

> <i_epik_Tot_Q>
0

> <i_epik_Tot_abs_Q>
0

> <r_epik_Metal_State_Penalty>
-0

> <b_epik_Metal_Only>
0

> <s_lp_Force_Field>
OPLS_2005

> <r_lp_Energy>
27.7433

> <b_lp_Chiralities_Consistent>
1

> <s_lp_Variant>
AV-unprocessed.smi:2511-4

> <Gold.Version>
5.8.1

> <Gold.Id.Protein>
6NUR|6NUR_protein|mol2

> <Gold.PLP.Fitness>
40.0136

> <Gold.PLP.PLP>
-37.9995

> <Gold.PLP.part.hbond>
-2.0000

> <Gold.PLP.part.metal>
0.0000

> <Gold.PLP.part.buried>
-6.8659

> <Gold.PLP.part.nonpolar>
-31.7921

> <Gold.PLP.part.repulsive>
2.2319

> <Gold.PLP.ligand.clash>
0.0000

> <Gold.PLP.ligand.torsion>
0.4932

> <Gold.PLP.Chemscore.Hbond>
0.9920

> <Gold.PLP.Chemscore.CHOScore>
0.0000

> <Gold.PLP.Chemscore.Metal>
0.0000

> <Gold.Chemscore.Hbonds>
donor molecule, donor type, donor heavy atom, donor atom, acceptor molecule, acceptor atom, score
      P1  H  6896  6907       L1    10  0.59

> <Gold.PLP.Chemscore.Internal.Correction>
0.0246

> <Gold.Rescore>
     Score         DG    S(hbond)    S(metal)    S(lipo)     H(rot)  DE(clash)    DE(int)     intcor
     12.35     -14.17       0.93        0.00      69.56       1.00       0.01       1.81       ----

> <Gold.Chemscore.Fitness>
12.3489

> <Gold.Chemscore.DG>
-14.1731

> <Gold.Chemscore.ZeroCoef>
-5.4800

> <Gold.Chemscore.Hbond>
0.9326

> <Gold.Chemscore.Metal>
0.0000

> <Gold.Chemscore.Lipo>
69.5573

> <Gold.Chemscore.Internal_Hbond>
0.0000

> <Gold.Chemscore.DEClash>
0.0121

> <Gold.Chemscore.DEInternal>
1.8121

> <Gold.Chemscore.Rot>
1.0000

> <Gold.Chemscore.Internal.Correction>
   9.000000E+99

> <Gold.Chemscore.Hbonds>
donor molecule, donor type, donor heavy atom, donor atom, acceptor molecule, acceptor atom, score
      P1  H  6896  6907       L1    10  0.17

> <Gold.Chemscore.Hbond.Weighted>
-3.1149

> <Gold.Chemscore.Metal.Weighted>
-0.0000

> <Gold.Chemscore.Lipo.Weighted>
-8.1382

> <Gold.Chemscore.Internal_Hbond.Weighted>
0.0000

> <Gold.Chemscore.DEClash.Weighted>
0.0121

> <Gold.Chemscore.DEInternal.Weighted>
1.8121

> <Gold.Chemscore.Rot.Weighted>
2.5600

> <Gold.Chemscore.Internal.Correction.Weighted>
   9.000000E+99

> <Gold.Protein.RotatedTorsions>
[ 6907 6896 6895 6894 ] final  -53.18 input  -60.11 | X-H torsion
[ 7974 7965 7964 7962 ] final  -51.09 input  175.53 | X-H torsion
[ 8008 7997 7996 7995 ] final   16.43 input   59.86 | X-H torsion
[ 10167 10162 10161 10158 ] final  -37.12 input  -65.29 | X-H torsion
[ 10718 10713 10712 10709 ] final -160.39 input   66.30 | X-H torsion
[ 10763 10752 10751 10750 ] final   87.85 input  -60.55 | X-H torsion
[ 11005 11000 10999 10996 ] final   73.18 input  -57.11 | X-H torsion

> <Gold.Protein.ActiveResidues>
 VAL166  LYS551  ARG553  GLY616  TRP617  ASP618  TYR619  PRO620  LYS621  CYS622 
 ASP623  PHE694  ASN695  SER759  ASP760  ASP761  ALA762  ILE779  LEU786  VAL792 
 PHE793  MET794  SER795  GLU796  ALA797  LYS798  CYS799  TRP800  GLU811  SER814 

> <Gold.Protein.RotatedAtoms>
  150.8450  134.7756  159.6963 H   0  0  0  0  0  0  0  0  0  0  0  0  # atno 6907 bound_to 6896
  152.4529  134.5351  159.9832 H   0  0  0  0  0  0  0  0  0  0  0  0  # atno 6908 bound_to 6896
  151.5483  133.3383  159.2984 H   0  0  0  0  0  0  0  0  0  0  0  0  # atno 6909 bound_to 6896
  145.9228  140.7819  142.9639 H   0  0  0  0  0  0  0  0  0  0  0  0  # atno 7974 bound_to 7965
  154.8769  140.2967  155.5448 H   0  0  0  0  0  0  0  0  0  0  0  0  # atno 8008 bound_to 7997
  156.3022  140.2449  156.3699 H   0  0  0  0  0  0  0  0  0  0  0  0  # atno 8009 bound_to 7997
  154.8758  140.0399  157.1741 H   0  0  0  0  0  0  0  0  0  0  0  0  # atno 8010 bound_to 7997
  140.7126  143.3363  151.2456 H   0  0  0  0  0  0  0  0  0  0  0  0  # atno 10167 bound_to 10162
  156.5814  130.8731  151.2865 H   0  0  0  0  0  0  0  0  0  0  0  0  # atno 10718 bound_to 10713
  153.1710  135.4528  154.9902 H   0  0  0  0  0  0  0  0  0  0  0  0  # atno 10763 bound_to 10752
  154.7965  135.3239  154.7655 H   0  0  0  0  0  0  0  0  0  0  0  0  # atno 10764 bound_to 10752
  153.8132  135.6953  153.4892 H   0  0  0  0  0  0  0  0  0  0  0  0  # atno 10765 bound_to 10752
  139.9453  134.7324  156.0995 H   0  0  0  0  0  0  0  0  0  0  0  0  # atno 11005 bound_to 11000
  144.6755  140.2002  143.7388 LP  0  0  0  0  0  0  0  0  0  0  0  0  # atno 17320 bound_to 7965
  145.8528  139.2184  143.1762 LP  0  0  0  0  0  0  0  0  0  0  0  0  # atno 17321 bound_to 7965
  139.6859  143.9775  152.2833 LP  0  0  0  0  0  0  0  0  0  0  0  0  # atno 17342 bound_to 10162
  139.9420  144.6675  150.8257 LP  0  0  0  0  0  0  0  0  0  0  0  0  # atno 17343 bound_to 10162
  157.7325  130.9717  150.1934 LP  0  0  0  0  0  0  0  0  0  0  0  0  # atno 17370 bound_to 10713
  156.2628  130.3713  149.8113 LP  0  0  0  0  0  0  0  0  0  0  0  0  # atno 17371 bound_to 10713
  141.1101  133.6646  156.2959 LP  0  0  0  0  0  0  0  0  0  0  0  0  # atno 17394 bound_to 11000
  140.5850  134.5708  157.5487 LP  0  0  0  0  0  0  0  0  0  0  0  0  # atno 17395 bound_to 11000

$$$$
