AV-unprocessed.smi:438|AV-procd|sdf|2571|dock5
  -GOLD-   2262022553D 1   1.00000     0.00000
 Structure written by MMmdl.
 47 48  0  0  0  0  0  0  0  0  2 V2000
  148.2608  133.4386  154.1618 C   0  0  0  0  0  0  0  0  0  0  0  0
  149.4105  134.0344  154.9545 C   0  0  0  0  0  0  0  0  0  0  0  0
  149.7698  135.3504  154.6173 N   0  0  0  0  0  0  0  0  0  0  0  0
  150.7271  135.9224  155.2405 C   0  0  0  0  0  0  0  0  0  0  0  0
  151.1255  137.6151  154.7650 S   0  0  0  0  0  0  0  0  0  0  0  0
  150.5738  138.6222  156.1748 C   0  0  0  0  0  0  0  0  0  0  0  0
  151.7018  139.4756  156.7469 C   0  0  0  0  0  0  0  0  0  0  0  0
  152.8601  139.2938  156.3730 O   0  0  0  0  0  0  0  0  0  0  0  0
  151.3435  140.3973  157.6578 N   0  0  0  0  0  0  0  0  0  0  0  0
  152.2190  141.3102  158.3979 C   0  0  2  0  0  0  0  0  0  0  0  0
  152.6149  140.7374  159.7768 C   0  0  0  0  0  0  0  0  0  0  0  0
  153.6042  141.6632  160.4996 C   0  0  0  0  0  0  0  0  0  0  0  0
  153.0318  143.0820  160.6323 C   0  0  0  0  0  0  0  0  0  0  0  0
  152.6482  143.6583  159.2599 C   0  0  0  0  0  0  0  0  0  0  0  0
  151.6490  142.7505  158.5135 C   0  0  1  0  0  0  0  0  0  0  0  0
  151.2848  143.3572  157.1466 C   0  0  0  0  0  0  0  0  0  0  0  0
  151.4576  135.3210  156.2416 N   0  5  0  0  0  0  0  0  0  0  0  0
  151.1703  134.0452  156.6272 C   0  0  0  0  0  0  0  0  0  0  0  0
  151.8003  133.4727  157.5157 O   0  0  0  0  0  0  0  0  0  0  0  0
  150.0693  133.3530  155.9348 C   0  0  0  0  0  0  0  0  0  0  0  0
  149.7119  131.9300  156.3574 C   0  0  0  0  0  0  0  0  0  0  0  0
  149.9431  130.9157  155.2283 C   0  0  0  0  0  0  0  0  0  0  0  0
  149.6665  129.6111  155.6905 O   0  0  0  0  0  0  0  0  0  0  0  0
  148.5404  132.4704  153.7460 H   0  0  0  0  0  0  0  0  0  0  0  0
  147.9747  134.0871  153.3329 H   0  0  0  0  0  0  0  0  0  0  0  0
  147.3885  133.3049  154.8016 H   0  0  0  0  0  0  0  0  0  0  0  0
  150.1856  137.9708  156.9587 H   0  0  0  0  0  0  0  0  0  0  0  0
  149.7560  139.2696  155.8555 H   0  0  0  0  0  0  0  0  0  0  0  0
  150.3604  140.4535  157.8815 H   0  0  0  0  0  0  0  0  0  0  0  0
  153.1303  141.3684  157.8012 H   0  0  0  0  0  0  0  0  0  0  0  0
  151.7331  140.6054  160.4042 H   0  0  0  0  0  0  0  0  0  0  0  0
  153.0599  139.7490  159.6576 H   0  0  0  0  0  0  0  0  0  0  0  0
  153.8362  141.2618  161.4864 H   0  0  0  0  0  0  0  0  0  0  0  0
  154.5456  141.6971  159.9496 H   0  0  0  0  0  0  0  0  0  0  0  0
  152.1543  143.0638  161.2798 H   0  0  0  0  0  0  0  0  0  0  0  0
  153.7605  143.7322  161.1172 H   0  0  0  0  0  0  0  0  0  0  0  0
  152.2216  144.6531  159.3921 H   0  0  0  0  0  0  0  0  0  0  0  0
  153.5489  143.7883  158.6582 H   0  0  0  0  0  0  0  0  0  0  0  0
  150.7362  142.7176  159.1094 H   0  0  0  0  0  0  0  0  0  0  0  0
  152.1518  143.3944  156.4864 H   0  0  0  0  0  0  0  0  0  0  0  0
  150.9085  144.3744  157.2583 H   0  0  0  0  0  0  0  0  0  0  0  0
  150.5076  142.7817  156.6438 H   0  0  0  0  0  0  0  0  0  0  0  0
  148.6716  131.8862  156.6789 H   0  0  0  0  0  0  0  0  0  0  0  0
  150.2933  131.6532  157.2380 H   0  0  0  0  0  0  0  0  0  0  0  0
  149.2986  131.1342  154.3769 H   0  0  0  0  0  0  0  0  0  0  0  0
  150.9744  130.9552  154.8764 H   0  0  0  0  0  0  0  0  0  0  0  0
  149.8749  128.9995  155.0013 H   0  0  0  0  0  0  0  0  0  0  0  0
  1 24  1  0  0  0  0
  1 25  1  0  0  0  0
  1 26  1  0  0  0  0
  1  2  1  0  0  0  0
  2 20  2  0  0  0  0
  2  3  1  0  0  0  0
  3  4  2  0  0  0  0
  4  5  1  0  0  0  0
  4 17  1  0  0  0  0
  5  6  1  0  0  0  0
  6  7  1  0  0  0  0
  6 27  1  0  0  0  0
  6 28  1  0  0  0  0
  7  8  2  0  0  0  0
  7  9  1  0  0  0  0
  9 10  1  0  0  0  0
  9 29  1  0  0  0  0
 10 15  1  0  0  0  0
 10 11  1  0  0  0  0
 10 30  1  0  0  0  0
 11 12  1  0  0  0  0
 11 31  1  0  0  0  0
 11 32  1  0  0  0  0
 12 13  1  0  0  0  0
 12 33  1  0  0  0  0
 12 34  1  0  0  0  0
 13 14  1  0  0  0  0
 13 35  1  0  0  0  0
 13 36  1  0  0  0  0
 14 15  1  0  0  0  0
 14 37  1  0  0  0  0
 14 38  1  0  0  0  0
 15 16  1  0  0  0  0
 15 39  1  0  0  0  0
 16 40  1  0  0  0  0
 16 41  1  0  0  0  0
 16 42  1  0  0  0  0
 17 18  1  0  0  0  0
 18 19  2  0  0  0  0
 18 20  1  0  0  0  0
 20 21  1  0  0  0  0
 21 22  1  0  0  0  0
 21 43  1  0  0  0  0
 21 44  1  0  0  0  0
 22 23  1  0  0  0  0
 22 45  1  0  0  0  0
 22 46  1  0  0  0  0
 23 47  1  0  0  0  0
M  CHG  1  17  -1
M  END
> <s_m_source_file>
AV-unprocessed.smi

> <i_m_source_file_index>
438

> <i_lp_mmshare_version>
43012

> <i_f3d_flags>
0

> <s_epik_input>
W09IXVtDSDJdW0NIMl1jMWMoW09IXSluYyhuYzFbQ0gzXSlTW0NIMl1DKD1PKVtOSF1bQ0BASF0yW0NIMl1bQ0gyXVtDSDJdW0NIMl1bQ0BIXTJbQ0gzXQ==

> <s_epik_cmdline>
J2VwaWtfcHl0aG9uJywgJy1waCcsICc3LjAnLCAnLXRuJywgJzgnLCAnLW1hJywgJzIwMCcsICctbWV0YWxfYmluZGluZycsICctaW1hZScsICc8aW5maWxlLm1hZT4nLCAnLW9tYWUnLCAnPG91dGZpbGUubWFlPic=

> <r_lp_tautomer_probability>
1

> <r_epik_Ionization_Penalty>
3.69231

> <r_epik_Ionization_Penalty_Charging>
0.00434774

> <r_epik_Ionization_Penalty_Neutral>
3.68796

> <r_epik_State_Penalty>
2.13826

> <r_epik_Charging_Adjusted_Penalty>
2.14261

> <i_epik_Tot_Q>
-1

> <i_epik_Tot_abs_Q>
1

> <r_epik_Metal_State_Penalty>
0.260979

> <b_epik_Metal_Only>
0

> <s_lp_Force_Field>
OPLS_2005

> <r_lp_Energy>
19.4347

> <b_lp_Chiralities_Consistent>
1

> <s_lp_Variant>
AV-unprocessed.smi:438-9

> <Gold.Version>
5.8.1

> <Gold.Id.Protein>
6NUR|6NUR_protein|mol2

> <Gold.PLP.Fitness>
48.3333

> <Gold.PLP.PLP>
-39.6587

> <Gold.PLP.part.hbond>
-3.0000

> <Gold.PLP.part.metal>
0.0000

> <Gold.PLP.part.buried>
-4.7083

> <Gold.PLP.part.nonpolar>
-34.2308

> <Gold.PLP.part.repulsive>
2.2478

> <Gold.PLP.ligand.clash>
0.0000

> <Gold.PLP.ligand.torsion>
0.8873

> <Gold.PLP.Chemscore.Hbond>
3.4550

> <Gold.PLP.Chemscore.CHOScore>
0.0000

> <Gold.PLP.Chemscore.Metal>
0.0000

> <Gold.Chemscore.Hbonds>
donor molecule, donor type, donor heavy atom, donor atom, acceptor molecule, acceptor atom, score
      P1  H  6896  6907       L1    19  0.54
      P1  H  7997  8010       L1     8  1.00
      P1  H 10752 10764       L1    17  1.07

> <Gold.PLP.Chemscore.Internal.Correction>
0.0842

> <Gold.Rescore>
     Score         DG    S(hbond)    S(metal)    S(lipo)     H(rot)  DE(clash)    DE(int)     intcor
     15.33     -16.57       1.80        0.00     104.60       2.79       0.20       1.04       ----

> <Gold.Chemscore.Fitness>
15.3264

> <Gold.Chemscore.DG>
-16.5655

> <Gold.Chemscore.ZeroCoef>
-5.4800

> <Gold.Chemscore.Hbond>
1.7953

> <Gold.Chemscore.Metal>
0.0000

> <Gold.Chemscore.Lipo>
104.6013

> <Gold.Chemscore.Internal_Hbond>
0.0000

> <Gold.Chemscore.DEClash>
0.1978

> <Gold.Chemscore.DEInternal>
1.0413

> <Gold.Chemscore.Rot>
2.7927

> <Gold.Chemscore.Internal.Correction>
   9.000000E+99

> <Gold.Chemscore.Hbonds>
donor molecule, donor type, donor heavy atom, donor atom, acceptor molecule, acceptor atom, score
      P1  H  6896  6907       L1    19  0.54
      P1  H  7997  8010       L1     8  1.00
      P1  H 10752 10764       L1    17  0.03

> <Gold.Chemscore.Hbond.Weighted>
-5.9964

> <Gold.Chemscore.Metal.Weighted>
-0.0000

> <Gold.Chemscore.Lipo.Weighted>
-12.2384

> <Gold.Chemscore.Internal_Hbond.Weighted>
0.0000

> <Gold.Chemscore.DEClash.Weighted>
0.1978

> <Gold.Chemscore.DEInternal.Weighted>
1.0413

> <Gold.Chemscore.Rot.Weighted>
7.1492

> <Gold.Chemscore.Internal.Correction.Weighted>
   9.000000E+99

> <Gold.Protein.RotatedTorsions>
[ 6907 6896 6895 6894 ] final -169.05 input  -60.11 | X-H torsion
[ 7974 7965 7964 7962 ] final  -56.67 input  175.53 | X-H torsion
[ 8008 7997 7996 7995 ] final   82.50 input   59.86 | X-H torsion
[ 10167 10162 10161 10158 ] final  -39.22 input  -65.29 | X-H torsion
[ 10718 10713 10712 10709 ] final -170.50 input   66.30 | X-H torsion
[ 10763 10752 10751 10750 ] final  -23.00 input  -60.55 | X-H torsion
[ 11005 11000 10999 10996 ] final  174.41 input  -57.11 | X-H torsion

> <Gold.Protein.ActiveResidues>
 VAL166  LYS551  ARG553  GLY616  TRP617  ASP618  TYR619  PRO620  LYS621  CYS622 
 ASP623  PHE694  ASN695  SER759  ASP760  ASP761  ALA762  ILE779  LEU786  VAL792 
 PHE793  MET794  SER795  GLU796  ALA797  LYS798  CYS799  TRP800  GLU811  SER814 

> <Gold.Protein.RotatedAtoms>
  151.4853  133.3537  159.2844 H   0  0  0  0  0  0  0  0  0  0  0  0  # atno 6907 bound_to 6896
  150.8870  134.8271  159.7277 H   0  0  0  0  0  0  0  0  0  0  0  0  # atno 6908 bound_to 6896
  152.4799  134.4758  159.9702 H   0  0  0  0  0  0  0  0  0  0  0  0  # atno 6909 bound_to 6896
  145.8600  140.8292  142.9942 H   0  0  0  0  0  0  0  0  0  0  0  0  # atno 7974 bound_to 7965
  155.9115  140.3427  155.6102 H   0  0  0  0  0  0  0  0  0  0  0  0  # atno 8008 bound_to 7997
  155.7382  140.0804  157.2276 H   0  0  0  0  0  0  0  0  0  0  0  0  # atno 8009 bound_to 7997
  154.4056  140.1575  156.2573 H   0  0  0  0  0  0  0  0  0  0  0  0  # atno 8010 bound_to 7997
  140.7070  143.3228  151.2752 H   0  0  0  0  0  0  0  0  0  0  0  0  # atno 10167 bound_to 10162
  156.7271  130.9292  151.3102 H   0  0  0  0  0  0  0  0  0  0  0  0  # atno 10718 bound_to 10713
  153.6609  135.6976  153.5178 H   0  0  0  0  0  0  0  0  0  0  0  0  # atno 10763 bound_to 10752
  153.2632  135.4238  155.0914 H   0  0  0  0  0  0  0  0  0  0  0  0  # atno 10764 bound_to 10752
  154.8452  135.3560  154.6154 H   0  0  0  0  0  0  0  0  0  0  0  0  # atno 10765 bound_to 10752
  140.3510  134.7195  157.4268 H   0  0  0  0  0  0  0  0  0  0  0  0  # atno 11005 bound_to 11000
  144.6727  140.1081  143.7457 LP  0  0  0  0  0  0  0  0  0  0  0  0  # atno 17320 bound_to 7965
  145.9259  139.2575  143.1354 LP  0  0  0  0  0  0  0  0  0  0  0  0  # atno 17321 bound_to 7965
  139.6687  144.0059  152.2739 LP  0  0  0  0  0  0  0  0  0  0  0  0  # atno 17342 bound_to 10162
  139.9651  144.6532  150.8042 LP  0  0  0  0  0  0  0  0  0  0  0  0  # atno 17343 bound_to 10162
  157.6874  130.9199  150.0423 LP  0  0  0  0  0  0  0  0  0  0  0  0  # atno 17370 bound_to 10713
  156.1554  130.3643  149.9376 LP  0  0  0  0  0  0  0  0  0  0  0  0  # atno 17371 bound_to 10713
  140.0703  134.5872  155.8649 LP  0  0  0  0  0  0  0  0  0  0  0  0  # atno 17394 bound_to 11000
  141.2012  133.6617  156.5937 LP  0  0  0  0  0  0  0  0  0  0  0  0  # atno 17395 bound_to 11000

$$$$
