AV-unprocessed.smi:2854|AV-procd|sdf|10975|dock8
  -GOLD-   2272015433D 1   1.00000     0.00000
 Structure written by MMmdl.
 27 28  0  0  0  0  0  0  0  0  2 V2000
  149.4531  138.8135  153.6354 N   0  0  0  0  0  0  0  0  0  0  0  0
  149.6134  139.7365  154.6710 C   0  0  0  0  0  0  0  0  0  0  0  0
  149.4625  141.1130  154.4005 C   0  0  0  0  0  0  0  0  0  0  0  0
  149.6147  142.0182  155.3907 N   0  3  0  0  0  0  0  0  0  0  0  0
  149.9114  141.6692  156.6605 C   0  0  0  0  0  0  0  0  0  0  0  0
  150.0747  140.3101  156.9944 C   0  0  0  0  0  0  0  0  0  0  0  0
  149.9251  139.3216  155.9914 C   0  0  0  0  0  0  0  0  0  0  0  0
  150.0825  137.9582  156.2899 N   0  0  0  0  0  0  0  0  0  0  0  0
  151.4266  137.6078  156.7315 C   0  0  0  0  0  0  0  0  0  0  0  0
  151.5430  136.0831  156.9007 C   0  0  0  0  0  0  0  0  0  0  0  0
  150.5362  135.6255  157.7990 O   0  0  0  0  0  0  0  0  0  0  0  0
  149.2238  135.9026  157.3184 C   0  0  0  0  0  0  0  0  0  0  0  0
  149.0443  137.4225  157.1614 C   0  0  0  0  0  0  0  0  0  0  0  0
  149.5523  137.8196  153.7852 H   0  0  0  0  0  0  0  0  0  0  0  0
  149.2261  139.1141  152.6977 H   0  0  0  0  0  0  0  0  0  0  0  0
  149.2261  141.5173  153.4269 H   0  0  0  0  0  0  0  0  0  0  0  0
  150.0092  142.4812  157.3662 H   0  0  0  0  0  0  0  0  0  0  0  0
  150.3129  140.0334  158.0111 H   0  0  0  0  0  0  0  0  0  0  0  0
  152.1591  137.9606  156.0044 H   0  0  0  0  0  0  0  0  0  0  0  0
  151.6469  138.1012  157.6791 H   0  0  0  0  0  0  0  0  0  0  0  0
  151.4454  135.5757  155.9394 H   0  0  0  0  0  0  0  0  0  0  0  0
  152.5228  135.8224  157.3007 H   0  0  0  0  0  0  0  0  0  0  0  0
  149.0569  135.3902  156.3695 H   0  0  0  0  0  0  0  0  0  0  0  0
  148.4944  135.5083  158.0261 H   0  0  0  0  0  0  0  0  0  0  0  0
  149.0954  137.9016  158.1399 H   0  0  0  0  0  0  0  0  0  0  0  0
  148.0609  137.6420  156.7438 H   0  0  0  0  0  0  0  0  0  0  0  0
  149.5008  143.0077  155.1693 H   0  0  0  0  0  0  0  0  0  0  0  0
  1  2  1  0  0  0  0
  1 14  1  0  0  0  0
  1 15  1  0  0  0  0
  2  7  1  0  0  0  0
  2  3  2  0  0  0  0
  3  4  1  0  0  0  0
  3 16  1  0  0  0  0
  4  5  2  0  0  0  0
  4 27  1  0  0  0  0
  5  6  1  0  0  0  0
  5 17  1  0  0  0  0
  6  7  2  0  0  0  0
  6 18  1  0  0  0  0
  7  8  1  0  0  0  0
  8 13  1  0  0  0  0
  8  9  1  0  0  0  0
  9 10  1  0  0  0  0
  9 19  1  0  0  0  0
  9 20  1  0  0  0  0
 10 11  1  0  0  0  0
 10 21  1  0  0  0  0
 10 22  1  0  0  0  0
 11 12  1  0  0  0  0
 12 13  1  0  0  0  0
 12 23  1  0  0  0  0
 12 24  1  0  0  0  0
 13 25  1  0  0  0  0
 13 26  1  0  0  0  0
M  CHG  1   4   1
M  END
> <s_m_source_file>
AV-unprocessed.smi

> <i_m_source_file_index>
2854

> <i_lp_mmshare_version>
43012

> <i_f3d_flags>
0

> <s_epik_input>
W05IMl1jMVtjSF1uW2NIXVtjSF1jMU4yW0NIMl1bQ0gyXU9bQ0gyXVtDSDJdMg==

> <s_epik_cmdline>
J2VwaWtfcHl0aG9uJywgJy1waCcsICc3LjAnLCAnLXRuJywgJzgnLCAnLW1hJywgJzIwMCcsICctbWV0YWxfYmluZGluZycsICctaW1hZScsICc8aW5maWxlLm1hZT4nLCAnLW9tYWUnLCAnPG91dGZpbGUubWFlPic=

> <r_lp_tautomer_probability>
0.999846

> <r_epik_Ionization_Penalty>
0.0229726

> <r_epik_Ionization_Penalty_Charging>
0.0229724

> <r_epik_Ionization_Penalty_Neutral>
1.97994e-07

> <r_epik_State_Penalty>
0.0185659

> <r_epik_Charging_Adjusted_Penalty>
0.0415384

> <i_epik_Tot_Q>
1

> <i_epik_Tot_abs_Q>
1

> <r_epik_Metal_State_Penalty>
2.0686

> <b_epik_Metal_Only>
0

> <s_lp_Force_Field>
OPLS_2005

> <r_lp_Energy>
29.6275

> <b_lp_Chiralities_Consistent>
1

> <s_lp_Variant>
AV-unprocessed.smi:2854-1

> <Gold.Version>
5.8.1

> <Gold.Id.Protein>
6NUR|6NUR_protein|mol2

> <Gold.PLP.Fitness>
25.6572

> <Gold.PLP.PLP>
-14.9669

> <Gold.PLP.part.hbond>
-3.6886

> <Gold.PLP.part.metal>
0.0000

> <Gold.PLP.part.buried>
-1.9587

> <Gold.PLP.part.nonpolar>
-9.6008

> <Gold.PLP.part.repulsive>
0.2632

> <Gold.PLP.ligand.clash>
0.0000

> <Gold.PLP.ligand.torsion>
0.0673

> <Gold.PLP.Chemscore.Hbond>
3.5680

> <Gold.PLP.Chemscore.CHOScore>
0.0000

> <Gold.PLP.Chemscore.Metal>
0.0000

> <Gold.Chemscore.Hbonds>
donor molecule, donor type, donor heavy atom, donor atom, acceptor molecule, acceptor atom, score
      L1  H     1    15       P1  7957  1.00
      L1  H     4    27       P1  8028  2.00
      P1  H  6896  6908       L1    11  0.58

> <Gold.PLP.Chemscore.Internal.Correction>
0.1210

> <Gold.Rescore>
     Score         DG    S(hbond)    S(metal)    S(lipo)     H(rot)  DE(clash)    DE(int)     intcor
     16.07     -16.13       2.68        0.00      36.31       1.00       0.00       0.06       ----

> <Gold.Chemscore.Fitness>
16.0723

> <Gold.Chemscore.DG>
-16.1329

> <Gold.Chemscore.ZeroCoef>
-5.4800

> <Gold.Chemscore.Hbond>
2.6840

> <Gold.Chemscore.Metal>
0.0000

> <Gold.Chemscore.Lipo>
36.3116

> <Gold.Chemscore.Internal_Hbond>
0.0000

> <Gold.Chemscore.DEClash>
0.0000

> <Gold.Chemscore.DEInternal>
0.0606

> <Gold.Chemscore.Rot>
1.0000

> <Gold.Chemscore.Internal.Correction>
   9.000000E+99

> <Gold.Chemscore.Hbonds>
donor molecule, donor type, donor heavy atom, donor atom, acceptor molecule, acceptor atom, score
      L1  H     1    15       P1  7957  0.96
      L1  H     4    27       P1  8028  0.94
      P1  H  6896  6908       L1    11  0.50

> <Gold.Chemscore.Hbond.Weighted>
-8.9644

> <Gold.Chemscore.Metal.Weighted>
-0.0000

> <Gold.Chemscore.Lipo.Weighted>
-4.2485

> <Gold.Chemscore.Internal_Hbond.Weighted>
0.0000

> <Gold.Chemscore.DEClash.Weighted>
0.0000

> <Gold.Chemscore.DEInternal.Weighted>
0.0606

> <Gold.Chemscore.Rot.Weighted>
2.5600

> <Gold.Chemscore.Internal.Correction.Weighted>
   9.000000E+99

> <Gold.Protein.RotatedTorsions>
[ 6907 6896 6895 6894 ] final  165.46 input  -60.11 | X-H torsion
[ 7974 7965 7964 7962 ] final   89.74 input  175.53 | X-H torsion
[ 8008 7997 7996 7995 ] final -121.90 input   59.86 | X-H torsion
[ 10167 10162 10161 10158 ] final   91.24 input  -65.29 | X-H torsion
[ 10718 10713 10712 10709 ] final   44.20 input   66.30 | X-H torsion
[ 10763 10752 10751 10750 ] final  -38.11 input  -60.55 | X-H torsion
[ 11005 11000 10999 10996 ] final  140.43 input  -57.11 | X-H torsion

> <Gold.Protein.ActiveResidues>
 VAL166  LYS551  ARG553  GLY616  TRP617  ASP618  TYR619  PRO620  LYS621  CYS622 
 ASP623  PHE694  ASN695  SER759  ASP760  ASP761  ALA762  ILE779  LEU786  VAL792 
 PHE793  MET794  SER795  GLU796  ALA797  LYS798  CYS799  TRP800  GLU811  SER814 

> <Gold.Protein.RotatedAtoms>
  151.8940  133.3522  159.3807 H   0  0  0  0  0  0  0  0  0  0  0  0  # atno 6907 bound_to 6896
  150.7096  134.4895  159.5518 H   0  0  0  0  0  0  0  0  0  0  0  0  # atno 6908 bound_to 6896
  152.2470  134.8171  160.0502 H   0  0  0  0  0  0  0  0  0  0  0  0  # atno 6909 bound_to 6896
  145.5283  139.2282  143.2633 H   0  0  0  0  0  0  0  0  0  0  0  0  # atno 7974 bound_to 7965
  155.1555  140.0404  157.2831 H   0  0  0  0  0  0  0  0  0  0  0  0  # atno 8008 bound_to 7997
  154.6373  140.2538  155.7336 H   0  0  0  0  0  0  0  0  0  0  0  0  # atno 8009 bound_to 7997
  156.2515  140.2863  156.0751 H   0  0  0  0  0  0  0  0  0  0  0  0  # atno 8010 bound_to 7997
  139.8394  144.6648  150.9302 H   0  0  0  0  0  0  0  0  0  0  0  0  # atno 10167 bound_to 10162
  157.4243  130.7987  149.7544 H   0  0  0  0  0  0  0  0  0  0  0  0  # atno 10718 bound_to 10713
  153.9074  135.6796  153.4752 H   0  0  0  0  0  0  0  0  0  0  0  0  # atno 10763 bound_to 10752
  153.1097  135.4789  154.9011 H   0  0  0  0  0  0  0  0  0  0  0  0  # atno 10764 bound_to 10752
  154.7545  135.3193  154.8451 H   0  0  0  0  0  0  0  0  0  0  0  0  # atno 10765 bound_to 10752
  140.0327  134.9344  157.0693 H   0  0  0  0  0  0  0  0  0  0  0  0  # atno 11005 bound_to 11000
  146.2061  140.6098  142.9080 LP  0  0  0  0  0  0  0  0  0  0  0  0  # atno 17320 bound_to 7965
  144.7639  140.5486  143.6716 LP  0  0  0  0  0  0  0  0  0  0  0  0  # atno 17321 bound_to 7965
  140.7799  143.3927  151.1283 LP  0  0  0  0  0  0  0  0  0  0  0  0  # atno 17342 bound_to 10162
  139.7574  143.8687  152.3092 LP  0  0  0  0  0  0  0  0  0  0  0  0  # atno 17343 bound_to 10162
  155.9891  130.3954  150.3088 LP  0  0  0  0  0  0  0  0  0  0  0  0  # atno 17370 bound_to 10713
  157.1239  131.0254  151.2998 LP  0  0  0  0  0  0  0  0  0  0  0  0  # atno 17371 bound_to 10713
  140.4199  134.1892  155.7164 LP  0  0  0  0  0  0  0  0  0  0  0  0  # atno 17394 bound_to 11000
  141.1840  133.8353  157.1155 LP  0  0  0  0  0  0  0  0  0  0  0  0  # atno 17395 bound_to 11000

$$$$
