AV-unprocessed.smi:2061|AV-procd|sdf|8381|dock6
  -GOLD-   2272011 63D 1   1.00000     0.00000
 Structure written by MMmdl.
 45 46  0  0  0  0  0  0  0  0  3 V2000
  152.0836  140.2504  159.1591 C   0  0  0  0  0  0  0  0  0  0  0  0
  151.7983  140.0775  157.7063 C   0  0  0  0  0  0  0  0  0  0  0  0
  150.7069  140.3609  156.9352 C   0  0  0  0  0  0  0  0  0  0  0  0
  151.1049  139.9337  155.6390 C   0  0  0  0  0  0  0  0  0  0  0  0
  150.3677  140.0138  154.5205 N   0  5  0  0  0  0  0  0  0  0  0  0
  149.0327  139.8044  154.5679 C   0  0  0  0  0  0  0  0  0  0  0  0
  148.3204  139.8375  155.5743 O   0  0  0  0  0  0  0  0  0  0  0  0
  148.4853  139.5468  153.3717 N   0  0  0  0  0  0  0  0  0  0  0  0
  147.0679  139.3069  153.1183 C   0  0  0  0  0  0  0  0  0  0  0  0
  146.5238  138.0546  153.8555 C   0  0  1  0  0  0  0  0  0  0  0  0
  145.1724  138.3817  154.5368 C   0  0  0  0  0  0  0  0  0  0  0  0
  146.4545  136.8919  152.9117 N   0  3  1  0  0  0  0  0  0  0  0  0
  146.3817  135.5861  153.6210 C   0  0  0  0  0  0  0  0  0  0  0  0
  146.4357  134.4130  152.6259 C   0  0  1  0  0  0  0  0  0  0  0  0
  146.3097  133.0540  153.3238 C   0  0  0  0  0  0  0  0  0  0  0  0
  145.3570  134.5403  151.7090 O   0  0  0  0  0  0  0  0  0  0  0  0
  145.4400  135.7344  150.9425 C   0  0  1  0  0  0  0  0  0  0  0  0
  144.2894  135.7281  149.9298 C   0  0  0  0  0  0  0  0  0  0  0  0
  145.3802  136.9544  151.8827 C   0  0  0  0  0  0  0  0  0  0  0  0
  152.3361  139.4517  155.6216 N   0  0  0  0  0  0  0  0  0  0  0  0
  152.7854  139.5333  156.9450 O   0  0  0  0  0  0  0  0  0  0  0  0
  151.8105  141.2526  159.4894 H   0  0  0  0  0  0  0  0  0  0  0  0
  153.1423  140.1017  159.3727 H   0  0  0  0  0  0  0  0  0  0  0  0
  151.5152  139.5324  159.7504 H   0  0  0  0  0  0  0  0  0  0  0  0
  149.7713  140.7992  157.2483 H   0  0  0  0  0  0  0  0  0  0  0  0
  149.1044  139.5238  152.5746 H   0  0  0  0  0  0  0  0  0  0  0  0
  146.5189  140.1913  153.4424 H   0  0  0  0  0  0  0  0  0  0  0  0
  146.9246  139.2443  152.0403 H   0  0  0  0  0  0  0  0  0  0  0  0
  147.2168  137.7850  154.6539 H   0  0  0  0  0  0  0  0  0  0  0  0
  145.2516  139.2465  155.1956 H   0  0  0  0  0  0  0  0  0  0  0  0
  144.8242  137.5642  155.1681 H   0  0  0  0  0  0  0  0  0  0  0  0
  144.3979  138.6030  153.8020 H   0  0  0  0  0  0  0  0  0  0  0  0
  147.2001  135.4795  154.3307 H   0  0  0  0  0  0  0  0  0  0  0  0
  145.4576  135.5403  154.2000 H   0  0  0  0  0  0  0  0  0  0  0  0
  147.3808  134.4350  152.0801 H   0  0  0  0  0  0  0  0  0  0  0  0
  147.1202  132.9023  154.0372 H   0  0  0  0  0  0  0  0  0  0  0  0
  146.3489  132.2396  152.5998 H   0  0  0  0  0  0  0  0  0  0  0  0
  145.3670  132.9730  153.8656 H   0  0  0  0  0  0  0  0  0  0  0  0
  146.3828  135.7421  150.3925 H   0  0  0  0  0  0  0  0  0  0  0  0
  144.3140  136.6176  149.3000 H   0  0  0  0  0  0  0  0  0  0  0  0
  143.3216  135.7000  150.4314 H   0  0  0  0  0  0  0  0  0  0  0  0
  144.3503  134.8573  149.2766 H   0  0  0  0  0  0  0  0  0  0  0  0
  144.4077  137.0084  152.3751 H   0  0  0  0  0  0  0  0  0  0  0  0
  145.4867  137.8469  151.2668 H   0  0  0  0  0  0  0  0  0  0  0  0
  147.3247  136.8994  152.3989 H   0  0  0  0  0  0  0  0  0  0  0  0
  1  2  1  0  0  0  0
  1 22  1  0  0  0  0
  1 23  1  0  0  0  0
  1 24  1  0  0  0  0
  2 21  1  0  0  0  0
  2  3  2  0  0  0  0
  3  4  1  0  0  0  0
  3 25  1  0  0  0  0
  4  5  1  0  0  0  0
  4 20  2  0  0  0  0
  5  6  1  0  0  0  0
  6  7  2  0  0  0  0
  6  8  1  0  0  0  0
  8  9  1  0  0  0  0
  8 26  1  0  0  0  0
  9 10  1  0  0  0  0
  9 27  1  0  0  0  0
  9 28  1  0  0  0  0
 10 11  1  0  0  0  0
 10 12  1  0  0  0  0
 10 29  1  0  0  0  0
 11 30  1  0  0  0  0
 11 31  1  0  0  0  0
 11 32  1  0  0  0  0
 12 19  1  0  0  0  0
 12 13  1  0  0  0  0
 12 45  1  0  0  0  0
 13 14  1  0  0  0  0
 13 33  1  0  0  0  0
 13 34  1  0  0  0  0
 14 15  1  0  0  0  0
 14 16  1  0  0  0  0
 14 35  1  0  0  0  0
 15 36  1  0  0  0  0
 15 37  1  0  0  0  0
 15 38  1  0  0  0  0
 16 17  1  0  0  0  0
 17 18  1  0  0  0  0
 17 19  1  0  0  0  0
 17 39  1  0  0  0  0
 18 40  1  0  0  0  0
 18 41  1  0  0  0  0
 18 42  1  0  0  0  0
 19 43  1  0  0  0  0
 19 44  1  0  0  0  0
 20 21  1  0  0  0  0
M  CHG  1   5  -1
M  CHG  1  12   1
M  END
> <s_m_source_file>
AV-unprocessed.smi

> <i_m_source_file_index>
2061

> <i_lp_mmshare_version>
43012

> <i_f3d_flags>
0

> <s_epik_input>
W0NIM11jMVtjSF1jKG5vMSlbTkhdQyg9TylbTkhdW0NIMl1bQ0BIXShbQ0gzXSlOMltDSDJdW0NAQEhdKFtDSDNdKU9bQ0BASF0oW0NIM10pW0NIMl0y

> <s_epik_cmdline>
J2VwaWtfcHl0aG9uJywgJy1waCcsICc3LjAnLCAnLXRuJywgJzgnLCAnLW1hJywgJzIwMCcsICctbWV0YWxfYmluZGluZycsICctaW1hZScsICc8aW5maWxlLm1hZT4nLCAnLW9tYWUnLCAnPG91dGZpbGUubWFlPic=

> <r_epik_Ionization_Penalty>
6.73511

> <r_epik_Ionization_Penalty_Charging>
6.73502

> <r_epik_Ionization_Penalty_Neutral>
9.50841e-05

> <r_epik_State_Penalty>
6.93549

> <r_epik_Charging_Adjusted_Penalty>
13.6705

> <i_epik_Tot_Q>
0

> <i_epik_Tot_abs_Q>
2

> <r_epik_Metal_State_Penalty>
2.87211

> <b_epik_Metal_Only>
1

> <s_lp_Force_Field>
OPLS_2005

> <r_lp_Energy>
8.02842

> <b_lp_Chiralities_Consistent>
1

> <s_lp_Variant>
AV-unprocessed.smi:2061-22

> <Gold.Version>
5.8.1

> <Gold.Id.Protein>
6NUR|6NUR_protein|mol2

> <Gold.PLP.Fitness>
42.5264

> <Gold.PLP.PLP>
-30.5240

> <Gold.PLP.part.hbond>
-4.5721

> <Gold.PLP.part.metal>
0.0000

> <Gold.PLP.part.buried>
-2.0257

> <Gold.PLP.part.nonpolar>
-22.3951

> <Gold.PLP.part.repulsive>
0.3400

> <Gold.PLP.ligand.clash>
0.0000

> <Gold.PLP.ligand.torsion>
1.1299

> <Gold.PLP.Chemscore.Hbond>
4.7260

> <Gold.PLP.Chemscore.CHOScore>
0.0000

> <Gold.PLP.Chemscore.Metal>
0.0000

> <Gold.Chemscore.Hbonds>
donor molecule, donor type, donor heavy atom, donor atom, acceptor molecule, acceptor atom, score
      L1  H     8    26       P1  7957  1.00
      L1  H    12    45       P1  7948  2.00
      P1  H  7989  7998       L1     5  0.85
      P1  H  7997  8010       L1    21  0.95

> <Gold.PLP.Chemscore.Internal.Correction>
0.0842

> <Gold.Rescore>
     Score         DG    S(hbond)    S(metal)    S(lipo)     H(rot)  DE(clash)    DE(int)     intcor
     14.62     -17.29       2.79        0.00      55.26       1.56       0.05       2.63       ----

> <Gold.Chemscore.Fitness>
14.6226

> <Gold.Chemscore.DG>
-17.2949

> <Gold.Chemscore.ZeroCoef>
-5.4800

> <Gold.Chemscore.Hbond>
2.7936

> <Gold.Chemscore.Metal>
0.0000

> <Gold.Chemscore.Lipo>
55.2562

> <Gold.Chemscore.Internal_Hbond>
0.0000

> <Gold.Chemscore.DEClash>
0.0456

> <Gold.Chemscore.DEInternal>
2.6267

> <Gold.Chemscore.Rot>
1.5550

> <Gold.Chemscore.Internal.Correction>
   9.000000E+99

> <Gold.Chemscore.Hbonds>
donor molecule, donor type, donor heavy atom, donor atom, acceptor molecule, acceptor atom, score
      L1  H     8    26       P1  7957  0.95
      L1  H    12    45       P1  7948  0.99
      P1  H  7989  7998       L1     5  0.15
      P1  H  7997  8010       L1    21  0.22

> <Gold.Chemscore.Hbond.Weighted>
-9.3308

> <Gold.Chemscore.Metal.Weighted>
-0.0000

> <Gold.Chemscore.Lipo.Weighted>
-6.4650

> <Gold.Chemscore.Internal_Hbond.Weighted>
0.0000

> <Gold.Chemscore.DEClash.Weighted>
0.0456

> <Gold.Chemscore.DEInternal.Weighted>
2.6267

> <Gold.Chemscore.Rot.Weighted>
3.9809

> <Gold.Chemscore.Internal.Correction.Weighted>
   9.000000E+99

> <Gold.Protein.RotatedTorsions>
[ 6907 6896 6895 6894 ] final -147.73 input  -60.11 | X-H torsion
[ 7974 7965 7964 7962 ] final  -61.60 input  175.53 | X-H torsion
[ 8008 7997 7996 7995 ] final   58.27 input   59.86 | X-H torsion
[ 10167 10162 10161 10158 ] final -114.39 input  -65.29 | X-H torsion
[ 10718 10713 10712 10709 ] final  151.89 input   66.30 | X-H torsion
[ 10763 10752 10751 10750 ] final  -23.98 input  -60.55 | X-H torsion
[ 11005 11000 10999 10996 ] final  -51.80 input  -57.11 | X-H torsion

> <Gold.Protein.ActiveResidues>
 VAL166  LYS551  ARG553  GLY616  TRP617  ASP618  TYR619  PRO620  LYS621  CYS622 
 ASP623  PHE694  ASN695  SER759  ASP760  ASP761  ALA762  ILE779  LEU786  VAL792 
 PHE793  MET794  SER795  GLU796  ALA797  LYS798  CYS799  TRP800  GLU811  SER814 

> <Gold.Protein.RotatedAtoms>
  151.1599  133.4852  159.2594 H   0  0  0  0  0  0  0  0  0  0  0  0  # atno 6907 bound_to 6896
  151.1465  135.0206  159.8659 H   0  0  0  0  0  0  0  0  0  0  0  0  # atno 6908 bound_to 6896
  152.5463  134.1487  159.8562 H   0  0  0  0  0  0  0  0  0  0  0  0  # atno 6909 bound_to 6896
  145.8015  140.8652  143.0229 H   0  0  0  0  0  0  0  0  0  0  0  0  # atno 7974 bound_to 7965
  155.5473  140.3485  155.4460 H   0  0  0  0  0  0  0  0  0  0  0  0  # atno 8008 bound_to 7997
  156.0609  140.1340  156.9969 H   0  0  0  0  0  0  0  0  0  0  0  0  # atno 8009 bound_to 7997
  154.4479  140.0985  156.6500 H   0  0  0  0  0  0  0  0  0  0  0  0  # atno 8010 bound_to 7997
  140.1015  143.4609  152.1809 H   0  0  0  0  0  0  0  0  0  0  0  0  # atno 10167 bound_to 10162
  157.2649  131.0805  151.1640 H   0  0  0  0  0  0  0  0  0  0  0  0  # atno 10718 bound_to 10713
  153.6765  135.6969  153.5131 H   0  0  0  0  0  0  0  0  0  0  0  0  # atno 10763 bound_to 10752
  153.2517  135.4273  155.0804 H   0  0  0  0  0  0  0  0  0  0  0  0  # atno 10764 bound_to 10752
  154.8412  135.3533  154.6309 H   0  0  0  0  0  0  0  0  0  0  0  0  # atno 10765 bound_to 10752
  141.0890  133.6636  156.3930 H   0  0  0  0  0  0  0  0  0  0  0  0  # atno 11005 bound_to 11000
  144.6768  140.0265  143.7483 LP  0  0  0  0  0  0  0  0  0  0  0  0  # atno 17320 bound_to 7965
  145.9873  139.2987  143.1006 LP  0  0  0  0  0  0  0  0  0  0  0  0  # atno 17321 bound_to 7965
  139.5669  144.7440  151.3998 LP  0  0  0  0  0  0  0  0  0  0  0  0  # atno 17342 bound_to 10162
  140.6975  143.7713  150.7350 LP  0  0  0  0  0  0  0  0  0  0  0  0  # atno 17343 bound_to 10162
  157.3135  130.6901  149.6229 LP  0  0  0  0  0  0  0  0  0  0  0  0  # atno 17370 bound_to 10713
  155.9663  130.4356  150.5100 LP  0  0  0  0  0  0  0  0  0  0  0  0  # atno 17371 bound_to 10713
  140.5295  134.6226  157.5345 LP  0  0  0  0  0  0  0  0  0  0  0  0  # atno 17394 bound_to 11000
  139.9713  134.7288  156.0036 LP  0  0  0  0  0  0  0  0  0  0  0  0  # atno 17395 bound_to 11000

$$$$
