AV-unprocessed.smi:1748|AV-procd|sdf|7036|dock5
  -GOLD-   22720 8253D 1   1.00000     0.00000
 Structure written by MMmdl.
 40 41  0  0  0  0  0  0  0  0  2 V2000
  143.9444  133.3743  149.0079 C   0  0  0  0  0  0  0  0  0  0  0  0
  143.8119  134.1430  150.2641 N   0  3  1  0  0  0  0  0  0  0  0  0
  143.2034  133.3426  151.3561 C   0  0  0  0  0  0  0  0  0  0  0  0
  142.9623  134.2076  152.6045 C   0  0  0  0  0  0  0  0  0  0  0  0
  144.2612  134.8811  153.0689 C   0  0  0  0  0  0  0  0  0  0  0  0
  144.8882  135.6771  151.9125 C   0  0  1  0  0  0  0  0  0  0  0  0
  146.1547  136.2622  152.3420 N   0  0  0  0  0  0  0  0  0  0  0  0
  146.2909  137.1851  153.3047 C   0  0  0  0  0  0  0  0  0  0  0  0
  145.3378  137.6509  153.9287 O   0  0  0  0  0  0  0  0  0  0  0  0
  147.5824  137.5280  153.4626 N   0  0  0  0  0  0  0  0  0  0  0  0
  148.1586  138.4293  154.3739 C   0  0  0  0  0  0  0  0  0  0  0  0
  149.1321  138.1147  155.2683 C   0  0  0  0  0  0  0  0  0  0  0  0
  149.6944  139.1019  156.1753 C   0  0  0  0  0  0  0  0  0  0  0  0
  150.8251  138.7577  157.1328 C   0  0  0  0  0  0  0  0  0  0  0  0
  151.8940  139.5231  156.9081 F   0  0  0  0  0  0  0  0  0  0  0  0
  150.4303  138.9562  158.3895 F   0  0  0  0  0  0  0  0  0  0  0  0
  151.1911  137.4818  157.0085 F   0  0  0  0  0  0  0  0  0  0  0  0
  149.2207  140.3567  156.0651 C   0  0  0  0  0  0  0  0  0  0  0  0
  148.2190  140.6879  155.1499 N   0  0  0  0  0  0  0  0  0  0  0  0
  147.6542  139.8101  154.2910 C   0  0  0  0  0  0  0  0  0  0  0  0
  146.7796  140.1812  153.5088 O   0  0  0  0  0  0  0  0  0  0  0  0
  145.0912  134.7691  150.6806 C   0  0  0  0  0  0  0  0  0  0  0  0
  147.9104  141.6494  155.1351 H   0  0  0  0  0  0  0  0  0  0  0  0
  144.6255  132.5318  149.1342 H   0  0  0  0  0  0  0  0  0  0  0  0
  144.3281  134.0077  148.2075 H   0  0  0  0  0  0  0  0  0  0  0  0
  142.9760  132.9874  148.6891 H   0  0  0  0  0  0  0  0  0  0  0  0
  142.2562  132.9213  151.0169 H   0  0  0  0  0  0  0  0  0  0  0  0
  143.8552  132.5023  151.6008 H   0  0  0  0  0  0  0  0  0  0  0  0
  142.2139  134.9698  152.3830 H   0  0  0  0  0  0  0  0  0  0  0  0
  142.5520  133.5960  153.4084 H   0  0  0  0  0  0  0  0  0  0  0  0
  144.0574  135.5383  153.9154 H   0  0  0  0  0  0  0  0  0  0  0  0
  144.9599  134.1215  153.4231 H   0  0  0  0  0  0  0  0  0  0  0  0
  144.2032  136.4850  151.6471 H   0  0  0  0  0  0  0  0  0  0  0  0
  146.9892  135.9358  151.8764 H   0  0  0  0  0  0  0  0  0  0  0  0
  148.2396  137.1077  152.8213 H   0  0  0  0  0  0  0  0  0  0  0  0
  149.5331  137.1161  155.3229 H   0  0  0  0  0  0  0  0  0  0  0  0
  149.5688  141.1916  156.6553 H   0  0  0  0  0  0  0  0  0  0  0  0
  145.8245  133.9902  150.8977 H   0  0  0  0  0  0  0  0  0  0  0  0
  145.4874  135.3542  149.8494 H   0  0  0  0  0  0  0  0  0  0  0  0
  143.1720  134.9001  150.0701 H   0  0  0  0  0  0  0  0  0  0  0  0
  1  2  1  0  0  0  0
  1 24  1  0  0  0  0
  1 25  1  0  0  0  0
  1 26  1  0  0  0  0
  2 22  1  0  0  0  0
  2  3  1  0  0  0  0
  2 40  1  0  0  0  0
  3  4  1  0  0  0  0
  3 27  1  0  0  0  0
  3 28  1  0  0  0  0
  4  5  1  0  0  0  0
  4 29  1  0  0  0  0
  4 30  1  0  0  0  0
  5  6  1  0  0  0  0
  5 31  1  0  0  0  0
  5 32  1  0  0  0  0
  6  7  1  0  0  0  0
  6 22  1  0  0  0  0
  6 33  1  0  0  0  0
  7  8  1  0  0  0  0
  7 34  1  0  0  0  0
  8  9  2  0  0  0  0
  8 10  1  0  0  0  0
 10 11  1  0  0  0  0
 10 35  1  0  0  0  0
 11 20  1  0  0  0  0
 11 12  2  0  0  0  0
 12 13  1  0  0  0  0
 12 36  1  0  0  0  0
 13 14  1  0  0  0  0
 13 18  2  0  0  0  0
 14 15  1  0  0  0  0
 14 16  1  0  0  0  0
 14 17  1  0  0  0  0
 18 19  1  0  0  0  0
 18 37  1  0  0  0  0
 19 23  1  0  0  0  0
 19 20  1  0  0  0  0
 20 21  2  0  0  0  0
 22 38  1  0  0  0  0
 22 39  1  0  0  0  0
M  CHG  1   2   1
M  END
> <s_m_source_file>
AV-unprocessed.smi

> <i_m_source_file_index>
1748

> <i_lp_mmshare_version>
43012

> <i_f3d_flags>
0

> <s_epik_input>
W0NIM11OMVtDSDJdW0NIMl1bQ0gyXVtDQEhdKFtDSDJdMSlbTkhdQyg9TylbTkhdYzJbY0hdYyhDKEYpKEYpRilbY0hdW25IXWMyPU8=

> <s_epik_cmdline>
J2VwaWtfcHl0aG9uJywgJy1waCcsICc3LjAnLCAnLXRuJywgJzgnLCAnLW1hJywgJzIwMCcsICctbWV0YWxfYmluZGluZycsICctaW1hZScsICc8aW5maWxlLm1hZT4nLCAnLW9tYWUnLCAnPG91dGZpbGUubWFlPic=

> <r_lp_tautomer_probability>
1

> <r_epik_Ionization_Penalty>
0.00746315

> <r_epik_Ionization_Penalty_Charging>
0.00744398

> <r_epik_Ionization_Penalty_Neutral>
1.91704e-05

> <r_epik_State_Penalty>
-0

> <r_epik_Charging_Adjusted_Penalty>
0.00744398

> <i_epik_Tot_Q>
1

> <i_epik_Tot_abs_Q>
1

> <r_epik_Metal_State_Penalty>
0.379332

> <b_epik_Metal_Only>
0

> <s_lp_Force_Field>
OPLS_2005

> <r_lp_Energy>
25.304

> <b_lp_Chiralities_Consistent>
1

> <s_lp_Variant>
AV-unprocessed.smi:1748-1

> <Gold.Version>
5.8.1

> <Gold.Id.Protein>
6NUR|6NUR_protein|mol2

> <Gold.PLP.Fitness>
38.5721

> <Gold.PLP.PLP>
-29.6111

> <Gold.PLP.part.hbond>
-2.9626

> <Gold.PLP.part.metal>
0.0000

> <Gold.PLP.part.buried>
-3.1857

> <Gold.PLP.part.nonpolar>
-27.5069

> <Gold.PLP.part.repulsive>
3.3626

> <Gold.PLP.ligand.clash>
0.0000

> <Gold.PLP.ligand.torsion>
0.5977

> <Gold.PLP.Chemscore.Hbond>
2.3747

> <Gold.PLP.Chemscore.CHOScore>
1.0000

> <Gold.PLP.Chemscore.Metal>
0.0000

> <Gold.Chemscore.Hbonds>
donor molecule, donor type, donor heavy atom, donor atom, acceptor molecule, acceptor atom, score
      L1  H     2    40       P1 10186  0.34
      L1  H     7    34       P1  7948  0.85
      L1  H    10    35       P1  7948  0.86

> <Gold.PLP.Chemscore.Internal.Correction>
0.0322

> <Gold.Rescore>
     Score         DG    S(hbond)    S(metal)    S(lipo)     H(rot)  DE(clash)    DE(int)     intcor
     14.36     -17.46       2.18        0.00      62.03       1.00       2.22       0.88       ----

> <Gold.Chemscore.Fitness>
14.3608

> <Gold.Chemscore.DG>
-17.4624

> <Gold.Chemscore.ZeroCoef>
-5.4800

> <Gold.Chemscore.Hbond>
2.1810

> <Gold.Chemscore.Metal>
0.0000

> <Gold.Chemscore.Lipo>
62.0331

> <Gold.Chemscore.Internal_Hbond>
0.0000

> <Gold.Chemscore.DEClash>
2.2245

> <Gold.Chemscore.DEInternal>
0.8772

> <Gold.Chemscore.Rot>
1.0000

> <Gold.Chemscore.Internal.Correction>
   9.000000E+99

> <Gold.Chemscore.Hbonds>
donor molecule, donor type, donor heavy atom, donor atom, acceptor molecule, acceptor atom, score
      L1  H     2    40       P1 10186  0.08
      L1  H     7    34       P1  7948  0.82
      L1  H    10    35       P1  7948  0.84

> <Gold.Chemscore.Hbond.Weighted>
-7.2846

> <Gold.Chemscore.Metal.Weighted>
-0.0000

> <Gold.Chemscore.Lipo.Weighted>
-7.2579

> <Gold.Chemscore.Internal_Hbond.Weighted>
0.0000

> <Gold.Chemscore.DEClash.Weighted>
2.2245

> <Gold.Chemscore.DEInternal.Weighted>
0.8772

> <Gold.Chemscore.Rot.Weighted>
2.5600

> <Gold.Chemscore.Internal.Correction.Weighted>
   9.000000E+99

> <Gold.Protein.RotatedTorsions>
[ 6907 6896 6895 6894 ] final  166.84 input  -60.11 | X-H torsion
[ 7974 7965 7964 7962 ] final -140.71 input  175.53 | X-H torsion
[ 8008 7997 7996 7995 ] final   54.19 input   59.86 | X-H torsion
[ 10167 10162 10161 10158 ] final  -86.86 input  -65.29 | X-H torsion
[ 10718 10713 10712 10709 ] final  -52.98 input   66.30 | X-H torsion
[ 10763 10752 10751 10750 ] final   -0.41 input  -60.55 | X-H torsion
[ 11005 11000 10999 10996 ] final  -82.85 input  -57.11 | X-H torsion

> <Gold.Protein.ActiveResidues>
 VAL166  LYS551  ARG553  GLY616  TRP617  ASP618  TYR619  PRO620  LYS621  CYS622 
 ASP623  PHE694  ASN695  SER759  ASP760  ASP761  ALA762  ILE779  LEU786  VAL792 
 PHE793  MET794  SER795  GLU796  ALA797  LYS798  CYS799  TRP800  GLU811  SER814 

> <Gold.Protein.RotatedAtoms>
  151.8727  133.3479  159.3739 H   0  0  0  0  0  0  0  0  0  0  0  0  # atno 6907 bound_to 6896
  150.7148  134.5097  159.5610 H   0  0  0  0  0  0  0  0  0  0  0  0  # atno 6908 bound_to 6896
  152.2633  134.8012  160.0478 H   0  0  0  0  0  0  0  0  0  0  0  0  # atno 6909 bound_to 6896
  144.8575  140.6167  143.5349 H   0  0  0  0  0  0  0  0  0  0  0  0  # atno 7974 bound_to 7965
  155.4806  140.3468  155.4339 H   0  0  0  0  0  0  0  0  0  0  0  0  # atno 8008 bound_to 7997
  156.1042  140.1443  156.9456 H   0  0  0  0  0  0  0  0  0  0  0  0  # atno 8009 bound_to 7997
  154.4713  140.0900  156.7130 H   0  0  0  0  0  0  0  0  0  0  0  0  # atno 8010 bound_to 7997
  140.3901  143.2709  151.9276 H   0  0  0  0  0  0  0  0  0  0  0  0  # atno 10167 bound_to 10162
  156.1574  130.4150  149.9847 H   0  0  0  0  0  0  0  0  0  0  0  0  # atno 10718 bound_to 10713
  153.3315  135.6975  153.6943 H   0  0  0  0  0  0  0  0  0  0  0  0  # atno 10763 bound_to 10752
  153.5744  135.3510  155.2851 H   0  0  0  0  0  0  0  0  0  0  0  0  # atno 10764 bound_to 10752
  154.8619  135.4280  154.2505 H   0  0  0  0  0  0  0  0  0  0  0  0  # atno 10765 bound_to 10752
  141.1661  133.7265  156.8634 H   0  0  0  0  0  0  0  0  0  0  0  0  # atno 11005 bound_to 11000
  145.4376  139.1540  143.3988 LP  0  0  0  0  0  0  0  0  0  0  0  0  # atno 17320 bound_to 7965
  146.2835  140.4496  142.8767 LP  0  0  0  0  0  0  0  0  0  0  0  0  # atno 17321 bound_to 7965
  139.4789  144.5736  151.8048 LP  0  0  0  0  0  0  0  0  0  0  0  0  # atno 17342 bound_to 10162
  140.4849  144.1396  150.5939 LP  0  0  0  0  0  0  0  0  0  0  0  0  # atno 17343 bound_to 10162
  156.7687  130.9178  151.3643 LP  0  0  0  0  0  0  0  0  0  0  0  0  # atno 17370 bound_to 10713
  157.6706  130.9047  150.0031 LP  0  0  0  0  0  0  0  0  0  0  0  0  # atno 17371 bound_to 10713
  140.1833  134.9018  157.2974 LP  0  0  0  0  0  0  0  0  0  0  0  0  # atno 17394 bound_to 11000
  140.2371  134.3839  155.7496 LP  0  0  0  0  0  0  0  0  0  0  0  0  # atno 17395 bound_to 11000

$$$$
