AV-unprocessed.smi:44|AV-procd|sdf|402|dock1
  -GOLD-   2262016253D 1   1.00000     0.00000
 Structure written by MMmdl.
 29 31  0  0  0  0  0  0  0  0  3 V2000
  153.1629  138.8576  156.8907 O   0  0  0  0  0  0  0  0  0  0  0  0
  152.2878  138.8762  156.0275 C   0  0  0  0  0  0  0  0  0  0  0  0
  152.0431  137.9416  155.0531 N   0  5  0  0  0  0  0  0  0  0  0  0
  151.0079  138.0930  154.1370 C   0  0  0  0  0  0  0  0  0  0  0  0
  150.1709  139.0659  154.0568 N   0  0  0  0  0  0  0  0  0  0  0  0
  150.3410  140.0762  155.0149 C   0  0  0  0  0  0  0  0  0  0  0  0
  151.3313  140.0306  155.9682 C   0  0  0  0  0  0  0  0  0  0  0  0
  151.2584  141.1449  156.7597 N   0  3  0  0  0  0  0  0  0  0  0  0
  150.2258  141.8161  156.2501 C   0  0  0  0  0  0  0  0  0  0  0  0
  149.6122  141.2262  155.1802 N   0  0  0  0  0  0  0  0  0  0  0  0
  148.4418  141.7322  154.4011 C   0  0  2  0  0  0  0  0  0  0  0  0
  147.1872  141.7019  155.2752 C   0  0  0  0  0  0  0  0  0  0  0  0
  146.6178  140.3397  154.9454 C   0  0  0  0  0  0  0  0  0  0  0  0
  146.9482  140.2250  153.4577 C   0  0  2  0  0  0  0  0  0  0  0  0
  147.0116  138.7757  152.9538 C   0  0  0  0  0  0  0  0  0  0  0  0
  147.4864  138.7494  151.6256 O   0  0  0  0  0  0  0  0  0  0  0  0
  148.2235  140.8551  153.3344 O   0  0  0  0  0  0  0  0  0  0  0  0
  151.8463  141.3981  157.5435 H   0  0  0  0  0  0  0  0  0  0  0  0
  148.7353  142.7283  154.0678 H   0  0  0  0  0  0  0  0  0  0  0  0
  146.2141  140.8022  152.8922 H   0  0  0  0  0  0  0  0  0  0  0  0
  150.9576  137.2551  153.4369 H   0  0  0  0  0  0  0  0  0  0  0  0
  149.8967  142.7569  156.6517 H   0  0  0  0  0  0  0  0  0  0  0  0
  147.4154  141.8489  156.3318 H   0  0  0  0  0  0  0  0  0  0  0  0
  146.5110  142.4915  154.9445 H   0  0  0  0  0  0  0  0  0  0  0  0
  147.1285  139.5661  155.5203 H   0  0  0  0  0  0  0  0  0  0  0  0
  145.5494  140.2648  155.1493 H   0  0  0  0  0  0  0  0  0  0  0  0
  147.6403  138.1557  153.5928 H   0  0  0  0  0  0  0  0  0  0  0  0
  146.0139  138.3354  152.9540 H   0  0  0  0  0  0  0  0  0  0  0  0
  148.0970  139.4611  151.5087 H   0  0  0  0  0  0  0  0  0  0  0  0
  1  2  2  0  0  0  0
  2  7  1  0  0  0  0
  2  3  1  0  0  0  0
  3  4  1  0  0  0  0
  4 21  1  0  0  0  0
  4  5  2  0  0  0  0
  5  6  1  0  0  0  0
  6 10  1  0  0  0  0
  6  7  2  0  0  0  0
  7  8  1  0  0  0  0
  8  9  2  0  0  0  0
  8 18  1  0  0  0  0
  9 10  1  0  0  0  0
  9 22  1  0  0  0  0
 10 11  1  0  0  0  0
 11 19  1  0  0  0  0
 11 17  1  0  0  0  0
 11 12  1  0  0  0  0
 12 13  1  0  0  0  0
 12 23  1  0  0  0  0
 12 24  1  0  0  0  0
 13 14  1  0  0  0  0
 13 25  1  0  0  0  0
 13 26  1  0  0  0  0
 14 20  1  0  0  0  0
 14 15  1  0  0  0  0
 14 17  1  0  0  0  0
 15 16  1  0  0  0  0
 15 27  1  0  0  0  0
 15 28  1  0  0  0  0
 16 29  1  0  0  0  0
M  CHG  1   3  -1
M  CHG  1   8   1
M  END
> <s_m_source_file>
AV-unprocessed.smi

> <i_m_source_file_index>
44

> <i_lp_mmshare_version>
43012

> <i_f3d_flags>
0

> <s_epik_input>
bjFbY0hdW25IXWMoPU8pYyhjMTIpbltjSF1uMltDQEhdM1tDSDJdW0NIMl1bQ0BIXShPMylbQ0gyXVtPSF0=

> <s_epik_cmdline>
J2VwaWtfcHl0aG9uJywgJy1waCcsICc3LjAnLCAnLXRuJywgJzgnLCAnLW1hJywgJzIwMCcsICctbWV0YWxfYmluZGluZycsICctaW1hZScsICc8aW5maWxlLm1hZT4nLCAnLW9tYWUnLCAnPG91dGZpbGUubWFlPic=

> <r_lp_tautomer_probability>
0.144281

> <r_epik_Ionization_Penalty>
5.63685

> <r_epik_Ionization_Penalty_Charging>
5.58669

> <r_epik_Ionization_Penalty_Neutral>
0.0501585

> <r_epik_State_Penalty>
1.20809

> <r_epik_Charging_Adjusted_Penalty>
6.79478

> <i_epik_Tot_Q>
0

> <i_epik_Tot_abs_Q>
2

> <r_epik_Metal_State_Penalty>
1.52487

> <b_epik_Metal_Only>
0

> <s_epik_Chemistry_Notes>
This compound contains an acetal/aminal-like group ( X-CH(R)-Y where X, Y are N, S, or O) that may be acid/base labile, releasing an aldehyde.

> <s_lp_Force_Field>
OPLS_2005

> <r_lp_Energy>
43.1819

> <b_lp_Chiralities_Consistent>
1

> <s_lp_Variant>
AV-unprocessed.smi:44-8

> <Gold.Version>
5.8.1

> <Gold.Id.Protein>
6NUR|6NUR_protein|mol2

> <Gold.PLP.Fitness>
42.5012

> <Gold.PLP.PLP>
-28.9634

> <Gold.PLP.part.hbond>
-3.9254

> <Gold.PLP.part.metal>
0.0000

> <Gold.PLP.part.buried>
-3.9273

> <Gold.PLP.part.nonpolar>
-24.6297

> <Gold.PLP.part.repulsive>
3.5104

> <Gold.PLP.ligand.clash>
0.0000

> <Gold.PLP.ligand.torsion>
0.0989

> <Gold.PLP.Chemscore.Hbond>
2.4525

> <Gold.PLP.Chemscore.CHOScore>
2.1208

> <Gold.PLP.Chemscore.Metal>
0.0000

> <Gold.Chemscore.Hbonds>
donor molecule, donor type, donor heavy atom, donor atom, acceptor molecule, acceptor atom, score
      L1  H    16    29       P1  7957  1.00
      P1  H  7954  7966       L1    16  0.41
      P1  H  7997  8009       L1     1  1.00
      L1  C     4    21       P1  7948  0.12
      L1  C     4    21       P1  7949  1.00
      L1  C     9    22       P1  8028  1.00

> <Gold.PLP.Chemscore.Internal.Correction>
0.0157

> <Gold.Rescore>
     Score         DG    S(hbond)    S(metal)    S(lipo)     H(rot)  DE(clash)    DE(int)     intcor
      7.09      -9.06       1.92        0.00      25.37       2.27       0.40       1.58       ----

> <Gold.Chemscore.Fitness>
7.0857

> <Gold.Chemscore.DG>
-9.0597

> <Gold.Chemscore.ZeroCoef>
-5.4800

> <Gold.Chemscore.Hbond>
1.9244

> <Gold.Chemscore.Metal>
0.0000

> <Gold.Chemscore.Lipo>
25.3729

> <Gold.Chemscore.Internal_Hbond>
0.0000

> <Gold.Chemscore.DEClash>
0.3959

> <Gold.Chemscore.DEInternal>
1.5781

> <Gold.Chemscore.Rot>
2.2720

> <Gold.Chemscore.Internal.Correction>
   9.000000E+99

> <Gold.Chemscore.Hbonds>
donor molecule, donor type, donor heavy atom, donor atom, acceptor molecule, acceptor atom, score
      L1  H    16    29       P1  7957  0.92
      P1  H  7954  7966       L1    16  0.01
      P1  H  7997  8009       L1     1  0.82

> <Gold.Chemscore.Hbond.Weighted>
-6.4275

> <Gold.Chemscore.Metal.Weighted>
-0.0000

> <Gold.Chemscore.Lipo.Weighted>
-2.9686

> <Gold.Chemscore.Internal_Hbond.Weighted>
0.0000

> <Gold.Chemscore.DEClash.Weighted>
0.3959

> <Gold.Chemscore.DEInternal.Weighted>
1.5781

> <Gold.Chemscore.Rot.Weighted>
5.8164

> <Gold.Chemscore.Internal.Correction.Weighted>
   9.000000E+99

> <Gold.Protein.RotatedTorsions>
[ 6907 6896 6895 6894 ] final  100.59 input  -60.11 | X-H torsion
[ 7974 7965 7964 7962 ] final   83.81 input  175.53 | X-H torsion
[ 8008 7997 7996 7995 ] final -178.13 input   59.86 | X-H torsion
[ 10167 10162 10161 10158 ] final -122.99 input  -65.29 | X-H torsion
[ 10718 10713 10712 10709 ] final  141.26 input   66.30 | X-H torsion
[ 10763 10752 10751 10750 ] final   61.67 input  -60.55 | X-H torsion
[ 11005 11000 10999 10996 ] final  161.82 input  -57.11 | X-H torsion

> <Gold.Protein.ActiveResidues>
 VAL166  LYS551  ARG553  GLY616  TRP617  ASP618  TYR619  PRO620  LYS621  CYS622 
 ASP623  PHE694  ASN695  SER759  ASP760  ASP761  ALA762  ILE779  LEU786  VAL792 
 PHE793  MET794  SER795  GLU796  ALA797  LYS798  CYS799  TRP800  GLU811  SER814 

> <Gold.Protein.RotatedAtoms>
  152.5369  134.0254  159.8000 H   0  0  0  0  0  0  0  0  0  0  0  0  # atno 6907 bound_to 6896
  151.0434  133.5679  159.2656 H   0  0  0  0  0  0  0  0  0  0  0  0  # atno 6908 bound_to 6896
  151.2640  135.0670  159.9162 H   0  0  0  0  0  0  0  0  0  0  0  0  # atno 6909 bound_to 6896
  145.6070  139.2362  143.2214 H   0  0  0  0  0  0  0  0  0  0  0  0  # atno 7974 bound_to 7965
  156.0152  140.1249  157.0414 H   0  0  0  0  0  0  0  0  0  0  0  0  # atno 8008 bound_to 7997
  154.4290  140.1080  156.5955 H   0  0  0  0  0  0  0  0  0  0  0  0  # atno 8009 bound_to 7997
  155.6024  140.3470  155.4600 H   0  0  0  0  0  0  0  0  0  0  0  0  # atno 8010 bound_to 7997
  140.0084  143.5468  152.2274 H   0  0  0  0  0  0  0  0  0  0  0  0  # atno 10167 bound_to 10162
  157.3940  131.1008  151.0618 H   0  0  0  0  0  0  0  0  0  0  0  0  # atno 10718 bound_to 10713
  152.9958  135.5492  154.6071 H   0  0  0  0  0  0  0  0  0  0  0  0  # atno 10763 bound_to 10752
  154.5400  135.2819  155.1106 H   0  0  0  0  0  0  0  0  0  0  0  0  # atno 10764 bound_to 10752
  154.2387  135.6420  153.5252 H   0  0  0  0  0  0  0  0  0  0  0  0  # atno 10765 bound_to 10752
  140.2196  134.8206  157.3206 H   0  0  0  0  0  0  0  0  0  0  0  0  # atno 11005 bound_to 11000
  146.1533  140.6894  142.9312 LP  0  0  0  0  0  0  0  0  0  0  0  0  # atno 17320 bound_to 7965
  144.7286  140.4601  143.6955 LP  0  0  0  0  0  0  0  0  0  0  0  0  # atno 17321 bound_to 7965
  139.6222  144.7631  151.2715 LP  0  0  0  0  0  0  0  0  0  0  0  0  # atno 17342 bound_to 10162
  140.7391  143.6627  150.8150 LP  0  0  0  0  0  0  0  0  0  0  0  0  # atno 17343 bound_to 10162
  157.1642  130.6239  149.5620 LP  0  0  0  0  0  0  0  0  0  0  0  0  # atno 17370 bound_to 10713
  155.9805  130.4807  150.6779 LP  0  0  0  0  0  0  0  0  0  0  0  0  # atno 17371 bound_to 10713
  140.1864  134.4426  155.7741 LP  0  0  0  0  0  0  0  0  0  0  0  0  # atno 17394 bound_to 11000
  141.2223  133.7007  156.7954 LP  0  0  0  0  0  0  0  0  0  0  0  0  # atno 17395 bound_to 11000

$$$$
