AV-unprocessed.smi:3162|AV-procd|sdf|12066|dock1
  -GOLD-   2272017493D 1   1.00000     0.00000
 Structure written by MMmdl.
 37 37  0  0  0  0  0  0  0  0  2 V2000
  146.7575  136.9097  154.2652 C   0  0  0  0  0  0  0  0  0  0  0  0
  146.6897  138.4415  154.3649 C   0  0  0  0  0  0  0  0  0  0  0  0
  147.2873  139.1906  153.1533 C   0  0  1  0  0  0  0  0  0  0  0  0
  148.7183  138.8357  153.0053 N   0  3  0  0  0  0  0  0  0  0  0  0
  149.5683  139.0376  154.2003 C   0  0  1  0  0  0  0  0  0  0  0  0
  150.9918  138.4941  153.9684 C   0  0  0  0  0  0  0  0  0  0  0  0
  149.5624  140.5328  154.5798 C   0  0  0  0  0  0  0  0  0  0  0  0
  150.3584  140.8248  155.7582 N   0  0  0  0  0  0  0  0  0  0  0  0
  150.5517  142.0371  156.3862 C   0  0  0  0  0  0  0  0  0  0  0  0
  151.3704  141.8189  157.4577 C   0  0  0  0  0  0  0  0  0  0  0  0
  151.8884  142.8101  158.4598 C   0  0  0  0  0  0  0  0  0  0  0  0
  151.6203  140.4181  157.4034 C   0  0  0  0  0  0  0  0  0  0  0  0
  151.0118  139.8261  156.3884 N   0  0  0  0  0  0  0  0  0  0  0  0
  146.5389  138.8587  151.8542 C   0  0  0  0  0  0  0  0  0  0  0  0
  145.2138  139.0272  151.8499 N   0  0  0  0  0  0  0  0  0  0  0  0
  147.1471  138.4478  150.8674 O   0  0  0  0  0  0  0  0  0  0  0  0
  146.2560  136.4467  155.1151 H   0  0  0  0  0  0  0  0  0  0  0  0
  147.7860  136.5488  154.2596 H   0  0  0  0  0  0  0  0  0  0  0  0
  146.2694  136.5525  153.3580 H   0  0  0  0  0  0  0  0  0  0  0  0
  145.6421  138.7239  154.4761 H   0  0  0  0  0  0  0  0  0  0  0  0
  147.1823  138.7642  155.2835 H   0  0  0  0  0  0  0  0  0  0  0  0
  147.1978  140.2645  153.3282 H   0  0  0  0  0  0  0  0  0  0  0  0
  148.7916  137.8754  152.7022 H   0  0  0  0  0  0  0  0  0  0  0  0
  149.1148  138.4851  155.0249 H   0  0  0  0  0  0  0  0  0  0  0  0
  151.6111  138.6050  154.8588 H   0  0  0  0  0  0  0  0  0  0  0  0
  151.4884  139.0205  153.1528 H   0  0  0  0  0  0  0  0  0  0  0  0
  150.9828  137.4324  153.7224 H   0  0  0  0  0  0  0  0  0  0  0  0
  149.9405  141.1342  153.7516 H   0  0  0  0  0  0  0  0  0  0  0  0
  148.5423  140.8709  154.7690 H   0  0  0  0  0  0  0  0  0  0  0  0
  150.0977  142.9470  156.0214 H   0  0  0  0  0  0  0  0  0  0  0  0
  152.2209  142.3232  159.3768 H   0  0  0  0  0  0  0  0  0  0  0  0
  151.1252  143.5359  158.7412 H   0  0  0  0  0  0  0  0  0  0  0  0
  152.7370  143.3709  158.0677 H   0  0  0  0  0  0  0  0  0  0  0  0
  152.2225  139.8172  158.0688 H   0  0  0  0  0  0  0  0  0  0  0  0
  144.6784  138.8285  151.0168 H   0  0  0  0  0  0  0  0  0  0  0  0
  144.7491  139.3610  152.6825 H   0  0  0  0  0  0  0  0  0  0  0  0
  149.0848  139.4251  152.2709 H   0  0  0  0  0  0  0  0  0  0  0  0
  1  2  1  0  0  0  0
  1 17  1  0  0  0  0
  1 18  1  0  0  0  0
  1 19  1  0  0  0  0
  2  3  1  0  0  0  0
  2 20  1  0  0  0  0
  2 21  1  0  0  0  0
  3  4  1  0  0  0  0
  3 14  1  0  0  0  0
  3 22  1  0  0  0  0
  4  5  1  0  0  0  0
  4 23  1  0  0  0  0
  4 37  1  0  0  0  0
  5  6  1  0  0  0  0
  5  7  1  0  0  0  0
  5 24  1  0  0  0  0
  6 25  1  0  0  0  0
  6 26  1  0  0  0  0
  6 27  1  0  0  0  0
  7  8  1  0  0  0  0
  7 28  1  0  0  0  0
  7 29  1  0  0  0  0
  8 13  1  0  0  0  0
  8  9  1  0  0  0  0
  9 10  2  0  0  0  0
  9 30  1  0  0  0  0
 10 11  1  0  0  0  0
 10 12  1  0  0  0  0
 11 31  1  0  0  0  0
 11 32  1  0  0  0  0
 11 33  1  0  0  0  0
 12 13  2  0  0  0  0
 12 34  1  0  0  0  0
 14 15  1  0  0  0  0
 14 16  2  0  0  0  0
 15 35  1  0  0  0  0
 15 36  1  0  0  0  0
M  CHG  1   4   1
M  END
> <s_m_source_file>
AV-unprocessed.smi

> <i_m_source_file_index>
3162

> <i_lp_mmshare_version>
43012

> <i_f3d_flags>
0

> <s_epik_input>
W0NIM11bQ0gyXVtDQEBIXShDKD1PKVtOSDJdKVtOSF1bQ0BIXShbQ0gzXSlbQ0gyXW4xW2NIXWMoW0NIM10pW2NIXW4x

> <s_epik_cmdline>
J2VwaWtfcHl0aG9uJywgJy1waCcsICc3LjAnLCAnLXRuJywgJzgnLCAnLW1hJywgJzIwMCcsICctbWV0YWxfYmluZGluZycsICctaW1hZScsICc8aW5maWxlLm1hZT4nLCAnLW9tYWUnLCAnPG91dGZpbGUubWFlPic=

> <r_lp_tautomer_probability>
1

> <r_epik_Ionization_Penalty>
0.112112

> <r_epik_Ionization_Penalty_Charging>
0.112102

> <r_epik_Ionization_Penalty_Neutral>
9.73799e-06

> <r_epik_State_Penalty>
0.101811

> <r_epik_Charging_Adjusted_Penalty>
0.213914

> <i_epik_Tot_Q>
1

> <i_epik_Tot_abs_Q>
1

> <r_epik_Metal_State_Penalty>
0.101821

> <b_epik_Metal_Only>
0

> <s_lp_Force_Field>
OPLS_2005

> <r_lp_Energy>
5.38077

> <b_lp_Chiralities_Consistent>
1

> <s_lp_Variant>
AV-unprocessed.smi:3162-4

> <Gold.Version>
5.8.1

> <Gold.Id.Protein>
6NUR|6NUR_protein|mol2

> <Gold.PLP.Fitness>
47.6006

> <Gold.PLP.PLP>
-28.9104

> <Gold.PLP.part.hbond>
-4.3850

> <Gold.PLP.part.metal>
0.0000

> <Gold.PLP.part.buried>
-5.2734

> <Gold.PLP.part.nonpolar>
-23.5203

> <Gold.PLP.part.repulsive>
3.1941

> <Gold.PLP.ligand.clash>
0.0000

> <Gold.PLP.ligand.torsion>
0.0850

> <Gold.PLP.Chemscore.Hbond>
5.2720

> <Gold.PLP.Chemscore.CHOScore>
1.0000

> <Gold.PLP.Chemscore.Metal>
0.0000

> <Gold.Chemscore.Hbonds>
donor molecule, donor type, donor heavy atom, donor atom, acceptor molecule, acceptor atom, score
      L1  H     4    23       P1  7948  2.00
      L1  H     4    37       P1  7957  0.59
      L1  H    15    35       P1 10171  0.81
      L1  H    15    36       P1 10175  0.30
      P1  H  7954  7966       L1    16  0.98
      L1  C     9    30       P1  8028  1.00

> <Gold.PLP.Chemscore.Internal.Correction>
0.0441

> <Gold.Rescore>
     Score         DG    S(hbond)    S(metal)    S(lipo)     H(rot)  DE(clash)    DE(int)     intcor
     17.60     -20.95       4.43        0.00      60.61       2.51       1.85       1.50       ----

> <Gold.Chemscore.Fitness>
17.6029

> <Gold.Chemscore.DG>
-20.9531

> <Gold.Chemscore.ZeroCoef>
-5.4800

> <Gold.Chemscore.Hbond>
4.4303

> <Gold.Chemscore.Metal>
0.0000

> <Gold.Chemscore.Lipo>
60.6149

> <Gold.Chemscore.Internal_Hbond>
0.0000

> <Gold.Chemscore.DEClash>
1.8468

> <Gold.Chemscore.DEInternal>
1.5034

> <Gold.Chemscore.Rot>
2.5062

> <Gold.Chemscore.Internal.Correction>
   9.000000E+99

> <Gold.Chemscore.Hbonds>
donor molecule, donor type, donor heavy atom, donor atom, acceptor molecule, acceptor atom, score
      L1  H     4    23       P1  7948  1.00
      L1  H     4    37       P1  7957  0.58
      L1  H    15    35       P1 10171  0.80
      L1  H    15    36       P1 10175  0.29
      P1  H  7954  7966       L1    16  0.88

> <Gold.Chemscore.Hbond.Weighted>
-14.7970

> <Gold.Chemscore.Metal.Weighted>
-0.0000

> <Gold.Chemscore.Lipo.Weighted>
-7.0919

> <Gold.Chemscore.Internal_Hbond.Weighted>
0.0000

> <Gold.Chemscore.DEClash.Weighted>
1.8468

> <Gold.Chemscore.DEInternal.Weighted>
1.5034

> <Gold.Chemscore.Rot.Weighted>
6.4159

> <Gold.Chemscore.Internal.Correction.Weighted>
   9.000000E+99

> <Gold.Protein.RotatedTorsions>
[ 6907 6896 6895 6894 ] final  -27.02 input  -60.11 | X-H torsion
[ 7974 7965 7964 7962 ] final   33.08 input  175.53 | X-H torsion
[ 8008 7997 7996 7995 ] final   76.59 input   59.86 | X-H torsion
[ 10167 10162 10161 10158 ] final  161.65 input  -65.29 | X-H torsion
[ 10718 10713 10712 10709 ] final  155.90 input   66.30 | X-H torsion
[ 10763 10752 10751 10750 ] final   81.74 input  -60.55 | X-H torsion
[ 11005 11000 10999 10996 ] final   74.08 input  -57.11 | X-H torsion

> <Gold.Protein.ActiveResidues>
 VAL166  LYS551  ARG553  GLY616  TRP617  ASP618  TYR619  PRO620  LYS621  CYS622 
 ASP623  PHE694  ASN695  SER759  ASP760  ASP761  ALA762  ILE779  LEU786  VAL792 
 PHE793  MET794  SER795  GLU796  ALA797  LYS798  CYS799  TRP800  GLU811  SER814 

> <Gold.Protein.RotatedAtoms>
  151.1527  135.0235  159.8675 H   0  0  0  0  0  0  0  0  0  0  0  0  # atno 6907 bound_to 6896
  152.5452  134.1369  159.8473 H   0  0  0  0  0  0  0  0  0  0  0  0  # atno 6908 bound_to 6896
  151.1456  133.4896  159.2628 H   0  0  0  0  0  0  0  0  0  0  0  0  # atno 6909 bound_to 6896
  146.1444  139.6443  142.9141 H   0  0  0  0  0  0  0  0  0  0  0  0  # atno 7974 bound_to 7965
  155.8294  140.3467  155.5563 H   0  0  0  0  0  0  0  0  0  0  0  0  # atno 8008 bound_to 7997
  155.8258  140.0919  157.1842 H   0  0  0  0  0  0  0  0  0  0  0  0  # atno 8009 bound_to 7997
  154.4004  140.1421  156.3541 H   0  0  0  0  0  0  0  0  0  0  0  0  # atno 8010 bound_to 7997
  139.4851  144.4515  151.8823 H   0  0  0  0  0  0  0  0  0  0  0  0  # atno 10167 bound_to 10162
  157.2121  131.0700  151.1963 H   0  0  0  0  0  0  0  0  0  0  0  0  # atno 10718 bound_to 10713
  153.1142  135.4754  154.9088 H   0  0  0  0  0  0  0  0  0  0  0  0  # atno 10763 bound_to 10752
  154.7512  135.3106  154.8557 H   0  0  0  0  0  0  0  0  0  0  0  0  # atno 10764 bound_to 10752
  153.9137  135.6862  153.4803 H   0  0  0  0  0  0  0  0  0  0  0  0  # atno 10765 bound_to 10752
  139.9408  134.7402  156.1104 H   0  0  0  0  0  0  0  0  0  0  0  0  # atno 11005 bound_to 11000
  145.4971  141.0438  143.2561 LP  0  0  0  0  0  0  0  0  0  0  0  0  # atno 17320 bound_to 7965
  144.7830  139.6487  143.7146 LP  0  0  0  0  0  0  0  0  0  0  0  0  # atno 17321 bound_to 7965
  140.3972  144.2539  150.5895 LP  0  0  0  0  0  0  0  0  0  0  0  0  # atno 17342 bound_to 10162
  140.5091  143.2296  151.8563 LP  0  0  0  0  0  0  0  0  0  0  0  0  # atno 17343 bound_to 10162
  157.3661  130.7157  149.6534 LP  0  0  0  0  0  0  0  0  0  0  0  0  # atno 17370 bound_to 10713
  155.9689  130.4212  150.4457 LP  0  0  0  0  0  0  0  0  0  0  0  0  # atno 17371 bound_to 10713
  141.1042  133.6666  156.2824 LP  0  0  0  0  0  0  0  0  0  0  0  0  # atno 17394 bound_to 11000
  140.5956  134.5606  157.5508 LP  0  0  0  0  0  0  0  0  0  0  0  0  # atno 17395 bound_to 11000

$$$$
