AV-unprocessed.smi:1484|AV-procd|sdf|5995|dock9
  -GOLD-   22720 6 93D 1   1.00000     0.00000
 Structure written by MMmdl.
 37 38  0  0  0  0  0  0  0  0  2 V2000
  153.1805  142.2068  161.5061 C   0  0  0  0  0  0  0  0  0  0  0  0
  152.8540  143.2066  160.3874 C   0  0  2  0  0  0  0  0  0  0  0  0
  151.8960  144.3085  160.8782 C   0  0  0  0  0  0  0  0  0  0  0  0
  151.5723  145.3100  159.7589 C   0  0  0  0  0  0  0  0  0  0  0  0
  150.9932  144.5985  158.5265 C   0  0  0  0  0  0  0  0  0  0  0  0
  151.9394  143.4950  158.0192 C   0  0  2  0  0  0  0  0  0  0  0  0
  151.3237  142.8081  156.8880 N   0  0  0  0  0  0  0  0  0  0  0  0
  150.2468  142.0102  156.9540 C   0  0  0  0  0  0  0  0  0  0  0  0
  149.6495  141.7735  158.0055 O   0  0  0  0  0  0  0  0  0  0  0  0
  149.7879  141.4052  155.6174 C   0  0  0  0  0  0  0  0  0  0  0  0
  150.4120  140.1144  155.2916 N   0  0  0  0  0  0  0  0  0  0  0  0
  151.8604  140.1867  155.1183 N   0  5  0  0  0  0  0  0  0  0  0  0
  152.5463  139.0583  154.7955 C   0  0  0  0  0  0  0  0  0  0  0  0
  153.7620  139.0456  154.6170 O   0  0  0  0  0  0  0  0  0  0  0  0
  151.7998  137.8183  154.6626 C   0  0  0  0  0  0  0  0  0  0  0  0
  150.4660  137.7765  154.8509 C   0  0  0  0  0  0  0  0  0  0  0  0
  149.6893  138.9621  155.1924 C   0  0  0  0  0  0  0  0  0  0  0  0
  148.4722  138.9290  155.3752 O   0  0  0  0  0  0  0  0  0  0  0  0
  152.2714  142.4975  159.1491 C   0  0  0  0  0  0  0  0  0  0  0  0
  152.2841  141.6901  161.8506 H   0  0  0  0  0  0  0  0  0  0  0  0
  153.6259  142.7101  162.3646 H   0  0  0  0  0  0  0  0  0  0  0  0
  153.8889  141.4522  161.1633 H   0  0  0  0  0  0  0  0  0  0  0  0
  153.7897  143.6826  160.0906 H   0  0  0  0  0  0  0  0  0  0  0  0
  150.9710  143.8584  161.2417 H   0  0  0  0  0  0  0  0  0  0  0  0
  152.3357  144.8368  161.7249 H   0  0  0  0  0  0  0  0  0  0  0  0
  150.8665  146.0577  160.1218 H   0  0  0  0  0  0  0  0  0  0  0  0
  152.4774  145.8500  159.4779 H   0  0  0  0  0  0  0  0  0  0  0  0
  150.0244  144.1664  158.7820 H   0  0  0  0  0  0  0  0  0  0  0  0
  150.8085  145.3263  157.7355 H   0  0  0  0  0  0  0  0  0  0  0  0
  152.8641  143.9691  157.6839 H   0  0  0  0  0  0  0  0  0  0  0  0
  151.7484  142.9499  155.9833 H   0  0  0  0  0  0  0  0  0  0  0  0
  148.7016  141.3019  155.6473 H   0  0  0  0  0  0  0  0  0  0  0  0
  149.9898  142.1210  154.8185 H   0  0  0  0  0  0  0  0  0  0  0  0
  152.3268  136.9102  154.4093 H   0  0  0  0  0  0  0  0  0  0  0  0
  149.9521  136.8331  154.7424 H   0  0  0  0  0  0  0  0  0  0  0  0
  152.9814  141.7521  158.7882 H   0  0  0  0  0  0  0  0  0  0  0  0
  151.3702  141.9510  159.4319 H   0  0  0  0  0  0  0  0  0  0  0  0
  1  2  1  0  0  0  0
  1 20  1  0  0  0  0
  1 21  1  0  0  0  0
  1 22  1  0  0  0  0
  2 19  1  0  0  0  0
  2  3  1  0  0  0  0
  2 23  1  0  0  0  0
  3  4  1  0  0  0  0
  3 24  1  0  0  0  0
  3 25  1  0  0  0  0
  4  5  1  0  0  0  0
  4 26  1  0  0  0  0
  4 27  1  0  0  0  0
  5  6  1  0  0  0  0
  5 28  1  0  0  0  0
  5 29  1  0  0  0  0
  6  7  1  0  0  0  0
  6 19  1  0  0  0  0
  6 30  1  0  0  0  0
  7  8  1  0  0  0  0
  7 31  1  0  0  0  0
  8  9  2  0  0  0  0
  8 10  1  0  0  0  0
 10 32  1  0  0  0  0
 10 33  1  0  0  0  0
 10 11  1  0  0  0  0
 11 12  1  0  0  0  0
 11 17  1  0  0  0  0
 12 13  1  0  0  0  0
 13 14  2  0  0  0  0
 13 15  1  0  0  0  0
 15 34  1  0  0  0  0
 15 16  2  0  0  0  0
 16 35  1  0  0  0  0
 16 17  1  0  0  0  0
 17 18  2  0  0  0  0
 19 36  1  0  0  0  0
 19 37  1  0  0  0  0
M  CHG  1  12  -1
M  END
> <s_m_source_file>
AV-unprocessed.smi

> <i_m_source_file_index>
1484

> <i_lp_mmshare_version>
43012

> <i_f3d_flags>
0

> <s_epik_input>
W0NIM11bQ0BASF0xW0NIMl1bQ0gyXVtDSDJdW0NASF0oW0NIMl0xKVtOSF1DKD1PKVtDSDJdbjJbbkhdYyg9TylbY0hdW2NIXWMyPU8=

> <s_epik_cmdline>
J2VwaWtfcHl0aG9uJywgJy1waCcsICc3LjAnLCAnLXRuJywgJzgnLCAnLW1hJywgJzIwMCcsICctbWV0YWxfYmluZGluZycsICctaW1hZScsICc8aW5maWxlLm1hZT4nLCAnLW9tYWUnLCAnPG91dGZpbGUubWFlPic=

> <r_lp_tautomer_probability>
1

> <r_epik_Ionization_Penalty>
0.101352

> <r_epik_Ionization_Penalty_Charging>
0.101352

> <r_epik_Ionization_Penalty_Neutral>
1.90469e-08

> <r_epik_State_Penalty>
0.0358555

> <r_epik_Charging_Adjusted_Penalty>
0.137208

> <i_epik_Tot_Q>
-1

> <i_epik_Tot_abs_Q>
1

> <r_epik_Metal_State_Penalty>
0.0358555

> <b_epik_Metal_Only>
0

> <s_lp_Force_Field>
OPLS_2005

> <r_lp_Energy>
24.7991

> <b_lp_Chiralities_Consistent>
1

> <s_lp_Variant>
AV-unprocessed.smi:1484-3

> <Gold.Version>
5.8.1

> <Gold.Id.Protein>
6NUR|6NUR_protein|mol2

> <Gold.PLP.Fitness>
48.3951

> <Gold.PLP.PLP>
-44.7265

> <Gold.PLP.part.hbond>
-2.0328

> <Gold.PLP.part.metal>
0.0000

> <Gold.PLP.part.buried>
-4.8597

> <Gold.PLP.part.nonpolar>
-38.7999

> <Gold.PLP.part.repulsive>
0.2306

> <Gold.PLP.ligand.clash>
0.0000

> <Gold.PLP.ligand.torsion>
0.4460

> <Gold.PLP.Chemscore.Hbond>
1.5184

> <Gold.PLP.Chemscore.CHOScore>
0.0000

> <Gold.PLP.Chemscore.Metal>
0.0000

> <Gold.Chemscore.Hbonds>
donor molecule, donor type, donor heavy atom, donor atom, acceptor molecule, acceptor atom, score
      P1  H  7989  7998       L1    12  0.44
      P1  H  7997  8010       L1    14  1.00

> <Gold.PLP.Chemscore.Internal.Correction>
0.0054

> <Gold.Rescore>
     Score         DG    S(hbond)    S(metal)    S(lipo)     H(rot)  DE(clash)    DE(int)     intcor
     14.83     -16.43       0.94        0.00     102.94       1.65       0.02       1.58       ----

> <Gold.Chemscore.Fitness>
14.8268

> <Gold.Chemscore.DG>
-16.4289

> <Gold.Chemscore.ZeroCoef>
-5.4800

> <Gold.Chemscore.Hbond>
0.9405

> <Gold.Chemscore.Metal>
0.0000

> <Gold.Chemscore.Lipo>
102.9417

> <Gold.Chemscore.Internal_Hbond>
0.0000

> <Gold.Chemscore.DEClash>
0.0179

> <Gold.Chemscore.DEInternal>
1.5842

> <Gold.Chemscore.Rot>
1.6549

> <Gold.Chemscore.Internal.Correction>
   9.000000E+99

> <Gold.Chemscore.Hbonds>
donor molecule, donor type, donor heavy atom, donor atom, acceptor molecule, acceptor atom, score
      P1  H  7989  7998       L1    12  0.01
      P1  H  7997  8010       L1    14  0.90

> <Gold.Chemscore.Hbond.Weighted>
-3.1411

> <Gold.Chemscore.Metal.Weighted>
-0.0000

> <Gold.Chemscore.Lipo.Weighted>
-12.0442

> <Gold.Chemscore.Internal_Hbond.Weighted>
0.0000

> <Gold.Chemscore.DEClash.Weighted>
0.0179

> <Gold.Chemscore.DEInternal.Weighted>
1.5842

> <Gold.Chemscore.Rot.Weighted>
4.2364

> <Gold.Chemscore.Internal.Correction.Weighted>
   9.000000E+99

> <Gold.Protein.RotatedTorsions>
[ 6907 6896 6895 6894 ] final  -94.00 input  -60.11 | X-H torsion
[ 7974 7965 7964 7962 ] final  -29.38 input  175.53 | X-H torsion
[ 8008 7997 7996 7995 ] final  129.61 input   59.86 | X-H torsion
[ 10167 10162 10161 10158 ] final  -16.52 input  -65.29 | X-H torsion
[ 10718 10713 10712 10709 ] final  -90.03 input   66.30 | X-H torsion
[ 10763 10752 10751 10750 ] final   22.95 input  -60.55 | X-H torsion
[ 11005 11000 10999 10996 ] final    4.78 input  -57.11 | X-H torsion

> <Gold.Protein.ActiveResidues>
 VAL166  LYS551  ARG553  GLY616  TRP617  ASP618  TYR619  PRO620  LYS621  CYS622 
 ASP623  PHE694  ASN695  SER759  ASP760  ASP761  ALA762  ILE779  LEU786  VAL792 
 PHE793  MET794  SER795  GLU796  ALA797  LYS798  CYS799  TRP800  GLU811  SER814 

> <Gold.Protein.RotatedAtoms>
  150.6933  134.1881  159.4274 H   0  0  0  0  0  0  0  0  0  0  0  0  # atno 6907 bound_to 6896
  151.9853  135.0005  160.0568 H   0  0  0  0  0  0  0  0  0  0  0  0  # atno 6908 bound_to 6896
  152.1718  133.4613  159.4950 H   0  0  0  0  0  0  0  0  0  0  0  0  # atno 6909 bound_to 6896
  146.1220  140.5405  142.8731 H   0  0  0  0  0  0  0  0  0  0  0  0  # atno 7974 bound_to 7965
  156.2939  140.2616  156.2626 H   0  0  0  0  0  0  0  0  0  0  0  0  # atno 8008 bound_to 7997
  154.9773  140.0390  157.2280 H   0  0  0  0  0  0  0  0  0  0  0  0  # atno 8009 bound_to 7997
  154.7804  140.2794  155.6073 H   0  0  0  0  0  0  0  0  0  0  0  0  # atno 8010 bound_to 7997
  140.7235  143.5108  150.9752 H   0  0  0  0  0  0  0  0  0  0  0  0  # atno 10167 bound_to 10162
  155.9986  130.4894  150.5260 H   0  0  0  0  0  0  0  0  0  0  0  0  # atno 10718 bound_to 10713
  153.0875  135.6637  153.9919 H   0  0  0  0  0  0  0  0  0  0  0  0  # atno 10763 bound_to 10752
  153.9524  135.2982  155.3439 H   0  0  0  0  0  0  0  0  0  0  0  0  # atno 10764 bound_to 10752
  154.7286  135.5133  153.8999 H   0  0  0  0  0  0  0  0  0  0  0  0  # atno 10765 bound_to 10752
  140.5781  134.0039  155.8036 H   0  0  0  0  0  0  0  0  0  0  0  0  # atno 11005 bound_to 11000
  144.7606  140.5413  143.6738 LP  0  0  0  0  0  0  0  0  0  0  0  0  # atno 17320 bound_to 7965
  145.5445  139.1475  143.3428 LP  0  0  0  0  0  0  0  0  0  0  0  0  # atno 17321 bound_to 7965
  139.8822  143.7058  152.3155 LP  0  0  0  0  0  0  0  0  0  0  0  0  # atno 17342 bound_to 10162
  139.7344  144.7575  151.0751 LP  0  0  0  0  0  0  0  0  0  0  0  0  # atno 17343 bound_to 10162
  157.3216  131.0683  151.1928 LP  0  0  0  0  0  0  0  0  0  0  0  0  # atno 17370 bound_to 10713
  157.2839  130.6763  149.6080 LP  0  0  0  0  0  0  0  0  0  0  0  0  # atno 17371 bound_to 10713
  141.1014  133.9763  157.3073 LP  0  0  0  0  0  0  0  0  0  0  0  0  # atno 17394 bound_to 11000
  139.9330  135.0198  156.8463 LP  0  0  0  0  0  0  0  0  0  0  0  0  # atno 17395 bound_to 11000

$$$$
