AV-unprocessed.smi:72|AV-procd|sdf|734|dock5
  -GOLD-   2262017 63D 1   1.00000     0.00000
 Structure written by MMmdl.
 28 29  0  0  0  0  0  0  0  0  2 V2000
  154.1538  137.7349  155.5746 N   0  0  0  0  0  0  0  0  0  0  0  0
  153.0282  138.2346  155.3034 C   0  0  0  0  0  0  0  0  0  0  0  0
  152.1390  137.5585  154.3836 N   0  0  0  0  0  0  0  0  0  0  0  0
  150.9973  138.1185  154.1240 C   0  0  0  0  0  0  0  0  0  0  0  0
  150.6143  139.3915  154.7193 N   0  0  0  0  0  0  0  0  0  0  0  0
  149.2752  140.0327  154.4152 C   0  0  1  0  0  0  0  0  0  0  0  0
  148.7213  139.4326  153.2870 O   0  0  0  0  0  0  0  0  0  0  0  0
  147.3114  139.5683  153.3607 C   0  0  1  0  0  0  0  0  0  0  0  0
  146.6350  138.5560  152.4234 C   0  0  0  0  0  0  0  0  0  0  0  0
  147.0672  138.7577  151.0948 O   0  0  0  0  0  0  0  0  0  0  0  0
  147.0267  139.3120  154.8460 C   0  0  2  0  0  0  0  0  0  0  0  0
  145.8467  139.9855  155.2378 O   0  0  0  0  0  0  0  0  0  0  0  0
  148.2458  139.8948  155.5596 C   0  0  1  0  0  0  0  0  0  0  0  0
  148.6556  139.0436  156.6148 O   0  0  0  0  0  0  0  0  0  0  0  0
  151.4932  140.0185  155.6409 C   0  0  0  0  0  0  0  0  0  0  0  0
  151.1284  141.0701  156.1672 O   0  0  0  0  0  0  0  0  0  0  0  0
  152.6891  139.4244  155.9103 N   0  5  0  0  0  0  0  0  0  0  0  0
  149.4814  141.0732  154.1582 H   0  0  0  0  0  0  0  0  0  0  0  0
  147.0396  140.5936  153.0997 H   0  0  0  0  0  0  0  0  0  0  0  0
  146.9377  138.2403  155.0347 H   0  0  0  0  0  0  0  0  0  0  0  0
  148.0542  140.8934  155.9553 H   0  0  0  0  0  0  0  0  0  0  0  0
  154.3230  136.8660  155.0894 H   0  0  0  0  0  0  0  0  0  0  0  0
  150.2584  137.6739  153.4564 H   0  0  0  0  0  0  0  0  0  0  0  0
  146.8323  137.5306  152.7380 H   0  0  0  0  0  0  0  0  0  0  0  0
  145.5538  138.6967  152.4381 H   0  0  0  0  0  0  0  0  0  0  0  0
  147.7194  139.4415  151.0915 H   0  0  0  0  0  0  0  0  0  0  0  0
  145.6347  139.7270  156.1217 H   0  0  0  0  0  0  0  0  0  0  0  0
  149.5725  139.2007  156.7851 H   0  0  0  0  0  0  0  0  0  0  0  0
  1  2  2  0  0  0  0
  1 22  1  0  0  0  0
  2 17  1  0  0  0  0
  2  3  1  0  0  0  0
  3  4  2  0  0  0  0
  4  5  1  0  0  0  0
  4 23  1  0  0  0  0
  5  6  1  0  0  0  0
  5 15  1  0  0  0  0
  6 18  1  0  0  0  0
  6 13  1  0  0  0  0
  6  7  1  0  0  0  0
  7  8  1  0  0  0  0
  8 19  1  0  0  0  0
  8  9  1  0  0  0  0
  8 11  1  0  0  0  0
  9 10  1  0  0  0  0
  9 24  1  0  0  0  0
  9 25  1  0  0  0  0
 10 26  1  0  0  0  0
 11 20  1  0  0  0  0
 11 12  1  0  0  0  0
 11 13  1  0  0  0  0
 12 27  1  0  0  0  0
 13 21  1  0  0  0  0
 13 14  1  0  0  0  0
 14 28  1  0  0  0  0
 15 16  2  0  0  0  0
 15 17  1  0  0  0  0
M  CHG  1  17  -1
M  END
> <s_m_source_file>
AV-unprocessed.smi

> <i_m_source_file_index>
72

> <i_lp_mmshare_version>
43012

> <i_f3d_flags>
0

> <s_epik_input>
W05IMl1jMW5bY0hdbihjKD1PKW4xKVtDQEBIXTJPW0NASF0oW0NIMl1bT0hdKVtDQEBIXShbT0hdKVtDQEhdMltPSF0=

> <s_epik_cmdline>
J2VwaWtfcHl0aG9uJywgJy1waCcsICc3LjAnLCAnLXRuJywgJzgnLCAnLW1hJywgJzIwMCcsICctbWV0YWxfYmluZGluZycsICctaW1hZScsICc8aW5maWxlLm1hZT4nLCAnLW9tYWUnLCAnPG91dGZpbGUubWFlPic=

> <r_lp_tautomer_probability>
7.17554e-07

> <r_epik_Ionization_Penalty>
12.8705

> <r_epik_Ionization_Penalty_Charging>
5.64144

> <r_epik_Ionization_Penalty_Neutral>
7.22905

> <r_epik_State_Penalty>
3.30104

> <r_epik_Charging_Adjusted_Penalty>
8.94249

> <i_epik_Tot_Q>
-1

> <i_epik_Tot_abs_Q>
1

> <r_epik_Metal_State_Penalty>
0.529074

> <b_epik_Metal_Only>
1

> <s_epik_Chemistry_Notes>
This compound contains an acetal/aminal-like group ( X-CH(R)-Y where X, Y are N, S, or O) that may be acid/base labile, releasing an aldehyde.

> <s_lp_Force_Field>
OPLS_2005

> <r_lp_Energy>
37.9918

> <b_lp_Chiralities_Consistent>
1

> <s_lp_Variant>
AV-unprocessed.smi:72-72

> <Gold.Version>
5.8.1

> <Gold.Id.Protein>
6NUR|6NUR_protein|mol2

> <Gold.PLP.Fitness>
40.0286

> <Gold.PLP.PLP>
-25.1794

> <Gold.PLP.part.hbond>
-6.4254

> <Gold.PLP.part.metal>
0.0000

> <Gold.PLP.part.buried>
-3.1177

> <Gold.PLP.part.nonpolar>
-19.3068

> <Gold.PLP.part.repulsive>
4.9810

> <Gold.PLP.ligand.clash>
0.0000

> <Gold.PLP.ligand.torsion>
0.3708

> <Gold.PLP.Chemscore.Hbond>
4.0523

> <Gold.PLP.Chemscore.CHOScore>
1.0835

> <Gold.PLP.Chemscore.Metal>
0.0000

> <Gold.Chemscore.Hbonds>
donor molecule, donor type, donor heavy atom, donor atom, acceptor molecule, acceptor atom, score
      L1  H    10    26       P1  7957  1.00
      P1  H  7954  7966       L1    10  0.28
      P1  H  7997  8010       L1    17  2.00
      P1  H 10752 10765       L1     3  0.78
      L1  C     4    23       P1  7948  0.96
      L1  C     4    23       P1  7949  0.12

> <Gold.PLP.Chemscore.Internal.Correction>
0.1833

> <Gold.Rescore>
     Score         DG    S(hbond)    S(metal)    S(lipo)     H(rot)  DE(clash)    DE(int)     intcor
      2.33      -4.19       2.05        0.00      18.98       4.04       1.53       0.34       ----

> <Gold.Chemscore.Fitness>
2.3290

> <Gold.Chemscore.DG>
-4.1950

> <Gold.Chemscore.ZeroCoef>
-5.4800

> <Gold.Chemscore.Hbond>
2.0471

> <Gold.Chemscore.Metal>
0.0000

> <Gold.Chemscore.Lipo>
18.9805

> <Gold.Chemscore.Internal_Hbond>
0.0000

> <Gold.Chemscore.DEClash>
1.5261

> <Gold.Chemscore.DEInternal>
0.3399

> <Gold.Chemscore.Rot>
4.0403

> <Gold.Chemscore.Internal.Correction>
   9.000000E+99

> <Gold.Chemscore.Hbonds>
donor molecule, donor type, donor heavy atom, donor atom, acceptor molecule, acceptor atom, score
      L1  H    10    26       P1  7957  0.74
      P1  H  7997  8010       L1    17  0.30
      P1  H 10752 10765       L1     3  0.26

> <Gold.Chemscore.Hbond.Weighted>
-6.8374

> <Gold.Chemscore.Metal.Weighted>
-0.0000

> <Gold.Chemscore.Lipo.Weighted>
-2.2207

> <Gold.Chemscore.Internal_Hbond.Weighted>
0.0000

> <Gold.Chemscore.DEClash.Weighted>
1.5261

> <Gold.Chemscore.DEInternal.Weighted>
0.3399

> <Gold.Chemscore.Rot.Weighted>
10.3431

> <Gold.Chemscore.Internal.Correction.Weighted>
   9.000000E+99

> <Gold.Protein.RotatedTorsions>
[ 6907 6896 6895 6894 ] final -143.71 input  -60.11 | X-H torsion
[ 7974 7965 7964 7962 ] final   41.29 input  175.53 | X-H torsion
[ 8008 7997 7996 7995 ] final   82.92 input   59.86 | X-H torsion
[ 10167 10162 10161 10158 ] final   12.21 input  -65.29 | X-H torsion
[ 10718 10713 10712 10709 ] final  -27.67 input   66.30 | X-H torsion
[ 10763 10752 10751 10750 ] final  159.67 input  -60.55 | X-H torsion
[ 11005 11000 10999 10996 ] final   98.43 input  -57.11 | X-H torsion

> <Gold.Protein.ActiveResidues>
 VAL166  LYS551  ARG553  GLY616  TRP617  ASP618  TYR619  PRO620  LYS621  CYS622 
 ASP623  PHE694  ASN695  SER759  ASP760  ASP761  ALA762  ILE779  LEU786  VAL792 
 PHE793  MET794  SER795  GLU796  ALA797  LYS798  CYS799  TRP800  GLU811  SER814 

> <Gold.Protein.RotatedAtoms>
  151.1042  133.5221  159.2608 H   0  0  0  0  0  0  0  0  0  0  0  0  # atno 6907 bound_to 6896
  151.2040  135.0453  159.8894 H   0  0  0  0  0  0  0  0  0  0  0  0  # atno 6908 bound_to 6896
  152.5445  134.0866  159.8312 H   0  0  0  0  0  0  0  0  0  0  0  0  # atno 6909 bound_to 6896
  146.0835  139.5433  142.9521 H   0  0  0  0  0  0  0  0  0  0  0  0  # atno 7974 bound_to 7965
  155.9170  140.3424  155.6143 H   0  0  0  0  0  0  0  0  0  0  0  0  # atno 8008 bound_to 7997
  155.7319  140.0796  157.2303 H   0  0  0  0  0  0  0  0  0  0  0  0  # atno 8009 bound_to 7997
  154.4064  140.1586  156.2506 H   0  0  0  0  0  0  0  0  0  0  0  0  # atno 8010 bound_to 7997
  140.6083  143.8462  150.7037 H   0  0  0  0  0  0  0  0  0  0  0  0  # atno 10167 bound_to 10162
  156.4352  130.4453  149.7090 H   0  0  0  0  0  0  0  0  0  0  0  0  # atno 10718 bound_to 10713
  154.2355  135.2776  155.2874 H   0  0  0  0  0  0  0  0  0  0  0  0  # atno 10763 bound_to 10752
  154.5589  135.5653  153.6992 H   0  0  0  0  0  0  0  0  0  0  0  0  # atno 10764 bound_to 10752
  153.0011  135.6293  154.2498 H   0  0  0  0  0  0  0  0  0  0  0  0  # atno 10765 bound_to 10752
  139.8772  134.9049  156.4456 H   0  0  0  0  0  0  0  0  0  0  0  0  # atno 11005 bound_to 11000
  145.6173  141.0329  143.1934 LP  0  0  0  0  0  0  0  0  0  0  0  0  # atno 17320 bound_to 7965
  144.7310  139.7727  143.7347 LP  0  0  0  0  0  0  0  0  0  0  0  0  # atno 17321 bound_to 7965
  140.2024  143.3948  152.1781 LP  0  0  0  0  0  0  0  0  0  0  0  0  # atno 17342 bound_to 10162
  139.5341  144.7191  151.4953 LP  0  0  0  0  0  0  0  0  0  0  0  0  # atno 17343 bound_to 10162
  156.3977  130.7659  151.2664 LP  0  0  0  0  0  0  0  0  0  0  0  0  # atno 17370 bound_to 10713
  157.7507  131.0249  150.3896 LP  0  0  0  0  0  0  0  0  0  0  0  0  # atno 17371 bound_to 10713
  140.8969  133.7808  155.9635 LP  0  0  0  0  0  0  0  0  0  0  0  0  # atno 17394 bound_to 11000
  140.8694  134.2745  157.5198 LP  0  0  0  0  0  0  0  0  0  0  0  0  # atno 17395 bound_to 11000

$$$$
