AV-unprocessed.smi:2336|AV-procd|sdf|9332|dock9
  -GOLD-   2272012553D 1   1.00000     0.00000
 Structure written by MMmdl.
 49 50  0  0  0  0  0  0  0  0  1 V2000
  145.9164  141.6584  154.8048 C   0  0  0  0  0  0  0  0  0  0  0  0
  147.2402  140.8770  154.8869 C   0  0  0  0  0  0  0  0  0  0  0  0
  148.3464  141.6031  154.0980 C   0  0  0  0  0  0  0  0  0  0  0  0
  147.0917  139.3516  154.5564 C   0  0  1  0  0  0  0  0  0  0  0  0
  146.6104  139.1248  153.0928 C   0  0  0  0  0  0  0  0  0  0  0  0
  146.8326  137.7532  152.6449 N   0  0  0  0  0  0  0  0  0  0  0  0
  145.8780  136.8748  152.3115 C   0  0  0  0  0  0  0  0  0  0  0  0
  144.6735  137.1184  152.3795 O   0  0  0  0  0  0  0  0  0  0  0  0
  146.4174  135.7106  151.9127 N   0  0  0  0  0  0  0  0  0  0  0  0
  145.7672  134.5460  151.4215 C   0  0  0  0  0  0  0  0  0  0  0  0
  144.5010  134.5487  150.7874 C   0  0  0  0  0  0  0  0  0  0  0  0
  143.9771  133.3257  150.3222 C   0  0  0  0  0  0  0  0  0  0  0  0
  144.6222  132.1460  150.4420 N   0  0  0  0  0  0  0  0  0  0  0  0
  145.8340  132.1494  151.0362 C   0  0  0  0  0  0  0  0  0  0  0  0
  146.4480  133.3155  151.5352 C   0  0  0  0  0  0  0  0  0  0  0  0
  147.6707  133.2493  152.1161 F   0  0  0  0  0  0  0  0  0  0  0  0
  148.2736  138.5253  154.9167 N   0  0  0  0  0  0  0  0  0  0  0  0
  148.6708  138.6963  156.3244 C   0  0  0  0  0  0  0  0  0  0  0  0
  149.8793  137.8216  156.7052 C   0  0  0  0  0  0  0  0  0  0  0  0
  151.0383  138.1249  155.8739 N   0  0  0  0  0  0  0  0  0  0  0  0
  152.1862  137.3086  156.2379 C   0  0  0  0  0  0  0  0  0  0  0  0
  150.6664  137.9355  154.4767 C   0  0  0  0  0  0  0  0  0  0  0  0
  149.4582  138.8086  154.0901 C   0  0  0  0  0  0  0  0  0  0  0  0
  145.5989  141.8246  153.7756 H   0  0  0  0  0  0  0  0  0  0  0  0
  146.0202  142.6410  155.2658 H   0  0  0  0  0  0  0  0  0  0  0  0
  145.1151  141.1363  155.3281 H   0  0  0  0  0  0  0  0  0  0  0  0
  147.5070  140.9547  155.9394 H   0  0  0  0  0  0  0  0  0  0  0  0
  148.0815  141.7317  153.0496 H   0  0  0  0  0  0  0  0  0  0  0  0
  149.2941  141.0667  154.1424 H   0  0  0  0  0  0  0  0  0  0  0  0
  148.5189  142.5991  154.5068 H   0  0  0  0  0  0  0  0  0  0  0  0
  146.2678  139.0085  155.1844 H   0  0  0  0  0  0  0  0  0  0  0  0
  145.5448  139.3350  153.0064 H   0  0  0  0  0  0  0  0  0  0  0  0
  147.0705  139.8403  152.4134 H   0  0  0  0  0  0  0  0  0  0  0  0
  147.7960  137.4633  152.5580 H   0  0  0  0  0  0  0  0  0  0  0  0
  147.4205  135.6351  151.9993 H   0  0  0  0  0  0  0  0  0  0  0  0
  143.9323  135.4529  150.6365 H   0  0  0  0  0  0  0  0  0  0  0  0
  143.0146  133.2960  149.8332 H   0  0  0  0  0  0  0  0  0  0  0  0
  146.3315  131.1940  151.1139 H   0  0  0  0  0  0  0  0  0  0  0  0
  148.8988  139.7447  156.5235 H   0  0  0  0  0  0  0  0  0  0  0  0
  147.8564  138.4200  156.9914 H   0  0  0  0  0  0  0  0  0  0  0  0
  150.1266  137.9861  157.7544 H   0  0  0  0  0  0  0  0  0  0  0  0
  149.6132  136.7675  156.6089 H   0  0  0  0  0  0  0  0  0  0  0  0
  153.0486  137.5574  155.6187 H   0  0  0  0  0  0  0  0  0  0  0  0
  151.9717  136.2465  156.1110 H   0  0  0  0  0  0  0  0  0  0  0  0
  152.4650  137.4770  157.2785 H   0  0  0  0  0  0  0  0  0  0  0  0
  151.5112  138.1859  153.8343 H   0  0  0  0  0  0  0  0  0  0  0  0
  150.4330  136.8859  154.2898 H   0  0  0  0  0  0  0  0  0  0  0  0
  149.2529  138.6038  153.0414 H   0  0  0  0  0  0  0  0  0  0  0  0
  149.7239  139.8643  154.1636 H   0  0  0  0  0  0  0  0  0  0  0  0
  1  2  1  0  0  0  0
  1 24  1  0  0  0  0
  1 25  1  0  0  0  0
  1 26  1  0  0  0  0
  2  3  1  0  0  0  0
  2  4  1  0  0  0  0
  2 27  1  0  0  0  0
  3 28  1  0  0  0  0
  3 29  1  0  0  0  0
  3 30  1  0  0  0  0
  4  5  1  0  0  0  0
  4 17  1  0  0  0  0
  4 31  1  0  0  0  0
  5  6  1  0  0  0  0
  5 32  1  0  0  0  0
  5 33  1  0  0  0  0
  6  7  1  0  0  0  0
  6 34  1  0  0  0  0
  7  8  2  0  0  0  0
  7  9  1  0  0  0  0
  9 10  1  0  0  0  0
  9 35  1  0  0  0  0
 10 15  1  0  0  0  0
 10 11  2  0  0  0  0
 11 12  1  0  0  0  0
 11 36  1  0  0  0  0
 12 13  2  0  0  0  0
 12 37  1  0  0  0  0
 13 14  1  0  0  0  0
 14 15  2  0  0  0  0
 14 38  1  0  0  0  0
 15 16  1  0  0  0  0
 17 23  1  0  0  0  0
 17 18  1  0  0  0  0
 18 19  1  0  0  0  0
 18 39  1  0  0  0  0
 18 40  1  0  0  0  0
 19 20  1  0  0  0  0
 19 41  1  0  0  0  0
 19 42  1  0  0  0  0
 20 21  1  0  0  0  0
 20 22  1  0  0  0  0
 21 43  1  0  0  0  0
 21 44  1  0  0  0  0
 21 45  1  0  0  0  0
 22 23  1  0  0  0  0
 22 46  1  0  0  0  0
 22 47  1  0  0  0  0
 23 48  1  0  0  0  0
 23 49  1  0  0  0  0
M  END
> <s_m_source_file>
AV-unprocessed.smi

> <i_m_source_file_index>
2336

> <i_lp_mmshare_version>
43012

> <i_f3d_flags>
0

> <s_epik_input>
W0NIMl0xW0NIMl1OKFtDSDNdKVtDSDJdW0NIMl1OMVtDQEhdKFtDSF0oW0NIM10pW0NIM10pW0NIMl1bTkhdQyg9TylbTkhdYzJbY0hdW2NIXW5bY0hdYzJG

> <s_epik_cmdline>
J2VwaWtfcHl0aG9uJywgJy1waCcsICc3LjAnLCAnLXRuJywgJzgnLCAnLW1hJywgJzIwMCcsICctbWV0YWxfYmluZGluZycsICctaW1hZScsICc8aW5maWxlLm1hZT4nLCAnLW9tYWUnLCAnPG91dGZpbGUubWFlPic=

> <r_epik_Ionization_Penalty>
2.58102

> <r_epik_Ionization_Penalty_Charging>
0

> <r_epik_Ionization_Penalty_Neutral>
2.58102

> <r_epik_State_Penalty>
2.00874

> <r_epik_Charging_Adjusted_Penalty>
2.00874

> <i_epik_Tot_Q>
0

> <i_epik_Tot_abs_Q>
0

> <r_epik_Metal_State_Penalty>
2.00867

> <b_epik_Metal_Only>
0

> <s_lp_Force_Field>
OPLS_2005

> <r_lp_Energy>
52.4608

> <b_lp_Chiralities_Consistent>
1

> <s_lp_Variant>
AV-unprocessed.smi:2336-6

> <Gold.Version>
5.8.1

> <Gold.Id.Protein>
6NUR|6NUR_protein|mol2

> <Gold.PLP.Fitness>
41.8174

> <Gold.PLP.PLP>
-32.2394

> <Gold.PLP.part.hbond>
-1.8310

> <Gold.PLP.part.metal>
0.0000

> <Gold.PLP.part.buried>
-3.5181

> <Gold.PLP.part.nonpolar>
-27.6017

> <Gold.PLP.part.repulsive>
1.3632

> <Gold.PLP.ligand.clash>
0.0000

> <Gold.PLP.ligand.torsion>
0.4527

> <Gold.PLP.Chemscore.Hbond>
1.8800

> <Gold.PLP.Chemscore.CHOScore>
1.5196

> <Gold.PLP.Chemscore.Metal>
0.0000

> <Gold.Chemscore.Hbonds>
donor molecule, donor type, donor heavy atom, donor atom, acceptor molecule, acceptor atom, score
      L1  H     6    34       P1  7948  0.93
      L1  H     9    35       P1  7948  1.00
      L1  C    12    37       P1 10186  1.00
      L1  C    14    38       P1 10747  0.29

> <Gold.PLP.Chemscore.Internal.Correction>
0.2846

> <Gold.Rescore>
     Score         DG    S(hbond)    S(metal)    S(lipo)     H(rot)  DE(clash)    DE(int)     intcor
     15.86     -17.35       1.92        0.00      82.22       1.63       0.15       1.34       ----

> <Gold.Chemscore.Fitness>
15.8607

> <Gold.Chemscore.DG>
-17.3521

> <Gold.Chemscore.ZeroCoef>
-5.4800

> <Gold.Chemscore.Hbond>
1.9221

> <Gold.Chemscore.Metal>
0.0000

> <Gold.Chemscore.Lipo>
82.2160

> <Gold.Chemscore.Internal_Hbond>
0.0000

> <Gold.Chemscore.DEClash>
0.1504

> <Gold.Chemscore.DEInternal>
1.3411

> <Gold.Chemscore.Rot>
1.6277

> <Gold.Chemscore.Internal.Correction>
   9.000000E+99

> <Gold.Chemscore.Hbonds>
donor molecule, donor type, donor heavy atom, donor atom, acceptor molecule, acceptor atom, score
      L1  H     6    34       P1  7948  0.90
      L1  H     9    35       P1  7948  0.96

> <Gold.Chemscore.Hbond.Weighted>
-6.4198

> <Gold.Chemscore.Metal.Weighted>
-0.0000

> <Gold.Chemscore.Lipo.Weighted>
-9.6193

> <Gold.Chemscore.Internal_Hbond.Weighted>
0.0000

> <Gold.Chemscore.DEClash.Weighted>
0.1504

> <Gold.Chemscore.DEInternal.Weighted>
1.3411

> <Gold.Chemscore.Rot.Weighted>
4.1670

> <Gold.Chemscore.Internal.Correction.Weighted>
   9.000000E+99

> <Gold.Protein.RotatedTorsions>
[ 6907 6896 6895 6894 ] final -116.95 input  -60.11 | X-H torsion
[ 7974 7965 7964 7962 ] final  114.86 input  175.53 | X-H torsion
[ 8008 7997 7996 7995 ] final  -47.29 input   59.86 | X-H torsion
[ 10167 10162 10161 10158 ] final -140.12 input  -65.29 | X-H torsion
[ 10718 10713 10712 10709 ] final  -12.57 input   66.30 | X-H torsion
[ 10763 10752 10751 10750 ] final  -28.09 input  -60.55 | X-H torsion
[ 11005 11000 10999 10996 ] final  -48.58 input  -57.11 | X-H torsion

> <Gold.Protein.ActiveResidues>
 VAL166  LYS551  ARG553  GLY616  TRP617  ASP618  TYR619  PRO620  LYS621  CYS622 
 ASP623  PHE694  ASN695  SER759  ASP760  ASP761  ALA762  ILE779  LEU786  VAL792 
 PHE793  MET794  SER795  GLU796  ALA797  LYS798  CYS799  TRP800  GLU811  SER814 

> <Gold.Protein.RotatedAtoms>
  150.8097  133.8445  159.3188 H   0  0  0  0  0  0  0  0  0  0  0  0  # atno 6907 bound_to 6896
  151.6234  135.1028  160.0116 H   0  0  0  0  0  0  0  0  0  0  0  0  # atno 6908 bound_to 6896
  152.4188  133.7043  159.6498 H   0  0  0  0  0  0  0  0  0  0  0  0  # atno 6909 bound_to 6896
  145.1991  139.2961  143.4327 H   0  0  0  0  0  0  0  0  0  0  0  0  # atno 7974 bound_to 7965
  154.4015  140.1350  156.4151 H   0  0  0  0  0  0  0  0  0  0  0  0  # atno 8008 bound_to 7997
  155.7696  140.3484  155.5220 H   0  0  0  0  0  0  0  0  0  0  0  0  # atno 8009 bound_to 7997
  155.8779  140.0982  157.1495 H   0  0  0  0  0  0  0  0  0  0  0  0  # atno 8010 bound_to 7997
  139.8312  143.7444  152.2666 H   0  0  0  0  0  0  0  0  0  0  0  0  # atno 10167 bound_to 10162
  156.6427  130.4932  149.6089 H   0  0  0  0  0  0  0  0  0  0  0  0  # atno 10718 bound_to 10713
  153.7427  135.6931  153.4963 H   0  0  0  0  0  0  0  0  0  0  0  0  # atno 10763 bound_to 10752
  153.2058  135.4420  155.0320 H   0  0  0  0  0  0  0  0  0  0  0  0  # atno 10764 bound_to 10752
  154.8215  135.3424  154.6952 H   0  0  0  0  0  0  0  0  0  0  0  0  # atno 10765 bound_to 10752
  141.0709  133.6679  156.3461 H   0  0  0  0  0  0  0  0  0  0  0  0  # atno 11005 bound_to 11000
  146.3421  140.2230  142.8592 LP  0  0  0  0  0  0  0  0  0  0  0  0  # atno 17320 bound_to 7965
  144.9965  140.8594  143.5307 LP  0  0  0  0  0  0  0  0  0  0  0  0  # atno 17321 bound_to 7965
  139.7652  144.7494  151.0305 LP  0  0  0  0  0  0  0  0  0  0  0  0  # atno 17342 bound_to 10162
  140.7806  143.4706  151.0152 LP  0  0  0  0  0  0  0  0  0  0  0  0  # atno 17343 bound_to 10162
  156.2146  130.6700  151.1305 LP  0  0  0  0  0  0  0  0  0  0  0  0  # atno 17370 bound_to 10713
  157.7166  131.0706  150.6303 LP  0  0  0  0  0  0  0  0  0  0  0  0  # atno 17371 bound_to 10713
  140.5676  134.5872  157.5449 LP  0  0  0  0  0  0  0  0  0  0  0  0  # atno 17394 bound_to 11000
  139.9522  134.7597  156.0422 LP  0  0  0  0  0  0  0  0  0  0  0  0  # atno 17395 bound_to 11000

$$$$
