AV-unprocessed.smi:2424|AV-procd|sdf|9574|dock4
  -GOLD-   2272013203D 1   1.00000     0.00000
 Structure written by MMmdl.
 49 50  0  0  0  0  0  0  0  0  2 V2000
  151.3970  137.7013  157.3155 C   0  0  0  0  0  0  0  0  0  0  0  0
  149.9439  137.3578  156.9437 C   0  0  0  0  0  0  0  0  0  0  0  0
  149.6330  137.3226  155.4264 C   0  0  0  0  0  0  0  0  0  0  0  0
  150.4942  136.2079  154.7771 C   0  0  0  0  0  0  0  0  0  0  0  0
  150.1249  134.7741  155.1937 C   0  0  0  0  0  0  0  0  0  0  0  0
  148.1099  137.3173  155.1021 C   0  0  2  0  0  0  0  0  0  0  0  0
  147.7878  136.6819  153.8220 N   0  0  0  0  0  0  0  0  0  0  0  0
  146.8575  135.7375  153.6359 C   0  0  0  0  0  0  0  0  0  0  0  0
  146.1471  135.3003  154.5404 O   0  0  0  0  0  0  0  0  0  0  0  0
  146.8245  135.3539  152.3478 N   0  0  0  0  0  0  0  0  0  0  0  0
  146.0215  134.3785  151.7432 C   0  0  0  0  0  0  0  0  0  0  0  0
  144.8980  134.7469  151.0311 C   0  0  0  0  0  0  0  0  0  0  0  0
  144.0124  133.9626  150.3794 N   0  5  0  0  0  0  0  0  0  0  0  0
  144.2146  132.6141  150.3967 C   0  0  0  0  0  0  0  0  0  0  0  0
  143.4499  131.8378  149.8251 O   0  0  0  0  0  0  0  0  0  0  0  0
  145.3843  132.0783  151.1222 C   0  0  0  0  0  0  0  0  0  0  0  0
  145.6077  130.5758  151.1360 C   0  0  0  0  0  0  0  0  0  0  0  0
  146.2292  132.9306  151.7551 C   0  0  0  0  0  0  0  0  0  0  0  0
  148.1477  138.8506  154.9858 C   0  0  2  0  0  0  0  0  0  0  0  0
  147.2677  139.6045  153.9902 C   0  0  0  0  0  0  0  0  0  0  0  0
  149.6621  138.7257  154.7512 C   0  0  2  0  0  0  0  0  0  0  0  0
  149.9556  138.6966  153.3588 O   0  0  0  0  0  0  0  0  0  0  0  0
  151.3405  138.5641  153.0872 C   0  0  0  0  0  0  0  0  0  0  0  0
  151.4898  137.8437  158.3921 H   0  0  0  0  0  0  0  0  0  0  0  0
  151.7321  138.6203  156.8352 H   0  0  0  0  0  0  0  0  0  0  0  0
  152.0878  136.9051  157.0408 H   0  0  0  0  0  0  0  0  0  0  0  0
  149.6672  136.4161  157.4167 H   0  0  0  0  0  0  0  0  0  0  0  0
  149.3077  138.0958  157.4323 H   0  0  0  0  0  0  0  0  0  0  0  0
  150.4136  136.2552  153.6912 H   0  0  0  0  0  0  0  0  0  0  0  0
  151.5537  136.3698  154.9688 H   0  0  0  0  0  0  0  0  0  0  0  0
  150.6871  134.0491  154.6050 H   0  0  0  0  0  0  0  0  0  0  0  0
  149.0655  134.5706  155.0383 H   0  0  0  0  0  0  0  0  0  0  0  0
  150.3547  134.5824  156.2412 H   0  0  0  0  0  0  0  0  0  0  0  0
  147.5001  136.9690  155.9377 H   0  0  0  0  0  0  0  0  0  0  0  0
  148.3204  136.9864  153.0204 H   0  0  0  0  0  0  0  0  0  0  0  0
  147.4662  135.8201  151.7233 H   0  0  0  0  0  0  0  0  0  0  0  0
  144.6788  135.8351  150.9753 H   0  0  0  0  0  0  0  0  0  0  0  0
  146.4976  130.3106  151.7072 H   0  0  0  0  0  0  0  0  0  0  0  0
  145.7355  130.2007  150.1202 H   0  0  0  0  0  0  0  0  0  0  0  0
  144.7546  130.0679  151.5868 H   0  0  0  0  0  0  0  0  0  0  0  0
  147.0731  132.5036  152.2717 H   0  0  0  0  0  0  0  0  0  0  0  0
  147.9902  139.2663  155.9823 H   0  0  0  0  0  0  0  0  0  0  0  0
  147.4171  139.2610  152.9664 H   0  0  0  0  0  0  0  0  0  0  0  0
  147.4827  140.6729  154.0090 H   0  0  0  0  0  0  0  0  0  0  0  0
  146.2112  139.4771  154.2271 H   0  0  0  0  0  0  0  0  0  0  0  0
  150.2185  139.4937  155.2911 H   0  0  0  0  0  0  0  0  0  0  0  0
  151.4970  138.4999  152.0106 H   0  0  0  0  0  0  0  0  0  0  0  0
  151.7568  137.6658  153.5432 H   0  0  0  0  0  0  0  0  0  0  0  0
  151.8946  139.4281  153.4558 H   0  0  0  0  0  0  0  0  0  0  0  0
  1  2  1  0  0  0  0
  1 24  1  0  0  0  0
  1 25  1  0  0  0  0
  1 26  1  0  0  0  0
  2  3  1  0  0  0  0
  2 27  1  0  0  0  0
  2 28  1  0  0  0  0
  3 21  1  0  0  0  0
  3  4  1  0  0  0  0
  3  6  1  0  0  0  0
  4  5  1  0  0  0  0
  4 29  1  0  0  0  0
  4 30  1  0  0  0  0
  5 31  1  0  0  0  0
  5 32  1  0  0  0  0
  5 33  1  0  0  0  0
  6  7  1  0  0  0  0
  6 19  1  0  0  0  0
  6 34  1  0  0  0  0
  7  8  1  0  0  0  0
  7 35  1  0  0  0  0
  8  9  2  0  0  0  0
  8 10  1  0  0  0  0
 10 11  1  0  0  0  0
 10 36  1  0  0  0  0
 11 18  1  0  0  0  0
 11 12  2  0  0  0  0
 12 13  1  0  0  0  0
 12 37  1  0  0  0  0
 13 14  1  0  0  0  0
 14 15  2  0  0  0  0
 14 16  1  0  0  0  0
 16 17  1  0  0  0  0
 16 18  2  0  0  0  0
 17 38  1  0  0  0  0
 17 39  1  0  0  0  0
 17 40  1  0  0  0  0
 18 41  1  0  0  0  0
 19 20  1  0  0  0  0
 19 21  1  0  0  0  0
 19 42  1  0  0  0  0
 20 43  1  0  0  0  0
 20 44  1  0  0  0  0
 20 45  1  0  0  0  0
 21 22  1  0  0  0  0
 21 46  1  0  0  0  0
 22 23  1  0  0  0  0
 23 47  1  0  0  0  0
 23 48  1  0  0  0  0
 23 49  1  0  0  0  0
M  CHG  1  13  -1
M  END
> <s_m_source_file>
AV-unprocessed.smi

> <i_m_source_file_index>
2424

> <i_lp_mmshare_version>
43012

> <i_f3d_flags>
0

> <s_epik_input>
W0NIM11PW0NAQEhdMVtDQEhdKFtDSDNdKVtDQEBIXShDMShbQ0gyXVtDSDNdKVtDSDJdW0NIM10pW05IXUMoPU8pW05IXWMyW2NIXVtuSF1jKD1PKWMoW0NIM10pW2NIXTI=

> <s_epik_cmdline>
J2VwaWtfcHl0aG9uJywgJy1waCcsICc3LjAnLCAnLXRuJywgJzgnLCAnLW1hJywgJzIwMCcsICctbWV0YWxfYmluZGluZycsICctaW1hZScsICc8aW5maWxlLm1hZT4nLCAnLW9tYWUnLCAnPG91dGZpbGUubWFlPic=

> <r_lp_tautomer_probability>
1

> <r_epik_Ionization_Penalty>
7.6122

> <r_epik_Ionization_Penalty_Charging>
1.53843

> <r_epik_Ionization_Penalty_Neutral>
6.07377

> <r_epik_State_Penalty>
6.07371

> <r_epik_Charging_Adjusted_Penalty>
7.61214

> <i_epik_Tot_Q>
-1

> <i_epik_Tot_abs_Q>
1

> <r_epik_Metal_State_Penalty>
2.02136

> <b_epik_Metal_Only>
1

> <s_lp_Force_Field>
OPLS_2005

> <r_lp_Energy>
42.0535

> <b_lp_Chiralities_Consistent>
1

> <s_lp_Variant>
AV-unprocessed.smi:2424-16

> <Gold.Version>
5.8.1

> <Gold.Id.Protein>
6NUR|6NUR_protein|mol2

> <Gold.PLP.Fitness>
35.4542

> <Gold.PLP.PLP>
-28.3831

> <Gold.PLP.part.hbond>
-2.9265

> <Gold.PLP.part.metal>
0.0000

> <Gold.PLP.part.buried>
-7.4806

> <Gold.PLP.part.nonpolar>
-19.2917

> <Gold.PLP.part.repulsive>
0.7371

> <Gold.PLP.ligand.clash>
0.0000

> <Gold.PLP.ligand.torsion>
1.0863

> <Gold.PLP.Chemscore.Hbond>
2.8560

> <Gold.PLP.Chemscore.CHOScore>
0.0000

> <Gold.PLP.Chemscore.Metal>
0.0000

> <Gold.Chemscore.Hbonds>
donor molecule, donor type, donor heavy atom, donor atom, acceptor molecule, acceptor atom, score
      L1  H     7    35       P1  7948  0.63
      L1  H    10    36       P1  7948  0.66
      P1  H 10785 10796       L1    15  1.00

> <Gold.PLP.Chemscore.Internal.Correction>
0.6756

> <Gold.Rescore>
     Score         DG    S(hbond)    S(metal)    S(lipo)     H(rot)  DE(clash)    DE(int)     intcor
     16.41     -18.74       2.74        0.00      68.40       1.52       0.09       2.23       ----

> <Gold.Chemscore.Fitness>
16.4145

> <Gold.Chemscore.DG>
-18.7381

> <Gold.Chemscore.ZeroCoef>
-5.4800

> <Gold.Chemscore.Hbond>
2.7388

> <Gold.Chemscore.Metal>
0.0000

> <Gold.Chemscore.Lipo>
68.3993

> <Gold.Chemscore.Internal_Hbond>
0.0000

> <Gold.Chemscore.DEClash>
0.0910

> <Gold.Chemscore.DEInternal>
2.2327

> <Gold.Chemscore.Rot>
1.5204

> <Gold.Chemscore.Internal.Correction>
   9.000000E+99

> <Gold.Chemscore.Hbonds>
donor molecule, donor type, donor heavy atom, donor atom, acceptor molecule, acceptor atom, score
      L1  H     7    35       P1  7948  0.60
      L1  H    10    36       P1  7948  0.62
      P1  H 10785 10796       L1    15  0.90

> <Gold.Chemscore.Hbond.Weighted>
-9.1477

> <Gold.Chemscore.Metal.Weighted>
-0.0000

> <Gold.Chemscore.Lipo.Weighted>
-8.0027

> <Gold.Chemscore.Internal_Hbond.Weighted>
0.0000

> <Gold.Chemscore.DEClash.Weighted>
0.0910

> <Gold.Chemscore.DEInternal.Weighted>
2.2327

> <Gold.Chemscore.Rot.Weighted>
3.8922

> <Gold.Chemscore.Internal.Correction.Weighted>
   9.000000E+99

> <Gold.Protein.RotatedTorsions>
[ 6907 6896 6895 6894 ] final -129.49 input  -60.11 | X-H torsion
[ 7974 7965 7964 7962 ] final -172.70 input  175.53 | X-H torsion
[ 8008 7997 7996 7995 ] final -163.17 input   59.86 | X-H torsion
[ 10167 10162 10161 10158 ] final -103.63 input  -65.29 | X-H torsion
[ 10718 10713 10712 10709 ] final   76.63 input   66.30 | X-H torsion
[ 10763 10752 10751 10750 ] final  -78.10 input  -60.55 | X-H torsion
[ 11005 11000 10999 10996 ] final  -88.24 input  -57.11 | X-H torsion

> <Gold.Protein.ActiveResidues>
 VAL166  LYS551  ARG553  GLY616  TRP617  ASP618  TYR619  PRO620  LYS621  CYS622 
 ASP623  PHE694  ASN695  SER759  ASP760  ASP761  ALA762  ILE779  LEU786  VAL792 
 PHE793  MET794  SER795  GLU796  ALA797  LYS798  CYS799  TRP800  GLU811  SER814 

> <Gold.Protein.RotatedAtoms>
  150.9292  133.6786  159.2814 H   0  0  0  0  0  0  0  0  0  0  0  0  # atno 6907 bound_to 6896
  151.4214  135.0997  159.9625 H   0  0  0  0  0  0  0  0  0  0  0  0  # atno 6908 bound_to 6896
  152.5018  133.8743  159.7369 H   0  0  0  0  0  0  0  0  0  0  0  0  # atno 6909 bound_to 6896
  144.7144  140.1732  143.6365 H   0  0  0  0  0  0  0  0  0  0  0  0  # atno 7974 bound_to 7965
  155.8174  140.0914  157.1869 H   0  0  0  0  0  0  0  0  0  0  0  0  # atno 8008 bound_to 7997
  154.3979  140.1443  156.3519 H   0  0  0  0  0  0  0  0  0  0  0  0  # atno 8009 bound_to 7997
  155.8302  140.3443  155.5570 H   0  0  0  0  0  0  0  0  0  0  0  0  # atno 8010 bound_to 7997
  140.2179  143.3697  152.0994 H   0  0  0  0  0  0  0  0  0  0  0  0  # atno 10167 bound_to 10162
  157.6681  130.9783  150.1525 H   0  0  0  0  0  0  0  0  0  0  0  0  # atno 10718 bound_to 10713
  154.5215  135.5741  153.6685 H   0  0  0  0  0  0  0  0  0  0  0  0  # atno 10763 bound_to 10752
  152.9918  135.6183  154.2748 H   0  0  0  0  0  0  0  0  0  0  0  0  # atno 10764 bound_to 10752
  154.2669  135.2854  155.2734 H   0  0  0  0  0  0  0  0  0  0  0  0  # atno 10765 bound_to 10752
  141.1605  133.7558  156.9423 H   0  0  0  0  0  0  0  0  0  0  0  0  # atno 11005 bound_to 11000
  145.8924  139.2383  143.1541 LP  0  0  0  0  0  0  0  0  0  0  0  0  # atno 17320 bound_to 7965
  145.9890  140.8618  143.0076 LP  0  0  0  0  0  0  0  0  0  0  0  0  # atno 17321 bound_to 7965
  139.5155  144.6964  151.5619 LP  0  0  0  0  0  0  0  0  0  0  0  0  # atno 17342 bound_to 10162
  140.6276  143.9138  150.6578 LP  0  0  0  0  0  0  0  0  0  0  0  0  # atno 17343 bound_to 10162
  156.2320  130.3683  149.8434 LP  0  0  0  0  0  0  0  0  0  0  0  0  # atno 17370 bound_to 10713
  156.6257  130.8645  151.3485 LP  0  0  0  0  0  0  0  0  0  0  0  0  # atno 17371 bound_to 10713
  140.1313  134.9354  157.2341 LP  0  0  0  0  0  0  0  0  0  0  0  0  # atno 17394 bound_to 11000
  140.2949  134.3198  155.7305 LP  0  0  0  0  0  0  0  0  0  0  0  0  # atno 17395 bound_to 11000

$$$$
