AV-unprocessed.smi:2895|AV-procd|sdf|11134|dock7
  -GOLD-   2272016 13D 1   1.00000     0.00000
 Structure written by MMmdl.
 54 57  0  0  0  0  0  0  0  0  3 V2000
  148.0419  138.1441  156.2073 O   0  0  0  0  0  0  0  0  0  0  0  0
  149.2095  138.3061  156.5641 C   0  0  0  0  0  0  0  0  0  0  0  0
  150.1996  137.4975  156.1487 N   0  0  0  0  0  0  0  0  0  0  0  0
  150.0317  136.3517  155.2617 C   0  0  0  0  0  0  0  0  0  0  0  0
  150.7019  135.0894  155.8291 C   0  0  0  0  0  0  0  0  0  0  0  0
  150.1685  133.8230  155.1874 C   0  0  0  0  0  0  0  0  0  0  0  0
  149.1981  133.8957  154.1637 C   0  0  0  0  0  0  0  0  0  0  0  0
  148.7219  132.7035  153.5807 C   0  0  0  0  0  0  0  0  0  0  0  0
  149.1958  131.5112  154.0048 N   0  3  0  0  0  0  0  0  0  0  0  0
  150.1239  131.3977  154.9804 C   0  0  0  0  0  0  0  0  0  0  0  0
  150.6374  132.5559  155.5995 C   0  0  0  0  0  0  0  0  0  0  0  0
  149.6100  139.3393  157.3476 N   0  0  0  0  0  0  0  0  0  0  0  0
  148.9814  140.6680  157.4122 C   0  0  0  0  0  0  0  0  0  0  0  0
  149.9159  141.7110  156.7614 C   0  0  0  0  0  0  0  0  0  0  0  0
  151.2784  141.7160  157.3748 N   0  3  0  0  0  0  0  0  0  0  0  0
  151.3348  142.4360  158.6879 C   0  0  2  0  0  0  0  0  0  0  0  0
  150.7516  143.8734  158.6013 C   0  0  0  0  0  0  0  0  0  0  0  0
  151.8644  144.7580  159.1844 C   0  0  1  0  0  0  0  0  0  0  0  0
  152.0051  144.4902  160.6922 C   0  0  0  0  0  0  0  0  0  0  0  0
  152.6589  143.0977  160.7232 C   0  0  0  0  0  0  0  0  0  0  0  0
  152.7642  142.7318  159.2293 C   0  0  2  0  0  0  0  0  0  0  0  0
  153.1041  144.0847  158.6144 C   0  0  0  0  0  0  0  0  0  0  0  0
  151.8489  140.3369  157.3803 C   0  0  0  0  0  0  0  0  0  0  0  0
  150.8988  139.3243  158.0477 C   0  0  0  0  0  0  0  0  0  0  0  0
  151.1396  137.7028  156.4552 H   0  0  0  0  0  0  0  0  0  0  0  0
  148.9699  136.1744  155.0812 H   0  0  0  0  0  0  0  0  0  0  0  0
  150.4718  136.6040  154.2964 H   0  0  0  0  0  0  0  0  0  0  0  0
  151.7814  135.1397  155.6803 H   0  0  0  0  0  0  0  0  0  0  0  0
  150.5440  135.0267  156.9066 H   0  0  0  0  0  0  0  0  0  0  0  0
  148.8245  134.8523  153.8273 H   0  0  0  0  0  0  0  0  0  0  0  0
  147.9828  132.6681  152.7935 H   0  0  0  0  0  0  0  0  0  0  0  0
  150.4257  130.3917  155.2334 H   0  0  0  0  0  0  0  0  0  0  0  0
  151.3815  132.4706  156.3782 H   0  0  0  0  0  0  0  0  0  0  0  0
  148.0065  140.7185  156.9277 H   0  0  0  0  0  0  0  0  0  0  0  0
  148.7944  140.9202  158.4564 H   0  0  0  0  0  0  0  0  0  0  0  0
  150.0276  141.4722  155.7028 H   0  0  0  0  0  0  0  0  0  0  0  0
  149.4487  142.6939  156.7888 H   0  0  0  0  0  0  0  0  0  0  0  0
  150.7822  141.8533  159.4252 H   0  0  0  0  0  0  0  0  0  0  0  0
  150.5731  144.1815  157.5704 H   0  0  0  0  0  0  0  0  0  0  0  0
  149.8112  143.9738  159.1445 H   0  0  0  0  0  0  0  0  0  0  0  0
  151.7585  145.8143  158.9352 H   0  0  0  0  0  0  0  0  0  0  0  0
  152.6546  145.2298  161.1620 H   0  0  0  0  0  0  0  0  0  0  0  0
  151.0435  144.5116  161.2065 H   0  0  0  0  0  0  0  0  0  0  0  0
  153.6491  143.1535  161.1774 H   0  0  0  0  0  0  0  0  0  0  0  0
  152.0751  142.3738  161.2930 H   0  0  0  0  0  0  0  0  0  0  0  0
  153.5172  141.9651  159.0671 H   0  0  0  0  0  0  0  0  0  0  0  0
  153.1298  144.0705  157.5234 H   0  0  0  0  0  0  0  0  0  0  0  0
  154.0373  144.5092  158.9893 H   0  0  0  0  0  0  0  0  0  0  0  0
  152.0003  140.0399  156.3415 H   0  0  0  0  0  0  0  0  0  0  0  0
  152.8377  140.2866  157.8268 H   0  0  0  0  0  0  0  0  0  0  0  0
  150.7429  139.5773  159.0970 H   0  0  0  0  0  0  0  0  0  0  0  0
  151.3617  138.3365  158.0545 H   0  0  0  0  0  0  0  0  0  0  0  0
  151.8657  142.2574  156.7565 H   0  0  0  0  0  0  0  0  0  0  0  0
  148.8378  130.6606  153.5695 H   0  0  0  0  0  0  0  0  0  0  0  0
  1  2  2  0  0  0  0
  2  3  1  0  0  0  0
  2 12  1  0  0  0  0
  3  4  1  0  0  0  0
  3 25  1  0  0  0  0
  4  5  1  0  0  0  0
  4 26  1  0  0  0  0
  4 27  1  0  0  0  0
  5  6  1  0  0  0  0
  5 28  1  0  0  0  0
  5 29  1  0  0  0  0
  6 11  1  0  0  0  0
  6  7  2  0  0  0  0
  7  8  1  0  0  0  0
  7 30  1  0  0  0  0
  8  9  2  0  0  0  0
  8 31  1  0  0  0  0
  9 10  1  0  0  0  0
  9 54  1  0  0  0  0
 10 11  2  0  0  0  0
 10 32  1  0  0  0  0
 11 33  1  0  0  0  0
 12 24  1  0  0  0  0
 12 13  1  0  0  0  0
 13 14  1  0  0  0  0
 13 34  1  0  0  0  0
 13 35  1  0  0  0  0
 14 15  1  0  0  0  0
 14 36  1  0  0  0  0
 14 37  1  0  0  0  0
 15 16  1  0  0  0  0
 15 23  1  0  0  0  0
 15 53  1  0  0  0  0
 16 21  1  0  0  0  0
 16 17  1  0  0  0  0
 16 38  1  0  0  0  0
 17 18  1  0  0  0  0
 17 39  1  0  0  0  0
 17 40  1  0  0  0  0
 18 22  1  0  0  0  0
 18 19  1  0  0  0  0
 18 41  1  0  0  0  0
 19 20  1  0  0  0  0
 19 42  1  0  0  0  0
 19 43  1  0  0  0  0
 20 21  1  0  0  0  0
 20 44  1  0  0  0  0
 20 45  1  0  0  0  0
 21 22  1  0  0  0  0
 21 46  1  0  0  0  0
 22 47  1  0  0  0  0
 22 48  1  0  0  0  0
 23 24  1  0  0  0  0
 23 49  1  0  0  0  0
 23 50  1  0  0  0  0
 24 51  1  0  0  0  0
 24 52  1  0  0  0  0
M  CHG  1   9   1
M  CHG  1  15   1
M  END
> <s_m_source_file>
AV-unprocessed.smi

> <i_m_source_file_index>
2895

> <i_lp_mmshare_version>
43012

> <i_f3d_flags>
0

> <s_epik_input>
W0NIMl0xW0NIMl1bQ0BASF0oW0NIMl0yKVtDQEBIXShbQ0gyXVtDQEhdMTIpTihbQ0gyXVtDSDJdMylbQ0gyXVtDSDJdTjNDKD1PKVtOSF1bQ0gyXVtDSDJdYzRbY0hdW2NIXW5bY0hdW2NIXTQ=

> <s_epik_cmdline>
J2VwaWtfcHl0aG9uJywgJy1waCcsICc3LjAnLCAnLXRuJywgJzgnLCAnLW1hJywgJzIwMCcsICctbWV0YWxfYmluZGluZycsICctaW1hZScsICc8aW5maWxlLm1hZT4nLCAnLW9tYWUnLCAnPG91dGZpbGUubWFlPic=

> <r_epik_Ionization_Penalty>
1.44916

> <r_epik_Ionization_Penalty_Charging>
1.44913

> <r_epik_Ionization_Penalty_Neutral>
2.64641e-05

> <r_epik_State_Penalty>
1.53218

> <r_epik_Charging_Adjusted_Penalty>
2.98131

> <i_epik_Tot_Q>
2

> <i_epik_Tot_abs_Q>
2

> <r_epik_Metal_State_Penalty>
1.58241

> <b_epik_Metal_Only>
0

> <s_lp_Force_Field>
OPLS_2005

> <r_lp_Energy>
108.082

> <b_lp_Chiralities_Consistent>
1

> <s_lp_Variant>
AV-unprocessed.smi:2895-7

> <Gold.Version>
5.8.1

> <Gold.Id.Protein>
6NUR|6NUR_protein|mol2

> <Gold.PLP.Fitness>
44.9172

> <Gold.PLP.PLP>
-46.5669

> <Gold.PLP.part.hbond>
0.0000

> <Gold.PLP.part.metal>
0.0000

> <Gold.PLP.part.buried>
-6.6794

> <Gold.PLP.part.nonpolar>
-39.9699

> <Gold.PLP.part.repulsive>
0.0840

> <Gold.PLP.ligand.clash>
0.8584

> <Gold.PLP.ligand.torsion>
0.4494

> <Gold.PLP.Chemscore.Hbond>
0.0000

> <Gold.PLP.Chemscore.CHOScore>
0.0000

> <Gold.PLP.Chemscore.Metal>
0.0000

> <Gold.PLP.Chemscore.Internal.Correction>
0.1075

> <Gold.Rescore>
     Score         DG    S(hbond)    S(metal)    S(lipo)     H(rot)  DE(clash)    DE(int)     intcor
     17.46     -17.94       0.00        0.00     138.40       1.46       0.05       0.43       ----

> <Gold.Chemscore.Fitness>
17.4619

> <Gold.Chemscore.DG>
-17.9420

> <Gold.Chemscore.ZeroCoef>
-5.4800

> <Gold.Chemscore.Hbond>
0.0000

> <Gold.Chemscore.Metal>
0.0000

> <Gold.Chemscore.Lipo>
138.3973

> <Gold.Chemscore.Internal_Hbond>
0.0000

> <Gold.Chemscore.DEClash>
0.0515

> <Gold.Chemscore.DEInternal>
0.4286

> <Gold.Chemscore.Rot>
1.4572

> <Gold.Chemscore.Internal.Correction>
   9.000000E+99

> <Gold.Chemscore.Hbond.Weighted>
-0.0000

> <Gold.Chemscore.Metal.Weighted>
-0.0000

> <Gold.Chemscore.Lipo.Weighted>
-16.1925

> <Gold.Chemscore.Internal_Hbond.Weighted>
0.0000

> <Gold.Chemscore.DEClash.Weighted>
0.0515

> <Gold.Chemscore.DEInternal.Weighted>
0.4286

> <Gold.Chemscore.Rot.Weighted>
3.7305

> <Gold.Chemscore.Internal.Correction.Weighted>
   9.000000E+99

> <Gold.Protein.RotatedTorsions>
[ 6907 6896 6895 6894 ] final  121.10 input  -60.11 | X-H torsion
[ 7974 7965 7964 7962 ] final  120.20 input  175.53 | X-H torsion
[ 8008 7997 7996 7995 ] final  170.76 input   59.86 | X-H torsion
[ 10167 10162 10161 10158 ] final   -8.85 input  -65.29 | X-H torsion
[ 10718 10713 10712 10709 ] final -109.50 input   66.30 | X-H torsion
[ 10763 10752 10751 10750 ] final  115.76 input  -60.55 | X-H torsion
[ 11005 11000 10999 10996 ] final   14.95 input  -57.11 | X-H torsion

> <Gold.Protein.ActiveResidues>
 VAL166  LYS551  ARG553  GLY616  TRP617  ASP618  TYR619  PRO620  LYS621  CYS622 
 ASP623  PHE694  ASN695  SER759  ASP760  ASP761  ALA762  ILE779  LEU786  VAL792 
 PHE793  MET794  SER795  GLU796  ALA797  LYS798  CYS799  TRP800  GLU811  SER814 

> <Gold.Protein.RotatedAtoms>
  152.4348  133.7340  159.6603 H   0  0  0  0  0  0  0  0  0  0  0  0  # atno 6907 bound_to 6896
  150.8230  133.8209  159.3137 H   0  0  0  0  0  0  0  0  0  0  0  0  # atno 6908 bound_to 6896
  151.5886  135.1057  160.0085 H   0  0  0  0  0  0  0  0  0  0  0  0  # atno 6909 bound_to 6896
  145.1340  139.3309  143.4650 H   0  0  0  0  0  0  0  0  0  0  0  0  # atno 7974 bound_to 7965
  156.1335  140.1529  156.9030 H   0  0  0  0  0  0  0  0  0  0  0  0  # atno 8008 bound_to 7997
  154.4928  140.0846  156.7671 H   0  0  0  0  0  0  0  0  0  0  0  0  # atno 8009 bound_to 7997
  155.4212  140.3423  155.4274 H   0  0  0  0  0  0  0  0  0  0  0  0  # atno 8010 bound_to 7997
  140.7071  143.5923  150.8881 H   0  0  0  0  0  0  0  0  0  0  0  0  # atno 10167 bound_to 10162
  156.0540  130.5767  150.8108 H   0  0  0  0  0  0  0  0  0  0  0  0  # atno 10718 bound_to 10713
  153.5270  135.3586  155.2658 H   0  0  0  0  0  0  0  0  0  0  0  0  # atno 10763 bound_to 10752
  154.8730  135.4059  154.3194 H   0  0  0  0  0  0  0  0  0  0  0  0  # atno 10764 bound_to 10752
  153.3876  135.7070  153.6586 H   0  0  0  0  0  0  0  0  0  0  0  0  # atno 10765 bound_to 10752
  140.4638  134.1101  155.7721 H   0  0  0  0  0  0  0  0  0  0  0  0  # atno 11005 bound_to 11000
  146.3511  140.1351  142.8596 LP  0  0  0  0  0  0  0  0  0  0  0  0  # atno 17320 bound_to 7965
  145.0604  140.9083  143.4942 LP  0  0  0  0  0  0  0  0  0  0  0  0  # atno 17321 bound_to 7965
  139.9648  143.6123  152.2991 LP  0  0  0  0  0  0  0  0  0  0  0  0  # atno 17342 bound_to 10162
  139.6689  144.7661  151.1821 LP  0  0  0  0  0  0  0  0  0  0  0  0  # atno 17343 bound_to 10162
  157.5494  131.0943  150.9717 LP  0  0  0  0  0  0  0  0  0  0  0  0  # atno 17370 bound_to 10713
  156.9981  130.5589  149.5309 LP  0  0  0  0  0  0  0  0  0  0  0  0  # atno 17371 bound_to 10713
  141.1609  133.8795  157.1850 LP  0  0  0  0  0  0  0  0  0  0  0  0  # atno 17394 bound_to 11000
  139.9928  135.0058  157.0015 LP  0  0  0  0  0  0  0  0  0  0  0  0  # atno 17395 bound_to 11000

$$$$
