AV-unprocessed.smi:1398|AV-procd|sdf|5680|dock3
  -GOLD-   22720 5303D 1   1.00000     0.00000
 Structure written by MMmdl.
 41 42  0  0  0  0  0  0  0  0  1 V2000
  155.0744  140.2436  160.0213 C   0  0  0  0  0  0  0  0  0  0  0  0
  154.0350  140.1028  159.0591 O   0  0  0  0  0  0  0  0  0  0  0  0
  153.1327  141.1382  158.9065 C   0  0  0  0  0  0  0  0  0  0  0  0
  153.2687  142.2345  159.6943 N   0  0  0  0  0  0  0  0  0  0  0  0
  152.3904  143.2471  159.5435 C   0  0  0  0  0  0  0  0  0  0  0  0
  151.3434  143.2257  158.6040 C   0  0  0  0  0  0  0  0  0  0  0  0
  151.1996  142.0896  157.7865 C   0  0  0  0  0  0  0  0  0  0  0  0
  152.1042  141.0121  157.9438 C   0  0  0  0  0  0  0  0  0  0  0  0
  152.0583  139.8294  157.1563 N   0  0  0  0  0  0  0  0  0  0  0  0
  151.4563  139.6419  155.9700 C   0  0  0  0  0  0  0  0  0  0  0  0
  150.8236  140.4965  155.3496 O   0  0  0  0  0  0  0  0  0  0  0  0
  151.6077  138.3796  155.5457 N   0  0  0  0  0  0  0  0  0  0  0  0
  151.0401  137.8335  154.3184 C   0  0  0  0  0  0  0  0  0  0  0  0
  150.1127  136.6372  154.6138 C   0  0  0  0  0  0  0  0  0  0  0  0
  150.8019  135.4905  155.3717 C   0  0  0  0  0  0  0  0  0  0  0  0
  151.7116  135.7377  156.1646 O   0  0  0  0  0  0  0  0  0  0  0  0
  150.3755  134.2311  155.1424 N   0  0  0  0  0  0  0  0  0  0  0  0
  150.8885  133.0241  155.7905 C   0  0  0  0  0  0  0  0  0  0  0  0
  149.9418  131.8969  155.3762 C   0  0  0  0  0  0  0  0  0  0  0  0
  149.3469  132.3733  154.0584 C   0  0  0  0  0  0  0  0  0  0  0  0
  149.3187  133.8963  154.1897 C   0  0  0  0  0  0  0  0  0  0  0  0
  155.6922  139.3457  160.0176 H   0  0  0  0  0  0  0  0  0  0  0  0
  154.6730  140.3639  161.0285 H   0  0  0  0  0  0  0  0  0  0  0  0
  155.7212  141.0907  159.7892 H   0  0  0  0  0  0  0  0  0  0  0  0
  152.5310  144.1029  160.1869 H   0  0  0  0  0  0  0  0  0  0  0  0
  150.6694  144.0640  158.5089 H   0  0  0  0  0  0  0  0  0  0  0  0
  150.4126  142.0725  157.0484 H   0  0  0  0  0  0  0  0  0  0  0  0
  152.4598  139.0090  157.5867 H   0  0  0  0  0  0  0  0  0  0  0  0
  152.1424  137.7453  156.1210 H   0  0  0  0  0  0  0  0  0  0  0  0
  150.5057  138.6140  153.7735 H   0  0  0  0  0  0  0  0  0  0  0  0
  151.8700  137.5212  153.6832 H   0  0  0  0  0  0  0  0  0  0  0  0
  149.2640  136.9830  155.2050 H   0  0  0  0  0  0  0  0  0  0  0  0
  149.7115  136.2445  153.6789 H   0  0  0  0  0  0  0  0  0  0  0  0
  151.8980  132.8250  155.4283 H   0  0  0  0  0  0  0  0  0  0  0  0
  150.9270  133.1213  156.8762 H   0  0  0  0  0  0  0  0  0  0  0  0
  150.4443  130.9330  155.2898 H   0  0  0  0  0  0  0  0  0  0  0  0
  149.1485  131.7946  156.1179 H   0  0  0  0  0  0  0  0  0  0  0  0
  150.0064  132.0895  153.2371 H   0  0  0  0  0  0  0  0  0  0  0  0
  148.3632  131.9474  153.8594 H   0  0  0  0  0  0  0  0  0  0  0  0
  148.3605  134.2295  154.5914 H   0  0  0  0  0  0  0  0  0  0  0  0
  149.4681  134.3797  153.2228 H   0  0  0  0  0  0  0  0  0  0  0  0
  1  2  1  0  0  0  0
  1 22  1  0  0  0  0
  1 23  1  0  0  0  0
  1 24  1  0  0  0  0
  2  3  1  0  0  0  0
  3  8  1  0  0  0  0
  3  4  2  0  0  0  0
  4  5  1  0  0  0  0
  5  6  2  0  0  0  0
  5 25  1  0  0  0  0
  6  7  1  0  0  0  0
  6 26  1  0  0  0  0
  7  8  2  0  0  0  0
  7 27  1  0  0  0  0
  8  9  1  0  0  0  0
  9 10  1  0  0  0  0
  9 28  1  0  0  0  0
 10 11  2  0  0  0  0
 10 12  1  0  0  0  0
 12 13  1  0  0  0  0
 12 29  1  0  0  0  0
 13 14  1  0  0  0  0
 13 30  1  0  0  0  0
 13 31  1  0  0  0  0
 14 15  1  0  0  0  0
 14 32  1  0  0  0  0
 14 33  1  0  0  0  0
 15 16  2  0  0  0  0
 15 17  1  0  0  0  0
 17 21  1  0  0  0  0
 17 18  1  0  0  0  0
 18 19  1  0  0  0  0
 18 34  1  0  0  0  0
 18 35  1  0  0  0  0
 19 20  1  0  0  0  0
 19 36  1  0  0  0  0
 19 37  1  0  0  0  0
 20 21  1  0  0  0  0
 20 38  1  0  0  0  0
 20 39  1  0  0  0  0
 21 40  1  0  0  0  0
 21 41  1  0  0  0  0
M  END
> <s_m_source_file>
AV-unprocessed.smi

> <i_m_source_file_index>
1398

> <i_lp_mmshare_version>
43012

> <i_f3d_flags>
0

> <s_epik_input>
W0NIM11PYzFuW2NIXVtjSF1bY0hdYzFbTkhdQyg9TylbTkhdW0NIMl1bQ0gyXUMoPU8pTjJbQ0gyXVtDSDJdW0NIMl1bQ0gyXTI=

> <s_epik_cmdline>
J2VwaWtfcHl0aG9uJywgJy1waCcsICc3LjAnLCAnLXRuJywgJzgnLCAnLW1hJywgJzIwMCcsICctbWV0YWxfYmluZGluZycsICctaW1hZScsICc8aW5maWxlLm1hZT4nLCAnLW9tYWUnLCAnPG91dGZpbGUubWFlPic=

> <r_lp_tautomer_probability>
1

> <r_epik_Ionization_Penalty>
8.61088e-05

> <r_epik_Ionization_Penalty_Charging>
0

> <r_epik_Ionization_Penalty_Neutral>
8.61088e-05

> <r_epik_State_Penalty>
-0

> <r_epik_Charging_Adjusted_Penalty>
0

> <i_epik_Tot_Q>
0

> <i_epik_Tot_abs_Q>
0

> <r_epik_Metal_State_Penalty>
-0

> <b_epik_Metal_Only>
0

> <s_lp_Force_Field>
OPLS_2005

> <r_lp_Energy>
29.8369

> <b_lp_Chiralities_Consistent>
1

> <s_lp_Variant>
AV-unprocessed.smi:1398-1

> <Gold.Version>
5.8.1

> <Gold.Id.Protein>
6NUR|6NUR_protein|mol2

> <Gold.PLP.Fitness>
43.7894

> <Gold.PLP.PLP>
-35.6592

> <Gold.PLP.part.hbond>
-3.0000

> <Gold.PLP.part.metal>
0.0000

> <Gold.PLP.part.buried>
-2.4468

> <Gold.PLP.part.nonpolar>
-30.1629

> <Gold.PLP.part.repulsive>
0.2874

> <Gold.PLP.ligand.clash>
0.0000

> <Gold.PLP.ligand.torsion>
0.4649

> <Gold.PLP.Chemscore.Hbond>
2.9920

> <Gold.PLP.Chemscore.CHOScore>
0.0000

> <Gold.PLP.Chemscore.Metal>
0.0000

> <Gold.Chemscore.Hbonds>
donor molecule, donor type, donor heavy atom, donor atom, acceptor molecule, acceptor atom, score
      P1  H  7989  7998       L1    11  0.94
      P1  H  7997  8010       L1     2  0.98
      P1  H 10752 10763       L1    16  0.80

> <Gold.PLP.Chemscore.Internal.Correction>
0.0840

> <Gold.Rescore>
     Score         DG    S(hbond)    S(metal)    S(lipo)     H(rot)  DE(clash)    DE(int)     intcor
     13.20     -16.72       2.12        0.00      75.60       1.83       0.53       2.98       ----

> <Gold.Chemscore.Fitness>
13.2025

> <Gold.Chemscore.DG>
-16.7152

> <Gold.Chemscore.ZeroCoef>
-5.4800

> <Gold.Chemscore.Hbond>
2.1152

> <Gold.Chemscore.Metal>
0.0000

> <Gold.Chemscore.Lipo>
75.5969

> <Gold.Chemscore.Internal_Hbond>
0.0000

> <Gold.Chemscore.DEClash>
0.5339

> <Gold.Chemscore.DEInternal>
2.9789

> <Gold.Chemscore.Rot>
1.8260

> <Gold.Chemscore.Internal.Correction>
   9.000000E+99

> <Gold.Chemscore.Hbonds>
donor molecule, donor type, donor heavy atom, donor atom, acceptor molecule, acceptor atom, score
      P1  H  7989  7998       L1    11  0.69
      P1  H  7997  8010       L1     2  0.20
      P1  H 10752 10763       L1    16  0.12

> <Gold.Chemscore.Hbond.Weighted>
-7.0648

> <Gold.Chemscore.Metal.Weighted>
-0.0000

> <Gold.Chemscore.Lipo.Weighted>
-8.8448

> <Gold.Chemscore.Internal_Hbond.Weighted>
0.0000

> <Gold.Chemscore.DEClash.Weighted>
0.5339

> <Gold.Chemscore.DEInternal.Weighted>
2.9789

> <Gold.Chemscore.Rot.Weighted>
4.6744

> <Gold.Chemscore.Internal.Correction.Weighted>
   9.000000E+99

> <Gold.Protein.RotatedTorsions>
[ 6907 6896 6895 6894 ] final   -2.15 input  -60.11 | X-H torsion
[ 7974 7965 7964 7962 ] final   25.51 input  175.53 | X-H torsion
[ 8008 7997 7996 7995 ] final    7.31 input   59.86 | X-H torsion
[ 10167 10162 10161 10158 ] final -154.81 input  -65.29 | X-H torsion
[ 10718 10713 10712 10709 ] final -163.76 input   66.30 | X-H torsion
[ 10763 10752 10751 10750 ] final   84.29 input  -60.55 | X-H torsion
[ 11005 11000 10999 10996 ] final  -26.65 input  -57.11 | X-H torsion

> <Gold.Protein.ActiveResidues>
 VAL166  LYS551  ARG553  GLY616  TRP617  ASP618  TYR619  PRO620  LYS621  CYS622 
 ASP623  PHE694  ASN695  SER759  ASP760  ASP761  ALA762  ILE779  LEU786  VAL792 
 PHE793  MET794  SER795  GLU796  ALA797  LYS798  CYS799  TRP800  GLU811  SER814 

> <Gold.Protein.RotatedAtoms>
  151.5346  135.1068  159.9910 H   0  0  0  0  0  0  0  0  0  0  0  0  # atno 6907 bound_to 6896
  152.4563  133.7725  159.6817 H   0  0  0  0  0  0  0  0  0  0  0  0  # atno 6908 bound_to 6896
  150.8508  133.7725  159.3051 H   0  0  0  0  0  0  0  0  0  0  0  0  # atno 6909 bound_to 6896
  146.1885  139.7455  142.8849 H   0  0  0  0  0  0  0  0  0  0  0  0  # atno 7974 bound_to 7965
  154.7522  140.2769  155.6283 H   0  0  0  0  0  0  0  0  0  0  0  0  # atno 8008 bound_to 7997
  156.2898  140.2676  156.2205 H   0  0  0  0  0  0  0  0  0  0  0  0  # atno 8009 bound_to 7997
  155.0122  140.0372  157.2394 H   0  0  0  0  0  0  0  0  0  0  0  0  # atno 8010 bound_to 7997
  139.6982  143.9307  152.2417 H   0  0  0  0  0  0  0  0  0  0  0  0  # atno 10167 bound_to 10162
  156.6293  130.8923  151.2974 H   0  0  0  0  0  0  0  0  0  0  0  0  # atno 10718 bound_to 10713
  153.1368  135.4659  154.9435 H   0  0  0  0  0  0  0  0  0  0  0  0  # atno 10763 bound_to 10752
  154.7713  135.3159  154.8186 H   0  0  0  0  0  0  0  0  0  0  0  0  # atno 10764 bound_to 10752
  153.8717  135.6903  153.4828 H   0  0  0  0  0  0  0  0  0  0  0  0  # atno 10765 bound_to 10752
  140.9048  133.7500  156.0592 H   0  0  0  0  0  0  0  0  0  0  0  0  # atno 11005 bound_to 11000
  145.3866  141.0366  143.3147 LP  0  0  0  0  0  0  0  0  0  0  0  0  # atno 17320 bound_to 7965
  144.8441  139.5425  143.6886 LP  0  0  0  0  0  0  0  0  0  0  0  0  # atno 17321 bound_to 7965
  139.9142  144.6838  150.8530 LP  0  0  0  0  0  0  0  0  0  0  0  0  # atno 17342 bound_to 10162
  140.7702  143.3421  151.2186 LP  0  0  0  0  0  0  0  0  0  0  0  0  # atno 17343 bound_to 10162
  157.7205  130.9552  150.1419 LP  0  0  0  0  0  0  0  0  0  0  0  0  # atno 17370 bound_to 10713
  156.2248  130.3677  149.8514 LP  0  0  0  0  0  0  0  0  0  0  0  0  # atno 17371 bound_to 10713
  140.8184  134.3318  157.5389 LP  0  0  0  0  0  0  0  0  0  0  0  0  # atno 17394 bound_to 11000
  139.8748  134.9295  156.3478 LP  0  0  0  0  0  0  0  0  0  0  0  0  # atno 17395 bound_to 11000

$$$$
