AV-unprocessed.smi:1715|AV-procd|sdf|6912|dock8
  -GOLD-   22720 8113D 1   1.00000     0.00000
 Structure written by MMmdl.
 41 42  0  0  0  0  0  0  0  0  2 V2000
  149.5089  141.6571  156.4780 C   0  0  0  0  0  0  0  0  0  0  0  0
  149.7251  141.4332  154.9705 C   0  0  2  0  0  0  0  0  0  0  0  0
  148.4366  141.0599  154.2112 C   0  0  0  0  0  0  0  0  0  0  0  0
  148.0266  139.6649  154.5003 N   0  3  1  0  0  0  0  0  0  0  0  0
  146.7552  139.2997  153.8274 C   0  0  0  0  0  0  0  0  0  0  0  0
  146.8815  139.2987  152.2915 C   0  0  0  0  0  0  0  0  0  0  0  0
  145.9889  138.3205  151.6807 N   0  0  0  0  0  0  0  0  0  0  0  0
  145.7404  137.0981  152.1724 C   0  0  0  0  0  0  0  0  0  0  0  0
  146.2546  136.6651  153.2037 O   0  0  0  0  0  0  0  0  0  0  0  0
  144.8726  136.4256  151.3986 N   0  0  0  0  0  0  0  0  0  0  0  0
  144.3844  135.1091  151.5952 C   0  0  0  0  0  0  0  0  0  0  0  0
  144.4422  134.0717  150.6250 C   0  0  0  0  0  0  0  0  0  0  0  0
  143.9119  132.9481  151.0862 N   0  0  0  0  0  0  0  0  0  0  0  0
  143.5154  133.2585  152.3412 N   0  0  0  0  0  0  0  0  0  0  0  0
  143.7838  134.5625  152.6946 C   0  0  0  0  0  0  0  0  0  0  0  0
  149.1413  138.7320  154.2070 C   0  0  0  0  0  0  0  0  0  0  0  0
  150.3962  139.1249  155.0074 C   0  0  1  0  0  0  0  0  0  0  0  0
  151.5980  138.2371  154.6654 C   0  0  0  0  0  0  0  0  0  0  0  0
  150.7479  140.4729  154.7073 O   0  0  0  0  0  0  0  0  0  0  0  0
  143.0683  132.5768  152.9379 H   0  0  0  0  0  0  0  0  0  0  0  0
  148.8230  142.4871  156.6504 H   0  0  0  0  0  0  0  0  0  0  0  0
  150.4491  141.9007  156.9730 H   0  0  0  0  0  0  0  0  0  0  0  0
  149.0878  140.7818  156.9715 H   0  0  0  0  0  0  0  0  0  0  0  0
  150.0871  142.3774  154.5626 H   0  0  0  0  0  0  0  0  0  0  0  0
  147.6362  141.7519  154.4763 H   0  0  0  0  0  0  0  0  0  0  0  0
  148.6015  141.1655  153.1376 H   0  0  0  0  0  0  0  0  0  0  0  0
  146.4596  138.2975  154.1415 H   0  0  0  0  0  0  0  0  0  0  0  0
  145.9620  139.9721  154.1583 H   0  0  0  0  0  0  0  0  0  0  0  0
  146.6706  140.2822  151.8710 H   0  0  0  0  0  0  0  0  0  0  0  0
  147.9035  139.0511  152.0034 H   0  0  0  0  0  0  0  0  0  0  0  0
  145.5217  138.5957  150.8288 H   0  0  0  0  0  0  0  0  0  0  0  0
  144.5229  136.9047  150.5817 H   0  0  0  0  0  0  0  0  0  0  0  0
  144.8424  134.0962  149.6221 H   0  0  0  0  0  0  0  0  0  0  0  0
  143.5287  134.9625  153.6648 H   0  0  0  0  0  0  0  0  0  0  0  0
  148.8605  137.7106  154.4619 H   0  0  0  0  0  0  0  0  0  0  0  0
  149.3555  138.7452  153.1371 H   0  0  0  0  0  0  0  0  0  0  0  0
  150.1961  139.0243  156.0743 H   0  0  0  0  0  0  0  0  0  0  0  0
  151.3893  137.1900  154.8862 H   0  0  0  0  0  0  0  0  0  0  0  0
  152.4749  138.5293  155.2437 H   0  0  0  0  0  0  0  0  0  0  0  0
  151.8563  138.3115  153.6086 H   0  0  0  0  0  0  0  0  0  0  0  0
  147.8525  139.6198  155.4942 H   0  0  0  0  0  0  0  0  0  0  0  0
  1  2  1  0  0  0  0
  1 21  1  0  0  0  0
  1 22  1  0  0  0  0
  1 23  1  0  0  0  0
  2 19  1  0  0  0  0
  2  3  1  0  0  0  0
  2 24  1  0  0  0  0
  3  4  1  0  0  0  0
  3 25  1  0  0  0  0
  3 26  1  0  0  0  0
  4  5  1  0  0  0  0
  4 16  1  0  0  0  0
  4 41  1  0  0  0  0
  5  6  1  0  0  0  0
  5 27  1  0  0  0  0
  5 28  1  0  0  0  0
  6  7  1  0  0  0  0
  6 29  1  0  0  0  0
  6 30  1  0  0  0  0
  7  8  1  0  0  0  0
  7 31  1  0  0  0  0
  8  9  2  0  0  0  0
  8 10  1  0  0  0  0
 10 11  1  0  0  0  0
 10 32  1  0  0  0  0
 11 15  2  0  0  0  0
 11 12  1  0  0  0  0
 12 13  2  0  0  0  0
 12 33  1  0  0  0  0
 13 14  1  0  0  0  0
 14 20  1  0  0  0  0
 14 15  1  0  0  0  0
 15 34  1  0  0  0  0
 16 17  1  0  0  0  0
 16 35  1  0  0  0  0
 16 36  1  0  0  0  0
 17 18  1  0  0  0  0
 17 19  1  0  0  0  0
 17 37  1  0  0  0  0
 18 38  1  0  0  0  0
 18 39  1  0  0  0  0
 18 40  1  0  0  0  0
M  CHG  1   4   1
M  END
> <s_m_source_file>
AV-unprocessed.smi

> <i_m_source_file_index>
1715

> <i_lp_mmshare_version>
43012

> <i_f3d_flags>
0

> <s_epik_input>
W0NIM11bQ0BASF0xW0NIMl1OKFtDSDJdW0NASF0oTzEpW0NIM10pW0NIMl1bQ0gyXVtOSF1DKD1PKVtOSF1jMltjSF1uW25IXVtjSF0y

> <s_epik_cmdline>
J2VwaWtfcHl0aG9uJywgJy1waCcsICc3LjAnLCAnLXRuJywgJzgnLCAnLW1hJywgJzIwMCcsICctbWV0YWxfYmluZGluZycsICctaW1hZScsICc8aW5maWxlLm1hZT4nLCAnLW9tYWUnLCAnPG91dGZpbGUubWFlPic=

> <r_lp_tautomer_probability>
0.5

> <r_epik_Ionization_Penalty>
0.646007

> <r_epik_Ionization_Penalty_Charging>
0.645968

> <r_epik_Ionization_Penalty_Neutral>
3.91671e-05

> <r_epik_State_Penalty>
0.664063

> <r_epik_Charging_Adjusted_Penalty>
1.31003

> <i_epik_Tot_Q>
1

> <i_epik_Tot_abs_Q>
1

> <r_epik_Metal_State_Penalty>
0.664064

> <b_epik_Metal_Only>
0

> <s_lp_Force_Field>
OPLS_2005

> <r_lp_Energy>
20.2841

> <b_lp_Chiralities_Consistent>
1

> <s_lp_Variant>
AV-unprocessed.smi:1715-4

> <Gold.Version>
5.8.1

> <Gold.Id.Protein>
6NUR|6NUR_protein|mol2

> <Gold.PLP.Fitness>
45.8342

> <Gold.PLP.PLP>
-32.9693

> <Gold.PLP.part.hbond>
-4.5108

> <Gold.PLP.part.metal>
0.0000

> <Gold.PLP.part.buried>
-4.0725

> <Gold.PLP.part.nonpolar>
-25.3388

> <Gold.PLP.part.repulsive>
0.6888

> <Gold.PLP.ligand.clash>
0.0000

> <Gold.PLP.ligand.torsion>
0.8329

> <Gold.PLP.Chemscore.Hbond>
3.8375

> <Gold.PLP.Chemscore.CHOScore>
1.0000

> <Gold.PLP.Chemscore.Metal>
0.0000

> <Gold.Chemscore.Hbonds>
donor molecule, donor type, donor heavy atom, donor atom, acceptor molecule, acceptor atom, score
      L1  H     7    31       P1 10171  0.96
      L1  H    10    32       P1 10171  0.96
      L1  H    14    20       P1 10957  0.74
      P1  H  7989  7998       L1    19  1.00
      L1  C    12    33       P1  7921  1.00

> <Gold.PLP.Chemscore.Internal.Correction>
0.0183

> <Gold.Rescore>
     Score         DG    S(hbond)    S(metal)    S(lipo)     H(rot)  DE(clash)    DE(int)     intcor
     19.25     -21.59       3.73        0.00      67.73       1.67       0.07       2.27       ----

> <Gold.Chemscore.Fitness>
19.2469

> <Gold.Chemscore.DG>
-21.5870

> <Gold.Chemscore.ZeroCoef>
-5.4800

> <Gold.Chemscore.Hbond>
3.7277

> <Gold.Chemscore.Metal>
0.0000

> <Gold.Chemscore.Lipo>
67.7272

> <Gold.Chemscore.Internal_Hbond>
0.0000

> <Gold.Chemscore.DEClash>
0.0724

> <Gold.Chemscore.DEInternal>
2.2677

> <Gold.Chemscore.Rot>
1.6671

> <Gold.Chemscore.Internal.Correction>
   9.000000E+99

> <Gold.Chemscore.Hbonds>
donor molecule, donor type, donor heavy atom, donor atom, acceptor molecule, acceptor atom, score
      L1  H     7    31       P1 10171  0.92
      L1  H    10    32       P1 10171  0.91
      L1  H    14    20       P1 10957  0.08
      P1  H  7989  7998       L1    19  0.76

> <Gold.Chemscore.Hbond.Weighted>
-12.4507

> <Gold.Chemscore.Metal.Weighted>
-0.0000

> <Gold.Chemscore.Lipo.Weighted>
-7.9241

> <Gold.Chemscore.Internal_Hbond.Weighted>
0.0000

> <Gold.Chemscore.DEClash.Weighted>
0.0724

> <Gold.Chemscore.DEInternal.Weighted>
2.2677

> <Gold.Chemscore.Rot.Weighted>
4.2677

> <Gold.Chemscore.Internal.Correction.Weighted>
   9.000000E+99

> <Gold.Protein.RotatedTorsions>
[ 6907 6896 6895 6894 ] final  112.65 input  -60.11 | X-H torsion
[ 7974 7965 7964 7962 ] final  -40.70 input  175.53 | X-H torsion
[ 8008 7997 7996 7995 ] final  -35.88 input   59.86 | X-H torsion
[ 10167 10162 10161 10158 ] final    4.53 input  -65.29 | X-H torsion
[ 10718 10713 10712 10709 ] final   49.88 input   66.30 | X-H torsion
[ 10763 10752 10751 10750 ] final  -56.37 input  -60.55 | X-H torsion
[ 11005 11000 10999 10996 ] final  119.50 input  -57.11 | X-H torsion

> <Gold.Protein.ActiveResidues>
 VAL166  LYS551  ARG553  GLY616  TRP617  ASP618  TYR619  PRO620  LYS621  CYS622 
 ASP623  PHE694  ASN695  SER759  ASP760  ASP761  ALA762  ILE779  LEU786  VAL792 
 PHE793  MET794  SER795  GLU796  ALA797  LYS798  CYS799  TRP800  GLU811  SER814 

> <Gold.Protein.RotatedAtoms>
  152.4905  133.8487  159.7189 H   0  0  0  0  0  0  0  0  0  0  0  0  # atno 6907 bound_to 6896
  150.9030  133.7085  159.2881 H   0  0  0  0  0  0  0  0  0  0  0  0  # atno 6908 bound_to 6896
  151.4520  135.1035  159.9753 H   0  0  0  0  0  0  0  0  0  0  0  0  # atno 6909 bound_to 6896
  146.0280  140.6767  142.9146 H   0  0  0  0  0  0  0  0  0  0  0  0  # atno 7974 bound_to 7965
  154.4085  140.1645  156.2283 H   0  0  0  0  0  0  0  0  0  0  0  0  # atno 8008 bound_to 7997
  155.9304  140.3415  155.6222 H   0  0  0  0  0  0  0  0  0  0  0  0  # atno 8009 bound_to 7997
  155.7113  140.0757  157.2360 H   0  0  0  0  0  0  0  0  0  0  0  0  # atno 8010 bound_to 7997
  140.6530  143.7498  150.7606 H   0  0  0  0  0  0  0  0  0  0  0  0  # atno 10167 bound_to 10162
  157.4830  130.8327  149.8115 H   0  0  0  0  0  0  0  0  0  0  0  0  # atno 10718 bound_to 10713
  154.2055  135.6403  153.5099 H   0  0  0  0  0  0  0  0  0  0  0  0  # atno 10763 bound_to 10752
  153.0002  135.5461  154.6270 H   0  0  0  0  0  0  0  0  0  0  0  0  # atno 10764 bound_to 10752
  154.5694  135.2915  155.0815 H   0  0  0  0  0  0  0  0  0  0  0  0  # atno 10765 bound_to 10752
  139.9149  134.9629  156.7664 H   0  0  0  0  0  0  0  0  0  0  0  0  # atno 11005 bound_to 11000
  144.7018  140.3685  143.7150 LP  0  0  0  0  0  0  0  0  0  0  0  0  # atno 17320 bound_to 7965
  145.7086  139.1679  143.2551 LP  0  0  0  0  0  0  0  0  0  0  0  0  # atno 17321 bound_to 7965
  140.1152  143.4662  152.2346 LP  0  0  0  0  0  0  0  0  0  0  0  0  # atno 17342 bound_to 10162
  139.5748  144.7481  151.3795 LP  0  0  0  0  0  0  0  0  0  0  0  0  # atno 17343 bound_to 10162
  156.0132  130.3824  150.2197 LP  0  0  0  0  0  0  0  0  0  0  0  0  # atno 17370 bound_to 10713
  157.0383  131.0028  151.3291 LP  0  0  0  0  0  0  0  0  0  0  0  0  # atno 17371 bound_to 10713
  140.6656  133.9606  155.7828 LP  0  0  0  0  0  0  0  0  0  0  0  0  # atno 17394 bound_to 11000
  141.0613  134.0342  157.3654 LP  0  0  0  0  0  0  0  0  0  0  0  0  # atno 17395 bound_to 11000

$$$$
