AV-unprocessed.smi:170|AV-procd|sdf|1413|dock2
  -GOLD-   2262019173D 1   1.00000     0.00000
 Structure written by MMmdl.
 57 61  0  0  0  0  0  0  0  0  1 V2000
  144.7925  143.8947  157.8981 O   0  0  0  0  0  0  0  0  0  0  0  0
  145.0058  143.7981  156.5021 C   0  0  1  0  0  0  0  0  0  0  0  0
  145.1883  142.3156  156.1194 C   0  0  0  0  0  0  0  0  0  0  0  0
  146.4506  141.7739  156.5910 N   0  0  0  0  0  0  0  0  0  0  0  0
  146.7796  141.4505  157.8885 C   0  0  0  0  0  0  0  0  0  0  0  0
  147.9876  140.9845  158.0566 N   0  0  0  0  0  0  0  0  0  0  0  0
  148.5288  140.9866  156.7774 C   0  0  0  0  0  0  0  0  0  0  0  0
  149.7911  140.6216  156.2402 C   0  0  0  0  0  0  0  0  0  0  0  0
  150.7851  140.1358  157.0212 N   0  0  0  0  0  0  0  0  0  0  0  0
  151.3977  138.9761  156.3818 C   0  0  0  0  0  0  0  0  0  0  0  0
  152.4062  138.3123  157.3274 C   0  0  0  0  0  0  0  0  0  0  0  0
  153.3748  139.2772  157.7123 O   0  0  0  0  0  0  0  0  0  0  0  0
  152.7894  140.3545  158.4338 C   0  0  0  0  0  0  0  0  0  0  0  0
  151.7523  141.1022  157.5616 C   0  0  2  0  0  0  0  0  0  0  0  0
  151.0587  142.2329  158.3673 C   0  0  0  0  0  0  0  0  0  0  0  0
  151.9644  143.4202  158.6885 C   0  0  0  0  0  0  0  0  0  0  0  0
  151.4384  144.5576  159.5774 C   0  0  0  0  0  0  0  0  0  0  0  0
  152.2598  145.5355  158.7327 C   0  0  0  0  0  0  0  0  0  0  0  0
  152.2371  144.4869  157.6172 C   0  0  0  0  0  0  0  0  0  0  0  0
  149.9704  140.7485  154.8981 N   0  0  0  0  0  0  0  0  0  0  0  0
  148.9814  141.2213  154.1337 C   0  0  0  0  0  0  0  0  0  0  0  0
  147.7577  141.6119  154.4978 N   0  0  0  0  0  0  0  0  0  0  0  0
  147.5742  141.4743  155.8424 C   0  0  0  0  0  0  0  0  0  0  0  0
  143.8183  144.4503  155.7699 C   0  0  1  0  0  0  0  0  0  0  0  0
  143.5813  145.9175  156.1348 C   0  0  0  0  0  0  0  0  0  0  0  0
  142.8552  146.4252  154.9107 C   0  0  0  0  0  0  0  0  0  0  0  0
  143.5853  145.6893  153.7922 C   0  0  0  0  0  0  0  0  0  0  0  0
  144.0454  144.4659  154.3616 O   0  0  0  0  0  0  0  0  0  0  0  0
  144.1380  143.2602  158.1463 H   0  0  0  0  0  0  0  0  0  0  0  0
  145.9183  144.3461  156.2635 H   0  0  0  0  0  0  0  0  0  0  0  0
  144.3750  141.7125  156.5256 H   0  0  0  0  0  0  0  0  0  0  0  0
  145.1540  142.1954  155.0360 H   0  0  0  0  0  0  0  0  0  0  0  0
  146.0933  141.5776  158.7130 H   0  0  0  0  0  0  0  0  0  0  0  0
  150.6318  138.2525  156.0983 H   0  0  0  0  0  0  0  0  0  0  0  0
  151.9002  139.2888  155.4650 H   0  0  0  0  0  0  0  0  0  0  0  0
  151.9084  137.8998  158.2066 H   0  0  0  0  0  0  0  0  0  0  0  0
  152.9069  137.4856  156.8238 H   0  0  0  0  0  0  0  0  0  0  0  0
  152.3304  139.9788  159.3499 H   0  0  0  0  0  0  0  0  0  0  0  0
  153.5951  141.0235  158.7341 H   0  0  0  0  0  0  0  0  0  0  0  0
  152.2852  141.5469  156.7197 H   0  0  0  0  0  0  0  0  0  0  0  0
  150.1922  142.6051  157.8216 H   0  0  0  0  0  0  0  0  0  0  0  0
  150.6587  141.8186  159.2934 H   0  0  0  0  0  0  0  0  0  0  0  0
  152.9184  143.0851  159.0996 H   0  0  0  0  0  0  0  0  0  0  0  0
  150.3635  144.7162  159.4760 H   0  0  0  0  0  0  0  0  0  0  0  0
  151.7375  144.4941  160.6241 H   0  0  0  0  0  0  0  0  0  0  0  0
  151.7528  146.4703  158.4924 H   0  0  0  0  0  0  0  0  0  0  0  0
  153.2602  145.7055  159.1340 H   0  0  0  0  0  0  0  0  0  0  0  0
  153.1795  144.3655  157.0825 H   0  0  0  0  0  0  0  0  0  0  0  0
  151.3995  144.6209  156.9305 H   0  0  0  0  0  0  0  0  0  0  0  0
  149.2026  141.2982  153.0793 H   0  0  0  0  0  0  0  0  0  0  0  0
  142.9032  143.8835  155.9505 H   0  0  0  0  0  0  0  0  0  0  0  0
  143.0065  146.0407  157.0531 H   0  0  0  0  0  0  0  0  0  0  0  0
  144.5293  146.4451  156.2507 H   0  0  0  0  0  0  0  0  0  0  0  0
  141.8083  146.1200  154.9436 H   0  0  0  0  0  0  0  0  0  0  0  0
  142.8939  147.5097  154.8048 H   0  0  0  0  0  0  0  0  0  0  0  0
  142.9460  145.5115  152.9269 H   0  0  0  0  0  0  0  0  0  0  0  0
  144.4522  146.2627  153.4610 H   0  0  0  0  0  0  0  0  0  0  0  0
  1  2  1  0  0  0  0
  1 29  1  0  0  0  0
  2  3  1  0  0  0  0
  2 24  1  0  0  0  0
  2 30  1  0  0  0  0
  3  4  1  0  0  0  0
  3 31  1  0  0  0  0
  3 32  1  0  0  0  0
  4 23  1  0  0  0  0
  4  5  1  0  0  0  0
  5  6  2  0  0  0  0
  5 33  1  0  0  0  0
  6  7  1  0  0  0  0
  7 23  2  0  0  0  0
  7  8  1  0  0  0  0
  8  9  1  0  0  0  0
  8 20  2  0  0  0  0
  9 14  1  0  0  0  0
  9 10  1  0  0  0  0
 10 11  1  0  0  0  0
 10 34  1  0  0  0  0
 10 35  1  0  0  0  0
 11 12  1  0  0  0  0
 11 36  1  0  0  0  0
 11 37  1  0  0  0  0
 12 13  1  0  0  0  0
 13 14  1  0  0  0  0
 13 38  1  0  0  0  0
 13 39  1  0  0  0  0
 14 15  1  0  0  0  0
 14 40  1  0  0  0  0
 15 16  1  0  0  0  0
 15 41  1  0  0  0  0
 15 42  1  0  0  0  0
 16 19  1  0  0  0  0
 16 17  1  0  0  0  0
 16 43  1  0  0  0  0
 17 18  1  0  0  0  0
 17 44  1  0  0  0  0
 17 45  1  0  0  0  0
 18 19  1  0  0  0  0
 18 46  1  0  0  0  0
 18 47  1  0  0  0  0
 19 48  1  0  0  0  0
 19 49  1  0  0  0  0
 20 21  1  0  0  0  0
 21 22  2  0  0  0  0
 21 50  1  0  0  0  0
 22 23  1  0  0  0  0
 24 28  1  0  0  0  0
 24 25  1  0  0  0  0
 24 51  1  0  0  0  0
 25 26  1  0  0  0  0
 25 52  1  0  0  0  0
 25 53  1  0  0  0  0
 26 27  1  0  0  0  0
 26 54  1  0  0  0  0
 26 55  1  0  0  0  0
 27 28  1  0  0  0  0
 27 56  1  0  0  0  0
 27 57  1  0  0  0  0
M  END
> <s_m_source_file>
AV-unprocessed.smi

> <i_m_source_file_index>
170

> <i_lp_mmshare_version>
43012

> <i_f3d_flags>
0

> <s_epik_input>
TzFbQ0gyXVtDSDJdW0NIMl1bQ0BIXTFbQ0BIXShbT0hdKVtDSDJdbihbY0hdbjIpYyhjMjMpbltjSF1uYzNONFtDSDJdW0NIMl1PW0NIMl1bQ0BIXTRbQ0gyXVtDSF01W0NIMl1bQ0gyXVtDSDJdNQ==

> <s_epik_cmdline>
J2VwaWtfcHl0aG9uJywgJy1waCcsICc3LjAnLCAnLXRuJywgJzgnLCAnLW1hJywgJzIwMCcsICctbWV0YWxfYmluZGluZycsICctaW1hZScsICc8aW5maWxlLm1hZT4nLCAnLW9tYWUnLCAnPG91dGZpbGUubWFlPic=

> <r_lp_tautomer_probability>
1

> <r_epik_Ionization_Penalty>
4.98275e-05

> <r_epik_Ionization_Penalty_Charging>
0

> <r_epik_Ionization_Penalty_Neutral>
4.98275e-05

> <r_epik_State_Penalty>
-0

> <r_epik_Charging_Adjusted_Penalty>
0

> <i_epik_Tot_Q>
0

> <i_epik_Tot_abs_Q>
0

> <r_epik_Metal_State_Penalty>
-0

> <b_epik_Metal_Only>
0

> <s_lp_Force_Field>
OPLS_2005

> <r_lp_Energy>
50.2735

> <b_lp_Chiralities_Consistent>
1

> <s_lp_Variant>
AV-unprocessed.smi:170-8

> <Gold.Version>
5.8.1

> <Gold.Id.Protein>
6NUR|6NUR_protein|mol2

> <Gold.PLP.Fitness>
51.7829

> <Gold.PLP.PLP>
-45.6643

> <Gold.PLP.part.hbond>
-2.5426

> <Gold.PLP.part.metal>
0.0000

> <Gold.PLP.part.buried>
-3.9808

> <Gold.PLP.part.nonpolar>
-38.1679

> <Gold.PLP.part.repulsive>
0.3921

> <Gold.PLP.ligand.clash>
0.0000

> <Gold.PLP.ligand.torsion>
0.9644

> <Gold.PLP.Chemscore.Hbond>
1.5591

> <Gold.PLP.Chemscore.CHOScore>
1.0000

> <Gold.PLP.Chemscore.Metal>
0.0000

> <Gold.Chemscore.Hbonds>
donor molecule, donor type, donor heavy atom, donor atom, acceptor molecule, acceptor atom, score
      P1  H  7989  7998       L1    20  0.51
      P1  H  7997  8010       L1    12  1.00
      L1  C    21    50       P1  7957  1.00

> <Gold.PLP.Chemscore.Internal.Correction>
0.3702

> <Gold.Rescore>
     Score         DG    S(hbond)    S(metal)    S(lipo)     H(rot)  DE(clash)    DE(int)     intcor
     12.77     -14.38       0.80        0.00     110.37       2.61       0.41       1.21       ----

> <Gold.Chemscore.Fitness>
12.7659

> <Gold.Chemscore.DG>
-14.3812

> <Gold.Chemscore.ZeroCoef>
-5.4800

> <Gold.Chemscore.Hbond>
0.8028

> <Gold.Chemscore.Metal>
0.0000

> <Gold.Chemscore.Lipo>
110.3667

> <Gold.Chemscore.Internal_Hbond>
0.0000

> <Gold.Chemscore.DEClash>
0.4057

> <Gold.Chemscore.DEInternal>
1.2097

> <Gold.Chemscore.Rot>
2.6144

> <Gold.Chemscore.Internal.Correction>
   9.000000E+99

> <Gold.Chemscore.Hbonds>
donor molecule, donor type, donor heavy atom, donor atom, acceptor molecule, acceptor atom, score
      P1  H  7989  7998       L1    20  0.11
      P1  H  7997  8010       L1    12  0.33

> <Gold.Chemscore.Hbond.Weighted>
-2.6813

> <Gold.Chemscore.Metal.Weighted>
-0.0000

> <Gold.Chemscore.Lipo.Weighted>
-12.9129

> <Gold.Chemscore.Internal_Hbond.Weighted>
0.0000

> <Gold.Chemscore.DEClash.Weighted>
0.4057

> <Gold.Chemscore.DEInternal.Weighted>
1.2097

> <Gold.Chemscore.Rot.Weighted>
6.6929

> <Gold.Chemscore.Internal.Correction.Weighted>
   9.000000E+99

> <Gold.Protein.RotatedTorsions>
[ 6907 6896 6895 6894 ] final   48.54 input  -60.11 | X-H torsion
[ 7974 7965 7964 7962 ] final -143.92 input  175.53 | X-H torsion
[ 8008 7997 7996 7995 ] final   58.85 input   59.86 | X-H torsion
[ 10167 10162 10161 10158 ] final -157.42 input  -65.29 | X-H torsion
[ 10718 10713 10712 10709 ] final  127.73 input   66.30 | X-H torsion
[ 10763 10752 10751 10750 ] final   47.91 input  -60.55 | X-H torsion
[ 11005 11000 10999 10996 ] final   13.30 input  -57.11 | X-H torsion

> <Gold.Protein.ActiveResidues>
 VAL166  LYS551  ARG553  GLY616  TRP617  ASP618  TYR619  PRO620  LYS621  CYS622 
 ASP623  PHE694  ASN695  SER759  ASP760  ASP761  ALA762  ILE779  LEU786  VAL792 
 PHE793  MET794  SER795  GLU796  ALA797  LYS798  CYS799  TRP800  GLU811  SER814 

> <Gold.Protein.RotatedAtoms>
  152.2807  134.7832  160.0396 H   0  0  0  0  0  0  0  0  0  0  0  0  # atno 6907 bound_to 6896
  151.8412  133.3419  159.3652 H   0  0  0  0  0  0  0  0  0  0  0  0  # atno 6908 bound_to 6896
  150.7188  134.5318  159.5748 H   0  0  0  0  0  0  0  0  0  0  0  0  # atno 6909 bound_to 6896
  144.8335  140.5775  143.5500 H   0  0  0  0  0  0  0  0  0  0  0  0  # atno 7974 bound_to 7965
  155.5567  140.3487  155.4481 H   0  0  0  0  0  0  0  0  0  0  0  0  # atno 8008 bound_to 7997
  156.0544  140.1325  157.0039 H   0  0  0  0  0  0  0  0  0  0  0  0  # atno 8009 bound_to 7997
  154.4449  140.0998  156.6408 H   0  0  0  0  0  0  0  0  0  0  0  0  # atno 8010 bound_to 7997
  139.6772  143.9643  152.2317 H   0  0  0  0  0  0  0  0  0  0  0  0  # atno 10167 bound_to 10162
  157.5307  131.1098  150.9013 H   0  0  0  0  0  0  0  0  0  0  0  0  # atno 10718 bound_to 10713
  152.9796  135.5961  154.3840 H   0  0  0  0  0  0  0  0  0  0  0  0  # atno 10763 bound_to 10752
  154.3502  135.2767  155.2378 H   0  0  0  0  0  0  0  0  0  0  0  0  # atno 10764 bound_to 10752
  154.4421  135.6010  153.6191 H   0  0  0  0  0  0  0  0  0  0  0  0  # atno 10765 bound_to 10752
  140.4823  134.0923  155.7753 H   0  0  0  0  0  0  0  0  0  0  0  0  # atno 11005 bound_to 11000
  145.4845  139.1493  143.3743 LP  0  0  0  0  0  0  0  0  0  0  0  0  # atno 17320 bound_to 7965
  146.2636  140.4982  142.8843 LP  0  0  0  0  0  0  0  0  0  0  0  0  # atno 17321 bound_to 7965
  139.9423  144.6673  150.8254 LP  0  0  0  0  0  0  0  0  0  0  0  0  # atno 17342 bound_to 10162
  140.7639  143.3236  151.2566 LP  0  0  0  0  0  0  0  0  0  0  0  0  # atno 17343 bound_to 10162
  156.9595  130.5450  149.5285 LP  0  0  0  0  0  0  0  0  0  0  0  0  # atno 17370 bound_to 10713
  156.0420  130.5502  150.8794 LP  0  0  0  0  0  0  0  0  0  0  0  0  # atno 17371 bound_to 10713
  141.1525  133.8943  157.2061 LP  0  0  0  0  0  0  0  0  0  0  0  0  # atno 17394 bound_to 11000
  139.9819  135.0095  156.9770 LP  0  0  0  0  0  0  0  0  0  0  0  0  # atno 17395 bound_to 11000

$$$$
