AV-unprocessed.smi:675|AV-procd|sdf|3304|dock4
  -GOLD-   22720 0263D 1   1.00000     0.00000
 Structure written by MMmdl.
 29 30  0  0  0  0  0  0  0  0  1 V2000
  147.0043  139.2644  152.4370 O   0  0  0  0  0  0  0  0  0  0  0  0
  147.8833  139.6594  153.2006 C   0  0  0  0  0  0  0  0  0  0  0  0
  148.9832  138.8418  153.4781 N   0  0  0  0  0  0  0  0  0  0  0  0
  150.0460  139.1671  154.3217 C   0  0  0  0  0  0  0  0  0  0  0  0
  150.9580  138.3590  154.4953 O   0  0  0  0  0  0  0  0  0  0  0  0
  150.0013  140.4382  154.9397 N   0  0  0  0  0  0  0  0  0  0  0  0
  151.0698  140.8010  155.8393 C   0  0  0  0  0  0  0  0  0  0  0  0
  150.5952  140.9990  157.2958 C   0  0  1  0  0  0  0  0  0  0  0  0
  150.8033  139.7986  158.0160 O   0  0  0  0  0  0  0  0  0  0  0  0
  151.3119  142.1838  157.9428 C   0  0  0  0  0  0  0  0  0  0  0  0
  150.9644  143.5066  157.5803 C   0  0  0  0  0  0  0  0  0  0  0  0
  151.6100  144.6073  158.1745 C   0  0  0  0  0  0  0  0  0  0  0  0
  152.6071  144.3984  159.1440 C   0  0  0  0  0  0  0  0  0  0  0  0
  152.9521  143.0880  159.5223 C   0  0  0  0  0  0  0  0  0  0  0  0
  152.3086  141.9819  158.9315 C   0  0  0  0  0  0  0  0  0  0  0  0
  152.7563  140.3953  159.4551 Cl  0  0  0  0  0  0  0  0  0  0  0  0
  148.9252  141.2788  154.6993 C   0  0  0  0  0  0  0  0  0  0  0  0
  147.8960  140.9539  153.8805 C   0  0  0  0  0  0  0  0  0  0  0  0
  146.5900  142.0572  153.6338 Cl  0  0  0  0  0  0  0  0  0  0  0  0
  149.0099  137.9369  153.0311 H   0  0  0  0  0  0  0  0  0  0  0  0
  151.8964  140.0945  155.7348 H   0  0  0  0  0  0  0  0  0  0  0  0
  151.4442  141.7436  155.4355 H   0  0  0  0  0  0  0  0  0  0  0  0
  149.5211  141.1819  157.3162 H   0  0  0  0  0  0  0  0  0  0  0  0
  150.0226  139.6077  158.5128 H   0  0  0  0  0  0  0  0  0  0  0  0
  150.1946  143.6896  156.8450 H   0  0  0  0  0  0  0  0  0  0  0  0
  151.3374  145.6123  157.8878 H   0  0  0  0  0  0  0  0  0  0  0  0
  153.1026  145.2420  159.6015 H   0  0  0  0  0  0  0  0  0  0  0  0
  153.7119  142.9316  160.2741 H   0  0  0  0  0  0  0  0  0  0  0  0
  148.9012  142.2413  155.1908 H   0  0  0  0  0  0  0  0  0  0  0  0
  1  2  2  0  0  0  0
  2 18  1  0  0  0  0
  2  3  1  0  0  0  0
  3 20  1  0  0  0  0
  3  4  1  0  0  0  0
  4  5  2  0  0  0  0
  4  6  1  0  0  0  0
  6  7  1  0  0  0  0
  6 17  1  0  0  0  0
  7  8  1  0  0  0  0
  7 21  1  0  0  0  0
  7 22  1  0  0  0  0
  8  9  1  0  0  0  0
  8 10  1  0  0  0  0
  8 23  1  0  0  0  0
  9 24  1  0  0  0  0
 10 15  1  0  0  0  0
 10 11  2  0  0  0  0
 11 12  1  0  0  0  0
 11 25  1  0  0  0  0
 12 13  2  0  0  0  0
 12 26  1  0  0  0  0
 13 14  1  0  0  0  0
 13 27  1  0  0  0  0
 14 15  2  0  0  0  0
 14 28  1  0  0  0  0
 15 16  1  0  0  0  0
 17 18  2  0  0  0  0
 17 29  1  0  0  0  0
 18 19  1  0  0  0  0
M  END
> <s_m_source_file>
AV-unprocessed.smi

> <i_m_source_file_index>
675

> <i_lp_mmshare_version>
43012

> <i_f3d_flags>
0

> <s_epik_input>
Tz1jMVtuSF1jKD1PKW4oW2NIXWMxQ2wpW0NIMl1bQ0BIXShbT0hdKWMyW2NIXVtjSF1bY0hdW2NIXWMyQ2w=

> <s_epik_cmdline>
J2VwaWtfcHl0aG9uJywgJy1waCcsICc3LjAnLCAnLXRuJywgJzgnLCAnLW1hJywgJzIwMCcsICctbWV0YWxfYmluZGluZycsICctaW1hZScsICc8aW5maWxlLm1hZT4nLCAnLW9tYWUnLCAnPG91dGZpbGUubWFlPic=

> <r_lp_tautomer_probability>
0.999537

> <r_epik_Ionization_Penalty>
0.029206

> <r_epik_Ionization_Penalty_Charging>
0.0292057

> <r_epik_Ionization_Penalty_Neutral>
2.68278e-07

> <r_epik_State_Penalty>
0.0240115

> <r_epik_Charging_Adjusted_Penalty>
0.0532172

> <i_epik_Tot_Q>
0

> <i_epik_Tot_abs_Q>
0

> <r_epik_Metal_State_Penalty>
2.21956

> <b_epik_Metal_Only>
0

> <s_lp_Force_Field>
OPLS_2005

> <r_lp_Energy>
14.2263

> <b_lp_Chiralities_Consistent>
1

> <s_lp_Variant>
AV-unprocessed.smi:675-2

> <Gold.Version>
5.8.1

> <Gold.Id.Protein>
6NUR|6NUR_protein|mol2

> <Gold.PLP.Fitness>
47.3450

> <Gold.PLP.PLP>
-43.4056

> <Gold.PLP.part.hbond>
-1.8695

> <Gold.PLP.part.metal>
0.0000

> <Gold.PLP.part.buried>
-2.6118

> <Gold.PLP.part.nonpolar>
-39.7369

> <Gold.PLP.part.repulsive>
1.1181

> <Gold.PLP.ligand.clash>
0.0715

> <Gold.PLP.ligand.torsion>
0.8666

> <Gold.PLP.Chemscore.Hbond>
0.9100

> <Gold.PLP.Chemscore.CHOScore>
0.9995

> <Gold.PLP.Chemscore.Metal>
0.0000

> <Gold.Chemscore.Hbonds>
donor molecule, donor type, donor heavy atom, donor atom, acceptor molecule, acceptor atom, score
      L1  H     3    20       P1  7948  0.98
      L1  C    17    29       P1  8028  1.00

> <Gold.PLP.Chemscore.Internal.Correction>
0.0157

> <Gold.Rescore>
     Score         DG    S(hbond)    S(metal)    S(lipo)     H(rot)  DE(clash)    DE(int)     intcor
     13.30     -15.86       0.93        0.00     109.71       2.18       0.13       2.44       ----

> <Gold.Chemscore.Fitness>
13.2959

> <Gold.Chemscore.DG>
-15.8637

> <Gold.Chemscore.ZeroCoef>
-5.4800

> <Gold.Chemscore.Hbond>
0.9346

> <Gold.Chemscore.Metal>
0.0000

> <Gold.Chemscore.Lipo>
109.7143

> <Gold.Chemscore.Internal_Hbond>
0.0000

> <Gold.Chemscore.DEClash>
0.1315

> <Gold.Chemscore.DEInternal>
2.4363

> <Gold.Chemscore.Rot>
2.1775

> <Gold.Chemscore.Internal.Correction>
   9.000000E+99

> <Gold.Chemscore.Hbonds>
donor molecule, donor type, donor heavy atom, donor atom, acceptor molecule, acceptor atom, score
      L1  H     3    20       P1  7948  0.91

> <Gold.Chemscore.Hbond.Weighted>
-3.1216

> <Gold.Chemscore.Metal.Weighted>
-0.0000

> <Gold.Chemscore.Lipo.Weighted>
-12.8366

> <Gold.Chemscore.Internal_Hbond.Weighted>
0.0000

> <Gold.Chemscore.DEClash.Weighted>
0.1315

> <Gold.Chemscore.DEInternal.Weighted>
2.4363

> <Gold.Chemscore.Rot.Weighted>
5.5745

> <Gold.Chemscore.Internal.Correction.Weighted>
   9.000000E+99

> <Gold.Protein.RotatedTorsions>
[ 6907 6896 6895 6894 ] final -150.63 input  -60.11 | X-H torsion
[ 7974 7965 7964 7962 ] final  -38.44 input  175.53 | X-H torsion
[ 8008 7997 7996 7995 ] final  176.71 input   59.86 | X-H torsion
[ 10167 10162 10161 10158 ] final   47.14 input  -65.29 | X-H torsion
[ 10718 10713 10712 10709 ] final -155.76 input   66.30 | X-H torsion
[ 10763 10752 10751 10750 ] final  168.28 input  -60.55 | X-H torsion
[ 11005 11000 10999 10996 ] final    4.99 input  -57.11 | X-H torsion

> <Gold.Protein.ActiveResidues>
 VAL166  LYS551  ARG553  GLY616  TRP617  ASP618  TYR619  PRO620  LYS621  CYS622 
 ASP623  PHE694  ASN695  SER759  ASP760  ASP761  ALA762  ILE779  LEU786  VAL792 
 PHE793  MET794  SER795  GLU796  ALA797  LYS798  CYS799  TRP800  GLU811  SER814 

> <Gold.Protein.RotatedAtoms>
  151.2013  133.4609  159.2596 H   0  0  0  0  0  0  0  0  0  0  0  0  # atno 6907 bound_to 6896
  151.1066  135.0003  159.8484 H   0  0  0  0  0  0  0  0  0  0  0  0  # atno 6908 bound_to 6896
  152.5447  134.1936  159.8737 H   0  0  0  0  0  0  0  0  0  0  0  0  # atno 6909 bound_to 6896
  146.0486  140.6512  142.9052 H   0  0  0  0  0  0  0  0  0  0  0  0  # atno 7974 bound_to 7965
  156.0735  140.1377  156.9799 H   0  0  0  0  0  0  0  0  0  0  0  0  # atno 8008 bound_to 7997
  154.4545  140.0967  156.6767 H   0  0  0  0  0  0  0  0  0  0  0  0  # atno 8009 bound_to 7997
  155.5189  140.3455  155.4405 H   0  0  0  0  0  0  0  0  0  0  0  0  # atno 8010 bound_to 7997
  140.3067  144.2869  150.6208 H   0  0  0  0  0  0  0  0  0  0  0  0  # atno 10167 bound_to 10162
  156.5173  130.8462  151.2669 H   0  0  0  0  0  0  0  0  0  0  0  0  # atno 10718 bound_to 10713
  154.3662  135.2753  155.2292 H   0  0  0  0  0  0  0  0  0  0  0  0  # atno 10763 bound_to 10752
  154.4459  135.5943  153.6163 H   0  0  0  0  0  0  0  0  0  0  0  0  # atno 10764 bound_to 10752
  152.9840  135.6030  154.3888 H   0  0  0  0  0  0  0  0  0  0  0  0  # atno 10765 bound_to 10752
  140.5757  134.0060  155.8027 H   0  0  0  0  0  0  0  0  0  0  0  0  # atno 11005 bound_to 11000
  144.7111  140.4041  143.7080 LP  0  0  0  0  0  0  0  0  0  0  0  0  # atno 17320 bound_to 7965
  145.6763  139.1609  143.2726 LP  0  0  0  0  0  0  0  0  0  0  0  0  # atno 17321 bound_to 7965
  140.5604  143.2193  151.7775 LP  0  0  0  0  0  0  0  0  0  0  0  0  # atno 17342 bound_to 10162
  139.4903  144.4357  151.9822 LP  0  0  0  0  0  0  0  0  0  0  0  0  # atno 17343 bound_to 10162
  157.7442  130.9929  150.2654 LP  0  0  0  0  0  0  0  0  0  0  0  0  # atno 17370 bound_to 10713
  156.3183  130.3782  149.7598 LP  0  0  0  0  0  0  0  0  0  0  0  0  # atno 17371 bound_to 10713
  141.1028  133.9741  157.3050 LP  0  0  0  0  0  0  0  0  0  0  0  0  # atno 17394 bound_to 11000
  139.9340  135.0198  156.8496 LP  0  0  0  0  0  0  0  0  0  0  0  0  # atno 17395 bound_to 11000

$$$$
