AV-unprocessed.smi:2816|AV-procd|sdf|10845|dock2
  -GOLD-   2272015283D 1   1.00000     0.00000
 Structure written by MMmdl.
 43 45  0  0  0  0  0  0  0  0  1 V2000
  152.6397  129.2743  157.2389 C   0  0  0  0  0  0  0  0  0  0  0  0
  151.9427  130.1068  156.1486 C   0  0  0  0  0  0  0  0  0  0  0  0
  152.9400  131.1202  155.5583 C   0  0  0  0  0  0  0  0  0  0  0  0
  151.4151  129.1684  155.0476 C   0  0  0  0  0  0  0  0  0  0  0  0
  150.5271  131.0163  156.9456 S   0  0  0  0  0  0  0  0  0  0  0  0
  149.5945  130.0247  157.5048 O   0  0  0  0  0  0  0  0  0  0  0  0
  151.0954  132.0447  157.8318 O   0  0  0  0  0  0  0  0  0  0  0  0
  149.6755  131.8651  155.6137 C   0  0  0  0  0  0  0  0  0  0  0  0
  150.0790  133.1607  155.2321 C   0  0  0  0  0  0  0  0  0  0  0  0
  149.4153  133.7716  154.1519 C   0  0  0  0  0  0  0  0  0  0  0  0
  148.3840  133.0636  153.4899 C   0  0  0  0  0  0  0  0  0  0  0  0
  147.6694  133.5803  152.3989 N   0  0  0  0  0  0  0  0  0  0  0  0
  146.5535  132.8512  151.8079 C   0  0  1  0  0  0  0  0  0  0  0  0
  145.2317  133.0553  152.5612 C   0  0  0  0  0  0  0  0  0  0  0  0
  144.3109  133.5787  151.4525 C   0  0  2  0  0  0  0  0  0  0  0  0
  143.9849  132.5008  150.4096 C   0  0  0  0  0  0  0  0  0  0  0  0
  145.3071  132.3919  149.6506 C   0  0  0  0  0  0  0  0  0  0  0  0
  146.1927  133.3881  150.4118 C   0  0  1  0  0  0  0  0  0  0  0  0
  145.2279  134.3788  150.7279 O   0  0  0  0  0  0  0  0  0  0  0  0
  148.0697  131.7690  153.9576 C   0  0  0  0  0  0  0  0  0  0  0  0
  148.6994  131.1710  154.9907 N   0  0  0  0  0  0  0  0  0  0  0  0
  153.4835  128.7147  156.8336 H   0  0  0  0  0  0  0  0  0  0  0  0
  151.9533  128.5559  157.6884 H   0  0  0  0  0  0  0  0  0  0  0  0
  153.0208  129.9089  158.0395 H   0  0  0  0  0  0  0  0  0  0  0  0
  153.2997  131.8143  156.3183 H   0  0  0  0  0  0  0  0  0  0  0  0
  152.4891  131.7092  154.7596 H   0  0  0  0  0  0  0  0  0  0  0  0
  153.8104  130.6161  155.1369 H   0  0  0  0  0  0  0  0  0  0  0  0
  152.2202  128.5657  154.6262 H   0  0  0  0  0  0  0  0  0  0  0  0
  150.9670  129.7232  154.2242 H   0  0  0  0  0  0  0  0  0  0  0  0
  150.6614  128.4827  155.4351 H   0  0  0  0  0  0  0  0  0  0  0  0
  150.8774  133.6735  155.7476 H   0  0  0  0  0  0  0  0  0  0  0  0
  149.7093  134.7646  153.8477 H   0  0  0  0  0  0  0  0  0  0  0  0
  147.7677  134.5594  152.1702 H   0  0  0  0  0  0  0  0  0  0  0  0
  146.8171  131.7955  151.7341 H   0  0  0  0  0  0  0  0  0  0  0  0
  144.8588  132.1355  153.0122 H   0  0  0  0  0  0  0  0  0  0  0  0
  145.3276  133.8028  153.3504 H   0  0  0  0  0  0  0  0  0  0  0  0
  143.4379  134.1181  151.8210 H   0  0  0  0  0  0  0  0  0  0  0  0
  143.6801  131.5602  150.8690 H   0  0  0  0  0  0  0  0  0  0  0  0
  143.1874  132.8308  149.7431 H   0  0  0  0  0  0  0  0  0  0  0  0
  145.7164  131.3813  149.6527 H   0  0  0  0  0  0  0  0  0  0  0  0
  145.1780  132.7052  148.6140 H   0  0  0  0  0  0  0  0  0  0  0  0
  147.0418  133.7487  149.8298 H   0  0  0  0  0  0  0  0  0  0  0  0
  147.2919  131.1888  153.4823 H   0  0  0  0  0  0  0  0  0  0  0  0
  1  2  1  0  0  0  0
  1 22  1  0  0  0  0
  1 23  1  0  0  0  0
  1 24  1  0  0  0  0
  2  3  1  0  0  0  0
  2  4  1  0  0  0  0
  2  5  1  0  0  0  0
  3 25  1  0  0  0  0
  3 26  1  0  0  0  0
  3 27  1  0  0  0  0
  4 28  1  0  0  0  0
  4 29  1  0  0  0  0
  4 30  1  0  0  0  0
  5  6  2  0  0  0  0
  5  7  2  0  0  0  0
  5  8  1  0  0  0  0
  8 21  1  0  0  0  0
  8  9  2  0  0  0  0
  9 10  1  0  0  0  0
  9 31  1  0  0  0  0
 10 11  2  0  0  0  0
 10 32  1  0  0  0  0
 11 12  1  0  0  0  0
 11 20  1  0  0  0  0
 12 13  1  0  0  0  0
 12 33  1  0  0  0  0
 13 18  1  0  0  0  0
 13 14  1  0  0  0  0
 13 34  1  0  0  0  0
 14 15  1  0  0  0  0
 14 35  1  0  0  0  0
 14 36  1  0  0  0  0
 15 19  1  0  0  0  0
 15 16  1  0  0  0  0
 15 37  1  0  0  0  0
 16 17  1  0  0  0  0
 16 38  1  0  0  0  0
 16 39  1  0  0  0  0
 17 18  1  0  0  0  0
 17 40  1  0  0  0  0
 17 41  1  0  0  0  0
 18 19  1  0  0  0  0
 18 42  1  0  0  0  0
 20 21  2  0  0  0  0
 20 43  1  0  0  0  0
M  END
> <s_m_source_file>
AV-unprocessed.smi

> <i_m_source_file_index>
2816

> <i_lp_mmshare_version>
43012

> <i_f3d_flags>
0

> <s_epik_input>
W0NIM11DKFtDSDNdKShbQ0gzXSlTKD1PKSg9TyljMVtjSF1bY0hdYyhbY0hdbjEpW05IXVtDQEhdKFtDSDJdW0NAQEhdMjMpW0NAQEhdKE8zKVtDSDJdW0NIMl0y

> <s_epik_cmdline>
J2VwaWtfcHl0aG9uJywgJy1waCcsICc3LjAnLCAnLXRuJywgJzgnLCAnLW1hJywgJzIwMCcsICctbWV0YWxfYmluZGluZycsICctaW1hZScsICc8aW5maWxlLm1hZT4nLCAnLW9tYWUnLCAnPG91dGZpbGUubWFlPic=

> <r_lp_tautomer_probability>
1

> <r_epik_Ionization_Penalty>
1.94439e-07

> <r_epik_Ionization_Penalty_Charging>
0

> <r_epik_Ionization_Penalty_Neutral>
1.94439e-07

> <r_epik_State_Penalty>
-0

> <r_epik_Charging_Adjusted_Penalty>
0

> <i_epik_Tot_Q>
0

> <i_epik_Tot_abs_Q>
0

> <r_epik_Metal_State_Penalty>
-0

> <b_epik_Metal_Only>
0

> <s_lp_Force_Field>
OPLS_2005

> <r_lp_Energy>
42.0373

> <b_lp_Chiralities_Consistent>
1

> <s_lp_Variant>
AV-unprocessed.smi:2816-4

> <Gold.Version>
5.8.1

> <Gold.Id.Protein>
6NUR|6NUR_protein|mol2

> <Gold.PLP.Fitness>
38.0094

> <Gold.PLP.PLP>
-32.6866

> <Gold.PLP.part.hbond>
-2.0000

> <Gold.PLP.part.metal>
0.0000

> <Gold.PLP.part.buried>
-3.6746

> <Gold.PLP.part.nonpolar>
-26.3645

> <Gold.PLP.part.repulsive>
0.4295

> <Gold.PLP.ligand.clash>
0.0000

> <Gold.PLP.ligand.torsion>
1.4602

> <Gold.PLP.Chemscore.Hbond>
2.0000

> <Gold.PLP.Chemscore.CHOScore>
0.0000

> <Gold.PLP.Chemscore.Metal>
0.0000

> <Gold.Chemscore.Hbonds>
donor molecule, donor type, donor heavy atom, donor atom, acceptor molecule, acceptor atom, score
      L1  H    12    33       P1  7948  0.99
      P1  H  6896  6909       L1     7  1.00

> <Gold.PLP.Chemscore.Internal.Correction>
2.2432

> <Gold.Rescore>
     Score         DG    S(hbond)    S(metal)    S(lipo)     H(rot)  DE(clash)    DE(int)     intcor
     15.73     -17.23       1.52        0.00      82.05       1.15       0.05       1.45       ----

> <Gold.Chemscore.Fitness>
15.7306

> <Gold.Chemscore.DG>
-17.2346

> <Gold.Chemscore.ZeroCoef>
-5.4800

> <Gold.Chemscore.Hbond>
1.5243

> <Gold.Chemscore.Metal>
0.0000

> <Gold.Chemscore.Lipo>
82.0528

> <Gold.Chemscore.Internal_Hbond>
0.0000

> <Gold.Chemscore.DEClash>
0.0524

> <Gold.Chemscore.DEInternal>
1.4515

> <Gold.Chemscore.Rot>
1.1471

> <Gold.Chemscore.Internal.Correction>
   9.000000E+99

> <Gold.Chemscore.Hbonds>
donor molecule, donor type, donor heavy atom, donor atom, acceptor molecule, acceptor atom, score
      L1  H    12    33       P1  7948  0.44
      P1  H  6896  6909       L1     7  0.99

> <Gold.Chemscore.Hbond.Weighted>
-5.0910

> <Gold.Chemscore.Metal.Weighted>
-0.0000

> <Gold.Chemscore.Lipo.Weighted>
-9.6002

> <Gold.Chemscore.Internal_Hbond.Weighted>
0.0000

> <Gold.Chemscore.DEClash.Weighted>
0.0524

> <Gold.Chemscore.DEInternal.Weighted>
1.4515

> <Gold.Chemscore.Rot.Weighted>
2.9366

> <Gold.Chemscore.Internal.Correction.Weighted>
   9.000000E+99

> <Gold.Protein.RotatedTorsions>
[ 6907 6896 6895 6894 ] final  -55.86 input  -60.11 | X-H torsion
[ 7974 7965 7964 7962 ] final   19.41 input  175.53 | X-H torsion
[ 8008 7997 7996 7995 ] final -152.24 input   59.86 | X-H torsion
[ 10167 10162 10161 10158 ] final  122.80 input  -65.29 | X-H torsion
[ 10718 10713 10712 10709 ] final  132.34 input   66.30 | X-H torsion
[ 10763 10752 10751 10750 ] final -172.91 input  -60.55 | X-H torsion
[ 11005 11000 10999 10996 ] final -116.08 input  -57.11 | X-H torsion

> <Gold.Protein.ActiveResidues>
 VAL166  LYS551  ARG553  GLY616  TRP617  ASP618  TYR619  PRO620  LYS621  CYS622 
 ASP623  PHE694  ASN695  SER759  ASP760  ASP761  ALA762  ILE779  LEU786  VAL792 
 PHE793  MET794  SER795  GLU796  ALA797  LYS798  CYS799  TRP800  GLU811  SER814 

> <Gold.Protein.RotatedAtoms>
  150.8216  134.7427  159.6776 H   0  0  0  0  0  0  0  0  0  0  0  0  # atno 6907 bound_to 6896
  152.4331  134.5736  159.9938 H   0  0  0  0  0  0  0  0  0  0  0  0  # atno 6908 bound_to 6896
  151.5918  133.3328  159.3065 H   0  0  0  0  0  0  0  0  0  0  0  0  # atno 6909 bound_to 6896
  146.2150  139.8318  142.8658 H   0  0  0  0  0  0  0  0  0  0  0  0  # atno 7974 bound_to 7965
  155.6520  140.0713  157.2583 H   0  0  0  0  0  0  0  0  0  0  0  0  # atno 8008 bound_to 7997
  154.4160  140.1731  156.1735 H   0  0  0  0  0  0  0  0  0  0  0  0  # atno 8009 bound_to 7997
  155.9769  140.3357  155.6630 H   0  0  0  0  0  0  0  0  0  0  0  0  # atno 8010 bound_to 7997
  139.5837  144.6997  151.3463 H   0  0  0  0  0  0  0  0  0  0  0  0  # atno 10167 bound_to 10162
  157.4881  131.1089  150.9593 H   0  0  0  0  0  0  0  0  0  0  0  0  # atno 10718 bound_to 10713
  154.6139  135.2867  155.0402 H   0  0  0  0  0  0  0  0  0  0  0  0  # atno 10763 bound_to 10752
  154.1622  135.6486  153.4992 H   0  0  0  0  0  0  0  0  0  0  0  0  # atno 10764 bound_to 10752
  153.0206  135.5381  154.6902 H   0  0  0  0  0  0  0  0  0  0  0  0  # atno 10765 bound_to 10752
  141.0446  133.9783  157.2939 H   0  0  0  0  0  0  0  0  0  0  0  0  # atno 11005 bound_to 11000
  145.2990  141.0189  143.3620 LP  0  0  0  0  0  0  0  0  0  0  0  0  # atno 17320 bound_to 7965
  144.9020  139.4637  143.6628 LP  0  0  0  0  0  0  0  0  0  0  0  0  # atno 17321 bound_to 7965
  140.7112  143.7385  150.7570 LP  0  0  0  0  0  0  0  0  0  0  0  0  # atno 17342 bound_to 10162
  140.0924  143.4865  152.2471 LP  0  0  0  0  0  0  0  0  0  0  0  0  # atno 17343 bound_to 10162
  157.0304  130.5709  149.5342 LP  0  0  0  0  0  0  0  0  0  0  0  0  # atno 17370 bound_to 10713
  156.0158  130.5252  150.8129 LP  0  0  0  0  0  0  0  0  0  0  0  0  # atno 17371 bound_to 10713
  139.9301  135.0200  156.8372 LP  0  0  0  0  0  0  0  0  0  0  0  0  # atno 17394 bound_to 11000
  140.6171  134.0028  155.7602 LP  0  0  0  0  0  0  0  0  0  0  0  0  # atno 17395 bound_to 11000

$$$$
