AV-unprocessed.smi:193|AV-procd|sdf|1517|dock6
  -GOLD-   2262019353D 1   1.00000     0.00000
 Structure written by MMmdl.
 61 65  0  0  0  0  0  0  0  0  1 V2000
  149.7782  141.6546  155.3160 C   0  0  0  0  0  0  0  0  0  0  0  0
  150.4572  141.0981  156.5765 C   0  0  1  0  0  0  0  0  0  0  0  0
  151.2321  139.8094  156.2273 C   0  0  0  0  0  0  0  0  0  0  0  0
  151.4120  138.9045  157.3663 N   0  0  0  0  0  0  0  0  0  0  0  0
  150.5730  137.8410  157.4509 C   0  0  0  0  0  0  0  0  0  0  0  0
  149.7603  137.7009  158.5327 N   0  0  0  0  0  0  0  0  0  0  0  0
  148.9569  136.6389  158.6396 C   0  0  0  0  0  0  0  0  0  0  0  0
  148.8105  135.6150  157.7967 N   0  0  0  0  0  0  0  0  0  0  0  0
  149.6176  135.7526  156.7062 C   0  0  0  0  0  0  0  0  0  0  0  0
  150.5229  136.8230  156.4576 C   0  0  0  0  0  0  0  0  0  0  0  0
  151.1740  136.6205  155.2464 N   0  0  0  0  0  0  0  0  0  0  0  0
  150.6875  135.4914  154.8085 C   0  0  0  0  0  0  0  0  0  0  0  0
  149.7419  134.9047  155.6192 N   0  0  0  0  0  0  0  0  0  0  0  0
  149.0442  133.6504  155.3775 C   0  0  0  0  0  0  0  0  0  0  0  0
  149.8370  132.3903  155.8063 C   0  0  0  0  0  0  0  0  0  0  0  0
  149.1039  131.7419  156.8310 O   0  0  0  0  0  0  0  0  0  0  0  0
  150.0392  131.3909  154.6461 C   0  0  0  0  0  0  0  0  0  0  0  0
  151.0074  130.2545  155.0210 C   0  0  0  0  0  0  0  0  0  0  0  0
  152.2450  130.7924  155.4703 O   0  0  0  0  0  0  0  0  0  0  0  0
  152.1077  131.5713  156.6523 C   0  0  0  0  0  0  0  0  0  0  0  0
  151.2131  132.7924  156.3749 C   0  0  0  0  0  0  0  0  0  0  0  0
  151.7529  139.4489  158.6799 C   0  0  0  0  0  0  0  0  0  0  0  0
  152.6402  140.7027  158.6298 C   0  0  0  0  0  0  0  0  0  0  0  0
  151.8082  141.9022  158.5516 N   0  0  0  0  0  0  0  0  0  0  0  0
  152.5870  143.0443  159.0120 C   0  0  2  0  0  0  0  0  0  0  0  0
  152.5630  143.3605  160.4909 C   0  0  0  0  0  0  0  0  0  0  0  0
  151.8549  144.2744  159.5192 C   0  0  2  0  0  0  0  0  0  0  0  0
  150.3418  144.3827  159.5390 C   0  0  0  0  0  0  0  0  0  0  0  0
  151.3926  142.1724  157.1749 C   0  0  0  0  0  0  0  0  0  0  0  0
  150.5116  141.9135  154.5515 H   0  0  0  0  0  0  0  0  0  0  0  0
  149.2013  142.5517  155.5424 H   0  0  0  0  0  0  0  0  0  0  0  0
  149.0901  140.9258  154.8864 H   0  0  0  0  0  0  0  0  0  0  0  0
  149.6610  140.8702  157.2872 H   0  0  0  0  0  0  0  0  0  0  0  0
  150.7296  139.2779  155.4175 H   0  0  0  0  0  0  0  0  0  0  0  0
  152.2132  140.0609  155.8237 H   0  0  0  0  0  0  0  0  0  0  0  0
  148.3470  136.6020  159.5302 H   0  0  0  0  0  0  0  0  0  0  0  0
  151.0032  135.0549  153.8721 H   0  0  0  0  0  0  0  0  0  0  0  0
  148.0935  133.6906  155.9106 H   0  0  0  0  0  0  0  0  0  0  0  0
  148.7924  133.5976  154.3173 H   0  0  0  0  0  0  0  0  0  0  0  0
  148.8796  132.3801  157.4909 H   0  0  0  0  0  0  0  0  0  0  0  0
  149.0865  130.9662  154.3280 H   0  0  0  0  0  0  0  0  0  0  0  0
  150.4436  131.9206  153.7826 H   0  0  0  0  0  0  0  0  0  0  0  0
  150.5779  129.6106  155.7900 H   0  0  0  0  0  0  0  0  0  0  0  0
  151.1948  129.6240  154.1515 H   0  0  0  0  0  0  0  0  0  0  0  0
  151.7022  130.9603  157.4603 H   0  0  0  0  0  0  0  0  0  0  0  0
  153.0970  131.8992  156.9724 H   0  0  0  0  0  0  0  0  0  0  0  0
  151.7247  133.4368  155.6587 H   0  0  0  0  0  0  0  0  0  0  0  0
  151.0937  133.3835  157.2841 H   0  0  0  0  0  0  0  0  0  0  0  0
  150.8465  139.6415  159.2568 H   0  0  0  0  0  0  0  0  0  0  0  0
  152.3013  138.6826  159.2274 H   0  0  0  0  0  0  0  0  0  0  0  0
  153.1902  140.7347  159.5715 H   0  0  0  0  0  0  0  0  0  0  0  0
  153.3912  140.6606  157.8396 H   0  0  0  0  0  0  0  0  0  0  0  0
  153.5368  143.2467  158.5192 H   0  0  0  0  0  0  0  0  0  0  0  0
  151.9499  142.7318  161.1343 H   0  0  0  0  0  0  0  0  0  0  0  0
  153.4848  143.7236  160.9406 H   0  0  0  0  0  0  0  0  0  0  0  0
  152.3471  145.2232  159.3143 H   0  0  0  0  0  0  0  0  0  0  0  0
  149.8815  143.4295  159.8003 H   0  0  0  0  0  0  0  0  0  0  0  0
  149.9752  144.6898  158.5597 H   0  0  0  0  0  0  0  0  0  0  0  0
  150.0316  145.1259  160.2736 H   0  0  0  0  0  0  0  0  0  0  0  0
  152.2669  142.3117  156.5368 H   0  0  0  0  0  0  0  0  0  0  0  0
  150.8624  143.1255  157.1736 H   0  0  0  0  0  0  0  0  0  0  0  0
  1  2  1  0  0  0  0
  1 30  1  0  0  0  0
  1 31  1  0  0  0  0
  1 32  1  0  0  0  0
  2 29  1  0  0  0  0
  2  3  1  0  0  0  0
  2 33  1  0  0  0  0
  3  4  1  0  0  0  0
  3 34  1  0  0  0  0
  3 35  1  0  0  0  0
  4  5  1  0  0  0  0
  4 22  1  0  0  0  0
  5 10  1  0  0  0  0
  5  6  2  0  0  0  0
  6  7  1  0  0  0  0
  7  8  2  0  0  0  0
  7 36  1  0  0  0  0
  8  9  1  0  0  0  0
  9 13  1  0  0  0  0
  9 10  2  0  0  0  0
 10 11  1  0  0  0  0
 11 12  2  0  0  0  0
 12 13  1  0  0  0  0
 12 37  1  0  0  0  0
 13 14  1  0  0  0  0
 14 15  1  0  0  0  0
 14 38  1  0  0  0  0
 14 39  1  0  0  0  0
 15 21  1  0  0  0  0
 15 16  1  0  0  0  0
 15 17  1  0  0  0  0
 16 40  1  0  0  0  0
 17 18  1  0  0  0  0
 17 41  1  0  0  0  0
 17 42  1  0  0  0  0
 18 19  1  0  0  0  0
 18 43  1  0  0  0  0
 18 44  1  0  0  0  0
 19 20  1  0  0  0  0
 20 21  1  0  0  0  0
 20 45  1  0  0  0  0
 20 46  1  0  0  0  0
 21 47  1  0  0  0  0
 21 48  1  0  0  0  0
 22 23  1  0  0  0  0
 22 49  1  0  0  0  0
 22 50  1  0  0  0  0
 23 24  1  0  0  0  0
 23 51  1  0  0  0  0
 23 52  1  0  0  0  0
 24 25  1  0  0  0  0
 24 29  1  0  0  0  0
 25 27  1  0  0  0  0
 25 26  1  0  0  0  0
 25 53  1  0  0  0  0
 26 27  1  0  0  0  0
 26 54  1  0  0  0  0
 26 55  1  0  0  0  0
 27 28  1  0  0  0  0
 27 56  1  0  0  0  0
 28 57  1  0  0  0  0
 28 58  1  0  0  0  0
 28 59  1  0  0  0  0
 29 60  1  0  0  0  0
 29 61  1  0  0  0  0
M  END
> <s_m_source_file>
AV-unprocessed.smi

> <i_m_source_file_index>
193

> <i_lp_mmshare_version>
43012

> <i_f3d_flags>
0

> <s_epik_input>
W0NIM11bQ0BASF0xW0NIMl1bQ0BIXTFOKFtDSDJdMilbQ0gyXVtDSDJdTihbQ0gyXVtDQEhdMltDSDNdKWMobltjSF1uMyljKGMzNCluW2NIXW40W0NIMl1DNShbT0hdKVtDSDJdW0NIMl1PW0NIMl1bQ0gyXTU=

> <s_epik_cmdline>
J2VwaWtfcHl0aG9uJywgJy1waCcsICc3LjAnLCAnLXRuJywgJzgnLCAnLW1hJywgJzIwMCcsICctbWV0YWxfYmluZGluZycsICctaW1hZScsICc8aW5maWxlLm1hZT4nLCAnLW9tYWUnLCAnPG91dGZpbGUubWFlPic=

> <r_lp_tautomer_probability>
1

> <r_epik_Ionization_Penalty>
1.45227

> <r_epik_Ionization_Penalty_Charging>
0

> <r_epik_Ionization_Penalty_Neutral>
1.45227

> <r_epik_State_Penalty>
2.02377

> <r_epik_Charging_Adjusted_Penalty>
2.02377

> <i_epik_Tot_Q>
0

> <i_epik_Tot_abs_Q>
0

> <r_epik_Metal_State_Penalty>
2.01937

> <b_epik_Metal_Only>
0

> <s_lp_Force_Field>
OPLS_2005

> <r_lp_Energy>
53.149

> <b_lp_Chiralities_Consistent>
1

> <s_lp_Variant>
AV-unprocessed.smi:193-22

> <Gold.Version>
5.8.1

> <Gold.Id.Protein>
6NUR|6NUR_protein|mol2

> <Gold.PLP.Fitness>
42.7570

> <Gold.PLP.PLP>
-43.5250

> <Gold.PLP.part.hbond>
-0.7288

> <Gold.PLP.part.metal>
0.0000

> <Gold.PLP.part.buried>
-5.2311

> <Gold.PLP.part.nonpolar>
-36.6655

> <Gold.PLP.part.repulsive>
0.1154

> <Gold.PLP.ligand.clash>
0.0000

> <Gold.PLP.ligand.torsion>
2.3913

> <Gold.PLP.Chemscore.Hbond>
0.0278

> <Gold.PLP.Chemscore.CHOScore>
0.7380

> <Gold.PLP.Chemscore.Metal>
0.0000

> <Gold.Chemscore.Hbonds>
donor molecule, donor type, donor heavy atom, donor atom, acceptor molecule, acceptor atom, score
      P1  H 10752 10765       L1    11  0.02
      L1  C    12    37       P1  7949  0.73

> <Gold.PLP.Chemscore.Internal.Correction>
1.7174

> <Gold.Rescore>
     Score         DG    S(hbond)    S(metal)    S(lipo)     H(rot)  DE(clash)    DE(int)     intcor
     11.10     -13.54       0.00        0.00     116.27       2.17       0.05       2.39       ----

> <Gold.Chemscore.Fitness>
11.0964

> <Gold.Chemscore.DG>
-13.5422

> <Gold.Chemscore.ZeroCoef>
-5.4800

> <Gold.Chemscore.Hbond>
0.0015

> <Gold.Chemscore.Metal>
0.0000

> <Gold.Chemscore.Lipo>
116.2665

> <Gold.Chemscore.Internal_Hbond>
0.0000

> <Gold.Chemscore.DEClash>
0.0515

> <Gold.Chemscore.DEInternal>
2.3943

> <Gold.Chemscore.Rot>
2.1664

> <Gold.Chemscore.Internal.Correction>
   9.000000E+99

> <Gold.Chemscore.Hbond.Weighted>
-0.0049

> <Gold.Chemscore.Metal.Weighted>
-0.0000

> <Gold.Chemscore.Lipo.Weighted>
-13.6032

> <Gold.Chemscore.Internal_Hbond.Weighted>
0.0000

> <Gold.Chemscore.DEClash.Weighted>
0.0515

> <Gold.Chemscore.DEInternal.Weighted>
2.3943

> <Gold.Chemscore.Rot.Weighted>
5.5459

> <Gold.Chemscore.Internal.Correction.Weighted>
   9.000000E+99

> <Gold.Protein.RotatedTorsions>
[ 6907 6896 6895 6894 ] final   53.70 input  -60.11 | X-H torsion
[ 7974 7965 7964 7962 ] final  -42.55 input  175.53 | X-H torsion
[ 8008 7997 7996 7995 ] final  -32.78 input   59.86 | X-H torsion
[ 10167 10162 10161 10158 ] final -177.85 input  -65.29 | X-H torsion
[ 10718 10713 10712 10709 ] final  154.38 input   66.30 | X-H torsion
[ 10763 10752 10751 10750 ] final -154.16 input  -60.55 | X-H torsion
[ 11005 11000 10999 10996 ] final   59.97 input  -57.11 | X-H torsion

> <Gold.Protein.ActiveResidues>
 VAL166  LYS551  ARG553  GLY616  TRP617  ASP618  TYR619  PRO620  LYS621  CYS622 
 ASP623  PHE694  ASN695  SER759  ASP760  ASP761  ALA762  ILE779  LEU786  VAL792 
 PHE793  MET794  SER795  GLU796  ALA797  LYS798  CYS799  TRP800  GLU811  SER814 

> <Gold.Protein.RotatedAtoms>
  152.3364  134.7192  160.0275 H   0  0  0  0  0  0  0  0  0  0  0  0  # atno 6907 bound_to 6896
  151.7592  133.3327  159.3421 H   0  0  0  0  0  0  0  0  0  0  0  0  # atno 6908 bound_to 6896
  150.7453  134.6054  159.6103 H   0  0  0  0  0  0  0  0  0  0  0  0  # atno 6909 bound_to 6896
  146.0105  140.6970  142.9226 H   0  0  0  0  0  0  0  0  0  0  0  0  # atno 7974 bound_to 7965
  154.4169  140.1728  156.1782 H   0  0  0  0  0  0  0  0  0  0  0  0  # atno 8008 bound_to 7997
  155.9704  140.3386  155.6547 H   0  0  0  0  0  0  0  0  0  0  0  0  # atno 8009 bound_to 7997
  155.6633  140.0703  157.2537 H   0  0  0  0  0  0  0  0  0  0  0  0  # atno 8010 bound_to 7997
  139.5460  144.2234  152.0989 H   0  0  0  0  0  0  0  0  0  0  0  0  # atno 10167 bound_to 10162
  157.2323  131.0742  151.1845 H   0  0  0  0  0  0  0  0  0  0  0  0  # atno 10718 bound_to 10713
  154.7878  135.3196  154.7846 H   0  0  0  0  0  0  0  0  0  0  0  0  # atno 10763 bound_to 10752
  153.8542  135.6859  153.4793 H   0  0  0  0  0  0  0  0  0  0  0  0  # atno 10764 bound_to 10752
  153.1536  135.4689  154.9612 H   0  0  0  0  0  0  0  0  0  0  0  0  # atno 10765 bound_to 10752
  140.0265  134.6075  155.9566 H   0  0  0  0  0  0  0  0  0  0  0  0  # atno 11005 bound_to 11000
  144.6951  140.3390  143.7202 LP  0  0  0  0  0  0  0  0  0  0  0  0  # atno 17320 bound_to 7965
  145.7349  139.1747  143.2409 LP  0  0  0  0  0  0  0  0  0  0  0  0  # atno 17321 bound_to 7965
  140.1720  144.4926  150.6574 LP  0  0  0  0  0  0  0  0  0  0  0  0  # atno 17342 bound_to 10162
  140.6709  143.2285  151.5628 LP  0  0  0  0  0  0  0  0  0  0  0  0  # atno 17343 bound_to 10162
  157.3465  130.7060  149.6414 LP  0  0  0  0  0  0  0  0  0  0  0  0  # atno 17370 bound_to 10713
  155.9674  130.4265  150.4701 LP  0  0  0  0  0  0  0  0  0  0  0  0  # atno 17371 bound_to 10713
  141.1806  133.6546  156.5003 LP  0  0  0  0  0  0  0  0  0  0  0  0  # atno 17394 bound_to 11000
  140.4298  134.7112  157.4935 LP  0  0  0  0  0  0  0  0  0  0  0  0  # atno 17395 bound_to 11000

$$$$
