AV-unprocessed.smi:484|AV-procd|sdf|2687|dock3
  -GOLD-   2262023113D 1   1.00000     0.00000
 Structure written by MMmdl.
 46 48  0  0  0  0  0  0  0  0  1 V2000
  151.4161  144.5813  158.0419 C   0  0  0  0  0  0  0  0  0  0  0  0
  151.8356  143.5124  159.0569 C   0  0  0  0  0  0  0  0  0  0  0  0
  151.4822  142.1118  158.5936 C   0  0  0  0  0  0  0  0  0  0  0  0
  151.7906  140.9990  159.4010 C   0  0  0  0  0  0  0  0  0  0  0  0
  151.4676  139.6995  158.9662 C   0  0  0  0  0  0  0  0  0  0  0  0
  150.8333  139.4893  157.7249 C   0  0  0  0  0  0  0  0  0  0  0  0
  150.5534  138.1849  157.3798 O   0  0  0  0  0  0  0  0  0  0  0  0
  150.1029  137.9190  156.0573 C   0  0  0  0  0  0  0  0  0  0  0  0
  150.3617  136.4463  155.7021 C   0  0  2  0  0  0  0  0  0  0  0  0
  150.5946  136.3385  154.3120 O   0  0  0  0  0  0  0  0  0  0  0  0
  149.2434  135.4918  156.1691 C   0  0  0  0  0  0  0  0  0  0  0  0
  149.0494  134.3697  155.2610 N   0  0  0  0  0  0  0  0  0  0  0  0
  149.8148  133.2574  155.1277 C   0  0  0  0  0  0  0  0  0  0  0  0
  151.0353  133.0221  155.9639 C   0  0  0  0  0  0  0  0  0  0  0  0
  150.7493  132.9831  157.3456 O   0  0  0  0  0  0  0  0  0  0  0  0
  149.4096  132.3801  154.2089 N   0  0  0  0  0  0  0  0  0  0  0  0
  148.2717  132.9763  153.7012 C   0  0  0  0  0  0  0  0  0  0  0  0
  147.3794  132.5427  152.6944 C   0  0  0  0  0  0  0  0  0  0  0  0
  146.2661  133.3322  152.3390 C   0  0  0  0  0  0  0  0  0  0  0  0
  146.0294  134.5637  152.9836 C   0  0  0  0  0  0  0  0  0  0  0  0
  146.9062  135.0143  153.9891 C   0  0  0  0  0  0  0  0  0  0  0  0
  148.0164  134.2227  154.3402 C   0  0  0  0  0  0  0  0  0  0  0  0
  150.5257  140.6129  156.9166 C   0  0  0  0  0  0  0  0  0  0  0  0
  150.8495  141.9133  157.3502 C   0  0  0  0  0  0  0  0  0  0  0  0
  151.6789  145.5781  158.3963 H   0  0  0  0  0  0  0  0  0  0  0  0
  150.3390  144.5613  157.8720 H   0  0  0  0  0  0  0  0  0  0  0  0
  151.9101  144.4282  157.0818 H   0  0  0  0  0  0  0  0  0  0  0  0
  152.9101  143.5707  159.2338 H   0  0  0  0  0  0  0  0  0  0  0  0
  151.3562  143.7065  160.0171 H   0  0  0  0  0  0  0  0  0  0  0  0
  152.2776  141.1384  160.3551 H   0  0  0  0  0  0  0  0  0  0  0  0
  151.7097  138.8539  159.5931 H   0  0  0  0  0  0  0  0  0  0  0  0
  149.0426  138.1541  155.9485 H   0  0  0  0  0  0  0  0  0  0  0  0
  150.6562  138.5492  155.3591 H   0  0  0  0  0  0  0  0  0  0  0  0
  151.2953  136.1537  156.1827 H   0  0  0  0  0  0  0  0  0  0  0  0
  149.7819  136.5057  153.8594 H   0  0  0  0  0  0  0  0  0  0  0  0
  149.4658  135.1079  157.1646 H   0  0  0  0  0  0  0  0  0  0  0  0
  148.2971  136.0261  156.2593 H   0  0  0  0  0  0  0  0  0  0  0  0
  151.4919  132.0741  155.6768 H   0  0  0  0  0  0  0  0  0  0  0  0
  151.7756  133.7974  155.7687 H   0  0  0  0  0  0  0  0  0  0  0  0
  150.1374  132.2812  157.5052 H   0  0  0  0  0  0  0  0  0  0  0  0
  147.5525  131.6010  152.1950 H   0  0  0  0  0  0  0  0  0  0  0  0
  145.5907  132.9911  151.5680 H   0  0  0  0  0  0  0  0  0  0  0  0
  145.1745  135.1622  152.7056 H   0  0  0  0  0  0  0  0  0  0  0  0
  146.7286  135.9577  154.4832 H   0  0  0  0  0  0  0  0  0  0  0  0
  150.0423  140.5046  155.9577 H   0  0  0  0  0  0  0  0  0  0  0  0
  150.6106  142.7595  156.7226 H   0  0  0  0  0  0  0  0  0  0  0  0
  1  2  1  0  0  0  0
  1 25  1  0  0  0  0
  1 26  1  0  0  0  0
  1 27  1  0  0  0  0
  2  3  1  0  0  0  0
  2 28  1  0  0  0  0
  2 29  1  0  0  0  0
  3 24  1  0  0  0  0
  3  4  2  0  0  0  0
  4  5  1  0  0  0  0
  4 30  1  0  0  0  0
  5  6  2  0  0  0  0
  5 31  1  0  0  0  0
  6  7  1  0  0  0  0
  6 23  1  0  0  0  0
  7  8  1  0  0  0  0
  8  9  1  0  0  0  0
  8 32  1  0  0  0  0
  8 33  1  0  0  0  0
  9 10  1  0  0  0  0
  9 11  1  0  0  0  0
  9 34  1  0  0  0  0
 10 35  1  0  0  0  0
 11 12  1  0  0  0  0
 11 36  1  0  0  0  0
 11 37  1  0  0  0  0
 12 22  1  0  0  0  0
 12 13  1  0  0  0  0
 13 14  1  0  0  0  0
 13 16  2  0  0  0  0
 14 15  1  0  0  0  0
 14 38  1  0  0  0  0
 14 39  1  0  0  0  0
 15 40  1  0  0  0  0
 16 17  1  0  0  0  0
 17 22  2  0  0  0  0
 17 18  1  0  0  0  0
 18 19  2  0  0  0  0
 18 41  1  0  0  0  0
 19 20  1  0  0  0  0
 19 42  1  0  0  0  0
 20 21  2  0  0  0  0
 20 43  1  0  0  0  0
 21 22  1  0  0  0  0
 21 44  1  0  0  0  0
 23 24  2  0  0  0  0
 23 45  1  0  0  0  0
 24 46  1  0  0  0  0
M  END
> <s_m_source_file>
AV-unprocessed.smi

> <i_m_source_file_index>
484

> <i_lp_mmshare_version>
43012

> <i_f3d_flags>
0

> <s_epik_input>
W0NIM11bQ0gyXWMxW2NIXVtjSF1jKFtjSF1bY0hdMSlPW0NIMl1bQ0BIXShbT0hdKVtDSDJdbihjKG4yKVtDSDJdW09IXSljKGMyMylbY0hdW2NIXVtjSF1bY0hdMw==

> <s_epik_cmdline>
J2VwaWtfcHl0aG9uJywgJy1waCcsICc3LjAnLCAnLXRuJywgJzgnLCAnLW1hJywgJzIwMCcsICctbWV0YWxfYmluZGluZycsICctaW1hZScsICc8aW5maWxlLm1hZT4nLCAnLW9tYWUnLCAnPG91dGZpbGUubWFlPic=

> <r_lp_tautomer_probability>
1

> <r_epik_Ionization_Penalty>
0.0555463

> <r_epik_Ionization_Penalty_Charging>
0

> <r_epik_Ionization_Penalty_Neutral>
0.0555463

> <r_epik_State_Penalty>
0.0477854

> <r_epik_Charging_Adjusted_Penalty>
0.0477854

> <i_epik_Tot_Q>
0

> <i_epik_Tot_abs_Q>
0

> <r_epik_Metal_State_Penalty>
4.97632e-05

> <b_epik_Metal_Only>
0

> <s_lp_Force_Field>
OPLS_2005

> <r_lp_Energy>
15.7427

> <b_lp_Chiralities_Consistent>
1

> <s_lp_Variant>
AV-unprocessed.smi:484-1

> <Gold.Version>
5.8.1

> <Gold.Id.Protein>
6NUR|6NUR_protein|mol2

> <Gold.PLP.Fitness>
45.0262

> <Gold.PLP.PLP>
-40.8598

> <Gold.PLP.part.hbond>
-3.4865

> <Gold.PLP.part.metal>
0.0000

> <Gold.PLP.part.buried>
-4.5449

> <Gold.PLP.part.nonpolar>
-33.0272

> <Gold.PLP.part.repulsive>
0.0352

> <Gold.PLP.ligand.clash>
0.0000

> <Gold.PLP.ligand.torsion>
1.2218

> <Gold.PLP.Chemscore.Hbond>
2.1554

> <Gold.PLP.Chemscore.CHOScore>
0.0000

> <Gold.PLP.Chemscore.Metal>
0.0000

> <Gold.Chemscore.Hbonds>
donor molecule, donor type, donor heavy atom, donor atom, acceptor molecule, acceptor atom, score
      L1  H    10    35       P1  7948  0.53
      P1  H  6896  6908       L1    15  0.91

> <Gold.PLP.Chemscore.Internal.Correction>
0.1437

> <Gold.Rescore>
     Score         DG    S(hbond)    S(metal)    S(lipo)     H(rot)  DE(clash)    DE(int)     intcor
     15.04     -16.25       1.94        0.00     104.07       3.08       0.01       1.20       ----

> <Gold.Chemscore.Fitness>
15.0351

> <Gold.Chemscore.DG>
-16.2482

> <Gold.Chemscore.ZeroCoef>
-5.4800

> <Gold.Chemscore.Hbond>
1.9380

> <Gold.Chemscore.Metal>
0.0000

> <Gold.Chemscore.Lipo>
104.0673

> <Gold.Chemscore.Internal_Hbond>
0.0000

> <Gold.Chemscore.DEClash>
0.0143

> <Gold.Chemscore.DEInternal>
1.1988

> <Gold.Chemscore.Rot>
3.0783

> <Gold.Chemscore.Internal.Correction>
   9.000000E+99

> <Gold.Chemscore.Hbonds>
donor molecule, donor type, donor heavy atom, donor atom, acceptor molecule, acceptor atom, score
      L1  H    10    35       P1  7948  0.25
      P1  H  6896  6908       L1    15  0.26
      P1  H 10752 10765       L1    10  0.01

> <Gold.Chemscore.Hbond.Weighted>
-6.4728

> <Gold.Chemscore.Metal.Weighted>
-0.0000

> <Gold.Chemscore.Lipo.Weighted>
-12.1759

> <Gold.Chemscore.Internal_Hbond.Weighted>
0.0000

> <Gold.Chemscore.DEClash.Weighted>
0.0143

> <Gold.Chemscore.DEInternal.Weighted>
1.1988

> <Gold.Chemscore.Rot.Weighted>
7.8805

> <Gold.Chemscore.Internal.Correction.Weighted>
   9.000000E+99

> <Gold.Protein.RotatedTorsions>
[ 6907 6896 6895 6894 ] final   77.43 input  -60.11 | X-H torsion
[ 7974 7965 7964 7962 ] final  -15.07 input  175.53 | X-H torsion
[ 8008 7997 7996 7995 ] final  -29.23 input   59.86 | X-H torsion
[ 10167 10162 10161 10158 ] final  -52.51 input  -65.29 | X-H torsion
[ 10718 10713 10712 10709 ] final   93.33 input   66.30 | X-H torsion
[ 10763 10752 10751 10750 ] final  171.18 input  -60.55 | X-H torsion
[ 11005 11000 10999 10996 ] final  167.33 input  -57.11 | X-H torsion

> <Gold.Protein.ActiveResidues>
 VAL166  LYS551  ARG553  GLY616  TRP617  ASP618  TYR619  PRO620  LYS621  CYS622 
 ASP623  PHE694  ASN695  SER759  ASP760  ASP761  ALA762  ILE779  LEU786  VAL792 
 PHE793  MET794  SER795  GLU796  ALA797  LYS798  CYS799  TRP800  GLU811  SER814 

> <Gold.Protein.RotatedAtoms>
  152.5117  134.3818  159.9353 H   0  0  0  0  0  0  0  0  0  0  0  0  # atno 6907 bound_to 6896
  151.3775  133.3826  159.2714 H   0  0  0  0  0  0  0  0  0  0  0  0  # atno 6908 bound_to 6896
  150.9530  134.8948  159.7742 H   0  0  0  0  0  0  0  0  0  0  0  0  # atno 6909 bound_to 6896
  146.2048  140.3439  142.8411 H   0  0  0  0  0  0  0  0  0  0  0  0  # atno 7974 bound_to 7965
  154.4298  140.1824  156.1216 H   0  0  0  0  0  0  0  0  0  0  0  0  # atno 8008 bound_to 7997
  156.0139  140.3348  155.6943 H   0  0  0  0  0  0  0  0  0  0  0  0  # atno 8009 bound_to 7997
  155.6072  140.0646  157.2707 H   0  0  0  0  0  0  0  0  0  0  0  0  # atno 8010 bound_to 7997
  140.6533  143.2581  151.4659 H   0  0  0  0  0  0  0  0  0  0  0  0  # atno 10167 bound_to 10162
  157.6955  131.0474  150.4018 H   0  0  0  0  0  0  0  0  0  0  0  0  # atno 10718 bound_to 10713
  154.4083  135.2756  155.2053 H   0  0  0  0  0  0  0  0  0  0  0  0  # atno 10763 bound_to 10752
  154.4050  135.6036  153.5922 H   0  0  0  0  0  0  0  0  0  0  0  0  # atno 10764 bound_to 10752
  152.9831  135.5935  154.4360 H   0  0  0  0  0  0  0  0  0  0  0  0  # atno 10765 bound_to 10752
  140.2756  134.7791  157.3714 H   0  0  0  0  0  0  0  0  0  0  0  0  # atno 11005 bound_to 11000
  144.8766  140.7344  143.6013 LP  0  0  0  0  0  0  0  0  0  0  0  0  # atno 17320 bound_to 7965
  145.3359  139.1746  143.4512 LP  0  0  0  0  0  0  0  0  0  0  0  0  # atno 17321 bound_to 7965
  139.5752  144.1836  152.1892 LP  0  0  0  0  0  0  0  0  0  0  0  0  # atno 17342 bound_to 10162
  140.1145  144.5428  150.6903 LP  0  0  0  0  0  0  0  0  0  0  0  0  # atno 17343 bound_to 10162
  156.4410  130.3991  149.6697 LP  0  0  0  0  0  0  0  0  0  0  0  0  # atno 17370 bound_to 10713
  156.3880  130.7613  151.2611 LP  0  0  0  0  0  0  0  0  0  0  0  0  # atno 17371 bound_to 10713
  140.1331  134.5069  155.8089 LP  0  0  0  0  0  0  0  0  0  0  0  0  # atno 17394 bound_to 11000
  141.2171  133.6797  156.7076 LP  0  0  0  0  0  0  0  0  0  0  0  0  # atno 17395 bound_to 11000

$$$$
