AV-unprocessed.smi:1790|AV-procd|sdf|7216|dock2
  -GOLD-   22720 8453D 1   1.00000     0.00000
 Structure written by MMmdl.
 33 34  0  0  0  0  0  0  0  0  1 V2000
  150.3198  138.9703  157.7718 O   0  0  0  0  0  0  0  0  0  0  0  0
  150.7809  140.1053  157.6622 C   0  0  0  0  0  0  0  0  0  0  0  0
  151.9799  140.5058  158.5209 C   0  0  0  0  0  0  0  0  0  0  0  0
  151.9505  141.9079  158.7375 O   0  0  0  0  0  0  0  0  0  0  0  0
  152.6763  142.2974  159.8898 C   0  0  0  0  0  0  0  0  0  0  0  0
  152.7525  143.8084  159.9318 C   0  0  0  0  0  0  0  0  0  0  0  0
  151.6764  144.6143  160.6240 C   0  0  0  0  0  0  0  0  0  0  0  0
  151.7897  144.6457  159.1209 C   0  0  0  0  0  0  0  0  0  0  0  0
  150.3373  141.0498  156.8084 N   0  0  0  0  0  0  0  0  0  0  0  0
  149.2668  141.0096  155.8989 C   0  0  0  0  0  0  0  0  0  0  0  0
  148.0178  141.4875  156.1404 C   0  0  0  0  0  0  0  0  0  0  0  0
  146.9587  141.4156  155.1477 C   0  0  0  0  0  0  0  0  0  0  0  0
  145.5812  142.0039  155.4119 C   0  0  0  0  0  0  0  0  0  0  0  0
  145.2245  142.8576  154.4514 F   0  0  0  0  0  0  0  0  0  0  0  0
  144.6741  141.0293  155.4592 F   0  0  0  0  0  0  0  0  0  0  0  0
  145.5551  142.6507  156.5773 F   0  0  0  0  0  0  0  0  0  0  0  0
  147.2853  140.8757  153.9591 C   0  0  0  0  0  0  0  0  0  0  0  0
  148.5661  140.3821  153.7024 N   0  0  0  0  0  0  0  0  0  0  0  0
  149.5848  140.4134  154.5905 C   0  0  0  0  0  0  0  0  0  0  0  0
  150.6883  139.9629  154.2845 O   0  0  0  0  0  0  0  0  0  0  0  0
  148.7298  139.9838  152.7891 H   0  0  0  0  0  0  0  0  0  0  0  0
  151.9487  139.9740  159.4736 H   0  0  0  0  0  0  0  0  0  0  0  0
  152.8973  140.2175  158.0054 H   0  0  0  0  0  0  0  0  0  0  0  0
  152.1775  141.9404  160.7920 H   0  0  0  0  0  0  0  0  0  0  0  0
  153.6831  141.8762  159.8717 H   0  0  0  0  0  0  0  0  0  0  0  0
  153.7669  144.1956  160.0060 H   0  0  0  0  0  0  0  0  0  0  0  0
  150.8347  144.0744  161.0529 H   0  0  0  0  0  0  0  0  0  0  0  0
  151.9890  145.5007  161.1720 H   0  0  0  0  0  0  0  0  0  0  0  0
  152.1765  145.5550  158.6650 H   0  0  0  0  0  0  0  0  0  0  0  0
  151.0228  144.1271  158.5490 H   0  0  0  0  0  0  0  0  0  0  0  0
  150.8624  141.9128  156.7973 H   0  0  0  0  0  0  0  0  0  0  0  0
  147.7697  141.9502  157.0811 H   0  0  0  0  0  0  0  0  0  0  0  0
  146.6066  140.7850  153.1240 H   0  0  0  0  0  0  0  0  0  0  0  0
  1  2  2  0  0  0  0
  2  3  1  0  0  0  0
  2  9  1  0  0  0  0
  3  4  1  0  0  0  0
  3 22  1  0  0  0  0
  3 23  1  0  0  0  0
  4  5  1  0  0  0  0
  5  6  1  0  0  0  0
  5 24  1  0  0  0  0
  5 25  1  0  0  0  0
  6  8  1  0  0  0  0
  6  7  1  0  0  0  0
  6 26  1  0  0  0  0
  7  8  1  0  0  0  0
  7 27  1  0  0  0  0
  7 28  1  0  0  0  0
  8 29  1  0  0  0  0
  8 30  1  0  0  0  0
  9 10  1  0  0  0  0
  9 31  1  0  0  0  0
 10 19  1  0  0  0  0
 10 11  2  0  0  0  0
 11 12  1  0  0  0  0
 11 32  1  0  0  0  0
 12 13  1  0  0  0  0
 12 17  2  0  0  0  0
 13 14  1  0  0  0  0
 13 15  1  0  0  0  0
 13 16  1  0  0  0  0
 17 18  1  0  0  0  0
 17 33  1  0  0  0  0
 18 21  1  0  0  0  0
 18 19  1  0  0  0  0
 19 20  2  0  0  0  0
M  END
> <s_m_source_file>
AV-unprocessed.smi

> <i_m_source_file_index>
1790

> <i_lp_mmshare_version>
43012

> <i_f3d_flags>
0

> <s_epik_input>
W0NIMl0xW0NIMl1bQ0hdMVtDSDJdT1tDSDJdQyg9TylbTkhdYzJbY0hdYyhDKEYpKEYpRilbY0hdW25IXWMyPU8=

> <s_epik_cmdline>
J2VwaWtfcHl0aG9uJywgJy1waCcsICc3LjAnLCAnLXRuJywgJzgnLCAnLW1hJywgJzIwMCcsICctbWV0YWxfYmluZGluZycsICctaW1hZScsICc8aW5maWxlLm1hZT4nLCAnLW9tYWUnLCAnPG91dGZpbGUubWFlPic=

> <r_lp_tautomer_probability>
0.999

> <r_epik_Ionization_Penalty>
0.00811055

> <r_epik_Ionization_Penalty_Charging>
0.00811046

> <r_epik_Ionization_Penalty_Neutral>
9.25705e-08

> <r_epik_State_Penalty>
0.00609496

> <r_epik_Charging_Adjusted_Penalty>
0.0142054

> <i_epik_Tot_Q>
0

> <i_epik_Tot_abs_Q>
0

> <r_epik_Metal_State_Penalty>
0.317593

> <b_epik_Metal_Only>
0

> <s_lp_Force_Field>
OPLS_2005

> <r_lp_Energy>
26.3792

> <b_lp_Chiralities_Consistent>
1

> <s_lp_Variant>
AV-unprocessed.smi:1790-1

> <Gold.Version>
5.8.1

> <Gold.Id.Protein>
6NUR|6NUR_protein|mol2

> <Gold.PLP.Fitness>
42.2121

> <Gold.PLP.PLP>
-39.3534

> <Gold.PLP.part.hbond>
-1.9989

> <Gold.PLP.part.metal>
0.0000

> <Gold.PLP.part.buried>
-2.7547

> <Gold.PLP.part.nonpolar>
-34.9023

> <Gold.PLP.part.repulsive>
0.3358

> <Gold.PLP.ligand.clash>
0.0000

> <Gold.PLP.ligand.torsion>
1.8944

> <Gold.PLP.Chemscore.Hbond>
1.9760

> <Gold.PLP.Chemscore.CHOScore>
0.0000

> <Gold.PLP.Chemscore.Metal>
0.0000

> <Gold.Chemscore.Hbonds>
donor molecule, donor type, donor heavy atom, donor atom, acceptor molecule, acceptor atom, score
      L1  H    18    21       P1  7957  0.99
      P1  H  7989  7998       L1    20  0.99

> <Gold.PLP.Chemscore.Internal.Correction>
0.7194

> <Gold.Rescore>
     Score         DG    S(hbond)    S(metal)    S(lipo)     H(rot)  DE(clash)    DE(int)     intcor
     14.36     -16.21       1.80        0.00      81.21       1.87       0.06       1.80       ----

> <Gold.Chemscore.Fitness>
14.3552

> <Gold.Chemscore.DG>
-16.2147

> <Gold.Chemscore.ZeroCoef>
-5.4800

> <Gold.Chemscore.Hbond>
1.7996

> <Gold.Chemscore.Metal>
0.0000

> <Gold.Chemscore.Lipo>
81.2129

> <Gold.Chemscore.Internal_Hbond>
0.0000

> <Gold.Chemscore.DEClash>
0.0568

> <Gold.Chemscore.DEInternal>
1.8027

> <Gold.Chemscore.Rot>
1.8664

> <Gold.Chemscore.Internal.Correction>
   9.000000E+99

> <Gold.Chemscore.Hbonds>
donor molecule, donor type, donor heavy atom, donor atom, acceptor molecule, acceptor atom, score
      L1  H    18    21       P1  7957  0.94
      P1  H  7989  7998       L1    20  0.88

> <Gold.Chemscore.Hbond.Weighted>
-6.0108

> <Gold.Chemscore.Metal.Weighted>
-0.0000

> <Gold.Chemscore.Lipo.Weighted>
-9.5019

> <Gold.Chemscore.Internal_Hbond.Weighted>
0.0000

> <Gold.Chemscore.DEClash.Weighted>
0.0568

> <Gold.Chemscore.DEInternal.Weighted>
1.8027

> <Gold.Chemscore.Rot.Weighted>
4.7780

> <Gold.Chemscore.Internal.Correction.Weighted>
   9.000000E+99

> <Gold.Protein.RotatedTorsions>
[ 6907 6896 6895 6894 ] final  -11.30 input  -60.11 | X-H torsion
[ 7974 7965 7964 7962 ] final  157.24 input  175.53 | X-H torsion
[ 8008 7997 7996 7995 ] final -172.49 input   59.86 | X-H torsion
[ 10167 10162 10161 10158 ] final  126.75 input  -65.29 | X-H torsion
[ 10718 10713 10712 10709 ] final -147.90 input   66.30 | X-H torsion
[ 10763 10752 10751 10750 ] final  162.43 input  -60.55 | X-H torsion
[ 11005 11000 10999 10996 ] final  124.61 input  -57.11 | X-H torsion

> <Gold.Protein.ActiveResidues>
 VAL166  LYS551  ARG553  GLY616  TRP617  ASP618  TYR619  PRO620  LYS621  CYS622 
 ASP623  PHE694  ASN695  SER759  ASP760  ASP761  ALA762  ILE779  LEU786  VAL792 
 PHE793  MET794  SER795  GLU796  ALA797  LYS798  CYS799  TRP800  GLU811  SER814 

> <Gold.Protein.RotatedAtoms>
  151.3883  135.0952  159.9517 H   0  0  0  0  0  0  0  0  0  0  0  0  # atno 6907 bound_to 6896
  152.5087  133.9004  159.7449 H   0  0  0  0  0  0  0  0  0  0  0  0  # atno 6908 bound_to 6896
  150.9452  133.6555  159.2811 H   0  0  0  0  0  0  0  0  0  0  0  0  # atno 6909 bound_to 6896
  144.7915  139.7313  143.6219 H   0  0  0  0  0  0  0  0  0  0  0  0  # atno 7974 bound_to 7965
  155.9452  140.1116  157.1022 H   0  0  0  0  0  0  0  0  0  0  0  0  # atno 8008 bound_to 7997
  154.4098  140.1211  156.5046 H   0  0  0  0  0  0  0  0  0  0  0  0  # atno 8009 bound_to 7997
  155.6911  140.3472  155.4896 H   0  0  0  0  0  0  0  0  0  0  0  0  # atno 8010 bound_to 7997
  139.5615  144.6884  151.4031 H   0  0  0  0  0  0  0  0  0  0  0  0  # atno 10167 bound_to 10162
  156.4134  130.7993  151.2212 H   0  0  0  0  0  0  0  0  0  0  0  0  # atno 10718 bound_to 10713
  154.2782  135.2764  155.2709 H   0  0  0  0  0  0  0  0  0  0  0  0  # atno 10763 bound_to 10752
  154.5242  135.5748  153.6709 H   0  0  0  0  0  0  0  0  0  0  0  0  # atno 10764 bound_to 10752
  152.9933  135.6212  154.2940 H   0  0  0  0  0  0  0  0  0  0  0  0  # atno 10765 bound_to 10752
  139.9367  134.9639  156.8435 H   0  0  0  0  0  0  0  0  0  0  0  0  # atno 11005 bound_to 11000
  146.2168  139.5564  142.9644 LP  0  0  0  0  0  0  0  0  0  0  0  0  # atno 17320 bound_to 7965
  145.5782  141.0386  143.2136 LP  0  0  0  0  0  0  0  0  0  0  0  0  # atno 17321 bound_to 7965
  140.6895  143.7896  150.7234 LP  0  0  0  0  0  0  0  0  0  0  0  0  # atno 17342 bound_to 10162
  140.1374  143.4472  152.2216 LP  0  0  0  0  0  0  0  0  0  0  0  0  # atno 17343 bound_to 10162
  157.7507  131.0250  150.3902 LP  0  0  0  0  0  0  0  0  0  0  0  0  # atno 17370 bound_to 10713
  156.4205  130.3952  149.6828 LP  0  0  0  0  0  0  0  0  0  0  0  0  # atno 17371 bound_to 10713
  140.6058  134.0129  155.7556 LP  0  0  0  0  0  0  0  0  0  0  0  0  # atno 17394 bound_to 11000
  141.0983  133.9808  157.3122 LP  0  0  0  0  0  0  0  0  0  0  0  0  # atno 17395 bound_to 11000

$$$$
