AV-unprocessed.smi:3193|AV-procd|sdf|12202|dock4
  -GOLD-   2272018 33D 1   1.00000     0.00000
 Structure written by MMmdl.
 40 41  0  0  0  0  0  0  0  0  2 V2000
  153.6986  142.4097  159.9309 C   0  0  0  0  0  0  0  0  0  0  0  0
  152.2125  142.6919  160.2331 C   0  0  1  0  0  0  0  0  0  0  0  0
  152.0131  144.0969  160.8405 C   0  0  0  0  0  0  0  0  0  0  0  0
  152.1871  145.2153  159.7993 C   0  0  0  0  0  0  0  0  0  0  0  0
  151.2576  145.0027  158.5960 C   0  0  0  0  0  0  0  0  0  0  0  0
  151.4535  143.6117  157.9726 C   0  0  0  0  0  0  0  0  0  0  0  0
  151.2660  142.4898  159.0190 C   0  0  1  0  0  0  0  0  0  0  0  0
  151.3843  141.0821  158.4006 C   0  0  0  0  0  0  0  0  0  0  0  0
  150.7360  141.0128  157.0756 N   0  3  0  0  0  0  0  0  0  0  0  0
  150.6983  139.6563  156.4961 C   0  0  0  0  0  0  0  0  0  0  0  0
  150.6030  139.7126  154.9655 C   0  0  0  0  0  0  0  0  0  0  0  0
  149.2756  140.0972  154.5308 N   0  0  0  0  0  0  0  0  0  0  0  0
  148.6635  141.3325  154.6980 C   0  0  0  0  0  0  0  0  0  0  0  0
  147.4165  141.2340  154.1229 C   0  0  0  0  0  0  0  0  0  0  0  0
  147.2422  139.9554  153.5984 N   0  0  0  0  0  0  0  0  0  0  0  0
  148.3831  139.3394  153.8788 C   0  0  0  0  0  0  0  0  0  0  0  0
  154.0847  143.0430  159.1328 H   0  0  0  0  0  0  0  0  0  0  0  0
  153.8592  141.3723  159.6382 H   0  0  0  0  0  0  0  0  0  0  0  0
  154.3135  142.5869  160.8136 H   0  0  0  0  0  0  0  0  0  0  0  0
  151.9166  141.9745  161.0001 H   0  0  0  0  0  0  0  0  0  0  0  0
  151.0108  144.1638  161.2665 H   0  0  0  0  0  0  0  0  0  0  0  0
  152.7020  144.2516  161.6717 H   0  0  0  0  0  0  0  0  0  0  0  0
  151.9810  146.1824  160.2590 H   0  0  0  0  0  0  0  0  0  0  0  0
  153.2233  145.2535  159.4620 H   0  0  0  0  0  0  0  0  0  0  0  0
  150.2205  145.1165  158.9140 H   0  0  0  0  0  0  0  0  0  0  0  0
  151.4365  145.7749  157.8473 H   0  0  0  0  0  0  0  0  0  0  0  0
  150.7423  143.4891  157.1554 H   0  0  0  0  0  0  0  0  0  0  0  0
  152.4445  143.5468  157.5224 H   0  0  0  0  0  0  0  0  0  0  0  0
  150.2494  142.5789  159.4067 H   0  0  0  0  0  0  0  0  0  0  0  0
  152.4307  140.7903  158.3034 H   0  0  0  0  0  0  0  0  0  0  0  0
  150.9058  140.3520  159.0549 H   0  0  0  0  0  0  0  0  0  0  0  0
  149.7882  141.3501  157.1651 H   0  0  0  0  0  0  0  0  0  0  0  0
  151.5953  139.1124  156.7955 H   0  0  0  0  0  0  0  0  0  0  0  0
  149.8421  139.1166  156.9034 H   0  0  0  0  0  0  0  0  0  0  0  0
  151.3215  140.4281  154.5626 H   0  0  0  0  0  0  0  0  0  0  0  0
  150.8420  138.7413  154.5302 H   0  0  0  0  0  0  0  0  0  0  0  0
  149.1499  142.1573  155.1976 H   0  0  0  0  0  0  0  0  0  0  0  0
  146.6380  141.9787  154.0462 H   0  0  0  0  0  0  0  0  0  0  0  0
  148.5745  138.3131  153.6007 H   0  0  0  0  0  0  0  0  0  0  0  0
  151.2370  141.6203  156.4427 H   0  0  0  0  0  0  0  0  0  0  0  0
  1  2  1  0  0  0  0
  1 17  1  0  0  0  0
  1 18  1  0  0  0  0
  1 19  1  0  0  0  0
  2  7  1  0  0  0  0
  2  3  1  0  0  0  0
  2 20  1  0  0  0  0
  3  4  1  0  0  0  0
  3 21  1  0  0  0  0
  3 22  1  0  0  0  0
  4  5  1  0  0  0  0
  4 23  1  0  0  0  0
  4 24  1  0  0  0  0
  5  6  1  0  0  0  0
  5 25  1  0  0  0  0
  5 26  1  0  0  0  0
  6  7  1  0  0  0  0
  6 27  1  0  0  0  0
  6 28  1  0  0  0  0
  7  8  1  0  0  0  0
  7 29  1  0  0  0  0
  8  9  1  0  0  0  0
  8 30  1  0  0  0  0
  8 31  1  0  0  0  0
  9 10  1  0  0  0  0
  9 32  1  0  0  0  0
  9 40  1  0  0  0  0
 10 11  1  0  0  0  0
 10 33  1  0  0  0  0
 10 34  1  0  0  0  0
 11 12  1  0  0  0  0
 11 35  1  0  0  0  0
 11 36  1  0  0  0  0
 12 16  1  0  0  0  0
 12 13  1  0  0  0  0
 13 14  2  0  0  0  0
 13 37  1  0  0  0  0
 14 15  1  0  0  0  0
 14 38  1  0  0  0  0
 15 16  2  0  0  0  0
 16 39  1  0  0  0  0
M  CHG  1   9   1
M  END
> <s_m_source_file>
AV-unprocessed.smi

> <i_m_source_file_index>
3193

> <i_lp_mmshare_version>
43012

> <i_f3d_flags>
0

> <s_epik_input>
W0NIM11bQ0BASF0xW0NIMl1bQ0gyXVtDSDJdW0NIMl1bQ0BIXTFbQ0gyXVtOSF1bQ0gyXVtDSDJdbjJbY0hdW2NIXW5bY0hdMg==

> <s_epik_cmdline>
J2VwaWtfcHl0aG9uJywgJy1waCcsICc3LjAnLCAnLXRuJywgJzgnLCAnLW1hJywgJzIwMCcsICctbWV0YWxfYmluZGluZycsICctaW1hZScsICc8aW5maWxlLm1hZT4nLCAnLW9tYWUnLCAnPG91dGZpbGUubWFlPic=

> <r_lp_tautomer_probability>
1

> <r_epik_Ionization_Penalty>
0.0503046

> <r_epik_Ionization_Penalty_Charging>
0.0503046

> <r_epik_Ionization_Penalty_Neutral>
0

> <r_epik_State_Penalty>
0.0981804

> <r_epik_Charging_Adjusted_Penalty>
0.148485

> <i_epik_Tot_Q>
1

> <i_epik_Tot_abs_Q>
1

> <r_epik_Metal_State_Penalty>
0.000105854

> <b_epik_Metal_Only>
0

> <s_lp_Force_Field>
OPLS_2005

> <r_lp_Energy>
20.219

> <b_lp_Chiralities_Consistent>
1

> <s_lp_Variant>
AV-unprocessed.smi:3193-2

> <Gold.Version>
5.8.1

> <Gold.Id.Protein>
6NUR|6NUR_protein|mol2

> <Gold.PLP.Fitness>
42.6790

> <Gold.PLP.PLP>
-38.7219

> <Gold.PLP.part.hbond>
0.0000

> <Gold.PLP.part.metal>
0.0000

> <Gold.PLP.part.buried>
-0.6936

> <Gold.PLP.part.nonpolar>
-37.9915

> <Gold.PLP.part.repulsive>
0.2671

> <Gold.PLP.ligand.clash>
0.0000

> <Gold.PLP.ligand.torsion>
0.3950

> <Gold.PLP.Chemscore.Hbond>
0.0000

> <Gold.PLP.Chemscore.CHOScore>
1.5531

> <Gold.PLP.Chemscore.Metal>
0.0000

> <Gold.Chemscore.Hbonds>
donor molecule, donor type, donor heavy atom, donor atom, acceptor molecule, acceptor atom, score
      L1  C    13    37       P1  8028  0.80
      L1  C    16    39       P1  7948  0.52

> <Gold.PLP.Chemscore.Internal.Correction>
0.0879

> <Gold.Rescore>
     Score         DG    S(hbond)    S(metal)    S(lipo)     H(rot)  DE(clash)    DE(int)     intcor
     13.41     -13.90       0.00        0.00     113.34       1.89       0.15       0.35       ----

> <Gold.Chemscore.Fitness>
13.4096

> <Gold.Chemscore.DG>
-13.9038

> <Gold.Chemscore.ZeroCoef>
-5.4800

> <Gold.Chemscore.Hbond>
0.0000

> <Gold.Chemscore.Metal>
0.0000

> <Gold.Chemscore.Lipo>
113.3410

> <Gold.Chemscore.Internal_Hbond>
0.0000

> <Gold.Chemscore.DEClash>
0.1452

> <Gold.Chemscore.DEInternal>
0.3490

> <Gold.Chemscore.Rot>
1.8895

> <Gold.Chemscore.Internal.Correction>
   9.000000E+99

> <Gold.Chemscore.Hbond.Weighted>
-0.0000

> <Gold.Chemscore.Metal.Weighted>
-0.0000

> <Gold.Chemscore.Lipo.Weighted>
-13.2609

> <Gold.Chemscore.Internal_Hbond.Weighted>
0.0000

> <Gold.Chemscore.DEClash.Weighted>
0.1452

> <Gold.Chemscore.DEInternal.Weighted>
0.3490

> <Gold.Chemscore.Rot.Weighted>
4.8371

> <Gold.Chemscore.Internal.Correction.Weighted>
   9.000000E+99

> <Gold.Protein.RotatedTorsions>
[ 6907 6896 6895 6894 ] final   85.81 input  -60.11 | X-H torsion
[ 7974 7965 7964 7962 ] final  107.80 input  175.53 | X-H torsion
[ 8008 7997 7996 7995 ] final  133.44 input   59.86 | X-H torsion
[ 10167 10162 10161 10158 ] final -141.15 input  -65.29 | X-H torsion
[ 10718 10713 10712 10709 ] final  -51.98 input   66.30 | X-H torsion
[ 10763 10752 10751 10750 ] final   19.95 input  -60.55 | X-H torsion
[ 11005 11000 10999 10996 ] final  -66.72 input  -57.11 | X-H torsion

> <Gold.Protein.ActiveResidues>
 VAL166  LYS551  ARG553  GLY616  TRP617  ASP618  TYR619  PRO620  LYS621  CYS622 
 ASP623  PHE694  ASN695  SER759  ASP760  ASP761  ALA762  ILE779  LEU786  VAL792 
 PHE793  MET794  SER795  GLU796  ALA797  LYS798  CYS799  TRP800  GLU811  SER814 

> <Gold.Protein.RotatedAtoms>
  152.5382  134.2529  159.8905 H   0  0  0  0  0  0  0  0  0  0  0  0  # atno 6907 bound_to 6896
  151.2491  133.4352  159.2618 H   0  0  0  0  0  0  0  0  0  0  0  0  # atno 6908 bound_to 6896
  151.0555  134.9716  159.8290 H   0  0  0  0  0  0  0  0  0  0  0  0  # atno 6909 bound_to 6896
  145.2889  139.2607  143.3876 H   0  0  0  0  0  0  0  0  0  0  0  0  # atno 7974 bound_to 7965
  156.2992  140.2521  156.3254 H   0  0  0  0  0  0  0  0  0  0  0  0  # atno 8008 bound_to 7997
  154.9195  140.0401  157.2009 H   0  0  0  0  0  0  0  0  0  0  0  0  # atno 8009 bound_to 7997
  154.8325  140.2878  155.5717 H   0  0  0  0  0  0  0  0  0  0  0  0  # atno 8010 bound_to 7997
  139.8212  143.7571  152.2666 H   0  0  0  0  0  0  0  0  0  0  0  0  # atno 10167 bound_to 10162
  156.1661  130.4149  149.9718 H   0  0  0  0  0  0  0  0  0  0  0  0  # atno 10718 bound_to 10713
  153.1118  135.6698  153.9487 H   0  0  0  0  0  0  0  0  0  0  0  0  # atno 10763 bound_to 10752
  153.9028  135.3034  155.3450 H   0  0  0  0  0  0  0  0  0  0  0  0  # atno 10764 bound_to 10752
  154.7537  135.5022  153.9413 H   0  0  0  0  0  0  0  0  0  0  0  0  # atno 10765 bound_to 10752
  141.1489  133.6705  156.6183 H   0  0  0  0  0  0  0  0  0  0  0  0  # atno 11005 bound_to 11000
  146.3192  140.3375  142.8645 LP  0  0  0  0  0  0  0  0  0  0  0  0  # atno 17320 bound_to 7965
  144.9190  140.7846  143.5760 LP  0  0  0  0  0  0  0  0  0  0  0  0  # atno 17321 bound_to 7965
  139.7750  144.7464  151.0170 LP  0  0  0  0  0  0  0  0  0  0  0  0  # atno 17342 bound_to 10162
  140.7813  143.4603  151.0286 LP  0  0  0  0  0  0  0  0  0  0  0  0  # atno 17343 bound_to 10162
  156.7532  130.9123  151.3638 LP  0  0  0  0  0  0  0  0  0  0  0  0  # atno 17370 bound_to 10713
  157.6769  130.9103  150.0172 LP  0  0  0  0  0  0  0  0  0  0  0  0  # atno 17371 bound_to 10713
  140.3560  134.7728  157.4501 LP  0  0  0  0  0  0  0  0  0  0  0  0  # atno 17394 bound_to 11000
  140.0822  134.5715  155.8528 LP  0  0  0  0  0  0  0  0  0  0  0  0  # atno 17395 bound_to 11000

$$$$
