AV-unprocessed.smi:1362|AV-procd|sdf|5558|dock9
  -GOLD-   22720 5153D 1   1.00000     0.00000
 Structure written by MMmdl.
 39 39  0  0  0  0  0  0  0  0  1 V2000
  146.4164  137.9056  152.3721 C   0  0  0  0  0  0  0  0  0  0  0  0
  147.1530  139.0622  153.0138 C   0  0  0  0  0  0  0  0  0  0  0  0
  146.6067  140.2008  153.2890 N   0  0  0  0  0  0  0  0  0  0  0  0
  147.3923  141.1988  153.8824 C   0  0  0  0  0  0  0  0  0  0  0  0
  146.6804  142.5094  154.1717 C   0  0  0  0  0  0  0  0  0  0  0  0
  148.7102  140.9933  154.1746 C   0  0  0  0  0  0  0  0  0  0  0  0
  149.5916  142.0634  154.8173 C   0  0  0  0  0  0  0  0  0  0  0  0
  150.0976  141.7527  156.2281 C   0  0  0  0  0  0  0  0  0  0  0  0
  150.5090  140.6270  156.5099 O   0  0  0  0  0  0  0  0  0  0  0  0
  150.0703  142.7707  157.1017 N   0  0  0  0  0  0  0  0  0  0  0  0
  150.5600  142.7267  158.4788 C   0  0  2  0  0  0  0  0  0  0  0  0
  149.7715  143.7471  159.3214 C   0  0  0  0  0  0  0  0  0  0  0  0
  152.0937  142.9608  158.5046 C   0  0  0  0  0  0  0  0  0  0  0  0
  152.6941  142.7397  159.9074 C   0  0  0  0  0  0  0  0  0  0  0  0
  152.4840  144.3601  157.9952 C   0  0  0  0  0  0  0  0  0  0  0  0
  149.3233  139.6891  153.8566 C   0  0  0  0  0  0  0  0  0  0  0  0
  150.4989  139.3986  154.0727 O   0  0  0  0  0  0  0  0  0  0  0  0
  148.4921  138.7881  153.2870 N   0  0  0  0  0  0  0  0  0  0  0  0
  148.8648  137.8803  153.0494 H   0  0  0  0  0  0  0  0  0  0  0  0
  146.0432  138.1979  151.3902 H   0  0  0  0  0  0  0  0  0  0  0  0
  145.5668  137.6129  152.9894 H   0  0  0  0  0  0  0  0  0  0  0  0
  147.0632  137.0360  152.2463 H   0  0  0  0  0  0  0  0  0  0  0  0
  146.6580  142.7034  155.2439 H   0  0  0  0  0  0  0  0  0  0  0  0
  145.6501  142.4879  153.8146 H   0  0  0  0  0  0  0  0  0  0  0  0
  147.1842  143.3404  153.6777 H   0  0  0  0  0  0  0  0  0  0  0  0
  150.4517  142.2317  154.1681 H   0  0  0  0  0  0  0  0  0  0  0  0
  149.0747  143.0230  154.8460 H   0  0  0  0  0  0  0  0  0  0  0  0
  149.7094  143.6568  156.7793 H   0  0  0  0  0  0  0  0  0  0  0  0
  150.3695  141.7315  158.8855 H   0  0  0  0  0  0  0  0  0  0  0  0
  150.0095  143.6654  160.3815 H   0  0  0  0  0  0  0  0  0  0  0  0
  148.6968  143.5876  159.2291 H   0  0  0  0  0  0  0  0  0  0  0  0
  149.9823  144.7697  159.0069 H   0  0  0  0  0  0  0  0  0  0  0  0
  152.5578  142.2322  157.8380 H   0  0  0  0  0  0  0  0  0  0  0  0
  152.2415  143.4082  160.6406 H   0  0  0  0  0  0  0  0  0  0  0  0
  153.7684  142.9267  159.9080 H   0  0  0  0  0  0  0  0  0  0  0  0
  152.5515  141.7172  160.2573 H   0  0  0  0  0  0  0  0  0  0  0  0
  151.9988  145.1440  158.5775 H   0  0  0  0  0  0  0  0  0  0  0  0
  152.2135  144.5017  156.9493 H   0  0  0  0  0  0  0  0  0  0  0  0
  153.5609  144.5160  158.0640 H   0  0  0  0  0  0  0  0  0  0  0  0
  1  2  1  0  0  0  0
  1 20  1  0  0  0  0
  1 21  1  0  0  0  0
  1 22  1  0  0  0  0
  2 18  1  0  0  0  0
  2  3  2  0  0  0  0
  3  4  1  0  0  0  0
  4  5  1  0  0  0  0
  4  6  2  0  0  0  0
  5 23  1  0  0  0  0
  5 24  1  0  0  0  0
  5 25  1  0  0  0  0
  6  7  1  0  0  0  0
  6 16  1  0  0  0  0
  7  8  1  0  0  0  0
  7 26  1  0  0  0  0
  7 27  1  0  0  0  0
  8  9  2  0  0  0  0
  8 10  1  0  0  0  0
 10 11  1  0  0  0  0
 10 28  1  0  0  0  0
 11 12  1  0  0  0  0
 11 13  1  0  0  0  0
 11 29  1  0  0  0  0
 12 30  1  0  0  0  0
 12 31  1  0  0  0  0
 12 32  1  0  0  0  0
 13 14  1  0  0  0  0
 13 15  1  0  0  0  0
 13 33  1  0  0  0  0
 14 34  1  0  0  0  0
 14 35  1  0  0  0  0
 14 36  1  0  0  0  0
 15 37  1  0  0  0  0
 15 38  1  0  0  0  0
 15 39  1  0  0  0  0
 16 17  2  0  0  0  0
 16 18  1  0  0  0  0
 18 19  1  0  0  0  0
M  END
> <s_m_source_file>
AV-unprocessed.smi

> <i_m_source_file_index>
1362

> <i_lp_mmshare_version>
43012

> <i_f3d_flags>
0

> <s_epik_input>
W0NIM11jMW5jKFtDSDNdKWMoYyg9TylbbkhdMSlbQ0gyXUMoPU8pW05IXVtDQEhdKFtDSDNdKVtDSF0oW0NIM10pW0NIM10=

> <s_epik_cmdline>
J2VwaWtfcHl0aG9uJywgJy1waCcsICc3LjAnLCAnLXRuJywgJzgnLCAnLW1hJywgJzIwMCcsICctbWV0YWxfYmluZGluZycsICctaW1hZScsICc8aW5maWxlLm1hZT4nLCAnLW9tYWUnLCAnPG91dGZpbGUubWFlPic=

> <r_lp_tautomer_probability>
0.839158

> <r_epik_Ionization_Penalty>
0.000388977

> <r_epik_Ionization_Penalty_Charging>
0.000356458

> <r_epik_Ionization_Penalty_Neutral>
3.25191e-05

> <r_epik_State_Penalty>
0.0469868

> <r_epik_Charging_Adjusted_Penalty>
0.0473433

> <i_epik_Tot_Q>
0

> <i_epik_Tot_abs_Q>
0

> <r_epik_Metal_State_Penalty>
0.223288

> <b_epik_Metal_Only>
0

> <s_lp_Force_Field>
OPLS_2005

> <r_lp_Energy>
7.29912

> <b_lp_Chiralities_Consistent>
1

> <s_lp_Variant>
AV-unprocessed.smi:1362-1

> <Gold.Version>
5.8.1

> <Gold.Id.Protein>
6NUR|6NUR_protein|mol2

> <Gold.PLP.Fitness>
41.8320

> <Gold.PLP.PLP>
-34.0925

> <Gold.PLP.part.hbond>
-4.0000

> <Gold.PLP.part.metal>
0.0000

> <Gold.PLP.part.buried>
3.8268

> <Gold.PLP.part.nonpolar>
-34.7405

> <Gold.PLP.part.repulsive>
1.0123

> <Gold.PLP.ligand.clash>
0.0000

> <Gold.PLP.ligand.torsion>
0.6487

> <Gold.PLP.Chemscore.Hbond>
3.0000

> <Gold.PLP.Chemscore.CHOScore>
0.0000

> <Gold.PLP.Chemscore.Metal>
0.0000

> <Gold.Chemscore.Hbonds>
donor molecule, donor type, donor heavy atom, donor atom, acceptor molecule, acceptor atom, score
      L1  H    10    28       P1  8028  1.00
      L1  H    18    19       P1  7948  1.00
      P1  H  7989  7998       L1    17  1.00

> <Gold.PLP.Chemscore.Internal.Correction>
0.0369

> <Gold.Rescore>
     Score         DG    S(hbond)    S(metal)    S(lipo)     H(rot)  DE(clash)    DE(int)     intcor
     15.89     -19.29       2.48        0.00      84.34       1.69       1.47       1.93       ----

> <Gold.Chemscore.Fitness>
15.8946

> <Gold.Chemscore.DG>
-19.2922

> <Gold.Chemscore.ZeroCoef>
-5.4800

> <Gold.Chemscore.Hbond>
2.4775

> <Gold.Chemscore.Metal>
0.0000

> <Gold.Chemscore.Lipo>
84.3403

> <Gold.Chemscore.Internal_Hbond>
0.0000

> <Gold.Chemscore.DEClash>
1.4685

> <Gold.Chemscore.DEInternal>
1.9291

> <Gold.Chemscore.Rot>
1.6916

> <Gold.Chemscore.Internal.Correction>
   9.000000E+99

> <Gold.Chemscore.Hbonds>
donor molecule, donor type, donor heavy atom, donor atom, acceptor molecule, acceptor atom, score
      L1  H    10    28       P1  8028  0.98
      L1  H    18    19       P1  7948  0.92
      P1  H  7989  7998       L1    17  0.69

> <Gold.Chemscore.Hbond.Weighted>
-8.2750

> <Gold.Chemscore.Metal.Weighted>
-0.0000

> <Gold.Chemscore.Lipo.Weighted>
-9.8678

> <Gold.Chemscore.Internal_Hbond.Weighted>
0.0000

> <Gold.Chemscore.DEClash.Weighted>
1.4685

> <Gold.Chemscore.DEInternal.Weighted>
1.9291

> <Gold.Chemscore.Rot.Weighted>
4.3305

> <Gold.Chemscore.Internal.Correction.Weighted>
   9.000000E+99

> <Gold.Protein.RotatedTorsions>
[ 6907 6896 6895 6894 ] final  -98.79 input  -60.11 | X-H torsion
[ 7974 7965 7964 7962 ] final  126.76 input  175.53 | X-H torsion
[ 8008 7997 7996 7995 ] final -102.56 input   59.86 | X-H torsion
[ 10167 10162 10161 10158 ] final  173.06 input  -65.29 | X-H torsion
[ 10718 10713 10712 10709 ] final   -0.07 input   66.30 | X-H torsion
[ 10763 10752 10751 10750 ] final   -5.55 input  -60.55 | X-H torsion
[ 11005 11000 10999 10996 ] final -161.46 input  -57.11 | X-H torsion

> <Gold.Protein.ActiveResidues>
 VAL166  LYS551  ARG553  GLY616  TRP617  ASP618  TYR619  PRO620  LYS621  CYS622 
 ASP623  PHE694  ASN695  SER759  ASP760  ASP761  ALA762  ILE779  LEU786  VAL792 
 PHE793  MET794  SER795  GLU796  ALA797  LYS798  CYS799  TRP800  GLU811  SER814 

> <Gold.Protein.RotatedAtoms>
  150.7058  134.1140  159.4010 H   0  0  0  0  0  0  0  0  0  0  0  0  # atno 6907 bound_to 6896
  151.9127  135.0330  160.0525 H   0  0  0  0  0  0  0  0  0  0  0  0  # atno 6908 bound_to 6896
  152.2322  133.5032  159.5259 H   0  0  0  0  0  0  0  0  0  0  0  0  # atno 6909 bound_to 6896
  145.0581  139.3827  143.5020 H   0  0  0  0  0  0  0  0  0  0  0  0  # atno 7974 bound_to 7965
  154.8584  140.0428  157.1649 H   0  0  0  0  0  0  0  0  0  0  0  0  # atno 8008 bound_to 7997
  154.8867  140.2980  155.5373 H   0  0  0  0  0  0  0  0  0  0  0  0  # atno 8009 bound_to 7997
  156.2998  140.2401  156.3877 H   0  0  0  0  0  0  0  0  0  0  0  0  # atno 8010 bound_to 7997
  139.5096  144.3303  152.0117 H   0  0  0  0  0  0  0  0  0  0  0  0  # atno 10167 bound_to 10162
  156.8259  130.5472  149.5692 H   0  0  0  0  0  0  0  0  0  0  0  0  # atno 10718 bound_to 10713
  153.4000  135.7004  153.6433 H   0  0  0  0  0  0  0  0  0  0  0  0  # atno 10763 bound_to 10752
  153.4970  135.3660  155.2521 H   0  0  0  0  0  0  0  0  0  0  0  0  # atno 10764 bound_to 10752
  154.8709  135.4102  154.3333 H   0  0  0  0  0  0  0  0  0  0  0  0  # atno 10765 bound_to 10752
  140.6202  134.4759  157.5223 H   0  0  0  0  0  0  0  0  0  0  0  0  # atno 11005 bound_to 11000
  146.3522  140.0266  142.8654 LP  0  0  0  0  0  0  0  0  0  0  0  0  # atno 17320 bound_to 7965
  145.1443  140.9588  143.4470 LP  0  0  0  0  0  0  0  0  0  0  0  0  # atno 17321 bound_to 7965
  140.2743  144.3929  150.6140 LP  0  0  0  0  0  0  0  0  0  0  0  0  # atno 17342 bound_to 10162
  140.6065  143.2168  151.6970 LP  0  0  0  0  0  0  0  0  0  0  0  0  # atno 17343 bound_to 10162
  156.0962  130.5934  150.9817 LP  0  0  0  0  0  0  0  0  0  0  0  0  # atno 17370 bound_to 10713
  157.6432  131.0907  150.8208 LP  0  0  0  0  0  0  0  0  0  0  0  0  # atno 17371 bound_to 10713
  139.9157  134.8252  156.1376 LP  0  0  0  0  0  0  0  0  0  0  0  0  # atno 17394 bound_to 11000
  141.0748  133.6780  156.2214 LP  0  0  0  0  0  0  0  0  0  0  0  0  # atno 17395 bound_to 11000

$$$$
