AV-unprocessed.smi:2348|AV-procd|sdf|9370|dock4
  -GOLD-   2272012593D 1   1.00000     0.00000
 Structure written by MMmdl.
 28 29  0  0  0  0  0  0  0  0  1 V2000
  151.3856  137.6628  154.6125 C   0  0  0  0  0  0  0  0  0  0  0  0
  152.2916  138.6745  155.0438 O   0  0  0  0  0  0  0  0  0  0  0  0
  151.7961  139.7895  155.6315 C   0  0  0  0  0  0  0  0  0  0  0  0
  150.7749  140.3437  154.9669 N   0  0  0  0  0  0  0  0  0  0  0  0
  150.3013  141.4409  155.5658 C   0  0  0  0  0  0  0  0  0  0  0  0
  149.2503  142.0666  154.9411 N   0  0  0  0  0  0  0  0  0  0  0  0
  150.7309  142.0000  156.7018 N   0  0  0  0  0  0  0  0  0  0  0  0
  151.7553  141.3354  157.2493 C   0  0  0  0  0  0  0  0  0  0  0  0
  152.2476  141.8604  158.4301 N   0  0  0  0  0  0  0  0  0  0  0  0
  151.6801  143.1288  158.8693 C   0  0  0  0  0  0  0  0  0  0  0  0
  152.5323  143.7321  159.9991 C   0  0  0  0  0  0  0  0  0  0  0  0
  152.6469  142.7934  161.0643 O   0  0  0  0  0  0  0  0  0  0  0  0
  153.2801  141.5886  160.6448 C   0  0  0  0  0  0  0  0  0  0  0  0
  152.4467  140.9285  159.5328 C   0  0  0  0  0  0  0  0  0  0  0  0
  152.3439  140.2262  156.7791 N   0  0  0  0  0  0  0  0  0  0  0  0
  151.9475  136.8437  154.1638 H   0  0  0  0  0  0  0  0  0  0  0  0
  150.6937  138.0409  153.8584 H   0  0  0  0  0  0  0  0  0  0  0  0
  150.8157  137.2540  155.4482 H   0  0  0  0  0  0  0  0  0  0  0  0
  148.8754  141.6980  154.0792 H   0  0  0  0  0  0  0  0  0  0  0  0
  148.8375  142.8958  155.3430 H   0  0  0  0  0  0  0  0  0  0  0  0
  151.6287  143.8217  158.0286 H   0  0  0  0  0  0  0  0  0  0  0  0
  150.6587  142.9667  159.2165 H   0  0  0  0  0  0  0  0  0  0  0  0
  153.5231  144.0072  159.6338 H   0  0  0  0  0  0  0  0  0  0  0  0
  152.0673  144.6431  160.3762 H   0  0  0  0  0  0  0  0  0  0  0  0
  154.2933  141.7987  160.2982 H   0  0  0  0  0  0  0  0  0  0  0  0
  153.3682  140.9169  161.4987 H   0  0  0  0  0  0  0  0  0  0  0  0
  151.4770  140.6194  159.9253 H   0  0  0  0  0  0  0  0  0  0  0  0
  152.9495  140.0306  159.1715 H   0  0  0  0  0  0  0  0  0  0  0  0
  1  2  1  0  0  0  0
  1 16  1  0  0  0  0
  1 17  1  0  0  0  0
  1 18  1  0  0  0  0
  2  3  1  0  0  0  0
  3 15  1  0  0  0  0
  3  4  2  0  0  0  0
  4  5  1  0  0  0  0
  5  6  1  0  0  0  0
  5  7  2  0  0  0  0
  6 19  1  0  0  0  0
  6 20  1  0  0  0  0
  7  8  1  0  0  0  0
  8  9  1  0  0  0  0
  8 15  2  0  0  0  0
  9 14  1  0  0  0  0
  9 10  1  0  0  0  0
 10 11  1  0  0  0  0
 10 21  1  0  0  0  0
 10 22  1  0  0  0  0
 11 12  1  0  0  0  0
 11 23  1  0  0  0  0
 11 24  1  0  0  0  0
 12 13  1  0  0  0  0
 13 14  1  0  0  0  0
 13 25  1  0  0  0  0
 13 26  1  0  0  0  0
 14 27  1  0  0  0  0
 14 28  1  0  0  0  0
M  END
> <s_m_source_file>
AV-unprocessed.smi

> <i_m_source_file_index>
2348

> <i_lp_mmshare_version>
43012

> <i_f3d_flags>
0

> <s_epik_input>
W0NIM11PYzFuYyhbTkgyXSluYyhuMSlOMltDSDJdW0NIMl1PW0NIMl1bQ0gyXTI=

> <s_epik_cmdline>
J2VwaWtfcHl0aG9uJywgJy1waCcsICc3LjAnLCAnLXRuJywgJzgnLCAnLW1hJywgJzIwMCcsICctbWV0YWxfYmluZGluZycsICctaW1hZScsICc8aW5maWxlLm1hZT4nLCAnLW9tYWUnLCAnPG91dGZpbGUubWFlPic=

> <r_lp_tautomer_probability>
1

> <r_epik_Ionization_Penalty>
1.97915e-06

> <r_epik_Ionization_Penalty_Charging>
0

> <r_epik_Ionization_Penalty_Neutral>
1.97915e-06

> <r_epik_State_Penalty>
-0

> <r_epik_Charging_Adjusted_Penalty>
0

> <i_epik_Tot_Q>
0

> <i_epik_Tot_abs_Q>
0

> <r_epik_Metal_State_Penalty>
-0

> <b_epik_Metal_Only>
0

> <s_lp_Force_Field>
OPLS_2005

> <r_lp_Energy>
10.0664

> <b_lp_Chiralities_Consistent>
1

> <s_lp_Variant>
AV-unprocessed.smi:2348-1

> <Gold.Version>
5.8.1

> <Gold.Id.Protein>
6NUR|6NUR_protein|mol2

> <Gold.PLP.Fitness>
37.2082

> <Gold.PLP.PLP>
-28.5233

> <Gold.PLP.part.hbond>
-3.0000

> <Gold.PLP.part.metal>
0.0000

> <Gold.PLP.part.buried>
-5.7286

> <Gold.PLP.part.nonpolar>
-19.6716

> <Gold.PLP.part.repulsive>
0.4201

> <Gold.PLP.ligand.clash>
0.0000

> <Gold.PLP.ligand.torsion>
0.2875

> <Gold.PLP.Chemscore.Hbond>
2.9920

> <Gold.PLP.Chemscore.CHOScore>
0.0000

> <Gold.PLP.Chemscore.Metal>
0.0000

> <Gold.Chemscore.Hbonds>
donor molecule, donor type, donor heavy atom, donor atom, acceptor molecule, acceptor atom, score
      L1  H     6    20       P1  8028  1.00
      P1  H  7989  7998       L1     4  1.00
      P1  H  7997  8010       L1    15  1.00

> <Gold.PLP.Chemscore.Internal.Correction>
0.2839

> <Gold.Rescore>
     Score         DG    S(hbond)    S(metal)    S(lipo)     H(rot)  DE(clash)    DE(int)     intcor
     12.13     -12.50       1.41        0.00      49.99       1.38       0.11       0.27       ----

> <Gold.Chemscore.Fitness>
12.1326

> <Gold.Chemscore.DG>
-12.5031

> <Gold.Chemscore.ZeroCoef>
-5.4800

> <Gold.Chemscore.Hbond>
1.4123

> <Gold.Chemscore.Metal>
0.0000

> <Gold.Chemscore.Lipo>
49.9877

> <Gold.Chemscore.Internal_Hbond>
0.0000

> <Gold.Chemscore.DEClash>
0.1053

> <Gold.Chemscore.DEInternal>
0.2653

> <Gold.Chemscore.Rot>
1.3839

> <Gold.Chemscore.Internal.Correction>
   9.000000E+99

> <Gold.Chemscore.Hbonds>
donor molecule, donor type, donor heavy atom, donor atom, acceptor molecule, acceptor atom, score
      L1  H     6    20       P1  8028  0.94
      P1  H  7989  7998       L1     4  0.15
      P1  H  7997  8010       L1    15  0.54

> <Gold.Chemscore.Hbond.Weighted>
-4.7172

> <Gold.Chemscore.Metal.Weighted>
-0.0000

> <Gold.Chemscore.Lipo.Weighted>
-5.8486

> <Gold.Chemscore.Internal_Hbond.Weighted>
0.0000

> <Gold.Chemscore.DEClash.Weighted>
0.1053

> <Gold.Chemscore.DEInternal.Weighted>
0.2653

> <Gold.Chemscore.Rot.Weighted>
3.5427

> <Gold.Chemscore.Internal.Correction.Weighted>
   9.000000E+99

> <Gold.Protein.RotatedTorsions>
[ 6907 6896 6895 6894 ] final   34.91 input  -60.11 | X-H torsion
[ 7974 7965 7964 7962 ] final -102.06 input  175.53 | X-H torsion
[ 8008 7997 7996 7995 ] final   65.16 input   59.86 | X-H torsion
[ 10167 10162 10161 10158 ] final  -27.48 input  -65.29 | X-H torsion
[ 10718 10713 10712 10709 ] final  -26.03 input   66.30 | X-H torsion
[ 10763 10752 10751 10750 ] final  -16.57 input  -60.55 | X-H torsion
[ 11005 11000 10999 10996 ] final   49.90 input  -57.11 | X-H torsion

> <Gold.Protein.ActiveResidues>
 VAL166  LYS551  ARG553  GLY616  TRP617  ASP618  TYR619  PRO620  LYS621  CYS622 
 ASP623  PHE694  ASN695  SER759  ASP760  ASP761  ALA762  ILE779  LEU786  VAL792 
 PHE793  MET794  SER795  GLU796  ALA797  LYS798  CYS799  TRP800  GLU811  SER814 

> <Gold.Protein.RotatedAtoms>
  152.1088  134.9289  160.0567 H   0  0  0  0  0  0  0  0  0  0  0  0  # atno 6907 bound_to 6896
  152.0474  133.3999  159.4371 H   0  0  0  0  0  0  0  0  0  0  0  0  # atno 6908 bound_to 6896
  150.6842  134.3267  159.4853 H   0  0  0  0  0  0  0  0  0  0  0  0  # atno 6909 bound_to 6896
  145.2736  140.9306  143.2972 H   0  0  0  0  0  0  0  0  0  0  0  0  # atno 7974 bound_to 7965
  155.6574  140.3497  155.4770 H   0  0  0  0  0  0  0  0  0  0  0  0  # atno 8008 bound_to 7997
  155.9797  140.1172  157.0761 H   0  0  0  0  0  0  0  0  0  0  0  0  # atno 8009 bound_to 7997
  154.4188  140.1140  156.5405 H   0  0  0  0  0  0  0  0  0  0  0  0  # atno 8010 bound_to 7997
  140.7277  143.4090  151.1137 H   0  0  0  0  0  0  0  0  0  0  0  0  # atno 10167 bound_to 10162
  156.4566  130.4495  149.6955 H   0  0  0  0  0  0  0  0  0  0  0  0  # atno 10718 bound_to 10713
  153.5606  135.7010  153.5549 H   0  0  0  0  0  0  0  0  0  0  0  0  # atno 10763 bound_to 10752
  153.3433  135.4015  155.1589 H   0  0  0  0  0  0  0  0  0  0  0  0  # atno 10764 bound_to 10752
  154.8648  135.3747  154.5123 H   0  0  0  0  0  0  0  0  0  0  0  0  # atno 10765 bound_to 10752
  140.1063  134.5013  155.8717 H   0  0  0  0  0  0  0  0  0  0  0  0  # atno 11005 bound_to 11000
  144.9313  139.4295  143.6493 LP  0  0  0  0  0  0  0  0  0  0  0  0  # atno 17320 bound_to 7965
  146.3239  139.8226  142.8924 LP  0  0  0  0  0  0  0  0  0  0  0  0  # atno 17321 bound_to 7965
  139.7721  143.8479  152.3122 LP  0  0  0  0  0  0  0  0  0  0  0  0  # atno 17342 bound_to 10162
  139.8401  144.7214  150.9341 LP  0  0  0  0  0  0  0  0  0  0  0  0  # atno 17343 bound_to 10162
  156.3760  130.7555  151.2543 LP  0  0  0  0  0  0  0  0  0  0  0  0  # atno 17370 bound_to 10713
  157.7500  131.0309  150.4159 LP  0  0  0  0  0  0  0  0  0  0  0  0  # atno 17371 bound_to 10713
  141.2119  133.6712  156.6618 LP  0  0  0  0  0  0  0  0  0  0  0  0  # atno 17394 bound_to 11000
  140.3151  134.8054  157.4207 LP  0  0  0  0  0  0  0  0  0  0  0  0  # atno 17395 bound_to 11000

$$$$
