AV-unprocessed.smi:3351|AV-procd|sdf|12950|dock4
  -GOLD-   2272019383D 1   1.00000     0.00000
 Structure written by MMmdl.
 34 35  0  0  0  0  0  0  0  0  1 V2000
  150.1962  139.1209  158.4882 C   0  0  0  0  0  0  0  0  0  0  0  0
  151.7129  139.3622  158.4139 C   0  0  1  0  0  0  0  0  0  0  0  0
  152.1910  139.7956  157.0111 C   0  0  0  0  0  0  0  0  0  0  0  0
  152.0327  138.7513  156.0166 N   0  0  0  0  0  0  0  0  0  0  0  0
  151.2475  138.7993  154.8724 C   0  0  0  0  0  0  0  0  0  0  0  0
  151.4044  137.5881  154.2370 C   0  0  0  0  0  0  0  0  0  0  0  0
  152.2721  136.7825  154.9709 N   0  0  0  0  0  0  0  0  0  0  0  0
  152.6001  137.5371  156.0117 C   0  0  0  0  0  0  0  0  0  0  0  0
  152.0859  140.3670  159.4057 N   0  0  0  0  0  0  0  0  0  0  0  0
  153.3394  140.7563  159.6843 C   0  0  0  0  0  0  0  0  0  0  0  0
  154.3300  140.3129  159.1017 O   0  0  0  0  0  0  0  0  0  0  0  0
  153.4856  141.8312  160.7688 C   0  0  0  0  0  0  0  0  0  0  0  0
  152.9086  143.1186  160.3778 N   0  0  0  0  0  0  0  0  0  0  0  0
  152.7975  143.4510  158.9628 C   0  0  0  0  0  0  0  0  0  0  0  0
  151.8627  144.6554  158.8346 C   0  0  0  0  0  0  0  0  0  0  0  0
  151.8703  145.5248  160.4148 S   0  0  0  0  0  0  0  0  0  0  0  0
  152.5259  144.0977  161.2853 C   0  0  0  0  0  0  0  0  0  0  0  0
  152.6019  144.0542  162.5119 O   0  0  0  0  0  0  0  0  0  0  0  0
  149.8882  138.3056  157.8334 H   0  0  0  0  0  0  0  0  0  0  0  0
  149.6385  140.0113  158.1969 H   0  0  0  0  0  0  0  0  0  0  0  0
  149.8917  138.8532  159.5006 H   0  0  0  0  0  0  0  0  0  0  0  0
  152.2031  138.4218  158.6737 H   0  0  0  0  0  0  0  0  0  0  0  0
  151.6403  140.6773  156.6797 H   0  0  0  0  0  0  0  0  0  0  0  0
  153.2447  140.0771  157.0360 H   0  0  0  0  0  0  0  0  0  0  0  0
  150.6604  139.6678  154.6118 H   0  0  0  0  0  0  0  0  0  0  0  0
  150.9620  137.2366  153.3168 H   0  0  0  0  0  0  0  0  0  0  0  0
  153.2728  137.1997  156.7867 H   0  0  0  0  0  0  0  0  0  0  0  0
  151.3330  140.7881  159.9308 H   0  0  0  0  0  0  0  0  0  0  0  0
  153.0045  141.4690  161.6781 H   0  0  0  0  0  0  0  0  0  0  0  0
  154.5402  141.9697  161.0134 H   0  0  0  0  0  0  0  0  0  0  0  0
  153.7911  143.7034  158.5904 H   0  0  0  0  0  0  0  0  0  0  0  0
  152.4305  142.6062  158.3788 H   0  0  0  0  0  0  0  0  0  0  0  0
  152.1526  145.3172  158.0184 H   0  0  0  0  0  0  0  0  0  0  0  0
  150.8440  144.3166  158.6433 H   0  0  0  0  0  0  0  0  0  0  0  0
  1  2  1  0  0  0  0
  1 19  1  0  0  0  0
  1 20  1  0  0  0  0
  1 21  1  0  0  0  0
  2  3  1  0  0  0  0
  2  9  1  0  0  0  0
  2 22  1  0  0  0  0
  3  4  1  0  0  0  0
  3 23  1  0  0  0  0
  3 24  1  0  0  0  0
  4  8  1  0  0  0  0
  4  5  1  0  0  0  0
  5  6  2  0  0  0  0
  5 25  1  0  0  0  0
  6  7  1  0  0  0  0
  6 26  1  0  0  0  0
  7  8  2  0  0  0  0
  8 27  1  0  0  0  0
  9 10  1  0  0  0  0
  9 28  1  0  0  0  0
 10 11  2  0  0  0  0
 10 12  1  0  0  0  0
 12 13  1  0  0  0  0
 12 29  1  0  0  0  0
 12 30  1  0  0  0  0
 13 17  1  0  0  0  0
 13 14  1  0  0  0  0
 14 15  1  0  0  0  0
 14 31  1  0  0  0  0
 14 32  1  0  0  0  0
 15 16  1  0  0  0  0
 15 33  1  0  0  0  0
 15 34  1  0  0  0  0
 16 17  1  0  0  0  0
 17 18  2  0  0  0  0
M  END
> <s_m_source_file>
AV-unprocessed.smi

> <i_m_source_file_index>
3351

> <i_lp_mmshare_version>
43012

> <i_f3d_flags>
0

> <s_epik_input>
W2NIXTFuW2NIXVtjSF1uMVtDSDJdW0NAQEhdKFtDSDNdKVtOSF1DKD1PKVtDSDJdTjJbQ0gyXVtDSDJdU0MyPU8=

> <s_epik_cmdline>
J2VwaWtfcHl0aG9uJywgJy1waCcsICc3LjAnLCAnLXRuJywgJzgnLCAnLW1hJywgJzIwMCcsICctbWV0YWxfYmluZGluZycsICctaW1hZScsICc8aW5maWxlLm1hZT4nLCAnLW9tYWUnLCAnPG91dGZpbGUubWFlPic=

> <r_lp_tautomer_probability>
1

> <r_epik_Ionization_Penalty>
0.618163

> <r_epik_Ionization_Penalty_Charging>
0.618163

> <r_epik_Ionization_Penalty_Neutral>
6.6929e-08

> <r_epik_State_Penalty>
0.633954

> <r_epik_Charging_Adjusted_Penalty>
1.25212

> <i_epik_Tot_Q>
0

> <i_epik_Tot_abs_Q>
0

> <r_epik_Metal_State_Penalty>
0.305924

> <b_epik_Metal_Only>
0

> <s_lp_Force_Field>
OPLS_2005

> <r_lp_Energy>
4.61171

> <b_lp_Chiralities_Consistent>
1

> <s_lp_Variant>
AV-unprocessed.smi:3351-4

> <Gold.Version>
5.8.1

> <Gold.Id.Protein>
6NUR|6NUR_protein|mol2

> <Gold.PLP.Fitness>
48.0207

> <Gold.PLP.PLP>
-40.2662

> <Gold.PLP.part.hbond>
-2.0000

> <Gold.PLP.part.metal>
0.0000

> <Gold.PLP.part.buried>
-3.0215

> <Gold.PLP.part.nonpolar>
-35.9959

> <Gold.PLP.part.repulsive>
0.4893

> <Gold.PLP.ligand.clash>
0.0000

> <Gold.PLP.ligand.torsion>
0.4146

> <Gold.PLP.Chemscore.Hbond>
1.8800

> <Gold.PLP.Chemscore.CHOScore>
0.9676

> <Gold.PLP.Chemscore.Metal>
0.0000

> <Gold.Chemscore.Hbonds>
donor molecule, donor type, donor heavy atom, donor atom, acceptor molecule, acceptor atom, score
      P1  H  7997  8010       L1    11  0.85
      P1  H 10752 10765       L1     7  0.62
      L1  C     6    26       P1  7948  0.08
      L1  C     6    26       P1  7949  1.00

> <Gold.PLP.Chemscore.Internal.Correction>
0.0408

> <Gold.Rescore>
     Score         DG    S(hbond)    S(metal)    S(lipo)     H(rot)  DE(clash)    DE(int)     intcor
     12.88     -14.63       1.83        0.00      77.06       2.33       0.24       1.52       ----

> <Gold.Chemscore.Fitness>
12.8753

> <Gold.Chemscore.DG>
-14.6316

> <Gold.Chemscore.ZeroCoef>
-5.4800

> <Gold.Chemscore.Hbond>
1.8278

> <Gold.Chemscore.Metal>
0.0000

> <Gold.Chemscore.Lipo>
77.0592

> <Gold.Chemscore.Internal_Hbond>
0.0000

> <Gold.Chemscore.DEClash>
0.2361

> <Gold.Chemscore.DEInternal>
1.5203

> <Gold.Chemscore.Rot>
2.3317

> <Gold.Chemscore.Internal.Correction>
   9.000000E+99

> <Gold.Chemscore.Hbonds>
donor molecule, donor type, donor heavy atom, donor atom, acceptor molecule, acceptor atom, score
      P1  H  7997  8010       L1    11  0.84
      P1  H 10752 10765       L1     7  0.59

> <Gold.Chemscore.Hbond.Weighted>
-6.1049

> <Gold.Chemscore.Metal.Weighted>
-0.0000

> <Gold.Chemscore.Lipo.Weighted>
-9.0159

> <Gold.Chemscore.Internal_Hbond.Weighted>
0.0000

> <Gold.Chemscore.DEClash.Weighted>
0.2361

> <Gold.Chemscore.DEInternal.Weighted>
1.5203

> <Gold.Chemscore.Rot.Weighted>
5.9692

> <Gold.Chemscore.Internal.Correction.Weighted>
   9.000000E+99

> <Gold.Protein.RotatedTorsions>
[ 6907 6896 6895 6894 ] final   -9.21 input  -60.11 | X-H torsion
[ 7974 7965 7964 7962 ] final  127.35 input  175.53 | X-H torsion
[ 8008 7997 7996 7995 ] final   10.80 input   59.86 | X-H torsion
[ 10167 10162 10161 10158 ] final   16.06 input  -65.29 | X-H torsion
[ 10718 10713 10712 10709 ] final  164.00 input   66.30 | X-H torsion
[ 10763 10752 10751 10750 ] final  179.46 input  -60.55 | X-H torsion
[ 11005 11000 10999 10996 ] final   -0.26 input  -57.11 | X-H torsion

> <Gold.Protein.ActiveResidues>
 VAL166  LYS551  ARG553  GLY616  TRP617  ASP618  TYR619  PRO620  LYS621  CYS622 
 ASP623  PHE694  ASN695  SER759  ASP760  ASP761  ALA762  ILE779  LEU786  VAL792 
 PHE793  MET794  SER795  GLU796  ALA797  LYS798  CYS799  TRP800  GLU811  SER814 

> <Gold.Protein.RotatedAtoms>
  151.4214  135.0998  159.9614 H   0  0  0  0  0  0  0  0  0  0  0  0  # atno 6907 bound_to 6896
  152.4987  133.8703  159.7305 H   0  0  0  0  0  0  0  0  0  0  0  0  # atno 6908 bound_to 6896
  150.9220  133.6811  159.2858 H   0  0  0  0  0  0  0  0  0  0  0  0  # atno 6909 bound_to 6896
  145.0515  139.3879  143.5051 H   0  0  0  0  0  0  0  0  0  0  0  0  # atno 7974 bound_to 7965
  154.7982  140.2847  155.5941 H   0  0  0  0  0  0  0  0  0  0  0  0  # atno 8008 bound_to 7997
  156.2974  140.2591  156.2774 H   0  0  0  0  0  0  0  0  0  0  0  0  # atno 8009 bound_to 7997
  154.9589  140.0378  157.2170 H   0  0  0  0  0  0  0  0  0  0  0  0  # atno 8010 bound_to 7997
  140.5824  143.8956  150.6801 H   0  0  0  0  0  0  0  0  0  0  0  0  # atno 10167 bound_to 10162
  157.1005  131.0441  151.2500 H   0  0  0  0  0  0  0  0  0  0  0  0  # atno 10718 bound_to 10713
  154.5210  135.2794  155.1262 H   0  0  0  0  0  0  0  0  0  0  0  0  # atno 10763 bound_to 10752
  154.2820  135.6283  153.5354 H   0  0  0  0  0  0  0  0  0  0  0  0  # atno 10764 bound_to 10752
  152.9937  135.5653  154.5699 H   0  0  0  0  0  0  0  0  0  0  0  0  # atno 10765 bound_to 10752
  140.6343  133.9547  155.8291 H   0  0  0  0  0  0  0  0  0  0  0  0  # atno 11005 bound_to 11000
  146.3518  140.0168  142.8662 LP  0  0  0  0  0  0  0  0  0  0  0  0  # atno 17320 bound_to 7965
  145.1521  140.9628  143.4427 LP  0  0  0  0  0  0  0  0  0  0  0  0  # atno 17321 bound_to 7965
  140.2458  143.3629  152.1448 LP  0  0  0  0  0  0  0  0  0  0  0  0  # atno 17342 bound_to 10162
  139.5177  144.6996  151.5532 LP  0  0  0  0  0  0  0  0  0  0  0  0  # atno 17343 bound_to 10162
  157.4645  130.7672  149.7266 LP  0  0  0  0  0  0  0  0  0  0  0  0  # atno 17370 bound_to 10713
  155.9875  130.3966  150.3163 LP  0  0  0  0  0  0  0  0  0  0  0  0  # atno 17371 bound_to 10713
  141.0653  134.0286  157.3602 LP  0  0  0  0  0  0  0  0  0  0  0  0  # atno 17394 bound_to 11000
  139.9104  135.0189  156.7667 LP  0  0  0  0  0  0  0  0  0  0  0  0  # atno 17395 bound_to 11000

$$$$
