AV-unprocessed.smi:1302|AV-procd|sdf|5427|dock7
  -GOLD-   22720 4583D 1   1.00000     0.00000
 Structure written by MMmdl.
 43 44  0  0  0  0  0  0  0  0  1 V2000
  146.7318  139.8366  151.6271 C   0  0  0  0  0  0  0  0  0  0  0  0
  147.3019  138.8216  152.6269 C   0  0  0  0  0  0  0  0  0  0  0  0
  146.1949  137.9596  153.2541 C   0  0  0  0  0  0  0  0  0  0  0  0
  148.0474  139.5291  153.6640 N   0  0  0  0  0  0  0  0  0  0  0  0
  149.3496  139.3544  153.9443 C   0  0  0  0  0  0  0  0  0  0  0  0
  150.0680  138.5405  153.3634 O   0  0  0  0  0  0  0  0  0  0  0  0
  149.8842  140.1772  155.0809 C   0  0  0  0  0  0  0  0  0  0  0  0
  149.0925  141.1809  155.6773 C   0  0  0  0  0  0  0  0  0  0  0  0
  149.6171  141.9194  156.7553 C   0  0  0  0  0  0  0  0  0  0  0  0
  150.9224  141.6324  157.2190 C   0  0  0  0  0  0  0  0  0  0  0  0
  151.4682  142.3641  158.2954 N   0  0  0  0  0  0  0  0  0  0  0  0
  151.7551  143.7690  158.0196 C   0  0  0  0  0  0  0  0  0  0  0  0
  152.0297  144.5446  159.3231 C   0  0  1  0  0  0  0  0  0  0  0  0
  150.7571  144.8475  160.1345 C   0  0  0  0  0  0  0  0  0  0  0  0
  153.0197  143.8694  160.1022 O   0  0  0  0  0  0  0  0  0  0  0  0
  152.7099  142.5125  160.4171 C   0  0  2  0  0  0  0  0  0  0  0  0
  153.8660  141.9415  161.2446 C   0  0  0  0  0  0  0  0  0  0  0  0
  152.4889  141.7198  159.1169 C   0  0  0  0  0  0  0  0  0  0  0  0
  151.6753  140.6549  156.6570 N   0  0  0  0  0  0  0  0  0  0  0  0
  151.1684  139.9498  155.6238 C   0  0  0  0  0  0  0  0  0  0  0  0
  146.1924  139.3338  150.8238 H   0  0  0  0  0  0  0  0  0  0  0  0
  147.5267  140.4268  151.1697 H   0  0  0  0  0  0  0  0  0  0  0  0
  146.0396  140.5264  152.1112 H   0  0  0  0  0  0  0  0  0  0  0  0
  147.9852  138.1677  152.0818 H   0  0  0  0  0  0  0  0  0  0  0  0
  145.6338  137.4250  152.4872 H   0  0  0  0  0  0  0  0  0  0  0  0
  145.4884  138.5690  153.8187 H   0  0  0  0  0  0  0  0  0  0  0  0
  146.6097  137.2147  153.9340 H   0  0  0  0  0  0  0  0  0  0  0  0
  147.5323  140.2022  154.2128 H   0  0  0  0  0  0  0  0  0  0  0  0
  148.0950  141.3896  155.3182 H   0  0  0  0  0  0  0  0  0  0  0  0
  149.0107  142.6821  157.2204 H   0  0  0  0  0  0  0  0  0  0  0  0
  152.6344  143.8150  157.3757 H   0  0  0  0  0  0  0  0  0  0  0  0
  150.9457  144.2532  157.4747 H   0  0  0  0  0  0  0  0  0  0  0  0
  152.4642  145.5067  159.0500 H   0  0  0  0  0  0  0  0  0  0  0  0
  150.0764  145.4785  159.5626 H   0  0  0  0  0  0  0  0  0  0  0  0
  151.0001  145.3765  161.0561 H   0  0  0  0  0  0  0  0  0  0  0  0
  150.2105  143.9432  160.4004 H   0  0  0  0  0  0  0  0  0  0  0  0
  151.8073  142.4731  161.0274 H   0  0  0  0  0  0  0  0  0  0  0  0
  153.6752  140.9046  161.5225 H   0  0  0  0  0  0  0  0  0  0  0  0
  154.0059  142.5111  162.1635 H   0  0  0  0  0  0  0  0  0  0  0  0
  154.8032  141.9720  160.6877 H   0  0  0  0  0  0  0  0  0  0  0  0
  152.1876  140.7006  159.3630 H   0  0  0  0  0  0  0  0  0  0  0  0
  153.4188  141.6578  158.5497 H   0  0  0  0  0  0  0  0  0  0  0  0
  151.8153  139.1811  155.2269 H   0  0  0  0  0  0  0  0  0  0  0  0
  1  2  1  0  0  0  0
  1 21  1  0  0  0  0
  1 22  1  0  0  0  0
  1 23  1  0  0  0  0
  2  3  1  0  0  0  0
  2  4  1  0  0  0  0
  2 24  1  0  0  0  0
  3 25  1  0  0  0  0
  3 26  1  0  0  0  0
  3 27  1  0  0  0  0
  4  5  1  0  0  0  0
  4 28  1  0  0  0  0
  5  6  2  0  0  0  0
  5  7  1  0  0  0  0
  7 20  1  0  0  0  0
  7  8  2  0  0  0  0
  8  9  1  0  0  0  0
  8 29  1  0  0  0  0
  9 10  2  0  0  0  0
  9 30  1  0  0  0  0
 10 11  1  0  0  0  0
 10 19  1  0  0  0  0
 11 18  1  0  0  0  0
 11 12  1  0  0  0  0
 12 13  1  0  0  0  0
 12 31  1  0  0  0  0
 12 32  1  0  0  0  0
 13 14  1  0  0  0  0
 13 15  1  0  0  0  0
 13 33  1  0  0  0  0
 14 34  1  0  0  0  0
 14 35  1  0  0  0  0
 14 36  1  0  0  0  0
 15 16  1  0  0  0  0
 16 17  1  0  0  0  0
 16 18  1  0  0  0  0
 16 37  1  0  0  0  0
 17 38  1  0  0  0  0
 17 39  1  0  0  0  0
 17 40  1  0  0  0  0
 18 41  1  0  0  0  0
 18 42  1  0  0  0  0
 19 20  2  0  0  0  0
 20 43  1  0  0  0  0
M  END
> <s_m_source_file>
AV-unprocessed.smi

> <i_m_source_file_index>
1302

> <i_lp_mmshare_version>
43012

> <i_f3d_flags>
0

> <s_epik_input>
W0NIM11bQ0hdKFtDSDNdKVtOSF1DKD1PKWMxW2NIXVtjSF1jKG5bY0hdMSlOMltDSDJdW0NAQEhdKFtDSDNdKU9bQ0BASF0oW0NIM10pW0NIMl0y

> <s_epik_cmdline>
J2VwaWtfcHl0aG9uJywgJy1waCcsICc3LjAnLCAnLXRuJywgJzgnLCAnLW1hJywgJzIwMCcsICctbWV0YWxfYmluZGluZycsICctaW1hZScsICc8aW5maWxlLm1hZT4nLCAnLW9tYWUnLCAnPG91dGZpbGUubWFlPic=

> <r_lp_tautomer_probability>
1

> <r_epik_Ionization_Penalty>
2.23089e-05

> <r_epik_Ionization_Penalty_Charging>
0

> <r_epik_Ionization_Penalty_Neutral>
2.23089e-05

> <r_epik_State_Penalty>
-0

> <r_epik_Charging_Adjusted_Penalty>
0

> <i_epik_Tot_Q>
0

> <i_epik_Tot_abs_Q>
0

> <r_epik_Metal_State_Penalty>
-0

> <b_epik_Metal_Only>
0

> <s_lp_Force_Field>
OPLS_2005

> <r_lp_Energy>
20.4022

> <b_lp_Chiralities_Consistent>
1

> <s_lp_Variant>
AV-unprocessed.smi:1302-3

> <Gold.Version>
5.8.1

> <Gold.Id.Protein>
6NUR|6NUR_protein|mol2

> <Gold.PLP.Fitness>
34.4701

> <Gold.PLP.PLP>
-35.0454

> <Gold.PLP.part.hbond>
-0.7920

> <Gold.PLP.part.metal>
0.0000

> <Gold.PLP.part.buried>
2.6630

> <Gold.PLP.part.nonpolar>
-39.9013

> <Gold.PLP.part.repulsive>
2.9086

> <Gold.PLP.ligand.clash>
0.0000

> <Gold.PLP.ligand.torsion>
0.4551

> <Gold.PLP.Chemscore.Hbond>
0.0000

> <Gold.PLP.Chemscore.CHOScore>
0.0000

> <Gold.PLP.Chemscore.Metal>
0.0000

> <Gold.PLP.Chemscore.Internal.Correction>
0.3350

> <Gold.Rescore>
     Score         DG    S(hbond)    S(metal)    S(lipo)     H(rot)  DE(clash)    DE(int)     intcor
     12.72     -14.79       0.00        0.00     104.77       1.15       1.83       0.23       ----

> <Gold.Chemscore.Fitness>
12.7242

> <Gold.Chemscore.DG>
-14.7922

> <Gold.Chemscore.ZeroCoef>
-5.4800

> <Gold.Chemscore.Hbond>
0.0000

> <Gold.Chemscore.Metal>
0.0000

> <Gold.Chemscore.Lipo>
104.7718

> <Gold.Chemscore.Internal_Hbond>
0.0000

> <Gold.Chemscore.DEClash>
1.8332

> <Gold.Chemscore.DEInternal>
0.2347

> <Gold.Chemscore.Rot>
1.1508

> <Gold.Chemscore.Internal.Correction>
   9.000000E+99

> <Gold.Chemscore.Hbond.Weighted>
-0.0000

> <Gold.Chemscore.Metal.Weighted>
-0.0000

> <Gold.Chemscore.Lipo.Weighted>
-12.2583

> <Gold.Chemscore.Internal_Hbond.Weighted>
0.0000

> <Gold.Chemscore.DEClash.Weighted>
1.8332

> <Gold.Chemscore.DEInternal.Weighted>
0.2347

> <Gold.Chemscore.Rot.Weighted>
2.9461

> <Gold.Chemscore.Internal.Correction.Weighted>
   9.000000E+99

> <Gold.Protein.RotatedTorsions>
[ 6907 6896 6895 6894 ] final  174.95 input  -60.11 | X-H torsion
[ 7974 7965 7964 7962 ] final   -1.45 input  175.53 | X-H torsion
[ 8008 7997 7996 7995 ] final -105.76 input   59.86 | X-H torsion
[ 10167 10162 10161 10158 ] final  -29.64 input  -65.29 | X-H torsion
[ 10718 10713 10712 10709 ] final   28.58 input   66.30 | X-H torsion
[ 10763 10752 10751 10750 ] final -161.69 input  -60.55 | X-H torsion
[ 11005 11000 10999 10996 ] final -173.49 input  -57.11 | X-H torsion

> <Gold.Protein.ActiveResidues>
 VAL166  LYS551  ARG553  GLY616  TRP617  ASP618  TYR619  PRO620  LYS621  CYS622 
 ASP623  PHE694  ASN695  SER759  ASP760  ASP761  ALA762  ILE779  LEU786  VAL792 
 PHE793  MET794  SER795  GLU796  ALA797  LYS798  CYS799  TRP800  GLU811  SER814 

> <Gold.Protein.RotatedAtoms>
  151.7441  133.3323  159.3373 H   0  0  0  0  0  0  0  0  0  0  0  0  # atno 6907 bound_to 6896
  150.7561  134.6252  159.6166 H   0  0  0  0  0  0  0  0  0  0  0  0  # atno 6908 bound_to 6896
  152.3511  134.7005  160.0287 H   0  0  0  0  0  0  0  0  0  0  0  0  # atno 6909 bound_to 6896
  146.2417  140.1423  142.8335 H   0  0  0  0  0  0  0  0  0  0  0  0  # atno 7974 bound_to 7965
  154.9046  140.0412  157.1912 H   0  0  0  0  0  0  0  0  0  0  0  0  # atno 8008 bound_to 7997
  154.8409  140.2914  155.5638 H   0  0  0  0  0  0  0  0  0  0  0  0  # atno 8009 bound_to 7997
  156.2992  140.2483  156.3352 H   0  0  0  0  0  0  0  0  0  0  0  0  # atno 8010 bound_to 7997
  140.7258  143.3912  151.1426 H   0  0  0  0  0  0  0  0  0  0  0  0  # atno 10167 bound_to 10162
  157.2353  130.7043  149.6333 H   0  0  0  0  0  0  0  0  0  0  0  0  # atno 10718 bound_to 10713
  154.7281  135.3040  154.8937 H   0  0  0  0  0  0  0  0  0  0  0  0  # atno 10763 bound_to 10752
  153.9789  135.6733  153.4753 H   0  0  0  0  0  0  0  0  0  0  0  0  # atno 10764 bound_to 10752
  153.0893  135.4967  154.8579 H   0  0  0  0  0  0  0  0  0  0  0  0  # atno 10765 bound_to 10752
  140.4852  134.6037  157.4934 H   0  0  0  0  0  0  0  0  0  0  0  0  # atno 11005 bound_to 11000
  145.0237  140.8814  143.5151 LP  0  0  0  0  0  0  0  0  0  0  0  0  # atno 17320 bound_to 7965
  145.1475  139.2534  143.5458 LP  0  0  0  0  0  0  0  0  0  0  0  0  # atno 17321 bound_to 7965
  139.7518  143.8768  152.3078 LP  0  0  0  0  0  0  0  0  0  0  0  0  # atno 17342 bound_to 10162
  139.8624  144.7110  150.9084 LP  0  0  0  0  0  0  0  0  0  0  0  0  # atno 17343 bound_to 10162
  155.9673  130.4475  150.5585 LP  0  0  0  0  0  0  0  0  0  0  0  0  # atno 17370 bound_to 10713
  157.3435  131.0721  151.1769 LP  0  0  0  0  0  0  0  0  0  0  0  0  # atno 17371 bound_to 10713
  139.9802  134.7149  155.9873 LP  0  0  0  0  0  0  0  0  0  0  0  0  # atno 17394 bound_to 11000
  141.1511  133.6548  156.4017 LP  0  0  0  0  0  0  0  0  0  0  0  0  # atno 17395 bound_to 11000

$$$$
