AV-unprocessed.smi:3231|AV-procd|sdf|12337|dock10
  -GOLD-   2272018193D 1   1.00000     0.00000
 Structure written by MMmdl.
 40 41  0  0  0  0  0  0  0  0  1 V2000
  148.4159  138.9141  153.5311 O   0  0  0  0  0  0  0  0  0  0  0  0
  148.9232  139.6842  154.6014 C   0  0  2  0  0  0  0  0  0  0  0  0
  148.9156  141.1543  154.1507 C   0  0  0  0  0  0  0  0  0  0  0  0
  148.9757  142.0603  155.2931 N   0  0  0  0  0  0  0  0  0  0  0  0
  150.2222  141.9663  156.0479 C   0  0  0  0  0  0  0  0  0  0  0  0
  149.9898  142.1908  157.5506 C   0  0  0  0  0  0  0  0  0  0  0  0
  151.0599  142.9552  158.1655 N   0  0  0  0  0  0  0  0  0  0  0  0
  151.4853  144.2316  157.8626 C   0  0  0  0  0  0  0  0  0  0  0  0
  152.5146  144.5283  158.7093 C   0  0  0  0  0  0  0  0  0  0  0  0
  152.6477  143.3550  159.5033 C   0  0  0  0  0  0  0  0  0  0  0  0
  151.7767  142.4147  159.1745 N   0  0  0  0  0  0  0  0  0  0  0  0
  150.3471  139.1794  154.9254 C   0  0  0  0  0  0  0  0  0  0  0  0
  150.4499  138.2477  156.0499 N   0  0  0  0  0  0  0  0  0  0  0  0
  149.9153  136.9386  155.6896 C   0  0  0  0  0  0  0  0  0  0  0  0
  150.0070  135.9377  156.8541 C   0  0  0  0  0  0  0  0  0  0  0  0
  151.3609  135.8263  157.2795 O   0  0  0  0  0  0  0  0  0  0  0  0
  151.9114  137.0751  157.6849 C   0  0  0  0  0  0  0  0  0  0  0  0
  151.8226  138.0827  156.5252 C   0  0  0  0  0  0  0  0  0  0  0  0
  148.7377  139.2788  152.7211 H   0  0  0  0  0  0  0  0  0  0  0  0
  148.2513  139.5738  155.4518 H   0  0  0  0  0  0  0  0  0  0  0  0
  149.7504  141.3424  153.4742 H   0  0  0  0  0  0  0  0  0  0  0  0
  148.0050  141.3524  153.5836 H   0  0  0  0  0  0  0  0  0  0  0  0
  148.8350  143.0155  154.9797 H   0  0  0  0  0  0  0  0  0  0  0  0
  150.6889  140.9936  155.8871 H   0  0  0  0  0  0  0  0  0  0  0  0
  150.9282  142.7127  155.6826 H   0  0  0  0  0  0  0  0  0  0  0  0
  149.0533  142.7285  157.7043 H   0  0  0  0  0  0  0  0  0  0  0  0
  149.8910  141.2377  158.0720 H   0  0  0  0  0  0  0  0  0  0  0  0
  151.0232  144.8159  157.0808 H   0  0  0  0  0  0  0  0  0  0  0  0
  153.0852  145.4440  158.7552 H   0  0  0  0  0  0  0  0  0  0  0  0
  153.3469  143.1600  160.3031 H   0  0  0  0  0  0  0  0  0  0  0  0
  150.7481  138.7054  154.0283 H   0  0  0  0  0  0  0  0  0  0  0  0
  150.9976  140.0337  155.1188 H   0  0  0  0  0  0  0  0  0  0  0  0
  148.8734  137.0363  155.3824 H   0  0  0  0  0  0  0  0  0  0  0  0
  150.4575  136.5412  154.8300 H   0  0  0  0  0  0  0  0  0  0  0  0
  149.3805  136.2566  157.6885 H   0  0  0  0  0  0  0  0  0  0  0  0
  149.6499  134.9567  156.5408 H   0  0  0  0  0  0  0  0  0  0  0  0
  151.3783  137.4476  158.5609 H   0  0  0  0  0  0  0  0  0  0  0  0
  152.9502  136.9277  157.9806 H   0  0  0  0  0  0  0  0  0  0  0  0
  152.4606  137.7467  155.7062 H   0  0  0  0  0  0  0  0  0  0  0  0
  152.2261  139.0348  156.8660 H   0  0  0  0  0  0  0  0  0  0  0  0
  1  2  1  0  0  0  0
  1 19  1  0  0  0  0
  2  3  1  0  0  0  0
  2 12  1  0  0  0  0
  2 20  1  0  0  0  0
  3  4  1  0  0  0  0
  3 21  1  0  0  0  0
  3 22  1  0  0  0  0
  4  5  1  0  0  0  0
  4 23  1  0  0  0  0
  5  6  1  0  0  0  0
  5 24  1  0  0  0  0
  5 25  1  0  0  0  0
  6  7  1  0  0  0  0
  6 26  1  0  0  0  0
  6 27  1  0  0  0  0
  7 11  1  0  0  0  0
  7  8  1  0  0  0  0
  8  9  2  0  0  0  0
  8 28  1  0  0  0  0
  9 10  1  0  0  0  0
  9 29  1  0  0  0  0
 10 11  2  0  0  0  0
 10 30  1  0  0  0  0
 12 13  1  0  0  0  0
 12 31  1  0  0  0  0
 12 32  1  0  0  0  0
 13 18  1  0  0  0  0
 13 14  1  0  0  0  0
 14 15  1  0  0  0  0
 14 33  1  0  0  0  0
 14 34  1  0  0  0  0
 15 16  1  0  0  0  0
 15 35  1  0  0  0  0
 15 36  1  0  0  0  0
 16 17  1  0  0  0  0
 17 18  1  0  0  0  0
 17 37  1  0  0  0  0
 17 38  1  0  0  0  0
 18 39  1  0  0  0  0
 18 40  1  0  0  0  0
M  END
> <s_m_source_file>
AV-unprocessed.smi

> <i_m_source_file_index>
3231

> <i_lp_mmshare_version>
43012

> <i_f3d_flags>
0

> <s_epik_input>
W0NIMl0xW0NIMl1PW0NIMl1bQ0gyXU4xW0NIMl1bQ0BIXShbT0hdKVtDSDJdW05IXVtDSDJdW0NIMl1uMltjSF1bY0hdW2NIXW4y

> <s_epik_cmdline>
J2VwaWtfcHl0aG9uJywgJy1waCcsICc3LjAnLCAnLXRuJywgJzgnLCAnLW1hJywgJzIwMCcsICctbWV0YWxfYmluZGluZycsICctaW1hZScsICc8aW5maWxlLm1hZT4nLCAnLW9tYWUnLCAnPG91dGZpbGUubWFlPic=

> <r_lp_tautomer_probability>
1

> <r_epik_Ionization_Penalty>
2.37071

> <r_epik_Ionization_Penalty_Charging>
0

> <r_epik_Ionization_Penalty_Neutral>
2.37071

> <r_epik_State_Penalty>
1.72455

> <r_epik_Charging_Adjusted_Penalty>
1.72455

> <i_epik_Tot_Q>
0

> <i_epik_Tot_abs_Q>
0

> <r_epik_Metal_State_Penalty>
1.72366

> <b_epik_Metal_Only>
0

> <s_lp_Force_Field>
OPLS_2005

> <r_lp_Energy>
31.2728

> <b_lp_Chiralities_Consistent>
1

> <s_lp_Variant>
AV-unprocessed.smi:3231-7

> <Gold.Version>
5.8.1

> <Gold.Id.Protein>
6NUR|6NUR_protein|mol2

> <Gold.PLP.Fitness>
48.1590

> <Gold.PLP.PLP>
-38.8177

> <Gold.PLP.part.hbond>
-4.0000

> <Gold.PLP.part.metal>
0.0000

> <Gold.PLP.part.buried>
-3.6622

> <Gold.PLP.part.nonpolar>
-31.5956

> <Gold.PLP.part.repulsive>
0.0105

> <Gold.PLP.ligand.clash>
0.0000

> <Gold.PLP.ligand.torsion>
1.3078

> <Gold.PLP.Chemscore.Hbond>
2.9280

> <Gold.PLP.Chemscore.CHOScore>
1.0000

> <Gold.PLP.Chemscore.Metal>
0.0000

> <Gold.Chemscore.Hbonds>
donor molecule, donor type, donor heavy atom, donor atom, acceptor molecule, acceptor atom, score
      L1  H     1    19       P1  7957  1.00
      L1  H     4    23       P1  8028  0.82
      L1  C     8    28       P1  8028  1.00

> <Gold.PLP.Chemscore.Internal.Correction>
0.1728

> <Gold.Rescore>
     Score         DG    S(hbond)    S(metal)    S(lipo)     H(rot)  DE(clash)    DE(int)     intcor
     17.38     -18.78       2.60        0.00      98.83       2.72       0.06       1.33       ----

> <Gold.Chemscore.Fitness>
17.3837

> <Gold.Chemscore.DG>
-18.7817

> <Gold.Chemscore.ZeroCoef>
-5.4800

> <Gold.Chemscore.Hbond>
2.6040

> <Gold.Chemscore.Metal>
0.0000

> <Gold.Chemscore.Lipo>
98.8305

> <Gold.Chemscore.Internal_Hbond>
0.0000

> <Gold.Chemscore.DEClash>
0.0648

> <Gold.Chemscore.DEInternal>
1.3333

> <Gold.Chemscore.Rot>
2.7183

> <Gold.Chemscore.Internal.Correction>
   9.000000E+99

> <Gold.Chemscore.Hbonds>
donor molecule, donor type, donor heavy atom, donor atom, acceptor molecule, acceptor atom, score
      L1  H     1    19       P1  7957  0.99
      L1  H     4    23       P1  8028  0.80

> <Gold.Chemscore.Hbond.Weighted>
-8.6974

> <Gold.Chemscore.Metal.Weighted>
-0.0000

> <Gold.Chemscore.Lipo.Weighted>
-11.5632

> <Gold.Chemscore.Internal_Hbond.Weighted>
0.0000

> <Gold.Chemscore.DEClash.Weighted>
0.0648

> <Gold.Chemscore.DEInternal.Weighted>
1.3333

> <Gold.Chemscore.Rot.Weighted>
6.9589

> <Gold.Chemscore.Internal.Correction.Weighted>
   9.000000E+99

> <Gold.Protein.RotatedTorsions>
[ 6907 6896 6895 6894 ] final -162.89 input  -60.11 | X-H torsion
[ 7974 7965 7964 7962 ] final -130.73 input  175.53 | X-H torsion
[ 8008 7997 7996 7995 ] final  178.20 input   59.86 | X-H torsion
[ 10167 10162 10161 10158 ] final  131.38 input  -65.29 | X-H torsion
[ 10718 10713 10712 10709 ] final   71.38 input   66.30 | X-H torsion
[ 10763 10752 10751 10750 ] final  126.33 input  -60.55 | X-H torsion
[ 11005 11000 10999 10996 ] final -131.44 input  -57.11 | X-H torsion

> <Gold.Protein.ActiveResidues>
 VAL166  LYS551  ARG553  GLY616  TRP617  ASP618  TYR619  PRO620  LYS621  CYS622 
 ASP623  PHE694  ASN695  SER759  ASP760  ASP761  ALA762  ILE779  LEU786  VAL792 
 PHE793  MET794  SER795  GLU796  ALA797  LYS798  CYS799  TRP800  GLU811  SER814 

> <Gold.Protein.RotatedAtoms>
  151.3874  133.3800  159.2716 H   0  0  0  0  0  0  0  0  0  0  0  0  # atno 6907 bound_to 6896
  150.9531  134.8929  159.7695 H   0  0  0  0  0  0  0  0  0  0  0  0  # atno 6908 bound_to 6896
  152.5120  134.3830  159.9410 H   0  0  0  0  0  0  0  0  0  0  0  0  # atno 6909 bound_to 6896
  144.9447  140.7278  143.4825 H   0  0  0  0  0  0  0  0  0  0  0  0  # atno 7974 bound_to 7965
  156.0573  140.1339  156.9982 H   0  0  0  0  0  0  0  0  0  0  0  0  # atno 8008 bound_to 7997
  154.4464  140.0998  156.6535 H   0  0  0  0  0  0  0  0  0  0  0  0  # atno 8009 bound_to 7997
  155.5432  140.3461  155.4454 H   0  0  0  0  0  0  0  0  0  0  0  0  # atno 8010 bound_to 7997
  139.5386  144.6708  151.4700 H   0  0  0  0  0  0  0  0  0  0  0  0  # atno 10167 bound_to 10162
  157.6449  130.9525  150.0782 H   0  0  0  0  0  0  0  0  0  0  0  0  # atno 10718 bound_to 10713
  153.6916  135.3298  155.3203 H   0  0  0  0  0  0  0  0  0  0  0  0  # atno 10763 bound_to 10752
  154.8438  135.4433  154.1502 H   0  0  0  0  0  0  0  0  0  0  0  0  # atno 10764 bound_to 10752
  153.2545  135.6985  153.7721 H   0  0  0  0  0  0  0  0  0  0  0  0  # atno 10765 bound_to 10752
  140.9259  134.1384  157.4276 H   0  0  0  0  0  0  0  0  0  0  0  0  # atno 11005 bound_to 11000
  145.2936  139.1875  143.4727 LP  0  0  0  0  0  0  0  0  0  0  0  0  # atno 17320 bound_to 7965
  146.3299  140.2917  142.8615 LP  0  0  0  0  0  0  0  0  0  0  0  0  # atno 17321 bound_to 7965
  140.6606  143.8507  150.6883 LP  0  0  0  0  0  0  0  0  0  0  0  0  # atno 17342 bound_to 10162
  140.1900  143.4044  152.1870 LP  0  0  0  0  0  0  0  0  0  0  0  0  # atno 17343 bound_to 10162
  156.1766  130.3648  149.9092 LP  0  0  0  0  0  0  0  0  0  0  0  0  # atno 17370 bound_to 10713
  156.7055  130.8950  151.3604 LP  0  0  0  0  0  0  0  0  0  0  0  0  # atno 17371 bound_to 10713
  139.8785  134.9988  156.5919 LP  0  0  0  0  0  0  0  0  0  0  0  0  # atno 17394 bound_to 11000
  140.7927  133.8569  155.8660 LP  0  0  0  0  0  0  0  0  0  0  0  0  # atno 17395 bound_to 11000

$$$$
