AV-unprocessed.smi:415|AV-procd|sdf|2520|dock6
  -GOLD-   2262022473D 1   1.00000     0.00000
 Structure written by MMmdl.
 53 54  0  0  0  0  0  0  0  0  1 V2000
  156.8760  141.2578  166.4385 C   0  0  0  0  0  0  0  0  0  0  0  0
  157.4453  140.6762  165.2792 O   0  0  0  0  0  0  0  0  0  0  0  0
  157.2162  139.2792  165.2011 C   0  0  0  0  0  0  0  0  0  0  0  0
  155.7185  138.9799  165.3800 C   0  0  0  0  0  0  0  0  0  0  0  0
  155.1522  138.2300  164.2743 N   0  0  0  0  0  0  0  0  0  0  0  0
  154.5535  136.9834  164.4324 C   0  0  0  0  0  0  0  0  0  0  0  0
  154.4614  136.4254  165.6949 N   0  0  0  0  0  0  0  0  0  0  0  0
  154.0472  136.3058  163.3784 C   0  0  0  0  0  0  0  0  0  0  0  0
  154.0962  136.8401  162.0249 C   0  0  0  0  0  0  0  0  0  0  0  0
  153.6721  136.2236  161.0473 O   0  0  0  0  0  0  0  0  0  0  0  0
  154.6795  138.1208  161.8914 N   0  0  0  0  0  0  0  0  0  0  0  0
  154.7798  138.7212  160.5397 C   0  0  0  0  0  0  0  0  0  0  0  0
  153.4946  139.4083  160.0435 C   0  0  0  0  0  0  0  0  0  0  0  0
  152.4692  138.7410  159.9136 O   0  0  0  0  0  0  0  0  0  0  0  0
  153.5455  140.7252  159.7819 N   0  0  0  0  0  0  0  0  0  0  0  0
  152.4245  141.5669  159.3745 C   0  0  2  0  0  0  0  0  0  0  0  0
  152.0257  141.2284  157.9253 C   0  0  0  0  0  0  0  0  0  0  0  0
  150.8795  142.1221  157.4430 C   0  0  0  0  0  0  0  0  0  0  0  0
  151.2603  143.6014  157.5645 C   0  0  0  0  0  0  0  0  0  0  0  0
  151.6499  143.9791  159.0079 C   0  0  2  0  0  0  0  0  0  0  0  0
  151.9930  145.4788  159.0707 C   0  0  0  0  0  0  0  0  0  0  0  0
  152.7934  143.0668  159.5364 C   0  0  1  0  0  0  0  0  0  0  0  0
  153.1683  143.3928  160.9997 C   0  0  0  0  0  0  0  0  0  0  0  0
  155.2062  138.8352  162.9924 C   0  0  0  0  0  0  0  0  0  0  0  0
  155.7095  139.9491  162.8243 O   0  0  0  0  0  0  0  0  0  0  0  0
  157.0825  142.3279  166.4502 H   0  0  0  0  0  0  0  0  0  0  0  0
  157.2978  140.8236  167.3459 H   0  0  0  0  0  0  0  0  0  0  0  0
  155.7937  141.1232  166.4556 H   0  0  0  0  0  0  0  0  0  0  0  0
  157.5423  138.9157  164.2259 H   0  0  0  0  0  0  0  0  0  0  0  0
  157.8025  138.7525  165.9555 H   0  0  0  0  0  0  0  0  0  0  0  0
  155.5063  138.4570  166.3138 H   0  0  0  0  0  0  0  0  0  0  0  0
  155.1449  139.9042  165.4439 H   0  0  0  0  0  0  0  0  0  0  0  0
  154.8177  136.8973  166.5137 H   0  0  0  0  0  0  0  0  0  0  0  0
  154.0540  135.5139  165.8464 H   0  0  0  0  0  0  0  0  0  0  0  0
  153.5927  135.3375  163.5337 H   0  0  0  0  0  0  0  0  0  0  0  0
  155.5909  139.4487  160.4886 H   0  0  0  0  0  0  0  0  0  0  0  0
  155.0653  137.9653  159.8064 H   0  0  0  0  0  0  0  0  0  0  0  0
  154.4318  141.1908  159.9118 H   0  0  0  0  0  0  0  0  0  0  0  0
  151.5740  141.3570  160.0264 H   0  0  0  0  0  0  0  0  0  0  0  0
  152.8856  141.3506  157.2650 H   0  0  0  0  0  0  0  0  0  0  0  0
  151.7251  140.1829  157.8501 H   0  0  0  0  0  0  0  0  0  0  0  0
  150.6327  141.8846  156.4080 H   0  0  0  0  0  0  0  0  0  0  0  0
  149.9829  141.9216  158.0305 H   0  0  0  0  0  0  0  0  0  0  0  0
  152.0886  143.8195  156.8888 H   0  0  0  0  0  0  0  0  0  0  0  0
  150.4227  144.2153  157.2313 H   0  0  0  0  0  0  0  0  0  0  0  0
  150.7729  143.8185  159.6370 H   0  0  0  0  0  0  0  0  0  0  0  0
  152.9166  145.6975  158.5340 H   0  0  0  0  0  0  0  0  0  0  0  0
  152.1077  145.8285  160.0960 H   0  0  0  0  0  0  0  0  0  0  0  0
  151.2012  146.0800  158.6229 H   0  0  0  0  0  0  0  0  0  0  0  0
  153.6773  143.2578  158.9250 H   0  0  0  0  0  0  0  0  0  0  0  0
  152.3126  143.2664  161.6635 H   0  0  0  0  0  0  0  0  0  0  0  0
  153.5282  144.4150  161.1082 H   0  0  0  0  0  0  0  0  0  0  0  0
  153.9687  142.7521  161.3697 H   0  0  0  0  0  0  0  0  0  0  0  0
  1  2  1  0  0  0  0
  1 26  1  0  0  0  0
  1 27  1  0  0  0  0
  1 28  1  0  0  0  0
  2  3  1  0  0  0  0
  3  4  1  0  0  0  0
  3 29  1  0  0  0  0
  3 30  1  0  0  0  0
  4  5  1  0  0  0  0
  4 31  1  0  0  0  0
  4 32  1  0  0  0  0
  5 24  1  0  0  0  0
  5  6  1  0  0  0  0
  6  7  1  0  0  0  0
  6  8  2  0  0  0  0
  7 33  1  0  0  0  0
  7 34  1  0  0  0  0
  8  9  1  0  0  0  0
  8 35  1  0  0  0  0
  9 10  2  0  0  0  0
  9 11  1  0  0  0  0
 11 12  1  0  0  0  0
 11 24  1  0  0  0  0
 12 13  1  0  0  0  0
 12 36  1  0  0  0  0
 12 37  1  0  0  0  0
 13 14  2  0  0  0  0
 13 15  1  0  0  0  0
 15 16  1  0  0  0  0
 15 38  1  0  0  0  0
 16 22  1  0  0  0  0
 16 17  1  0  0  0  0
 16 39  1  0  0  0  0
 17 18  1  0  0  0  0
 17 40  1  0  0  0  0
 17 41  1  0  0  0  0
 18 19  1  0  0  0  0
 18 42  1  0  0  0  0
 18 43  1  0  0  0  0
 19 20  1  0  0  0  0
 19 44  1  0  0  0  0
 19 45  1  0  0  0  0
 20 21  1  0  0  0  0
 20 22  1  0  0  0  0
 20 46  1  0  0  0  0
 21 47  1  0  0  0  0
 21 48  1  0  0  0  0
 21 49  1  0  0  0  0
 22 23  1  0  0  0  0
 22 50  1  0  0  0  0
 23 51  1  0  0  0  0
 23 52  1  0  0  0  0
 23 53  1  0  0  0  0
 24 25  2  0  0  0  0
M  END
> <s_m_source_file>
AV-unprocessed.smi

> <i_m_source_file_index>
415

> <i_lp_mmshare_version>
43012

> <i_f3d_flags>
0

> <s_epik_input>
W0NIM11PW0NIMl1bQ0gyXW4xYyhbTkgyXSlbY0hdYyg9TyluKGMxPU8pW0NIMl1DKD1PKVtOSF1bQ0BASF0yW0NIMl1bQ0gyXVtDSDJdW0NAQEhdKFtDSDNdKVtDQEhdMltDSDNd

> <s_epik_cmdline>
J2VwaWtfcHl0aG9uJywgJy1waCcsICc3LjAnLCAnLXRuJywgJzgnLCAnLW1hJywgJzIwMCcsICctbWV0YWxfYmluZGluZycsICctaW1hZScsICc8aW5maWxlLm1hZT4nLCAnLW9tYWUnLCAnPG91dGZpbGUubWFlPic=

> <r_lp_tautomer_probability>
1

> <r_epik_Ionization_Penalty>
8.6647e-06

> <r_epik_Ionization_Penalty_Charging>
1.81162e-08

> <r_epik_Ionization_Penalty_Neutral>
8.64658e-06

> <r_epik_State_Penalty>
-0

> <r_epik_Charging_Adjusted_Penalty>
1.81162e-08

> <i_epik_Tot_Q>
0

> <i_epik_Tot_abs_Q>
0

> <r_epik_Metal_State_Penalty>
-0

> <b_epik_Metal_Only>
0

> <s_lp_Force_Field>
OPLS_2005

> <r_lp_Energy>
21.9512

> <b_lp_Chiralities_Consistent>
1

> <s_lp_Variant>
AV-unprocessed.smi:415-3

> <Gold.Version>
5.8.1

> <Gold.Id.Protein>
6NUR|6NUR_protein|mol2

> <Gold.PLP.Fitness>
50.9247

> <Gold.PLP.PLP>
-49.5874

> <Gold.PLP.part.hbond>
-2.0000

> <Gold.PLP.part.metal>
0.0000

> <Gold.PLP.part.buried>
-8.3875

> <Gold.PLP.part.nonpolar>
-39.9141

> <Gold.PLP.part.repulsive>
0.1969

> <Gold.PLP.ligand.clash>
0.0000

> <Gold.PLP.ligand.torsion>
0.8486

> <Gold.PLP.Chemscore.Hbond>
0.9913

> <Gold.PLP.Chemscore.CHOScore>
0.0000

> <Gold.PLP.Chemscore.Metal>
0.0000

> <Gold.Chemscore.Hbonds>
donor molecule, donor type, donor heavy atom, donor atom, acceptor molecule, acceptor atom, score
      P1  H  6896  6908       L1    10  0.43

> <Gold.PLP.Chemscore.Internal.Correction>
0.0607

> <Gold.Rescore>
     Score         DG    S(hbond)    S(metal)    S(lipo)     H(rot)  DE(clash)    DE(int)     intcor
     12.95     -14.82       0.94        0.00     102.54       2.26       0.85       1.02       ----

> <Gold.Chemscore.Fitness>
12.9520

> <Gold.Chemscore.DG>
-14.8238

> <Gold.Chemscore.ZeroCoef>
-5.4800

> <Gold.Chemscore.Hbond>
0.9414

> <Gold.Chemscore.Metal>
0.0000

> <Gold.Chemscore.Lipo>
102.5359

> <Gold.Chemscore.Internal_Hbond>
0.0000

> <Gold.Chemscore.DEClash>
0.8498

> <Gold.Chemscore.DEInternal>
1.0219

> <Gold.Chemscore.Rot>
2.2645

> <Gold.Chemscore.Internal.Correction>
   9.000000E+99

> <Gold.Chemscore.Hbonds>
donor molecule, donor type, donor heavy atom, donor atom, acceptor molecule, acceptor atom, score
      P1  H  6896  6908       L1    10  0.43

> <Gold.Chemscore.Hbond.Weighted>
-3.1443

> <Gold.Chemscore.Metal.Weighted>
-0.0000

> <Gold.Chemscore.Lipo.Weighted>
-11.9967

> <Gold.Chemscore.Internal_Hbond.Weighted>
0.0000

> <Gold.Chemscore.DEClash.Weighted>
0.8498

> <Gold.Chemscore.DEInternal.Weighted>
1.0219

> <Gold.Chemscore.Rot.Weighted>
5.7972

> <Gold.Chemscore.Internal.Correction.Weighted>
   9.000000E+99

> <Gold.Protein.RotatedTorsions>
[ 6907 6896 6895 6894 ] final  -56.66 input  -60.11 | X-H torsion
[ 7974 7965 7964 7962 ] final  -19.73 input  175.53 | X-H torsion
[ 8008 7997 7996 7995 ] final   90.94 input   59.86 | X-H torsion
[ 10167 10162 10161 10158 ] final   60.76 input  -65.29 | X-H torsion
[ 10718 10713 10712 10709 ] final  -57.17 input   66.30 | X-H torsion
[ 10763 10752 10751 10750 ] final  161.54 input  -60.55 | X-H torsion
[ 11005 11000 10999 10996 ] final   57.88 input  -57.11 | X-H torsion

> <Gold.Protein.ActiveResidues>
 VAL166  LYS551  ARG553  GLY616  TRP617  ASP618  TYR619  PRO620  LYS621  CYS622 
 ASP623  PHE694  ASN695  SER759  ASP760  ASP761  ALA762  ILE779  LEU786  VAL792 
 PHE793  MET794  SER795  GLU796  ALA797  LYS798  CYS799  TRP800  GLU811  SER814 

> <Gold.Protein.RotatedAtoms>
  150.8149  134.7325  159.6720 H   0  0  0  0  0  0  0  0  0  0  0  0  # atno 6907 bound_to 6896
  152.4268  134.5850  159.9968 H   0  0  0  0  0  0  0  0  0  0  0  0  # atno 6908 bound_to 6896
  151.6049  133.3315  159.3091 H   0  0  0  0  0  0  0  0  0  0  0  0  # atno 6909 bound_to 6896
  146.1826  140.4103  142.8489 H   0  0  0  0  0  0  0  0  0  0  0  0  # atno 7974 bound_to 7965
  156.0179  140.3343  155.7008 H   0  0  0  0  0  0  0  0  0  0  0  0  # atno 8008 bound_to 7997
  155.6064  140.0661  157.2736 H   0  0  0  0  0  0  0  0  0  0  0  0  # atno 8009 bound_to 7997
  154.4305  140.1801  156.1214 H   0  0  0  0  0  0  0  0  0  0  0  0  # atno 8010 bound_to 7997
  140.1621  144.4360  150.6704 H   0  0  0  0  0  0  0  0  0  0  0  0  # atno 10167 bound_to 10162
  156.1231  130.4164  150.0405 H   0  0  0  0  0  0  0  0  0  0  0  0  # atno 10718 bound_to 10713
  154.2644  135.2767  155.2764 H   0  0  0  0  0  0  0  0  0  0  0  0  # atno 10763 bound_to 10752
  154.5355  135.5717  153.6799 H   0  0  0  0  0  0  0  0  0  0  0  0  # atno 10764 bound_to 10752
  152.9956  135.6238  154.2796 H   0  0  0  0  0  0  0  0  0  0  0  0  # atno 10765 bound_to 10752
  140.0419  134.5861  155.9371 H   0  0  0  0  0  0  0  0  0  0  0  0  # atno 11005 bound_to 11000
  144.8341  140.6754  143.6272 LP  0  0  0  0  0  0  0  0  0  0  0  0  # atno 17320 bound_to 7965
  145.4033  139.1593  143.4166 LP  0  0  0  0  0  0  0  0  0  0  0  0  # atno 17321 bound_to 7965
  140.6636  143.2260  151.5796 LP  0  0  0  0  0  0  0  0  0  0  0  0  # atno 17342 bound_to 10162
  139.5376  144.2737  152.1284 LP  0  0  0  0  0  0  0  0  0  0  0  0  # atno 17343 bound_to 10162
  156.8337  130.9401  151.3636 LP  0  0  0  0  0  0  0  0  0  0  0  0  # atno 17370 bound_to 10713
  157.6414  130.8808  149.9455 LP  0  0  0  0  0  0  0  0  0  0  0  0  # atno 17371 bound_to 10713
  141.1887  133.6563  156.5337 LP  0  0  0  0  0  0  0  0  0  0  0  0  # atno 17394 bound_to 11000
  140.4055  134.7319  157.4805 LP  0  0  0  0  0  0  0  0  0  0  0  0  # atno 17395 bound_to 11000

$$$$
