AV-unprocessed.smi:1048|AV-procd|sdf|4605|dock3
  -GOLD-   22720 3103D 1   1.00000     0.00000
 Structure written by MMmdl.
 46 47  0  0  0  0  0  0  0  0  2 V2000
  144.2826  132.7634  149.8165 C   0  0  0  0  0  0  0  0  0  0  0  0
  145.1303  132.4611  151.0603 C   0  0  2  0  0  0  0  0  0  0  0  0
  146.5031  133.1520  150.9956 C   0  0  0  0  0  0  0  0  0  0  0  0
  147.3593  132.8132  152.2274 C   0  0  0  0  0  0  0  0  0  0  0  0
  147.5270  131.3449  152.3730 N   0  3  1  0  0  0  0  0  0  0  0  0
  148.4734  130.9853  153.4606 C   0  0  0  0  0  0  0  0  0  0  0  0
  148.4297  131.9887  154.6312 C   0  0  1  0  0  0  0  0  0  0  0  0
  148.0218  131.2735  155.7817 O   0  0  0  0  0  0  0  0  0  0  0  0
  149.8150  132.6104  154.9001 C   0  0  0  0  0  0  0  0  0  0  0  0
  149.8931  133.9883  154.4262 N   0  0  0  0  0  0  0  0  0  0  0  0
  150.4358  135.0064  155.1086 C   0  0  0  0  0  0  0  0  0  0  0  0
  150.9395  134.8810  156.2245 O   0  0  0  0  0  0  0  0  0  0  0  0
  150.3342  136.1581  154.4232 N   0  0  0  0  0  0  0  0  0  0  0  0
  150.7754  137.4559  154.7992 C   0  0  0  0  0  0  0  0  0  0  0  0
  151.4317  137.5960  156.0393 C   0  0  0  0  0  0  0  0  0  0  0  0
  151.8658  138.8715  156.4471 C   0  0  0  0  0  0  0  0  0  0  0  0
  151.6172  139.9662  155.5972 C   0  0  0  0  0  0  0  0  0  0  0  0
  150.9778  139.8538  154.4141 N   0  0  0  0  0  0  0  0  0  0  0  0
  150.5657  138.6268  154.0284 C   0  0  0  0  0  0  0  0  0  0  0  0
  146.2138  130.6558  152.4822 C   0  0  0  0  0  0  0  0  0  0  0  0
  145.3315  130.9488  151.2570 C   0  0  0  0  0  0  0  0  0  0  0  0
  144.7662  132.4014  148.9086 H   0  0  0  0  0  0  0  0  0  0  0  0
  144.1214  133.8356  149.7015 H   0  0  0  0  0  0  0  0  0  0  0  0
  143.3035  132.2881  149.8835 H   0  0  0  0  0  0  0  0  0  0  0  0
  144.5953  132.8488  151.9287 H   0  0  0  0  0  0  0  0  0  0  0  0
  147.0307  132.8441  150.0916 H   0  0  0  0  0  0  0  0  0  0  0  0
  146.3748  134.2326  150.9246 H   0  0  0  0  0  0  0  0  0  0  0  0
  148.3357  133.2878  152.1222 H   0  0  0  0  0  0  0  0  0  0  0  0
  146.9029  133.2208  153.1309 H   0  0  0  0  0  0  0  0  0  0  0  0
  148.2378  129.9922  153.8468 H   0  0  0  0  0  0  0  0  0  0  0  0
  149.4813  130.9154  153.0481 H   0  0  0  0  0  0  0  0  0  0  0  0
  147.7092  132.7803  154.4262 H   0  0  0  0  0  0  0  0  0  0  0  0
  147.1356  130.9697  155.6537 H   0  0  0  0  0  0  0  0  0  0  0  0
  150.0950  132.5289  155.9521 H   0  0  0  0  0  0  0  0  0  0  0  0
  150.5735  132.0583  154.3441 H   0  0  0  0  0  0  0  0  0  0  0  0
  149.5012  134.1817  153.5161 H   0  0  0  0  0  0  0  0  0  0  0  0
  149.8299  136.1108  153.5502 H   0  0  0  0  0  0  0  0  0  0  0  0
  151.6062  136.7370  156.6710 H   0  0  0  0  0  0  0  0  0  0  0  0
  152.3762  139.0075  157.3890 H   0  0  0  0  0  0  0  0  0  0  0  0
  151.9348  140.9595  155.8777 H   0  0  0  0  0  0  0  0  0  0  0  0
  150.0392  138.6070  153.0876 H   0  0  0  0  0  0  0  0  0  0  0  0
  146.3545  129.5789  152.5659 H   0  0  0  0  0  0  0  0  0  0  0  0
  145.7070  130.9776  153.3935 H   0  0  0  0  0  0  0  0  0  0  0  0
  144.3654  130.4571  151.3761 H   0  0  0  0  0  0  0  0  0  0  0  0
  145.7903  130.5161  150.3668 H   0  0  0  0  0  0  0  0  0  0  0  0
  147.9563  131.0279  151.5149 H   0  0  0  0  0  0  0  0  0  0  0  0
  1  2  1  0  0  0  0
  1 22  1  0  0  0  0
  1 23  1  0  0  0  0
  1 24  1  0  0  0  0
  2 21  1  0  0  0  0
  2  3  1  0  0  0  0
  2 25  1  0  0  0  0
  3  4  1  0  0  0  0
  3 26  1  0  0  0  0
  3 27  1  0  0  0  0
  4  5  1  0  0  0  0
  4 28  1  0  0  0  0
  4 29  1  0  0  0  0
  5  6  1  0  0  0  0
  5 20  1  0  0  0  0
  5 46  1  0  0  0  0
  6  7  1  0  0  0  0
  6 30  1  0  0  0  0
  6 31  1  0  0  0  0
  7  8  1  0  0  0  0
  7  9  1  0  0  0  0
  7 32  1  0  0  0  0
  8 33  1  0  0  0  0
  9 10  1  0  0  0  0
  9 34  1  0  0  0  0
  9 35  1  0  0  0  0
 10 11  1  0  0  0  0
 10 36  1  0  0  0  0
 11 12  2  0  0  0  0
 11 13  1  0  0  0  0
 13 14  1  0  0  0  0
 13 37  1  0  0  0  0
 14 19  1  0  0  0  0
 14 15  2  0  0  0  0
 15 16  1  0  0  0  0
 15 38  1  0  0  0  0
 16 17  2  0  0  0  0
 16 39  1  0  0  0  0
 17 18  1  0  0  0  0
 17 40  1  0  0  0  0
 18 19  2  0  0  0  0
 19 41  1  0  0  0  0
 20 21  1  0  0  0  0
 20 42  1  0  0  0  0
 20 43  1  0  0  0  0
 21 44  1  0  0  0  0
 21 45  1  0  0  0  0
M  CHG  1   5   1
M  END
> <s_m_source_file>
AV-unprocessed.smi

> <i_m_source_file_index>
1048

> <i_lp_mmshare_version>
43012

> <i_f3d_flags>
0

> <s_epik_input>
W0NIM11bQ0hdMVtDSDJdW0NIMl1OKFtDSDJdW0NIMl0xKVtDSDJdW0NASF0oW09IXSlbQ0gyXVtOSF1DKD1PKVtOSF1jMltjSF1bY0hdW2NIXW5bY0hdMg==

> <s_epik_cmdline>
J2VwaWtfcHl0aG9uJywgJy1waCcsICc3LjAnLCAnLXRuJywgJzgnLCAnLW1hJywgJzIwMCcsICctbWV0YWxfYmluZGluZycsICctaW1hZScsICc8aW5maWxlLm1hZT4nLCAnLW9tYWUnLCAnPG91dGZpbGUubWFlPic=

> <r_lp_tautomer_probability>
1

> <r_epik_Ionization_Penalty>
0.00581049

> <r_epik_Ionization_Penalty_Charging>
0.00147689

> <r_epik_Ionization_Penalty_Neutral>
0.0043336

> <r_epik_State_Penalty>
-0

> <r_epik_Charging_Adjusted_Penalty>
0.00147689

> <i_epik_Tot_Q>
1

> <i_epik_Tot_abs_Q>
1

> <r_epik_Metal_State_Penalty>
-0

> <b_epik_Metal_Only>
0

> <s_lp_Force_Field>
OPLS_2005

> <r_lp_Energy>
22.9407

> <b_lp_Chiralities_Consistent>
1

> <s_lp_Variant>
AV-unprocessed.smi:1048-2

> <Gold.Version>
5.8.1

> <Gold.Id.Protein>
6NUR|6NUR_protein|mol2

> <Gold.PLP.Fitness>
47.6185

> <Gold.PLP.PLP>
-38.1509

> <Gold.PLP.part.hbond>
-3.8854

> <Gold.PLP.part.metal>
0.0000

> <Gold.PLP.part.buried>
-4.2937

> <Gold.PLP.part.nonpolar>
-30.2802

> <Gold.PLP.part.repulsive>
0.2373

> <Gold.PLP.ligand.clash>
0.0000

> <Gold.PLP.ligand.torsion>
1.8736

> <Gold.PLP.Chemscore.Hbond>
3.0000

> <Gold.PLP.Chemscore.CHOScore>
1.3836

> <Gold.PLP.Chemscore.Metal>
0.0000

> <Gold.Chemscore.Hbonds>
donor molecule, donor type, donor heavy atom, donor atom, acceptor molecule, acceptor atom, score
      L1  H     5    46       P1 10747  1.00
      L1  H    13    37       P1  7948  0.85
      P1  H  7989  7998       L1    18  0.96
      L1  C    19    41       P1  7948  0.21
      L1  C    19    41       P1  7957  1.00

> <Gold.PLP.Chemscore.Internal.Correction>
0.0640

> <Gold.Rescore>
     Score         DG    S(hbond)    S(metal)    S(lipo)     H(rot)  DE(clash)    DE(int)     intcor
     14.79     -18.22       2.31        0.00      93.15       2.29       0.00       3.43       ----

> <Gold.Chemscore.Fitness>
14.7935

> <Gold.Chemscore.DG>
-18.2237

> <Gold.Chemscore.ZeroCoef>
-5.4800

> <Gold.Chemscore.Hbond>
2.3050

> <Gold.Chemscore.Metal>
0.0000

> <Gold.Chemscore.Lipo>
93.1497

> <Gold.Chemscore.Internal_Hbond>
0.0000

> <Gold.Chemscore.DEClash>
0.0048

> <Gold.Chemscore.DEInternal>
3.4254

> <Gold.Chemscore.Rot>
2.2865

> <Gold.Chemscore.Internal.Correction>
   9.000000E+99

> <Gold.Chemscore.Hbonds>
donor molecule, donor type, donor heavy atom, donor atom, acceptor molecule, acceptor atom, score
      L1  H     5    46       P1 10747  0.99
      L1  H    13    37       P1  7948  0.15
      P1  H  7989  7998       L1    18  0.50

> <Gold.Chemscore.Hbond.Weighted>
-7.6987

> <Gold.Chemscore.Metal.Weighted>
-0.0000

> <Gold.Chemscore.Lipo.Weighted>
-10.8985

> <Gold.Chemscore.Internal_Hbond.Weighted>
0.0000

> <Gold.Chemscore.DEClash.Weighted>
0.0048

> <Gold.Chemscore.DEInternal.Weighted>
3.4254

> <Gold.Chemscore.Rot.Weighted>
5.8536

> <Gold.Chemscore.Internal.Correction.Weighted>
   9.000000E+99

> <Gold.Protein.RotatedTorsions>
[ 6907 6896 6895 6894 ] final  145.51 input  -60.11 | X-H torsion
[ 7974 7965 7964 7962 ] final  -29.36 input  175.53 | X-H torsion
[ 8008 7997 7996 7995 ] final   67.92 input   59.86 | X-H torsion
[ 10167 10162 10161 10158 ] final  -23.86 input  -65.29 | X-H torsion
[ 10718 10713 10712 10709 ] final   23.98 input   66.30 | X-H torsion
[ 10763 10752 10751 10750 ] final   56.64 input  -60.55 | X-H torsion
[ 11005 11000 10999 10996 ] final   22.13 input  -57.11 | X-H torsion

> <Gold.Protein.ActiveResidues>
 VAL166  LYS551  ARG553  GLY616  TRP617  ASP618  TYR619  PRO620  LYS621  CYS622 
 ASP623  PHE694  ASN695  SER759  ASP760  ASP761  ALA762  ILE779  LEU786  VAL792 
 PHE793  MET794  SER795  GLU796  ALA797  LYS798  CYS799  TRP800  GLU811  SER814 

> <Gold.Protein.RotatedAtoms>
  152.1799  133.4700  159.4952 H   0  0  0  0  0  0  0  0  0  0  0  0  # atno 6907 bound_to 6896
  150.6933  134.1846  159.4271 H   0  0  0  0  0  0  0  0  0  0  0  0  # atno 6908 bound_to 6896
  151.9757  135.0054  160.0605 H   0  0  0  0  0  0  0  0  0  0  0  0  # atno 6909 bound_to 6896
  146.1222  140.5402  142.8730 H   0  0  0  0  0  0  0  0  0  0  0  0  # atno 7974 bound_to 7965
  155.7003  140.3495  155.4930 H   0  0  0  0  0  0  0  0  0  0  0  0  # atno 8008 bound_to 7997
  155.9446  140.1108  157.1049 H   0  0  0  0  0  0  0  0  0  0  0  0  # atno 8009 bound_to 7997
  154.4109  140.1206  156.4959 H   0  0  0  0  0  0  0  0  0  0  0  0  # atno 8010 bound_to 7997
  140.7288  143.4405  151.0664 H   0  0  0  0  0  0  0  0  0  0  0  0  # atno 10167 bound_to 10162
  157.1735  130.6770  149.6086 H   0  0  0  0  0  0  0  0  0  0  0  0  # atno 10718 bound_to 10713
  152.9835  135.5669  154.5261 H   0  0  0  0  0  0  0  0  0  0  0  0  # atno 10763 bound_to 10752
  154.4741  135.2786  155.1623 H   0  0  0  0  0  0  0  0  0  0  0  0  # atno 10764 bound_to 10752
  154.3159  135.6279  153.5539 H   0  0  0  0  0  0  0  0  0  0  0  0  # atno 10765 bound_to 10752
  140.3839  134.1891  155.7663 H   0  0  0  0  0  0  0  0  0  0  0  0  # atno 11005 bound_to 11000
  144.7608  140.5417  143.6737 LP  0  0  0  0  0  0  0  0  0  0  0  0  # atno 17320 bound_to 7965
  145.5441  139.1475  143.3430 LP  0  0  0  0  0  0  0  0  0  0  0  0  # atno 17321 bound_to 7965
  139.8071  143.8002  152.3168 LP  0  0  0  0  0  0  0  0  0  0  0  0  # atno 17342 bound_to 10162
  139.8039  144.7363  150.9788 LP  0  0  0  0  0  0  0  0  0  0  0  0  # atno 17343 bound_to 10162
  155.9735  130.4671  150.6312 LP  0  0  0  0  0  0  0  0  0  0  0  0  # atno 17370 bound_to 10713
  157.4020  131.0811  151.1299 LP  0  0  0  0  0  0  0  0  0  0  0  0  # atno 17371 bound_to 10713
  141.1914  133.8196  157.0881 LP  0  0  0  0  0  0  0  0  0  0  0  0  # atno 17394 bound_to 11000
  140.0457  134.9831  157.1045 LP  0  0  0  0  0  0  0  0  0  0  0  0  # atno 17395 bound_to 11000

$$$$
