AV-unprocessed.smi:3198|AV-procd|sdf|12229|dock1
  -GOLD-   2272018 63D 1   1.00000     0.00000
 Structure written by MMmdl.
 37 38  0  0  0  0  0  0  0  0  1 V2000
  153.9618  141.6220  160.8003 C   0  0  0  0  0  0  0  0  0  0  0  0
  153.1034  142.4467  159.8644 C   0  0  0  0  0  0  0  0  0  0  0  0
  152.7147  143.7590  160.2032 C   0  0  0  0  0  0  0  0  0  0  0  0
  151.9162  144.4743  159.2911 C   0  0  0  0  0  0  0  0  0  0  0  0
  151.5377  143.8526  158.0853 C   0  0  0  0  0  0  0  0  0  0  0  0
  151.9716  142.5337  157.8342 C   0  0  0  0  0  0  0  0  0  0  0  0
  151.5902  141.9200  156.6319 N   0  0  0  0  0  0  0  0  0  0  0  0
  151.9760  140.5494  156.3166 C   0  0  0  0  0  0  0  0  0  0  0  0
  152.8495  140.4605  155.0571 C   0  0  0  0  0  0  0  0  0  0  0  0
  152.1135  140.9467  153.9468 O   0  0  0  0  0  0  0  0  0  0  0  0
  151.1783  140.0023  153.4535 C   0  0  0  0  0  0  0  0  0  0  0  0
  149.8223  140.2473  154.1263 C   0  0  2  0  0  0  0  0  0  0  0  0
  148.6858  139.4080  153.5459 C   0  0  0  0  0  0  0  0  0  0  0  0
  147.4429  140.2220  153.8702 C   0  0  0  0  0  0  0  0  0  0  0  0
  147.9866  141.6138  154.2070 C   0  0  0  0  0  0  0  0  0  0  0  0
  149.3671  141.5670  153.8737 O   0  0  0  0  0  0  0  0  0  0  0  0
  152.7437  141.8458  158.7092 N   0  0  0  0  0  0  0  0  0  0  0  0
  154.2951  142.2117  161.6548 H   0  0  0  0  0  0  0  0  0  0  0  0
  154.8448  141.2513  160.2790 H   0  0  0  0  0  0  0  0  0  0  0  0
  153.3984  140.7667  161.1744 H   0  0  0  0  0  0  0  0  0  0  0  0
  153.0196  144.2087  161.1366 H   0  0  0  0  0  0  0  0  0  0  0  0
  151.5988  145.4827  159.5124 H   0  0  0  0  0  0  0  0  0  0  0  0
  150.9245  144.3816  157.3704 H   0  0  0  0  0  0  0  0  0  0  0  0
  150.8905  142.3629  156.0544 H   0  0  0  0  0  0  0  0  0  0  0  0
  152.5148  140.1350  157.1688 H   0  0  0  0  0  0  0  0  0  0  0  0
  151.0819  139.9364  156.1966 H   0  0  0  0  0  0  0  0  0  0  0  0
  153.7410  141.0743  155.1939 H   0  0  0  0  0  0  0  0  0  0  0  0
  153.1849  139.4370  154.8831 H   0  0  0  0  0  0  0  0  0  0  0  0
  151.0872  140.0725  152.3684 H   0  0  0  0  0  0  0  0  0  0  0  0
  151.5283  138.9964  153.6910 H   0  0  0  0  0  0  0  0  0  0  0  0
  149.8913  140.0829  155.2034 H   0  0  0  0  0  0  0  0  0  0  0  0
  148.7943  139.3252  152.4634 H   0  0  0  0  0  0  0  0  0  0  0  0
  148.6532  138.3993  153.9583 H   0  0  0  0  0  0  0  0  0  0  0  0
  146.7584  140.2467  153.0215 H   0  0  0  0  0  0  0  0  0  0  0  0
  146.9059  139.8053  154.7230 H   0  0  0  0  0  0  0  0  0  0  0  0
  147.4787  142.4067  153.6576 H   0  0  0  0  0  0  0  0  0  0  0  0
  147.8818  141.8174  155.2737 H   0  0  0  0  0  0  0  0  0  0  0  0
  1  2  1  0  0  0  0
  1 18  1  0  0  0  0
  1 19  1  0  0  0  0
  1 20  1  0  0  0  0
  2 17  1  0  0  0  0
  2  3  2  0  0  0  0
  3  4  1  0  0  0  0
  3 21  1  0  0  0  0
  4  5  2  0  0  0  0
  4 22  1  0  0  0  0
  5  6  1  0  0  0  0
  5 23  1  0  0  0  0
  6  7  1  0  0  0  0
  6 17  2  0  0  0  0
  7  8  1  0  0  0  0
  7 24  1  0  0  0  0
  8  9  1  0  0  0  0
  8 25  1  0  0  0  0
  8 26  1  0  0  0  0
  9 10  1  0  0  0  0
  9 27  1  0  0  0  0
  9 28  1  0  0  0  0
 10 11  1  0  0  0  0
 11 12  1  0  0  0  0
 11 29  1  0  0  0  0
 11 30  1  0  0  0  0
 12 16  1  0  0  0  0
 12 13  1  0  0  0  0
 12 31  1  0  0  0  0
 13 14  1  0  0  0  0
 13 32  1  0  0  0  0
 13 33  1  0  0  0  0
 14 15  1  0  0  0  0
 14 34  1  0  0  0  0
 14 35  1  0  0  0  0
 15 16  1  0  0  0  0
 15 36  1  0  0  0  0
 15 37  1  0  0  0  0
M  END
> <s_m_source_file>
AV-unprocessed.smi

> <i_m_source_file_index>
3198

> <i_lp_mmshare_version>
43012

> <i_f3d_flags>
0

> <s_epik_input>
W0NIM11jMVtjSF1bY0hdW2NIXWMobjEpW05IXVtDSDJdW0NIMl1PW0NIMl1bQ0BASF0yW0NIMl1bQ0gyXVtDSDJdTzI=

> <s_epik_cmdline>
J2VwaWtfcHl0aG9uJywgJy1waCcsICc3LjAnLCAnLXRuJywgJzgnLCAnLW1hJywgJzIwMCcsICctbWV0YWxfYmluZGluZycsICctaW1hZScsICc8aW5maWxlLm1hZT4nLCAnLW9tYWUnLCAnPG91dGZpbGUubWFlPic=

> <r_lp_tautomer_probability>
1

> <r_epik_Ionization_Penalty>
1.29225

> <r_epik_Ionization_Penalty_Charging>
0

> <r_epik_Ionization_Penalty_Neutral>
1.29225

> <r_epik_State_Penalty>
1.3654

> <r_epik_Charging_Adjusted_Penalty>
1.3654

> <i_epik_Tot_Q>
0

> <i_epik_Tot_abs_Q>
0

> <r_epik_Metal_State_Penalty>
0.00531989

> <b_epik_Metal_Only>
0

> <s_lp_Force_Field>
OPLS_2005

> <r_lp_Energy>
18.1736

> <b_lp_Chiralities_Consistent>
1

> <s_lp_Variant>
AV-unprocessed.smi:3198-3

> <Gold.Version>
5.8.1

> <Gold.Id.Protein>
6NUR|6NUR_protein|mol2

> <Gold.PLP.Fitness>
46.6111

> <Gold.PLP.PLP>
-42.1715

> <Gold.PLP.part.hbond>
-2.6119

> <Gold.PLP.part.metal>
0.0000

> <Gold.PLP.part.buried>
-6.3096

> <Gold.PLP.part.nonpolar>
-34.3783

> <Gold.PLP.part.repulsive>
0.3237

> <Gold.PLP.ligand.clash>
0.0000

> <Gold.PLP.ligand.torsion>
0.3135

> <Gold.PLP.Chemscore.Hbond>
1.6392

> <Gold.PLP.Chemscore.CHOScore>
0.0000

> <Gold.PLP.Chemscore.Metal>
0.0000

> <Gold.Chemscore.Hbonds>
donor molecule, donor type, donor heavy atom, donor atom, acceptor molecule, acceptor atom, score
      P1  H  8011  8017       L1    16  0.69

> <Gold.PLP.Chemscore.Internal.Correction>
0.1491

> <Gold.Rescore>
     Score         DG    S(hbond)    S(metal)    S(lipo)     H(rot)  DE(clash)    DE(int)     intcor
     16.85     -17.35       1.09        0.00     106.00       1.63       0.00       0.50       ----

> <Gold.Chemscore.Fitness>
16.8480

> <Gold.Chemscore.DG>
-17.3477

> <Gold.Chemscore.ZeroCoef>
-5.4800

> <Gold.Chemscore.Hbond>
1.0904

> <Gold.Chemscore.Metal>
0.0000

> <Gold.Chemscore.Lipo>
105.9963

> <Gold.Chemscore.Internal_Hbond>
0.0000

> <Gold.Chemscore.DEClash>
0.0000

> <Gold.Chemscore.DEInternal>
0.4998

> <Gold.Chemscore.Rot>
1.6311

> <Gold.Chemscore.Internal.Correction>
   9.000000E+99

> <Gold.Chemscore.Hbonds>
donor molecule, donor type, donor heavy atom, donor atom, acceptor molecule, acceptor atom, score
      P1  H  8011  8017       L1    16  0.61

> <Gold.Chemscore.Hbond.Weighted>
-3.6418

> <Gold.Chemscore.Metal.Weighted>
-0.0000

> <Gold.Chemscore.Lipo.Weighted>
-12.4016

> <Gold.Chemscore.Internal_Hbond.Weighted>
0.0000

> <Gold.Chemscore.DEClash.Weighted>
0.0000

> <Gold.Chemscore.DEInternal.Weighted>
0.4998

> <Gold.Chemscore.Rot.Weighted>
4.1757

> <Gold.Chemscore.Internal.Correction.Weighted>
   9.000000E+99

> <Gold.Protein.RotatedTorsions>
[ 6907 6896 6895 6894 ] final   85.22 input  -60.11 | X-H torsion
[ 7974 7965 7964 7962 ] final  177.87 input  175.53 | X-H torsion
[ 8008 7997 7996 7995 ] final  -34.76 input   59.86 | X-H torsion
[ 10167 10162 10161 10158 ] final   78.79 input  -65.29 | X-H torsion
[ 10718 10713 10712 10709 ] final  -82.37 input   66.30 | X-H torsion
[ 10763 10752 10751 10750 ] final -168.91 input  -60.55 | X-H torsion
[ 11005 11000 10999 10996 ] final -150.50 input  -57.11 | X-H torsion

> <Gold.Protein.ActiveResidues>
 VAL166  LYS551  ARG553  GLY616  TRP617  ASP618  TYR619  PRO620  LYS621  CYS622 
 ASP623  PHE694  ASN695  SER759  ASP760  ASP761  ALA762  ILE779  LEU786  VAL792 
 PHE793  MET794  SER795  GLU796  ALA797  LYS798  CYS799  TRP800  GLU811  SER814 

> <Gold.Protein.RotatedAtoms>
  152.5370  134.2619  159.8938 H   0  0  0  0  0  0  0  0  0  0  0  0  # atno 6907 bound_to 6896
  151.2579  133.4310  159.2622 H   0  0  0  0  0  0  0  0  0  0  0  0  # atno 6908 bound_to 6896
  151.0480  134.9667  159.8253 H   0  0  0  0  0  0  0  0  0  0  0  0  # atno 6909 bound_to 6896
  144.7163  140.0312  143.6439 H   0  0  0  0  0  0  0  0  0  0  0  0  # atno 7974 bound_to 7965
  154.4112  140.1675  156.2101 H   0  0  0  0  0  0  0  0  0  0  0  0  # atno 8008 bound_to 7997
  155.9451  140.3405  155.6337 H   0  0  0  0  0  0  0  0  0  0  0  0  # atno 8009 bound_to 7997
  155.6940  140.0737  157.2427 H   0  0  0  0  0  0  0  0  0  0  0  0  # atno 8010 bound_to 7997
  139.9672  144.5920  150.8018 H   0  0  0  0  0  0  0  0  0  0  0  0  # atno 10167 bound_to 10162
  156.0034  130.4632  150.4094 H   0  0  0  0  0  0  0  0  0  0  0  0  # atno 10718 bound_to 10713
  154.6579  135.2920  154.9904 H   0  0  0  0  0  0  0  0  0  0  0  0  # atno 10763 bound_to 10752
  154.0974  135.6582  153.4866 H   0  0  0  0  0  0  0  0  0  0  0  0  # atno 10764 bound_to 10752
  153.0413  135.5234  154.7517 H   0  0  0  0  0  0  0  0  0  0  0  0  # atno 10765 bound_to 10752
  140.7395  134.3530  157.5150 H   0  0  0  0  0  0  0  0  0  0  0  0  # atno 11005 bound_to 11000
  146.0101  139.3162  143.0875 LP  0  0  0  0  0  0  0  0  0  0  0  0  # atno 17320 bound_to 7965
  145.8692  140.9430  143.0659 LP  0  0  0  0  0  0  0  0  0  0  0  0  # atno 17321 bound_to 7965
  140.7534  143.3007  151.3087 LP  0  0  0  0  0  0  0  0  0  0  0  0  # atno 17342 bound_to 10162
  139.6508  144.0365  152.2625 LP  0  0  0  0  0  0  0  0  0  0  0  0  # atno 17343 bound_to 10162
  157.2158  131.0471  151.2574 LP  0  0  0  0  0  0  0  0  0  0  0  0  # atno 17370 bound_to 10713
  157.3846  130.7250  149.6654 LP  0  0  0  0  0  0  0  0  0  0  0  0  # atno 17371 bound_to 10713
  139.8809  134.9072  156.2939 LP  0  0  0  0  0  0  0  0  0  0  0  0  # atno 17394 bound_to 11000
  140.9849  133.7244  156.0727 LP  0  0  0  0  0  0  0  0  0  0  0  0  # atno 17395 bound_to 11000

$$$$
