AV-unprocessed.smi:2252|AV-procd|sdf|9114|dock4
  -GOLD-   2272012323D 1   1.00000     0.00000
 Structure written by MMmdl.
 44 46  0  0  0  0  0  0  0  0  1 V2000
  151.7464  144.3734  161.2351 C   0  0  0  0  0  0  0  0  0  0  0  0
  151.5031  143.9067  159.8833 N   0  0  0  0  0  0  0  0  0  0  0  0
  150.4094  144.2309  159.0915 C   0  0  0  0  0  0  0  0  0  0  0  0
  150.5856  143.5833  157.8924 C   0  0  0  0  0  0  0  0  0  0  0  0
  151.7734  142.8606  157.9280 N   0  0  0  0  0  0  0  0  0  0  0  0
  152.2704  143.0854  159.1406 C   0  0  0  0  0  0  0  0  0  0  0  0
  153.5688  142.5204  159.6250 C   0  0  0  0  0  0  0  0  0  0  0  0
  153.4545  141.9130  161.0327 C   0  0  0  0  0  0  0  0  0  0  0  0
  154.6422  141.1421  161.3773 N   0  0  0  0  0  0  0  0  0  0  0  0
  155.1123  140.1008  160.6728 C   0  0  0  0  0  0  0  0  0  0  0  0
  154.5701  139.6804  159.6498 O   0  0  0  0  0  0  0  0  0  0  0  0
  156.4121  139.4536  161.1842 C   0  0  1  0  0  0  0  0  0  0  0  0
  157.5424  140.5058  161.2260 C   0  0  0  0  0  0  0  0  0  0  0  0
  158.1499  141.0417  159.9448 C   0  0  0  0  0  0  0  0  0  0  0  0
  158.9596  140.1407  160.8373 C   0  0  0  0  0  0  0  0  0  0  0  0
  156.2457  138.8074  162.5102 N   0  0  0  0  0  0  0  0  0  0  0  0
  156.0246  139.7217  163.6299 C   0  0  0  0  0  0  0  0  0  0  0  0
  155.5421  138.8112  164.7599 C   0  0  0  0  0  0  0  0  0  0  0  0
  154.9525  137.5938  164.0548 C   0  0  0  0  0  0  0  0  0  0  0  0
  155.1056  137.8972  162.5646 C   0  0  0  0  0  0  0  0  0  0  0  0
  151.0130  145.1324  161.5093 H   0  0  0  0  0  0  0  0  0  0  0  0
  152.7438  144.8082  161.3054 H   0  0  0  0  0  0  0  0  0  0  0  0
  151.6684  143.5386  161.9320 H   0  0  0  0  0  0  0  0  0  0  0  0
  149.6187  144.8812  159.4358 H   0  0  0  0  0  0  0  0  0  0  0  0
  149.9564  143.5838  157.0145 H   0  0  0  0  0  0  0  0  0  0  0  0
  153.9272  141.7771  158.9121 H   0  0  0  0  0  0  0  0  0  0  0  0
  154.3129  143.3179  159.6271 H   0  0  0  0  0  0  0  0  0  0  0  0
  153.3350  142.7053  161.7720 H   0  0  0  0  0  0  0  0  0  0  0  0
  152.5672  141.2820  161.1081 H   0  0  0  0  0  0  0  0  0  0  0  0
  155.1511  141.4280  162.2012 H   0  0  0  0  0  0  0  0  0  0  0  0
  156.6886  138.6831  160.4612 H   0  0  0  0  0  0  0  0  0  0  0  0
  157.4337  141.2383  162.0244 H   0  0  0  0  0  0  0  0  0  0  0  0
  157.8015  140.6267  159.0009 H   0  0  0  0  0  0  0  0  0  0  0  0
  158.4152  142.0964  159.9200 H   0  0  0  0  0  0  0  0  0  0  0  0
  159.7667  140.5920  161.4106 H   0  0  0  0  0  0  0  0  0  0  0  0
  159.1453  139.1255  160.4924 H   0  0  0  0  0  0  0  0  0  0  0  0
  156.9243  140.2713  163.9092 H   0  0  0  0  0  0  0  0  0  0  0  0
  155.2469  140.4444  163.3750 H   0  0  0  0  0  0  0  0  0  0  0  0
  156.3780  138.5089  165.3921 H   0  0  0  0  0  0  0  0  0  0  0  0
  154.8118  139.3150  165.3940 H   0  0  0  0  0  0  0  0  0  0  0  0
  155.5166  136.6988  164.3204 H   0  0  0  0  0  0  0  0  0  0  0  0
  153.9100  137.4224  164.3252 H   0  0  0  0  0  0  0  0  0  0  0  0
  154.2069  138.3915  162.1904 H   0  0  0  0  0  0  0  0  0  0  0  0
  155.2672  136.9925  161.9777 H   0  0  0  0  0  0  0  0  0  0  0  0
  1  2  1  0  0  0  0
  1 21  1  0  0  0  0
  1 22  1  0  0  0  0
  1 23  1  0  0  0  0
  2  6  1  0  0  0  0
  2  3  1  0  0  0  0
  3  4  2  0  0  0  0
  3 24  1  0  0  0  0
  4  5  1  0  0  0  0
  4 25  1  0  0  0  0
  5  6  2  0  0  0  0
  6  7  1  0  0  0  0
  7  8  1  0  0  0  0
  7 26  1  0  0  0  0
  7 27  1  0  0  0  0
  8  9  1  0  0  0  0
  8 28  1  0  0  0  0
  8 29  1  0  0  0  0
  9 10  1  0  0  0  0
  9 30  1  0  0  0  0
 10 11  2  0  0  0  0
 10 12  1  0  0  0  0
 12 13  1  0  0  0  0
 12 16  1  0  0  0  0
 12 31  1  0  0  0  0
 13 15  1  0  0  0  0
 13 14  1  0  0  0  0
 13 32  1  0  0  0  0
 14 15  1  0  0  0  0
 14 33  1  0  0  0  0
 14 34  1  0  0  0  0
 15 35  1  0  0  0  0
 15 36  1  0  0  0  0
 16 20  1  0  0  0  0
 16 17  1  0  0  0  0
 17 18  1  0  0  0  0
 17 37  1  0  0  0  0
 17 38  1  0  0  0  0
 18 19  1  0  0  0  0
 18 39  1  0  0  0  0
 18 40  1  0  0  0  0
 19 20  1  0  0  0  0
 19 41  1  0  0  0  0
 19 42  1  0  0  0  0
 20 43  1  0  0  0  0
 20 44  1  0  0  0  0
M  END
> <s_m_source_file>
AV-unprocessed.smi

> <i_m_source_file_index>
2252

> <i_lp_mmshare_version>
43012

> <i_f3d_flags>
0

> <s_epik_input>
W0NIM11uMVtjSF1bY0hdbmMxW0NIMl1bQ0gyXVtOSF1DKD1PKVtDQEhdKFtDSF0yW0NIMl1bQ0gyXTIpTjNbQ0gyXVtDSDJdW0NIMl1bQ0gyXTM=

> <s_epik_cmdline>
J2VwaWtfcHl0aG9uJywgJy1waCcsICc3LjAnLCAnLXRuJywgJzgnLCAnLW1hJywgJzIwMCcsICctbWV0YWxfYmluZGluZycsICctaW1hZScsICc8aW5maWxlLm1hZT4nLCAnLW9tYWUnLCAnPG91dGZpbGUubWFlPic=

> <r_epik_Ionization_Penalty>
3.7689

> <r_epik_Ionization_Penalty_Charging>
1.29411

> <r_epik_Ionization_Penalty_Neutral>
2.4748

> <r_epik_State_Penalty>
3.85943

> <r_epik_Charging_Adjusted_Penalty>
5.15353

> <i_epik_Tot_Q>
0

> <i_epik_Tot_abs_Q>
0

> <r_epik_Metal_State_Penalty>
2.88358

> <b_epik_Metal_Only>
1

> <s_lp_Force_Field>
OPLS_2005

> <r_lp_Energy>
29.995

> <b_lp_Chiralities_Consistent>
1

> <s_lp_Variant>
AV-unprocessed.smi:2252-12

> <Gold.Version>
5.8.1

> <Gold.Id.Protein>
6NUR|6NUR_protein|mol2

> <Gold.PLP.Fitness>
46.8480

> <Gold.PLP.PLP>
-41.5174

> <Gold.PLP.part.hbond>
-1.0000

> <Gold.PLP.part.metal>
0.0000

> <Gold.PLP.part.buried>
-5.2483

> <Gold.PLP.part.nonpolar>
-36.2544

> <Gold.PLP.part.repulsive>
0.0625

> <Gold.PLP.ligand.clash>
0.0000

> <Gold.PLP.ligand.torsion>
0.8320

> <Gold.PLP.Chemscore.Hbond>
1.0000

> <Gold.PLP.Chemscore.CHOScore>
0.9374

> <Gold.PLP.Chemscore.Metal>
0.0000

> <Gold.Chemscore.Hbonds>
donor molecule, donor type, donor heavy atom, donor atom, acceptor molecule, acceptor atom, score
      P1  H  7997  8009       L1    11  0.06
      L1  C     4    25       P1  8028  1.00

> <Gold.PLP.Chemscore.Internal.Correction>
1.1824

> <Gold.Rescore>
     Score         DG    S(hbond)    S(metal)    S(lipo)     H(rot)  DE(clash)    DE(int)     intcor
     13.19     -15.78       0.96        0.00     101.22       1.86       0.23       2.36       ----

> <Gold.Chemscore.Fitness>
13.1876

> <Gold.Chemscore.DG>
-15.7758

> <Gold.Chemscore.ZeroCoef>
-5.4800

> <Gold.Chemscore.Hbond>
0.9640

> <Gold.Chemscore.Metal>
0.0000

> <Gold.Chemscore.Lipo>
101.2189

> <Gold.Chemscore.Internal_Hbond>
0.0000

> <Gold.Chemscore.DEClash>
0.2330

> <Gold.Chemscore.DEInternal>
2.3552

> <Gold.Chemscore.Rot>
1.8619

> <Gold.Chemscore.Internal.Correction>
   9.000000E+99

> <Gold.Chemscore.Hbonds>
donor molecule, donor type, donor heavy atom, donor atom, acceptor molecule, acceptor atom, score
      P1  H  7997  8009       L1    11  0.11

> <Gold.Chemscore.Hbond.Weighted>
-3.2197

> <Gold.Chemscore.Metal.Weighted>
-0.0000

> <Gold.Chemscore.Lipo.Weighted>
-11.8426

> <Gold.Chemscore.Internal_Hbond.Weighted>
0.0000

> <Gold.Chemscore.DEClash.Weighted>
0.2330

> <Gold.Chemscore.DEInternal.Weighted>
2.3552

> <Gold.Chemscore.Rot.Weighted>
4.7665

> <Gold.Chemscore.Internal.Correction.Weighted>
   9.000000E+99

> <Gold.Protein.RotatedTorsions>
[ 6907 6896 6895 6894 ] final  104.32 input  -60.11 | X-H torsion
[ 7974 7965 7964 7962 ] final  -49.13 input  175.53 | X-H torsion
[ 8008 7997 7996 7995 ] final  126.82 input   59.86 | X-H torsion
[ 10167 10162 10161 10158 ] final -135.74 input  -65.29 | X-H torsion
[ 10718 10713 10712 10709 ] final -125.96 input   66.30 | X-H torsion
[ 10763 10752 10751 10750 ] final   55.35 input  -60.55 | X-H torsion
[ 11005 11000 10999 10996 ] final  149.46 input  -57.11 | X-H torsion

> <Gold.Protein.ActiveResidues>
 VAL166  LYS551  ARG553  GLY616  TRP617  ASP618  TYR619  PRO620  LYS621  CYS622 
 ASP623  PHE694  ASN695  SER759  ASP760  ASP761  ALA762  ILE779  LEU786  VAL792 
 PHE793  MET794  SER795  GLU796  ALA797  LYS798  CYS799  TRP800  GLU811  SER814 

> <Gold.Protein.RotatedAtoms>
  152.5268  133.9694  159.7754 H   0  0  0  0  0  0  0  0  0  0  0  0  # atno 6907 bound_to 6896
  150.9969  133.6086  159.2707 H   0  0  0  0  0  0  0  0  0  0  0  0  # atno 6908 bound_to 6896
  151.3210  135.0824  159.9359 H   0  0  0  0  0  0  0  0  0  0  0  0  # atno 6909 bound_to 6896
  145.9438  140.7637  142.9539 H   0  0  0  0  0  0  0  0  0  0  0  0  # atno 7974 bound_to 7965
  156.2874  140.2683  156.2174 H   0  0  0  0  0  0  0  0  0  0  0  0  # atno 8008 bound_to 7997
  155.0203  140.0386  157.2453 H   0  0  0  0  0  0  0  0  0  0  0  0  # atno 8009 bound_to 7997
  154.7441  140.2730  155.6353 H   0  0  0  0  0  0  0  0  0  0  0  0  # atno 8010 bound_to 7997
  139.8748  143.6912  152.2635 H   0  0  0  0  0  0  0  0  0  0  0  0  # atno 10167 bound_to 10162
  156.1722  130.6675  151.0195 H   0  0  0  0  0  0  0  0  0  0  0  0  # atno 10718 bound_to 10713
  152.9816  135.5713  154.5053 H   0  0  0  0  0  0  0  0  0  0  0  0  # atno 10763 bound_to 10752
  154.4566  135.2780  155.1745 H   0  0  0  0  0  0  0  0  0  0  0  0  # atno 10764 bound_to 10752
  154.3351  135.6241  153.5623 H   0  0  0  0  0  0  0  0  0  0  0  0  # atno 10765 bound_to 10752
  140.1047  134.8962  157.1848 H   0  0  0  0  0  0  0  0  0  0  0  0  # atno 11005 bound_to 11000
  144.6783  140.2323  143.7354 LP  0  0  0  0  0  0  0  0  0  0  0  0  # atno 17320 bound_to 7965
  145.8264  139.2066  143.1908 LP  0  0  0  0  0  0  0  0  0  0  0  0  # atno 17321 bound_to 7965
  139.7250  144.7595  151.0893 LP  0  0  0  0  0  0  0  0  0  0  0  0  # atno 17342 bound_to 10162
  140.7754  143.5159  150.9595 LP  0  0  0  0  0  0  0  0  0  0  0  0  # atno 17343 bound_to 10162
  157.6811  131.0838  150.7367 LP  0  0  0  0  0  0  0  0  0  0  0  0  # atno 17370 bound_to 10713
  156.7426  130.4744  149.5474 LP  0  0  0  0  0  0  0  0  0  0  0  0  # atno 17371 bound_to 10713
  140.3172  134.2957  155.7254 LP  0  0  0  0  0  0  0  0  0  0  0  0  # atno 17394 bound_to 11000
  141.2115  133.7687  156.9860 LP  0  0  0  0  0  0  0  0  0  0  0  0  # atno 17395 bound_to 11000

$$$$
