AV-unprocessed.smi:2204|AV-procd|sdf|8938|dock4
  -GOLD-   2272012153D 1   1.00000     0.00000
 Structure written by MMmdl.
 39 40  0  0  0  0  0  0  0  0  1 V2000
  154.0948  141.4035  161.1273 C   0  0  0  0  0  0  0  0  0  0  0  0
  153.1486  142.3839  160.4996 C   0  0  0  0  0  0  0  0  0  0  0  0
  152.4986  143.4943  161.1067 C   0  0  0  0  0  0  0  0  0  0  0  0
  151.7574  144.0441  160.0990 C   0  0  0  0  0  0  0  0  0  0  0  0
  150.8559  145.2350  160.1089 C   0  0  0  0  0  0  0  0  0  0  0  0
  151.9788  143.2731  158.9709 N   0  0  0  0  0  0  0  0  0  0  0  0
  151.4263  143.4193  157.6308 C   0  0  0  0  0  0  0  0  0  0  0  0
  150.8344  142.1102  157.0978 C   0  0  0  0  0  0  0  0  0  0  0  0
  151.0200  141.0614  157.7145 O   0  0  0  0  0  0  0  0  0  0  0  0
  150.1460  142.1788  155.9459 N   0  0  0  0  0  0  0  0  0  0  0  0
  149.5145  141.0579  155.2559 C   0  0  1  0  0  0  0  0  0  0  0  0
  148.3955  141.6096  154.3589 C   0  0  0  0  0  0  0  0  0  0  0  0
  150.5756  140.2697  154.4594 C   0  0  2  0  0  0  0  0  0  0  0  0
  150.1959  138.8167  154.1613 C   0  0  0  0  0  0  0  0  0  0  0  0
  151.5499  138.1579  154.0339 C   0  0  0  0  0  0  0  0  0  0  0  0
  152.3314  138.8655  155.1336 C   0  0  0  0  0  0  0  0  0  0  0  0
  151.7981  140.1848  155.1931 O   0  0  0  0  0  0  0  0  0  0  0  0
  152.8335  142.2572  159.2214 N   0  0  0  0  0  0  0  0  0  0  0  0
  154.3770  141.7163  162.1327 H   0  0  0  0  0  0  0  0  0  0  0  0
  155.0093  141.3074  160.5416 H   0  0  0  0  0  0  0  0  0  0  0  0
  153.6407  140.4153  161.2028 H   0  0  0  0  0  0  0  0  0  0  0  0
  152.5666  143.8359  162.1289 H   0  0  0  0  0  0  0  0  0  0  0  0
  150.7922  145.6669  161.1076 H   0  0  0  0  0  0  0  0  0  0  0  0
  149.8473  144.9642  159.7973 H   0  0  0  0  0  0  0  0  0  0  0  0
  151.2249  146.0072  159.4338 H   0  0  0  0  0  0  0  0  0  0  0  0
  150.6542  144.1888  157.6374 H   0  0  0  0  0  0  0  0  0  0  0  0
  152.2137  143.7701  156.9615 H   0  0  0  0  0  0  0  0  0  0  0  0
  150.0501  143.0857  155.5131 H   0  0  0  0  0  0  0  0  0  0  0  0
  149.0540  140.3879  155.9841 H   0  0  0  0  0  0  0  0  0  0  0  0
  147.8505  140.8074  153.8615 H   0  0  0  0  0  0  0  0  0  0  0  0
  148.7930  142.2706  153.5880 H   0  0  0  0  0  0  0  0  0  0  0  0
  147.6714  142.1784  154.9434 H   0  0  0  0  0  0  0  0  0  0  0  0
  150.7954  140.7787  153.5193 H   0  0  0  0  0  0  0  0  0  0  0  0
  149.6505  138.3809  154.9999 H   0  0  0  0  0  0  0  0  0  0  0  0
  149.5850  138.7115  153.2641 H   0  0  0  0  0  0  0  0  0  0  0  0
  151.5170  137.0757  154.1616 H   0  0  0  0  0  0  0  0  0  0  0  0
  151.9856  138.3773  153.0582 H   0  0  0  0  0  0  0  0  0  0  0  0
  152.1590  138.3797  156.0948 H   0  0  0  0  0  0  0  0  0  0  0  0
  153.4052  138.8747  154.9459 H   0  0  0  0  0  0  0  0  0  0  0  0
  1  2  1  0  0  0  0
  1 19  1  0  0  0  0
  1 20  1  0  0  0  0
  1 21  1  0  0  0  0
  2 18  2  0  0  0  0
  2  3  1  0  0  0  0
  3  4  2  0  0  0  0
  3 22  1  0  0  0  0
  4  5  1  0  0  0  0
  4  6  1  0  0  0  0
  5 23  1  0  0  0  0
  5 24  1  0  0  0  0
  5 25  1  0  0  0  0
  6  7  1  0  0  0  0
  6 18  1  0  0  0  0
  7  8  1  0  0  0  0
  7 26  1  0  0  0  0
  7 27  1  0  0  0  0
  8  9  2  0  0  0  0
  8 10  1  0  0  0  0
 10 11  1  0  0  0  0
 10 28  1  0  0  0  0
 11 12  1  0  0  0  0
 11 13  1  0  0  0  0
 11 29  1  0  0  0  0
 12 30  1  0  0  0  0
 12 31  1  0  0  0  0
 12 32  1  0  0  0  0
 13 17  1  0  0  0  0
 13 14  1  0  0  0  0
 13 33  1  0  0  0  0
 14 15  1  0  0  0  0
 14 34  1  0  0  0  0
 14 35  1  0  0  0  0
 15 16  1  0  0  0  0
 15 36  1  0  0  0  0
 15 37  1  0  0  0  0
 16 17  1  0  0  0  0
 16 38  1  0  0  0  0
 16 39  1  0  0  0  0
M  END
> <s_m_source_file>
AV-unprocessed.smi

> <i_m_source_file_index>
2204

> <i_lp_mmshare_version>
43012

> <i_f3d_flags>
0

> <s_epik_input>
W0NIM11jMVtjSF1jKFtDSDNdKW4objEpW0NIMl1DKD1PKVtOSF1bQ0BIXShbQ0gzXSlbQ0BASF0yW0NIMl1bQ0gyXVtDSDJdTzI=

> <s_epik_cmdline>
J2VwaWtfcHl0aG9uJywgJy1waCcsICc3LjAnLCAnLXRuJywgJzgnLCAnLW1hJywgJzIwMCcsICctbWV0YWxfYmluZGluZycsICctaW1hZScsICc8aW5maWxlLm1hZT4nLCAnLW9tYWUnLCAnPG91dGZpbGUubWFlPic=

> <r_lp_tautomer_probability>
1

> <r_epik_Ionization_Penalty>
0.000433354

> <r_epik_Ionization_Penalty_Charging>
0

> <r_epik_Ionization_Penalty_Neutral>
0.000433354

> <r_epik_State_Penalty>
-0

> <r_epik_Charging_Adjusted_Penalty>
0

> <i_epik_Tot_Q>
0

> <i_epik_Tot_abs_Q>
0

> <r_epik_Metal_State_Penalty>
-0

> <b_epik_Metal_Only>
0

> <s_lp_Force_Field>
OPLS_2005

> <r_lp_Energy>
17.6032

> <b_lp_Chiralities_Consistent>
1

> <s_lp_Variant>
AV-unprocessed.smi:2204-2

> <Gold.Version>
5.8.1

> <Gold.Id.Protein>
6NUR|6NUR_protein|mol2

> <Gold.PLP.Fitness>
47.1217

> <Gold.PLP.PLP>
-46.6633

> <Gold.PLP.part.hbond>
-2.0000

> <Gold.PLP.part.metal>
0.0000

> <Gold.PLP.part.buried>
-4.1692

> <Gold.PLP.part.nonpolar>
-41.3443

> <Gold.PLP.part.repulsive>
0.1622

> <Gold.PLP.ligand.clash>
0.0000

> <Gold.PLP.ligand.torsion>
0.9082

> <Gold.PLP.Chemscore.Hbond>
0.7520

> <Gold.PLP.Chemscore.CHOScore>
0.0000

> <Gold.PLP.Chemscore.Metal>
0.0000

> <Gold.Chemscore.Hbonds>
donor molecule, donor type, donor heavy atom, donor atom, acceptor molecule, acceptor atom, score
      L1  H    10    28       P1  8028  0.80

> <Gold.PLP.Chemscore.Internal.Correction>
0.0189

> <Gold.Rescore>
     Score         DG    S(hbond)    S(metal)    S(lipo)     H(rot)  DE(clash)    DE(int)     intcor
     12.71     -17.50       0.96        0.00     108.24       1.50       0.11       4.68       ----

> <Gold.Chemscore.Fitness>
12.7104

> <Gold.Chemscore.DG>
-17.5050

> <Gold.Chemscore.ZeroCoef>
-5.4800

> <Gold.Chemscore.Hbond>
0.9588

> <Gold.Chemscore.Metal>
0.0000

> <Gold.Chemscore.Lipo>
108.2386

> <Gold.Chemscore.Internal_Hbond>
0.0000

> <Gold.Chemscore.DEClash>
0.1116

> <Gold.Chemscore.DEInternal>
4.6830

> <Gold.Chemscore.Rot>
1.5005

> <Gold.Chemscore.Internal.Correction>
   9.000000E+99

> <Gold.Chemscore.Hbonds>
donor molecule, donor type, donor heavy atom, donor atom, acceptor molecule, acceptor atom, score
      L1  H    10    28       P1  8028  0.76

> <Gold.Chemscore.Hbond.Weighted>
-3.2023

> <Gold.Chemscore.Metal.Weighted>
-0.0000

> <Gold.Chemscore.Lipo.Weighted>
-12.6639

> <Gold.Chemscore.Internal_Hbond.Weighted>
0.0000

> <Gold.Chemscore.DEClash.Weighted>
0.1116

> <Gold.Chemscore.DEInternal.Weighted>
4.6830

> <Gold.Chemscore.Rot.Weighted>
3.8412

> <Gold.Chemscore.Internal.Correction.Weighted>
   9.000000E+99

> <Gold.Protein.RotatedTorsions>
[ 6907 6896 6895 6894 ] final   45.10 input  -60.11 | X-H torsion
[ 7974 7965 7964 7962 ] final  -91.13 input  175.53 | X-H torsion
[ 8008 7997 7996 7995 ] final  -89.36 input   59.86 | X-H torsion
[ 10167 10162 10161 10158 ] final   83.44 input  -65.29 | X-H torsion
[ 10718 10713 10712 10709 ] final   48.85 input   66.30 | X-H torsion
[ 10763 10752 10751 10750 ] final -109.60 input  -60.55 | X-H torsion
[ 11005 11000 10999 10996 ] final   79.66 input  -57.11 | X-H torsion

> <Gold.Protein.ActiveResidues>
 VAL166  LYS551  ARG553  GLY616  TRP617  ASP618  TYR619  PRO620  LYS621  CYS622 
 ASP623  PHE694  ASN695  SER759  ASP760  ASP761  ALA762  ILE779  LEU786  VAL792 
 PHE793  MET794  SER795  GLU796  ALA797  LYS798  CYS799  TRP800  GLU811  SER814 

> <Gold.Protein.RotatedAtoms>
  152.2405  134.8233  160.0460 H   0  0  0  0  0  0  0  0  0  0  0  0  # atno 6907 bound_to 6896
  151.8950  133.3519  159.3819 H   0  0  0  0  0  0  0  0  0  0  0  0  # atno 6908 bound_to 6896
  150.7052  134.4812  159.5515 H   0  0  0  0  0  0  0  0  0  0  0  0  # atno 6909 bound_to 6896
  145.4172  140.9549  143.2201 H   0  0  0  0  0  0  0  0  0  0  0  0  # atno 7974 bound_to 7965
  154.6857  140.0542  157.0312 H   0  0  0  0  0  0  0  0  0  0  0  0  # atno 8008 bound_to 7997
  155.0888  140.3217  155.4561 H   0  0  0  0  0  0  0  0  0  0  0  0  # atno 8009 bound_to 7997
  156.2710  140.2052  156.6015 H   0  0  0  0  0  0  0  0  0  0  0  0  # atno 8010 bound_to 7997
  139.9184  144.6228  150.8465 H   0  0  0  0  0  0  0  0  0  0  0  0  # atno 10167 bound_to 10162
  157.4727  130.8266  149.8006 H   0  0  0  0  0  0  0  0  0  0  0  0  # atno 10718 bound_to 10713
  154.8202  135.4595  154.0757 H   0  0  0  0  0  0  0  0  0  0  0  0  # atno 10763 bound_to 10752
  153.2117  135.6882  153.8112 H   0  0  0  0  0  0  0  0  0  0  0  0  # atno 10764 bound_to 10752
  153.7561  135.3291  155.3306 H   0  0  0  0  0  0  0  0  0  0  0  0  # atno 10765 bound_to 10752
  139.9164  134.7860  156.1808 H   0  0  0  0  0  0  0  0  0  0  0  0  # atno 11005 bound_to 11000
  144.8269  139.5694  143.6961 LP  0  0  0  0  0  0  0  0  0  0  0  0  # atno 17320 bound_to 7965
  146.2675  139.6554  142.9319 LP  0  0  0  0  0  0  0  0  0  0  0  0  # atno 17321 bound_to 7965
  140.7668  143.3315  151.2401 LP  0  0  0  0  0  0  0  0  0  0  0  0  # atno 17342 bound_to 10162
  139.6883  143.9736  152.2845 LP  0  0  0  0  0  0  0  0  0  0  0  0  # atno 17343 bound_to 10162
  156.0081  130.3846  150.2358 LP  0  0  0  0  0  0  0  0  0  0  0  0  # atno 17370 bound_to 10713
  157.0541  131.0071  151.3244 LP  0  0  0  0  0  0  0  0  0  0  0  0  # atno 17371 bound_to 10713
  141.0643  133.6826  156.2014 LP  0  0  0  0  0  0  0  0  0  0  0  0  # atno 17394 bound_to 11000
  140.6610  134.4968  157.5583 LP  0  0  0  0  0  0  0  0  0  0  0  0  # atno 17395 bound_to 11000

$$$$
