AV-unprocessed.smi:1067|AV-procd|sdf|4672|dock4
  -GOLD-   22720 3183D 1   1.00000     0.00000
 Structure written by MMmdl.
 50 52  0  0  0  0  0  0  0  0  1 V2000
  145.2391  136.9548  151.6347 N   0  0  0  0  0  0  0  0  0  0  0  0
  144.9925  135.7281  151.1642 C   0  0  0  0  0  0  0  0  0  0  0  0
  144.5420  135.5683  150.0307 O   0  0  0  0  0  0  0  0  0  0  0  0
  145.3043  134.5053  152.0744 C   0  0  0  0  0  0  0  0  0  0  0  0
  145.6902  135.0159  153.4925 C   0  0  0  0  0  0  0  0  0  0  0  0
  146.8728  135.8788  153.5182 N   0  0  0  0  0  0  0  0  0  0  0  0
  147.1850  136.7458  154.4915 C   0  0  0  0  0  0  0  0  0  0  0  0
  146.4858  136.9304  155.4877 O   0  0  0  0  0  0  0  0  0  0  0  0
  148.3397  137.3792  154.2242 N   0  0  0  0  0  0  0  0  0  0  0  0
  149.0047  138.3649  155.0017 C   0  0  0  0  0  0  0  0  0  0  0  0
  148.8132  138.5450  156.3912 C   0  0  0  0  0  0  0  0  0  0  0  0
  149.5407  139.5509  157.0554 C   0  0  0  0  0  0  0  0  0  0  0  0
  150.4501  140.3459  156.3183 C   0  0  0  0  0  0  0  0  0  0  0  0
  151.1873  141.3709  156.9429 N   0  0  0  0  0  0  0  0  0  0  0  0
  151.6746  141.2500  158.3078 C   0  0  0  0  0  0  0  0  0  0  0  0
  152.3229  142.6014  158.6046 C   0  0  0  0  0  0  0  0  0  0  0  0
  151.4773  143.5789  157.7878 C   0  0  0  0  0  0  0  0  0  0  0  0
  151.0482  142.7686  156.5588 C   0  0  0  0  0  0  0  0  0  0  0  0
  150.6409  140.1631  154.9901 N   0  0  0  0  0  0  0  0  0  0  0  0
  149.9425  139.1966  154.3585 C   0  0  0  0  0  0  0  0  0  0  0  0
  144.0930  133.5403  152.2055 C   0  0  0  0  0  0  0  0  0  0  0  0
  143.7779  132.7969  150.8924 C   0  0  0  0  0  0  0  0  0  0  0  0
  144.9227  132.0704  150.4638 O   0  0  0  0  0  0  0  0  0  0  0  0
  146.0402  132.9075  150.1930 C   0  0  0  0  0  0  0  0  0  0  0  0
  146.4584  133.6557  151.4735 C   0  0  0  0  0  0  0  0  0  0  0  0
  145.0383  137.7612  151.0609 H   0  0  0  0  0  0  0  0  0  0  0  0
  145.6196  137.0728  152.5624 H   0  0  0  0  0  0  0  0  0  0  0  0
  144.8634  135.5902  153.9125 H   0  0  0  0  0  0  0  0  0  0  0  0
  145.8260  134.1725  154.1718 H   0  0  0  0  0  0  0  0  0  0  0  0
  147.5101  135.7937  152.7396 H   0  0  0  0  0  0  0  0  0  0  0  0
  148.7612  137.1770  153.3294 H   0  0  0  0  0  0  0  0  0  0  0  0
  148.1348  137.9297  156.9614 H   0  0  0  0  0  0  0  0  0  0  0  0
  149.3876  139.7001  158.1136 H   0  0  0  0  0  0  0  0  0  0  0  0
  150.8338  141.0694  158.9788 H   0  0  0  0  0  0  0  0  0  0  0  0
  152.3852  140.4296  158.4129 H   0  0  0  0  0  0  0  0  0  0  0  0
  152.3444  142.8378  159.6687 H   0  0  0  0  0  0  0  0  0  0  0  0
  153.3496  142.6071  158.2358 H   0  0  0  0  0  0  0  0  0  0  0  0
  150.5952  143.8636  158.3631 H   0  0  0  0  0  0  0  0  0  0  0  0
  152.0147  144.4906  157.5264 H   0  0  0  0  0  0  0  0  0  0  0  0
  151.7070  142.9690  155.7133 H   0  0  0  0  0  0  0  0  0  0  0  0
  150.0272  143.0153  156.2657 H   0  0  0  0  0  0  0  0  0  0  0  0
  150.1345  139.0910  153.3007 H   0  0  0  0  0  0  0  0  0  0  0  0
  144.3115  132.7928  152.9697 H   0  0  0  0  0  0  0  0  0  0  0  0
  143.2042  134.0609  152.5641 H   0  0  0  0  0  0  0  0  0  0  0  0
  142.9607  132.0933  151.0513 H   0  0  0  0  0  0  0  0  0  0  0  0
  143.4530  133.4816  150.1081 H   0  0  0  0  0  0  0  0  0  0  0  0
  146.8633  132.2846  149.8424 H   0  0  0  0  0  0  0  0  0  0  0  0
  145.8045  133.5996  149.3834 H   0  0  0  0  0  0  0  0  0  0  0  0
  147.3355  134.2682  151.2611 H   0  0  0  0  0  0  0  0  0  0  0  0
  146.7874  132.9217  152.2105 H   0  0  0  0  0  0  0  0  0  0  0  0
  1  2  1  0  0  0  0
  1 26  1  0  0  0  0
  1 27  1  0  0  0  0
  2  3  2  0  0  0  0
  2  4  1  0  0  0  0
  4 25  1  0  0  0  0
  4  5  1  0  0  0  0
  4 21  1  0  0  0  0
  5  6  1  0  0  0  0
  5 28  1  0  0  0  0
  5 29  1  0  0  0  0
  6  7  1  0  0  0  0
  6 30  1  0  0  0  0
  7  8  2  0  0  0  0
  7  9  1  0  0  0  0
  9 10  1  0  0  0  0
  9 31  1  0  0  0  0
 10 20  1  0  0  0  0
 10 11  2  0  0  0  0
 11 12  1  0  0  0  0
 11 32  1  0  0  0  0
 12 13  2  0  0  0  0
 12 33  1  0  0  0  0
 13 14  1  0  0  0  0
 13 19  1  0  0  0  0
 14 18  1  0  0  0  0
 14 15  1  0  0  0  0
 15 16  1  0  0  0  0
 15 34  1  0  0  0  0
 15 35  1  0  0  0  0
 16 17  1  0  0  0  0
 16 36  1  0  0  0  0
 16 37  1  0  0  0  0
 17 18  1  0  0  0  0
 17 38  1  0  0  0  0
 17 39  1  0  0  0  0
 18 40  1  0  0  0  0
 18 41  1  0  0  0  0
 19 20  2  0  0  0  0
 20 42  1  0  0  0  0
 21 22  1  0  0  0  0
 21 43  1  0  0  0  0
 21 44  1  0  0  0  0
 22 23  1  0  0  0  0
 22 45  1  0  0  0  0
 22 46  1  0  0  0  0
 23 24  1  0  0  0  0
 24 25  1  0  0  0  0
 24 47  1  0  0  0  0
 24 48  1  0  0  0  0
 25 49  1  0  0  0  0
 25 50  1  0  0  0  0
M  END
> <s_m_source_file>
AV-unprocessed.smi

> <i_m_source_file_index>
1067

> <i_lp_mmshare_version>
43012

> <i_f3d_flags>
0

> <s_epik_input>
W0NIMl0xW0NIMl1PW0NIMl1bQ0gyXUMxKEMoPU8pW05IMl0pW0NIMl1bTkhdQyg9TylbTkhdYzJbY0hdW2NIXWMobltjSF0yKU4zW0NIMl1bQ0gyXVtDSDJdW0NIMl0z

> <s_epik_cmdline>
J2VwaWtfcHl0aG9uJywgJy1waCcsICc3LjAnLCAnLXRuJywgJzgnLCAnLW1hJywgJzIwMCcsICctbWV0YWxfYmluZGluZycsICctaW1hZScsICc8aW5maWxlLm1hZT4nLCAnLW9tYWUnLCAnPG91dGZpbGUubWFlPic=

> <r_lp_tautomer_probability>
1

> <r_epik_Ionization_Penalty>
0.0944962

> <r_epik_Ionization_Penalty_Charging>
0

> <r_epik_Ionization_Penalty_Neutral>
0.0944962

> <r_epik_State_Penalty>
0.0841646

> <r_epik_Charging_Adjusted_Penalty>
0.0841646

> <i_epik_Tot_Q>
0

> <i_epik_Tot_abs_Q>
0

> <r_epik_Metal_State_Penalty>
0.0725577

> <b_epik_Metal_Only>
0

> <s_lp_Force_Field>
OPLS_2005

> <r_lp_Energy>
34.2759

> <b_lp_Chiralities_Consistent>
1

> <s_lp_Variant>
AV-unprocessed.smi:1067-1

> <Gold.Version>
5.8.1

> <Gold.Id.Protein>
6NUR|6NUR_protein|mol2

> <Gold.PLP.Fitness>
48.2181

> <Gold.PLP.PLP>
-36.5754

> <Gold.PLP.part.hbond>
-4.0000

> <Gold.PLP.part.metal>
0.0000

> <Gold.PLP.part.buried>
-5.8072

> <Gold.PLP.part.nonpolar>
-28.9081

> <Gold.PLP.part.repulsive>
2.0076

> <Gold.PLP.ligand.clash>
0.9808

> <Gold.PLP.ligand.torsion>
1.2205

> <Gold.PLP.Chemscore.Hbond>
3.9600

> <Gold.PLP.Chemscore.CHOScore>
1.0000

> <Gold.PLP.Chemscore.Metal>
0.0000

> <Gold.Chemscore.Hbonds>
donor molecule, donor type, donor heavy atom, donor atom, acceptor molecule, acceptor atom, score
      L1  H     1    26       P1 10171  0.96
      L1  H     6    30       P1  7948  1.00
      L1  H     9    31       P1  7948  1.00
      P1  H  7989  7998       L1    19  1.00
      L1  C    20    42       P1  7957  1.00

> <Gold.PLP.Chemscore.Internal.Correction>
0.1845

> <Gold.Rescore>
     Score         DG    S(hbond)    S(metal)    S(lipo)     H(rot)  DE(clash)    DE(int)     intcor
     17.55     -22.69       3.52        0.00      86.05       1.81       0.36       4.78       ----

> <Gold.Chemscore.Fitness>
17.5491

> <Gold.Chemscore.DG>
-22.6870

> <Gold.Chemscore.ZeroCoef>
-5.4800

> <Gold.Chemscore.Hbond>
3.5227

> <Gold.Chemscore.Metal>
0.0000

> <Gold.Chemscore.Lipo>
86.0542

> <Gold.Chemscore.Internal_Hbond>
0.0000

> <Gold.Chemscore.DEClash>
0.3557

> <Gold.Chemscore.DEInternal>
4.7822

> <Gold.Chemscore.Rot>
1.8075

> <Gold.Chemscore.Internal.Correction>
   9.000000E+99

> <Gold.Chemscore.Hbonds>
donor molecule, donor type, donor heavy atom, donor atom, acceptor molecule, acceptor atom, score
      L1  H     1    26       P1 10171  0.92
      L1  H     6    30       P1  7948  0.98
      L1  H     9    31       P1  7948  0.98
      P1  H  7989  7998       L1    19  0.25

> <Gold.Chemscore.Hbond.Weighted>
-11.7659

> <Gold.Chemscore.Metal.Weighted>
-0.0000

> <Gold.Chemscore.Lipo.Weighted>
-10.0683

> <Gold.Chemscore.Internal_Hbond.Weighted>
0.0000

> <Gold.Chemscore.DEClash.Weighted>
0.3557

> <Gold.Chemscore.DEInternal.Weighted>
4.7822

> <Gold.Chemscore.Rot.Weighted>
4.6272

> <Gold.Chemscore.Internal.Correction.Weighted>
   9.000000E+99

> <Gold.Protein.RotatedTorsions>
[ 6907 6896 6895 6894 ] final  177.79 input  -60.11 | X-H torsion
[ 7974 7965 7964 7962 ] final -156.15 input  175.53 | X-H torsion
[ 8008 7997 7996 7995 ] final  -62.58 input   59.86 | X-H torsion
[ 10167 10162 10161 10158 ] final  102.74 input  -65.29 | X-H torsion
[ 10718 10713 10712 10709 ] final  143.19 input   66.30 | X-H torsion
[ 10763 10752 10751 10750 ] final   47.58 input  -60.55 | X-H torsion
[ 11005 11000 10999 10996 ] final  140.50 input  -57.11 | X-H torsion

> <Gold.Protein.ActiveResidues>
 VAL166  LYS551  ARG553  GLY616  TRP617  ASP618  TYR619  PRO620  LYS621  CYS622 
 ASP623  PHE694  ASN695  SER759  ASP760  ASP761  ALA762  ILE779  LEU786  VAL792 
 PHE793  MET794  SER795  GLU796  ALA797  LYS798  CYS799  TRP800  GLU811  SER814 

> <Gold.Protein.RotatedAtoms>
  151.6983  133.3311  159.3259 H   0  0  0  0  0  0  0  0  0  0  0  0  # atno 6907 bound_to 6896
  150.7747  134.6638  159.6363 H   0  0  0  0  0  0  0  0  0  0  0  0  # atno 6908 bound_to 6896
  152.3785  134.6629  160.0203 H   0  0  0  0  0  0  0  0  0  0  0  0  # atno 6909 bound_to 6896
  144.7606  140.4150  143.5979 H   0  0  0  0  0  0  0  0  0  0  0  0  # atno 7974 bound_to 7965
  154.4507  140.0993  156.6610 H   0  0  0  0  0  0  0  0  0  0  0  0  # atno 8008 bound_to 7997
  155.5293  140.3481  155.4404 H   0  0  0  0  0  0  0  0  0  0  0  0  # atno 8009 bound_to 7997
  156.0675  140.1341  156.9857 H   0  0  0  0  0  0  0  0  0  0  0  0  # atno 8010 bound_to 7997
  139.7323  144.7033  151.0702 H   0  0  0  0  0  0  0  0  0  0  0  0  # atno 10167 bound_to 10162
  157.3718  131.0980  151.0821 H   0  0  0  0  0  0  0  0  0  0  0  0  # atno 10718 bound_to 10713
  152.9799  135.5972  154.3785 H   0  0  0  0  0  0  0  0  0  0  0  0  # atno 10763 bound_to 10752
  154.3452  135.2767  155.2403 H   0  0  0  0  0  0  0  0  0  0  0  0  # atno 10764 bound_to 10752
  154.4467  135.6000  153.6220 H   0  0  0  0  0  0  0  0  0  0  0  0  # atno 10765 bound_to 10752
  140.0332  134.9341  157.0703 H   0  0  0  0  0  0  0  0  0  0  0  0  # atno 11005 bound_to 11000
  145.6631  139.1585  143.2797 LP  0  0  0  0  0  0  0  0  0  0  0  0  # atno 17320 bound_to 7965
  146.1665  140.6710  142.9253 LP  0  0  0  0  0  0  0  0  0  0  0  0  # atno 17321 bound_to 7965
  140.7773  143.5027  150.9751 LP  0  0  0  0  0  0  0  0  0  0  0  0  # atno 17342 bound_to 10162
  139.8715  143.7186  152.3166 LP  0  0  0  0  0  0  0  0  0  0  0  0  # atno 17343 bound_to 10162
  157.1922  130.6357  149.5708 LP  0  0  0  0  0  0  0  0  0  0  0  0  # atno 17370 bound_to 10713
  155.9757  130.4718  150.6478 LP  0  0  0  0  0  0  0  0  0  0  0  0  # atno 17371 bound_to 10713
  140.4191  134.1900  155.7164 LP  0  0  0  0  0  0  0  0  0  0  0  0  # atno 17394 bound_to 11000
  141.1843  133.8347  157.1145 LP  0  0  0  0  0  0  0  0  0  0  0  0  # atno 17395 bound_to 11000

$$$$
