AV-unprocessed.smi:119|AV-procd|sdf|1135|dock6
  -GOLD-   2262018263D 1   1.00000     0.00000
 Structure written by MMmdl.
 51 54  0  0  0  0  0  0  0  0  1 V2000
  147.3929  140.7864  154.3249 C   0  0  0  0  0  0  0  0  0  0  0  0
  148.5050  141.4707  155.1358 C   0  0  2  0  0  0  0  0  0  0  0  0
  149.9254  141.1756  154.6131 C   0  0  0  0  0  0  0  0  0  0  0  0
  150.3779  139.7025  154.6735 C   0  0  0  0  0  0  0  0  0  0  0  0
  150.5867  139.2239  156.0463 N   0  0  0  0  0  0  0  0  0  0  0  0
  151.7637  139.3442  156.7146 C   0  0  0  0  0  0  0  0  0  0  0  0
  152.7652  139.8364  156.1874 O   0  0  0  0  0  0  0  0  0  0  0  0
  151.8582  138.8546  158.1770 C   0  0  0  0  0  0  0  0  0  0  0  0
  152.6254  139.7642  159.0573 N   0  0  0  0  0  0  0  0  0  0  0  0
  153.7577  139.2522  159.7361 C   0  0  0  0  0  0  0  0  0  0  0  0
  154.0997  138.0751  159.6105 O   0  0  0  0  0  0  0  0  0  0  0  0
  154.4750  140.2083  160.5708 C   0  0  0  0  0  0  0  0  0  0  0  0
  155.5534  139.8063  161.2648 F   0  0  0  0  0  0  0  0  0  0  0  0
  154.0723  141.4926  160.6637 C   0  0  0  0  0  0  0  0  0  0  0  0
  152.9682  141.9852  159.9877 N   0  0  0  0  0  0  0  0  0  0  0  0
  152.5416  143.4390  160.0395 C   0  0  1  0  0  0  0  0  0  0  0  0
  152.5244  144.1819  158.7007 C   0  0  0  0  0  0  0  0  0  0  0  0
  151.5899  145.3164  159.0519 C   0  0  0  0  0  0  0  0  0  0  0  0
  150.5492  144.5967  159.9098 C   0  0  0  0  0  0  0  0  0  0  0  0
  151.2296  143.4970  160.5136 O   0  0  0  0  0  0  0  0  0  0  0  0
  152.2219  141.1169  159.1592 C   0  0  0  0  0  0  0  0  0  0  0  0
  151.2425  141.5324  158.5354 O   0  0  0  0  0  0  0  0  0  0  0  0
  149.4697  138.6176  156.6822 C   0  0  0  0  0  0  0  0  0  0  0  0
  149.4622  137.2183  156.8788 C   0  0  0  0  0  0  0  0  0  0  0  0
  148.3674  136.5953  157.5072 C   0  0  0  0  0  0  0  0  0  0  0  0
  147.2740  137.3669  157.9433 C   0  0  0  0  0  0  0  0  0  0  0  0
  147.2750  138.7615  157.7503 C   0  0  0  0  0  0  0  0  0  0  0  0
  148.3657  139.3900  157.1169 C   0  0  0  0  0  0  0  0  0  0  0  0
  148.3292  141.1460  156.9149 S   0  0  0  0  0  0  0  0  0  0  0  0
  147.4725  141.0322  153.2657 H   0  0  0  0  0  0  0  0  0  0  0  0
  146.4093  141.1116  154.6645 H   0  0  0  0  0  0  0  0  0  0  0  0
  147.4266  139.7011  154.4177 H   0  0  0  0  0  0  0  0  0  0  0  0
  148.3547  142.5454  155.0283 H   0  0  0  0  0  0  0  0  0  0  0  0
  149.9799  141.5042  153.5748 H   0  0  0  0  0  0  0  0  0  0  0  0
  150.6355  141.8040  155.1507 H   0  0  0  0  0  0  0  0  0  0  0  0
  149.6399  139.0673  154.1827 H   0  0  0  0  0  0  0  0  0  0  0  0
  151.2764  139.5715  154.0714 H   0  0  0  0  0  0  0  0  0  0  0  0
  150.8474  138.7136  158.5614 H   0  0  0  0  0  0  0  0  0  0  0  0
  152.2968  137.8574  158.2049 H   0  0  0  0  0  0  0  0  0  0  0  0
  154.6510  142.1295  161.3115 H   0  0  0  0  0  0  0  0  0  0  0  0
  153.2201  143.9171  160.7495 H   0  0  0  0  0  0  0  0  0  0  0  0
  153.5232  144.4954  158.3963 H   0  0  0  0  0  0  0  0  0  0  0  0
  152.0562  143.5863  157.9181 H   0  0  0  0  0  0  0  0  0  0  0  0
  152.1153  146.0682  159.6430 H   0  0  0  0  0  0  0  0  0  0  0  0
  151.1583  145.8063  158.1786 H   0  0  0  0  0  0  0  0  0  0  0  0
  150.1104  145.2527  160.6619 H   0  0  0  0  0  0  0  0  0  0  0  0
  149.7431  144.2053  159.2884 H   0  0  0  0  0  0  0  0  0  0  0  0
  150.2985  136.6194  156.5484 H   0  0  0  0  0  0  0  0  0  0  0  0
  148.3680  135.5257  157.6562 H   0  0  0  0  0  0  0  0  0  0  0  0
  146.4353  136.8892  158.4277 H   0  0  0  0  0  0  0  0  0  0  0  0
  146.4345  139.3488  158.0897 H   0  0  0  0  0  0  0  0  0  0  0  0
  1  2  1  0  0  0  0
  1 30  1  0  0  0  0
  1 31  1  0  0  0  0
  1 32  1  0  0  0  0
  2 29  1  0  0  0  0
  2  3  1  0  0  0  0
  2 33  1  0  0  0  0
  3  4  1  0  0  0  0
  3 34  1  0  0  0  0
  3 35  1  0  0  0  0
  4  5  1  0  0  0  0
  4 36  1  0  0  0  0
  4 37  1  0  0  0  0
  5  6  1  0  0  0  0
  5 23  1  0  0  0  0
  6  7  2  0  0  0  0
  6  8  1  0  0  0  0
  8  9  1  0  0  0  0
  8 38  1  0  0  0  0
  8 39  1  0  0  0  0
  9 21  1  0  0  0  0
  9 10  1  0  0  0  0
 10 11  2  0  0  0  0
 10 12  1  0  0  0  0
 12 13  1  0  0  0  0
 12 14  2  0  0  0  0
 14 15  1  0  0  0  0
 14 40  1  0  0  0  0
 15 16  1  0  0  0  0
 15 21  1  0  0  0  0
 16 20  1  0  0  0  0
 16 17  1  0  0  0  0
 16 41  1  0  0  0  0
 17 18  1  0  0  0  0
 17 42  1  0  0  0  0
 17 43  1  0  0  0  0
 18 19  1  0  0  0  0
 18 44  1  0  0  0  0
 18 45  1  0  0  0  0
 19 20  1  0  0  0  0
 19 46  1  0  0  0  0
 19 47  1  0  0  0  0
 21 22  2  0  0  0  0
 23 28  2  0  0  0  0
 23 24  1  0  0  0  0
 24 25  2  0  0  0  0
 24 48  1  0  0  0  0
 25 26  1  0  0  0  0
 25 49  1  0  0  0  0
 26 27  2  0  0  0  0
 26 50  1  0  0  0  0
 27 28  1  0  0  0  0
 27 51  1  0  0  0  0
 28 29  1  0  0  0  0
M  END
> <s_m_source_file>
AV-unprocessed.smi

> <i_m_source_file_index>
119

> <i_lp_mmshare_version>
43012

> <i_f3d_flags>
0

> <s_epik_input>
W2NIXTFbY0hdW2NIXVtjSF1jKGMxMilTW0NASF0oW0NIM10pW0NIMl1bQ0gyXU4yQyg9TylbQ0gyXW4zYyg9TyljKEYpW2NIXW4oYzM9TylbQ0BASF00W0NIMl1bQ0gyXVtDSDJdTzQ=

> <s_epik_cmdline>
J2VwaWtfcHl0aG9uJywgJy1waCcsICc3LjAnLCAnLXRuJywgJzgnLCAnLW1hJywgJzIwMCcsICctbWV0YWxfYmluZGluZycsICctaW1hZScsICc8aW5maWxlLm1hZT4nLCAnLW9tYWUnLCAnPG91dGZpbGUubWFlPic=

> <r_lp_tautomer_probability>
1

> <r_epik_Ionization_Penalty>
1.68882e-06

> <r_epik_Ionization_Penalty_Charging>
3.67303e-09

> <r_epik_Ionization_Penalty_Neutral>
1.68515e-06

> <r_epik_State_Penalty>
-0

> <r_epik_Charging_Adjusted_Penalty>
3.67303e-09

> <i_epik_Tot_Q>
0

> <i_epik_Tot_abs_Q>
0

> <r_epik_Metal_State_Penalty>
-0

> <b_epik_Metal_Only>
0

> <s_epik_Chemistry_Notes>
This compound contains an acetal/aminal-like group ( X-CH(R)-Y where X, Y are N, S, or O) that may be acid/base labile, releasing an aldehyde.

> <s_lp_Force_Field>
OPLS_2005

> <r_lp_Energy>
51.5083

> <b_lp_Chiralities_Consistent>
1

> <s_lp_Variant>
AV-unprocessed.smi:119-3

> <Gold.Version>
5.8.1

> <Gold.Id.Protein>
6NUR|6NUR_protein|mol2

> <Gold.PLP.Fitness>
51.3413

> <Gold.PLP.PLP>
-48.8710

> <Gold.PLP.part.hbond>
-1.4859

> <Gold.PLP.part.metal>
0.0000

> <Gold.PLP.part.buried>
-4.9805

> <Gold.PLP.part.nonpolar>
-42.6092

> <Gold.PLP.part.repulsive>
0.0914

> <Gold.PLP.ligand.clash>
0.0000

> <Gold.PLP.ligand.torsion>
0.2736

> <Gold.PLP.Chemscore.Hbond>
1.0000

> <Gold.PLP.Chemscore.CHOScore>
0.0000

> <Gold.PLP.Chemscore.Metal>
0.0000

> <Gold.Chemscore.Hbonds>
donor molecule, donor type, donor heavy atom, donor atom, acceptor molecule, acceptor atom, score
      P1  H  7997  8010       L1     7  1.00

> <Gold.PLP.Chemscore.Internal.Correction>
0.0175

> <Gold.Rescore>
     Score         DG    S(hbond)    S(metal)    S(lipo)     H(rot)  DE(clash)    DE(int)     intcor
     11.66     -16.05       1.00        0.00      95.23       1.53       0.28       4.11       ----

> <Gold.Chemscore.Fitness>
11.6638

> <Gold.Chemscore.DG>
-16.0537

> <Gold.Chemscore.ZeroCoef>
-5.4800

> <Gold.Chemscore.Hbond>
0.9999

> <Gold.Chemscore.Metal>
0.0000

> <Gold.Chemscore.Lipo>
95.2304

> <Gold.Chemscore.Internal_Hbond>
0.0000

> <Gold.Chemscore.DEClash>
0.2817

> <Gold.Chemscore.DEInternal>
4.1081

> <Gold.Chemscore.Rot>
1.5266

> <Gold.Chemscore.Internal.Correction>
   9.000000E+99

> <Gold.Chemscore.Hbonds>
donor molecule, donor type, donor heavy atom, donor atom, acceptor molecule, acceptor atom, score
      P1  H  7997  8010       L1     7  0.97

> <Gold.Chemscore.Hbond.Weighted>
-3.3398

> <Gold.Chemscore.Metal.Weighted>
-0.0000

> <Gold.Chemscore.Lipo.Weighted>
-11.1420

> <Gold.Chemscore.Internal_Hbond.Weighted>
0.0000

> <Gold.Chemscore.DEClash.Weighted>
0.2817

> <Gold.Chemscore.DEInternal.Weighted>
4.1081

> <Gold.Chemscore.Rot.Weighted>
3.9081

> <Gold.Chemscore.Internal.Correction.Weighted>
   9.000000E+99

> <Gold.Protein.RotatedTorsions>
[ 6907 6896 6895 6894 ] final   15.34 input  -60.11 | X-H torsion
[ 7974 7965 7964 7962 ] final  162.93 input  175.53 | X-H torsion
[ 8008 7997 7996 7995 ] final   94.22 input   59.86 | X-H torsion
[ 10167 10162 10161 10158 ] final  147.71 input  -65.29 | X-H torsion
[ 10718 10713 10712 10709 ] final  141.86 input   66.30 | X-H torsion
[ 10763 10752 10751 10750 ] final  -66.80 input  -60.55 | X-H torsion
[ 11005 11000 10999 10996 ] final -177.17 input  -57.11 | X-H torsion

> <Gold.Protein.ActiveResidues>
 VAL166  LYS551  ARG553  GLY616  TRP617  ASP618  TYR619  PRO620  LYS621  CYS622 
 ASP623  PHE694  ASN695  SER759  ASP760  ASP761  ALA762  ILE779  LEU786  VAL792 
 PHE793  MET794  SER795  GLU796  ALA797  LYS798  CYS799  TRP800  GLU811  SER814 

> <Gold.Protein.RotatedAtoms>
  151.8166  135.0664  160.0419 H   0  0  0  0  0  0  0  0  0  0  0  0  # atno 6907 bound_to 6896
  152.2981  133.5624  159.5609 H   0  0  0  0  0  0  0  0  0  0  0  0  # atno 6908 bound_to 6896
  150.7261  134.0247  159.3755 H   0  0  0  0  0  0  0  0  0  0  0  0  # atno 6909 bound_to 6896
  144.7613  139.8110  143.6331 H   0  0  0  0  0  0  0  0  0  0  0  0  # atno 7974 bound_to 7965
  156.0555  140.3302  155.7401 H   0  0  0  0  0  0  0  0  0  0  0  0  # atno 8008 bound_to 7997
  155.5535  140.0612  157.2862 H   0  0  0  0  0  0  0  0  0  0  0  0  # atno 8009 bound_to 7997
  154.4456  140.1890  156.0699 H   0  0  0  0  0  0  0  0  0  0  0  0  # atno 8010 bound_to 7997
  139.4886  144.5735  151.7010 H   0  0  0  0  0  0  0  0  0  0  0  0  # atno 10167 bound_to 10162
  157.3872  131.1000  151.0681 H   0  0  0  0  0  0  0  0  0  0  0  0  # atno 10718 bound_to 10713
  154.3652  135.6107  153.5711 H   0  0  0  0  0  0  0  0  0  0  0  0  # atno 10763 bound_to 10752
  152.9792  135.5824  154.4587 H   0  0  0  0  0  0  0  0  0  0  0  0  # atno 10764 bound_to 10752
  154.4331  135.2848  155.1876 H   0  0  0  0  0  0  0  0  0  0  0  0  # atno 10765 bound_to 10752
  140.4439  134.6406  157.4770 H   0  0  0  0  0  0  0  0  0  0  0  0  # atno 11005 bound_to 11000
  146.1679  139.4818  142.9946 LP  0  0  0  0  0  0  0  0  0  0  0  0  # atno 17320 bound_to 7965
  145.6610  141.0240  143.1709 LP  0  0  0  0  0  0  0  0  0  0  0  0  # atno 17321 bound_to 7965
  140.5326  144.0706  150.6059 LP  0  0  0  0  0  0  0  0  0  0  0  0  # atno 17342 bound_to 10162
  140.3701  143.2859  152.0287 LP  0  0  0  0  0  0  0  0  0  0  0  0  # atno 17343 bound_to 10162
  157.1728  130.6275  149.5646 LP  0  0  0  0  0  0  0  0  0  0  0  0  # atno 17370 bound_to 10713
  155.9789  130.4779  150.6686 LP  0  0  0  0  0  0  0  0  0  0  0  0  # atno 17371 bound_to 10713
  140.0051  134.6776  155.9467 LP  0  0  0  0  0  0  0  0  0  0  0  0  # atno 17394 bound_to 11000
  141.1694  133.6537  156.4595 LP  0  0  0  0  0  0  0  0  0  0  0  0  # atno 17395 bound_to 11000

$$$$
