AV-unprocessed.smi:2548|AV-procd|sdf|10008|dock2
  -GOLD-   2272014 53D 1   1.00000     0.00000
 Structure written by MMmdl.
 44 45  0  0  0  0  0  0  0  0  1 V2000
  143.5454  134.2103  151.6852 C   0  0  0  0  0  0  0  0  0  0  0  0
  144.1102  135.5946  151.8087 C   0  0  0  0  0  0  0  0  0  0  0  0
  145.4134  136.0493  151.4514 C   0  0  0  0  0  0  0  0  0  0  0  0
  145.4040  137.3806  151.7619 C   0  0  0  0  0  0  0  0  0  0  0  0
  146.4585  138.4352  151.6298 C   0  0  0  0  0  0  0  0  0  0  0  0
  146.9050  138.9975  152.9845 C   0  0  0  0  0  0  0  0  0  0  0  0
  148.0177  138.7360  153.4445 O   0  0  0  0  0  0  0  0  0  0  0  0
  146.0188  139.7891  153.6090 N   0  0  0  0  0  0  0  0  0  0  0  0
  146.2142  140.4366  154.9065 C   0  0  0  0  0  0  0  0  0  0  0  0
  146.9991  141.7824  154.8314 C   0  0  0  0  0  0  0  0  0  0  0  0
  146.1000  142.8360  154.1419 C   0  0  0  0  0  0  0  0  0  0  0  0
  147.3035  142.3242  156.2584 C   0  0  0  0  0  0  0  0  0  0  0  0
  148.1201  141.4130  157.1987 C   0  0  0  0  0  0  0  0  0  0  0  0
  149.6498  141.5161  157.0763 C   0  0  0  0  0  0  0  0  0  0  0  0
  150.2316  141.5676  155.6539 C   0  0  0  0  0  0  0  0  0  0  0  0
  149.4348  140.8129  154.5782 C   0  0  0  0  0  0  0  0  0  0  0  0
  148.2926  141.6583  153.9829 C   0  0  0  0  0  0  0  0  0  0  0  0
  144.1528  137.6455  152.2720 N   0  0  0  0  0  0  0  0  0  0  0  0
  143.3544  136.5627  152.3047 N   0  0  0  0  0  0  0  0  0  0  0  0
  143.8333  138.5488  152.5918 H   0  0  0  0  0  0  0  0  0  0  0  0
  144.2877  133.5159  151.2911 H   0  0  0  0  0  0  0  0  0  0  0  0
  142.6872  134.1949  151.0129 H   0  0  0  0  0  0  0  0  0  0  0  0
  143.2186  133.8315  152.6540 H   0  0  0  0  0  0  0  0  0  0  0  0
  146.2299  135.4838  151.0273 H   0  0  0  0  0  0  0  0  0  0  0  0
  146.0809  139.2495  151.0099 H   0  0  0  0  0  0  0  0  0  0  0  0
  147.3310  138.0304  151.1158 H   0  0  0  0  0  0  0  0  0  0  0  0
  145.1332  139.9539  153.1529 H   0  0  0  0  0  0  0  0  0  0  0  0
  145.2224  140.6201  155.3211 H   0  0  0  0  0  0  0  0  0  0  0  0
  146.6859  139.7311  155.5885 H   0  0  0  0  0  0  0  0  0  0  0  0
  146.5689  143.8208  154.1423 H   0  0  0  0  0  0  0  0  0  0  0  0
  145.1398  142.9347  154.6492 H   0  0  0  0  0  0  0  0  0  0  0  0
  145.8952  142.5832  153.1010 H   0  0  0  0  0  0  0  0  0  0  0  0
  147.7907  143.2983  156.1957 H   0  0  0  0  0  0  0  0  0  0  0  0
  146.3490  142.5165  156.7503 H   0  0  0  0  0  0  0  0  0  0  0  0
  147.8655  141.6747  158.2262 H   0  0  0  0  0  0  0  0  0  0  0  0
  147.8171  140.3729  157.1056 H   0  0  0  0  0  0  0  0  0  0  0  0
  149.9946  142.3983  157.6170 H   0  0  0  0  0  0  0  0  0  0  0  0
  150.0841  140.6664  157.6044 H   0  0  0  0  0  0  0  0  0  0  0  0
  150.3509  142.6082  155.3502 H   0  0  0  0  0  0  0  0  0  0  0  0
  151.2451  141.1662  155.6913 H   0  0  0  0  0  0  0  0  0  0  0  0
  150.1228  140.5816  153.7643 H   0  0  0  0  0  0  0  0  0  0  0  0
  149.0846  139.8480  154.9444 H   0  0  0  0  0  0  0  0  0  0  0  0
  148.0425  141.2520  153.0034 H   0  0  0  0  0  0  0  0  0  0  0  0
  148.6801  142.6550  153.7674 H   0  0  0  0  0  0  0  0  0  0  0  0
  1 21  1  0  0  0  0
  1 22  1  0  0  0  0
  1 23  1  0  0  0  0
  1  2  1  0  0  0  0
  2 19  2  0  0  0  0
  2  3  1  0  0  0  0
  3  4  2  0  0  0  0
  3 24  1  0  0  0  0
  4 18  1  0  0  0  0
  4  5  1  0  0  0  0
  5  6  1  0  0  0  0
  5 25  1  0  0  0  0
  5 26  1  0  0  0  0
  6  7  2  0  0  0  0
  6  8  1  0  0  0  0
  8  9  1  0  0  0  0
  8 27  1  0  0  0  0
  9 10  1  0  0  0  0
  9 28  1  0  0  0  0
  9 29  1  0  0  0  0
 10 17  1  0  0  0  0
 10 11  1  0  0  0  0
 10 12  1  0  0  0  0
 11 30  1  0  0  0  0
 11 31  1  0  0  0  0
 11 32  1  0  0  0  0
 12 13  1  0  0  0  0
 12 33  1  0  0  0  0
 12 34  1  0  0  0  0
 13 14  1  0  0  0  0
 13 35  1  0  0  0  0
 13 36  1  0  0  0  0
 14 15  1  0  0  0  0
 14 37  1  0  0  0  0
 14 38  1  0  0  0  0
 15 16  1  0  0  0  0
 15 39  1  0  0  0  0
 15 40  1  0  0  0  0
 16 17  1  0  0  0  0
 16 41  1  0  0  0  0
 16 42  1  0  0  0  0
 17 43  1  0  0  0  0
 17 44  1  0  0  0  0
 18 19  1  0  0  0  0
 18 20  1  0  0  0  0
M  END
> <s_m_source_file>
AV-unprocessed.smi

> <i_m_source_file_index>
2548

> <i_lp_mmshare_version>
43012

> <i_f3d_flags>
0

> <s_epik_input>
W0NIM11jMVtjSF1jKG5bbkhdMSlbQ0gyXUMoPU8pW05IXVtDSDJdQzIoW0NIM10pW0NIMl1bQ0gyXVtDSDJdW0NIMl1bQ0gyXVtDSDJdMg==

> <s_epik_cmdline>
J2VwaWtfcHl0aG9uJywgJy1waCcsICc3LjAnLCAnLXRuJywgJzgnLCAnLW1hJywgJzIwMCcsICctbWV0YWxfYmluZGluZycsICctaW1hZScsICc8aW5maWxlLm1hZT4nLCAnLW9tYWUnLCAnPG91dGZpbGUubWFlPic=

> <r_lp_tautomer_probability>
0.5

> <r_epik_Ionization_Penalty>
0.000120089

> <r_epik_Ionization_Penalty_Charging>
0

> <r_epik_Ionization_Penalty_Neutral>
0.000120089

> <r_epik_State_Penalty>
0.41068

> <r_epik_Charging_Adjusted_Penalty>
0.41068

> <i_epik_Tot_Q>
0

> <i_epik_Tot_abs_Q>
0

> <r_epik_Metal_State_Penalty>
0.410662

> <b_epik_Metal_Only>
0

> <s_lp_Force_Field>
OPLS_2005

> <r_lp_Energy>
21.4694

> <b_lp_Chiralities_Consistent>
1

> <s_lp_Variant>
AV-unprocessed.smi:2548-2

> <Gold.Version>
5.8.1

> <Gold.Id.Protein>
6NUR|6NUR_protein|mol2

> <Gold.PLP.Fitness>
40.8038

> <Gold.PLP.PLP>
-35.5362

> <Gold.PLP.part.hbond>
-3.0000

> <Gold.PLP.part.metal>
0.0000

> <Gold.PLP.part.buried>
-1.0773

> <Gold.PLP.part.nonpolar>
-32.5265

> <Gold.PLP.part.repulsive>
0.7660

> <Gold.PLP.ligand.clash>
0.0000

> <Gold.PLP.ligand.torsion>
0.3716

> <Gold.PLP.Chemscore.Hbond>
2.0000

> <Gold.PLP.Chemscore.CHOScore>
0.0000

> <Gold.PLP.Chemscore.Metal>
0.0000

> <Gold.Chemscore.Hbonds>
donor molecule, donor type, donor heavy atom, donor atom, acceptor molecule, acceptor atom, score
      L1  H     8    27       P1 10175  1.00
      L1  H    18    20       P1 10175  1.00

> <Gold.PLP.Chemscore.Internal.Correction>
0.0107

> <Gold.Rescore>
     Score         DG    S(hbond)    S(metal)    S(lipo)     H(rot)  DE(clash)    DE(int)     intcor
     14.31     -17.46       1.97        0.00      80.17       1.55       1.26       1.89       ----

> <Gold.Chemscore.Fitness>
14.3063

> <Gold.Chemscore.DG>
-17.4575

> <Gold.Chemscore.ZeroCoef>
-5.4800

> <Gold.Chemscore.Hbond>
1.9651

> <Gold.Chemscore.Metal>
0.0000

> <Gold.Chemscore.Lipo>
80.1659

> <Gold.Chemscore.Internal_Hbond>
0.0000

> <Gold.Chemscore.DEClash>
1.2598

> <Gold.Chemscore.DEInternal>
1.8915

> <Gold.Chemscore.Rot>
1.5489

> <Gold.Chemscore.Internal.Correction>
   9.000000E+99

> <Gold.Chemscore.Hbonds>
donor molecule, donor type, donor heavy atom, donor atom, acceptor molecule, acceptor atom, score
      L1  H     8    27       P1 10175  1.00
      L1  H    18    20       P1 10175  0.97

> <Gold.Chemscore.Hbond.Weighted>
-6.5633

> <Gold.Chemscore.Metal.Weighted>
-0.0000

> <Gold.Chemscore.Lipo.Weighted>
-9.3794

> <Gold.Chemscore.Internal_Hbond.Weighted>
0.0000

> <Gold.Chemscore.DEClash.Weighted>
1.2598

> <Gold.Chemscore.DEInternal.Weighted>
1.8915

> <Gold.Chemscore.Rot.Weighted>
3.9652

> <Gold.Chemscore.Internal.Correction.Weighted>
   9.000000E+99

> <Gold.Protein.RotatedTorsions>
[ 6907 6896 6895 6894 ] final  177.53 input  -60.11 | X-H torsion
[ 7974 7965 7964 7962 ] final  176.90 input  175.53 | X-H torsion
[ 8008 7997 7996 7995 ] final  160.17 input   59.86 | X-H torsion
[ 10167 10162 10161 10158 ] final  -43.60 input  -65.29 | X-H torsion
[ 10718 10713 10712 10709 ] final  132.40 input   66.30 | X-H torsion
[ 10763 10752 10751 10750 ] final   81.63 input  -60.55 | X-H torsion
[ 11005 11000 10999 10996 ] final -114.16 input  -57.11 | X-H torsion

> <Gold.Protein.ActiveResidues>
 VAL166  LYS551  ARG553  GLY616  TRP617  ASP618  TYR619  PRO620  LYS621  CYS622 
 ASP623  PHE694  ASN695  SER759  ASP760  ASP761  ALA762  ILE779  LEU786  VAL792 
 PHE793  MET794  SER795  GLU796  ALA797  LYS798  CYS799  TRP800  GLU811  SER814 

> <Gold.Protein.RotatedAtoms>
  151.7025  133.3311  159.3269 H   0  0  0  0  0  0  0  0  0  0  0  0  # atno 6907 bound_to 6896
  150.7730  134.6603  159.6345 H   0  0  0  0  0  0  0  0  0  0  0  0  # atno 6908 bound_to 6896
  152.3761  134.6664  160.0211 H   0  0  0  0  0  0  0  0  0  0  0  0  # atno 6909 bound_to 6896
  144.7177  140.0165  143.6440 H   0  0  0  0  0  0  0  0  0  0  0  0  # atno 7974 bound_to 7965
  156.2190  140.1811  156.7522 H   0  0  0  0  0  0  0  0  0  0  0  0  # atno 8008 bound_to 7997
  154.5835  140.0662  156.9167 H   0  0  0  0  0  0  0  0  0  0  0  0  # atno 8009 bound_to 7997
  155.2460  140.3325  155.4289 H   0  0  0  0  0  0  0  0  0  0  0  0  # atno 8010 bound_to 7997
  140.6928  143.2974  151.3376 H   0  0  0  0  0  0  0  0  0  0  0  0  # atno 10167 bound_to 10162
  157.4874  131.1089  150.9602 H   0  0  0  0  0  0  0  0  0  0  0  0  # atno 10718 bound_to 10713
  153.1133  135.4758  154.9073 H   0  0  0  0  0  0  0  0  0  0  0  0  # atno 10763 bound_to 10752
  154.7503  135.3104  154.8572 H   0  0  0  0  0  0  0  0  0  0  0  0  # atno 10764 bound_to 10752
  153.9155  135.6860  153.4803 H   0  0  0  0  0  0  0  0  0  0  0  0  # atno 10765 bound_to 10752
  141.0569  133.9598  157.2737 H   0  0  0  0  0  0  0  0  0  0  0  0  # atno 11005 bound_to 11000
  146.0215  139.3255  143.0810 LP  0  0  0  0  0  0  0  0  0  0  0  0  # atno 17320 bound_to 7965
  145.8562  140.9501  143.0724 LP  0  0  0  0  0  0  0  0  0  0  0  0  # atno 17321 bound_to 7965
  139.6348  144.0651  152.2507 LP  0  0  0  0  0  0  0  0  0  0  0  0  # atno 17342 bound_to 10162
  140.0137  144.6205  150.7625 LP  0  0  0  0  0  0  0  0  0  0  0  0  # atno 17343 bound_to 10162
  157.0314  130.5713  149.5344 LP  0  0  0  0  0  0  0  0  0  0  0  0  # atno 17370 bound_to 10713
  156.0154  130.5248  150.8119 LP  0  0  0  0  0  0  0  0  0  0  0  0  # atno 17371 bound_to 10713
  139.9398  135.0192  156.8672 LP  0  0  0  0  0  0  0  0  0  0  0  0  # atno 17394 bound_to 11000
  140.5946  134.0230  155.7513 LP  0  0  0  0  0  0  0  0  0  0  0  0  # atno 17395 bound_to 11000

$$$$
