AV-unprocessed.smi:447|AV-procd|sdf|2597|dock1
  -GOLD-   2262022593D 1   1.00000     0.00000
 Structure written by MMmdl.
 45 47  0  0  0  0  0  0  0  0  1 V2000
  153.9223  137.1945  162.1971 C   0  0  0  0  0  0  0  0  0  0  0  0
  153.2916  137.3927  160.8231 C   0  0  0  0  0  0  0  0  0  0  0  0
  153.0658  136.4214  160.1028 O   0  0  0  0  0  0  0  0  0  0  0  0
  153.0125  138.6588  160.4772 N   0  0  0  0  0  0  0  0  0  0  0  0
  152.3920  139.0838  159.2218 C   0  0  2  0  0  0  0  0  0  0  0  0
  153.2252  138.5729  158.0387 C   0  0  0  0  0  0  0  0  0  0  0  0
  152.2635  140.5888  159.2081 C   0  0  0  0  0  0  0  0  0  0  0  0
  152.6461  141.3521  160.2370 N   0  0  0  0  0  0  0  0  0  0  0  0
  152.3697  142.6298  159.7953 C   0  0  0  0  0  0  0  0  0  0  0  0
  152.5372  143.8791  160.4345 C   0  0  0  0  0  0  0  0  0  0  0  0
  152.1822  145.0726  159.7722 C   0  0  0  0  0  0  0  0  0  0  0  0
  151.6581  145.0338  158.4638 C   0  0  0  0  0  0  0  0  0  0  0  0
  151.4854  143.7991  157.8089 C   0  0  0  0  0  0  0  0  0  0  0  0
  151.8386  142.6108  158.4761 C   0  0  0  0  0  0  0  0  0  0  0  0
  151.7984  141.2655  158.1244 N   0  0  0  0  0  0  0  0  0  0  0  0
  151.3509  140.7419  156.8394 C   0  0  0  0  0  0  0  0  0  0  0  0
  150.0133  139.9819  156.9359 C   0  0  2  0  0  0  0  0  0  0  0  0
  150.2500  138.6044  157.1472 O   0  0  0  0  0  0  0  0  0  0  0  0
  149.1485  140.2339  155.7110 C   0  0  0  0  0  0  0  0  0  0  0  0
  148.6500  139.1457  154.9626 C   0  0  0  0  0  0  0  0  0  0  0  0
  147.8419  139.3731  153.8314 C   0  0  0  0  0  0  0  0  0  0  0  0
  147.5260  140.6894  153.4435 C   0  0  0  0  0  0  0  0  0  0  0  0
  148.0167  141.7788  154.1885 C   0  0  0  0  0  0  0  0  0  0  0  0
  148.8244  141.5520  155.3199 C   0  0  0  0  0  0  0  0  0  0  0  0
  153.3485  137.7191  162.9618 H   0  0  0  0  0  0  0  0  0  0  0  0
  154.9430  137.5782  162.2046 H   0  0  0  0  0  0  0  0  0  0  0  0
  153.9525  136.1366  162.4606 H   0  0  0  0  0  0  0  0  0  0  0  0
  153.2275  139.3867  161.1429 H   0  0  0  0  0  0  0  0  0  0  0  0
  151.4020  138.6304  159.1675 H   0  0  0  0  0  0  0  0  0  0  0  0
  152.7718  138.8573  157.0888 H   0  0  0  0  0  0  0  0  0  0  0  0
  153.3029  137.4856  158.0538 H   0  0  0  0  0  0  0  0  0  0  0  0
  154.2364  138.9813  158.0586 H   0  0  0  0  0  0  0  0  0  0  0  0
  152.9391  143.9188  161.4360 H   0  0  0  0  0  0  0  0  0  0  0  0
  152.3139  146.0220  160.2701 H   0  0  0  0  0  0  0  0  0  0  0  0
  151.3894  145.9525  157.9631 H   0  0  0  0  0  0  0  0  0  0  0  0
  151.0849  143.7656  156.8066 H   0  0  0  0  0  0  0  0  0  0  0  0
  151.2428  141.5851  156.1559 H   0  0  0  0  0  0  0  0  0  0  0  0
  152.1268  140.1121  156.4058 H   0  0  0  0  0  0  0  0  0  0  0  0
  149.4718  140.3377  157.8135 H   0  0  0  0  0  0  0  0  0  0  0  0
  150.3567  138.1851  156.3071 H   0  0  0  0  0  0  0  0  0  0  0  0
  148.8847  138.1323  155.2537 H   0  0  0  0  0  0  0  0  0  0  0  0
  147.4633  138.5372  153.2615 H   0  0  0  0  0  0  0  0  0  0  0  0
  146.9061  140.8637  152.5763 H   0  0  0  0  0  0  0  0  0  0  0  0
  147.7728  142.7887  153.8932 H   0  0  0  0  0  0  0  0  0  0  0  0
  149.1930  142.3939  155.8880 H   0  0  0  0  0  0  0  0  0  0  0  0
  1  2  1  0  0  0  0
  1 25  1  0  0  0  0
  1 26  1  0  0  0  0
  1 27  1  0  0  0  0
  2  3  2  0  0  0  0
  2  4  1  0  0  0  0
  4  5  1  0  0  0  0
  4 28  1  0  0  0  0
  5  6  1  0  0  0  0
  5  7  1  0  0  0  0
  5 29  1  0  0  0  0
  6 30  1  0  0  0  0
  6 31  1  0  0  0  0
  6 32  1  0  0  0  0
  7 15  1  0  0  0  0
  7  8  2  0  0  0  0
  8  9  1  0  0  0  0
  9 14  2  0  0  0  0
  9 10  1  0  0  0  0
 10 11  2  0  0  0  0
 10 33  1  0  0  0  0
 11 12  1  0  0  0  0
 11 34  1  0  0  0  0
 12 13  2  0  0  0  0
 12 35  1  0  0  0  0
 13 14  1  0  0  0  0
 13 36  1  0  0  0  0
 14 15  1  0  0  0  0
 15 16  1  0  0  0  0
 16 17  1  0  0  0  0
 16 37  1  0  0  0  0
 16 38  1  0  0  0  0
 17 18  1  0  0  0  0
 17 19  1  0  0  0  0
 17 39  1  0  0  0  0
 18 40  1  0  0  0  0
 19 24  1  0  0  0  0
 19 20  2  0  0  0  0
 20 21  1  0  0  0  0
 20 41  1  0  0  0  0
 21 22  2  0  0  0  0
 21 42  1  0  0  0  0
 22 23  1  0  0  0  0
 22 43  1  0  0  0  0
 23 24  2  0  0  0  0
 23 44  1  0  0  0  0
 24 45  1  0  0  0  0
M  END
> <s_m_source_file>
AV-unprocessed.smi

> <i_m_source_file_index>
447

> <i_lp_mmshare_version>
43012

> <i_f3d_flags>
0

> <s_epik_input>
W0NIM11DKD1PKVtOSF1bQ0BIXShbQ0gzXSljKG4xKW4oYyhjMTIpW2NIXVtjSF1bY0hdW2NIXTIpW0NIMl1bQ0BIXShbT0hdKWMzW2NIXVtjSF1bY0hdW2NIXVtjSF0z

> <s_epik_cmdline>
J2VwaWtfcHl0aG9uJywgJy1waCcsICc3LjAnLCAnLXRuJywgJzgnLCAnLW1hJywgJzIwMCcsICctbWV0YWxfYmluZGluZycsICctaW1hZScsICc8aW5maWxlLm1hZT4nLCAnLW9tYWUnLCAnPG91dGZpbGUubWFlPic=

> <r_epik_Ionization_Penalty>
0.13301

> <r_epik_Ionization_Penalty_Charging>
0

> <r_epik_Ionization_Penalty_Neutral>
0.13301

> <r_epik_State_Penalty>
0.122384

> <r_epik_Charging_Adjusted_Penalty>
0.122384

> <i_epik_Tot_Q>
0

> <i_epik_Tot_abs_Q>
0

> <r_epik_Metal_State_Penalty>
0.0997374

> <b_epik_Metal_Only>
0

> <s_lp_Force_Field>
OPLS_2005

> <r_lp_Energy>
7.61604

> <b_lp_Chiralities_Consistent>
1

> <s_lp_Variant>
AV-unprocessed.smi:447-1

> <Gold.Version>
5.8.1

> <Gold.Id.Protein>
6NUR|6NUR_protein|mol2

> <Gold.PLP.Fitness>
47.5261

> <Gold.PLP.PLP>
-45.5355

> <Gold.PLP.part.hbond>
-1.0000

> <Gold.PLP.part.metal>
0.0000

> <Gold.PLP.part.buried>
-3.5425

> <Gold.PLP.part.nonpolar>
-40.7880

> <Gold.PLP.part.repulsive>
0.0635

> <Gold.PLP.ligand.clash>
0.0000

> <Gold.PLP.ligand.torsion>
0.6301

> <Gold.PLP.Chemscore.Hbond>
1.0000

> <Gold.PLP.Chemscore.CHOScore>
0.0000

> <Gold.PLP.Chemscore.Metal>
0.0000

> <Gold.Chemscore.Hbonds>
donor molecule, donor type, donor heavy atom, donor atom, acceptor molecule, acceptor atom, score
      P1  H  6896  6908       L1     3  1.00

> <Gold.PLP.Chemscore.Internal.Correction>
0.2508

> <Gold.Rescore>
     Score         DG    S(hbond)    S(metal)    S(lipo)     H(rot)  DE(clash)    DE(int)     intcor
     17.54     -18.45       0.99        0.00     134.09       2.35       0.21       0.70       ----

> <Gold.Chemscore.Fitness>
17.5398

> <Gold.Chemscore.DG>
-18.4497

> <Gold.Chemscore.ZeroCoef>
-5.4800

> <Gold.Chemscore.Hbond>
0.9893

> <Gold.Chemscore.Metal>
0.0000

> <Gold.Chemscore.Lipo>
134.0914

> <Gold.Chemscore.Internal_Hbond>
0.0000

> <Gold.Chemscore.DEClash>
0.2142

> <Gold.Chemscore.DEInternal>
0.6957

> <Gold.Chemscore.Rot>
2.3528

> <Gold.Chemscore.Internal.Correction>
   9.000000E+99

> <Gold.Chemscore.Hbonds>
donor molecule, donor type, donor heavy atom, donor atom, acceptor molecule, acceptor atom, score
      P1  H  6896  6908       L1     3  1.00

> <Gold.Chemscore.Hbond.Weighted>
-3.3041

> <Gold.Chemscore.Metal.Weighted>
-0.0000

> <Gold.Chemscore.Lipo.Weighted>
-15.6887

> <Gold.Chemscore.Internal_Hbond.Weighted>
0.0000

> <Gold.Chemscore.DEClash.Weighted>
0.2142

> <Gold.Chemscore.DEInternal.Weighted>
0.6957

> <Gold.Chemscore.Rot.Weighted>
6.0231

> <Gold.Chemscore.Internal.Correction.Weighted>
   9.000000E+99

> <Gold.Protein.RotatedTorsions>
[ 6907 6896 6895 6894 ] final  -83.23 input  -60.11 | X-H torsion
[ 7974 7965 7964 7962 ] final  -62.76 input  175.53 | X-H torsion
[ 8008 7997 7996 7995 ] final -161.81 input   59.86 | X-H torsion
[ 10167 10162 10161 10158 ] final   84.77 input  -65.29 | X-H torsion
[ 10718 10713 10712 10709 ] final  -62.27 input   66.30 | X-H torsion
[ 10763 10752 10751 10750 ] final  -81.30 input  -60.55 | X-H torsion
[ 11005 11000 10999 10996 ] final   -7.31 input  -57.11 | X-H torsion

> <Gold.Protein.ActiveResidues>
 VAL166  LYS551  ARG553  GLY616  TRP617  ASP618  TYR619  PRO620  LYS621  CYS622 
 ASP623  PHE694  ASN695  SER759  ASP760  ASP761  ALA762  ILE779  LEU786  VAL792 
 PHE793  MET794  SER795  GLU796  ALA797  LYS798  CYS799  TRP800  GLU811  SER814 

> <Gold.Protein.RotatedAtoms>
  150.6888  134.3544  159.4922 H   0  0  0  0  0  0  0  0  0  0  0  0  # atno 6907 bound_to 6896
  152.1381  134.9081  160.0564 H   0  0  0  0  0  0  0  0  0  0  0  0  # atno 6908 bound_to 6896
  152.0225  133.3869  159.4301 H   0  0  0  0  0  0  0  0  0  0  0  0  # atno 6909 bound_to 6896
  145.7873  140.8729  143.0299 H   0  0  0  0  0  0  0  0  0  0  0  0  # atno 7974 bound_to 7965
  155.7976  140.0887  157.1975 H   0  0  0  0  0  0  0  0  0  0  0  0  # atno 8008 bound_to 7997
  154.3983  140.1478  156.3295 H   0  0  0  0  0  0  0  0  0  0  0  0  # atno 8009 bound_to 7997
  155.8495  140.3435  155.5686 H   0  0  0  0  0  0  0  0  0  0  0  0  # atno 8010 bound_to 7997
  139.9046  144.6309  150.8601 H   0  0  0  0  0  0  0  0  0  0  0  0  # atno 10167 bound_to 10162
  156.0866  130.4207  150.1111 H   0  0  0  0  0  0  0  0  0  0  0  0  # atno 10718 bound_to 10713
  154.5618  135.5631  153.7014 H   0  0  0  0  0  0  0  0  0  0  0  0  # atno 10763 bound_to 10752
  153.0020  135.6276  154.2234 H   0  0  0  0  0  0  0  0  0  0  0  0  # atno 10764 bound_to 10752
  154.2172  135.2871  155.2917 H   0  0  0  0  0  0  0  0  0  0  0  0  # atno 10765 bound_to 10752
  140.7113  133.8906  155.8753 H   0  0  0  0  0  0  0  0  0  0  0  0  # atno 11005 bound_to 11000
  144.6787  140.0074  143.7484 LP  0  0  0  0  0  0  0  0  0  0  0  0  # atno 17320 bound_to 7965
  146.0013  139.3093  143.0926 LP  0  0  0  0  0  0  0  0  0  0  0  0  # atno 17321 bound_to 7965
  140.7699  143.3411  151.2206 LP  0  0  0  0  0  0  0  0  0  0  0  0  # atno 17342 bound_to 10162
  139.6995  143.9556  152.2899 LP  0  0  0  0  0  0  0  0  0  0  0  0  # atno 17343 bound_to 10162
  156.9131  130.9658  151.3560 LP  0  0  0  0  0  0  0  0  0  0  0  0  # atno 17370 bound_to 10713
  157.6003  130.8507  149.8791 LP  0  0  0  0  0  0  0  0  0  0  0  0  # atno 17371 bound_to 10713
  141.0081  134.1057  157.4249 LP  0  0  0  0  0  0  0  0  0  0  0  0  # atno 17394 bound_to 11000
  139.8871  135.0087  156.6538 LP  0  0  0  0  0  0  0  0  0  0  0  0  # atno 17395 bound_to 11000

$$$$
