AV-unprocessed.smi:3195|AV-procd|sdf|12220|dock8
  -GOLD-   2272018 53D 1   1.00000     0.00000
 Structure written by MMmdl.
 29 30  0  0  0  0  0  0  0  0  2 V2000
  152.6610  144.2821  158.2128 C   0  0  0  0  0  0  0  0  0  0  0  0
  152.3550  142.9340  158.8878 C   0  0  2  0  0  0  0  0  0  0  0  0
  151.2504  142.1828  158.1128 C   0  0  0  0  0  0  0  0  0  0  0  0
  150.2017  141.8981  158.6937 O   0  0  0  0  0  0  0  0  0  0  0  0
  151.5056  141.8881  156.8233 N   0  0  0  0  0  0  0  0  0  0  0  0
  150.6878  141.2001  155.8847 C   0  0  0  0  0  0  0  0  0  0  0  0
  149.3953  141.5386  155.6468 N   0  0  0  0  0  0  0  0  0  0  0  0
  148.6839  140.8380  154.7401 C   0  0  0  0  0  0  0  0  0  0  0  0
  149.2130  139.7574  154.0132 C   0  0  0  0  0  0  0  0  0  0  0  0
  150.5502  139.3939  154.2486 C   0  0  0  0  0  0  0  0  0  0  0  0
  151.3006  140.1202  155.1954 C   0  0  0  0  0  0  0  0  0  0  0  0
  152.6019  139.7635  155.4251 O   0  5  0  0  0  0  0  0  0  0  0  0
  151.9928  143.1011  160.3830 C   0  0  0  0  0  0  0  0  0  0  0  0
  153.1216  142.4117  161.1295 C   0  0  0  0  0  0  0  0  0  0  0  0
  153.6508  141.4266  160.1001 C   0  0  0  0  0  0  0  0  0  0  0  0
  153.5648  142.1683  158.8928 O   0  0  0  0  0  0  0  0  0  0  0  0
  151.7911  144.9398  158.2171 H   0  0  0  0  0  0  0  0  0  0  0  0
  152.9698  144.1447  157.1757 H   0  0  0  0  0  0  0  0  0  0  0  0
  153.4694  144.8017  158.7282 H   0  0  0  0  0  0  0  0  0  0  0  0
  152.4022  142.1860  156.4656 H   0  0  0  0  0  0  0  0  0  0  0  0
  147.6611  141.1498  154.5901 H   0  0  0  0  0  0  0  0  0  0  0  0
  148.6098  139.2222  153.2952 H   0  0  0  0  0  0  0  0  0  0  0  0
  150.9924  138.5688  153.7095 H   0  0  0  0  0  0  0  0  0  0  0  0
  151.9000  144.1458  160.6821 H   0  0  0  0  0  0  0  0  0  0  0  0
  151.0472  142.6152  160.6301 H   0  0  0  0  0  0  0  0  0  0  0  0
  153.8978  143.1361  161.3793 H   0  0  0  0  0  0  0  0  0  0  0  0
  152.7948  141.9306  162.0517 H   0  0  0  0  0  0  0  0  0  0  0  0
  154.6723  141.1072  160.3059 H   0  0  0  0  0  0  0  0  0  0  0  0
  153.0159  140.5409  160.0406 H   0  0  0  0  0  0  0  0  0  0  0  0
  1  2  1  0  0  0  0
  1 17  1  0  0  0  0
  1 18  1  0  0  0  0
  1 19  1  0  0  0  0
  2 16  1  0  0  0  0
  2  3  1  0  0  0  0
  2 13  1  0  0  0  0
  3  4  2  0  0  0  0
  3  5  1  0  0  0  0
  5 20  1  0  0  0  0
  5  6  1  0  0  0  0
  6 11  2  0  0  0  0
  6  7  1  0  0  0  0
  7  8  2  0  0  0  0
  8 21  1  0  0  0  0
  8  9  1  0  0  0  0
  9 22  1  0  0  0  0
  9 10  2  0  0  0  0
 10 11  1  0  0  0  0
 10 23  1  0  0  0  0
 11 12  1  0  0  0  0
 13 14  1  0  0  0  0
 13 24  1  0  0  0  0
 13 25  1  0  0  0  0
 14 15  1  0  0  0  0
 14 26  1  0  0  0  0
 14 27  1  0  0  0  0
 15 16  1  0  0  0  0
 15 28  1  0  0  0  0
 15 29  1  0  0  0  0
M  CHG  1  12  -1
M  END
> <s_m_source_file>
AV-unprocessed.smi

> <i_m_source_file_index>
3195

> <i_lp_mmshare_version>
43012

> <i_f3d_flags>
0

> <s_epik_input>
TzFbQ0gyXVtDSDJdW0NIMl1bQ0BAXTEoW0NIM10pQyg9TylbTkhdYzJuW2NIXVtjSF1bY0hdYzJbT0hd

> <s_epik_cmdline>
J2VwaWtfcHl0aG9uJywgJy1waCcsICc3LjAnLCAnLXRuJywgJzgnLCAnLW1hJywgJzIwMCcsICctbWV0YWxfYmluZGluZycsICctaW1hZScsICc8aW5maWxlLm1hZT4nLCAnLW9tYWUnLCAnPG91dGZpbGUubWFlPic=

> <r_epik_Ionization_Penalty>
4.16712

> <r_epik_Ionization_Penalty_Charging>
2.09898

> <r_epik_Ionization_Penalty_Neutral>
2.06814

> <r_epik_State_Penalty>
2.6848

> <r_epik_Charging_Adjusted_Penalty>
4.78378

> <i_epik_Tot_Q>
-1

> <i_epik_Tot_abs_Q>
1

> <r_epik_Metal_State_Penalty>
0.595229

> <b_epik_Metal_Only>
0

> <s_lp_Force_Field>
OPLS_2005

> <r_lp_Energy>
19.5699

> <b_lp_Chiralities_Consistent>
1

> <s_lp_Variant>
AV-unprocessed.smi:3195-8

> <Gold.Version>
5.8.1

> <Gold.Id.Protein>
6NUR|6NUR_protein|mol2

> <Gold.PLP.Fitness>
42.6497

> <Gold.PLP.PLP>
-37.5859

> <Gold.PLP.part.hbond>
-1.7561

> <Gold.PLP.part.metal>
0.0000

> <Gold.PLP.part.buried>
-3.5146

> <Gold.PLP.part.nonpolar>
-33.1196

> <Gold.PLP.part.repulsive>
0.2454

> <Gold.PLP.ligand.clash>
0.0000

> <Gold.PLP.ligand.torsion>
0.4847

> <Gold.PLP.Chemscore.Hbond>
2.0000

> <Gold.PLP.Chemscore.CHOScore>
0.0000

> <Gold.PLP.Chemscore.Metal>
0.0000

> <Gold.Chemscore.Hbonds>
donor molecule, donor type, donor heavy atom, donor atom, acceptor molecule, acceptor atom, score
      P1  H  7997  8009       L1    12  2.00

> <Gold.PLP.Chemscore.Internal.Correction>
0.0332

> <Gold.Rescore>
     Score         DG    S(hbond)    S(metal)    S(lipo)     H(rot)  DE(clash)    DE(int)     intcor
     16.02     -16.59       0.99        0.00      88.42       1.00       0.10       0.46       ----

> <Gold.Chemscore.Fitness>
16.0235

> <Gold.Chemscore.DG>
-16.5877

> <Gold.Chemscore.ZeroCoef>
-5.4800

> <Gold.Chemscore.Hbond>
0.9948

> <Gold.Chemscore.Metal>
0.0000

> <Gold.Chemscore.Lipo>
88.4201

> <Gold.Chemscore.Internal_Hbond>
0.0000

> <Gold.Chemscore.DEClash>
0.0998

> <Gold.Chemscore.DEInternal>
0.4644

> <Gold.Chemscore.Rot>
1.0000

> <Gold.Chemscore.Internal.Correction>
   9.000000E+99

> <Gold.Chemscore.Hbonds>
donor molecule, donor type, donor heavy atom, donor atom, acceptor molecule, acceptor atom, score
      P1  H  7997  8009       L1    12  1.00

> <Gold.Chemscore.Hbond.Weighted>
-3.3226

> <Gold.Chemscore.Metal.Weighted>
-0.0000

> <Gold.Chemscore.Lipo.Weighted>
-10.3451

> <Gold.Chemscore.Internal_Hbond.Weighted>
0.0000

> <Gold.Chemscore.DEClash.Weighted>
0.0998

> <Gold.Chemscore.DEInternal.Weighted>
0.4644

> <Gold.Chemscore.Rot.Weighted>
2.5600

> <Gold.Chemscore.Internal.Correction.Weighted>
   9.000000E+99

> <Gold.Protein.RotatedTorsions>
[ 6907 6896 6895 6894 ] final  -35.07 input  -60.11 | X-H torsion
[ 7974 7965 7964 7962 ] final  177.64 input  175.53 | X-H torsion
[ 8008 7997 7996 7995 ] final -146.10 input   59.86 | X-H torsion
[ 10167 10162 10161 10158 ] final  103.82 input  -65.29 | X-H torsion
[ 10718 10713 10712 10709 ] final  173.28 input   66.30 | X-H torsion
[ 10763 10752 10751 10750 ] final  -83.95 input  -60.55 | X-H torsion
[ 11005 11000 10999 10996 ] final   87.48 input  -57.11 | X-H torsion

> <Gold.Protein.ActiveResidues>
 VAL166  LYS551  ARG553  GLY616  TRP617  ASP618  TYR619  PRO620  LYS621  CYS622 
 ASP623  PHE694  ASN695  SER759  ASP760  ASP761  ALA762  ILE779  LEU786  VAL792 
 PHE793  MET794  SER795  GLU796  ALA797  LYS798  CYS799  TRP800  GLU811  SER814 

> <Gold.Protein.RotatedAtoms>
  151.0445  134.9630  159.8178 H   0  0  0  0  0  0  0  0  0  0  0  0  # atno 6907 bound_to 6896
  152.5370  134.2616  159.8947 H   0  0  0  0  0  0  0  0  0  0  0  0  # atno 6908 bound_to 6896
  151.2629  133.4250  159.2651 H   0  0  0  0  0  0  0  0  0  0  0  0  # atno 6909 bound_to 6896
  144.7166  140.0278  143.6439 H   0  0  0  0  0  0  0  0  0  0  0  0  # atno 7974 bound_to 7965
  155.5540  140.0619  157.2844 H   0  0  0  0  0  0  0  0  0  0  0  0  # atno 8008 bound_to 7997
  154.4411  140.1897  156.0760 H   0  0  0  0  0  0  0  0  0  0  0  0  # atno 8009 bound_to 7997
  156.0495  140.3286  155.7339 H   0  0  0  0  0  0  0  0  0  0  0  0  # atno 8010 bound_to 7997
  139.7230  144.7054  151.0842 H   0  0  0  0  0  0  0  0  0  0  0  0  # atno 10167 bound_to 10162
  156.9666  131.0077  151.2915 H   0  0  0  0  0  0  0  0  0  0  0  0  # atno 10718 bound_to 10713
  154.5938  135.5538  153.7305 H   0  0  0  0  0  0  0  0  0  0  0  0  # atno 10763 bound_to 10752
  153.0127  135.6349  154.1811 H   0  0  0  0  0  0  0  0  0  0  0  0  # atno 10764 bound_to 10752
  154.1752  135.2890  155.3049 H   0  0  0  0  0  0  0  0  0  0  0  0  # atno 10765 bound_to 10752
  139.8918  134.8425  156.2866 H   0  0  0  0  0  0  0  0  0  0  0  0  # atno 11005 bound_to 11000
  146.0128  139.3184  143.0860 LP  0  0  0  0  0  0  0  0  0  0  0  0  # atno 17320 bound_to 7965
  145.8662  140.9447  143.0674 LP  0  0  0  0  0  0  0  0  0  0  0  0  # atno 17321 bound_to 7965
  140.7757  143.5141  150.9616 LP  0  0  0  0  0  0  0  0  0  0  0  0  # atno 17342 bound_to 10162
  139.8828  143.7050  152.3155 LP  0  0  0  0  0  0  0  0  0  0  0  0  # atno 17343 bound_to 10162
  157.5621  130.8253  149.8280 LP  0  0  0  0  0  0  0  0  0  0  0  0  # atno 17370 bound_to 10713
  156.0300  130.3767  150.1714 LP  0  0  0  0  0  0  0  0  0  0  0  0  # atno 17371 bound_to 10713
  141.0004  133.7155  156.0951 LP  0  0  0  0  0  0  0  0  0  0  0  0  # atno 17394 bound_to 11000
  140.7506  134.4049  157.5542 LP  0  0  0  0  0  0  0  0  0  0  0  0  # atno 17395 bound_to 11000

$$$$
