AV-unprocessed.smi:50|AV-procd|sdf|493|dock8
  -GOLD-   2262016363D 1   1.00000     0.00000
 Structure written by MMmdl.
 43 44  0  0  0  0  0  0  0  0  1 V2000
  144.8536  132.9099  150.8382 C   0  0  0  0  0  0  0  0  0  0  0  0
  145.8183  134.1074  150.8937 C   0  0  0  0  0  0  0  0  0  0  0  0
  146.8232  133.9322  152.0497 C   0  0  0  0  0  0  0  0  0  0  0  0
  145.0582  135.4632  150.8932 C   0  0  2  0  0  0  0  0  0  0  0  0
  145.9336  136.5515  150.4553 N   0  0  0  0  0  0  0  0  0  0  0  0
  144.3273  135.7788  152.2129 C   0  0  0  0  0  0  0  0  0  0  0  0
  144.8856  136.2660  153.1963 O   0  0  0  0  0  0  0  0  0  0  0  0
  143.0180  135.4714  152.1404 O   0  0  0  0  0  0  0  0  0  0  0  0
  142.1767  135.7092  153.2562 C   0  0  0  0  0  0  0  0  0  0  0  0
  140.7143  135.5874  152.8204 C   0  0  0  0  0  0  0  0  0  0  0  0
  139.8824  135.8391  153.9409 O   0  0  0  0  0  0  0  0  0  0  0  0
  139.7962  137.1867  154.2657 C   0  0  0  0  0  0  0  0  0  0  0  0
  138.6582  137.7355  153.5549 N   0  0  0  0  0  0  0  0  0  0  0  0
  138.6472  138.6328  152.5162 C   0  0  0  0  0  0  0  0  0  0  0  0
  137.4520  138.9366  152.0922 N   0  0  0  0  0  0  0  0  0  0  0  0
  136.6020  138.1933  152.9063 C   0  0  0  0  0  0  0  0  0  0  0  0
  135.1688  138.1127  152.9188 C   0  0  0  0  0  0  0  0  0  0  0  0
  134.3666  138.6974  152.1940 O   0  0  0  0  0  0  0  0  0  0  0  0
  134.6978  137.2393  153.9076 N   0  0  0  0  0  0  0  0  0  0  0  0
  135.5195  136.5292  154.7800 C   0  0  0  0  0  0  0  0  0  0  0  0
  134.9090  135.7355  155.6699 N   0  0  0  0  0  0  0  0  0  0  0  0
  136.8390  136.6037  154.7674 N   0  0  0  0  0  0  0  0  0  0  0  0
  137.3345  137.4496  153.8111 C   0  0  0  0  0  0  0  0  0  0  0  0
  144.2880  135.3801  150.1257 H   0  0  0  0  0  0  0  0  0  0  0  0
  133.6970  137.1294  153.9799 H   0  0  0  0  0  0  0  0  0  0  0  0
  144.2536  132.8329  151.7453 H   0  0  0  0  0  0  0  0  0  0  0  0
  145.3992  131.9727  150.7249 H   0  0  0  0  0  0  0  0  0  0  0  0
  144.1699  132.9941  149.9929 H   0  0  0  0  0  0  0  0  0  0  0  0
  146.3968  134.0720  149.9692 H   0  0  0  0  0  0  0  0  0  0  0  0
  146.3231  133.8377  153.0138 H   0  0  0  0  0  0  0  0  0  0  0  0
  147.5127  134.7744  152.1103 H   0  0  0  0  0  0  0  0  0  0  0  0
  147.4218  133.0322  151.9082 H   0  0  0  0  0  0  0  0  0  0  0  0
  145.4073  137.3841  150.2327 H   0  0  0  0  0  0  0  0  0  0  0  0
  146.5865  136.8137  151.1799 H   0  0  0  0  0  0  0  0  0  0  0  0
  142.3940  134.9894  154.0468 H   0  0  0  0  0  0  0  0  0  0  0  0
  142.3683  136.7065  153.6547 H   0  0  0  0  0  0  0  0  0  0  0  0
  140.5003  136.3046  152.0264 H   0  0  0  0  0  0  0  0  0  0  0  0
  140.5248  134.5879  152.4260 H   0  0  0  0  0  0  0  0  0  0  0  0
  139.6327  137.3209  155.3367 H   0  0  0  0  0  0  0  0  0  0  0  0
  140.7005  137.7211  153.9691 H   0  0  0  0  0  0  0  0  0  0  0  0
  139.5449  139.0533  152.0868 H   0  0  0  0  0  0  0  0  0  0  0  0
  133.9009  135.6776  155.6809 H   0  0  0  0  0  0  0  0  0  0  0  0
  135.4522  135.1959  156.3282 H   0  0  0  0  0  0  0  0  0  0  0  0
  1  2  1  0  0  0  0
  1 26  1  0  0  0  0
  1 27  1  0  0  0  0
  1 28  1  0  0  0  0
  2  3  1  0  0  0  0
  2  4  1  0  0  0  0
  2 29  1  0  0  0  0
  3 30  1  0  0  0  0
  3 31  1  0  0  0  0
  3 32  1  0  0  0  0
  4 24  1  0  0  0  0
  4  5  1  0  0  0  0
  4  6  1  0  0  0  0
  5 33  1  0  0  0  0
  5 34  1  0  0  0  0
  6  7  2  0  0  0  0
  6  8  1  0  0  0  0
  8  9  1  0  0  0  0
  9 10  1  0  0  0  0
  9 35  1  0  0  0  0
  9 36  1  0  0  0  0
 10 11  1  0  0  0  0
 10 37  1  0  0  0  0
 10 38  1  0  0  0  0
 11 12  1  0  0  0  0
 12 13  1  0  0  0  0
 12 39  1  0  0  0  0
 12 40  1  0  0  0  0
 13 23  1  0  0  0  0
 13 14  1  0  0  0  0
 14 15  2  0  0  0  0
 14 41  1  0  0  0  0
 15 16  1  0  0  0  0
 16 23  2  0  0  0  0
 16 17  1  0  0  0  0
 17 18  2  0  0  0  0
 17 19  1  0  0  0  0
 19 25  1  0  0  0  0
 19 20  1  0  0  0  0
 20 21  1  0  0  0  0
 20 22  2  0  0  0  0
 21 42  1  0  0  0  0
 21 43  1  0  0  0  0
 22 23  1  0  0  0  0
M  END
> <s_m_source_file>
AV-unprocessed.smi

> <i_m_source_file_index>
50

> <i_lp_mmshare_version>
43012

> <i_f3d_flags>
0

> <s_epik_input>
W0NIM11bQ0hdKFtDSDNdKVtDQEhdKFtOSDJdKUMoPU8pT1tDSDJdW0NIMl1PW0NIMl1uKFtjSF1uMSljKGMxMiluYyhbTkgyXSlbbkhdYzI9Tw==

> <s_epik_cmdline>
J2VwaWtfcHl0aG9uJywgJy1waCcsICc3LjAnLCAnLXRuJywgJzgnLCAnLW1hJywgJzIwMCcsICctbWV0YWxfYmluZGluZycsICctaW1hZScsICc8aW5maWxlLm1hZT4nLCAnLW9tYWUnLCAnPG91dGZpbGUubWFlPic=

> <r_lp_tautomer_probability>
0.99994

> <r_epik_Ionization_Penalty>
0.704142

> <r_epik_Ionization_Penalty_Charging>
0.00148332

> <r_epik_Ionization_Penalty_Neutral>
0.702658

> <r_epik_State_Penalty>
0.725442

> <r_epik_Charging_Adjusted_Penalty>
0.726926

> <i_epik_Tot_Q>
0

> <i_epik_Tot_abs_Q>
0

> <r_epik_Metal_State_Penalty>
1.04557

> <b_epik_Metal_Only>
0

> <s_epik_Chemistry_Notes>
This compound has an ester and may undergo hydrolysis at high or low pH. This compound contains an acetal/aminal-like group ( X-CH(R)-Y where X, Y are N, S, or O) that may be acid/base labile, releasing an aldehyde.

> <s_lp_Force_Field>
OPLS_2005

> <r_lp_Energy>
11.3413

> <b_lp_Chiralities_Consistent>
1

> <s_lp_Variant>
AV-unprocessed.smi:50-3

> <Gold.Version>
5.8.1

> <Gold.Id.Protein>
6NUR|6NUR_protein|mol2

> <Gold.PLP.Fitness>
39.2573

> <Gold.PLP.PLP>
-31.8734

> <Gold.PLP.part.hbond>
-3.2861

> <Gold.PLP.part.metal>
0.0000

> <Gold.PLP.part.buried>
-5.6283

> <Gold.PLP.part.nonpolar>
-23.2707

> <Gold.PLP.part.repulsive>
0.5137

> <Gold.PLP.ligand.clash>
0.0000

> <Gold.PLP.ligand.torsion>
1.0623

> <Gold.PLP.Chemscore.Hbond>
2.1463

> <Gold.PLP.Chemscore.CHOScore>
0.8996

> <Gold.PLP.Chemscore.Metal>
0.0000

> <Gold.Chemscore.Hbonds>
donor molecule, donor type, donor heavy atom, donor atom, acceptor molecule, acceptor atom, score
      L1  H     5    33       P1 10171  1.00
      P1  H 11000 11005       L1    11  0.31
      L1  C    14    41       P1 10160  1.00

> <Gold.PLP.Chemscore.Internal.Correction>
0.3707

> <Gold.Rescore>
     Score         DG    S(hbond)    S(metal)    S(lipo)     H(rot)  DE(clash)    DE(int)     intcor
      4.12      -4.90       1.93        0.00      43.82       4.75       0.09       0.69       ----

> <Gold.Chemscore.Fitness>
4.1167

> <Gold.Chemscore.DG>
-4.8967

> <Gold.Chemscore.ZeroCoef>
-5.4800

> <Gold.Chemscore.Hbond>
1.9312

> <Gold.Chemscore.Metal>
0.0000

> <Gold.Chemscore.Lipo>
43.8176

> <Gold.Chemscore.Internal_Hbond>
0.0000

> <Gold.Chemscore.DEClash>
0.0872

> <Gold.Chemscore.DEInternal>
0.6928

> <Gold.Chemscore.Rot>
4.7501

> <Gold.Chemscore.Internal.Correction>
   9.000000E+99

> <Gold.Chemscore.Hbonds>
donor molecule, donor type, donor heavy atom, donor atom, acceptor molecule, acceptor atom, score
      L1  H     5    33       P1 10171  0.97
      L1  H     5    34       P1  7948  0.01
      P1  H 11000 11005       L1    11  0.19

> <Gold.Chemscore.Hbond.Weighted>
-6.4503

> <Gold.Chemscore.Metal.Weighted>
-0.0000

> <Gold.Chemscore.Lipo.Weighted>
-5.1267

> <Gold.Chemscore.Internal_Hbond.Weighted>
0.0000

> <Gold.Chemscore.DEClash.Weighted>
0.0872

> <Gold.Chemscore.DEInternal.Weighted>
0.6928

> <Gold.Chemscore.Rot.Weighted>
12.1603

> <Gold.Chemscore.Internal.Correction.Weighted>
   9.000000E+99

> <Gold.Protein.RotatedTorsions>
[ 6907 6896 6895 6894 ] final -131.07 input  -60.11 | X-H torsion
[ 7974 7965 7964 7962 ] final   27.32 input  175.53 | X-H torsion
[ 8008 7997 7996 7995 ] final   44.61 input   59.86 | X-H torsion
[ 10167 10162 10161 10158 ] final   62.26 input  -65.29 | X-H torsion
[ 10718 10713 10712 10709 ] final -168.87 input   66.30 | X-H torsion
[ 10763 10752 10751 10750 ] final  -21.83 input  -60.55 | X-H torsion
[ 11005 11000 10999 10996 ] final   64.16 input  -57.11 | X-H torsion

> <Gold.Protein.ActiveResidues>
 VAL166  LYS551  ARG553  GLY616  TRP617  ASP618  TYR619  PRO620  LYS621  CYS622 
 ASP623  PHE694  ASN695  SER759  ASP760  ASP761  ALA762  ILE779  LEU786  VAL792 
 PHE793  MET794  SER795  GLU796  ALA797  LYS798  CYS799  TRP800  GLU811  SER814 

> <Gold.Protein.RotatedAtoms>
  150.9468  133.6594  159.2779 H   0  0  0  0  0  0  0  0  0  0  0  0  # atno 6907 bound_to 6896
  151.3964  135.0963  159.9552 H   0  0  0  0  0  0  0  0  0  0  0  0  # atno 6908 bound_to 6896
  152.5093  133.8971  159.7477 H   0  0  0  0  0  0  0  0  0  0  0  0  # atno 6909 bound_to 6896
  146.1791  139.7208  142.8913 H   0  0  0  0  0  0  0  0  0  0  0  0  # atno 7974 bound_to 7965
  155.3221  140.3397  155.4241 H   0  0  0  0  0  0  0  0  0  0  0  0  # atno 8008 bound_to 7997
  156.1904  140.1695  156.8141 H   0  0  0  0  0  0  0  0  0  0  0  0  # atno 8009 bound_to 7997
  154.5435  140.0720  156.8533 H   0  0  0  0  0  0  0  0  0  0  0  0  # atno 8010 bound_to 7997
  140.1458  144.4510  150.6786 H   0  0  0  0  0  0  0  0  0  0  0  0  # atno 10167 bound_to 10162
  156.7033  130.9205  151.3082 H   0  0  0  0  0  0  0  0  0  0  0  0  # atno 10718 bound_to 10713
  153.6423  135.6984  153.5237 H   0  0  0  0  0  0  0  0  0  0  0  0  # atno 10763 bound_to 10752
  153.2772  135.4197  155.1044 H   0  0  0  0  0  0  0  0  0  0  0  0  # atno 10764 bound_to 10752
  154.8496  135.3593  154.5967 H   0  0  0  0  0  0  0  0  0  0  0  0  # atno 10765 bound_to 10752
  139.9977  134.6491  155.9982 H   0  0  0  0  0  0  0  0  0  0  0  0  # atno 11005 bound_to 11000
  145.4129  141.0398  143.3007 LP  0  0  0  0  0  0  0  0  0  0  0  0  # atno 17320 bound_to 7965
  144.8284  139.5670  143.6955 LP  0  0  0  0  0  0  0  0  0  0  0  0  # atno 17321 bound_to 7965
  140.6732  143.2294  151.5572 LP  0  0  0  0  0  0  0  0  0  0  0  0  # atno 17342 bound_to 10162
  139.5449  144.2547  152.1424 LP  0  0  0  0  0  0  0  0  0  0  0  0  # atno 17343 bound_to 10162
  157.6964  130.9287  150.0658 LP  0  0  0  0  0  0  0  0  0  0  0  0  # atno 17370 bound_to 10713
  156.1713  130.3646  149.9161 LP  0  0  0  0  0  0  0  0  0  0  0  0  # atno 17371 bound_to 10713
  141.1617  133.6538  156.4343 LP  0  0  0  0  0  0  0  0  0  0  0  0  # atno 17394 bound_to 11000
  140.4786  134.6685  157.5161 LP  0  0  0  0  0  0  0  0  0  0  0  0  # atno 17395 bound_to 11000

$$$$
