AV-unprocessed.smi:780|AV-procd|sdf|3706|dock6
  -GOLD-   22720 1133D 1   1.00000     0.00000
 Structure written by MMmdl.
 48 49  0  0  0  0  0  0  0  0  1 V2000
  151.1210  144.2391  160.1926 C   0  0  0  0  0  0  0  0  0  0  0  0
  152.0091  143.0134  160.2493 C   0  0  0  0  0  0  0  0  0  0  0  0
  152.9191  142.8111  161.3572 C   0  0  0  0  0  0  0  0  0  0  0  0
  153.6980  141.7184  161.3715 C   0  0  0  0  0  0  0  0  0  0  0  0
  153.6579  140.7619  160.3405 N   0  0  0  0  0  0  0  0  0  0  0  0
  154.6052  139.6345  160.4386 C   0  0  0  0  0  0  0  0  0  0  0  0
  155.6243  139.7587  161.5865 C   0  0  0  0  0  0  0  0  0  0  0  0
  156.4111  140.7042  161.5989 O   0  0  0  0  0  0  0  0  0  0  0  0
  155.6179  138.8053  162.5296 N   0  0  0  0  0  0  0  0  0  0  0  0
  156.5282  138.7039  163.6597 C   0  0  0  0  0  0  0  0  0  0  0  0
  155.7582  138.8773  164.9794 C   0  0  0  0  0  0  0  0  0  0  0  0
  156.5043  139.7302  166.0183 C   0  0  0  0  0  0  0  0  0  0  0  0
  156.8432  140.9794  165.4357 O   0  0  0  0  0  0  0  0  0  0  0  0
  155.9965  142.0548  165.8233 C   0  0  0  0  0  0  0  0  0  0  0  0
  156.1539  143.2568  164.8659 C   0  0  0  0  0  0  0  0  0  0  0  0
  155.3452  144.4710  165.3505 C   0  0  0  0  0  0  0  0  0  0  0  0
  155.7245  144.8585  166.7884 C   0  0  0  0  0  0  0  0  0  0  0  0
  155.5717  143.6647  167.7441 C   0  0  0  0  0  0  0  0  0  0  0  0
  156.3868  142.4559  167.2568 C   0  0  0  0  0  0  0  0  0  0  0  0
  152.8174  140.8908  159.2697 C   0  0  0  0  0  0  0  0  0  0  0  0
  152.7858  140.0639  158.3583 O   0  0  0  0  0  0  0  0  0  0  0  0
  151.9692  142.0883  159.2652 C   0  0  0  0  0  0  0  0  0  0  0  0
  151.4333  144.9840  160.9249 H   0  0  0  0  0  0  0  0  0  0  0  0
  150.0862  143.9662  160.4013 H   0  0  0  0  0  0  0  0  0  0  0  0
  151.1649  144.6985  159.2045 H   0  0  0  0  0  0  0  0  0  0  0  0
  152.9767  143.5304  162.1609 H   0  0  0  0  0  0  0  0  0  0  0  0
  154.4051  141.5118  162.1619 H   0  0  0  0  0  0  0  0  0  0  0  0
  154.0552  138.7018  160.5736 H   0  0  0  0  0  0  0  0  0  0  0  0
  155.1513  139.5051  159.5027 H   0  0  0  0  0  0  0  0  0  0  0  0
  154.9341  138.0680  162.4400 H   0  0  0  0  0  0  0  0  0  0  0  0
  157.0261  137.7334  163.6373 H   0  0  0  0  0  0  0  0  0  0  0  0
  157.3029  139.4676  163.5772 H   0  0  0  0  0  0  0  0  0  0  0  0
  154.7862  139.3265  164.7743 H   0  0  0  0  0  0  0  0  0  0  0  0
  155.5548  137.8934  165.4042 H   0  0  0  0  0  0  0  0  0  0  0  0
  155.8776  139.8858  166.8957 H   0  0  0  0  0  0  0  0  0  0  0  0
  157.4067  139.2146  166.3500 H   0  0  0  0  0  0  0  0  0  0  0  0
  154.9566  141.7226  165.8320 H   0  0  0  0  0  0  0  0  0  0  0  0
  157.2074  143.5286  164.7885 H   0  0  0  0  0  0  0  0  0  0  0  0
  155.8290  142.9969  163.8594 H   0  0  0  0  0  0  0  0  0  0  0  0
  155.5094  145.3169  164.6827 H   0  0  0  0  0  0  0  0  0  0  0  0
  154.2799  144.2417  165.3025 H   0  0  0  0  0  0  0  0  0  0  0  0
  156.7553  145.2146  166.8107 H   0  0  0  0  0  0  0  0  0  0  0  0
  155.1031  145.6882  167.1266 H   0  0  0  0  0  0  0  0  0  0  0  0
  155.8911  143.9489  168.7470 H   0  0  0  0  0  0  0  0  0  0  0  0
  154.5192  143.3890  167.8206 H   0  0  0  0  0  0  0  0  0  0  0  0
  156.2368  141.6129  167.9320 H   0  0  0  0  0  0  0  0  0  0  0  0
  157.4503  142.6963  167.2947 H   0  0  0  0  0  0  0  0  0  0  0  0
  151.2920  142.2336  158.4357 H   0  0  0  0  0  0  0  0  0  0  0  0
  1  2  1  0  0  0  0
  1 23  1  0  0  0  0
  1 24  1  0  0  0  0
  1 25  1  0  0  0  0
  2 22  2  0  0  0  0
  2  3  1  0  0  0  0
  3  4  2  0  0  0  0
  3 26  1  0  0  0  0
  4  5  1  0  0  0  0
  4 27  1  0  0  0  0
  5  6  1  0  0  0  0
  5 20  1  0  0  0  0
  6  7  1  0  0  0  0
  6 28  1  0  0  0  0
  6 29  1  0  0  0  0
  7  8  2  0  0  0  0
  7  9  1  0  0  0  0
  9 10  1  0  0  0  0
  9 30  1  0  0  0  0
 10 11  1  0  0  0  0
 10 31  1  0  0  0  0
 10 32  1  0  0  0  0
 11 12  1  0  0  0  0
 11 33  1  0  0  0  0
 11 34  1  0  0  0  0
 12 13  1  0  0  0  0
 12 35  1  0  0  0  0
 12 36  1  0  0  0  0
 13 14  1  0  0  0  0
 14 19  1  0  0  0  0
 14 15  1  0  0  0  0
 14 37  1  0  0  0  0
 15 16  1  0  0  0  0
 15 38  1  0  0  0  0
 15 39  1  0  0  0  0
 16 17  1  0  0  0  0
 16 40  1  0  0  0  0
 16 41  1  0  0  0  0
 17 18  1  0  0  0  0
 17 42  1  0  0  0  0
 17 43  1  0  0  0  0
 18 19  1  0  0  0  0
 18 44  1  0  0  0  0
 18 45  1  0  0  0  0
 19 46  1  0  0  0  0
 19 47  1  0  0  0  0
 20 21  2  0  0  0  0
 20 22  1  0  0  0  0
 22 48  1  0  0  0  0
M  END
> <s_m_source_file>
AV-unprocessed.smi

> <i_m_source_file_index>
780

> <i_lp_mmshare_version>
43012

> <i_f3d_flags>
0

> <s_epik_input>
W0NIM11jMVtjSF1bY0hdbihjKD1PKVtjSF0xKVtDSDJdQyg9TylbTkhdW0NIMl1bQ0gyXVtDSDJdT1tDSF0yW0NIMl1bQ0gyXVtDSDJdW0NIMl1bQ0gyXTI=

> <s_epik_cmdline>
J2VwaWtfcHl0aG9uJywgJy1waCcsICc3LjAnLCAnLXRuJywgJzgnLCAnLW1hJywgJzIwMCcsICctbWV0YWxfYmluZGluZycsICctaW1hZScsICc8aW5maWxlLm1hZT4nLCAnLW9tYWUnLCAnPG91dGZpbGUubWFlPic=

> <r_lp_tautomer_probability>
1

> <r_epik_Ionization_Penalty>
5.32667e-07

> <r_epik_Ionization_Penalty_Charging>
5.13386e-07

> <r_epik_Ionization_Penalty_Neutral>
1.92812e-08

> <r_epik_State_Penalty>
-0

> <r_epik_Charging_Adjusted_Penalty>
5.13386e-07

> <i_epik_Tot_Q>
0

> <i_epik_Tot_abs_Q>
0

> <r_epik_Metal_State_Penalty>
-0

> <b_epik_Metal_Only>
0

> <s_lp_Force_Field>
OPLS_2005

> <r_lp_Energy>
20.4059

> <b_lp_Chiralities_Consistent>
1

> <s_lp_Variant>
AV-unprocessed.smi:780-1

> <Gold.Version>
5.8.1

> <Gold.Id.Protein>
6NUR|6NUR_protein|mol2

> <Gold.PLP.Fitness>
51.0185

> <Gold.PLP.PLP>
-49.6063

> <Gold.PLP.part.hbond>
-1.6049

> <Gold.PLP.part.metal>
0.0000

> <Gold.PLP.part.buried>
-4.5818

> <Gold.PLP.part.nonpolar>
-41.9378

> <Gold.PLP.part.repulsive>
0.0000

> <Gold.PLP.ligand.clash>
0.0000

> <Gold.PLP.ligand.torsion>
0.7910

> <Gold.PLP.Chemscore.Hbond>
0.9760

> <Gold.PLP.Chemscore.CHOScore>
0.0000

> <Gold.PLP.Chemscore.Metal>
0.0000

> <Gold.Chemscore.Hbonds>
donor molecule, donor type, donor heavy atom, donor atom, acceptor molecule, acceptor atom, score
      P1  H  7997  8008       L1    21  0.49

> <Gold.PLP.Chemscore.Internal.Correction>
0.0661

> <Gold.Rescore>
     Score         DG    S(hbond)    S(metal)    S(lipo)     H(rot)  DE(clash)    DE(int)     intcor
     14.75     -18.46       0.90        0.00     128.23       1.97       1.76       1.96       ----

> <Gold.Chemscore.Fitness>
14.7481

> <Gold.Chemscore.DG>
-18.4624

> <Gold.Chemscore.ZeroCoef>
-5.4800

> <Gold.Chemscore.Hbond>
0.9029

> <Gold.Chemscore.Metal>
0.0000

> <Gold.Chemscore.Lipo>
128.2269

> <Gold.Chemscore.Internal_Hbond>
0.0000

> <Gold.Chemscore.DEClash>
1.7573

> <Gold.Chemscore.DEInternal>
1.9570

> <Gold.Chemscore.Rot>
1.9671

> <Gold.Chemscore.Internal.Correction>
   9.000000E+99

> <Gold.Chemscore.Hbonds>
donor molecule, donor type, donor heavy atom, donor atom, acceptor molecule, acceptor atom, score
      P1  H  7997  8008       L1    21  0.43

> <Gold.Chemscore.Hbond.Weighted>
-3.0157

> <Gold.Chemscore.Metal.Weighted>
-0.0000

> <Gold.Chemscore.Lipo.Weighted>
-15.0025

> <Gold.Chemscore.Internal_Hbond.Weighted>
0.0000

> <Gold.Chemscore.DEClash.Weighted>
1.7573

> <Gold.Chemscore.DEInternal.Weighted>
1.9570

> <Gold.Chemscore.Rot.Weighted>
5.0359

> <Gold.Chemscore.Internal.Correction.Weighted>
   9.000000E+99

> <Gold.Protein.RotatedTorsions>
[ 6907 6896 6895 6894 ] final  -51.36 input  -60.11 | X-H torsion
[ 7974 7965 7964 7962 ] final   -7.74 input  175.53 | X-H torsion
[ 8008 7997 7996 7995 ] final  -82.67 input   59.86 | X-H torsion
[ 10167 10162 10161 10158 ] final   93.79 input  -65.29 | X-H torsion
[ 10718 10713 10712 10709 ] final   66.66 input   66.30 | X-H torsion
[ 10763 10752 10751 10750 ] final  112.19 input  -60.55 | X-H torsion
[ 11005 11000 10999 10996 ] final   93.46 input  -57.11 | X-H torsion

> <Gold.Protein.ActiveResidues>
 VAL166  LYS551  ARG553  GLY616  TRP617  ASP618  TYR619  PRO620  LYS621  CYS622 
 ASP623  PHE694  ASN695  SER759  ASP760  ASP761  ALA762  ILE779  LEU786  VAL792 
 PHE793  MET794  SER795  GLU796  ALA797  LYS798  CYS799  TRP800  GLU811  SER814 

> <Gold.Protein.RotatedAtoms>
  150.8618  134.7972  159.7088 H   0  0  0  0  0  0  0  0  0  0  0  0  # atno 6907 bound_to 6896
  152.4653  134.5087  159.9757 H   0  0  0  0  0  0  0  0  0  0  0  0  # atno 6908 bound_to 6896
  151.5190  133.3432  159.2933 H   0  0  0  0  0  0  0  0  0  0  0  0  # atno 6909 bound_to 6896
  146.2299  140.2364  142.8342 H   0  0  0  0  0  0  0  0  0  0  0  0  # atno 7974 bound_to 7965
  154.6110  140.0630  156.9494 H   0  0  0  0  0  0  0  0  0  0  0  0  # atno 8008 bound_to 7997
  155.1973  140.3312  155.4330 H   0  0  0  0  0  0  0  0  0  0  0  0  # atno 8009 bound_to 7997
  156.2377  140.1871  156.7058 H   0  0  0  0  0  0  0  0  0  0  0  0  # atno 8010 bound_to 7997
  139.8145  144.6759  150.9597 H   0  0  0  0  0  0  0  0  0  0  0  0  # atno 10167 bound_to 10162
  157.6183  130.9279  150.0138 H   0  0  0  0  0  0  0  0  0  0  0  0  # atno 10718 bound_to 10713
  153.4742  135.3694  155.2407 H   0  0  0  0  0  0  0  0  0  0  0  0  # atno 10763 bound_to 10752
  154.8756  135.3939  154.3776 H   0  0  0  0  0  0  0  0  0  0  0  0  # atno 10764 bound_to 10752
  153.4369  135.7083  153.6259 H   0  0  0  0  0  0  0  0  0  0  0  0  # atno 10765 bound_to 10752
  139.8810  134.8791  156.3721 H   0  0  0  0  0  0  0  0  0  0  0  0  # atno 11005 bound_to 11000
  144.9518  140.8186  143.5567 LP  0  0  0  0  0  0  0  0  0  0  0  0  # atno 17320 bound_to 7965
  145.2325  139.2108  143.5035 LP  0  0  0  0  0  0  0  0  0  0  0  0  # atno 17321 bound_to 7965
  140.7816  143.4152  151.0929 LP  0  0  0  0  0  0  0  0  0  0  0  0  # atno 17342 bound_to 10162
  139.7816  143.8347  152.3138 LP  0  0  0  0  0  0  0  0  0  0  0  0  # atno 17343 bound_to 10162
  156.1315  130.3643  149.9724 LP  0  0  0  0  0  0  0  0  0  0  0  0  # atno 17370 bound_to 10713
  156.7784  130.9212  151.3645 LP  0  0  0  0  0  0  0  0  0  0  0  0  # atno 17371 bound_to 10713
  140.9457  133.7485  156.0204 LP  0  0  0  0  0  0  0  0  0  0  0  0  # atno 17394 bound_to 11000
  140.8166  134.3337  157.5395 LP  0  0  0  0  0  0  0  0  0  0  0  0  # atno 17395 bound_to 11000

$$$$
