AV-unprocessed.smi:160|AV-procd|sdf|1349|dock4
  -GOLD-   2262019 53D 1   1.00000     0.00000
 Structure written by MMmdl.
 29 30  0  0  0  0  0  0  0  0  1 V2000
  149.2755  132.8947  154.3143 N   0  0  0  0  0  0  0  0  0  0  0  0
  148.7113  131.6887  154.4392 C   0  0  0  0  0  0  0  0  0  0  0  0
  149.0782  130.8743  155.2848 O   0  0  0  0  0  0  0  0  0  0  0  0
  147.5969  131.3746  153.4798 C   0  0  0  0  0  0  0  0  0  0  0  0
  146.9724  130.1603  153.4951 N   0  0  0  0  0  0  0  0  0  0  0  0
  146.1115  130.3572  152.5049 C   0  0  0  0  0  0  0  0  0  0  0  0
  146.1801  131.5708  151.9481 N   0  0  0  0  0  0  0  0  0  0  0  0
  145.4046  132.1269  150.7879 C   0  0  2  0  0  0  0  0  0  0  0  0
  145.7832  133.4532  150.6046 O   0  0  0  0  0  0  0  0  0  0  0  0
  144.9759  134.2969  151.4160 C   0  0  1  0  0  0  0  0  0  0  0  0
  144.9531  135.7152  150.8257 C   0  0  0  0  0  0  0  0  0  0  0  0
  144.6122  135.6674  149.4566 O   0  0  0  0  0  0  0  0  0  0  0  0
  143.6004  133.6059  151.3956 C   0  0  2  0  0  0  0  0  0  0  0  0
  142.9974  133.7017  152.6708 O   0  0  0  0  0  0  0  0  0  0  0  0
  143.8907  132.1400  151.0544 C   0  0  1  0  0  0  0  0  0  0  0  0
  143.1699  131.7424  149.9053 O   0  0  0  0  0  0  0  0  0  0  0  0
  147.1710  132.2564  152.5743 N   0  0  0  0  0  0  0  0  0  0  0  0
  145.7051  131.5025  149.9452 H   0  0  0  0  0  0  0  0  0  0  0  0
  145.3785  134.3129  152.4303 H   0  0  0  0  0  0  0  0  0  0  0  0
  142.9486  134.0600  150.6474 H   0  0  0  0  0  0  0  0  0  0  0  0
  143.6356  131.4493  151.8598 H   0  0  0  0  0  0  0  0  0  0  0  0
  150.0302  133.1639  154.9279 H   0  0  0  0  0  0  0  0  0  0  0  0
  148.9423  133.5290  153.6026 H   0  0  0  0  0  0  0  0  0  0  0  0
  145.4161  129.5989  152.1759 H   0  0  0  0  0  0  0  0  0  0  0  0
  144.2612  136.3603  151.3683 H   0  0  0  0  0  0  0  0  0  0  0  0
  145.9430  136.1669  150.8991 H   0  0  0  0  0  0  0  0  0  0  0  0
  145.3865  135.4469  148.9617 H   0  0  0  0  0  0  0  0  0  0  0  0
  143.0141  132.8467  153.0732 H   0  0  0  0  0  0  0  0  0  0  0  0
  142.2477  131.7539  150.1106 H   0  0  0  0  0  0  0  0  0  0  0  0
  1  2  1  0  0  0  0
  1 22  1  0  0  0  0
  1 23  1  0  0  0  0
  2  3  2  0  0  0  0
  2  4  1  0  0  0  0
  4 17  2  0  0  0  0
  4  5  1  0  0  0  0
  5  6  2  0  0  0  0
  6  7  1  0  0  0  0
  6 24  1  0  0  0  0
  7  8  1  0  0  0  0
  7 17  1  0  0  0  0
  8 18  1  0  0  0  0
  8 15  1  0  0  0  0
  8  9  1  0  0  0  0
  9 10  1  0  0  0  0
 10 19  1  0  0  0  0
 10 11  1  0  0  0  0
 10 13  1  0  0  0  0
 11 12  1  0  0  0  0
 11 25  1  0  0  0  0
 11 26  1  0  0  0  0
 12 27  1  0  0  0  0
 13 20  1  0  0  0  0
 13 14  1  0  0  0  0
 13 15  1  0  0  0  0
 14 28  1  0  0  0  0
 15 21  1  0  0  0  0
 15 16  1  0  0  0  0
 16 29  1  0  0  0  0
M  END
> <s_m_source_file>
AV-unprocessed.smi

> <i_m_source_file_index>
160

> <i_lp_mmshare_version>
43012

> <i_f3d_flags>
0

> <s_epik_input>
W05IMl1DKD1PKWMxbltjSF1uKG4xKVtDQEBIXTJPW0NASF0oW0NIMl1bT0hdKVtDQEBIXShbT0hdKVtDQEhdMltPSF0=

> <s_epik_cmdline>
J2VwaWtfcHl0aG9uJywgJy1waCcsICc3LjAnLCAnLXRuJywgJzgnLCAnLW1hJywgJzIwMCcsICctbWV0YWxfYmluZGluZycsICctaW1hZScsICc8aW5maWxlLm1hZT4nLCAnLW9tYWUnLCAnPG91dGZpbGUubWFlPic=

> <r_lp_tautomer_probability>
1

> <r_epik_Ionization_Penalty>
1.06932e-05

> <r_epik_Ionization_Penalty_Charging>
0

> <r_epik_Ionization_Penalty_Neutral>
1.06932e-05

> <r_epik_State_Penalty>
-0

> <r_epik_Charging_Adjusted_Penalty>
0

> <i_epik_Tot_Q>
0

> <i_epik_Tot_abs_Q>
0

> <r_epik_Metal_State_Penalty>
0.0142097

> <b_epik_Metal_Only>
0

> <s_epik_Chemistry_Notes>
This compound contains an acetal/aminal-like group ( X-CH(R)-Y where X, Y are N, S, or O) that may be acid/base labile, releasing an aldehyde.

> <s_lp_Force_Field>
OPLS_2005

> <r_lp_Energy>
33.3091

> <b_lp_Chiralities_Consistent>
1

> <s_lp_Variant>
AV-unprocessed.smi:160-7

> <Gold.Version>
5.8.1

> <Gold.Id.Protein>
6NUR|6NUR_protein|mol2

> <Gold.PLP.Fitness>
38.9243

> <Gold.PLP.PLP>
-28.8092

> <Gold.PLP.part.hbond>
-4.9455

> <Gold.PLP.part.metal>
0.0000

> <Gold.PLP.part.buried>
-7.2556

> <Gold.PLP.part.nonpolar>
-18.6320

> <Gold.PLP.part.repulsive>
0.4224

> <Gold.PLP.ligand.clash>
0.0000

> <Gold.PLP.ligand.torsion>
0.0520

> <Gold.PLP.Chemscore.Hbond>
3.3953

> <Gold.PLP.Chemscore.CHOScore>
0.0000

> <Gold.PLP.Chemscore.Metal>
0.0000

> <Gold.Chemscore.Hbonds>
donor molecule, donor type, donor heavy atom, donor atom, acceptor molecule, acceptor atom, score
      L1  H    12    27       P1  7921  1.00
      L1  H    14    28       P1 10957  0.94
      L1  H    16    29       P1 10952  0.51
      P1  H 10785 10796       L1    16  0.95

> <Gold.PLP.Chemscore.Internal.Correction>
0.0330

> <Gold.Rescore>
     Score         DG    S(hbond)    S(metal)    S(lipo)     H(rot)  DE(clash)    DE(int)     intcor
      6.95      -7.08       2.65        0.00      26.79       4.06       0.11       0.02       ----

> <Gold.Chemscore.Fitness>
6.9507

> <Gold.Chemscore.DG>
-7.0773

> <Gold.Chemscore.ZeroCoef>
-5.4800

> <Gold.Chemscore.Hbond>
2.6515

> <Gold.Chemscore.Metal>
0.0000

> <Gold.Chemscore.Lipo>
26.7936

> <Gold.Chemscore.Internal_Hbond>
0.0000

> <Gold.Chemscore.DEClash>
0.1074

> <Gold.Chemscore.DEInternal>
0.0193

> <Gold.Chemscore.Rot>
4.0600

> <Gold.Chemscore.Internal.Correction>
   9.000000E+99

> <Gold.Chemscore.Hbonds>
donor molecule, donor type, donor heavy atom, donor atom, acceptor molecule, acceptor atom, score
      L1  H    12    27       P1  7921  0.96
      L1  H    14    28       P1 10957  0.33
      L1  H    16    29       P1 10952  0.42
      P1  H 10785 10796       L1    16  0.21

> <Gold.Chemscore.Hbond.Weighted>
-8.8561

> <Gold.Chemscore.Metal.Weighted>
-0.0000

> <Gold.Chemscore.Lipo.Weighted>
-3.1349

> <Gold.Chemscore.Internal_Hbond.Weighted>
0.0000

> <Gold.Chemscore.DEClash.Weighted>
0.1074

> <Gold.Chemscore.DEInternal.Weighted>
0.0193

> <Gold.Chemscore.Rot.Weighted>
10.3936

> <Gold.Chemscore.Internal.Correction.Weighted>
   9.000000E+99

> <Gold.Protein.RotatedTorsions>
[ 6907 6896 6895 6894 ] final  -26.62 input  -60.11 | X-H torsion
[ 7974 7965 7964 7962 ] final   97.61 input  175.53 | X-H torsion
[ 8008 7997 7996 7995 ] final   35.25 input   59.86 | X-H torsion
[ 10167 10162 10161 10158 ] final  -29.80 input  -65.29 | X-H torsion
[ 10718 10713 10712 10709 ] final  145.35 input   66.30 | X-H torsion
[ 10763 10752 10751 10750 ] final  -17.80 input  -60.55 | X-H torsion
[ 11005 11000 10999 10996 ] final   92.57 input  -57.11 | X-H torsion

> <Gold.Protein.ActiveResidues>
 VAL166  LYS551  ARG553  GLY616  TRP617  ASP618  TYR619  PRO620  LYS621  CYS622 
 ASP623  PHE694  ASN695  SER759  ASP760  ASP761  ALA762  ILE779  LEU786  VAL792 
 PHE793  MET794  SER795  GLU796  ALA797  LYS798  CYS799  TRP800  GLU811  SER814 

> <Gold.Protein.RotatedAtoms>
  151.1584  135.0261  159.8698 H   0  0  0  0  0  0  0  0  0  0  0  0  # atno 6907 bound_to 6896
  152.5452  134.1308  159.8448 H   0  0  0  0  0  0  0  0  0  0  0  0  # atno 6908 bound_to 6896
  151.1401  133.4931  159.2629 H   0  0  0  0  0  0  0  0  0  0  0  0  # atno 6909 bound_to 6896
  145.4232  139.2319  143.3185 H   0  0  0  0  0  0  0  0  0  0  0  0  # atno 7974 bound_to 7965
  155.1680  140.3289  155.4398 H   0  0  0  0  0  0  0  0  0  0  0  0  # atno 8008 bound_to 7997
  156.2520  140.1948  156.6734 H   0  0  0  0  0  0  0  0  0  0  0  0  # atno 8009 bound_to 7997
  154.6358  140.0576  156.9773 H   0  0  0  0  0  0  0  0  0  0  0  0  # atno 8010 bound_to 7997
  140.7256  143.3899  151.1448 H   0  0  0  0  0  0  0  0  0  0  0  0  # atno 10167 bound_to 10162
  157.3463  131.0944  151.1039 H   0  0  0  0  0  0  0  0  0  0  0  0  # atno 10718 bound_to 10713
  153.5795  135.7005  153.5469 H   0  0  0  0  0  0  0  0  0  0  0  0  # atno 10763 bound_to 10752
  153.3274  135.4057  155.1466 H   0  0  0  0  0  0  0  0  0  0  0  0  # atno 10764 bound_to 10752
  154.8620  135.3710  154.5321 H   0  0  0  0  0  0  0  0  0  0  0  0  # atno 10765 bound_to 10752
  139.8821  134.8740  156.3592 H   0  0  0  0  0  0  0  0  0  0  0  0  # atno 11005 bound_to 11000
  146.2646  140.4959  142.8839 LP  0  0  0  0  0  0  0  0  0  0  0  0  # atno 17320 bound_to 7965
  144.8231  140.6584  143.6339 LP  0  0  0  0  0  0  0  0  0  0  0  0  # atno 17321 bound_to 7965
  139.7503  143.8789  152.3075 LP  0  0  0  0  0  0  0  0  0  0  0  0  # atno 17342 bound_to 10162
  139.8640  144.7102  150.9065 LP  0  0  0  0  0  0  0  0  0  0  0  0  # atno 17343 bound_to 10162
  157.2231  130.6491  149.5819 LP  0  0  0  0  0  0  0  0  0  0  0  0  # atno 17370 bound_to 10713
  155.9715  130.4622  150.6139 LP  0  0  0  0  0  0  0  0  0  0  0  0  # atno 17371 bound_to 10713
  140.9541  133.7431  156.0312 LP  0  0  0  0  0  0  0  0  0  0  0  0  # atno 17394 bound_to 11000
  140.8070  134.3443  157.5423 LP  0  0  0  0  0  0  0  0  0  0  0  0  # atno 17395 bound_to 11000

$$$$
