AV-unprocessed.smi:183|AV-procd|sdf|1457|dock9
  -GOLD-   2262019263D 1   1.00000     0.00000
 Structure written by MMmdl.
 55 57  0  0  0  0  0  0  0  0  1 V2000
  152.6950  145.0732  158.5789 C   0  0  0  0  0  0  0  0  0  0  0  0
  152.7517  143.5495  158.5844 C   0  0  0  0  0  0  0  0  0  0  0  0
  153.6566  142.9671  159.1817 O   0  0  0  0  0  0  0  0  0  0  0  0
  151.7760  142.9169  157.9155 N   0  0  0  0  0  0  0  0  0  0  0  0
  151.6507  141.4703  157.7941 C   0  0  0  0  0  0  0  0  0  0  0  0
  150.5177  141.0877  156.8214 C   0  0  0  0  0  0  0  0  0  0  0  0
  150.5026  139.6646  156.4704 N   0  0  0  0  0  0  0  0  0  0  0  0
  150.4067  138.8825  157.5737 C   0  0  0  0  0  0  0  0  0  0  0  0
  151.5519  138.6348  158.2576 N   0  0  0  0  0  0  0  0  0  0  0  0
  151.5280  137.8647  159.3494 C   0  0  0  0  0  0  0  0  0  0  0  0
  150.4869  137.2509  159.9155 N   0  0  0  0  0  0  0  0  0  0  0  0
  149.3349  137.4894  159.2254 C   0  0  0  0  0  0  0  0  0  0  0  0
  149.2048  138.2838  158.0514 C   0  0  0  0  0  0  0  0  0  0  0  0
  147.8821  138.2804  157.6238 N   0  0  0  0  0  0  0  0  0  0  0  0
  147.2658  137.5327  158.4971 C   0  0  0  0  0  0  0  0  0  0  0  0
  148.0605  137.0242  159.4994 N   0  0  0  0  0  0  0  0  0  0  0  0
  147.6385  136.1687  160.5978 C   0  0  0  0  0  0  0  0  0  0  0  0
  146.6225  136.8469  161.5541 C   0  0  1  0  0  0  0  0  0  0  0  0
  147.1677  138.0888  161.9673 O   0  0  0  0  0  0  0  0  0  0  0  0
  145.2682  137.1267  160.9072 C   0  0  0  0  0  0  0  0  0  0  0  0
  144.3055  137.0641  162.0832 C   0  0  0  0  0  0  0  0  0  0  0  0
  144.8185  135.9811  162.8379 O   0  0  0  0  0  0  0  0  0  0  0  0
  146.2423  136.0491  162.8339 C   0  0  1  0  0  0  0  0  0  0  0  0
  146.7771  134.6120  162.9400 C   0  0  0  0  0  0  0  0  0  0  0  0
  151.3175  139.1699  155.3470 C   0  0  0  0  0  0  0  0  0  0  0  0
  150.8419  137.7882  154.8594 C   0  0  0  0  0  0  0  0  0  0  0  0
  152.8184  139.0790  155.7012 C   0  0  0  0  0  0  0  0  0  0  0  0
  151.8352  145.4226  159.1511 H   0  0  0  0  0  0  0  0  0  0  0  0
  152.6089  145.4500  157.5593 H   0  0  0  0  0  0  0  0  0  0  0  0
  153.5966  145.4962  159.0228 H   0  0  0  0  0  0  0  0  0  0  0  0
  151.0724  143.4773  157.4569 H   0  0  0  0  0  0  0  0  0  0  0  0
  152.6047  141.0809  157.4396 H   0  0  0  0  0  0  0  0  0  0  0  0
  151.4845  141.0348  158.7801 H   0  0  0  0  0  0  0  0  0  0  0  0
  149.5561  141.3625  157.2582 H   0  0  0  0  0  0  0  0  0  0  0  0
  150.5931  141.6803  155.9101 H   0  0  0  0  0  0  0  0  0  0  0  0
  152.4795  137.7187  159.8391 H   0  0  0  0  0  0  0  0  0  0  0  0
  146.2061  137.3328  158.4347 H   0  0  0  0  0  0  0  0  0  0  0  0
  147.2092  135.2662  160.1624 H   0  0  0  0  0  0  0  0  0  0  0  0
  148.5275  135.8547  161.1463 H   0  0  0  0  0  0  0  0  0  0  0  0
  146.7952  138.3158  162.8056 H   0  0  0  0  0  0  0  0  0  0  0  0
  145.2236  138.0721  160.3645 H   0  0  0  0  0  0  0  0  0  0  0  0
  145.0151  136.3297  160.2070 H   0  0  0  0  0  0  0  0  0  0  0  0
  144.3440  137.9799  162.6751 H   0  0  0  0  0  0  0  0  0  0  0  0
  143.2739  136.8902  161.7772 H   0  0  0  0  0  0  0  0  0  0  0  0
  146.5487  136.5958  163.7279 H   0  0  0  0  0  0  0  0  0  0  0  0
  147.8668  134.5922  162.9557 H   0  0  0  0  0  0  0  0  0  0  0  0
  146.4347  133.9947  162.1092 H   0  0  0  0  0  0  0  0  0  0  0  0
  146.4301  134.1406  163.8596 H   0  0  0  0  0  0  0  0  0  0  0  0
  151.2086  139.8638  154.5137 H   0  0  0  0  0  0  0  0  0  0  0  0
  151.4869  137.4094  154.0661 H   0  0  0  0  0  0  0  0  0  0  0  0
  149.8332  137.8268  154.4488 H   0  0  0  0  0  0  0  0  0  0  0  0
  150.8499  137.0575  155.6689 H   0  0  0  0  0  0  0  0  0  0  0  0
  153.3920  138.6754  154.8666 H   0  0  0  0  0  0  0  0  0  0  0  0
  152.9813  138.4261  156.5593 H   0  0  0  0  0  0  0  0  0  0  0  0
  153.2535  140.0500  155.9356 H   0  0  0  0  0  0  0  0  0  0  0  0
  1  2  1  0  0  0  0
  1 28  1  0  0  0  0
  1 29  1  0  0  0  0
  1 30  1  0  0  0  0
  2  3  2  0  0  0  0
  2  4  1  0  0  0  0
  4  5  1  0  0  0  0
  4 31  1  0  0  0  0
  5  6  1  0  0  0  0
  5 32  1  0  0  0  0
  5 33  1  0  0  0  0
  6  7  1  0  0  0  0
  6 34  1  0  0  0  0
  6 35  1  0  0  0  0
  7  8  1  0  0  0  0
  7 25  1  0  0  0  0
  8 13  1  0  0  0  0
  8  9  2  0  0  0  0
  9 10  1  0  0  0  0
 10 11  2  0  0  0  0
 10 36  1  0  0  0  0
 11 12  1  0  0  0  0
 12 16  1  0  0  0  0
 12 13  2  0  0  0  0
 13 14  1  0  0  0  0
 14 15  2  0  0  0  0
 15 16  1  0  0  0  0
 15 37  1  0  0  0  0
 16 17  1  0  0  0  0
 17 18  1  0  0  0  0
 17 38  1  0  0  0  0
 17 39  1  0  0  0  0
 18 23  1  0  0  0  0
 18 19  1  0  0  0  0
 18 20  1  0  0  0  0
 19 40  1  0  0  0  0
 20 21  1  0  0  0  0
 20 41  1  0  0  0  0
 20 42  1  0  0  0  0
 21 22  1  0  0  0  0
 21 43  1  0  0  0  0
 21 44  1  0  0  0  0
 22 23  1  0  0  0  0
 23 24  1  0  0  0  0
 23 45  1  0  0  0  0
 24 46  1  0  0  0  0
 24 47  1  0  0  0  0
 24 48  1  0  0  0  0
 25 26  1  0  0  0  0
 25 27  1  0  0  0  0
 25 49  1  0  0  0  0
 26 50  1  0  0  0  0
 26 51  1  0  0  0  0
 26 52  1  0  0  0  0
 27 53  1  0  0  0  0
 27 54  1  0  0  0  0
 27 55  1  0  0  0  0
M  END
> <s_m_source_file>
AV-unprocessed.smi

> <i_m_source_file_index>
183

> <i_lp_mmshare_version>
43012

> <i_f3d_flags>
0

> <s_epik_input>
W0NIM11DKD1PKVtOSF1bQ0gyXVtDSDJdTihbQ0hdKFtDSDNdKVtDSDNdKWMobltjSF1uMSljKGMxMiluW2NIXW4yW0NIMl1bQ0BAXTMoW09IXSlbQ0gyXVtDSDJdT1tDQEhdM1tDSDNd

> <s_epik_cmdline>
J2VwaWtfcHl0aG9uJywgJy1waCcsICc3LjAnLCAnLXRuJywgJzgnLCAnLW1hJywgJzIwMCcsICctbWV0YWxfYmluZGluZycsICctaW1hZScsICc8aW5maWxlLm1hZT4nLCAnLW9tYWUnLCAnPG91dGZpbGUubWFlPic=

> <r_lp_tautomer_probability>
1

> <r_epik_Ionization_Penalty>
0.00156158

> <r_epik_Ionization_Penalty_Charging>
0

> <r_epik_Ionization_Penalty_Neutral>
0.00156158

> <r_epik_State_Penalty>
0.000865808

> <r_epik_Charging_Adjusted_Penalty>
0.000865808

> <i_epik_Tot_Q>
0

> <i_epik_Tot_abs_Q>
0

> <r_epik_Metal_State_Penalty>
-0

> <b_epik_Metal_Only>
0

> <s_lp_Force_Field>
OPLS_2005

> <r_lp_Energy>
29.4164

> <b_lp_Chiralities_Consistent>
1

> <s_lp_Variant>
AV-unprocessed.smi:183-1

> <Gold.Version>
5.8.1

> <Gold.Id.Protein>
6NUR|6NUR_protein|mol2

> <Gold.PLP.Fitness>
54.7429

> <Gold.PLP.PLP>
-47.3540

> <Gold.PLP.part.hbond>
-3.0000

> <Gold.PLP.part.metal>
0.0000

> <Gold.PLP.part.buried>
-6.2394

> <Gold.PLP.part.nonpolar>
-38.1718

> <Gold.PLP.part.repulsive>
0.0366

> <Gold.PLP.ligand.clash>
0.0000

> <Gold.PLP.ligand.torsion>
0.7170

> <Gold.PLP.Chemscore.Hbond>
2.5672

> <Gold.PLP.Chemscore.CHOScore>
0.0000

> <Gold.PLP.Chemscore.Metal>
0.0000

> <Gold.Chemscore.Hbonds>
donor molecule, donor type, donor heavy atom, donor atom, acceptor molecule, acceptor atom, score
      P1  H  6896  6909       L1    11  0.32
      P1  H  6931  6943       L1    19  0.37
      P1  H  6934  6947       L1    19  0.29

> <Gold.PLP.Chemscore.Internal.Correction>
1.1212

> <Gold.Rescore>
     Score         DG    S(hbond)    S(metal)    S(lipo)     H(rot)  DE(clash)    DE(int)     intcor
      9.58     -12.97       1.67        0.00      91.66       3.45       0.80       2.59       ----

> <Gold.Chemscore.Fitness>
9.5825

> <Gold.Chemscore.DG>
-12.9698

> <Gold.Chemscore.ZeroCoef>
-5.4800

> <Gold.Chemscore.Hbond>
1.6722

> <Gold.Chemscore.Metal>
0.0000

> <Gold.Chemscore.Lipo>
91.6583

> <Gold.Chemscore.Internal_Hbond>
0.0000

> <Gold.Chemscore.DEClash>
0.7992

> <Gold.Chemscore.DEInternal>
2.5881

> <Gold.Chemscore.Rot>
3.4451

> <Gold.Chemscore.Internal.Correction>
   9.000000E+99

> <Gold.Chemscore.Hbonds>
donor molecule, donor type, donor heavy atom, donor atom, acceptor molecule, acceptor atom, score
      P1  H  6896  6909       L1    11  0.12
      P1  H  6931  6943       L1    19  0.29
      P1  H  6934  6947       L1    19  0.25

> <Gold.Chemscore.Hbond.Weighted>
-5.5852

> <Gold.Chemscore.Metal.Weighted>
-0.0000

> <Gold.Chemscore.Lipo.Weighted>
-10.7240

> <Gold.Chemscore.Internal_Hbond.Weighted>
0.0000

> <Gold.Chemscore.DEClash.Weighted>
0.7992

> <Gold.Chemscore.DEInternal.Weighted>
2.5881

> <Gold.Chemscore.Rot.Weighted>
8.8194

> <Gold.Chemscore.Internal.Correction.Weighted>
   9.000000E+99

> <Gold.Protein.RotatedTorsions>
[ 6907 6896 6895 6894 ] final   82.58 input  -60.11 | X-H torsion
[ 7974 7965 7964 7962 ] final    1.58 input  175.53 | X-H torsion
[ 8008 7997 7996 7995 ] final  -50.14 input   59.86 | X-H torsion
[ 10167 10162 10161 10158 ] final  100.22 input  -65.29 | X-H torsion
[ 10718 10713 10712 10709 ] final   40.64 input   66.30 | X-H torsion
[ 10763 10752 10751 10750 ] final  -25.57 input  -60.55 | X-H torsion
[ 11005 11000 10999 10996 ] final -163.67 input  -57.11 | X-H torsion

> <Gold.Protein.ActiveResidues>
 VAL166  LYS551  ARG553  GLY616  TRP617  ASP618  TYR619  PRO620  LYS621  CYS622 
 ASP623  PHE694  ASN695  SER759  ASP760  ASP761  ALA762  ILE779  LEU786  VAL792 
 PHE793  MET794  SER795  GLU796  ALA797  LYS798  CYS799  TRP800  GLU811  SER814 

> <Gold.Protein.RotatedAtoms>
  152.5303  134.3028  159.9084 H   0  0  0  0  0  0  0  0  0  0  0  0  # atno 6907 bound_to 6896
  151.2979  133.4129  159.2645 H   0  0  0  0  0  0  0  0  0  0  0  0  # atno 6908 bound_to 6896
  151.0144  134.9438  159.8082 H   0  0  0  0  0  0  0  0  0  0  0  0  # atno 6909 bound_to 6896
  146.2441  140.0966  142.8349 H   0  0  0  0  0  0  0  0  0  0  0  0  # atno 7974 bound_to 7965
  154.4056  140.1279  156.4617 H   0  0  0  0  0  0  0  0  0  0  0  0  # atno 8008 bound_to 7997
  155.7266  140.3492  155.5020 H   0  0  0  0  0  0  0  0  0  0  0  0  # atno 8009 bound_to 7997
  155.9165  140.1045  157.1229 H   0  0  0  0  0  0  0  0  0  0  0  0  # atno 8010 bound_to 7997
  139.7547  144.6973  151.0380 H   0  0  0  0  0  0  0  0  0  0  0  0  # atno 10167 bound_to 10162
  157.3845  130.7772  149.7219 H   0  0  0  0  0  0  0  0  0  0  0  0  # atno 10718 bound_to 10713
  153.7020  135.6956  153.5060 H   0  0  0  0  0  0  0  0  0  0  0  0  # atno 10763 bound_to 10752
  153.2335  135.4329  155.0620 H   0  0  0  0  0  0  0  0  0  0  0  0  # atno 10764 bound_to 10752
  154.8341  135.3490  154.6559 H   0  0  0  0  0  0  0  0  0  0  0  0  # atno 10765 bound_to 10752
  140.5955  134.5001  157.5198 H   0  0  0  0  0  0  0  0  0  0  0  0  # atno 11005 bound_to 11000
  145.0605  140.9084  143.4942 LP  0  0  0  0  0  0  0  0  0  0  0  0  # atno 17320 bound_to 7965
  145.1080  139.2776  143.5652 LP  0  0  0  0  0  0  0  0  0  0  0  0  # atno 17321 bound_to 7965
  140.7801  143.4767  151.0072 LP  0  0  0  0  0  0  0  0  0  0  0  0  # atno 17342 bound_to 10162
  139.8455  143.7508  152.3179 LP  0  0  0  0  0  0  0  0  0  0  0  0  # atno 17343 bound_to 10162
  155.9783  130.4052  150.3655 LP  0  0  0  0  0  0  0  0  0  0  0  0  # atno 17370 bound_to 10713
  157.1763  131.0381  151.2770 LP  0  0  0  0  0  0  0  0  0  0  0  0  # atno 17371 bound_to 10713
  139.9255  134.8064  156.1081 LP  0  0  0  0  0  0  0  0  0  0  0  0  # atno 17394 bound_to 11000
  141.0907  133.6715  156.2534 LP  0  0  0  0  0  0  0  0  0  0  0  0  # atno 17395 bound_to 11000

$$$$
