AV-unprocessed.smi:3239|AV-procd|sdf|12379|dock9
  -GOLD-   2272018243D 1   1.00000     0.00000
 Structure written by MMmdl.
 35 35  0  0  0  0  0  0  0  0  1 V2000
  151.8112  145.5256  160.0127 C   0  0  0  0  0  0  0  0  0  0  0  0
  152.1831  144.3940  159.7439 C   0  0  0  0  0  0  0  0  0  0  0  0
  152.6503  143.0363  159.4141 C   0  0  0  0  0  0  0  0  0  0  0  0
  151.9413  142.4553  158.2796 N   0  0  0  0  0  0  0  0  0  0  0  0
  152.1458  141.2220  157.7861 C   0  0  0  0  0  0  0  0  0  0  0  0
  152.9558  140.4253  158.2603 O   0  0  0  0  0  0  0  0  0  0  0  0
  151.2629  140.8272  156.6380 C   0  0  0  0  0  0  0  0  0  0  0  0
  151.3062  139.5310  156.0772 C   0  0  0  0  0  0  0  0  0  0  0  0
  150.4331  139.2138  155.0184 C   0  0  0  0  0  0  0  0  0  0  0  0
  149.5367  140.1991  154.5552 C   0  0  0  0  0  0  0  0  0  0  0  0
  148.6743  139.8751  153.4970 N   0  0  0  0  0  0  0  0  0  0  0  0
  147.2900  139.4680  153.7186 C   0  0  2  0  0  0  0  0  0  0  0  0
  146.6361  139.0034  152.4051 C   0  0  0  0  0  0  0  0  0  0  0  0
  146.5025  140.6209  154.3602 C   0  0  0  0  0  0  0  0  0  0  0  0
  146.5227  141.7457  153.4966 O   0  0  0  0  0  0  0  0  0  0  0  0
  145.9940  142.9100  154.1066 C   0  0  0  0  0  0  0  0  0  0  0  0
  149.4855  141.4400  155.0935 N   0  0  0  0  0  0  0  0  0  0  0  0
  150.3220  141.7382  156.1104 C   0  0  0  0  0  0  0  0  0  0  0  0
  151.4912  146.5163  160.2459 H   0  0  0  0  0  0  0  0  0  0  0  0
  153.7120  143.0953  159.1744 H   0  0  0  0  0  0  0  0  0  0  0  0
  152.5559  142.4089  160.3017 H   0  0  0  0  0  0  0  0  0  0  0  0
  151.2360  143.0302  157.8421 H   0  0  0  0  0  0  0  0  0  0  0  0
  151.9908  138.7818  156.4479 H   0  0  0  0  0  0  0  0  0  0  0  0
  150.4523  138.2290  154.5748 H   0  0  0  0  0  0  0  0  0  0  0  0
  149.0358  139.8501  152.5545 H   0  0  0  0  0  0  0  0  0  0  0  0
  147.2851  138.6392  154.4274 H   0  0  0  0  0  0  0  0  0  0  0  0
  145.6090  138.6772  152.5704 H   0  0  0  0  0  0  0  0  0  0  0  0
  147.1737  138.1635  151.9647 H   0  0  0  0  0  0  0  0  0  0  0  0
  146.6149  139.8061  151.6673 H   0  0  0  0  0  0  0  0  0  0  0  0
  145.4675  140.3167  154.5254 H   0  0  0  0  0  0  0  0  0  0  0  0
  146.9260  140.8790  155.3326 H   0  0  0  0  0  0  0  0  0  0  0  0
  146.0310  143.7409  153.4021 H   0  0  0  0  0  0  0  0  0  0  0  0
  146.5717  143.1906  154.9883 H   0  0  0  0  0  0  0  0  0  0  0  0
  144.9538  142.7644  154.4009 H   0  0  0  0  0  0  0  0  0  0  0  0
  150.2354  142.7394  156.5072 H   0  0  0  0  0  0  0  0  0  0  0  0
  1  2  3  0  0  0  0
  1 19  1  0  0  0  0
  2  3  1  0  0  0  0
  3  4  1  0  0  0  0
  3 20  1  0  0  0  0
  3 21  1  0  0  0  0
  4  5  1  0  0  0  0
  4 22  1  0  0  0  0
  5  6  2  0  0  0  0
  5  7  1  0  0  0  0
  7 18  1  0  0  0  0
  7  8  2  0  0  0  0
  8  9  1  0  0  0  0
  8 23  1  0  0  0  0
  9 10  2  0  0  0  0
  9 24  1  0  0  0  0
 10 11  1  0  0  0  0
 10 17  1  0  0  0  0
 11 12  1  0  0  0  0
 11 25  1  0  0  0  0
 12 13  1  0  0  0  0
 12 14  1  0  0  0  0
 12 26  1  0  0  0  0
 13 27  1  0  0  0  0
 13 28  1  0  0  0  0
 13 29  1  0  0  0  0
 14 15  1  0  0  0  0
 14 30  1  0  0  0  0
 14 31  1  0  0  0  0
 15 16  1  0  0  0  0
 16 32  1  0  0  0  0
 16 33  1  0  0  0  0
 16 34  1  0  0  0  0
 17 18  2  0  0  0  0
 18 35  1  0  0  0  0
M  END
> <s_m_source_file>
AV-unprocessed.smi

> <i_m_source_file_index>
3239

> <i_lp_mmshare_version>
43012

> <i_f3d_flags>
0

> <s_epik_input>
W0NIXSNDW0NIMl1bTkhdQyg9TyljMVtjSF1bY0hdYyhuW2NIXTEpW05IXVtDQEhdKFtDSDNdKVtDSDJdT1tDSDNd

> <s_epik_cmdline>
J2VwaWtfcHl0aG9uJywgJy1waCcsICc3LjAnLCAnLXRuJywgJzgnLCAnLW1hJywgJzIwMCcsICctbWV0YWxfYmluZGluZycsICctaW1hZScsICc8aW5maWxlLm1hZT4nLCAnLW9tYWUnLCAnPG91dGZpbGUubWFlPic=

> <r_lp_tautomer_probability>
1

> <r_epik_Ionization_Penalty>
0.00321854

> <r_epik_Ionization_Penalty_Charging>
0

> <r_epik_Ionization_Penalty_Neutral>
0.00321854

> <r_epik_State_Penalty>
0.00226446

> <r_epik_Charging_Adjusted_Penalty>
0.00226446

> <i_epik_Tot_Q>
0

> <i_epik_Tot_abs_Q>
0

> <r_epik_Metal_State_Penalty>
-0

> <b_epik_Metal_Only>
0

> <s_lp_Force_Field>
OPLS_2005

> <r_lp_Energy>
6.08626

> <b_lp_Chiralities_Consistent>
1

> <s_lp_Variant>
AV-unprocessed.smi:3239-1

> <Gold.Version>
5.8.1

> <Gold.Id.Protein>
6NUR|6NUR_protein|mol2

> <Gold.PLP.Fitness>
44.8542

> <Gold.PLP.PLP>
-38.0348

> <Gold.PLP.part.hbond>
-1.9692

> <Gold.PLP.part.metal>
0.0000

> <Gold.PLP.part.buried>
-4.7915

> <Gold.PLP.part.nonpolar>
-32.0829

> <Gold.PLP.part.repulsive>
0.5222

> <Gold.PLP.ligand.clash>
0.0000

> <Gold.PLP.ligand.torsion>
0.7945

> <Gold.PLP.Chemscore.Hbond>
1.8018

> <Gold.PLP.Chemscore.CHOScore>
0.9825

> <Gold.PLP.Chemscore.Metal>
0.0000

> <Gold.Chemscore.Hbonds>
donor molecule, donor type, donor heavy atom, donor atom, acceptor molecule, acceptor atom, score
      L1  H    11    25       P1  7957  0.98
      P1  H  7997  8010       L1     6  0.76
      L1  C    18    35       P1  8028  0.98

> <Gold.PLP.Chemscore.Internal.Correction>
0.0553

> <Gold.Rescore>
     Score         DG    S(hbond)    S(metal)    S(lipo)     H(rot)  DE(clash)    DE(int)     intcor
     16.53     -17.58       1.77        0.00      88.45       1.62       0.29       0.77       ----

> <Gold.Chemscore.Fitness>
16.5288

> <Gold.Chemscore.DG>
-17.5827

> <Gold.Chemscore.ZeroCoef>
-5.4800

> <Gold.Chemscore.Hbond>
1.7659

> <Gold.Chemscore.Metal>
0.0000

> <Gold.Chemscore.Lipo>
88.4549

> <Gold.Chemscore.Internal_Hbond>
0.0000

> <Gold.Chemscore.DEClash>
0.2853

> <Gold.Chemscore.DEInternal>
0.7686

> <Gold.Chemscore.Rot>
1.6190

> <Gold.Chemscore.Internal.Correction>
   9.000000E+99

> <Gold.Chemscore.Hbonds>
donor molecule, donor type, donor heavy atom, donor atom, acceptor molecule, acceptor atom, score
      L1  H    11    25       P1  7957  0.91
      P1  H  7997  8010       L1     6  0.57

> <Gold.Chemscore.Hbond.Weighted>
-5.8981

> <Gold.Chemscore.Metal.Weighted>
-0.0000

> <Gold.Chemscore.Lipo.Weighted>
-10.3492

> <Gold.Chemscore.Internal_Hbond.Weighted>
0.0000

> <Gold.Chemscore.DEClash.Weighted>
0.2853

> <Gold.Chemscore.DEInternal.Weighted>
0.7686

> <Gold.Chemscore.Rot.Weighted>
4.1447

> <Gold.Chemscore.Internal.Correction.Weighted>
   9.000000E+99

> <Gold.Protein.RotatedTorsions>
[ 6907 6896 6895 6894 ] final  128.57 input  -60.11 | X-H torsion
[ 7974 7965 7964 7962 ] final -175.58 input  175.53 | X-H torsion
[ 8008 7997 7996 7995 ] final   41.42 input   59.86 | X-H torsion
[ 10167 10162 10161 10158 ] final -169.25 input  -65.29 | X-H torsion
[ 10718 10713 10712 10709 ] final  -81.69 input   66.30 | X-H torsion
[ 10763 10752 10751 10750 ] final   54.29 input  -60.55 | X-H torsion
[ 11005 11000 10999 10996 ] final -136.22 input  -57.11 | X-H torsion

> <Gold.Protein.ActiveResidues>
 VAL166  LYS551  ARG553  GLY616  TRP617  ASP618  TYR619  PRO620  LYS621  CYS622 
 ASP623  PHE694  ASN695  SER759  ASP760  ASP761  ALA762  ILE779  LEU786  VAL792 
 PHE793  MET794  SER795  GLU796  ALA797  LYS798  CYS799  TRP800  GLU811  SER814 

> <Gold.Protein.RotatedAtoms>
  152.3707  133.6414  159.6084 H   0  0  0  0  0  0  0  0  0  0  0  0  # atno 6907 bound_to 6896
  150.7666  133.9275  159.3426 H   0  0  0  0  0  0  0  0  0  0  0  0  # atno 6908 bound_to 6896
  151.7099  135.0916  160.0317 H   0  0  0  0  0  0  0  0  0  0  0  0  # atno 6909 bound_to 6896
  144.7128  140.1300  143.6399 H   0  0  0  0  0  0  0  0  0  0  0  0  # atno 7974 bound_to 7965
  155.2694  140.3365  155.4266 H   0  0  0  0  0  0  0  0  0  0  0  0  # atno 8008 bound_to 7997
  156.2139  140.1781  156.7674 H   0  0  0  0  0  0  0  0  0  0  0  0  # atno 8009 bound_to 7997
  154.5726  140.0667  156.8971 H   0  0  0  0  0  0  0  0  0  0  0  0  # atno 8010 bound_to 7997
  139.5934  144.1164  152.1661 H   0  0  0  0  0  0  0  0  0  0  0  0  # atno 10167 bound_to 10162
  156.0046  130.4611  150.3992 H   0  0  0  0  0  0  0  0  0  0  0  0  # atno 10718 bound_to 10713
  152.9803  135.5750  154.4881 H   0  0  0  0  0  0  0  0  0  0  0  0  # atno 10763 bound_to 10752
  154.4419  135.2776  155.1843 H   0  0  0  0  0  0  0  0  0  0  0  0  # atno 10764 bound_to 10752
  154.3507  135.6209  153.5695 H   0  0  0  0  0  0  0  0  0  0  0  0  # atno 10765 bound_to 10752
  140.8825  134.1914  157.4582 H   0  0  0  0  0  0  0  0  0  0  0  0  # atno 11005 bound_to 11000
  145.9295  139.2597  143.1333 LP  0  0  0  0  0  0  0  0  0  0  0  0  # atno 17320 bound_to 7965
  145.9537  140.8889  143.0246 LP  0  0  0  0  0  0  0  0  0  0  0  0  # atno 17321 bound_to 7965
  140.0744  144.5753  150.7168 LP  0  0  0  0  0  0  0  0  0  0  0  0  # atno 17342 bound_to 10162
  140.7192  143.2572  151.4335 LP  0  0  0  0  0  0  0  0  0  0  0  0  # atno 17343 bound_to 10162
  157.2062  131.0449  151.2624 LP  0  0  0  0  0  0  0  0  0  0  0  0  # atno 17370 bound_to 10713
  157.3931  130.7292  149.6712 LP  0  0  0  0  0  0  0  0  0  0  0  0  # atno 17371 bound_to 10713
  139.8721  134.9823  156.5152 LP  0  0  0  0  0  0  0  0  0  0  0  0  # atno 17394 bound_to 11000
  140.8444  133.8180  155.9107 LP  0  0  0  0  0  0  0  0  0  0  0  0  # atno 17395 bound_to 11000

$$$$
