AV-unprocessed.smi:2124|AV-procd|sdf|8672|dock3
  -GOLD-   2272011423D 1   1.00000     0.00000
 Structure written by MMmdl.
 46 48  0  0  0  0  0  0  0  0  2 V2000
  143.8339  139.1732  156.3421 C   0  0  0  0  0  0  0  0  0  0  0  0
  145.1798  139.6928  155.8838 C   0  0  0  0  0  0  0  0  0  0  0  0
  145.6303  139.3282  154.7446 N   0  0  0  0  0  0  0  0  0  0  0  0
  146.8717  139.8160  154.3033 C   0  0  0  0  0  0  0  0  0  0  0  0
  147.3151  139.3492  152.9277 C   0  0  0  0  0  0  0  0  0  0  0  0
  147.6085  140.6693  155.0713 C   0  0  0  0  0  0  0  0  0  0  0  0
  148.9422  141.2651  154.6158 C   0  0  0  0  0  0  0  0  0  0  0  0
  150.1475  140.8292  155.4499 C   0  0  0  0  0  0  0  0  0  0  0  0
  151.0326  140.1358  154.9489 O   0  0  0  0  0  0  0  0  0  0  0  0
  150.1820  141.2852  156.7107 N   0  0  0  0  0  0  0  0  0  0  0  0
  151.3356  141.2498  157.6018 C   0  0  2  0  0  0  0  0  0  0  0  0
  151.7177  139.7916  157.8997 C   0  0  0  0  0  0  0  0  0  0  0  0
  151.0053  142.0465  158.8865 C   0  0  1  0  0  0  0  0  0  0  0  0
  152.2120  142.3089  159.8146 C   0  0  0  0  0  0  0  0  0  0  0  0
  152.1217  143.8243  160.0790 C   0  0  1  0  0  0  0  0  0  0  0  0
  152.5577  144.5852  158.8131 C   0  0  0  0  0  0  0  0  0  0  0  0
  151.3705  144.3625  157.8585 C   0  0  0  0  0  0  0  0  0  0  0  0
  150.4264  143.4727  158.6922 C   0  0  2  0  0  0  0  0  0  0  0  0
  150.6160  144.0623  160.0853 C   0  0  0  0  0  0  0  0  0  0  0  0
  147.0543  141.0632  156.3791 C   0  0  0  0  0  0  0  0  0  0  0  0
  147.6707  141.8418  157.1053 O   0  0  0  0  0  0  0  0  0  0  0  0
  145.8434  140.5477  156.7347 N   0  5  0  0  0  0  0  0  0  0  0  0
  143.6293  138.1934  155.9090 H   0  0  0  0  0  0  0  0  0  0  0  0
  143.0441  139.8584  156.0343 H   0  0  0  0  0  0  0  0  0  0  0  0
  143.8035  139.0757  157.4281 H   0  0  0  0  0  0  0  0  0  0  0  0
  147.4523  140.1988  152.2589 H   0  0  0  0  0  0  0  0  0  0  0  0
  146.5739  138.6878  152.4773 H   0  0  0  0  0  0  0  0  0  0  0  0
  148.2555  138.8023  152.9937 H   0  0  0  0  0  0  0  0  0  0  0  0
  149.1402  141.0338  153.5688 H   0  0  0  0  0  0  0  0  0  0  0  0
  148.8696  142.3523  154.6521 H   0  0  0  0  0  0  0  0  0  0  0  0
  149.3895  141.8263  157.0272 H   0  0  0  0  0  0  0  0  0  0  0  0
  152.1853  141.7250  157.1089 H   0  0  0  0  0  0  0  0  0  0  0  0
  152.5903  139.7371  158.5507 H   0  0  0  0  0  0  0  0  0  0  0  0
  151.9604  139.2548  156.9821 H   0  0  0  0  0  0  0  0  0  0  0  0
  150.9023  139.2593  158.3906 H   0  0  0  0  0  0  0  0  0  0  0  0
  150.2625  141.4760  159.4477 H   0  0  0  0  0  0  0  0  0  0  0  0
  152.1097  141.7429  160.7411 H   0  0  0  0  0  0  0  0  0  0  0  0
  153.1665  142.0343  159.3640 H   0  0  0  0  0  0  0  0  0  0  0  0
  152.6443  144.1429  160.9815 H   0  0  0  0  0  0  0  0  0  0  0  0
  152.6870  145.6479  159.0209 H   0  0  0  0  0  0  0  0  0  0  0  0
  153.4956  144.2069  158.4050 H   0  0  0  0  0  0  0  0  0  0  0  0
  150.8873  145.3119  157.6240 H   0  0  0  0  0  0  0  0  0  0  0  0
  151.6674  143.9111  156.9127 H   0  0  0  0  0  0  0  0  0  0  0  0
  149.3948  143.4831  158.3381 H   0  0  0  0  0  0  0  0  0  0  0  0
  150.0921  143.5091  160.8668 H   0  0  0  0  0  0  0  0  0  0  0  0
  150.3429  145.1172  160.1501 H   0  0  0  0  0  0  0  0  0  0  0  0
  1  2  1  0  0  0  0
  1 23  1  0  0  0  0
  1 24  1  0  0  0  0
  1 25  1  0  0  0  0
  2 22  1  0  0  0  0
  2  3  2  0  0  0  0
  3  4  1  0  0  0  0
  4  5  1  0  0  0  0
  4  6  2  0  0  0  0
  5 26  1  0  0  0  0
  5 27  1  0  0  0  0
  5 28  1  0  0  0  0
  6  7  1  0  0  0  0
  6 20  1  0  0  0  0
  7  8  1  0  0  0  0
  7 29  1  0  0  0  0
  7 30  1  0  0  0  0
  8  9  2  0  0  0  0
  8 10  1  0  0  0  0
 10 11  1  0  0  0  0
 10 31  1  0  0  0  0
 11 12  1  0  0  0  0
 11 13  1  0  0  0  0
 11 32  1  0  0  0  0
 12 33  1  0  0  0  0
 12 34  1  0  0  0  0
 12 35  1  0  0  0  0
 13 18  1  0  0  0  0
 13 14  1  0  0  0  0
 13 36  1  0  0  0  0
 14 15  1  0  0  0  0
 14 37  1  0  0  0  0
 14 38  1  0  0  0  0
 15 19  1  0  0  0  0
 15 16  1  0  0  0  0
 15 39  1  0  0  0  0
 16 17  1  0  0  0  0
 16 40  1  0  0  0  0
 16 41  1  0  0  0  0
 17 18  1  0  0  0  0
 17 42  1  0  0  0  0
 17 43  1  0  0  0  0
 18 19  1  0  0  0  0
 18 44  1  0  0  0  0
 19 45  1  0  0  0  0
 19 46  1  0  0  0  0
 20 21  2  0  0  0  0
 20 22  1  0  0  0  0
M  CHG  1  22  -1
M  END
> <s_m_source_file>
AV-unprocessed.smi

> <i_m_source_file_index>
2124

> <i_lp_mmshare_version>
43012

> <i_f3d_flags>
0

> <s_epik_input>
W0NIM11jMW5jKFtDSDNdKWMoYyg9TylbbkhdMSlbQ0gyXUMoPU8pW05IXVtDQEhdKFtDSDNdKVtDQEhdKFtDSDJdW0NASF0yMylbQ0BIXShbQ0gyXTMpW0NIMl1bQ0gyXTI=

> <s_epik_cmdline>
J2VwaWtfcHl0aG9uJywgJy1waCcsICc3LjAnLCAnLXRuJywgJzgnLCAnLW1hJywgJzIwMCcsICctbWV0YWxfYmluZGluZycsICctaW1hZScsICc8aW5maWxlLm1hZT4nLCAnLW9tYWUnLCAnPG91dGZpbGUubWFlPic=

> <r_lp_tautomer_probability>
0.839158

> <r_epik_Ionization_Penalty>
6.63797

> <r_epik_Ionization_Penalty_Charging>
7.48558e-08

> <r_epik_Ionization_Penalty_Neutral>
6.63797

> <r_epik_State_Penalty>
4.49496

> <r_epik_Charging_Adjusted_Penalty>
4.49496

> <i_epik_Tot_Q>
-1

> <i_epik_Tot_abs_Q>
1

> <r_epik_Metal_State_Penalty>
0.841241

> <b_epik_Metal_Only>
1

> <s_lp_Force_Field>
OPLS_2005

> <r_lp_Energy>
53.1649

> <b_lp_Chiralities_Consistent>
1

> <s_lp_Variant>
AV-unprocessed.smi:2124-23

> <Gold.Version>
5.8.1

> <Gold.Id.Protein>
6NUR|6NUR_protein|mol2

> <Gold.PLP.Fitness>
41.7294

> <Gold.PLP.PLP>
-39.0940

> <Gold.PLP.part.hbond>
-1.0000

> <Gold.PLP.part.metal>
0.0000

> <Gold.PLP.part.buried>
-4.7267

> <Gold.PLP.part.nonpolar>
-34.1282

> <Gold.PLP.part.repulsive>
2.0018

> <Gold.PLP.ligand.clash>
0.0000

> <Gold.PLP.ligand.torsion>
0.2029

> <Gold.PLP.Chemscore.Hbond>
1.0000

> <Gold.PLP.Chemscore.CHOScore>
0.0000

> <Gold.PLP.Chemscore.Metal>
0.0000

> <Gold.Chemscore.Hbonds>
donor molecule, donor type, donor heavy atom, donor atom, acceptor molecule, acceptor atom, score
      P1  H  7989  7998       L1     9  1.00

> <Gold.PLP.Chemscore.Internal.Correction>
0.0412

> <Gold.Rescore>
     Score         DG    S(hbond)    S(metal)    S(lipo)     H(rot)  DE(clash)    DE(int)     intcor
     14.77     -17.90       0.95        0.00     114.20       1.61       0.07       3.06       ----

> <Gold.Chemscore.Fitness>
14.7666

> <Gold.Chemscore.DG>
-17.9050

> <Gold.Chemscore.ZeroCoef>
-5.4800

> <Gold.Chemscore.Hbond>
0.9497

> <Gold.Chemscore.Metal>
0.0000

> <Gold.Chemscore.Lipo>
114.2040

> <Gold.Chemscore.Internal_Hbond>
0.0000

> <Gold.Chemscore.DEClash>
0.0735

> <Gold.Chemscore.DEInternal>
3.0649

> <Gold.Chemscore.Rot>
1.6051

> <Gold.Chemscore.Internal.Correction>
   9.000000E+99

> <Gold.Chemscore.Hbonds>
donor molecule, donor type, donor heavy atom, donor atom, acceptor molecule, acceptor atom, score
      P1  H  7989  7998       L1     9  0.78

> <Gold.Chemscore.Hbond.Weighted>
-3.1721

> <Gold.Chemscore.Metal.Weighted>
-0.0000

> <Gold.Chemscore.Lipo.Weighted>
-13.3619

> <Gold.Chemscore.Internal_Hbond.Weighted>
0.0000

> <Gold.Chemscore.DEClash.Weighted>
0.0735

> <Gold.Chemscore.DEInternal.Weighted>
3.0649

> <Gold.Chemscore.Rot.Weighted>
4.1090

> <Gold.Chemscore.Internal.Correction.Weighted>
   9.000000E+99

> <Gold.Protein.RotatedTorsions>
[ 6907 6896 6895 6894 ] final  128.39 input  -60.11 | X-H torsion
[ 7974 7965 7964 7962 ] final  133.52 input  175.53 | X-H torsion
[ 8008 7997 7996 7995 ] final  -17.16 input   59.86 | X-H torsion
[ 10167 10162 10161 10158 ] final  146.10 input  -65.29 | X-H torsion
[ 10718 10713 10712 10709 ] final  -27.48 input   66.30 | X-H torsion
[ 10763 10752 10751 10750 ] final -123.80 input  -60.55 | X-H torsion
[ 11005 11000 10999 10996 ] final  -46.29 input  -57.11 | X-H torsion

> <Gold.Protein.ActiveResidues>
 VAL166  LYS551  ARG553  GLY616  TRP617  ASP618  TYR619  PRO620  LYS621  CYS622 
 ASP623  PHE694  ASN695  SER759  ASP760  ASP761  ALA762  ILE779  LEU786  VAL792 
 PHE793  MET794  SER795  GLU796  ALA797  LYS798  CYS799  TRP800  GLU811  SER814 

> <Gold.Protein.RotatedAtoms>
  152.3723  133.6435  159.6096 H   0  0  0  0  0  0  0  0  0  0  0  0  # atno 6907 bound_to 6896
  150.7678  133.9250  159.3418 H   0  0  0  0  0  0  0  0  0  0  0  0  # atno 6908 bound_to 6896
  151.7070  135.0921  160.0312 H   0  0  0  0  0  0  0  0  0  0  0  0  # atno 6909 bound_to 6896
  144.9856  139.4459  143.5364 H   0  0  0  0  0  0  0  0  0  0  0  0  # atno 7974 bound_to 7965
  154.4998  140.2150  155.9369 H   0  0  0  0  0  0  0  0  0  0  0  0  # atno 8008 bound_to 7997
  156.1419  140.3178  155.8477 H   0  0  0  0  0  0  0  0  0  0  0  0  # atno 8009 bound_to 7997
  155.4103  140.0490  157.3023 H   0  0  0  0  0  0  0  0  0  0  0  0  # atno 8010 bound_to 7997
  139.4913  144.5854  151.6788 H   0  0  0  0  0  0  0  0  0  0  0  0  # atno 10167 bound_to 10162
  156.4377  130.4458  149.7074 H   0  0  0  0  0  0  0  0  0  0  0  0  # atno 10718 bound_to 10713
  154.8713  135.4086  154.3002 H   0  0  0  0  0  0  0  0  0  0  0  0  # atno 10763 bound_to 10752
  153.3863  135.7013  153.6533 H   0  0  0  0  0  0  0  0  0  0  0  0  # atno 10764 bound_to 10752
  153.5335  135.3662  155.2658 H   0  0  0  0  0  0  0  0  0  0  0  0  # atno 10765 bound_to 10752
  141.0570  133.6722  156.3134 H   0  0  0  0  0  0  0  0  0  0  0  0  # atno 11005 bound_to 11000
  146.3419  139.9156  142.8774 LP  0  0  0  0  0  0  0  0  0  0  0  0  # atno 17320 bound_to 7965
  145.2358  140.9990  143.3964 LP  0  0  0  0  0  0  0  0  0  0  0  0  # atno 17321 bound_to 7965
  140.5469  144.0488  150.6111 LP  0  0  0  0  0  0  0  0  0  0  0  0  # atno 17342 bound_to 10162
  140.3529  143.2952  152.0467 LP  0  0  0  0  0  0  0  0  0  0  0  0  # atno 17343 bound_to 10162
  156.3952  130.7647  151.2651 LP  0  0  0  0  0  0  0  0  0  0  0  0  # atno 17370 bound_to 10713
  157.7507  131.0256  150.3927 LP  0  0  0  0  0  0  0  0  0  0  0  0  # atno 17371 bound_to 10713
  140.5945  134.5617  157.5506 LP  0  0  0  0  0  0  0  0  0  0  0  0  # atno 17394 bound_to 11000
  139.9398  134.7807  156.0706 LP  0  0  0  0  0  0  0  0  0  0  0  0  # atno 17395 bound_to 11000

$$$$
