AV-unprocessed.smi:1399|AV-procd|sdf|5685|dock1
  -GOLD-   22720 5313D 1   1.00000     0.00000
 Structure written by MMmdl.
 37 38  0  0  0  0  0  0  0  0  3 V2000
  153.1390  139.2655  156.3338 N   0  5  0  0  0  0  0  0  0  0  0  0
  152.1275  139.2784  155.4443 C   0  0  0  0  0  0  0  0  0  0  0  0
  151.4643  140.2426  155.0681 O   0  0  0  0  0  0  0  0  0  0  0  0
  151.8439  137.8914  154.8577 C   0  0  0  0  0  0  0  0  0  0  0  0
  150.5359  137.3845  155.3437 N   0  3  2  0  0  0  0  0  0  0  0  0
  150.4182  135.9107  155.2046 C   0  0  0  0  0  0  0  0  0  0  0  0
  149.1180  135.3920  155.8438 C   0  0  0  0  0  0  0  0  0  0  0  0
  147.8714  136.0935  155.2689 C   0  0  2  0  0  0  0  0  0  0  0  0
  147.6098  135.6952  153.8860 N   0  0  0  0  0  0  0  0  0  0  0  0
  146.4368  135.2461  153.4169 C   0  0  0  0  0  0  0  0  0  0  0  0
  145.4344  135.1026  154.1165 O   0  0  0  0  0  0  0  0  0  0  0  0
  146.5081  134.9768  152.1035 N   0  0  0  0  0  0  0  0  0  0  0  0
  145.4695  134.4924  151.2699 C   0  0  0  0  0  0  0  0  0  0  0  0
  145.1810  133.1536  150.8721 C   0  0  0  0  0  0  0  0  0  0  0  0
  144.1175  133.1070  150.0825 N   0  0  0  0  0  0  0  0  0  0  0  0
  143.7255  134.3963  149.9730 N   0  0  0  0  0  0  0  0  0  0  0  0
  144.5201  135.2719  150.6795 C   0  0  0  0  0  0  0  0  0  0  0  0
  148.0477  137.6186  155.3645 C   0  0  0  0  0  0  0  0  0  0  0  0
  149.3729  138.0877  154.7375 C   0  0  0  0  0  0  0  0  0  0  0  0
  142.9233  134.6593  149.4182 H   0  0  0  0  0  0  0  0  0  0  0  0
  152.9274  139.3964  157.3303 H   0  0  0  0  0  0  0  0  0  0  0  0
  151.8769  137.8778  153.7660 H   0  0  0  0  0  0  0  0  0  0  0  0
  152.6469  137.2362  155.1986 H   0  0  0  0  0  0  0  0  0  0  0  0
  150.4584  135.6381  154.1489 H   0  0  0  0  0  0  0  0  0  0  0  0
  151.2679  135.4273  155.6881 H   0  0  0  0  0  0  0  0  0  0  0  0
  149.0446  134.3112  155.7188 H   0  0  0  0  0  0  0  0  0  0  0  0
  149.1592  135.5660  156.9197 H   0  0  0  0  0  0  0  0  0  0  0  0
  147.0025  135.8156  155.8682 H   0  0  0  0  0  0  0  0  0  0  0  0
  148.3762  135.7829  153.2347 H   0  0  0  0  0  0  0  0  0  0  0  0
  147.3963  135.1364  151.6512 H   0  0  0  0  0  0  0  0  0  0  0  0
  145.6878  132.2321  151.1172 H   0  0  0  0  0  0  0  0  0  0  0  0
  144.3442  136.3375  150.6976 H   0  0  0  0  0  0  0  0  0  0  0  0
  147.2074  138.1279  154.8910 H   0  0  0  0  0  0  0  0  0  0  0  0
  148.0282  137.9159  156.4140 H   0  0  0  0  0  0  0  0  0  0  0  0
  149.4664  139.1645  154.8805 H   0  0  0  0  0  0  0  0  0  0  0  0
  149.3642  137.9165  153.6600 H   0  0  0  0  0  0  0  0  0  0  0  0
  150.5162  137.5814  156.3345 H   0  0  0  0  0  0  0  0  0  0  0  0
  1  2  1  0  0  0  0
  1 21  1  0  0  0  0
  2  3  2  0  0  0  0
  2  4  1  0  0  0  0
  4  5  1  0  0  0  0
  4 22  1  0  0  0  0
  4 23  1  0  0  0  0
  5 19  1  0  0  0  0
  5  6  1  0  0  0  0
  5 37  1  0  0  0  0
  6  7  1  0  0  0  0
  6 24  1  0  0  0  0
  6 25  1  0  0  0  0
  7  8  1  0  0  0  0
  7 26  1  0  0  0  0
  7 27  1  0  0  0  0
  8  9  1  0  0  0  0
  8 18  1  0  0  0  0
  8 28  1  0  0  0  0
  9 10  1  0  0  0  0
  9 29  1  0  0  0  0
 10 11  2  0  0  0  0
 10 12  1  0  0  0  0
 12 13  1  0  0  0  0
 12 30  1  0  0  0  0
 13 17  2  0  0  0  0
 13 14  1  0  0  0  0
 14 15  2  0  0  0  0
 14 31  1  0  0  0  0
 15 16  1  0  0  0  0
 16 20  1  0  0  0  0
 16 17  1  0  0  0  0
 17 32  1  0  0  0  0
 18 19  1  0  0  0  0
 18 33  1  0  0  0  0
 18 34  1  0  0  0  0
 19 35  1  0  0  0  0
 19 36  1  0  0  0  0
M  CHG  1   1  -1
M  CHG  1   5   1
M  END
> <s_m_source_file>
AV-unprocessed.smi

> <i_m_source_file_index>
1399

> <i_lp_mmshare_version>
43012

> <i_f3d_flags>
0

> <s_epik_input>
W05IMl1DKD1PKVtDSDJdTjFbQ0gyXVtDSDJdW0NIXShbQ0gyXVtDSDJdMSlbTkhdQyg9TylbTkhdYzJbY0hdbltuSF1bY0hdMg==

> <s_epik_cmdline>
J2VwaWtfcHl0aG9uJywgJy1waCcsICc3LjAnLCAnLXRuJywgJzgnLCAnLW1hJywgJzIwMCcsICctbWV0YWxfYmluZGluZycsICctaW1hZScsICc8aW5maWxlLm1hZT4nLCAnLW9tYWUnLCAnPG91dGZpbGUubWFlPic=

> <r_lp_tautomer_probability>
0.5

> <r_epik_Ionization_Penalty>
5.72885

> <r_epik_Ionization_Penalty_Charging>
5.7288

> <r_epik_Ionization_Penalty_Neutral>
4.21226e-05

> <r_epik_State_Penalty>
6.54882

> <r_epik_Charging_Adjusted_Penalty>
12.2776

> <i_epik_Tot_Q>
0

> <i_epik_Tot_abs_Q>
2

> <r_epik_Metal_State_Penalty>
2.51297

> <b_epik_Metal_Only>
1

> <s_lp_Force_Field>
OPLS_2005

> <r_lp_Energy>
10.897

> <b_lp_Chiralities_Consistent>
1

> <s_lp_Variant>
AV-unprocessed.smi:1399-5

> <Gold.Version>
5.8.1

> <Gold.Id.Protein>
6NUR|6NUR_protein|mol2

> <Gold.PLP.Fitness>
43.6775

> <Gold.PLP.PLP>
-25.7219

> <Gold.PLP.part.hbond>
-4.6228

> <Gold.PLP.part.metal>
0.0000

> <Gold.PLP.part.buried>
-5.4023

> <Gold.PLP.part.nonpolar>
-16.5637

> <Gold.PLP.part.repulsive>
0.4186

> <Gold.PLP.ligand.clash>
0.0000

> <Gold.PLP.ligand.torsion>
1.0410

> <Gold.PLP.Chemscore.Hbond>
5.6553

> <Gold.PLP.Chemscore.CHOScore>
0.9966

> <Gold.PLP.Chemscore.Metal>
0.0000

> <Gold.Chemscore.Hbonds>
donor molecule, donor type, donor heavy atom, donor atom, acceptor molecule, acceptor atom, score
      L1  H     9    29       P1  7948  1.00
      L1  H    12    30       P1  7948  0.82
      L1  H    16    20       P1 10186  0.74
      P1  H  7989  7998       L1     3  1.00
      P1  H  7997  8010       L1     1  1.89
      L1  C    17    32       P1 10171  1.00

> <Gold.PLP.Chemscore.Internal.Correction>
0.0819

> <Gold.Rescore>
     Score         DG    S(hbond)    S(metal)    S(lipo)     H(rot)  DE(clash)    DE(int)     intcor
     18.73     -19.93       4.53        0.00      39.26       2.06       0.00       1.19       ----

> <Gold.Chemscore.Fitness>
18.7305

> <Gold.Chemscore.DG>
-19.9270

> <Gold.Chemscore.ZeroCoef>
-5.4800

> <Gold.Chemscore.Hbond>
4.5279

> <Gold.Chemscore.Metal>
0.0000

> <Gold.Chemscore.Lipo>
39.2588

> <Gold.Chemscore.Internal_Hbond>
0.0000

> <Gold.Chemscore.DEClash>
0.0021

> <Gold.Chemscore.DEInternal>
1.1944

> <Gold.Chemscore.Rot>
2.0584

> <Gold.Chemscore.Internal.Correction>
   9.000000E+99

> <Gold.Chemscore.Hbonds>
donor molecule, donor type, donor heavy atom, donor atom, acceptor molecule, acceptor atom, score
      L1  H     9    29       P1  7948  0.91
      L1  H    12    30       P1  7948  0.69
      L1  H    16    20       P1 10186  0.70
      P1  H  7989  7998       L1     3  0.94
      P1  H  7997  8010       L1     1  0.38

> <Gold.Chemscore.Hbond.Weighted>
-15.1231

> <Gold.Chemscore.Metal.Weighted>
-0.0000

> <Gold.Chemscore.Lipo.Weighted>
-4.5933

> <Gold.Chemscore.Internal_Hbond.Weighted>
0.0000

> <Gold.Chemscore.DEClash.Weighted>
0.0021

> <Gold.Chemscore.DEInternal.Weighted>
1.1944

> <Gold.Chemscore.Rot.Weighted>
5.2695

> <Gold.Chemscore.Internal.Correction.Weighted>
   9.000000E+99

> <Gold.Protein.RotatedTorsions>
[ 6907 6896 6895 6894 ] final  -36.49 input  -60.11 | X-H torsion
[ 7974 7965 7964 7962 ] final  -26.27 input  175.53 | X-H torsion
[ 8008 7997 7996 7995 ] final   94.06 input   59.86 | X-H torsion
[ 10167 10162 10161 10158 ] final   14.71 input  -65.29 | X-H torsion
[ 10718 10713 10712 10709 ] final -121.20 input   66.30 | X-H torsion
[ 10763 10752 10751 10750 ] final -107.99 input  -60.55 | X-H torsion
[ 11005 11000 10999 10996 ] final  -34.22 input  -57.11 | X-H torsion

> <Gold.Protein.ActiveResidues>
 VAL166  LYS551  ARG553  GLY616  TRP617  ASP618  TYR619  PRO620  LYS621  CYS622 
 ASP623  PHE694  ASN695  SER759  ASP760  ASP761  ALA762  ILE779  LEU786  VAL792 
 PHE793  MET794  SER795  GLU796  ALA797  LYS798  CYS799  TRP800  GLU811  SER814 

> <Gold.Protein.RotatedAtoms>
  151.0266  134.9508  159.8087 H   0  0  0  0  0  0  0  0  0  0  0  0  # atno 6907 bound_to 6896
  152.5336  134.2835  159.9026 H   0  0  0  0  0  0  0  0  0  0  0  0  # atno 6908 bound_to 6896
  151.2843  133.4153  159.2663 H   0  0  0  0  0  0  0  0  0  0  0  0  # atno 6909 bound_to 6896
  146.1436  140.4998  142.8641 H   0  0  0  0  0  0  0  0  0  0  0  0  # atno 7974 bound_to 7965
  156.0538  140.3305  155.7381 H   0  0  0  0  0  0  0  0  0  0  0  0  # atno 8008 bound_to 7997
  155.5561  140.0614  157.2857 H   0  0  0  0  0  0  0  0  0  0  0  0  # atno 8009 bound_to 7997
  154.4448  140.1885  156.0723 H   0  0  0  0  0  0  0  0  0  0  0  0  # atno 8010 bound_to 7997
  140.5917  143.8782  150.6880 H   0  0  0  0  0  0  0  0  0  0  0  0  # atno 10167 bound_to 10162
  156.1318  130.6401  150.9633 H   0  0  0  0  0  0  0  0  0  0  0  0  # atno 10718 bound_to 10713
  154.8108  135.4654  154.0513 H   0  0  0  0  0  0  0  0  0  0  0  0  # atno 10763 bound_to 10752
  153.1945  135.6860  153.8317 H   0  0  0  0  0  0  0  0  0  0  0  0  # atno 10764 bound_to 10752
  153.7823  135.3255  155.3345 H   0  0  0  0  0  0  0  0  0  0  0  0  # atno 10765 bound_to 10752
  140.9698  133.7116  156.1506 H   0  0  0  0  0  0  0  0  0  0  0  0  # atno 11005 bound_to 11000
  144.7821  140.5861  143.6599 LP  0  0  0  0  0  0  0  0  0  0  0  0  # atno 17320 bound_to 7965
  145.4989  139.1484  143.3668 LP  0  0  0  0  0  0  0  0  0  0  0  0  # atno 17321 bound_to 7965
  140.2307  143.3738  152.1568 LP  0  0  0  0  0  0  0  0  0  0  0  0  # atno 17342 bound_to 10162
  139.5232  144.7068  151.5330 LP  0  0  0  0  0  0  0  0  0  0  0  0  # atno 17343 bound_to 10162
  157.6495  131.0899  150.8082 LP  0  0  0  0  0  0  0  0  0  0  0  0  # atno 17370 bound_to 10713
  156.8166  130.4970  149.5348 LP  0  0  0  0  0  0  0  0  0  0  0  0  # atno 17371 bound_to 10713
  140.7345  134.4218  157.5562 LP  0  0  0  0  0  0  0  0  0  0  0  0  # atno 17394 bound_to 11000
  139.8908  134.8795  156.2351 LP  0  0  0  0  0  0  0  0  0  0  0  0  # atno 17395 bound_to 11000

$$$$
