AV-unprocessed.smi:37|AV-procd|sdf|314|dock7
  -GOLD-   2262016133D 1   1.00000     0.00000
 Structure written by MMmdl.
 44 45  0  0  0  0  0  0  0  0  1 V2000
  153.2857  141.2123  159.4797 C   0  0  0  0  0  0  0  0  0  0  0  0
  152.1482  141.6040  158.5254 C   0  0  0  0  0  0  0  0  0  0  0  0
  151.9788  140.6432  157.3467 C   0  0  0  0  0  0  0  0  0  0  0  0
  152.5928  139.5777  157.2670 O   0  0  0  0  0  0  0  0  0  0  0  0
  151.0982  141.1075  156.4487 O   0  0  0  0  0  0  0  0  0  0  0  0
  150.7739  140.3297  155.3082 C   0  0  0  0  0  0  0  0  0  0  0  0
  149.2521  140.3123  155.1206 C   0  0  1  0  0  0  0  0  0  0  0  0
  148.7969  141.6107  154.7454 O   0  0  0  0  0  0  0  0  0  0  0  0
  147.7367  141.5055  153.8429 C   0  0  2  0  0  0  0  0  0  0  0  0
  146.5503  142.2438  154.4184 N   0  0  0  0  0  0  0  0  0  0  0  0
  146.1195  143.4343  153.8492 C   0  0  0  0  0  0  0  0  0  0  0  0
  145.0455  144.1232  154.3012 C   0  0  0  0  0  0  0  0  0  0  0  0
  144.6917  145.2706  153.6981 F   0  0  0  0  0  0  0  0  0  0  0  0
  144.2688  143.6294  155.4344 C   0  0  0  0  0  0  0  0  0  0  0  0
  143.2832  144.1823  155.9179 O   0  0  0  0  0  0  0  0  0  0  0  0
  144.7333  142.4246  155.9703 N   0  0  0  0  0  0  0  0  0  0  0  0
  145.8382  141.7037  155.5131 C   0  0  0  0  0  0  0  0  0  0  0  0
  146.1546  140.6538  156.0703 O   0  0  0  0  0  0  0  0  0  0  0  0
  147.4308  140.0195  153.6521 C   0  0  1  0  0  0  0  0  0  0  0  0
  146.8898  139.6102  151.7809 Br  0  0  0  0  0  0  0  0  0  0  0  0
  148.7585  139.3844  154.0045 C   0  0  2  0  0  0  0  0  0  0  0  0
  148.5446  138.0519  154.4538 O   0  0  0  0  0  0  0  0  0  0  0  0
  149.5866  137.2436  154.7173 C   0  0  0  0  0  0  0  0  0  0  0  0
  150.7764  137.5395  154.5947 O   0  0  0  0  0  0  0  0  0  0  0  0
  149.1320  135.8700  155.2142 C   0  0  0  0  0  0  0  0  0  0  0  0
  149.6224  134.7071  154.3383 C   0  0  0  0  0  0  0  0  0  0  0  0
  144.2261  142.0437  156.7560 H   0  0  0  0  0  0  0  0  0  0  0  0
  153.3584  141.9241  160.3020 H   0  0  0  0  0  0  0  0  0  0  0  0
  154.2489  141.2005  158.9683 H   0  0  0  0  0  0  0  0  0  0  0  0
  153.1193  140.2252  159.9124 H   0  0  0  0  0  0  0  0  0  0  0  0
  151.2075  141.6446  159.0748 H   0  0  0  0  0  0  0  0  0  0  0  0
  152.3269  142.6050  158.1320 H   0  0  0  0  0  0  0  0  0  0  0  0
  151.2514  140.7788  154.4366 H   0  0  0  0  0  0  0  0  0  0  0  0
  151.1548  139.3115  155.4025 H   0  0  0  0  0  0  0  0  0  0  0  0
  148.7596  140.0619  156.0618 H   0  0  0  0  0  0  0  0  0  0  0  0
  148.0499  141.9957  152.9207 H   0  0  0  0  0  0  0  0  0  0  0  0
  146.6606  143.8378  153.0061 H   0  0  0  0  0  0  0  0  0  0  0  0
  146.6399  139.6950  154.3296 H   0  0  0  0  0  0  0  0  0  0  0  0
  149.4242  139.4451  153.1420 H   0  0  0  0  0  0  0  0  0  0  0  0
  149.4915  135.7354  156.2347 H   0  0  0  0  0  0  0  0  0  0  0  0
  148.0428  135.8621  155.2597 H   0  0  0  0  0  0  0  0  0  0  0  0
  149.2816  133.7535  154.7415 H   0  0  0  0  0  0  0  0  0  0  0  0
  150.7116  134.6749  154.2930 H   0  0  0  0  0  0  0  0  0  0  0  0
  149.2427  134.7876  153.3191 H   0  0  0  0  0  0  0  0  0  0  0  0
  1  2  1  0  0  0  0
  1 28  1  0  0  0  0
  1 29  1  0  0  0  0
  1 30  1  0  0  0  0
  2  3  1  0  0  0  0
  2 31  1  0  0  0  0
  2 32  1  0  0  0  0
  3  4  2  0  0  0  0
  3  5  1  0  0  0  0
  5  6  1  0  0  0  0
  6  7  1  0  0  0  0
  6 33  1  0  0  0  0
  6 34  1  0  0  0  0
  7 21  1  0  0  0  0
  7  8  1  0  0  0  0
  7 35  1  0  0  0  0
  8  9  1  0  0  0  0
  9 10  1  0  0  0  0
  9 19  1  0  0  0  0
  9 36  1  0  0  0  0
 10 17  1  0  0  0  0
 10 11  1  0  0  0  0
 11 12  2  0  0  0  0
 11 37  1  0  0  0  0
 12 13  1  0  0  0  0
 12 14  1  0  0  0  0
 14 15  2  0  0  0  0
 14 16  1  0  0  0  0
 16 27  1  0  0  0  0
 16 17  1  0  0  0  0
 17 18  2  0  0  0  0
 19 20  1  0  0  0  0
 19 21  1  0  0  0  0
 19 38  1  0  0  0  0
 21 22  1  0  0  0  0
 21 39  1  0  0  0  0
 22 23  1  0  0  0  0
 23 24  2  0  0  0  0
 23 25  1  0  0  0  0
 25 26  1  0  0  0  0
 25 40  1  0  0  0  0
 25 41  1  0  0  0  0
 26 42  1  0  0  0  0
 26 43  1  0  0  0  0
 26 44  1  0  0  0  0
M  END
> <s_m_source_file>
AV-unprocessed.smi

> <i_m_source_file_index>
37

> <i_lp_mmshare_version>
43012

> <i_f3d_flags>
0

> <s_epik_input>
W0NIM11bQ0gyXUMoPU8pT1tDSDJdW0NAQEhdMU9bQ0BASF0objJbY0hdYyhGKWMoPU8pW25IXWMyPU8pW0NAQEhdKEJyKVtDQEhdMU9DKD1PKVtDSDJdW0NIM10=

> <s_epik_cmdline>
J2VwaWtfcHl0aG9uJywgJy1waCcsICc3LjAnLCAnLXRuJywgJzgnLCAnLW1hJywgJzIwMCcsICctbWV0YWxfYmluZGluZycsICctaW1hZScsICc8aW5maWxlLm1hZT4nLCAnLW9tYWUnLCAnPG91dGZpbGUubWFlPic=

> <r_lp_tautomer_probability>
0.999537

> <r_epik_Ionization_Penalty>
0.104106

> <r_epik_Ionization_Penalty_Charging>
0.104106

> <r_epik_Ionization_Penalty_Neutral>
3.94675e-16

> <r_epik_State_Penalty>
0.0940182

> <r_epik_Charging_Adjusted_Penalty>
0.198124

> <i_epik_Tot_Q>
0

> <i_epik_Tot_abs_Q>
0

> <r_epik_Metal_State_Penalty>
3.05314

> <b_epik_Metal_Only>
0

> <s_epik_Chemistry_Notes>
This compound has an ester and may undergo hydrolysis at high or low pH. This compound contains an acetal/aminal-like group ( X-CH(R)-Y where X, Y are N, S, or O) that may be acid/base labile, releasing an aldehyde.

> <s_lp_Force_Field>
OPLS_2005

> <r_lp_Energy>
22.7414

> <b_lp_Chiralities_Consistent>
1

> <s_lp_Variant>
AV-unprocessed.smi:37-12

> <Gold.Version>
5.8.1

> <Gold.Id.Protein>
6NUR|6NUR_protein|mol2

> <Gold.PLP.Fitness>
43.7576

> <Gold.PLP.PLP>
-42.1493

> <Gold.PLP.part.hbond>
-1.0000

> <Gold.PLP.part.metal>
0.0000

> <Gold.PLP.part.buried>
-3.6924

> <Gold.PLP.part.nonpolar>
-38.0705

> <Gold.PLP.part.repulsive>
0.5939

> <Gold.PLP.ligand.clash>
0.0000

> <Gold.PLP.ligand.torsion>
0.7484

> <Gold.PLP.Chemscore.Hbond>
1.0000

> <Gold.PLP.Chemscore.CHOScore>
0.0000

> <Gold.PLP.Chemscore.Metal>
0.0000

> <Gold.Chemscore.Hbonds>
donor molecule, donor type, donor heavy atom, donor atom, acceptor molecule, acceptor atom, score
      P1  H  7997  8010       L1     4  1.00

> <Gold.PLP.Chemscore.Internal.Correction>
0.1050

> <Gold.Rescore>
     Score         DG    S(hbond)    S(metal)    S(lipo)     H(rot)  DE(clash)    DE(int)     intcor
      4.59      -8.07       0.98        0.00      66.95       3.33       0.15       3.34       ----

> <Gold.Chemscore.Fitness>
4.5870

> <Gold.Chemscore.DG>
-8.0737

> <Gold.Chemscore.ZeroCoef>
-5.4800

> <Gold.Chemscore.Hbond>
0.9839

> <Gold.Chemscore.Metal>
0.0000

> <Gold.Chemscore.Lipo>
66.9489

> <Gold.Chemscore.Internal_Hbond>
0.0000

> <Gold.Chemscore.DEClash>
0.1462

> <Gold.Chemscore.DEInternal>
3.3405

> <Gold.Chemscore.Rot>
3.3303

> <Gold.Chemscore.Internal.Correction>
   9.000000E+99

> <Gold.Chemscore.Hbonds>
donor molecule, donor type, donor heavy atom, donor atom, acceptor molecule, acceptor atom, score
      P1  H  7997  8010       L1     4  0.49

> <Gold.Chemscore.Hbond.Weighted>
-3.2863

> <Gold.Chemscore.Metal.Weighted>
-0.0000

> <Gold.Chemscore.Lipo.Weighted>
-7.8330

> <Gold.Chemscore.Internal_Hbond.Weighted>
0.0000

> <Gold.Chemscore.DEClash.Weighted>
0.1462

> <Gold.Chemscore.DEInternal.Weighted>
3.3405

> <Gold.Chemscore.Rot.Weighted>
8.5256

> <Gold.Chemscore.Internal.Correction.Weighted>
   9.000000E+99

> <Gold.Protein.RotatedTorsions>
[ 6907 6896 6895 6894 ] final -154.80 input  -60.11 | X-H torsion
[ 7974 7965 7964 7962 ] final  101.44 input  175.53 | X-H torsion
[ 8008 7997 7996 7995 ] final   51.34 input   59.86 | X-H torsion
[ 10167 10162 10161 10158 ] final -125.61 input  -65.29 | X-H torsion
[ 10718 10713 10712 10709 ] final  111.92 input   66.30 | X-H torsion
[ 10763 10752 10751 10750 ] final  145.22 input  -60.55 | X-H torsion
[ 11005 11000 10999 10996 ] final  176.57 input  -57.11 | X-H torsion

> <Gold.Protein.ActiveResidues>
 VAL166  LYS551  ARG553  GLY616  TRP617  ASP618  TYR619  PRO620  LYS621  CYS622 
 ASP623  PHE694  ASN695  SER759  ASP760  ASP761  ALA762  ILE779  LEU786  VAL792 
 PHE793  MET794  SER795  GLU796  ALA797  LYS798  CYS799  TRP800  GLU811  SER814 

> <Gold.Protein.RotatedAtoms>
  151.2629  133.4293  159.2616 H   0  0  0  0  0  0  0  0  0  0  0  0  # atno 6907 bound_to 6896
  151.0514  134.9676  159.8224 H   0  0  0  0  0  0  0  0  0  0  0  0  # atno 6908 bound_to 6896
  152.5383  134.2583  159.8978 H   0  0  0  0  0  0  0  0  0  0  0  0  # atno 6909 bound_to 6896
  145.3723  139.2395  143.3448 H   0  0  0  0  0  0  0  0  0  0  0  0  # atno 7974 bound_to 7965
  155.4336  140.3451  155.4282 H   0  0  0  0  0  0  0  0  0  0  0  0  # atno 8008 bound_to 7997
  156.1321  140.1517  156.9080 H   0  0  0  0  0  0  0  0  0  0  0  0  # atno 8009 bound_to 7997
  154.4903  140.0843  156.7559 H   0  0  0  0  0  0  0  0  0  0  0  0  # atno 8010 bound_to 7997
  139.9803  143.5750  152.2381 H   0  0  0  0  0  0  0  0  0  0  0  0  # atno 10167 bound_to 10162
  157.6420  131.0959  150.6819 H   0  0  0  0  0  0  0  0  0  0  0  0  # atno 10718 bound_to 10713
  154.0018  135.2922  155.3402 H   0  0  0  0  0  0  0  0  0  0  0  0  # atno 10763 bound_to 10752
  154.7155  135.5131  153.8734 H   0  0  0  0  0  0  0  0  0  0  0  0  # atno 10764 bound_to 10752
  153.0763  135.6664  154.0259 H   0  0  0  0  0  0  0  0  0  0  0  0  # atno 10765 bound_to 10752
  140.3745  134.7000  157.4413 H   0  0  0  0  0  0  0  0  0  0  0  0  # atno 11005 bound_to 11000
  146.2879  140.4377  142.8750 LP  0  0  0  0  0  0  0  0  0  0  0  0  # atno 17320 bound_to 7965
  144.8567  140.7081  143.6133 LP  0  0  0  0  0  0  0  0  0  0  0  0  # atno 17321 bound_to 7965
  139.6415  144.7655  151.2329 LP  0  0  0  0  0  0  0  0  0  0  0  0  # atno 17342 bound_to 10162
  140.7491  143.6309  150.8424 LP  0  0  0  0  0  0  0  0  0  0  0  0  # atno 17343 bound_to 10162
  156.7141  130.4661  149.5539 LP  0  0  0  0  0  0  0  0  0  0  0  0  # atno 17370 bound_to 10713
  156.1710  130.6437  151.0837 LP  0  0  0  0  0  0  0  0  0  0  0  0  # atno 17371 bound_to 10713
  140.0526  134.6109  155.8844 LP  0  0  0  0  0  0  0  0  0  0  0  0  # atno 17394 bound_to 11000
  141.1944  133.6582  156.5591 LP  0  0  0  0  0  0  0  0  0  0  0  0  # atno 17395 bound_to 11000

$$$$
