AV-unprocessed.smi:2902|AV-procd|sdf|11154|dock1
  -GOLD-   2272016 33D 1   1.00000     0.00000
 Structure written by MMmdl.
 47 48  0  0  0  0  0  0  0  0  1 V2000
  152.2064  145.4745  159.8879 C   0  0  0  0  0  0  0  0  0  0  0  0
  150.7203  145.2673  159.5698 C   0  0  0  0  0  0  0  0  0  0  0  0
  150.3732  143.7975  159.2697 C   0  0  1  0  0  0  0  0  0  0  0  0
  150.8506  143.0060  160.3578 O   0  0  0  0  0  0  0  0  0  0  0  0
  152.1584  142.4562  160.2242 C   0  0  0  0  0  0  0  0  0  0  0  0
  152.1687  141.2331  159.2959 C   0  0  0  0  0  0  0  0  0  0  0  0
  153.1973  140.2533  159.8821 C   0  0  0  0  0  0  0  0  0  0  0  0
  153.7196  140.8979  161.1709 C   0  0  0  0  0  0  0  0  0  0  0  0
  152.6470  141.9114  161.5644 C   0  0  0  0  0  0  0  0  0  0  0  0
  148.8585  143.6109  159.0811 C   0  0  0  0  0  0  0  0  0  0  0  0
  148.0785  143.8743  159.9965 O   0  0  0  0  0  0  0  0  0  0  0  0
  148.4667  143.1331  157.8902 N   0  0  0  0  0  0  0  0  0  0  0  0
  147.0935  142.8136  157.5032 C   0  0  1  0  0  0  0  0  0  0  0  0
  146.1828  144.0033  157.8618 C   0  0  0  0  0  0  0  0  0  0  0  0
  147.0500  142.4482  155.9960 C   0  0  2  0  0  0  0  0  0  0  0  0
  145.6873  141.8931  155.5411 C   0  0  0  0  0  0  0  0  0  0  0  0
  148.1042  141.4995  155.6548 N   0  0  0  0  0  0  0  0  0  0  0  0
  148.3884  140.8840  154.5041 C   0  0  0  0  0  0  0  0  0  0  0  0
  149.4258  140.0624  154.5767 N   0  0  0  0  0  0  0  0  0  0  0  0
  149.7482  140.2176  155.8946 C   0  0  0  0  0  0  0  0  0  0  0  0
  148.9857  141.0639  156.5868 N   0  0  0  0  0  0  0  0  0  0  0  0
  152.4188  146.5264  160.0799 H   0  0  0  0  0  0  0  0  0  0  0  0
  152.8355  145.1544  159.0572 H   0  0  0  0  0  0  0  0  0  0  0  0
  152.5040  144.9096  160.7716 H   0  0  0  0  0  0  0  0  0  0  0  0
  150.1204  145.6281  160.4066 H   0  0  0  0  0  0  0  0  0  0  0  0
  150.4577  145.8905  158.7136 H   0  0  0  0  0  0  0  0  0  0  0  0
  150.8907  143.4942  158.3571 H   0  0  0  0  0  0  0  0  0  0  0  0
  152.8816  143.1968  159.8771 H   0  0  0  0  0  0  0  0  0  0  0  0
  151.1851  140.7615  159.2877 H   0  0  0  0  0  0  0  0  0  0  0  0
  152.4016  141.5098  158.2676 H   0  0  0  0  0  0  0  0  0  0  0  0
  152.7136  139.3017  160.1057 H   0  0  0  0  0  0  0  0  0  0  0  0
  154.0093  140.0472  159.1847 H   0  0  0  0  0  0  0  0  0  0  0  0
  153.9139  140.1669  161.9560 H   0  0  0  0  0  0  0  0  0  0  0  0
  154.6552  141.4196  160.9650 H   0  0  0  0  0  0  0  0  0  0  0  0
  153.0249  142.6937  162.2232 H   0  0  0  0  0  0  0  0  0  0  0  0
  151.8325  141.4016  162.0812 H   0  0  0  0  0  0  0  0  0  0  0  0
  149.1836  142.9408  157.2054 H   0  0  0  0  0  0  0  0  0  0  0  0
  146.7608  141.9444  158.0740 H   0  0  0  0  0  0  0  0  0  0  0  0
  145.1314  143.7682  157.6989 H   0  0  0  0  0  0  0  0  0  0  0  0
  146.4268  144.8834  157.2660 H   0  0  0  0  0  0  0  0  0  0  0  0
  146.2846  144.2769  158.9125 H   0  0  0  0  0  0  0  0  0  0  0  0
  147.2328  143.3583  155.4212 H   0  0  0  0  0  0  0  0  0  0  0  0
  144.9002  142.6420  155.6233 H   0  0  0  0  0  0  0  0  0  0  0  0
  145.3890  141.0284  156.1344 H   0  0  0  0  0  0  0  0  0  0  0  0
  145.7218  141.5836  154.4958 H   0  0  0  0  0  0  0  0  0  0  0  0
  147.8245  141.0384  153.5960 H   0  0  0  0  0  0  0  0  0  0  0  0
  150.5665  139.6875  156.3593 H   0  0  0  0  0  0  0  0  0  0  0  0
  1  2  1  0  0  0  0
  1 22  1  0  0  0  0
  1 23  1  0  0  0  0
  1 24  1  0  0  0  0
  2  3  1  0  0  0  0
  2 25  1  0  0  0  0
  2 26  1  0  0  0  0
  3  4  1  0  0  0  0
  3 10  1  0  0  0  0
  3 27  1  0  0  0  0
  4  5  1  0  0  0  0
  5  9  1  0  0  0  0
  5  6  1  0  0  0  0
  5 28  1  0  0  0  0
  6  7  1  0  0  0  0
  6 29  1  0  0  0  0
  6 30  1  0  0  0  0
  7  8  1  0  0  0  0
  7 31  1  0  0  0  0
  7 32  1  0  0  0  0
  8  9  1  0  0  0  0
  8 33  1  0  0  0  0
  8 34  1  0  0  0  0
  9 35  1  0  0  0  0
  9 36  1  0  0  0  0
 10 11  2  0  0  0  0
 10 12  1  0  0  0  0
 12 13  1  0  0  0  0
 12 37  1  0  0  0  0
 13 14  1  0  0  0  0
 13 15  1  0  0  0  0
 13 38  1  0  0  0  0
 14 39  1  0  0  0  0
 14 40  1  0  0  0  0
 14 41  1  0  0  0  0
 15 16  1  0  0  0  0
 15 17  1  0  0  0  0
 15 42  1  0  0  0  0
 16 43  1  0  0  0  0
 16 44  1  0  0  0  0
 16 45  1  0  0  0  0
 17 21  1  0  0  0  0
 17 18  1  0  0  0  0
 18 19  2  0  0  0  0
 18 46  1  0  0  0  0
 19 20  1  0  0  0  0
 20 21  2  0  0  0  0
 20 47  1  0  0  0  0
M  END
> <s_m_source_file>
AV-unprocessed.smi

> <i_m_source_file_index>
2902

> <i_lp_mmshare_version>
43012

> <i_f3d_flags>
0

> <s_epik_input>
W0NIMl0xW0NIMl1bQ0gyXVtDSDJdW0NIXTFPW0NAQEhdKFtDSDJdW0NIM10pQyg9TylbTkhdW0NASF0oW0NIM10pW0NASF0oW0NIM10pbjJbY0hdbltjSF1uMg==

> <s_epik_cmdline>
J2VwaWtfcHl0aG9uJywgJy1waCcsICc3LjAnLCAnLXRuJywgJzgnLCAnLW1hJywgJzIwMCcsICctbWV0YWxfYmluZGluZycsICctaW1hZScsICc8aW5maWxlLm1hZT4nLCAnLW9tYWUnLCAnPG91dGZpbGUubWFlPic=

> <r_lp_tautomer_probability>
1

> <r_epik_Ionization_Penalty>
6.95617e-05

> <r_epik_Ionization_Penalty_Charging>
0

> <r_epik_Ionization_Penalty_Neutral>
6.95617e-05

> <r_epik_State_Penalty>
-0

> <r_epik_Charging_Adjusted_Penalty>
0

> <i_epik_Tot_Q>
0

> <i_epik_Tot_abs_Q>
0

> <r_epik_Metal_State_Penalty>
-0

> <b_epik_Metal_Only>
0

> <s_lp_Force_Field>
OPLS_2005

> <r_lp_Energy>
29.0587

> <b_lp_Chiralities_Consistent>
1

> <s_lp_Variant>
AV-unprocessed.smi:2902-4

> <Gold.Version>
5.8.1

> <Gold.Id.Protein>
6NUR|6NUR_protein|mol2

> <Gold.PLP.Fitness>
46.9316

> <Gold.PLP.PLP>
-39.7237

> <Gold.PLP.part.hbond>
-4.0000

> <Gold.PLP.part.metal>
0.0000

> <Gold.PLP.part.buried>
-3.0714

> <Gold.PLP.part.nonpolar>
-34.2766

> <Gold.PLP.part.repulsive>
0.3841

> <Gold.PLP.ligand.clash>
0.0015

> <Gold.PLP.ligand.torsion>
0.8358

> <Gold.PLP.Chemscore.Hbond>
1.6720

> <Gold.PLP.Chemscore.CHOScore>
1.0000

> <Gold.PLP.Chemscore.Metal>
0.0000

> <Gold.Chemscore.Hbonds>
donor molecule, donor type, donor heavy atom, donor atom, acceptor molecule, acceptor atom, score
      L1  H    12    37       P1  8028  0.01
      P1  H  6933  6944       L1    11  0.75

> <Gold.PLP.Chemscore.Internal.Correction>
0.8650

> <Gold.Rescore>
     Score         DG    S(hbond)    S(metal)    S(lipo)     H(rot)  DE(clash)    DE(int)     intcor
      8.37     -12.89       1.44        0.00      81.15       2.69       0.20       4.32       ----

> <Gold.Chemscore.Fitness>
8.3726

> <Gold.Chemscore.DG>
-12.8918

> <Gold.Chemscore.ZeroCoef>
-5.4800

> <Gold.Chemscore.Hbond>
1.4409

> <Gold.Chemscore.Metal>
0.0000

> <Gold.Chemscore.Lipo>
81.1488

> <Gold.Chemscore.Internal_Hbond>
0.0000

> <Gold.Chemscore.DEClash>
0.2026

> <Gold.Chemscore.DEInternal>
4.3166

> <Gold.Chemscore.Rot>
2.6935

> <Gold.Chemscore.Internal.Correction>
   9.000000E+99

> <Gold.Chemscore.Hbonds>
donor molecule, donor type, donor heavy atom, donor atom, acceptor molecule, acceptor atom, score
      L1  H    12    37       P1  8028  0.01
      P1  H  6933  6944       L1    11  0.25

> <Gold.Chemscore.Hbond.Weighted>
-4.8127

> <Gold.Chemscore.Metal.Weighted>
-0.0000

> <Gold.Chemscore.Lipo.Weighted>
-9.4944

> <Gold.Chemscore.Internal_Hbond.Weighted>
0.0000

> <Gold.Chemscore.DEClash.Weighted>
0.2026

> <Gold.Chemscore.DEInternal.Weighted>
4.3166

> <Gold.Chemscore.Rot.Weighted>
6.8954

> <Gold.Chemscore.Internal.Correction.Weighted>
   9.000000E+99

> <Gold.Protein.RotatedTorsions>
[ 6907 6896 6895 6894 ] final   -6.02 input  -60.11 | X-H torsion
[ 7974 7965 7964 7962 ] final  107.01 input  175.53 | X-H torsion
[ 8008 7997 7996 7995 ] final  -15.00 input   59.86 | X-H torsion
[ 10167 10162 10161 10158 ] final  158.94 input  -65.29 | X-H torsion
[ 10718 10713 10712 10709 ] final -163.71 input   66.30 | X-H torsion
[ 10763 10752 10751 10750 ] final   94.17 input  -60.55 | X-H torsion
[ 11005 11000 10999 10996 ] final  163.90 input  -57.11 | X-H torsion

> <Gold.Protein.ActiveResidues>
 VAL166  LYS551  ARG553  GLY616  TRP617  ASP618  TYR619  PRO620  LYS621  CYS622 
 ASP623  PHE694  ASN695  SER759  ASP760  ASP761  ALA762  ILE779  LEU786  VAL792 
 PHE793  MET794  SER795  GLU796  ALA797  LYS798  CYS799  TRP800  GLU811  SER814 

> <Gold.Protein.RotatedAtoms>
  151.4722  135.1046  159.9754 H   0  0  0  0  0  0  0  0  0  0  0  0  # atno 6907 bound_to 6896
  152.4812  133.8255  159.7086 H   0  0  0  0  0  0  0  0  0  0  0  0  # atno 6908 bound_to 6896
  150.8885  133.7214  159.2938 H   0  0  0  0  0  0  0  0  0  0  0  0  # atno 6909 bound_to 6896
  145.2992  139.2575  143.3823 H   0  0  0  0  0  0  0  0  0  0  0  0  # atno 7974 bound_to 7965
  154.5165  140.2208  155.9056 H   0  0  0  0  0  0  0  0  0  0  0  0  # atno 8008 bound_to 7997
  156.1613  140.3141  155.8778 H   0  0  0  0  0  0  0  0  0  0  0  0  # atno 8009 bound_to 7997
  155.3745  140.0468  157.3035 H   0  0  0  0  0  0  0  0  0  0  0  0  # atno 8010 bound_to 7997
  139.4829  144.4777  151.8488 H   0  0  0  0  0  0  0  0  0  0  0  0  # atno 10167 bound_to 10162
  156.6286  130.8920  151.2973 H   0  0  0  0  0  0  0  0  0  0  0  0  # atno 10718 bound_to 10713
  153.2386  135.4299  155.0674 H   0  0  0  0  0  0  0  0  0  0  0  0  # atno 10763 bound_to 10752
  154.8330  135.3397  154.6682 H   0  0  0  0  0  0  0  0  0  0  0  0  # atno 10764 bound_to 10752
  153.7106  135.7023  153.5095 H   0  0  0  0  0  0  0  0  0  0  0  0  # atno 10765 bound_to 10752
  140.2405  134.8055  157.3406 H   0  0  0  0  0  0  0  0  0  0  0  0  # atno 11005 bound_to 11000
  146.3158  140.3502  142.8655 LP  0  0  0  0  0  0  0  0  0  0  0  0  # atno 17320 bound_to 7965
  144.9108  140.7755  143.5809 LP  0  0  0  0  0  0  0  0  0  0  0  0  # atno 17321 bound_to 7965
  140.4250  144.2192  150.5887 LP  0  0  0  0  0  0  0  0  0  0  0  0  # atno 17342 bound_to 10162
  140.4836  143.2371  151.8920 LP  0  0  0  0  0  0  0  0  0  0  0  0  # atno 17343 bound_to 10162
  157.7206  130.9554  150.1426 LP  0  0  0  0  0  0  0  0  0  0  0  0  # atno 17370 bound_to 10713
  156.2253  130.3677  149.8508 LP  0  0  0  0  0  0  0  0  0  0  0  0  # atno 17371 bound_to 10713
  140.1658  134.4671  155.7864 LP  0  0  0  0  0  0  0  0  0  0  0  0  # atno 17394 bound_to 11000
  141.2211  133.6920  156.7623 LP  0  0  0  0  0  0  0  0  0  0  0  0  # atno 17395 bound_to 11000

$$$$
