AV-unprocessed.smi:1377|AV-procd|sdf|5594|dock7
  -GOLD-   22720 5193D 1   1.00000     0.00000
 Structure written by MMmdl.
 29 30  0  0  0  0  0  0  0  0  1 V2000
  153.3686  137.8814  156.5738 N   0  0  0  0  0  0  0  0  0  0  0  0
  152.8257  138.4741  155.5068 C   0  0  0  0  0  0  0  0  0  0  0  0
  153.4860  139.1644  154.7332 O   0  0  0  0  0  0  0  0  0  0  0  0
  151.3281  138.2626  155.2749 C   0  0  0  0  0  0  0  0  0  0  0  0
  150.6176  139.5843  155.2282 C   0  0  0  0  0  0  0  0  0  0  0  0
  149.6476  139.9703  154.3338 C   0  0  0  0  0  0  0  0  0  0  0  0
  149.0829  141.5911  154.6389 S   0  0  0  0  0  0  0  0  0  0  0  0
  150.2099  141.6896  155.9828 C   0  0  0  0  0  0  0  0  0  0  0  0
  150.3163  142.8512  156.7915 N   0  0  0  0  0  0  0  0  0  0  0  0
  151.1043  143.0510  157.8644 C   0  0  0  0  0  0  0  0  0  0  0  0
  151.8939  142.2196  158.3145 O   0  0  0  0  0  0  0  0  0  0  0  0
  150.9699  144.4272  158.5311 C   0  0  0  0  0  0  0  0  0  0  0  0
  152.2980  145.1847  158.7050 C   0  0  0  0  0  0  0  0  0  0  0  0
  151.8603  145.5474  160.1271 C   0  0  0  0  0  0  0  0  0  0  0  0
  150.8599  144.3896  160.0661 C   0  0  0  0  0  0  0  0  0  0  0  0
  150.9336  140.5787  156.1599 N   0  0  0  0  0  0  0  0  0  0  0  0
  154.3543  137.9962  156.7614 H   0  0  0  0  0  0  0  0  0  0  0  0
  152.7951  137.3217  157.1878 H   0  0  0  0  0  0  0  0  0  0  0  0
  151.1899  137.7137  154.3421 H   0  0  0  0  0  0  0  0  0  0  0  0
  150.9152  137.6326  156.0639 H   0  0  0  0  0  0  0  0  0  0  0  0
  149.2286  139.3980  153.5196 H   0  0  0  0  0  0  0  0  0  0  0  0
  149.7237  143.6231  156.5231 H   0  0  0  0  0  0  0  0  0  0  0  0
  150.1976  145.0559  158.0833 H   0  0  0  0  0  0  0  0  0  0  0  0
  153.1850  144.5487  158.6866 H   0  0  0  0  0  0  0  0  0  0  0  0
  152.4138  146.0447  158.0450 H   0  0  0  0  0  0  0  0  0  0  0  0
  152.6369  145.4372  160.8844 H   0  0  0  0  0  0  0  0  0  0  0  0
  151.3740  146.5225  160.1829 H   0  0  0  0  0  0  0  0  0  0  0  0
  149.8708  144.6386  160.4515 H   0  0  0  0  0  0  0  0  0  0  0  0
  151.2453  143.4772  160.5248 H   0  0  0  0  0  0  0  0  0  0  0  0
  1  2  1  0  0  0  0
  1 17  1  0  0  0  0
  1 18  1  0  0  0  0
  2  3  2  0  0  0  0
  2  4  1  0  0  0  0
  4  5  1  0  0  0  0
  4 19  1  0  0  0  0
  4 20  1  0  0  0  0
  5 16  1  0  0  0  0
  5  6  2  0  0  0  0
  6  7  1  0  0  0  0
  6 21  1  0  0  0  0
  7  8  1  0  0  0  0
  8  9  1  0  0  0  0
  8 16  2  0  0  0  0
  9 10  1  0  0  0  0
  9 22  1  0  0  0  0
 10 11  2  0  0  0  0
 10 12  1  0  0  0  0
 12 15  1  0  0  0  0
 12 13  1  0  0  0  0
 12 23  1  0  0  0  0
 13 14  1  0  0  0  0
 13 24  1  0  0  0  0
 13 25  1  0  0  0  0
 14 15  1  0  0  0  0
 14 26  1  0  0  0  0
 14 27  1  0  0  0  0
 15 28  1  0  0  0  0
 15 29  1  0  0  0  0
M  END
> <s_m_source_file>
AV-unprocessed.smi

> <i_m_source_file_index>
1377

> <i_lp_mmshare_version>
43012

> <i_f3d_flags>
0

> <s_epik_input>
W05IMl1DKD1PKVtDSDJdYzFbY0hdc2MobjEpW05IXUMoPU8pW0NIXTJbQ0gyXVtDSDJdW0NIMl0y

> <s_epik_cmdline>
J2VwaWtfcHl0aG9uJywgJy1waCcsICc3LjAnLCAnLXRuJywgJzgnLCAnLW1hJywgJzIwMCcsICctbWV0YWxfYmluZGluZycsICctaW1hZScsICc8aW5maWxlLm1hZT4nLCAnLW9tYWUnLCAnPG91dGZpbGUubWFlPic=

> <r_lp_tautomer_probability>
1

> <r_epik_Ionization_Penalty>
0.000217978

> <r_epik_Ionization_Penalty_Charging>
0

> <r_epik_Ionization_Penalty_Neutral>
0.000217978

> <r_epik_State_Penalty>
-0

> <r_epik_Charging_Adjusted_Penalty>
0

> <i_epik_Tot_Q>
0

> <i_epik_Tot_abs_Q>
0

> <r_epik_Metal_State_Penalty>
0.13268

> <b_epik_Metal_Only>
0

> <s_lp_Force_Field>
OPLS_2005

> <r_lp_Energy>
11.3529

> <b_lp_Chiralities_Consistent>
1

> <s_lp_Variant>
AV-unprocessed.smi:1377-1

> <Gold.Version>
5.8.1

> <Gold.Id.Protein>
6NUR|6NUR_protein|mol2

> <Gold.PLP.Fitness>
44.8407

> <Gold.PLP.PLP>
-36.8660

> <Gold.PLP.part.hbond>
-2.1685

> <Gold.PLP.part.metal>
0.0000

> <Gold.PLP.part.buried>
-5.1192

> <Gold.PLP.part.nonpolar>
-30.3617

> <Gold.PLP.part.repulsive>
0.2576

> <Gold.PLP.ligand.clash>
0.0000

> <Gold.PLP.ligand.torsion>
0.4372

> <Gold.PLP.Chemscore.Hbond>
2.0000

> <Gold.PLP.Chemscore.CHOScore>
0.8159

> <Gold.PLP.Chemscore.Metal>
0.0000

> <Gold.Chemscore.Hbonds>
donor molecule, donor type, donor heavy atom, donor atom, acceptor molecule, acceptor atom, score
      L1  H     9    22       P1  8028  1.00
      P1  H  7997  8009       L1     3  1.00
      L1  C     6    21       P1  7957  0.83

> <Gold.PLP.Chemscore.Internal.Correction>
0.4015

> <Gold.Rescore>
     Score         DG    S(hbond)    S(metal)    S(lipo)     H(rot)  DE(clash)    DE(int)     intcor
     14.20     -16.09       1.96        0.00      76.86       1.92       0.07       1.82       ----

> <Gold.Chemscore.Fitness>
14.2008

> <Gold.Chemscore.DG>
-16.0865

> <Gold.Chemscore.ZeroCoef>
-5.4800

> <Gold.Chemscore.Hbond>
1.9579

> <Gold.Chemscore.Metal>
0.0000

> <Gold.Chemscore.Lipo>
76.8590

> <Gold.Chemscore.Internal_Hbond>
0.0000

> <Gold.Chemscore.DEClash>
0.0673

> <Gold.Chemscore.DEInternal>
1.8184

> <Gold.Chemscore.Rot>
1.9239

> <Gold.Chemscore.Internal.Correction>
   9.000000E+99

> <Gold.Chemscore.Hbonds>
donor molecule, donor type, donor heavy atom, donor atom, acceptor molecule, acceptor atom, score
      L1  H     9    22       P1  8028  0.99
      P1  H  7997  8009       L1     3  0.70

> <Gold.Chemscore.Hbond.Weighted>
-6.5393

> <Gold.Chemscore.Metal.Weighted>
-0.0000

> <Gold.Chemscore.Lipo.Weighted>
-8.9925

> <Gold.Chemscore.Internal_Hbond.Weighted>
0.0000

> <Gold.Chemscore.DEClash.Weighted>
0.0673

> <Gold.Chemscore.DEInternal.Weighted>
1.8184

> <Gold.Chemscore.Rot.Weighted>
4.9253

> <Gold.Chemscore.Internal.Correction.Weighted>
   9.000000E+99

> <Gold.Protein.RotatedTorsions>
[ 6907 6896 6895 6894 ] final -136.41 input  -60.11 | X-H torsion
[ 7974 7965 7964 7962 ] final  108.18 input  175.53 | X-H torsion
[ 8008 7997 7996 7995 ] final -122.29 input   59.86 | X-H torsion
[ 10167 10162 10161 10158 ] final  171.14 input  -65.29 | X-H torsion
[ 10718 10713 10712 10709 ] final -158.07 input   66.30 | X-H torsion
[ 10763 10752 10751 10750 ] final -143.90 input  -60.55 | X-H torsion
[ 11005 11000 10999 10996 ] final -143.21 input  -57.11 | X-H torsion

> <Gold.Protein.ActiveResidues>
 VAL166  LYS551  ARG553  GLY616  TRP617  ASP618  TYR619  PRO620  LYS621  CYS622 
 ASP623  PHE694  ASN695  SER759  ASP760  ASP761  ALA762  ILE779  LEU786  VAL792 
 PHE793  MET794  SER795  GLU796  ALA797  LYS798  CYS799  TRP800  GLU811  SER814 

> <Gold.Protein.RotatedAtoms>
  151.0098  133.5976  159.2683 H   0  0  0  0  0  0  0  0  0  0  0  0  # atno 6907 bound_to 6896
  151.3132  135.0798  159.9289 H   0  0  0  0  0  0  0  0  0  0  0  0  # atno 6908 bound_to 6896
  152.5296  133.9759  159.7838 H   0  0  0  0  0  0  0  0  0  0  0  0  # atno 6909 bound_to 6896
  145.2840  139.2623  143.3900 H   0  0  0  0  0  0  0  0  0  0  0  0  # atno 7974 bound_to 7965
  155.1618  140.0406  157.2844 H   0  0  0  0  0  0  0  0  0  0  0  0  # atno 8008 bound_to 7997
  154.6331  140.2529  155.7383 H   0  0  0  0  0  0  0  0  0  0  0  0  # atno 8009 bound_to 7997
  156.2495  140.2871  156.0691 H   0  0  0  0  0  0  0  0  0  0  0  0  # atno 8010 bound_to 7997
  139.5038  144.3518  151.9914 H   0  0  0  0  0  0  0  0  0  0  0  0  # atno 10167 bound_to 10162
  156.5491  130.8597  151.2774 H   0  0  0  0  0  0  0  0  0  0  0  0  # atno 10718 bound_to 10713
  154.8450  135.3455  154.6261 H   0  0  0  0  0  0  0  0  0  0  0  0  # atno 10763 bound_to 10752
  153.6871  135.6977  153.5105 H   0  0  0  0  0  0  0  0  0  0  0  0  # atno 10764 bound_to 10752
  153.2624  135.4319  155.0862 H   0  0  0  0  0  0  0  0  0  0  0  0  # atno 10765 bound_to 10752
  140.8148  134.2702  157.4926 H   0  0  0  0  0  0  0  0  0  0  0  0  # atno 11005 bound_to 11000
  146.3207  140.3315  142.8641 LP  0  0  0  0  0  0  0  0  0  0  0  0  # atno 17320 bound_to 7965
  144.9229  140.7888  143.5737 LP  0  0  0  0  0  0  0  0  0  0  0  0  # atno 17321 bound_to 7965
  140.2955  144.3706  150.6075 LP  0  0  0  0  0  0  0  0  0  0  0  0  # atno 17342 bound_to 10162
  140.5914  143.2168  151.7246 LP  0  0  0  0  0  0  0  0  0  0  0  0  # atno 17343 bound_to 10162
  157.7391  130.9825  150.2292 LP  0  0  0  0  0  0  0  0  0  0  0  0  # atno 17370 bound_to 10713
  156.2901  130.3744  149.7850 LP  0  0  0  0  0  0  0  0  0  0  0  0  # atno 17371 bound_to 10713
  139.8712  134.9503  156.4050 LP  0  0  0  0  0  0  0  0  0  0  0  0  # atno 17394 bound_to 11000
  140.9161  133.7678  155.9849 LP  0  0  0  0  0  0  0  0  0  0  0  0  # atno 17395 bound_to 11000

$$$$
