AV-unprocessed.smi:339|AV-procd|sdf|2378|dock9
  -GOLD-   2262022303D 1   1.00000     0.00000
 Structure written by MMmdl.
 45 46  0  0  0  0  0  0  0  0  1 V2000
  152.5271  142.3577  161.4643 C   0  0  0  0  0  0  0  0  0  0  0  0
  152.1611  143.0186  160.1480 C   0  0  0  0  0  0  0  0  0  0  0  0
  152.2594  144.4199  160.0254 C   0  0  0  0  0  0  0  0  0  0  0  0
  151.9112  145.0520  158.8174 C   0  0  0  0  0  0  0  0  0  0  0  0
  151.4588  144.2859  157.7274 C   0  0  0  0  0  0  0  0  0  0  0  0
  151.3573  142.8838  157.8380 C   0  0  0  0  0  0  0  0  0  0  0  0
  150.8588  142.0740  156.6556 C   0  0  0  0  0  0  0  0  0  0  0  0
  151.7218  142.2453  159.0468 C   0  0  0  0  0  0  0  0  0  0  0  0
  151.6204  140.8826  159.1589 O   0  0  0  0  0  0  0  0  0  0  0  0
  152.8612  140.2043  159.0280 C   0  0  0  0  0  0  0  0  0  0  0  0
  152.5872  138.7304  158.6874 C   0  0  2  0  0  0  0  0  0  0  0  0
  151.4980  138.3117  159.4870 O   0  0  0  0  0  0  0  0  0  0  0  0
  153.7960  137.8274  159.0203 C   0  0  0  0  0  0  0  0  0  0  0  0
  154.0192  137.7157  160.4673 N   0  0  0  0  0  0  0  0  0  0  0  0
  154.2935  138.9192  161.0862 N   0  0  0  0  0  0  0  0  0  0  0  0
  154.4936  138.9904  162.3611 C   0  0  0  0  0  0  0  0  0  0  0  0
  154.7826  140.3557  162.9250 C   0  0  0  0  0  0  0  0  0  0  0  0
  154.4313  137.7783  163.1716 C   0  0  0  0  0  0  0  0  0  0  0  0
  154.6719  137.9227  164.6683 C   0  0  0  0  0  0  0  0  0  0  0  0
  154.1720  136.6007  162.5503 C   0  0  0  0  0  0  0  0  0  0  0  0
  154.0987  135.3639  163.2591 C   0  0  0  0  0  0  0  0  0  0  0  0
  154.0587  134.3575  163.8299 N   0  0  0  0  0  0  0  0  0  0  0  0
  153.9454  136.5130  161.1058 C   0  0  0  0  0  0  0  0  0  0  0  0
  153.7051  135.4609  160.5116 O   0  0  0  0  0  0  0  0  0  0  0  0
  152.4513  143.0645  162.2910 H   0  0  0  0  0  0  0  0  0  0  0  0
  153.5502  141.9840  161.4277 H   0  0  0  0  0  0  0  0  0  0  0  0
  151.8620  141.5211  161.6802 H   0  0  0  0  0  0  0  0  0  0  0  0
  152.5993  145.0161  160.8596 H   0  0  0  0  0  0  0  0  0  0  0  0
  151.9863  146.1258  158.7288 H   0  0  0  0  0  0  0  0  0  0  0  0
  151.1879  144.7799  156.8057 H   0  0  0  0  0  0  0  0  0  0  0  0
  150.1841  141.2828  156.9831 H   0  0  0  0  0  0  0  0  0  0  0  0
  151.6975  141.6171  156.1310 H   0  0  0  0  0  0  0  0  0  0  0  0
  150.3167  142.7022  155.9486 H   0  0  0  0  0  0  0  0  0  0  0  0
  153.4130  140.6763  158.2142 H   0  0  0  0  0  0  0  0  0  0  0  0
  153.4791  140.2954  159.9233 H   0  0  0  0  0  0  0  0  0  0  0  0
  152.3268  138.6470  157.6315 H   0  0  0  0  0  0  0  0  0  0  0  0
  151.8349  137.8215  160.2209 H   0  0  0  0  0  0  0  0  0  0  0  0
  153.6333  136.8254  158.6193 H   0  0  0  0  0  0  0  0  0  0  0  0
  154.6934  138.1868  158.5124 H   0  0  0  0  0  0  0  0  0  0  0  0
  155.7169  140.3538  163.4868 H   0  0  0  0  0  0  0  0  0  0  0  0
  153.9840  140.6726  163.5962 H   0  0  0  0  0  0  0  0  0  0  0  0
  154.8729  141.1090  162.1408 H   0  0  0  0  0  0  0  0  0  0  0  0
  154.4962  136.9913  165.2057 H   0  0  0  0  0  0  0  0  0  0  0  0
  154.0070  138.6734  165.0966 H   0  0  0  0  0  0  0  0  0  0  0  0
  155.7016  138.2259  164.8596 H   0  0  0  0  0  0  0  0  0  0  0  0
  1  2  1  0  0  0  0
  1 25  1  0  0  0  0
  1 26  1  0  0  0  0
  1 27  1  0  0  0  0
  2  8  1  0  0  0  0
  2  3  2  0  0  0  0
  3  4  1  0  0  0  0
  3 28  1  0  0  0  0
  4  5  2  0  0  0  0
  4 29  1  0  0  0  0
  5  6  1  0  0  0  0
  5 30  1  0  0  0  0
  6  7  1  0  0  0  0
  6  8  2  0  0  0  0
  7 31  1  0  0  0  0
  7 32  1  0  0  0  0
  7 33  1  0  0  0  0
  8  9  1  0  0  0  0
  9 10  1  0  0  0  0
 10 11  1  0  0  0  0
 10 34  1  0  0  0  0
 10 35  1  0  0  0  0
 11 12  1  0  0  0  0
 11 13  1  0  0  0  0
 11 36  1  0  0  0  0
 12 37  1  0  0  0  0
 13 14  1  0  0  0  0
 13 38  1  0  0  0  0
 13 39  1  0  0  0  0
 14 23  1  0  0  0  0
 14 15  1  0  0  0  0
 15 16  2  0  0  0  0
 16 17  1  0  0  0  0
 16 18  1  0  0  0  0
 17 40  1  0  0  0  0
 17 41  1  0  0  0  0
 17 42  1  0  0  0  0
 18 19  1  0  0  0  0
 18 20  2  0  0  0  0
 19 43  1  0  0  0  0
 19 44  1  0  0  0  0
 19 45  1  0  0  0  0
 20 21  1  0  0  0  0
 20 23  1  0  0  0  0
 21 22  3  0  0  0  0
 23 24  2  0  0  0  0
M  END
> <s_m_source_file>
AV-unprocessed.smi

> <i_m_source_file_index>
339

> <i_lp_mmshare_version>
43012

> <i_f3d_flags>
0

> <s_epik_input>
W0NIM11jMVtjSF1bY0hdW2NIXWMoW0NIM10pYzFPW0NIMl1bQ0BIXShbT0hdKVtDSDJdbjJuYyhbQ0gzXSljKFtDSDNdKWMoQyNOKWMyPU8=

> <s_epik_cmdline>
J2VwaWtfcHl0aG9uJywgJy1waCcsICc3LjAnLCAnLXRuJywgJzgnLCAnLW1hJywgJzIwMCcsICctbWV0YWxfYmluZGluZycsICctaW1hZScsICc8aW5maWxlLm1hZT4nLCAnLW9tYWUnLCAnPG91dGZpbGUubWFlPic=

> <r_lp_tautomer_probability>
1

> <r_epik_Ionization_Penalty>
1.17331e-07

> <r_epik_Ionization_Penalty_Charging>
1.57223e-10

> <r_epik_Ionization_Penalty_Neutral>
1.17174e-07

> <r_epik_State_Penalty>
-0

> <r_epik_Charging_Adjusted_Penalty>
1.57223e-10

> <i_epik_Tot_Q>
0

> <i_epik_Tot_abs_Q>
0

> <r_epik_Metal_State_Penalty>
-0

> <b_epik_Metal_Only>
0

> <s_lp_Force_Field>
OPLS_2005

> <r_lp_Energy>
35.9352

> <b_lp_Chiralities_Consistent>
1

> <s_lp_Variant>
AV-unprocessed.smi:339-1

> <Gold.Version>
5.8.1

> <Gold.Id.Protein>
6NUR|6NUR_protein|mol2

> <Gold.PLP.Fitness>
49.9123

> <Gold.PLP.PLP>
-48.0045

> <Gold.PLP.part.hbond>
-1.0000

> <Gold.PLP.part.metal>
0.0000

> <Gold.PLP.part.buried>
-5.6240

> <Gold.PLP.part.nonpolar>
-40.9051

> <Gold.PLP.part.repulsive>
0.0394

> <Gold.PLP.ligand.clash>
0.0000

> <Gold.PLP.ligand.torsion>
0.5834

> <Gold.PLP.Chemscore.Hbond>
1.0000

> <Gold.PLP.Chemscore.CHOScore>
0.0000

> <Gold.PLP.Chemscore.Metal>
0.0000

> <Gold.Chemscore.Hbonds>
donor molecule, donor type, donor heavy atom, donor atom, acceptor molecule, acceptor atom, score
      P1  H  6896  6909       L1    24  1.00

> <Gold.PLP.Chemscore.Internal.Correction>
0.0747

> <Gold.Rescore>
     Score         DG    S(hbond)    S(metal)    S(lipo)     H(rot)  DE(clash)    DE(int)     intcor
     17.53     -19.72       1.00        0.00     143.32       2.29       0.05       2.14       ----

> <Gold.Chemscore.Fitness>
17.5271

> <Gold.Chemscore.DG>
-19.7240

> <Gold.Chemscore.ZeroCoef>
-5.4800

> <Gold.Chemscore.Hbond>
0.9998

> <Gold.Chemscore.Metal>
0.0000

> <Gold.Chemscore.Lipo>
143.3172

> <Gold.Chemscore.Internal_Hbond>
0.0000

> <Gold.Chemscore.DEClash>
0.0548

> <Gold.Chemscore.DEInternal>
2.1421

> <Gold.Chemscore.Rot>
2.2905

> <Gold.Chemscore.Internal.Correction>
   9.000000E+99

> <Gold.Chemscore.Hbonds>
donor molecule, donor type, donor heavy atom, donor atom, acceptor molecule, acceptor atom, score
      P1  H  6896  6909       L1    24  0.97

> <Gold.Chemscore.Hbond.Weighted>
-3.3395

> <Gold.Chemscore.Metal.Weighted>
-0.0000

> <Gold.Chemscore.Lipo.Weighted>
-16.7681

> <Gold.Chemscore.Internal_Hbond.Weighted>
0.0000

> <Gold.Chemscore.DEClash.Weighted>
0.0548

> <Gold.Chemscore.DEInternal.Weighted>
2.1421

> <Gold.Chemscore.Rot.Weighted>
5.8636

> <Gold.Chemscore.Internal.Correction.Weighted>
   9.000000E+99

> <Gold.Protein.RotatedTorsions>
[ 6907 6896 6895 6894 ] final  166.43 input  -60.11 | X-H torsion
[ 7974 7965 7964 7962 ] final  174.33 input  175.53 | X-H torsion
[ 8008 7997 7996 7995 ] final  -55.61 input   59.86 | X-H torsion
[ 10167 10162 10161 10158 ] final  -68.82 input  -65.29 | X-H torsion
[ 10718 10713 10712 10709 ] final  -99.14 input   66.30 | X-H torsion
[ 10763 10752 10751 10750 ] final  142.01 input  -60.55 | X-H torsion
[ 11005 11000 10999 10996 ] final  -70.80 input  -57.11 | X-H torsion

> <Gold.Protein.ActiveResidues>
 VAL166  LYS551  ARG553  GLY616  TRP617  ASP618  TYR619  PRO620  LYS621  CYS622 
 ASP623  PHE694  ASN695  SER759  ASP760  ASP761  ALA762  ILE779  LEU786  VAL792 
 PHE793  MET794  SER795  GLU796  ALA797  LYS798  CYS799  TRP800  GLU811  SER814 

> <Gold.Protein.RotatedAtoms>
  151.8790  133.3491  159.3759 H   0  0  0  0  0  0  0  0  0  0  0  0  # atno 6907 bound_to 6896
  150.7132  134.5038  159.5583 H   0  0  0  0  0  0  0  0  0  0  0  0  # atno 6908 bound_to 6896
  152.2585  134.8059  160.0485 H   0  0  0  0  0  0  0  0  0  0  0  0  # atno 6909 bound_to 6896
  144.7224  139.9781  143.6438 H   0  0  0  0  0  0  0  0  0  0  0  0  # atno 7974 bound_to 7965
  154.4201  140.1149  156.5504 H   0  0  0  0  0  0  0  0  0  0  0  0  # atno 8008 bound_to 7997
  155.6415  140.3496  155.4697 H   0  0  0  0  0  0  0  0  0  0  0  0  # atno 8009 bound_to 7997
  155.9866  140.1171  157.0666 H   0  0  0  0  0  0  0  0  0  0  0  0  # atno 8010 bound_to 7997
  140.5478  143.2312  151.6969 H   0  0  0  0  0  0  0  0  0  0  0  0  # atno 10167 bound_to 10162
  156.0126  130.5269  150.6626 H   0  0  0  0  0  0  0  0  0  0  0  0  # atno 10718 bound_to 10713
  153.9486  135.2972  155.3439 H   0  0  0  0  0  0  0  0  0  0  0  0  # atno 10763 bound_to 10752
  154.7438  135.5012  153.9172 H   0  0  0  0  0  0  0  0  0  0  0  0  # atno 10764 bound_to 10752
  153.1005  135.6733  153.9789 H   0  0  0  0  0  0  0  0  0  0  0  0  # atno 10765 bound_to 10752
  141.1581  133.6800  156.6808 H   0  0  0  0  0  0  0  0  0  0  0  0  # atno 11005 bound_to 11000
  146.0509  139.3510  143.0640 LP  0  0  0  0  0  0  0  0  0  0  0  0  # atno 17320 bound_to 7965
  145.8215  140.9676  143.0896 LP  0  0  0  0  0  0  0  0  0  0  0  0  # atno 17321 bound_to 7965
  139.5014  144.3867  152.0322 LP  0  0  0  0  0  0  0  0  0  0  0  0  # atno 17342 bound_to 10162
  140.2981  144.3678  150.6068 LP  0  0  0  0  0  0  0  0  0  0  0  0  # atno 17343 bound_to 10162
  157.4365  131.0856  151.0986 LP  0  0  0  0  0  0  0  0  0  0  0  0  # atno 17370 bound_to 10713
  157.1543  130.6198  149.5591 LP  0  0  0  0  0  0  0  0  0  0  0  0  # atno 17371 bound_to 10713
  140.3104  134.8091  157.4171 LP  0  0  0  0  0  0  0  0  0  0  0  0  # atno 17394 bound_to 11000
  140.1184  134.5253  155.8205 LP  0  0  0  0  0  0  0  0  0  0  0  0  # atno 17395 bound_to 11000

$$$$
