AV-unprocessed.smi:1781|AV-procd|sdf|7187|dock5
  -GOLD-   22720 8423D 1   1.00000     0.00000
 Structure written by MMmdl.
 38 39  0  0  0  0  0  0  0  0  1 V2000
  145.3701  135.6328  151.4057 C   0  0  0  0  0  0  0  0  0  0  0  0
  145.9168  137.0249  151.0816 C   0  0  0  0  0  0  0  0  0  0  0  0
  146.2171  137.6959  152.2937 O   0  0  0  0  0  0  0  0  0  0  0  0
  146.7855  138.9797  152.0831 C   0  0  0  0  0  0  0  0  0  0  0  0
  147.2421  139.5690  153.4194 C   0  0  0  0  0  0  0  0  0  0  0  0
  146.4364  139.7137  154.3397 O   0  0  0  0  0  0  0  0  0  0  0  0
  148.5457  139.8998  153.4842 N   0  0  0  0  0  0  0  0  0  0  0  0
  149.2577  140.4725  154.5718 C   0  0  0  0  0  0  0  0  0  0  0  0
  148.4903  141.3035  155.4181 C   0  0  0  0  0  0  0  0  0  0  0  0
  149.1019  141.9166  156.5285 C   0  0  0  0  0  0  0  0  0  0  0  0
  150.4704  141.6884  156.7685 C   0  0  0  0  0  0  0  0  0  0  0  0
  151.0938  142.2861  157.8734 N   0  0  0  0  0  0  0  0  0  0  0  0
  152.2721  141.5576  158.3255 C   0  0  0  0  0  0  0  0  0  0  0  0
  152.8255  142.1958  159.6121 C   0  0  0  0  0  0  0  0  0  0  0  0
  153.0921  143.5776  159.3868 O   0  0  0  0  0  0  0  0  0  0  0  0
  151.9180  144.2954  159.0162 C   0  0  0  0  0  0  0  0  0  0  0  0
  151.3487  143.7123  157.7110 C   0  0  0  0  0  0  0  0  0  0  0  0
  151.1603  140.8424  155.8721 C   0  0  0  0  0  0  0  0  0  0  0  0
  150.5746  140.2536  154.8085 N   0  0  0  0  0  0  0  0  0  0  0  0
  145.1265  135.0874  150.4938 H   0  0  0  0  0  0  0  0  0  0  0  0
  144.4643  135.6987  152.0088 H   0  0  0  0  0  0  0  0  0  0  0  0
  146.1014  135.0456  151.9613 H   0  0  0  0  0  0  0  0  0  0  0  0
  146.8147  136.9376  150.4681 H   0  0  0  0  0  0  0  0  0  0  0  0
  145.1792  137.5905  150.5104 H   0  0  0  0  0  0  0  0  0  0  0  0
  147.6392  138.9073  151.4071 H   0  0  0  0  0  0  0  0  0  0  0  0
  146.0525  139.6495  151.6308 H   0  0  0  0  0  0  0  0  0  0  0  0
  149.0910  139.7229  152.6535 H   0  0  0  0  0  0  0  0  0  0  0  0
  147.4412  141.4727  155.2231 H   0  0  0  0  0  0  0  0  0  0  0  0
  148.5259  142.5533  157.1844 H   0  0  0  0  0  0  0  0  0  0  0  0
  152.0161  140.5130  158.5070 H   0  0  0  0  0  0  0  0  0  0  0  0
  153.0360  141.5735  157.5468 H   0  0  0  0  0  0  0  0  0  0  0  0
  152.1205  142.0810  160.4371 H   0  0  0  0  0  0  0  0  0  0  0  0
  153.7492  141.6997  159.9105 H   0  0  0  0  0  0  0  0  0  0  0  0
  151.1802  144.2465  159.8188 H   0  0  0  0  0  0  0  0  0  0  0  0
  152.1717  145.3466  158.8792 H   0  0  0  0  0  0  0  0  0  0  0  0
  152.0575  143.8754  156.8984 H   0  0  0  0  0  0  0  0  0  0  0  0
  150.4240  144.2250  157.4435 H   0  0  0  0  0  0  0  0  0  0  0  0
  152.2086  140.6230  156.0117 H   0  0  0  0  0  0  0  0  0  0  0  0
  1  2  1  0  0  0  0
  1 20  1  0  0  0  0
  1 21  1  0  0  0  0
  1 22  1  0  0  0  0
  2  3  1  0  0  0  0
  2 23  1  0  0  0  0
  2 24  1  0  0  0  0
  3  4  1  0  0  0  0
  4  5  1  0  0  0  0
  4 25  1  0  0  0  0
  4 26  1  0  0  0  0
  5  6  2  0  0  0  0
  5  7  1  0  0  0  0
  7  8  1  0  0  0  0
  7 27  1  0  0  0  0
  8 19  1  0  0  0  0
  8  9  2  0  0  0  0
  9 10  1  0  0  0  0
  9 28  1  0  0  0  0
 10 11  2  0  0  0  0
 10 29  1  0  0  0  0
 11 12  1  0  0  0  0
 11 18  1  0  0  0  0
 12 17  1  0  0  0  0
 12 13  1  0  0  0  0
 13 14  1  0  0  0  0
 13 30  1  0  0  0  0
 13 31  1  0  0  0  0
 14 15  1  0  0  0  0
 14 32  1  0  0  0  0
 14 33  1  0  0  0  0
 15 16  1  0  0  0  0
 16 17  1  0  0  0  0
 16 34  1  0  0  0  0
 16 35  1  0  0  0  0
 17 36  1  0  0  0  0
 17 37  1  0  0  0  0
 18 19  2  0  0  0  0
 18 38  1  0  0  0  0
M  END
> <s_m_source_file>
AV-unprocessed.smi

> <i_m_source_file_index>
1781

> <i_lp_mmshare_version>
43012

> <i_f3d_flags>
0

> <s_epik_input>
W0NIM11bQ0gyXU9bQ0gyXUMoPU8pW05IXWMxW2NIXVtjSF1jKFtjSF1uMSlOMltDSDJdW0NIMl1PW0NIMl1bQ0gyXTI=

> <s_epik_cmdline>
J2VwaWtfcHl0aG9uJywgJy1waCcsICc3LjAnLCAnLXRuJywgJzgnLCAnLW1hJywgJzIwMCcsICctbWV0YWxfYmluZGluZycsICctaW1hZScsICc8aW5maWxlLm1hZT4nLCAnLW9tYWUnLCAnPG91dGZpbGUubWFlPic=

> <r_lp_tautomer_probability>
1

> <r_epik_Ionization_Penalty>
0.00358585

> <r_epik_Ionization_Penalty_Charging>
0

> <r_epik_Ionization_Penalty_Neutral>
0.00358585

> <r_epik_State_Penalty>
0.00535288

> <r_epik_Charging_Adjusted_Penalty>
0.00535288

> <i_epik_Tot_Q>
0

> <i_epik_Tot_abs_Q>
0

> <r_epik_Metal_State_Penalty>
-0

> <b_epik_Metal_Only>
0

> <s_lp_Force_Field>
OPLS_2005

> <r_lp_Energy>
27.8059

> <b_lp_Chiralities_Consistent>
1

> <s_lp_Variant>
AV-unprocessed.smi:1781-1

> <Gold.Version>
5.8.1

> <Gold.Id.Protein>
6NUR|6NUR_protein|mol2

> <Gold.PLP.Fitness>
41.8511

> <Gold.PLP.PLP>
-37.1916

> <Gold.PLP.part.hbond>
-2.0000

> <Gold.PLP.part.metal>
0.0000

> <Gold.PLP.part.buried>
-0.4053

> <Gold.PLP.part.nonpolar>
-35.7133

> <Gold.PLP.part.repulsive>
0.6391

> <Gold.PLP.ligand.clash>
0.0000

> <Gold.PLP.ligand.torsion>
0.7275

> <Gold.PLP.Chemscore.Hbond>
2.0000

> <Gold.PLP.Chemscore.CHOScore>
0.0000

> <Gold.PLP.Chemscore.Metal>
0.0000

> <Gold.Chemscore.Hbonds>
donor molecule, donor type, donor heavy atom, donor atom, acceptor molecule, acceptor atom, score
      L1  H     7    27       P1  7957  1.00
      P1  H  7989  7998       L1    19  1.00

> <Gold.PLP.Chemscore.Internal.Correction>
0.1145

> <Gold.Rescore>
     Score         DG    S(hbond)    S(metal)    S(lipo)     H(rot)  DE(clash)    DE(int)     intcor
     13.43     -16.76       1.47        0.00      88.58       1.56       1.58       1.75       ----

> <Gold.Chemscore.Fitness>
13.4273

> <Gold.Chemscore.DG>
-16.7562

> <Gold.Chemscore.ZeroCoef>
-5.4800

> <Gold.Chemscore.Hbond>
1.4719

> <Gold.Chemscore.Metal>
0.0000

> <Gold.Chemscore.Lipo>
88.5771

> <Gold.Chemscore.Internal_Hbond>
0.0000

> <Gold.Chemscore.DEClash>
1.5777

> <Gold.Chemscore.DEInternal>
1.7512

> <Gold.Chemscore.Rot>
1.5639

> <Gold.Chemscore.Internal.Correction>
   9.000000E+99

> <Gold.Chemscore.Hbonds>
donor molecule, donor type, donor heavy atom, donor atom, acceptor molecule, acceptor atom, score
      L1  H     7    27       P1  7957  0.97
      P1  H  7989  7998       L1    19  0.22

> <Gold.Chemscore.Hbond.Weighted>
-4.9162

> <Gold.Chemscore.Metal.Weighted>
-0.0000

> <Gold.Chemscore.Lipo.Weighted>
-10.3635

> <Gold.Chemscore.Internal_Hbond.Weighted>
0.0000

> <Gold.Chemscore.DEClash.Weighted>
1.5777

> <Gold.Chemscore.DEInternal.Weighted>
1.7512

> <Gold.Chemscore.Rot.Weighted>
4.0036

> <Gold.Chemscore.Internal.Correction.Weighted>
   9.000000E+99

> <Gold.Protein.RotatedTorsions>
[ 6907 6896 6895 6894 ] final  105.29 input  -60.11 | X-H torsion
[ 7974 7965 7964 7962 ] final   18.29 input  175.53 | X-H torsion
[ 8008 7997 7996 7995 ] final  159.94 input   59.86 | X-H torsion
[ 10167 10162 10161 10158 ] final -131.48 input  -65.29 | X-H torsion
[ 10718 10713 10712 10709 ] final  -94.79 input   66.30 | X-H torsion
[ 10763 10752 10751 10750 ] final -102.98 input  -60.55 | X-H torsion
[ 11005 11000 10999 10996 ] final  131.86 input  -57.11 | X-H torsion

> <Gold.Protein.ActiveResidues>
 VAL166  LYS551  ARG553  GLY616  TRP617  ASP618  TYR619  PRO620  LYS621  CYS622 
 ASP623  PHE694  ASN695  SER759  ASP760  ASP761  ALA762  ILE779  LEU786  VAL792 
 PHE793  MET794  SER795  GLU796  ALA797  LYS798  CYS799  TRP800  GLU811  SER814 

> <Gold.Protein.RotatedAtoms>
  152.5235  133.9550  159.7689 H   0  0  0  0  0  0  0  0  0  0  0  0  # atno 6907 bound_to 6896
  150.9852  133.6197  159.2723 H   0  0  0  0  0  0  0  0  0  0  0  0  # atno 6908 bound_to 6896
  151.3360  135.0858  159.9408 H   0  0  0  0  0  0  0  0  0  0  0  0  # atno 6909 bound_to 6896
  146.2190  139.8478  142.8628 H   0  0  0  0  0  0  0  0  0  0  0  0  # atno 7974 bound_to 7965
  156.2205  140.1817  156.7487 H   0  0  0  0  0  0  0  0  0  0  0  0  # atno 8008 bound_to 7997
  154.5858  140.0658  156.9198 H   0  0  0  0  0  0  0  0  0  0  0  0  # atno 8009 bound_to 7997
  155.2422  140.3323  155.4293 H   0  0  0  0  0  0  0  0  0  0  0  0  # atno 8010 bound_to 7997
  139.9184  143.6411  152.2559 H   0  0  0  0  0  0  0  0  0  0  0  0  # atno 10167 bound_to 10162
  156.0032  130.5082  150.5979 H   0  0  0  0  0  0  0  0  0  0  0  0  # atno 10718 bound_to 10713
  154.7774  135.4840  153.9772 H   0  0  0  0  0  0  0  0  0  0  0  0  # atno 10763 bound_to 10752
  153.1447  135.6779  153.8981 H   0  0  0  0  0  0  0  0  0  0  0  0  # atno 10764 bound_to 10752
  153.8644  135.3151  155.3417 H   0  0  0  0  0  0  0  0  0  0  0  0  # atno 10765 bound_to 10752
  139.9755  134.9564  156.9499 H   0  0  0  0  0  0  0  0  0  0  0  0  # atno 11005 bound_to 11000
  145.2832  141.0145  143.3705 LP  0  0  0  0  0  0  0  0  0  0  0  0  # atno 17320 bound_to 7965
  144.9134  139.4500  143.6576 LP  0  0  0  0  0  0  0  0  0  0  0  0  # atno 17321 bound_to 7965
  139.6882  144.7649  151.1486 LP  0  0  0  0  0  0  0  0  0  0  0  0  # atno 17342 bound_to 10162
  140.7668  143.5627  150.9082 LP  0  0  0  0  0  0  0  0  0  0  0  0  # atno 17343 bound_to 10162
  157.3833  131.0784  151.1458 LP  0  0  0  0  0  0  0  0  0  0  0  0  # atno 17370 bound_to 10713
  157.2173  130.6465  149.5797 LP  0  0  0  0  0  0  0  0  0  0  0  0  # atno 17371 bound_to 10713
  140.5204  134.0913  155.7290 LP  0  0  0  0  0  0  0  0  0  0  0  0  # atno 17394 bound_to 11000
  141.1432  133.9101  157.2276 LP  0  0  0  0  0  0  0  0  0  0  0  0  # atno 17395 bound_to 11000

$$$$
