AV-unprocessed.smi:594|AV-procd|sdf|3016|dock2
  -GOLD-   2262023523D 1   1.00000     0.00000
 Structure written by MMmdl.
 40 41  0  0  0  0  0  0  0  0  3 V2000
  147.5777  134.4651  154.1270 C   0  0  0  0  0  0  0  0  0  0  0  0
  146.2336  134.6072  153.3917 C   0  0  2  0  0  0  0  0  0  0  0  0
  146.3642  134.2437  151.8980 C   0  0  0  0  0  0  0  0  0  0  0  0
  145.0092  134.3228  151.1763 C   0  0  0  0  0  0  0  0  0  0  0  0
  144.3663  135.7075  151.3444 C   0  0  0  0  0  0  0  0  0  0  0  0
  144.2328  136.0836  152.8305 C   0  0  0  0  0  0  0  0  0  0  0  0
  145.5790  136.0008  153.5781 C   0  0  2  0  0  0  0  0  0  0  0  0
  146.4621  137.0813  153.1333 N   0  0  0  0  0  0  0  0  0  0  0  0
  146.4592  138.3444  153.5865 C   0  0  0  0  0  0  0  0  0  0  0  0
  145.6855  138.7511  154.4546 O   0  0  0  0  0  0  0  0  0  0  0  0
  147.5128  139.2732  152.9666 C   0  0  0  0  0  0  0  0  0  0  0  0
  148.5112  139.7560  153.9354 N   0  0  0  0  0  0  0  0  0  0  0  0
  149.6596  138.9599  154.1151 C   0  0  0  0  0  0  0  0  0  0  0  0
  150.6332  139.2935  154.9846 C   0  0  0  0  0  0  0  0  0  0  0  0
  151.8002  138.4579  155.1637 N   0  3  0  0  0  0  0  0  0  0  0  0
  152.7499  138.9024  155.8008 O   0  0  0  0  0  0  0  0  0  0  0  0
  151.8074  137.3321  154.6742 O   0  5  0  0  0  0  0  0  0  0  0  0
  150.4685  140.5184  155.7433 C   0  0  0  0  0  0  0  0  0  0  0  0
  149.3700  141.2818  155.5792 C   0  0  0  0  0  0  0  0  0  0  0  0
  148.3075  140.9120  154.6382 C   0  0  0  0  0  0  0  0  0  0  0  0
  147.2967  141.5993  154.4916 O   0  0  0  0  0  0  0  0  0  0  0  0
  148.3446  135.1101  153.6975 H   0  0  0  0  0  0  0  0  0  0  0  0
  147.9451  133.4401  154.0737 H   0  0  0  0  0  0  0  0  0  0  0  0
  147.4766  134.7234  155.1815 H   0  0  0  0  0  0  0  0  0  0  0  0
  145.5572  133.8781  153.8406 H   0  0  0  0  0  0  0  0  0  0  0  0
  147.0768  134.9116  151.4123 H   0  0  0  0  0  0  0  0  0  0  0  0
  146.7705  133.2369  151.7947 H   0  0  0  0  0  0  0  0  0  0  0  0
  145.1386  134.0996  150.1169 H   0  0  0  0  0  0  0  0  0  0  0  0
  144.3392  133.5591  151.5732 H   0  0  0  0  0  0  0  0  0  0  0  0
  144.9671  136.4555  150.8254 H   0  0  0  0  0  0  0  0  0  0  0  0
  143.3846  135.7202  150.8703 H   0  0  0  0  0  0  0  0  0  0  0  0
  143.8084  137.0837  152.9266 H   0  0  0  0  0  0  0  0  0  0  0  0
  143.5199  135.4072  153.3039 H   0  0  0  0  0  0  0  0  0  0  0  0
  145.3620  136.1307  154.6399 H   0  0  0  0  0  0  0  0  0  0  0  0
  147.1380  136.8414  152.4226 H   0  0  0  0  0  0  0  0  0  0  0  0
  148.0077  138.7361  152.1558 H   0  0  0  0  0  0  0  0  0  0  0  0
  147.0068  140.1110  152.4834 H   0  0  0  0  0  0  0  0  0  0  0  0
  149.6822  138.0650  153.5095 H   0  0  0  0  0  0  0  0  0  0  0  0
  151.2244  140.8325  156.4481 H   0  0  0  0  0  0  0  0  0  0  0  0
  149.2680  142.1901  156.1551 H   0  0  0  0  0  0  0  0  0  0  0  0
  1  2  1  0  0  0  0
  1 22  1  0  0  0  0
  1 23  1  0  0  0  0
  1 24  1  0  0  0  0
  2  7  1  0  0  0  0
  2  3  1  0  0  0  0
  2 25  1  0  0  0  0
  3  4  1  0  0  0  0
  3 26  1  0  0  0  0
  3 27  1  0  0  0  0
  4  5  1  0  0  0  0
  4 28  1  0  0  0  0
  4 29  1  0  0  0  0
  5  6  1  0  0  0  0
  5 30  1  0  0  0  0
  5 31  1  0  0  0  0
  6  7  1  0  0  0  0
  6 32  1  0  0  0  0
  6 33  1  0  0  0  0
  7  8  1  0  0  0  0
  7 34  1  0  0  0  0
  8  9  1  0  0  0  0
  8 35  1  0  0  0  0
  9 10  2  0  0  0  0
  9 11  1  0  0  0  0
 11 12  1  0  0  0  0
 11 36  1  0  0  0  0
 11 37  1  0  0  0  0
 12 20  1  0  0  0  0
 12 13  1  0  0  0  0
 13 14  2  0  0  0  0
 13 38  1  0  0  0  0
 14 15  1  0  0  0  0
 14 18  1  0  0  0  0
 15 16  2  0  0  0  0
 15 17  1  0  0  0  0
 18 19  2  0  0  0  0
 18 39  1  0  0  0  0
 19 20  1  0  0  0  0
 19 40  1  0  0  0  0
 20 21  2  0  0  0  0
M  CHG  1  15   1
M  CHG  1  17  -1
M  END
> <s_m_source_file>
AV-unprocessed.smi

> <i_m_source_file_index>
594

> <i_lp_mmshare_version>
43012

> <i_f3d_flags>
0

> <s_epik_input>
W0NIM11bQ0BASF0xW0NIMl1bQ0gyXVtDSDJdW0NIMl1bQ0BIXTFbTkhdQyg9TylbQ0gyXW4yW2NIXWMoW04rXSg9TylbTy1dKVtjSF1bY0hdYzI9Tw==

> <s_epik_cmdline>
J2VwaWtfcHl0aG9uJywgJy1waCcsICc3LjAnLCAnLXRuJywgJzgnLCAnLW1hJywgJzIwMCcsICctbWV0YWxfYmluZGluZycsICctaW1hZScsICc8aW5maWxlLm1hZT4nLCAnLW9tYWUnLCAnPG91dGZpbGUubWFlPic=

> <r_lp_tautomer_probability>
1

> <r_epik_Ionization_Penalty>
1.91305e-08

> <r_epik_Ionization_Penalty_Charging>
8.35811e-11

> <r_epik_Ionization_Penalty_Neutral>
1.90469e-08

> <r_epik_State_Penalty>
-0

> <r_epik_Charging_Adjusted_Penalty>
8.35811e-11

> <i_epik_Tot_Q>
0

> <i_epik_Tot_abs_Q>
2

> <r_epik_Metal_State_Penalty>
-0

> <b_epik_Metal_Only>
0

> <s_lp_Force_Field>
OPLS_2005

> <r_lp_Energy>
20.6939

> <b_lp_Chiralities_Consistent>
1

> <s_lp_Variant>
AV-unprocessed.smi:594-3

> <Gold.Version>
5.8.1

> <Gold.Id.Protein>
6NUR|6NUR_protein|mol2

> <Gold.PLP.Fitness>
41.5337

> <Gold.PLP.PLP>
-31.1735

> <Gold.PLP.part.hbond>
-3.0000

> <Gold.PLP.part.metal>
0.0000

> <Gold.PLP.part.buried>
2.8041

> <Gold.PLP.part.nonpolar>
-30.7648

> <Gold.PLP.part.repulsive>
0.3984

> <Gold.PLP.ligand.clash>
0.0000

> <Gold.PLP.ligand.torsion>
0.7982

> <Gold.PLP.Chemscore.Hbond>
2.9760

> <Gold.PLP.Chemscore.CHOScore>
1.0000

> <Gold.PLP.Chemscore.Metal>
0.0000

> <Gold.Chemscore.Hbonds>
donor molecule, donor type, donor heavy atom, donor atom, acceptor molecule, acceptor atom, score
      L1  H     8    35       P1  7948  1.00
      P1  H  7997  8010       L1    16  0.93
      P1  H 10752 10765       L1    17  0.94
      L1  C    13    38       P1  7948  0.99

> <Gold.PLP.Chemscore.Internal.Correction>
0.0286

> <Gold.Rescore>
     Score         DG    S(hbond)    S(metal)    S(lipo)     H(rot)  DE(clash)    DE(int)     intcor
     15.91     -18.22       2.86        0.00      61.18       1.55       1.54       0.77       ----

> <Gold.Chemscore.Fitness>
15.9071

> <Gold.Chemscore.DG>
-18.2217

> <Gold.Chemscore.ZeroCoef>
-5.4800

> <Gold.Chemscore.Hbond>
2.8601

> <Gold.Chemscore.Metal>
0.0000

> <Gold.Chemscore.Lipo>
61.1808

> <Gold.Chemscore.Internal_Hbond>
0.0000

> <Gold.Chemscore.DEClash>
1.5428

> <Gold.Chemscore.DEInternal>
0.7718

> <Gold.Chemscore.Rot>
1.5505

> <Gold.Chemscore.Internal.Correction>
   9.000000E+99

> <Gold.Chemscore.Hbonds>
donor molecule, donor type, donor heavy atom, donor atom, acceptor molecule, acceptor atom, score
      L1  H     8    35       P1  7948  0.94
      P1  H  7997  8010       L1    16  0.88
      P1  H 10752 10765       L1    17  0.85

> <Gold.Chemscore.Hbond.Weighted>
-9.5527

> <Gold.Chemscore.Metal.Weighted>
-0.0000

> <Gold.Chemscore.Lipo.Weighted>
-7.1582

> <Gold.Chemscore.Internal_Hbond.Weighted>
0.0000

> <Gold.Chemscore.DEClash.Weighted>
1.5428

> <Gold.Chemscore.DEInternal.Weighted>
0.7718

> <Gold.Chemscore.Rot.Weighted>
3.9692

> <Gold.Chemscore.Internal.Correction.Weighted>
   9.000000E+99

> <Gold.Protein.RotatedTorsions>
[ 6907 6896 6895 6894 ] final  172.66 input  -60.11 | X-H torsion
[ 7974 7965 7964 7962 ] final   25.79 input  175.53 | X-H torsion
[ 8008 7997 7996 7995 ] final   89.02 input   59.86 | X-H torsion
[ 10167 10162 10161 10158 ] final   35.54 input  -65.29 | X-H torsion
[ 10718 10713 10712 10709 ] final  -24.40 input   66.30 | X-H torsion
[ 10763 10752 10751 10750 ] final  162.32 input  -60.55 | X-H torsion
[ 11005 11000 10999 10996 ] final -142.50 input  -57.11 | X-H torsion

> <Gold.Protein.ActiveResidues>
 VAL166  LYS551  ARG553  GLY616  TRP617  ASP618  TYR619  PRO620  LYS621  CYS622 
 ASP623  PHE694  ASN695  SER759  ASP760  ASP761  ALA762  ILE779  LEU786  VAL792 
 PHE793  MET794  SER795  GLU796  ALA797  LYS798  CYS799  TRP800  GLU811  SER814 

> <Gold.Protein.RotatedAtoms>
  151.7807  133.3349  159.3470 H   0  0  0  0  0  0  0  0  0  0  0  0  # atno 6907 bound_to 6896
  150.7427  134.5933  159.6008 H   0  0  0  0  0  0  0  0  0  0  0  0  # atno 6908 bound_to 6896
  152.3278  134.7300  160.0349 H   0  0  0  0  0  0  0  0  0  0  0  0  # atno 6909 bound_to 6896
  146.1871  139.7417  142.8859 H   0  0  0  0  0  0  0  0  0  0  0  0  # atno 7974 bound_to 7965
  155.9949  140.3365  155.6789 H   0  0  0  0  0  0  0  0  0  0  0  0  # atno 8008 bound_to 7997
  155.6370  140.0691  157.2649 H   0  0  0  0  0  0  0  0  0  0  0  0  # atno 8009 bound_to 7997
  154.4231  140.1749  156.1520 H   0  0  0  0  0  0  0  0  0  0  0  0  # atno 8010 bound_to 7997
  140.4212  144.1457  150.6148 H   0  0  0  0  0  0  0  0  0  0  0  0  # atno 10167 bound_to 10162
  156.4781  130.4539  149.6828 H   0  0  0  0  0  0  0  0  0  0  0  0  # atno 10718 bound_to 10713
  154.2766  135.2764  155.2715 H   0  0  0  0  0  0  0  0  0  0  0  0  # atno 10763 bound_to 10752
  154.5255  135.5744  153.6719 H   0  0  0  0  0  0  0  0  0  0  0  0  # atno 10764 bound_to 10752
  152.9936  135.6215  154.2923 H   0  0  0  0  0  0  0  0  0  0  0  0  # atno 10765 bound_to 10752
  140.8219  134.2621  157.4896 H   0  0  0  0  0  0  0  0  0  0  0  0  # atno 11005 bound_to 11000
  145.3907  141.0372  143.3126 LP  0  0  0  0  0  0  0  0  0  0  0  0  # atno 17320 bound_to 7965
  144.8417  139.5462  143.6897 LP  0  0  0  0  0  0  0  0  0  0  0  0  # atno 17321 bound_to 7965
  140.4532  143.2478  151.9320 LP  0  0  0  0  0  0  0  0  0  0  0  0  # atno 17342 bound_to 10162
  139.4782  144.5542  151.8339 LP  0  0  0  0  0  0  0  0  0  0  0  0  # atno 17343 bound_to 10162
  156.3549  130.7451  151.2416 LP  0  0  0  0  0  0  0  0  0  0  0  0  # atno 17370 bound_to 10713
  157.7485  131.0366  150.4419 LP  0  0  0  0  0  0  0  0  0  0  0  0  # atno 17371 bound_to 10713
  139.8708  134.9539  156.4161 LP  0  0  0  0  0  0  0  0  0  0  0  0  # atno 17394 bound_to 11000
  140.9090  133.7725  155.9769 LP  0  0  0  0  0  0  0  0  0  0  0  0  # atno 17395 bound_to 11000

$$$$
