AV-unprocessed.smi:29|AV-procd|sdf|191|dock9
  -GOLD-   2262015463D 1   1.00000     0.00000
 Structure written by MMmdl.
 56 59  0  0  0  0  0  0  0  0  1 V2000
  149.6077  139.7380  157.2812 O   0  0  0  0  0  0  0  0  0  0  0  0
  150.4989  138.8932  157.3681 C   0  0  0  0  0  0  0  0  0  0  0  0
  150.3399  137.5312  156.6752 C   0  0  0  0  0  0  0  0  0  0  0  0
  149.2862  136.6920  157.2848 N   0  0  0  0  0  0  0  0  0  0  0  0
  148.1095  136.4187  156.5434 C   0  0  0  0  0  0  0  0  0  0  0  0
  147.9442  136.8809  155.4138 O   0  0  0  0  0  0  0  0  0  0  0  0
  147.1353  135.5568  157.2034 C   0  0  0  0  0  0  0  0  0  0  0  0
  145.9941  135.2359  156.5704 F   0  0  0  0  0  0  0  0  0  0  0  0
  147.3636  135.0702  158.4405 C   0  0  0  0  0  0  0  0  0  0  0  0
  148.5137  135.3513  159.1550 N   0  0  0  0  0  0  0  0  0  0  0  0
  148.7445  134.7782  160.5355 C   0  0  2  0  0  0  0  0  0  0  0  0
  147.6680  133.7373  160.8634 C   0  0  0  0  0  0  0  0  0  0  0  0
  146.6465  134.5705  161.6064 C   0  0  0  0  0  0  0  0  0  0  0  0
  147.5388  135.5565  162.3517 C   0  0  0  0  0  0  0  0  0  0  0  0
  148.6397  135.8043  161.4806 O   0  0  0  0  0  0  0  0  0  0  0  0
  149.5133  136.1638  158.5781 C   0  0  0  0  0  0  0  0  0  0  0  0
  150.5619  136.3977  159.1835 O   0  0  0  0  0  0  0  0  0  0  0  0
  151.6330  139.0432  158.0756 N   0  0  0  0  0  0  0  0  0  0  0  0
  152.0875  140.1548  158.8441 C   0  0  0  0  0  0  0  0  0  0  0  0
  151.5871  141.4688  158.6691 C   0  0  0  0  0  0  0  0  0  0  0  0
  152.0770  142.5407  159.4435 C   0  0  0  0  0  0  0  0  0  0  0  0
  151.5124  143.9372  159.2290 C   0  0  0  0  0  0  0  0  0  0  0  0
  152.1516  144.5899  158.2574 F   0  0  0  0  0  0  0  0  0  0  0  0
  150.2227  143.8551  158.9019 F   0  0  0  0  0  0  0  0  0  0  0  0
  151.6259  144.6375  160.3572 F   0  0  0  0  0  0  0  0  0  0  0  0
  153.0807  142.2987  160.4035 C   0  0  0  0  0  0  0  0  0  0  0  0
  153.5983  141.0022  160.5731 C   0  0  0  0  0  0  0  0  0  0  0  0
  153.1151  139.9266  159.7939 C   0  0  0  0  0  0  0  0  0  0  0  0
  153.6494  138.6369  159.9544 N   0  0  0  0  0  0  0  0  0  0  0  0
  154.4807  138.2001  158.8403 C   0  0  0  0  0  0  0  0  0  0  0  0
  154.8816  136.7274  159.0326 C   0  0  0  0  0  0  0  0  0  0  0  0
  155.5262  136.5685  160.2936 O   0  0  0  0  0  0  0  0  0  0  0  0
  154.6754  136.9268  161.3796 C   0  0  0  0  0  0  0  0  0  0  0  0
  154.2706  138.4057  161.2518 C   0  0  0  0  0  0  0  0  0  0  0  0
  150.1369  137.6827  155.6132 H   0  0  0  0  0  0  0  0  0  0  0  0
  151.3094  137.0312  156.6882 H   0  0  0  0  0  0  0  0  0  0  0  0
  146.6101  134.4310  158.8757 H   0  0  0  0  0  0  0  0  0  0  0  0
  149.7611  134.3819  160.5352 H   0  0  0  0  0  0  0  0  0  0  0  0
  147.2780  133.2435  159.9722 H   0  0  0  0  0  0  0  0  0  0  0  0
  148.1015  132.9852  161.5239 H   0  0  0  0  0  0  0  0  0  0  0  0
  146.0042  135.0982  160.9003 H   0  0  0  0  0  0  0  0  0  0  0  0
  146.0138  133.9811  162.2705 H   0  0  0  0  0  0  0  0  0  0  0  0
  147.0199  136.4789  162.6134 H   0  0  0  0  0  0  0  0  0  0  0  0
  147.9163  135.1059  163.2706 H   0  0  0  0  0  0  0  0  0  0  0  0
  152.2279  138.2283  158.1211 H   0  0  0  0  0  0  0  0  0  0  0  0
  150.8315  141.6884  157.9319 H   0  0  0  0  0  0  0  0  0  0  0  0
  153.4680  143.1033  161.0105 H   0  0  0  0  0  0  0  0  0  0  0  0
  154.3752  140.8390  161.3058 H   0  0  0  0  0  0  0  0  0  0  0  0
  153.9370  138.3208  157.9025 H   0  0  0  0  0  0  0  0  0  0  0  0
  155.3755  138.8209  158.7787 H   0  0  0  0  0  0  0  0  0  0  0  0
  154.0082  136.0759  158.9741 H   0  0  0  0  0  0  0  0  0  0  0  0
  155.5644  136.4168  158.2416 H   0  0  0  0  0  0  0  0  0  0  0  0
  153.7948  136.2824  161.3926 H   0  0  0  0  0  0  0  0  0  0  0  0
  155.2058  136.7612  162.3174 H   0  0  0  0  0  0  0  0  0  0  0  0
  155.1510  139.0402  161.3607 H   0  0  0  0  0  0  0  0  0  0  0  0
  153.5757  138.6746  162.0483 H   0  0  0  0  0  0  0  0  0  0  0  0
  1  2  2  0  0  0  0
  2  3  1  0  0  0  0
  2 18  1  0  0  0  0
  3  4  1  0  0  0  0
  3 35  1  0  0  0  0
  3 36  1  0  0  0  0
  4 16  1  0  0  0  0
  4  5  1  0  0  0  0
  5  6  2  0  0  0  0
  5  7  1  0  0  0  0
  7  8  1  0  0  0  0
  7  9  2  0  0  0  0
  9 10  1  0  0  0  0
  9 37  1  0  0  0  0
 10 11  1  0  0  0  0
 10 16  1  0  0  0  0
 11 15  1  0  0  0  0
 11 12  1  0  0  0  0
 11 38  1  0  0  0  0
 12 13  1  0  0  0  0
 12 39  1  0  0  0  0
 12 40  1  0  0  0  0
 13 14  1  0  0  0  0
 13 41  1  0  0  0  0
 13 42  1  0  0  0  0
 14 15  1  0  0  0  0
 14 43  1  0  0  0  0
 14 44  1  0  0  0  0
 16 17  2  0  0  0  0
 18 19  1  0  0  0  0
 18 45  1  0  0  0  0
 19 28  1  0  0  0  0
 19 20  2  0  0  0  0
 20 21  1  0  0  0  0
 20 46  1  0  0  0  0
 21 22  1  0  0  0  0
 21 26  2  0  0  0  0
 22 23  1  0  0  0  0
 22 24  1  0  0  0  0
 22 25  1  0  0  0  0
 26 27  1  0  0  0  0
 26 47  1  0  0  0  0
 27 28  2  0  0  0  0
 27 48  1  0  0  0  0
 28 29  1  0  0  0  0
 29 34  1  0  0  0  0
 29 30  1  0  0  0  0
 30 31  1  0  0  0  0
 30 49  1  0  0  0  0
 30 50  1  0  0  0  0
 31 32  1  0  0  0  0
 31 51  1  0  0  0  0
 31 52  1  0  0  0  0
 32 33  1  0  0  0  0
 33 34  1  0  0  0  0
 33 53  1  0  0  0  0
 33 54  1  0  0  0  0
 34 55  1  0  0  0  0
 34 56  1  0  0  0  0
M  END
> <s_m_source_file>
AV-unprocessed.smi

> <i_m_source_file_index>
29

> <i_lp_mmshare_version>
43012

> <i_f3d_flags>
0

> <s_epik_input>
TzFbQ0gyXVtDSDJdW0NIMl1bQ0BIXTFuKGMyPU8pW2NIXWMoRiljKD1PKW4yW0NIMl1DKD1PKVtOSF1jM1tjSF1jKEMoRikoRilGKVtjSF1bY0hdYzNONFtDSDJdW0NIMl1PW0NIMl1bQ0gyXTQ=

> <s_epik_cmdline>
J2VwaWtfcHl0aG9uJywgJy1waCcsICc3LjAnLCAnLXRuJywgJzgnLCAnLW1hJywgJzIwMCcsICctbWV0YWxfYmluZGluZycsICctaW1hZScsICc8aW5maWxlLm1hZT4nLCAnLW9tYWUnLCAnPG91dGZpbGUubWFlPic=

> <r_lp_tautomer_probability>
1

> <r_epik_Ionization_Penalty>
3.5967e-06

> <r_epik_Ionization_Penalty_Charging>
3.88729e-08

> <r_epik_Ionization_Penalty_Neutral>
3.55783e-06

> <r_epik_State_Penalty>
-0

> <r_epik_Charging_Adjusted_Penalty>
3.88729e-08

> <i_epik_Tot_Q>
0

> <i_epik_Tot_abs_Q>
0

> <r_epik_Metal_State_Penalty>
-0

> <b_epik_Metal_Only>
0

> <s_epik_Chemistry_Notes>
This compound contains an acetal/aminal-like group ( X-CH(R)-Y where X, Y are N, S, or O) that may be acid/base labile, releasing an aldehyde.

> <s_lp_Force_Field>
OPLS_2005

> <r_lp_Energy>
49.5757

> <b_lp_Chiralities_Consistent>
1

> <s_lp_Variant>
AV-unprocessed.smi:29-1

> <Gold.Version>
5.8.1

> <Gold.Id.Protein>
6NUR|6NUR_protein|mol2

> <Gold.PLP.Fitness>
58.7643

> <Gold.PLP.PLP>
-56.9978

> <Gold.PLP.part.hbond>
-2.1552

> <Gold.PLP.part.metal>
0.0000

> <Gold.PLP.part.buried>
-9.6430

> <Gold.PLP.part.nonpolar>
-45.8898

> <Gold.PLP.part.repulsive>
0.1136

> <Gold.PLP.ligand.clash>
0.0000

> <Gold.PLP.ligand.torsion>
1.9809

> <Gold.PLP.Chemscore.Hbond>
1.8288

> <Gold.PLP.Chemscore.CHOScore>
0.0000

> <Gold.PLP.Chemscore.Metal>
0.0000

> <Gold.Chemscore.Hbonds>
donor molecule, donor type, donor heavy atom, donor atom, acceptor molecule, acceptor atom, score
      P1  H  6896  6908       L1    17  0.95

> <Gold.PLP.Chemscore.Internal.Correction>
0.2420

> <Gold.Rescore>
     Score         DG    S(hbond)    S(metal)    S(lipo)     H(rot)  DE(clash)    DE(int)     intcor
     16.93     -20.04       1.83        0.00     115.31       1.96       0.02       3.09       ----

> <Gold.Chemscore.Fitness>
16.9310

> <Gold.Chemscore.DG>
-20.0402

> <Gold.Chemscore.ZeroCoef>
-5.4800

> <Gold.Chemscore.Hbond>
1.8255

> <Gold.Chemscore.Metal>
0.0000

> <Gold.Chemscore.Lipo>
115.3077

> <Gold.Chemscore.Internal_Hbond>
0.0000

> <Gold.Chemscore.DEClash>
0.0212

> <Gold.Chemscore.DEInternal>
3.0881

> <Gold.Chemscore.Rot>
1.9641

> <Gold.Chemscore.Internal.Correction>
   9.000000E+99

> <Gold.Chemscore.Hbonds>
donor molecule, donor type, donor heavy atom, donor atom, acceptor molecule, acceptor atom, score
      P1  H  6896  6908       L1    17  0.21

> <Gold.Chemscore.Hbond.Weighted>
-6.0972

> <Gold.Chemscore.Metal.Weighted>
-0.0000

> <Gold.Chemscore.Lipo.Weighted>
-13.4910

> <Gold.Chemscore.Internal_Hbond.Weighted>
0.0000

> <Gold.Chemscore.DEClash.Weighted>
0.0212

> <Gold.Chemscore.DEInternal.Weighted>
3.0881

> <Gold.Chemscore.Rot.Weighted>
5.0280

> <Gold.Chemscore.Internal.Correction.Weighted>
   9.000000E+99

> <Gold.Protein.RotatedTorsions>
[ 6907 6896 6895 6894 ] final -166.97 input  -60.11 | X-H torsion
[ 7974 7965 7964 7962 ] final   24.76 input  175.53 | X-H torsion
[ 8008 7997 7996 7995 ] final  164.45 input   59.86 | X-H torsion
[ 10167 10162 10161 10158 ] final  173.05 input  -65.29 | X-H torsion
[ 10718 10713 10712 10709 ] final   89.89 input   66.30 | X-H torsion
[ 10763 10752 10751 10750 ] final -138.29 input  -60.55 | X-H torsion
[ 11005 11000 10999 10996 ] final  -63.61 input  -57.11 | X-H torsion

> <Gold.Protein.ActiveResidues>
 VAL166  LYS551  ARG553  GLY616  TRP617  ASP618  TYR619  PRO620  LYS621  CYS622 
 ASP623  PHE694  ASN695  SER759  ASP760  ASP761  ALA762  ILE779  LEU786  VAL792 
 PHE793  MET794  SER795  GLU796  ALA797  LYS798  CYS799  TRP800  GLU811  SER814 

> <Gold.Protein.RotatedAtoms>
  151.4521  133.3615  159.2796 H   0  0  0  0  0  0  0  0  0  0  0  0  # atno 6907 bound_to 6896
  150.9084  134.8501  159.7419 H   0  0  0  0  0  0  0  0  0  0  0  0  # atno 6908 bound_to 6896
  152.4919  134.4448  159.9607 H   0  0  0  0  0  0  0  0  0  0  0  0  # atno 6909 bound_to 6896
  146.1922  139.7560  142.8823 H   0  0  0  0  0  0  0  0  0  0  0  0  # atno 7974 bound_to 7965
  156.1879  140.1696  156.8150 H   0  0  0  0  0  0  0  0  0  0  0  0  # atno 8008 bound_to 7997
  154.5436  140.0732  156.8583 H   0  0  0  0  0  0  0  0  0  0  0  0  # atno 8009 bound_to 7997
  155.3166  140.3371  155.4244 H   0  0  0  0  0  0  0  0  0  0  0  0  # atno 8010 bound_to 7997
  139.5096  144.3304  152.0116 H   0  0  0  0  0  0  0  0  0  0  0  0  # atno 10167 bound_to 10162
  157.6957  131.0350  150.3494 H   0  0  0  0  0  0  0  0  0  0  0  0  # atno 10718 bound_to 10713
  154.8640  135.3616  154.5361 H   0  0  0  0  0  0  0  0  0  0  0  0  # atno 10763 bound_to 10752
  153.5985  135.7013  153.5399 H   0  0  0  0  0  0  0  0  0  0  0  0  # atno 10764 bound_to 10752
  153.3312  135.4124  155.1458 H   0  0  0  0  0  0  0  0  0  0  0  0  # atno 10765 bound_to 10752
  141.1398  133.6654  156.5706 H   0  0  0  0  0  0  0  0  0  0  0  0  # atno 11005 bound_to 11000
  145.3757  141.0350  143.3206 LP  0  0  0  0  0  0  0  0  0  0  0  0  # atno 17320 bound_to 7965
  144.8509  139.5324  143.6857 LP  0  0  0  0  0  0  0  0  0  0  0  0  # atno 17321 bound_to 7965
  140.2744  144.3928  150.6140 LP  0  0  0  0  0  0  0  0  0  0  0  0  # atno 17342 bound_to 10162
  140.6064  143.2168  151.6972 LP  0  0  0  0  0  0  0  0  0  0  0  0  # atno 17343 bound_to 10162
  156.3944  130.3904  149.7006 LP  0  0  0  0  0  0  0  0  0  0  0  0  # atno 17370 bound_to 10713
  156.4344  130.7831  151.2851 LP  0  0  0  0  0  0  0  0  0  0  0  0  # atno 17371 bound_to 10713
  140.3916  134.7435  157.4725 LP  0  0  0  0  0  0  0  0  0  0  0  0  # atno 17394 bound_to 11000
  140.0562  134.6060  155.8802 LP  0  0  0  0  0  0  0  0  0  0  0  0  # atno 17395 bound_to 11000

$$$$
