AV-unprocessed.smi:2979|AV-procd|sdf|11371|dock3
  -GOLD-   2272016293D 1   1.00000     0.00000
 Structure written by MMmdl.
 36 37  0  0  0  0  0  0  0  0  2 V2000
  152.3609  137.8329  159.8057 C   0  0  0  0  0  0  0  0  0  0  0  0
  151.7500  137.9723  158.5350 O   0  0  0  0  0  0  0  0  0  0  0  0
  151.1374  139.2381  158.3638 C   0  0  0  0  0  0  0  0  0  0  0  0
  152.1833  140.3306  158.6270 C   0  0  0  0  0  0  0  0  0  0  0  0
  151.6952  141.6697  158.2671 N   0  0  0  0  0  0  0  0  0  0  0  0
  151.0566  142.1152  157.1453 C   0  0  0  0  0  0  0  0  0  0  0  0
  150.6882  141.3185  155.9352 C   0  0  0  0  0  0  0  0  0  0  0  0
  149.1776  141.3670  155.6665 C   0  0  0  0  0  0  0  0  0  0  0  0
  148.7722  140.5361  154.4429 C   0  0  0  0  0  0  0  0  0  0  0  0
  149.5778  140.8915  153.3406 O   0  0  0  0  0  0  0  0  0  0  0  0
  150.8316  143.4492  157.3135 N   0  3  0  0  0  0  0  0  0  0  0  0
  151.3216  143.8597  158.5537 C   0  0  0  0  0  0  0  0  0  0  0  0
  151.3251  145.1100  159.1645 C   0  0  0  0  0  0  0  0  0  0  0  0
  151.9127  145.1873  160.4446 C   0  0  0  0  0  0  0  0  0  0  0  0
  152.4642  144.0496  161.0693 C   0  0  0  0  0  0  0  0  0  0  0  0
  152.4531  142.7872  160.4405 C   0  0  0  0  0  0  0  0  0  0  0  0
  151.8739  142.7208  159.1736 C   0  0  0  0  0  0  0  0  0  0  0  0
  152.8225  136.8487  159.8840 H   0  0  0  0  0  0  0  0  0  0  0  0
  151.6274  137.9251  160.6077 H   0  0  0  0  0  0  0  0  0  0  0  0
  153.1393  138.5824  159.9545 H   0  0  0  0  0  0  0  0  0  0  0  0
  150.7416  139.3241  157.3510 H   0  0  0  0  0  0  0  0  0  0  0  0
  150.2985  139.3418  159.0527 H   0  0  0  0  0  0  0  0  0  0  0  0
  152.4562  140.3396  159.6820 H   0  0  0  0  0  0  0  0  0  0  0  0
  153.1011  140.1351  158.0714 H   0  0  0  0  0  0  0  0  0  0  0  0
  151.2413  141.6920  155.0732 H   0  0  0  0  0  0  0  0  0  0  0  0
  151.0074  140.2862  156.0828 H   0  0  0  0  0  0  0  0  0  0  0  0
  148.6414  141.0058  156.5453 H   0  0  0  0  0  0  0  0  0  0  0  0
  148.8665  142.4009  155.5167 H   0  0  0  0  0  0  0  0  0  0  0  0
  148.8929  139.4709  154.6424 H   0  0  0  0  0  0  0  0  0  0  0  0
  147.7257  140.7067  154.1884 H   0  0  0  0  0  0  0  0  0  0  0  0
  149.4529  140.2515  152.6566 H   0  0  0  0  0  0  0  0  0  0  0  0
  150.9030  145.9825  158.6876 H   0  0  0  0  0  0  0  0  0  0  0  0
  151.9412  146.1380  160.9572 H   0  0  0  0  0  0  0  0  0  0  0  0
  152.9059  144.1469  162.0505 H   0  0  0  0  0  0  0  0  0  0  0  0
  152.8794  141.9218  160.9259 H   0  0  0  0  0  0  0  0  0  0  0  0
  150.3753  144.0351  156.6260 H   0  0  0  0  0  0  0  0  0  0  0  0
  1  2  1  0  0  0  0
  1 18  1  0  0  0  0
  1 19  1  0  0  0  0
  1 20  1  0  0  0  0
  2  3  1  0  0  0  0
  3  4  1  0  0  0  0
  3 21  1  0  0  0  0
  3 22  1  0  0  0  0
  4  5  1  0  0  0  0
  4 23  1  0  0  0  0
  4 24  1  0  0  0  0
  5 17  1  0  0  0  0
  5  6  1  0  0  0  0
  6  7  1  0  0  0  0
  6 11  2  0  0  0  0
  7  8  1  0  0  0  0
  7 25  1  0  0  0  0
  7 26  1  0  0  0  0
  8  9  1  0  0  0  0
  8 27  1  0  0  0  0
  8 28  1  0  0  0  0
  9 10  1  0  0  0  0
  9 29  1  0  0  0  0
  9 30  1  0  0  0  0
 10 31  1  0  0  0  0
 11 12  1  0  0  0  0
 11 36  1  0  0  0  0
 12 17  2  0  0  0  0
 12 13  1  0  0  0  0
 13 14  2  0  0  0  0
 13 32  1  0  0  0  0
 14 15  1  0  0  0  0
 14 33  1  0  0  0  0
 15 16  2  0  0  0  0
 15 34  1  0  0  0  0
 16 17  1  0  0  0  0
 16 35  1  0  0  0  0
M  CHG  1  11   1
M  END
> <s_m_source_file>
AV-unprocessed.smi

> <i_m_source_file_index>
2979

> <i_lp_mmshare_version>
43012

> <i_f3d_flags>
0

> <s_epik_input>
W2NIXTFbY0hdW2NIXVtjSF1jKGMxMiluKFtDSDJdW0NIMl1PW0NIM10pYyhuMilbQ0gyXVtDSDJdW0NIMl1bT0hd

> <s_epik_cmdline>
J2VwaWtfcHl0aG9uJywgJy1waCcsICc3LjAnLCAnLXRuJywgJzgnLCAnLW1hJywgJzIwMCcsICctbWV0YWxfYmluZGluZycsICctaW1hZScsICc8aW5maWxlLm1hZT4nLCAnLW9tYWUnLCAnPG91dGZpbGUubWFlPic=

> <r_epik_Ionization_Penalty>
0.784545

> <r_epik_Ionization_Penalty_Charging>
0.784544

> <r_epik_Ionization_Penalty_Neutral>
1.64912e-07

> <r_epik_State_Penalty>
0.814415

> <r_epik_Charging_Adjusted_Penalty>
1.59896

> <i_epik_Tot_Q>
1

> <i_epik_Tot_abs_Q>
1

> <r_epik_Metal_State_Penalty>
4.73458

> <b_epik_Metal_Only>
0

> <s_lp_Force_Field>
OPLS_2005

> <r_lp_Energy>
12.3561

> <b_lp_Chiralities_Consistent>
1

> <s_lp_Variant>
AV-unprocessed.smi:2979-2

> <Gold.Version>
5.8.1

> <Gold.Id.Protein>
6NUR|6NUR_protein|mol2

> <Gold.PLP.Fitness>
54.3701

> <Gold.PLP.PLP>
-42.4683

> <Gold.PLP.part.hbond>
-3.3650

> <Gold.PLP.part.metal>
0.0000

> <Gold.PLP.part.buried>
-6.8697

> <Gold.PLP.part.nonpolar>
-32.1681

> <Gold.PLP.part.repulsive>
0.0000

> <Gold.PLP.ligand.clash>
0.0000

> <Gold.PLP.ligand.torsion>
0.1932

> <Gold.PLP.Chemscore.Hbond>
4.0785

> <Gold.PLP.Chemscore.CHOScore>
0.0000

> <Gold.PLP.Chemscore.Metal>
0.0000

> <Gold.Chemscore.Hbonds>
donor molecule, donor type, donor heavy atom, donor atom, acceptor molecule, acceptor atom, score
      L1  H    10    31       P1  7957  0.83
      L1  H    11    36       P1  8028  2.00
      P1  H  7989  7998       L1    10  0.24
      P1  H  8011  8017       L1    10  1.00

> <Gold.PLP.Chemscore.Internal.Correction>
0.0527

> <Gold.Rescore>
     Score         DG    S(hbond)    S(metal)    S(lipo)     H(rot)  DE(clash)    DE(int)     intcor
     18.76     -19.20       2.36        0.00     105.21       2.54       0.04       0.40       ----

> <Gold.Chemscore.Fitness>
18.7585

> <Gold.Chemscore.DG>
-19.1957

> <Gold.Chemscore.ZeroCoef>
-5.4800

> <Gold.Chemscore.Hbond>
2.3643

> <Gold.Chemscore.Metal>
0.0000

> <Gold.Chemscore.Lipo>
105.2102

> <Gold.Chemscore.Internal_Hbond>
0.0000

> <Gold.Chemscore.DEClash>
0.0402

> <Gold.Chemscore.DEInternal>
0.3969

> <Gold.Chemscore.Rot>
2.5353

> <Gold.Chemscore.Internal.Correction>
   9.000000E+99

> <Gold.Chemscore.Hbonds>
donor molecule, donor type, donor heavy atom, donor atom, acceptor molecule, acceptor atom, score
      L1  H    10    31       P1  7957  0.76
      L1  H    11    36       P1  8028  0.98
      P1  H  7989  7998       L1    10  0.06
      P1  H  8011  8017       L1    10  0.25

> <Gold.Chemscore.Hbond.Weighted>
-7.8966

> <Gold.Chemscore.Metal.Weighted>
-0.0000

> <Gold.Chemscore.Lipo.Weighted>
-12.3096

> <Gold.Chemscore.Internal_Hbond.Weighted>
0.0000

> <Gold.Chemscore.DEClash.Weighted>
0.0402

> <Gold.Chemscore.DEInternal.Weighted>
0.3969

> <Gold.Chemscore.Rot.Weighted>
6.4905

> <Gold.Chemscore.Internal.Correction.Weighted>
   9.000000E+99

> <Gold.Protein.RotatedTorsions>
[ 6907 6896 6895 6894 ] final -120.49 input  -60.11 | X-H torsion
[ 7974 7965 7964 7962 ] final   70.91 input  175.53 | X-H torsion
[ 8008 7997 7996 7995 ] final   11.17 input   59.86 | X-H torsion
[ 10167 10162 10161 10158 ] final   34.38 input  -65.29 | X-H torsion
[ 10718 10713 10712 10709 ] final  -74.52 input   66.30 | X-H torsion
[ 10763 10752 10751 10750 ] final  -52.13 input  -60.55 | X-H torsion
[ 11005 11000 10999 10996 ] final -139.91 input  -57.11 | X-H torsion

> <Gold.Protein.ActiveResidues>
 VAL166  LYS551  ARG553  GLY616  TRP617  ASP618  TYR619  PRO620  LYS621  CYS622 
 ASP623  PHE694  ASN695  SER759  ASP760  ASP761  ALA762  ILE779  LEU786  VAL792 
 PHE793  MET794  SER795  GLU796  ALA797  LYS798  CYS799  TRP800  GLU811  SER814 

> <Gold.Protein.RotatedAtoms>
  150.8398  133.7954  159.3065 H   0  0  0  0  0  0  0  0  0  0  0  0  # atno 6907 bound_to 6896
  151.5659  135.1062  159.9993 H   0  0  0  0  0  0  0  0  0  0  0  0  # atno 6908 bound_to 6896
  152.4464  133.7502  159.6746 H   0  0  0  0  0  0  0  0  0  0  0  0  # atno 6909 bound_to 6896
  145.7724  139.2849  143.1313 H   0  0  0  0  0  0  0  0  0  0  0  0  # atno 7974 bound_to 7965
  154.8033  140.2855  155.5906 H   0  0  0  0  0  0  0  0  0  0  0  0  # atno 8008 bound_to 7997
  156.2980  140.2582  156.2835 H   0  0  0  0  0  0  0  0  0  0  0  0  # atno 8009 bound_to 7997
  154.9533  140.0379  157.2144 H   0  0  0  0  0  0  0  0  0  0  0  0  # atno 8010 bound_to 7997
  140.4320  144.1311  150.6161 H   0  0  0  0  0  0  0  0  0  0  0  0  # atno 10167 bound_to 10162
  156.0240  130.4419  150.2905 H   0  0  0  0  0  0  0  0  0  0  0  0  # atno 10718 bound_to 10713
  154.1377  135.6510  153.4935 H   0  0  0  0  0  0  0  0  0  0  0  0  # atno 10763 bound_to 10752
  153.0175  135.5308  154.6936 H   0  0  0  0  0  0  0  0  0  0  0  0  # atno 10764 bound_to 10752
  154.6189  135.2962  155.0319 H   0  0  0  0  0  0  0  0  0  0  0  0  # atno 10765 bound_to 10752
  140.8473  134.2328  157.4779 H   0  0  0  0  0  0  0  0  0  0  0  0  # atno 11005 bound_to 11000
  146.0157  140.8395  142.9948 LP  0  0  0  0  0  0  0  0  0  0  0  0  # atno 17320 bound_to 7965
  144.6810  140.2554  143.7326 LP  0  0  0  0  0  0  0  0  0  0  0  0  # atno 17321 bound_to 7965
  140.4416  143.2524  151.9465 LP  0  0  0  0  0  0  0  0  0  0  0  0  # atno 17342 bound_to 10162
  139.4785  144.5649  151.8181 LP  0  0  0  0  0  0  0  0  0  0  0  0  # atno 17343 bound_to 10162
  157.1008  131.0195  151.3086 LP  0  0  0  0  0  0  0  0  0  0  0  0  # atno 17370 bound_to 10713
  157.4781  130.7749  149.7387 LP  0  0  0  0  0  0  0  0  0  0  0  0  # atno 17371 bound_to 10713
  139.8703  134.9666  156.4567 LP  0  0  0  0  0  0  0  0  0  0  0  0  # atno 17394 bound_to 11000
  140.8829  133.7905  155.9486 LP  0  0  0  0  0  0  0  0  0  0  0  0  # atno 17395 bound_to 11000

$$$$
