AV-unprocessed.smi:2541|AV-procd|sdf|9989|dock8
  -GOLD-   2272014 43D 1   1.00000     0.00000
 Structure written by MMmdl.
 38 39  0  0  0  0  0  0  0  0  1 V2000
  147.7742  138.2803  159.0420 O   0  0  0  0  0  0  0  0  0  0  0  0
  148.7519  137.5411  158.9150 C   0  0  0  0  0  0  0  0  0  0  0  0
  148.7458  136.1100  159.4687 C   0  0  0  0  0  0  0  0  0  0  0  0
  148.1433  136.0323  160.8485 C   0  0  0  0  0  0  0  0  0  0  0  0
  147.8830  134.8747  161.6339 C   0  0  0  0  0  0  0  0  0  0  0  0
  147.3419  135.3814  162.7800 C   0  0  0  0  0  0  0  0  0  0  0  0
  147.2786  136.7354  162.7175 O   0  0  0  0  0  0  0  0  0  0  0  0
  147.7953  137.1423  161.4819 N   0  0  0  0  0  0  0  0  0  0  0  0
  149.8787  137.9178  158.2906 N   0  0  0  0  0  0  0  0  0  0  0  0
  150.1217  139.2329  157.7042 C   0  0  0  0  0  0  0  0  0  0  0  0
  151.4820  139.8128  158.1544 C   0  0  2  0  0  0  0  0  0  0  0  0
  151.8965  139.0623  159.2815 O   0  0  0  0  0  0  0  0  0  0  0  0
  151.4379  141.3108  158.5658 C   0  0  0  0  0  0  0  0  0  0  0  0
  151.2430  142.2612  157.3584 C   0  0  0  0  0  0  0  0  0  0  0  0
  151.2285  143.7412  157.7755 C   0  0  0  0  0  0  0  0  0  0  0  0
  152.5018  144.1212  158.5411 C   0  0  0  0  0  0  0  0  0  0  0  0
  152.6986  143.2028  159.7535 C   0  0  0  0  0  0  0  0  0  0  0  0
  152.7195  141.7249  159.3329 C   0  0  0  0  0  0  0  0  0  0  0  0
  148.1847  135.4758  158.7817 H   0  0  0  0  0  0  0  0  0  0  0  0
  149.7678  135.7279  159.4775 H   0  0  0  0  0  0  0  0  0  0  0  0
  148.0601  133.8375  161.3911 H   0  0  0  0  0  0  0  0  0  0  0  0
  146.9716  134.9299  163.6886 H   0  0  0  0  0  0  0  0  0  0  0  0
  150.6327  137.2488  158.2319 H   0  0  0  0  0  0  0  0  0  0  0  0
  150.1110  139.0674  156.6289 H   0  0  0  0  0  0  0  0  0  0  0  0
  149.3088  139.9315  157.9109 H   0  0  0  0  0  0  0  0  0  0  0  0
  152.2180  139.6807  157.3599 H   0  0  0  0  0  0  0  0  0  0  0  0
  152.6825  138.5886  159.0556 H   0  0  0  0  0  0  0  0  0  0  0  0
  150.5873  141.4505  159.2353 H   0  0  0  0  0  0  0  0  0  0  0  0
  152.0359  142.0961  156.6276 H   0  0  0  0  0  0  0  0  0  0  0  0
  150.3036  142.0545  156.8487 H   0  0  0  0  0  0  0  0  0  0  0  0
  151.1239  144.3740  156.8936 H   0  0  0  0  0  0  0  0  0  0  0  0
  150.3553  143.9355  158.3996 H   0  0  0  0  0  0  0  0  0  0  0  0
  153.3653  144.0465  157.8788 H   0  0  0  0  0  0  0  0  0  0  0  0
  152.4471  145.1611  158.8647 H   0  0  0  0  0  0  0  0  0  0  0  0
  153.6284  143.4566  160.2633 H   0  0  0  0  0  0  0  0  0  0  0  0
  151.8959  143.3671  160.4734 H   0  0  0  0  0  0  0  0  0  0  0  0
  152.8478  141.1151  160.2273 H   0  0  0  0  0  0  0  0  0  0  0  0
  153.5955  141.5393  158.7099 H   0  0  0  0  0  0  0  0  0  0  0  0
  1  2  2  0  0  0  0
  2  3  1  0  0  0  0
  2  9  1  0  0  0  0
  3  4  1  0  0  0  0
  3 19  1  0  0  0  0
  3 20  1  0  0  0  0
  4  8  2  0  0  0  0
  4  5  1  0  0  0  0
  5  6  2  0  0  0  0
  5 21  1  0  0  0  0
  6  7  1  0  0  0  0
  6 22  1  0  0  0  0
  7  8  1  0  0  0  0
  9 10  1  0  0  0  0
  9 23  1  0  0  0  0
 10 11  1  0  0  0  0
 10 24  1  0  0  0  0
 10 25  1  0  0  0  0
 11 12  1  0  0  0  0
 11 13  1  0  0  0  0
 11 26  1  0  0  0  0
 12 27  1  0  0  0  0
 13 18  1  0  0  0  0
 13 14  1  0  0  0  0
 13 28  1  0  0  0  0
 14 15  1  0  0  0  0
 14 29  1  0  0  0  0
 14 30  1  0  0  0  0
 15 16  1  0  0  0  0
 15 31  1  0  0  0  0
 15 32  1  0  0  0  0
 16 17  1  0  0  0  0
 16 33  1  0  0  0  0
 16 34  1  0  0  0  0
 17 18  1  0  0  0  0
 17 35  1  0  0  0  0
 17 36  1  0  0  0  0
 18 37  1  0  0  0  0
 18 38  1  0  0  0  0
M  END
> <s_m_source_file>
AV-unprocessed.smi

> <i_m_source_file_index>
2541

> <i_lp_mmshare_version>
43012

> <i_f3d_flags>
0

> <s_epik_input>
bjFvW2NIXVtjSF1jMVtDSDJdQyg9TylbTkhdW0NIMl1bQ0BIXShbT0hdKVtDSF0yW0NIMl1bQ0gyXVtDSDJdW0NIMl1bQ0gyXTI=

> <s_epik_cmdline>
J2VwaWtfcHl0aG9uJywgJy1waCcsICc3LjAnLCAnLXRuJywgJzgnLCAnLW1hJywgJzIwMCcsICctbWV0YWxfYmluZGluZycsICctaW1hZScsICc8aW5maWxlLm1hZT4nLCAnLW9tYWUnLCAnPG91dGZpbGUubWFlPic=

> <r_lp_tautomer_probability>
1

> <r_epik_Ionization_Penalty>
2.3322e-07

> <r_epik_Ionization_Penalty_Charging>
0

> <r_epik_Ionization_Penalty_Neutral>
2.3322e-07

> <r_epik_State_Penalty>
-0

> <r_epik_Charging_Adjusted_Penalty>
0

> <i_epik_Tot_Q>
0

> <i_epik_Tot_abs_Q>
0

> <r_epik_Metal_State_Penalty>
-0

> <b_epik_Metal_Only>
0

> <s_lp_Force_Field>
OPLS_2005

> <r_lp_Energy>
14.1188

> <b_lp_Chiralities_Consistent>
1

> <s_lp_Variant>
AV-unprocessed.smi:2541-1

> <Gold.Version>
5.8.1

> <Gold.Id.Protein>
6NUR|6NUR_protein|mol2

> <Gold.PLP.Fitness>
40.8575

> <Gold.PLP.PLP>
-37.5289

> <Gold.PLP.part.hbond>
-3.0000

> <Gold.PLP.part.metal>
0.0000

> <Gold.PLP.part.buried>
-5.1977

> <Gold.PLP.part.nonpolar>
-29.8950

> <Gold.PLP.part.repulsive>
0.1213

> <Gold.PLP.ligand.clash>
0.0000

> <Gold.PLP.ligand.torsion>
1.0894

> <Gold.PLP.Chemscore.Hbond>
1.8240

> <Gold.PLP.Chemscore.CHOScore>
0.0000

> <Gold.PLP.Chemscore.Metal>
0.0000

> <Gold.Chemscore.Hbonds>
donor molecule, donor type, donor heavy atom, donor atom, acceptor molecule, acceptor atom, score
      P1  H  6931  6943       L1     8  1.00
      P1  H  6934  6947       L1     8  0.72

> <Gold.PLP.Chemscore.Internal.Correction>
0.0354

> <Gold.Rescore>
     Score         DG    S(hbond)    S(metal)    S(lipo)     H(rot)  DE(clash)    DE(int)     intcor
     12.18     -15.14       1.39        0.00      95.88       2.42       0.27       2.68       ----

> <Gold.Chemscore.Fitness>
12.1812

> <Gold.Chemscore.DG>
-15.1365

> <Gold.Chemscore.ZeroCoef>
-5.4800

> <Gold.Chemscore.Hbond>
1.3851

> <Gold.Chemscore.Metal>
0.0000

> <Gold.Chemscore.Lipo>
95.8820

> <Gold.Chemscore.Internal_Hbond>
0.0000

> <Gold.Chemscore.DEClash>
0.2748

> <Gold.Chemscore.DEInternal>
2.6805

> <Gold.Chemscore.Rot>
2.4172

> <Gold.Chemscore.Internal.Correction>
   9.000000E+99

> <Gold.Chemscore.Hbonds>
donor molecule, donor type, donor heavy atom, donor atom, acceptor molecule, acceptor atom, score
      P1  H  6931  6943       L1     8  0.37
      P1  H  6934  6947       L1     8  0.58

> <Gold.Chemscore.Hbond.Weighted>
-4.6263

> <Gold.Chemscore.Metal.Weighted>
-0.0000

> <Gold.Chemscore.Lipo.Weighted>
-11.2182

> <Gold.Chemscore.Internal_Hbond.Weighted>
0.0000

> <Gold.Chemscore.DEClash.Weighted>
0.2748

> <Gold.Chemscore.DEInternal.Weighted>
2.6805

> <Gold.Chemscore.Rot.Weighted>
6.1880

> <Gold.Chemscore.Internal.Correction.Weighted>
   9.000000E+99

> <Gold.Protein.RotatedTorsions>
[ 6907 6896 6895 6894 ] final -100.20 input  -60.11 | X-H torsion
[ 7974 7965 7964 7962 ] final   37.54 input  175.53 | X-H torsion
[ 8008 7997 7996 7995 ] final -178.00 input   59.86 | X-H torsion
[ 10167 10162 10161 10158 ] final  120.72 input  -65.29 | X-H torsion
[ 10718 10713 10712 10709 ] final  -12.36 input   66.30 | X-H torsion
[ 10763 10752 10751 10750 ] final    4.95 input  -60.55 | X-H torsion
[ 11005 11000 10999 10996 ] final    4.57 input  -57.11 | X-H torsion

> <Gold.Protein.ActiveResidues>
 VAL166  LYS551  ARG553  GLY616  TRP617  ASP618  TYR619  PRO620  LYS621  CYS622 
 ASP623  PHE694  ASN695  SER759  ASP760  ASP761  ALA762  ILE779  LEU786  VAL792 
 PHE793  MET794  SER795  GLU796  ALA797  LYS798  CYS799  TRP800  GLU811  SER814 

> <Gold.Protein.RotatedAtoms>
  150.7107  134.0923  159.3935 H   0  0  0  0  0  0  0  0  0  0  0  0  # atno 6907 bound_to 6896
  151.8909  135.0414  160.0507 H   0  0  0  0  0  0  0  0  0  0  0  0  # atno 6908 bound_to 6896
  152.2492  133.5165  159.5352 H   0  0  0  0  0  0  0  0  0  0  0  0  # atno 6909 bound_to 6896
  146.1130  139.5882  142.9340 H   0  0  0  0  0  0  0  0  0  0  0  0  # atno 7974 bound_to 7965
  156.0136  140.1246  157.0429 H   0  0  0  0  0  0  0  0  0  0  0  0  # atno 8008 bound_to 7997
  154.4285  140.1083  156.5934 H   0  0  0  0  0  0  0  0  0  0  0  0  # atno 8009 bound_to 7997
  155.6045  140.3471  155.4606 H   0  0  0  0  0  0  0  0  0  0  0  0  # atno 8010 bound_to 7997
  139.5964  144.7043  151.3165 H   0  0  0  0  0  0  0  0  0  0  0  0  # atno 10167 bound_to 10162
  156.6457  130.4940  149.6079 H   0  0  0  0  0  0  0  0  0  0  0  0  # atno 10718 bound_to 10713
  153.2652  135.6927  153.7537 H   0  0  0  0  0  0  0  0  0  0  0  0  # atno 10763 bound_to 10752
  153.6581  135.3365  155.3120 H   0  0  0  0  0  0  0  0  0  0  0  0  # atno 10764 bound_to 10752
  154.8444  135.4470  154.1656 H   0  0  0  0  0  0  0  0  0  0  0  0  # atno 10765 bound_to 10752
  140.5804  134.0018  155.8045 H   0  0  0  0  0  0  0  0  0  0  0  0  # atno 11005 bound_to 11000
  145.5625  141.0403  143.2218 LP  0  0  0  0  0  0  0  0  0  0  0  0  # atno 17320 bound_to 7965
  144.7528  139.7151  143.7266 LP  0  0  0  0  0  0  0  0  0  0  0  0  # atno 17321 bound_to 7965
  140.7215  143.7121  150.7761 LP  0  0  0  0  0  0  0  0  0  0  0  0  # atno 17342 bound_to 10162
  140.0688  143.5081  152.2590 LP  0  0  0  0  0  0  0  0  0  0  0  0  # atno 17343 bound_to 10162
  156.2124  130.6687  151.1283 LP  0  0  0  0  0  0  0  0  0  0  0  0  # atno 17370 bound_to 10713
  157.7157  131.0711  150.6336 LP  0  0  0  0  0  0  0  0  0  0  0  0  # atno 17371 bound_to 10713
  141.1000  133.9784  157.3096 LP  0  0  0  0  0  0  0  0  0  0  0  0  # atno 17394 bound_to 11000
  139.9320  135.0199  156.8431 LP  0  0  0  0  0  0  0  0  0  0  0  0  # atno 17395 bound_to 11000

$$$$
