AV-unprocessed.smi:314|AV-procd|sdf|2315|dock7
  -GOLD-   2262022223D 1   1.00000     0.00000
 Structure written by MMmdl.
 48 49  0  0  0  0  0  0  0  0  1 V2000
  151.6473  145.7856  160.3717 C   0  0  0  0  0  0  0  0  0  0  0  0
  152.3590  144.5539  160.4224 O   0  0  0  0  0  0  0  0  0  0  0  0
  151.9797  143.5424  159.5639 C   0  0  0  0  0  0  0  0  0  0  0  0
  152.6715  142.3161  159.6194 C   0  0  0  0  0  0  0  0  0  0  0  0
  152.2904  141.2821  158.7436 C   0  0  0  0  0  0  0  0  0  0  0  0
  151.2396  141.5065  157.8319 C   0  0  0  0  0  0  0  0  0  0  0  0
  150.8598  140.4431  156.9699 N   0  0  0  0  0  0  0  0  0  0  0  0
  151.6416  139.4872  156.4399 C   0  0  0  0  0  0  0  0  0  0  0  0
  152.8390  139.3345  156.6821 O   0  0  0  0  0  0  0  0  0  0  0  0
  150.9468  138.6912  155.6148 N   0  0  0  0  0  0  0  0  0  0  0  0
  151.5010  137.5521  154.8912 C   0  0  0  0  0  0  0  0  0  0  0  0
  151.1379  136.2147  155.5697 C   0  0  0  0  0  0  0  0  0  0  0  0
  151.8461  135.9902  156.9162 C   0  0  0  0  0  0  0  0  0  0  0  0
  153.0308  135.6519  156.9196 O   0  0  0  0  0  0  0  0  0  0  0  0
  151.1418  136.1587  158.0611 N   0  0  0  0  0  0  0  0  0  0  0  0
  149.7706  136.6694  158.0943 C   0  0  0  0  0  0  0  0  0  0  0  0
  149.7938  138.0614  158.7555 C   0  0  1  0  0  0  0  0  0  0  0  0
  148.3888  138.6555  158.8990 C   0  0  0  0  0  0  0  0  0  0  0  0
  150.3679  137.9617  160.0619 O   0  0  0  0  0  0  0  0  0  0  0  0
  151.6704  137.3711  160.1253 C   0  0  2  0  0  0  0  0  0  0  0  0
  152.7502  138.3310  159.5930 C   0  0  0  0  0  0  0  0  0  0  0  0
  151.6522  135.9957  159.4254 C   0  0  0  0  0  0  0  0  0  0  0  0
  150.5972  142.7682  157.8630 C   0  0  0  0  0  0  0  0  0  0  0  0
  150.9555  143.7623  158.7028 N   0  0  0  0  0  0  0  0  0  0  0  0
  152.0734  146.4785  161.0968 H   0  0  0  0  0  0  0  0  0  0  0  0
  150.5947  145.6487  160.6240 H   0  0  0  0  0  0  0  0  0  0  0  0
  151.7222  146.2497  159.3872 H   0  0  0  0  0  0  0  0  0  0  0  0
  153.4797  142.1718  160.3208 H   0  0  0  0  0  0  0  0  0  0  0  0
  152.8044  140.3323  158.7697 H   0  0  0  0  0  0  0  0  0  0  0  0
  149.8734  140.3790  156.7652 H   0  0  0  0  0  0  0  0  0  0  0  0
  149.9651  138.8838  155.4791 H   0  0  0  0  0  0  0  0  0  0  0  0
  151.1481  137.5722  153.8582 H   0  0  0  0  0  0  0  0  0  0  0  0
  152.5842  137.6734  154.8539 H   0  0  0  0  0  0  0  0  0  0  0  0
  150.0596  136.1616  155.7247 H   0  0  0  0  0  0  0  0  0  0  0  0
  151.4085  135.3973  154.9011 H   0  0  0  0  0  0  0  0  0  0  0  0
  149.3199  136.7343  157.1029 H   0  0  0  0  0  0  0  0  0  0  0  0
  149.1408  135.9857  158.6657 H   0  0  0  0  0  0  0  0  0  0  0  0
  150.3894  138.7437  158.1480 H   0  0  0  0  0  0  0  0  0  0  0  0
  147.9109  138.7708  157.9259 H   0  0  0  0  0  0  0  0  0  0  0  0
  148.4281  139.6389  159.3682 H   0  0  0  0  0  0  0  0  0  0  0  0
  147.7516  138.0183  159.5125 H   0  0  0  0  0  0  0  0  0  0  0  0
  151.8809  137.2061  161.1825 H   0  0  0  0  0  0  0  0  0  0  0  0
  153.7458  137.9101  159.7351 H   0  0  0  0  0  0  0  0  0  0  0  0
  152.7173  139.2832  160.1226 H   0  0  0  0  0  0  0  0  0  0  0  0
  152.6352  138.5382  158.5296 H   0  0  0  0  0  0  0  0  0  0  0  0
  150.9880  135.3205  159.9669 H   0  0  0  0  0  0  0  0  0  0  0  0
  152.6354  135.5308  159.4788 H   0  0  0  0  0  0  0  0  0  0  0  0
  149.7596  142.9980  157.2230 H   0  0  0  0  0  0  0  0  0  0  0  0
  1  2  1  0  0  0  0
  1 25  1  0  0  0  0
  1 26  1  0  0  0  0
  1 27  1  0  0  0  0
  2  3  1  0  0  0  0
  3 24  1  0  0  0  0
  3  4  2  0  0  0  0
  4  5  1  0  0  0  0
  4 28  1  0  0  0  0
  5  6  2  0  0  0  0
  5 29  1  0  0  0  0
  6  7  1  0  0  0  0
  6 23  1  0  0  0  0
  7  8  1  0  0  0  0
  7 30  1  0  0  0  0
  8  9  2  0  0  0  0
  8 10  1  0  0  0  0
 10 11  1  0  0  0  0
 10 31  1  0  0  0  0
 11 12  1  0  0  0  0
 11 32  1  0  0  0  0
 11 33  1  0  0  0  0
 12 13  1  0  0  0  0
 12 34  1  0  0  0  0
 12 35  1  0  0  0  0
 13 14  2  0  0  0  0
 13 15  1  0  0  0  0
 15 22  1  0  0  0  0
 15 16  1  0  0  0  0
 16 17  1  0  0  0  0
 16 36  1  0  0  0  0
 16 37  1  0  0  0  0
 17 18  1  0  0  0  0
 17 19  1  0  0  0  0
 17 38  1  0  0  0  0
 18 39  1  0  0  0  0
 18 40  1  0  0  0  0
 18 41  1  0  0  0  0
 19 20  1  0  0  0  0
 20 21  1  0  0  0  0
 20 22  1  0  0  0  0
 20 42  1  0  0  0  0
 21 43  1  0  0  0  0
 21 44  1  0  0  0  0
 21 45  1  0  0  0  0
 22 46  1  0  0  0  0
 22 47  1  0  0  0  0
 23 24  2  0  0  0  0
 23 48  1  0  0  0  0
M  END
> <s_m_source_file>
AV-unprocessed.smi

> <i_m_source_file_index>
314

> <i_lp_mmshare_version>
43012

> <i_f3d_flags>
0

> <s_epik_input>
W0NIM11PYzFbY0hdW2NIXWMoW2NIXW4xKVtOSF1DKD1PKVtOSF1bQ0gyXVtDSDJdQyg9TylOMltDSDJdW0NAQEhdKFtDSDNdKU9bQ0BASF0oW0NIM10pW0NIMl0y

> <s_epik_cmdline>
J2VwaWtfcHl0aG9uJywgJy1waCcsICc3LjAnLCAnLXRuJywgJzgnLCAnLW1hJywgJzIwMCcsICctbWV0YWxfYmluZGluZycsICctaW1hZScsICc8aW5maWxlLm1hZT4nLCAnLW9tYWUnLCAnPG91dGZpbGUubWFlPic=

> <r_lp_tautomer_probability>
1

> <r_epik_Ionization_Penalty>
8.55977e-05

> <r_epik_Ionization_Penalty_Charging>
0

> <r_epik_Ionization_Penalty_Neutral>
8.55977e-05

> <r_epik_State_Penalty>
-0

> <r_epik_Charging_Adjusted_Penalty>
0

> <i_epik_Tot_Q>
0

> <i_epik_Tot_abs_Q>
0

> <r_epik_Metal_State_Penalty>
-0

> <b_epik_Metal_Only>
0

> <s_lp_Force_Field>
OPLS_2005

> <r_lp_Energy>
24.1988

> <b_lp_Chiralities_Consistent>
1

> <s_lp_Variant>
AV-unprocessed.smi:314-3

> <Gold.Version>
5.8.1

> <Gold.Id.Protein>
6NUR|6NUR_protein|mol2

> <Gold.PLP.Fitness>
42.2024

> <Gold.PLP.PLP>
-34.3376

> <Gold.PLP.part.hbond>
-2.7344

> <Gold.PLP.part.metal>
0.0000

> <Gold.PLP.part.buried>
-5.4727

> <Gold.PLP.part.nonpolar>
-27.5072

> <Gold.PLP.part.repulsive>
1.1468

> <Gold.PLP.ligand.clash>
0.0000

> <Gold.PLP.ligand.torsion>
0.5807

> <Gold.PLP.Chemscore.Hbond>
2.0000

> <Gold.PLP.Chemscore.CHOScore>
1.0000

> <Gold.PLP.Chemscore.Metal>
0.0000

> <Gold.Chemscore.Hbonds>
donor molecule, donor type, donor heavy atom, donor atom, acceptor molecule, acceptor atom, score
      P1  H  7997  8010       L1     9  1.00
      P1  H 10752 10763       L1    14  1.00
      L1  C    23    48       P1  8028  1.00

> <Gold.PLP.Chemscore.Internal.Correction>
0.0261

> <Gold.Rescore>
     Score         DG    S(hbond)    S(metal)    S(lipo)     H(rot)  DE(clash)    DE(int)     intcor
     14.70     -16.63       1.98        0.00      78.20       1.81       0.20       1.73       ----

> <Gold.Chemscore.Fitness>
14.7012

> <Gold.Chemscore.DG>
-16.6282

> <Gold.Chemscore.ZeroCoef>
-5.4800

> <Gold.Chemscore.Hbond>
1.9833

> <Gold.Chemscore.Metal>
0.0000

> <Gold.Chemscore.Lipo>
78.1978

> <Gold.Chemscore.Internal_Hbond>
0.0000

> <Gold.Chemscore.DEClash>
0.1984

> <Gold.Chemscore.DEInternal>
1.7286

> <Gold.Chemscore.Rot>
1.8067

> <Gold.Chemscore.Internal.Correction>
   9.000000E+99

> <Gold.Chemscore.Hbonds>
donor molecule, donor type, donor heavy atom, donor atom, acceptor molecule, acceptor atom, score
      P1  H  7997  8010       L1     9  1.00
      P1  H 10752 10763       L1    14  0.45

> <Gold.Chemscore.Hbond.Weighted>
-6.6242

> <Gold.Chemscore.Metal.Weighted>
-0.0000

> <Gold.Chemscore.Lipo.Weighted>
-9.1491

> <Gold.Chemscore.Internal_Hbond.Weighted>
0.0000

> <Gold.Chemscore.DEClash.Weighted>
0.1984

> <Gold.Chemscore.DEInternal.Weighted>
1.7286

> <Gold.Chemscore.Rot.Weighted>
4.6252

> <Gold.Chemscore.Internal.Correction.Weighted>
   9.000000E+99

> <Gold.Protein.RotatedTorsions>
[ 6907 6896 6895 6894 ] final   78.94 input  -60.11 | X-H torsion
[ 7974 7965 7964 7962 ] final  178.24 input  175.53 | X-H torsion
[ 8008 7997 7996 7995 ] final   74.47 input   59.86 | X-H torsion
[ 10167 10162 10161 10158 ] final  -97.13 input  -65.29 | X-H torsion
[ 10718 10713 10712 10709 ] final   47.78 input   66.30 | X-H torsion
[ 10763 10752 10751 10750 ] final  106.47 input  -60.55 | X-H torsion
[ 11005 11000 10999 10996 ] final  -60.73 input  -57.11 | X-H torsion

> <Gold.Protein.ActiveResidues>
 VAL166  LYS551  ARG553  GLY616  TRP617  ASP618  TYR619  PRO620  LYS621  CYS622 
 ASP623  PHE694  ASN695  SER759  ASP760  ASP761  ALA762  ILE779  LEU786  VAL792 
 PHE793  MET794  SER795  GLU796  ALA797  LYS798  CYS799  TRP800  GLU811  SER814 

> <Gold.Protein.RotatedAtoms>
  152.5179  134.3588  159.9276 H   0  0  0  0  0  0  0  0  0  0  0  0  # atno 6907 bound_to 6896
  151.3540  133.3908  159.2690 H   0  0  0  0  0  0  0  0  0  0  0  0  # atno 6908 bound_to 6896
  150.9705  134.9097  159.7843 H   0  0  0  0  0  0  0  0  0  0  0  0  # atno 6909 bound_to 6896
  144.7158  140.0368  143.6438 H   0  0  0  0  0  0  0  0  0  0  0  0  # atno 7974 bound_to 7965
  155.7988  140.3477  155.5391 H   0  0  0  0  0  0  0  0  0  0  0  0  # atno 8008 bound_to 7997
  155.8559  140.0963  157.1665 H   0  0  0  0  0  0  0  0  0  0  0  0  # atno 8009 bound_to 7997
  154.4009  140.1367  156.3888 H   0  0  0  0  0  0  0  0  0  0  0  0  # atno 8010 bound_to 7997
  140.2866  143.3248  152.0388 H   0  0  0  0  0  0  0  0  0  0  0  0  # atno 10167 bound_to 10162
  157.4620  130.8202  149.7896 H   0  0  0  0  0  0  0  0  0  0  0  0  # atno 10718 bound_to 10713
  153.3934  135.3876  155.1938 H   0  0  0  0  0  0  0  0  0  0  0  0  # atno 10763 bound_to 10752
  154.8722  135.3754  154.4709 H   0  0  0  0  0  0  0  0  0  0  0  0  # atno 10764 bound_to 10752
  153.5198  135.7087  153.5798 H   0  0  0  0  0  0  0  0  0  0  0  0  # atno 10765 bound_to 10752
  141.1298  133.6624  156.5268 H   0  0  0  0  0  0  0  0  0  0  0  0  # atno 11005 bound_to 11000
  146.0056  139.3127  143.0901 LP  0  0  0  0  0  0  0  0  0  0  0  0  # atno 17320 bound_to 7965
  145.8742  140.9402  143.0635 LP  0  0  0  0  0  0  0  0  0  0  0  0  # atno 17321 bound_to 7965
  139.4949  144.6555  151.6583 LP  0  0  0  0  0  0  0  0  0  0  0  0  # atno 17342 bound_to 10162
  140.5767  144.0015  150.6246 LP  0  0  0  0  0  0  0  0  0  0  0  0  # atno 17343 bound_to 10162
  156.0033  130.3868  150.2524 LP  0  0  0  0  0  0  0  0  0  0  0  0  # atno 17370 bound_to 10713
  157.0702  131.0114  151.3192 LP  0  0  0  0  0  0  0  0  0  0  0  0  # atno 17371 bound_to 10713
  140.4248  134.7155  157.4909 LP  0  0  0  0  0  0  0  0  0  0  0  0  # atno 17394 bound_to 11000
  140.0335  134.6371  155.9075 LP  0  0  0  0  0  0  0  0  0  0  0  0  # atno 17395 bound_to 11000

$$$$
