AV-unprocessed.smi:2144|AV-procd|sdf|8730|dock3
  -GOLD-   2272011493D 1   1.00000     0.00000
 Structure written by MMmdl.
 40 42  0  0  0  0  0  0  0  0  1 V2000
  151.0148  140.0720  154.0389 O   0  0  0  0  0  0  0  0  0  0  0  0
  150.3818  139.8468  155.2794 C   0  0  0  0  0  0  0  0  0  0  0  0
  151.0877  140.5091  156.4235 C   0  0  0  0  0  0  0  0  0  0  0  0
  151.3249  141.8214  156.4311 N   0  0  0  0  0  0  0  0  0  0  0  0
  151.9561  142.0108  157.6442 C   0  0  0  0  0  0  0  0  0  0  0  0
  152.4554  143.1883  158.2457 C   0  0  0  0  0  0  0  0  0  0  0  0
  153.0640  143.1377  159.5168 C   0  0  0  0  0  0  0  0  0  0  0  0
  153.1810  141.9120  160.2037 C   0  0  0  0  0  0  0  0  0  0  0  0
  152.6919  140.7270  159.6212 C   0  0  0  0  0  0  0  0  0  0  0  0
  152.0881  140.7824  158.3506 C   0  0  0  0  0  0  0  0  0  0  0  0
  151.5221  139.8250  157.5139 N   0  0  0  0  0  0  0  0  0  0  0  0
  151.4196  138.3989  157.8000 C   0  0  0  0  0  0  0  0  0  0  0  0
  150.7258  138.1084  159.1469 C   0  0  2  0  0  0  0  0  0  0  0  0
  151.5334  137.2570  159.9340 O   0  0  0  0  0  0  0  0  0  0  0  0
  149.3536  137.4444  158.9651 C   0  0  0  0  0  0  0  0  0  0  0  0
  148.6311  137.5474  160.1848 O   0  0  0  0  0  0  0  0  0  0  0  0
  147.8324  136.4901  160.5648 C   0  0  0  0  0  0  0  0  0  0  0  0
  147.7076  135.2831  159.8303 C   0  0  0  0  0  0  0  0  0  0  0  0
  146.8677  134.2509  160.2919 C   0  0  0  0  0  0  0  0  0  0  0  0
  146.1446  134.4096  161.4882 C   0  0  0  0  0  0  0  0  0  0  0  0
  146.2619  135.6034  162.2233 C   0  0  0  0  0  0  0  0  0  0  0  0
  147.1011  136.6363  161.7630 C   0  0  0  0  0  0  0  0  0  0  0  0
  147.2052  137.7808  162.4801 F   0  0  0  0  0  0  0  0  0  0  0  0
  150.4285  140.5681  153.4887 H   0  0  0  0  0  0  0  0  0  0  0  0
  149.3614  140.2267  155.2188 H   0  0  0  0  0  0  0  0  0  0  0  0
  150.2996  138.7758  155.4636 H   0  0  0  0  0  0  0  0  0  0  0  0
  152.3677  144.1323  157.7285 H   0  0  0  0  0  0  0  0  0  0  0  0
  153.4415  144.0440  159.9674 H   0  0  0  0  0  0  0  0  0  0  0  0
  153.6462  141.8820  161.1782 H   0  0  0  0  0  0  0  0  0  0  0  0
  152.7793  139.7870  160.1454 H   0  0  0  0  0  0  0  0  0  0  0  0
  150.8583  137.9384  156.9862 H   0  0  0  0  0  0  0  0  0  0  0  0
  152.4072  137.9406  157.7806 H   0  0  0  0  0  0  0  0  0  0  0  0
  150.5953  139.0366  159.7038 H   0  0  0  0  0  0  0  0  0  0  0  0
  152.3828  137.6591  160.0355 H   0  0  0  0  0  0  0  0  0  0  0  0
  148.8108  137.9251  158.1494 H   0  0  0  0  0  0  0  0  0  0  0  0
  149.4849  136.3910  158.7111 H   0  0  0  0  0  0  0  0  0  0  0  0
  148.2468  135.1233  158.9090 H   0  0  0  0  0  0  0  0  0  0  0  0
  146.7787  133.3352  159.7261 H   0  0  0  0  0  0  0  0  0  0  0  0
  145.5013  133.6169  161.8412 H   0  0  0  0  0  0  0  0  0  0  0  0
  145.7078  135.7280  163.1420 H   0  0  0  0  0  0  0  0  0  0  0  0
  1  2  1  0  0  0  0
  1 24  1  0  0  0  0
  2  3  1  0  0  0  0
  2 25  1  0  0  0  0
  2 26  1  0  0  0  0
  3 11  1  0  0  0  0
  3  4  2  0  0  0  0
  4  5  1  0  0  0  0
  5 10  2  0  0  0  0
  5  6  1  0  0  0  0
  6  7  2  0  0  0  0
  6 27  1  0  0  0  0
  7  8  1  0  0  0  0
  7 28  1  0  0  0  0
  8  9  2  0  0  0  0
  8 29  1  0  0  0  0
  9 10  1  0  0  0  0
  9 30  1  0  0  0  0
 10 11  1  0  0  0  0
 11 12  1  0  0  0  0
 12 13  1  0  0  0  0
 12 31  1  0  0  0  0
 12 32  1  0  0  0  0
 13 14  1  0  0  0  0
 13 15  1  0  0  0  0
 13 33  1  0  0  0  0
 14 34  1  0  0  0  0
 15 16  1  0  0  0  0
 15 35  1  0  0  0  0
 15 36  1  0  0  0  0
 16 17  1  0  0  0  0
 17 22  1  0  0  0  0
 17 18  2  0  0  0  0
 18 19  1  0  0  0  0
 18 37  1  0  0  0  0
 19 20  2  0  0  0  0
 19 38  1  0  0  0  0
 20 21  1  0  0  0  0
 20 39  1  0  0  0  0
 21 22  2  0  0  0  0
 21 40  1  0  0  0  0
 22 23  1  0  0  0  0
M  END
> <s_m_source_file>
AV-unprocessed.smi

> <i_m_source_file_index>
2144

> <i_lp_mmshare_version>
43012

> <i_f3d_flags>
0

> <s_epik_input>
W2NIXTFbY0hdW2NIXVtjSF1jKGMxMiluKGMobjIpW0NIMl1bT0hdKVtDSDJdW0NASF0oW09IXSlbQ0gyXU9jM1tjSF1bY0hdW2NIXVtjSF1jM0Y=

> <s_epik_cmdline>
J2VwaWtfcHl0aG9uJywgJy1waCcsICc3LjAnLCAnLXRuJywgJzgnLCAnLW1hJywgJzIwMCcsICctbWV0YWxfYmluZGluZycsICctaW1hZScsICc8aW5maWxlLm1hZT4nLCAnLW9tYWUnLCAnPG91dGZpbGUubWFlPic=

> <r_lp_tautomer_probability>
1

> <r_epik_Ionization_Penalty>
0.0547315

> <r_epik_Ionization_Penalty_Charging>
0

> <r_epik_Ionization_Penalty_Neutral>
0.0547315

> <r_epik_State_Penalty>
0.047032

> <r_epik_Charging_Adjusted_Penalty>
0.047032

> <i_epik_Tot_Q>
0

> <i_epik_Tot_abs_Q>
0

> <r_epik_Metal_State_Penalty>
4.89471e-05

> <b_epik_Metal_Only>
0

> <s_lp_Force_Field>
OPLS_2005

> <r_lp_Energy>
15.0425

> <b_lp_Chiralities_Consistent>
1

> <s_lp_Variant>
AV-unprocessed.smi:2144-1

> <Gold.Version>
5.8.1

> <Gold.Id.Protein>
6NUR|6NUR_protein|mol2

> <Gold.PLP.Fitness>
55.2471

> <Gold.PLP.PLP>
-49.3952

> <Gold.PLP.part.hbond>
-3.9232

> <Gold.PLP.part.metal>
0.0000

> <Gold.PLP.part.buried>
-4.1403

> <Gold.PLP.part.nonpolar>
-41.5619

> <Gold.PLP.part.repulsive>
0.0761

> <Gold.PLP.ligand.clash>
0.0000

> <Gold.PLP.ligand.torsion>
1.1278

> <Gold.PLP.Chemscore.Hbond>
2.6240

> <Gold.PLP.Chemscore.CHOScore>
0.0000

> <Gold.PLP.Chemscore.Metal>
0.0000

> <Gold.Chemscore.Hbonds>
donor molecule, donor type, donor heavy atom, donor atom, acceptor molecule, acceptor atom, score
      P1  H  6896  6909       L1    14  0.84
      P1  H  6931  6943       L1    16  0.43
      P1  H  6934  6947       L1    16  0.16

> <Gold.PLP.Chemscore.Internal.Correction>
0.2355

> <Gold.Rescore>
     Score         DG    S(hbond)    S(metal)    S(lipo)     H(rot)  DE(clash)    DE(int)     intcor
     16.95     -17.99       2.28        0.00     112.33       3.22       0.09       0.95       ----

> <Gold.Chemscore.Fitness>
16.9486

> <Gold.Chemscore.DG>
-17.9881

> <Gold.Chemscore.ZeroCoef>
-5.4800

> <Gold.Chemscore.Hbond>
2.2777

> <Gold.Chemscore.Metal>
0.0000

> <Gold.Chemscore.Lipo>
112.3328

> <Gold.Chemscore.Internal_Hbond>
0.0000

> <Gold.Chemscore.DEClash>
0.0945

> <Gold.Chemscore.DEInternal>
0.9451

> <Gold.Chemscore.Rot>
3.2196

> <Gold.Chemscore.Internal.Correction>
   9.000000E+99

> <Gold.Chemscore.Hbonds>
donor molecule, donor type, donor heavy atom, donor atom, acceptor molecule, acceptor atom, score
      L1  H     1    24       P1  7957  0.01
      P1  H  6896  6909       L1    14  0.80
      P1  H  6931  6943       L1    16  0.11
      P1  H  6934  6947       L1    16  0.02

> <Gold.Chemscore.Hbond.Weighted>
-7.6074

> <Gold.Chemscore.Metal.Weighted>
-0.0000

> <Gold.Chemscore.Lipo.Weighted>
-13.1429

> <Gold.Chemscore.Internal_Hbond.Weighted>
0.0000

> <Gold.Chemscore.DEClash.Weighted>
0.0945

> <Gold.Chemscore.DEInternal.Weighted>
0.9451

> <Gold.Chemscore.Rot.Weighted>
8.2422

> <Gold.Chemscore.Internal.Correction.Weighted>
   9.000000E+99

> <Gold.Protein.RotatedTorsions>
[ 6907 6896 6895 6894 ] final  110.67 input  -60.11 | X-H torsion
[ 7974 7965 7964 7962 ] final  -56.72 input  175.53 | X-H torsion
[ 8008 7997 7996 7995 ] final  146.41 input   59.86 | X-H torsion
[ 10167 10162 10161 10158 ] final  178.39 input  -65.29 | X-H torsion
[ 10718 10713 10712 10709 ] final  124.69 input   66.30 | X-H torsion
[ 10763 10752 10751 10750 ] final  -84.06 input  -60.55 | X-H torsion
[ 11005 11000 10999 10996 ] final -156.49 input  -57.11 | X-H torsion

> <Gold.Protein.ActiveResidues>
 VAL166  LYS551  ARG553  GLY616  TRP617  ASP618  TYR619  PRO620  LYS621  CYS622 
 ASP623  PHE694  ASN695  SER759  ASP760  ASP761  ALA762  ILE779  LEU786  VAL792 
 PHE793  MET794  SER795  GLU796  ALA797  LYS798  CYS799  TRP800  GLU811  SER814 

> <Gold.Protein.RotatedAtoms>
  152.5008  133.8767  159.7325 H   0  0  0  0  0  0  0  0  0  0  0  0  # atno 6907 bound_to 6896
  150.9240  133.6837  159.2832 H   0  0  0  0  0  0  0  0  0  0  0  0  # atno 6908 bound_to 6896
  151.4204  135.1001  159.9665 H   0  0  0  0  0  0  0  0  0  0  0  0  # atno 6909 bound_to 6896
  145.8594  140.8296  142.9944 H   0  0  0  0  0  0  0  0  0  0  0  0  # atno 7974 bound_to 7965
  156.2856  140.2183  156.5373 H   0  0  0  0  0  0  0  0  0  0  0  0  # atno 8008 bound_to 7997
  154.7399  140.0488  157.0824 H   0  0  0  0  0  0  0  0  0  0  0  0  # atno 8009 bound_to 7997
  155.0244  140.3128  155.4784 H   0  0  0  0  0  0  0  0  0  0  0  0  # atno 8010 bound_to 7997
  139.5292  144.2685  152.0647 H   0  0  0  0  0  0  0  0  0  0  0  0  # atno 10167 bound_to 10162
  157.5564  131.1092  150.8614 H   0  0  0  0  0  0  0  0  0  0  0  0  # atno 10718 bound_to 10713
  154.5950  135.5534  153.7317 H   0  0  0  0  0  0  0  0  0  0  0  0  # atno 10763 bound_to 10752
  153.0132  135.6352  154.1795 H   0  0  0  0  0  0  0  0  0  0  0  0  # atno 10764 bound_to 10752
  154.1735  135.2891  155.3054 H   0  0  0  0  0  0  0  0  0  0  0  0  # atno 10765 bound_to 10752
  140.6750  134.4206  157.5230 H   0  0  0  0  0  0  0  0  0  0  0  0  # atno 11005 bound_to 11000
  144.6727  140.1073  143.7457 LP  0  0  0  0  0  0  0  0  0  0  0  0  # atno 17320 bound_to 7965
  145.9265  139.2579  143.1350 LP  0  0  0  0  0  0  0  0  0  0  0  0  # atno 17321 bound_to 7965
  140.2146  144.4528  150.6370 LP  0  0  0  0  0  0  0  0  0  0  0  0  # atno 17342 bound_to 10162
  140.6458  143.2213  151.6189 LP  0  0  0  0  0  0  0  0  0  0  0  0  # atno 17343 bound_to 10162
  156.9124  130.5285  149.5280 LP  0  0  0  0  0  0  0  0  0  0  0  0  # atno 17370 bound_to 10713
  156.0623  130.5673  150.9217 LP  0  0  0  0  0  0  0  0  0  0  0  0  # atno 17371 bound_to 10713
  139.8969  134.8648  156.2065 LP  0  0  0  0  0  0  0  0  0  0  0  0  # atno 17394 bound_to 11000
  141.0362  133.6962  156.1517 LP  0  0  0  0  0  0  0  0  0  0  0  0  # atno 17395 bound_to 11000

$$$$
