AV-unprocessed.smi:2279|AV-procd|sdf|9188|dock5
  -GOLD-   2272012403D 1   1.00000     0.00000
 Structure written by MMmdl.
 57 59  0  0  0  0  0  0  0  0  2 V2000
  154.1281  141.3321  161.6354 C   0  0  0  0  0  0  0  0  0  0  0  0
  153.3076  141.7758  160.4425 C   0  0  0  0  0  0  0  0  0  0  0  0
  153.1248  143.1430  160.1601 C   0  0  0  0  0  0  0  0  0  0  0  0
  152.3500  143.4918  159.0365 C   0  0  0  0  0  0  0  0  0  0  0  0
  152.1131  144.9427  158.6734 C   0  0  0  0  0  0  0  0  0  0  0  0
  151.7748  142.5780  158.2259 N   0  0  0  0  0  0  0  0  0  0  0  0
  151.9428  141.2583  158.4891 C   0  0  0  0  0  0  0  0  0  0  0  0
  151.3844  140.2199  157.6973 N   0  0  0  0  0  0  0  0  0  0  0  0
  151.1420  138.9448  158.0491 C   0  0  0  0  0  0  0  0  0  0  0  0
  151.3971  138.4467  159.1461 O   0  0  0  0  0  0  0  0  0  0  0  0
  150.5835  138.2614  157.0393 N   0  0  0  0  0  0  0  0  0  0  0  0
  150.2032  136.8525  157.0864 C   0  0  0  0  0  0  0  0  0  0  0  0
  150.8631  136.0673  155.9455 C   0  0  0  0  0  0  0  0  0  0  0  0
  150.3508  134.6176  155.9095 C   0  0  0  0  0  0  0  0  0  0  0  0
  148.8919  134.5653  155.7174 N   0  0  0  0  0  0  0  0  0  0  0  0
  148.4543  133.1635  155.5360 C   0  0  2  0  0  0  0  0  0  0  0  0
  149.1051  132.5229  154.2836 C   0  0  0  0  0  0  0  0  0  0  0  0
  148.5130  133.0777  152.9749 C   0  0  0  0  0  0  0  0  0  0  0  0
  147.0427  132.8890  152.9258 N   0  3  2  0  0  0  0  0  0  0  0  0
  146.4613  133.3265  151.6387 C   0  0  0  0  0  0  0  0  0  0  0  0
  146.3626  133.5052  154.0904 C   0  0  0  0  0  0  0  0  0  0  0  0
  146.9236  132.9522  155.4124 C   0  0  0  0  0  0  0  0  0  0  0  0
  148.2612  135.2363  156.8648 C   0  0  0  0  0  0  0  0  0  0  0  0
  148.6835  136.7139  156.9535 C   0  0  0  0  0  0  0  0  0  0  0  0
  152.7084  140.8230  159.5940 C   0  0  0  0  0  0  0  0  0  0  0  0
  154.6784  142.1674  162.0695 H   0  0  0  0  0  0  0  0  0  0  0  0
  154.8478  140.5682  161.3398 H   0  0  0  0  0  0  0  0  0  0  0  0
  153.4779  140.9141  162.4041 H   0  0  0  0  0  0  0  0  0  0  0  0
  153.5657  143.9037  160.7878 H   0  0  0  0  0  0  0  0  0  0  0  0
  152.7600  145.6053  159.2489 H   0  0  0  0  0  0  0  0  0  0  0  0
  151.0771  145.2166  158.8740 H   0  0  0  0  0  0  0  0  0  0  0  0
  152.3138  145.1091  157.6145 H   0  0  0  0  0  0  0  0  0  0  0  0
  151.1365  140.4800  156.7545 H   0  0  0  0  0  0  0  0  0  0  0  0
  150.4087  138.7504  156.1739 H   0  0  0  0  0  0  0  0  0  0  0  0
  150.5069  136.4229  158.0432 H   0  0  0  0  0  0  0  0  0  0  0  0
  150.6598  136.5495  154.9880 H   0  0  0  0  0  0  0  0  0  0  0  0
  151.9469  136.0685  156.0687 H   0  0  0  0  0  0  0  0  0  0  0  0
  150.8787  134.1073  155.1079 H   0  0  0  0  0  0  0  0  0  0  0  0
  150.6218  134.1043  156.8337 H   0  0  0  0  0  0  0  0  0  0  0  0
  148.7778  132.6099  156.4191 H   0  0  0  0  0  0  0  0  0  0  0  0
  150.1882  132.6225  154.2682 H   0  0  0  0  0  0  0  0  0  0  0  0
  148.9269  131.4471  154.3127 H   0  0  0  0  0  0  0  0  0  0  0  0
  148.7514  134.1377  152.8728 H   0  0  0  0  0  0  0  0  0  0  0  0
  148.9709  132.5687  152.1260 H   0  0  0  0  0  0  0  0  0  0  0  0
  146.5931  134.3997  151.4951 H   0  0  0  0  0  0  0  0  0  0  0  0
  145.3943  133.1045  151.6027 H   0  0  0  0  0  0  0  0  0  0  0  0
  146.9362  132.8081  150.8051 H   0  0  0  0  0  0  0  0  0  0  0  0
  146.4783  134.5896  154.0525 H   0  0  0  0  0  0  0  0  0  0  0  0
  145.2931  133.2990  154.0358 H   0  0  0  0  0  0  0  0  0  0  0  0
  146.7252  131.8797  155.4397 H   0  0  0  0  0  0  0  0  0  0  0  0
  146.3747  133.3436  156.2679 H   0  0  0  0  0  0  0  0  0  0  0  0
  147.1777  135.2351  156.7636 H   0  0  0  0  0  0  0  0  0  0  0  0
  148.5034  134.7104  157.7894 H   0  0  0  0  0  0  0  0  0  0  0  0
  148.1912  137.1860  157.8044 H   0  0  0  0  0  0  0  0  0  0  0  0
  148.3362  137.2412  156.0634 H   0  0  0  0  0  0  0  0  0  0  0  0
  152.8347  139.7683  159.7923 H   0  0  0  0  0  0  0  0  0  0  0  0
  146.8791  131.8945  152.9907 H   0  0  0  0  0  0  0  0  0  0  0  0
  1  2  1  0  0  0  0
  1 26  1  0  0  0  0
  1 27  1  0  0  0  0
  1 28  1  0  0  0  0
  2 25  1  0  0  0  0
  2  3  2  0  0  0  0
  3  4  1  0  0  0  0
  3 29  1  0  0  0  0
  4  5  1  0  0  0  0
  4  6  2  0  0  0  0
  5 30  1  0  0  0  0
  5 31  1  0  0  0  0
  5 32  1  0  0  0  0
  6  7  1  0  0  0  0
  7  8  1  0  0  0  0
  7 25  2  0  0  0  0
  8  9  1  0  0  0  0
  8 33  1  0  0  0  0
  9 10  2  0  0  0  0
  9 11  1  0  0  0  0
 11 12  1  0  0  0  0
 11 34  1  0  0  0  0
 12 24  1  0  0  0  0
 12 13  1  0  0  0  0
 12 35  1  0  0  0  0
 13 14  1  0  0  0  0
 13 36  1  0  0  0  0
 13 37  1  0  0  0  0
 14 15  1  0  0  0  0
 14 38  1  0  0  0  0
 14 39  1  0  0  0  0
 15 16  1  0  0  0  0
 15 23  1  0  0  0  0
 16 22  1  0  0  0  0
 16 17  1  0  0  0  0
 16 40  1  0  0  0  0
 17 18  1  0  0  0  0
 17 41  1  0  0  0  0
 17 42  1  0  0  0  0
 18 19  1  0  0  0  0
 18 43  1  0  0  0  0
 18 44  1  0  0  0  0
 19 20  1  0  0  0  0
 19 21  1  0  0  0  0
 19 57  1  0  0  0  0
 20 45  1  0  0  0  0
 20 46  1  0  0  0  0
 20 47  1  0  0  0  0
 21 22  1  0  0  0  0
 21 48  1  0  0  0  0
 21 49  1  0  0  0  0
 22 50  1  0  0  0  0
 22 51  1  0  0  0  0
 23 24  1  0  0  0  0
 23 52  1  0  0  0  0
 23 53  1  0  0  0  0
 24 54  1  0  0  0  0
 24 55  1  0  0  0  0
 25 56  1  0  0  0  0
M  CHG  1  19   1
M  END
> <s_m_source_file>
AV-unprocessed.smi

> <i_m_source_file_index>
2279

> <i_lp_mmshare_version>
43012

> <i_f3d_flags>
0

> <s_epik_input>
W0NIM11jMVtjSF1jKFtDSDNdKW5jKFtjSF0xKVtOSF1DKD1PKVtOSF1bQ0hdMltDSDJdW0NIMl1OKFtDSDJdW0NIMl0yKVtDSF0zW0NIMl1bQ0gyXU4oW0NIM10pW0NIMl1bQ0gyXTM=

> <s_epik_cmdline>
J2VwaWtfcHl0aG9uJywgJy1waCcsICc3LjAnLCAnLXRuJywgJzgnLCAnLW1hJywgJzIwMCcsICctbWV0YWxfYmluZGluZycsICctaW1hZScsICc8aW5maWxlLm1hZT4nLCAnLW9tYWUnLCAnPG91dGZpbGUubWFlPic=

> <r_epik_Ionization_Penalty>
1.01001

> <r_epik_Ionization_Penalty_Charging>
0.000974969

> <r_epik_Ionization_Penalty_Neutral>
1.00904

> <r_epik_State_Penalty>
1.10286

> <r_epik_Charging_Adjusted_Penalty>
1.10383

> <i_epik_Tot_Q>
1

> <i_epik_Tot_abs_Q>
1

> <r_epik_Metal_State_Penalty>
1.10279

> <b_epik_Metal_Only>
0

> <s_lp_Force_Field>
OPLS_2005

> <r_lp_Energy>
36.6633

> <b_lp_Chiralities_Consistent>
1

> <s_lp_Variant>
AV-unprocessed.smi:2279-6

> <Gold.Version>
5.8.1

> <Gold.Id.Protein>
6NUR|6NUR_protein|mol2

> <Gold.PLP.Fitness>
40.3265

> <Gold.PLP.PLP>
-40.5950

> <Gold.PLP.part.hbond>
0.0000

> <Gold.PLP.part.metal>
0.0000

> <Gold.PLP.part.buried>
-6.2908

> <Gold.PLP.part.nonpolar>
-34.9511

> <Gold.PLP.part.repulsive>
0.1378

> <Gold.PLP.ligand.clash>
0.0000

> <Gold.PLP.ligand.torsion>
0.1365

> <Gold.PLP.Chemscore.Hbond>
0.0000

> <Gold.PLP.Chemscore.CHOScore>
0.0000

> <Gold.PLP.Chemscore.Metal>
0.0000

> <Gold.PLP.Chemscore.Internal.Correction>
0.0045

> <Gold.Rescore>
     Score         DG    S(hbond)    S(metal)    S(lipo)     H(rot)  DE(clash)    DE(int)     intcor
     13.77     -15.36       0.00        0.00     110.68       1.20       0.00       1.59       ----

> <Gold.Chemscore.Fitness>
13.7722

> <Gold.Chemscore.DG>
-15.3623

> <Gold.Chemscore.ZeroCoef>
-5.4800

> <Gold.Chemscore.Hbond>
0.0000

> <Gold.Chemscore.Metal>
0.0000

> <Gold.Chemscore.Lipo>
110.6804

> <Gold.Chemscore.Internal_Hbond>
0.0000

> <Gold.Chemscore.DEClash>
0.0048

> <Gold.Chemscore.DEInternal>
1.5853

> <Gold.Chemscore.Rot>
1.1981

> <Gold.Chemscore.Internal.Correction>
   9.000000E+99

> <Gold.Chemscore.Hbond.Weighted>
-0.0000

> <Gold.Chemscore.Metal.Weighted>
-0.0000

> <Gold.Chemscore.Lipo.Weighted>
-12.9496

> <Gold.Chemscore.Internal_Hbond.Weighted>
0.0000

> <Gold.Chemscore.DEClash.Weighted>
0.0048

> <Gold.Chemscore.DEInternal.Weighted>
1.5853

> <Gold.Chemscore.Rot.Weighted>
3.0673

> <Gold.Chemscore.Internal.Correction.Weighted>
   9.000000E+99

> <Gold.Protein.RotatedTorsions>
[ 6907 6896 6895 6894 ] final  -42.03 input  -60.11 | X-H torsion
[ 7974 7965 7964 7962 ] final   57.77 input  175.53 | X-H torsion
[ 8008 7997 7996 7995 ] final   12.97 input   59.86 | X-H torsion
[ 10167 10162 10161 10158 ] final -144.95 input  -65.29 | X-H torsion
[ 10718 10713 10712 10709 ] final  -63.84 input   66.30 | X-H torsion
[ 10763 10752 10751 10750 ] final  -87.19 input  -60.55 | X-H torsion
[ 11005 11000 10999 10996 ] final -147.65 input  -57.11 | X-H torsion

> <Gold.Protein.ActiveResidues>
 VAL166  LYS551  ARG553  GLY616  TRP617  ASP618  TYR619  PRO620  LYS621  CYS622 
 ASP623  PHE694  ASN695  SER759  ASP760  ASP761  ALA762  ILE779  LEU786  VAL792 
 PHE793  MET794  SER795  GLU796  ALA797  LYS798  CYS799  TRP800  GLU811  SER814 

> <Gold.Protein.RotatedAtoms>
  150.9600  134.8989  159.7724 H   0  0  0  0  0  0  0  0  0  0  0  0  # atno 6907 bound_to 6896
  152.5152  134.3687  159.9320 H   0  0  0  0  0  0  0  0  0  0  0  0  # atno 6908 bound_to 6896
  151.3699  133.3818  159.2733 H   0  0  0  0  0  0  0  0  0  0  0  0  # atno 6909 bound_to 6896
  145.9255  139.3764  143.0453 H   0  0  0  0  0  0  0  0  0  0  0  0  # atno 7974 bound_to 7965
  154.8279  140.2894  155.5742 H   0  0  0  0  0  0  0  0  0  0  0  0  # atno 8008 bound_to 7997
  156.3003  140.2537  156.3130 H   0  0  0  0  0  0  0  0  0  0  0  0  # atno 8009 bound_to 7997
  154.9264  140.0384  157.2014 H   0  0  0  0  0  0  0  0  0  0  0  0  # atno 8010 bound_to 7997
  139.7851  143.8046  152.2643 H   0  0  0  0  0  0  0  0  0  0  0  0  # atno 10167 bound_to 10162
  156.0766  130.4226  150.1335 H   0  0  0  0  0  0  0  0  0  0  0  0  # atno 10718 bound_to 10713
  154.6308  135.5422  153.7679 H   0  0  0  0  0  0  0  0  0  0  0  0  # atno 10763 bound_to 10752
  153.0284  135.6435  154.1303 H   0  0  0  0  0  0  0  0  0  0  0  0  # atno 10764 bound_to 10752
  154.1233  135.2919  155.3183 H   0  0  0  0  0  0  0  0  0  0  0  0  # atno 10765 bound_to 10752
  140.7695  134.3206  157.5079 H   0  0  0  0  0  0  0  0  0  0  0  0  # atno 11005 bound_to 11000
  145.8495  140.9537  143.0757 LP  0  0  0  0  0  0  0  0  0  0  0  0  # atno 17320 bound_to 7965
  144.6758  140.0388  143.7481 LP  0  0  0  0  0  0  0  0  0  0  0  0  # atno 17321 bound_to 7965
  139.8120  144.7332  150.9685 LP  0  0  0  0  0  0  0  0  0  0  0  0  # atno 17342 bound_to 10162
  140.7819  143.4241  151.0795 LP  0  0  0  0  0  0  0  0  0  0  0  0  # atno 17343 bound_to 10162
  156.9375  130.9734  151.3522 LP  0  0  0  0  0  0  0  0  0  0  0  0  # atno 17370 bound_to 10713
  157.5864  130.8412  149.8595 LP  0  0  0  0  0  0  0  0  0  0  0  0  # atno 17371 bound_to 10713
  139.8758  134.9252  156.3368 LP  0  0  0  0  0  0  0  0  0  0  0  0  # atno 17394 bound_to 11000
  140.9587  133.7402  156.0372 LP  0  0  0  0  0  0  0  0  0  0  0  0  # atno 17395 bound_to 11000

$$$$
