AV-unprocessed.smi:1157|AV-procd|sdf|4907|dock4
  -GOLD-   22720 3483D 1   1.00000     0.00000
 Structure written by MMmdl.
 55 57  0  0  0  0  0  0  0  0  2 V2000
  149.1937  134.1732  154.0055 C   0  0  0  0  0  0  0  0  0  0  0  0
  147.6505  134.2604  154.1160 C   0  0  0  0  0  0  0  0  0  0  0  0
  147.2031  132.9892  154.8802 C   0  0  0  0  0  0  0  0  0  0  0  0
  147.2303  135.5288  154.9189 C   0  0  0  0  0  0  0  0  0  0  0  0
  148.1086  136.6773  154.6970 N   0  0  0  0  0  0  0  0  0  0  0  0
  148.4875  137.5608  155.6318 C   0  0  0  0  0  0  0  0  0  0  0  0
  148.1157  137.5086  156.8038 O   0  0  0  0  0  0  0  0  0  0  0  0
  149.2904  138.5040  155.1106 N   0  0  0  0  0  0  0  0  0  0  0  0
  149.8978  139.6098  155.7647 C   0  0  0  0  0  0  0  0  0  0  0  0
  149.9869  140.9114  155.2183 C   0  0  0  0  0  0  0  0  0  0  0  0
  150.5978  141.9288  155.9760 C   0  0  0  0  0  0  0  0  0  0  0  0
  151.0957  141.6256  157.2654 C   0  0  0  0  0  0  0  0  0  0  0  0
  151.7187  142.6143  158.0522 N   0  0  0  0  0  0  0  0  0  0  0  0
  152.0126  142.4019  159.4611 C   0  0  0  0  0  0  0  0  0  0  0  0
  152.5424  143.7484  159.9519 C   0  0  0  0  0  0  0  0  0  0  0  0
  151.7762  144.7560  159.0948 C   0  0  0  0  0  0  0  0  0  0  0  0
  151.5737  144.0335  157.7579 C   0  0  0  0  0  0  0  0  0  0  0  0
  151.0032  140.3799  157.7889 N   0  0  0  0  0  0  0  0  0  0  0  0
  150.4156  139.4087  157.0597 C   0  0  0  0  0  0  0  0  0  0  0  0
  147.0493  134.2626  152.7332 N   0  3  0  0  0  0  0  0  0  0  0  0
  147.2058  133.0018  151.9536 C   0  0  0  0  0  0  0  0  0  0  0  0
  146.7199  133.1956  150.5071 C   0  0  0  0  0  0  0  0  0  0  0  0
  145.3653  133.6221  150.5083 O   0  0  0  0  0  0  0  0  0  0  0  0
  145.2091  134.8696  151.1691 C   0  0  0  0  0  0  0  0  0  0  0  0
  145.6380  134.7337  152.6395 C   0  0  0  0  0  0  0  0  0  0  0  0
  149.6573  133.9515  154.9673 H   0  0  0  0  0  0  0  0  0  0  0  0
  149.6388  135.1078  153.6647 H   0  0  0  0  0  0  0  0  0  0  0  0
  149.4997  133.3842  153.3175 H   0  0  0  0  0  0  0  0  0  0  0  0
  147.7712  132.8506  155.8008 H   0  0  0  0  0  0  0  0  0  0  0  0
  147.3481  132.0914  154.2783 H   0  0  0  0  0  0  0  0  0  0  0  0
  146.1552  133.0303  155.1769 H   0  0  0  0  0  0  0  0  0  0  0  0
  146.2000  135.8093  154.6991 H   0  0  0  0  0  0  0  0  0  0  0  0
  147.2599  135.3273  155.9891 H   0  0  0  0  0  0  0  0  0  0  0  0
  148.4592  136.8040  153.7587 H   0  0  0  0  0  0  0  0  0  0  0  0
  149.4418  138.4578  154.1136 H   0  0  0  0  0  0  0  0  0  0  0  0
  149.5915  141.1547  154.2446 H   0  0  0  0  0  0  0  0  0  0  0  0
  150.6772  142.9212  155.5581 H   0  0  0  0  0  0  0  0  0  0  0  0
  151.0960  142.1333  159.9882 H   0  0  0  0  0  0  0  0  0  0  0  0
  152.7423  141.6043  159.6054 H   0  0  0  0  0  0  0  0  0  0  0  0
  152.3959  143.8978  161.0220 H   0  0  0  0  0  0  0  0  0  0  0  0
  153.6104  143.8242  159.7422 H   0  0  0  0  0  0  0  0  0  0  0  0
  150.8060  144.9568  159.5510 H   0  0  0  0  0  0  0  0  0  0  0  0
  152.2976  145.7076  158.9863 H   0  0  0  0  0  0  0  0  0  0  0  0
  152.3415  144.3245  157.0404 H   0  0  0  0  0  0  0  0  0  0  0  0
  150.5978  144.2695  157.3327 H   0  0  0  0  0  0  0  0  0  0  0  0
  150.3623  138.4360  157.5270 H   0  0  0  0  0  0  0  0  0  0  0  0
  148.2447  132.6813  151.9123 H   0  0  0  0  0  0  0  0  0  0  0  0
  146.6375  132.1962  152.4189 H   0  0  0  0  0  0  0  0  0  0  0  0
  147.3431  133.9197  149.9799 H   0  0  0  0  0  0  0  0  0  0  0  0
  146.7923  132.2562  149.9588 H   0  0  0  0  0  0  0  0  0  0  0  0
  145.7905  135.6416  150.6622 H   0  0  0  0  0  0  0  0  0  0  0  0
  144.1628  135.1701  151.1101 H   0  0  0  0  0  0  0  0  0  0  0  0
  144.9706  134.0343  153.1433 H   0  0  0  0  0  0  0  0  0  0  0  0
  145.5055  135.7036  153.1144 H   0  0  0  0  0  0  0  0  0  0  0  0
  147.5876  134.9512  152.2266 H   0  0  0  0  0  0  0  0  0  0  0  0
  1  2  1  0  0  0  0
  1 26  1  0  0  0  0
  1 27  1  0  0  0  0
  1 28  1  0  0  0  0
  2  3  1  0  0  0  0
  2  4  1  0  0  0  0
  2 20  1  0  0  0  0
  3 29  1  0  0  0  0
  3 30  1  0  0  0  0
  3 31  1  0  0  0  0
  4  5  1  0  0  0  0
  4 32  1  0  0  0  0
  4 33  1  0  0  0  0
  5  6  1  0  0  0  0
  5 34  1  0  0  0  0
  6  7  2  0  0  0  0
  6  8  1  0  0  0  0
  8  9  1  0  0  0  0
  8 35  1  0  0  0  0
  9 19  1  0  0  0  0
  9 10  2  0  0  0  0
 10 11  1  0  0  0  0
 10 36  1  0  0  0  0
 11 12  2  0  0  0  0
 11 37  1  0  0  0  0
 12 13  1  0  0  0  0
 12 18  1  0  0  0  0
 13 17  1  0  0  0  0
 13 14  1  0  0  0  0
 14 15  1  0  0  0  0
 14 38  1  0  0  0  0
 14 39  1  0  0  0  0
 15 16  1  0  0  0  0
 15 40  1  0  0  0  0
 15 41  1  0  0  0  0
 16 17  1  0  0  0  0
 16 42  1  0  0  0  0
 16 43  1  0  0  0  0
 17 44  1  0  0  0  0
 17 45  1  0  0  0  0
 18 19  2  0  0  0  0
 19 46  1  0  0  0  0
 20 25  1  0  0  0  0
 20 21  1  0  0  0  0
 20 55  1  0  0  0  0
 21 22  1  0  0  0  0
 21 47  1  0  0  0  0
 21 48  1  0  0  0  0
 22 23  1  0  0  0  0
 22 49  1  0  0  0  0
 22 50  1  0  0  0  0
 23 24  1  0  0  0  0
 24 25  1  0  0  0  0
 24 51  1  0  0  0  0
 24 52  1  0  0  0  0
 25 53  1  0  0  0  0
 25 54  1  0  0  0  0
M  CHG  1  20   1
M  END
> <s_m_source_file>
AV-unprocessed.smi

> <i_m_source_file_index>
1157

> <i_lp_mmshare_version>
43012

> <i_f3d_flags>
0

> <s_epik_input>
W0NIMl0xW0NIMl1PW0NIMl1bQ0gyXU4xQyhbQ0gzXSkoW0NIM10pW0NIMl1bTkhdQyg9TylbTkhdYzJbY0hdW2NIXWMobltjSF0yKU4zW0NIMl1bQ0gyXVtDSDJdW0NIMl0z

> <s_epik_cmdline>
J2VwaWtfcHl0aG9uJywgJy1waCcsICc3LjAnLCAnLXRuJywgJzgnLCAnLW1hJywgJzIwMCcsICctbWV0YWxfYmluZGluZycsICctaW1hZScsICc8aW5maWxlLm1hZT4nLCAnLW9tYWUnLCAnPG91dGZpbGUubWFlPic=

> <r_lp_tautomer_probability>
1

> <r_epik_Ionization_Penalty>
0.687101

> <r_epik_Ionization_Penalty_Charging>
0.602531

> <r_epik_Ionization_Penalty_Neutral>
0.0845707

> <r_epik_State_Penalty>
0.681137

> <r_epik_Charging_Adjusted_Penalty>
1.28367

> <i_epik_Tot_Q>
1

> <i_epik_Tot_abs_Q>
1

> <r_epik_Metal_State_Penalty>
0.680046

> <b_epik_Metal_Only>
0

> <s_lp_Force_Field>
OPLS_2005

> <r_lp_Energy>
50.3969

> <b_lp_Chiralities_Consistent>
1

> <s_lp_Variant>
AV-unprocessed.smi:1157-2

> <Gold.Version>
5.8.1

> <Gold.Id.Protein>
6NUR|6NUR_protein|mol2

> <Gold.PLP.Fitness>
46.5172

> <Gold.PLP.PLP>
-39.9840

> <Gold.PLP.part.hbond>
-2.0000

> <Gold.PLP.part.metal>
0.0000

> <Gold.PLP.part.buried>
-2.8642

> <Gold.PLP.part.nonpolar>
-34.7951

> <Gold.PLP.part.repulsive>
0.3020

> <Gold.PLP.ligand.clash>
0.0000

> <Gold.PLP.ligand.torsion>
1.3642

> <Gold.PLP.Chemscore.Hbond>
2.9913

> <Gold.PLP.Chemscore.CHOScore>
0.0000

> <Gold.PLP.Chemscore.Metal>
0.0000

> <Gold.Chemscore.Hbonds>
donor molecule, donor type, donor heavy atom, donor atom, acceptor molecule, acceptor atom, score
      L1  H     5    34       P1  7948  0.99
      L1  H    20    55       P1  7948  2.00

> <Gold.PLP.Chemscore.Internal.Correction>
0.2879

> <Gold.Rescore>
     Score         DG    S(hbond)    S(metal)    S(lipo)     H(rot)  DE(clash)    DE(int)     intcor
     17.83     -20.43       1.88        0.00     105.27       1.42       0.32       2.28       ----

> <Gold.Chemscore.Fitness>
17.8335

> <Gold.Chemscore.DG>
-20.4312

> <Gold.Chemscore.ZeroCoef>
-5.4800

> <Gold.Chemscore.Hbond>
1.8803

> <Gold.Chemscore.Metal>
0.0000

> <Gold.Chemscore.Lipo>
105.2737

> <Gold.Chemscore.Internal_Hbond>
0.0000

> <Gold.Chemscore.DEClash>
0.3164

> <Gold.Chemscore.DEInternal>
2.2812

> <Gold.Chemscore.Rot>
1.4243

> <Gold.Chemscore.Internal.Correction>
   9.000000E+99

> <Gold.Chemscore.Hbonds>
donor molecule, donor type, donor heavy atom, donor atom, acceptor molecule, acceptor atom, score
      L1  H     5    34       P1  7948  0.91
      L1  H    20    55       P1  7948  0.92

> <Gold.Chemscore.Hbond.Weighted>
-6.2803

> <Gold.Chemscore.Metal.Weighted>
-0.0000

> <Gold.Chemscore.Lipo.Weighted>
-12.3170

> <Gold.Chemscore.Internal_Hbond.Weighted>
0.0000

> <Gold.Chemscore.DEClash.Weighted>
0.3164

> <Gold.Chemscore.DEInternal.Weighted>
2.2812

> <Gold.Chemscore.Rot.Weighted>
3.6462

> <Gold.Chemscore.Internal.Correction.Weighted>
   9.000000E+99

> <Gold.Protein.RotatedTorsions>
[ 6907 6896 6895 6894 ] final   93.69 input  -60.11 | X-H torsion
[ 7974 7965 7964 7962 ] final -158.65 input  175.53 | X-H torsion
[ 8008 7997 7996 7995 ] final -170.71 input   59.86 | X-H torsion
[ 10167 10162 10161 10158 ] final  -45.01 input  -65.29 | X-H torsion
[ 10718 10713 10712 10709 ] final -170.38 input   66.30 | X-H torsion
[ 10763 10752 10751 10750 ] final -177.42 input  -60.55 | X-H torsion
[ 11005 11000 10999 10996 ] final -109.74 input  -57.11 | X-H torsion

> <Gold.Protein.ActiveResidues>
 VAL166  LYS551  ARG553  GLY616  TRP617  ASP618  TYR619  PRO620  LYS621  CYS622 
 ASP623  PHE694  ASN695  SER759  ASP760  ASP761  ALA762  ILE779  LEU786  VAL792 
 PHE793  MET794  SER795  GLU796  ALA797  LYS798  CYS799  TRP800  GLU811  SER814 

> <Gold.Protein.RotatedAtoms>
  152.5452  134.1309  159.8438 H   0  0  0  0  0  0  0  0  0  0  0  0  # atno 6907 bound_to 6896
  151.1354  133.5000  159.2605 H   0  0  0  0  0  0  0  0  0  0  0  0  # atno 6908 bound_to 6896
  151.1630  135.0292  159.8773 H   0  0  0  0  0  0  0  0  0  0  0  0  # atno 6909 bound_to 6896
  144.7497  140.3797  143.6057 H   0  0  0  0  0  0  0  0  0  0  0  0  # atno 7974 bound_to 7965
  155.9220  140.1076  157.1199 H   0  0  0  0  0  0  0  0  0  0  0  0  # atno 8008 bound_to 7997
  154.4056  140.1254  156.4757 H   0  0  0  0  0  0  0  0  0  0  0  0  # atno 8009 bound_to 7997
  155.7184  140.3470  155.5007 H   0  0  0  0  0  0  0  0  0  0  0  0  # atno 8010 bound_to 7997
  140.6875  143.2901  151.3578 H   0  0  0  0  0  0  0  0  0  0  0  0  # atno 10167 bound_to 10162
  156.7254  130.9286  151.3100 H   0  0  0  0  0  0  0  0  0  0  0  0  # atno 10718 bound_to 10713
  154.5603  135.2819  155.0925 H   0  0  0  0  0  0  0  0  0  0  0  0  # atno 10763 bound_to 10752
  154.2337  135.6369  153.5187 H   0  0  0  0  0  0  0  0  0  0  0  0  # atno 10764 bound_to 10752
  153.0027  135.5543  154.6195 H   0  0  0  0  0  0  0  0  0  0  0  0  # atno 10765 bound_to 10752
  141.0831  133.9186  157.2245 H   0  0  0  0  0  0  0  0  0  0  0  0  # atno 11005 bound_to 11000
  145.6990  139.1656  143.2604 LP  0  0  0  0  0  0  0  0  0  0  0  0  # atno 17320 bound_to 7965
  146.1429  140.7033  142.9358 LP  0  0  0  0  0  0  0  0  0  0  0  0  # atno 17321 bound_to 7965
  139.6246  144.0840  152.2422 LP  0  0  0  0  0  0  0  0  0  0  0  0  # atno 17342 bound_to 10162
  140.0295  144.6092  150.7500 LP  0  0  0  0  0  0  0  0  0  0  0  0  # atno 17343 bound_to 10162
  157.6881  130.9206  150.0440 LP  0  0  0  0  0  0  0  0  0  0  0  0  # atno 17370 bound_to 10713
  156.1566  130.3643  149.9360 LP  0  0  0  0  0  0  0  0  0  0  0  0  # atno 17371 bound_to 10713
  139.9646  135.0145  156.9354 LP  0  0  0  0  0  0  0  0  0  0  0  0  # atno 17394 bound_to 11000
  140.5424  134.0707  155.7345 LP  0  0  0  0  0  0  0  0  0  0  0  0  # atno 17395 bound_to 11000

$$$$
