AV-unprocessed.smi:287|AV-procd|sdf|2178|dock5
  -GOLD-   2262021543D 1   1.00000     0.00000
 Structure written by MMmdl.
 55 58  0  0  0  0  0  0  0  0  1 V2000
  151.5786  144.4261  158.1885 C   0  0  0  0  0  0  0  0  0  0  0  0
  151.0241  143.1950  157.5578 C   0  0  0  0  0  0  0  0  0  0  0  0
  150.4001  142.9409  156.3713 C   0  0  0  0  0  0  0  0  0  0  0  0
  150.1091  141.5443  156.3330 C   0  0  0  0  0  0  0  0  0  0  0  0
  149.4134  140.8043  155.1984 C   0  0  2  0  0  0  0  0  0  0  0  0
  149.6437  139.2915  155.3476 C   0  0  0  0  0  0  0  0  0  0  0  0
  149.9316  141.1407  153.9258 O   0  0  0  0  0  0  0  0  0  0  0  0
  147.8988  141.1082  155.1337 C   0  0  0  0  0  0  0  0  0  0  0  0
  147.2763  140.6310  153.9027 N   0  0  0  0  0  0  0  0  0  0  0  0
  146.6091  139.4583  153.8881 C   0  0  0  0  0  0  0  0  0  0  0  0
  146.0834  138.9364  155.0273 N   0  0  0  0  0  0  0  0  0  0  0  0
  145.4238  137.7742  154.9872 C   0  0  0  0  0  0  0  0  0  0  0  0
  145.1824  136.9864  153.9363 N   0  0  0  0  0  0  0  0  0  0  0  0
  145.7126  137.5078  152.7923 C   0  0  0  0  0  0  0  0  0  0  0  0
  146.4310  138.7300  152.6839 C   0  0  0  0  0  0  0  0  0  0  0  0
  146.8082  138.9380  151.3635 N   0  0  0  0  0  0  0  0  0  0  0  0
  146.3388  137.8948  150.7326 C   0  0  0  0  0  0  0  0  0  0  0  0
  145.6684  136.9828  151.5202 N   0  0  0  0  0  0  0  0  0  0  0  0
  145.0110  135.6997  151.1294 C   0  0  2  0  0  0  0  0  0  0  0  0
  143.6798  135.7581  151.5530 O   0  0  0  0  0  0  0  0  0  0  0  0
  143.3870  134.7001  152.4646 C   0  0  2  0  0  0  0  0  0  0  0  0
  142.3652  135.1772  153.5080 C   0  0  0  0  0  0  0  0  0  0  0  0
  141.5384  134.1036  153.9026 O   0  0  0  0  0  0  0  0  0  0  0  0
  144.7532  134.3567  153.0590 C   0  0  1  0  0  0  0  0  0  0  0  0
  144.8167  133.0565  153.6124 O   0  0  0  0  0  0  0  0  0  0  0  0
  145.6844  134.5376  151.8692 C   0  0  1  0  0  0  0  0  0  0  0  0
  145.7614  133.3901  151.0426 O   0  0  0  0  0  0  0  0  0  0  0  0
  150.5741  141.0568  157.5308 C   0  0  0  0  0  0  0  0  0  0  0  0
  150.5874  139.7049  158.1650 C   0  0  0  0  0  0  0  0  0  0  0  0
  151.1343  142.0498  158.2767 O   0  0  0  0  0  0  0  0  0  0  0  0
  145.0943  135.6611  150.0423 H   0  0  0  0  0  0  0  0  0  0  0  0
  143.0092  133.8440  151.9020 H   0  0  0  0  0  0  0  0  0  0  0  0
  145.0104  135.0836  153.8310 H   0  0  0  0  0  0  0  0  0  0  0  0
  146.6970  134.8008  152.1790 H   0  0  0  0  0  0  0  0  0  0  0  0
  151.5671  145.2613  157.4878 H   0  0  0  0  0  0  0  0  0  0  0  0
  152.6091  144.2678  158.5072 H   0  0  0  0  0  0  0  0  0  0  0  0
  150.9923  144.7099  159.0625 H   0  0  0  0  0  0  0  0  0  0  0  0
  150.1814  143.6747  155.6099 H   0  0  0  0  0  0  0  0  0  0  0  0
  149.2430  138.9224  156.2924 H   0  0  0  0  0  0  0  0  0  0  0  0
  150.7069  139.0483  155.3254 H   0  0  0  0  0  0  0  0  0  0  0  0
  149.1596  138.7314  154.5464 H   0  0  0  0  0  0  0  0  0  0  0  0
  149.5831  140.5340  153.2906 H   0  0  0  0  0  0  0  0  0  0  0  0
  147.3822  140.6998  156.0037 H   0  0  0  0  0  0  0  0  0  0  0  0
  147.7593  142.1897  155.1677 H   0  0  0  0  0  0  0  0  0  0  0  0
  147.3703  141.2312  153.0955 H   0  0  0  0  0  0  0  0  0  0  0  0
  145.0337  137.4261  155.9322 H   0  0  0  0  0  0  0  0  0  0  0  0
  146.4718  137.7648  149.6688 H   0  0  0  0  0  0  0  0  0  0  0  0
  142.8795  135.5375  154.3995 H   0  0  0  0  0  0  0  0  0  0  0  0
  141.7613  136.0014  153.1278 H   0  0  0  0  0  0  0  0  0  0  0  0
  142.0705  133.3263  153.9781 H   0  0  0  0  0  0  0  0  0  0  0  0
  143.9328  132.7461  153.7404 H   0  0  0  0  0  0  0  0  0  0  0  0
  145.4793  133.6293  150.1727 H   0  0  0  0  0  0  0  0  0  0  0  0
  149.5821  139.2849  158.1997 H   0  0  0  0  0  0  0  0  0  0  0  0
  150.9666  139.7512  159.1862 H   0  0  0  0  0  0  0  0  0  0  0  0
  151.2223  139.0207  157.6024 H   0  0  0  0  0  0  0  0  0  0  0  0
  1  2  1  0  0  0  0
  1 35  1  0  0  0  0
  1 36  1  0  0  0  0
  1 37  1  0  0  0  0
  2 30  1  0  0  0  0
  2  3  2  0  0  0  0
  3  4  1  0  0  0  0
  3 38  1  0  0  0  0
  4  5  1  0  0  0  0
  4 28  2  0  0  0  0
  5  6  1  0  0  0  0
  5  7  1  0  0  0  0
  5  8  1  0  0  0  0
  6 39  1  0  0  0  0
  6 40  1  0  0  0  0
  6 41  1  0  0  0  0
  7 42  1  0  0  0  0
  8  9  1  0  0  0  0
  8 43  1  0  0  0  0
  8 44  1  0  0  0  0
  9 10  1  0  0  0  0
  9 45  1  0  0  0  0
 10 15  1  0  0  0  0
 10 11  2  0  0  0  0
 11 12  1  0  0  0  0
 12 13  2  0  0  0  0
 12 46  1  0  0  0  0
 13 14  1  0  0  0  0
 14 18  1  0  0  0  0
 14 15  2  0  0  0  0
 15 16  1  0  0  0  0
 16 17  2  0  0  0  0
 17 18  1  0  0  0  0
 17 47  1  0  0  0  0
 18 19  1  0  0  0  0
 19 31  1  0  0  0  0
 19 26  1  0  0  0  0
 19 20  1  0  0  0  0
 20 21  1  0  0  0  0
 21 32  1  0  0  0  0
 21 22  1  0  0  0  0
 21 24  1  0  0  0  0
 22 23  1  0  0  0  0
 22 48  1  0  0  0  0
 22 49  1  0  0  0  0
 23 50  1  0  0  0  0
 24 33  1  0  0  0  0
 24 25  1  0  0  0  0
 24 26  1  0  0  0  0
 25 51  1  0  0  0  0
 26 34  1  0  0  0  0
 26 27  1  0  0  0  0
 27 52  1  0  0  0  0
 28 29  1  0  0  0  0
 28 30  1  0  0  0  0
 29 53  1  0  0  0  0
 29 54  1  0  0  0  0
 29 55  1  0  0  0  0
M  END
> <s_m_source_file>
AV-unprocessed.smi

> <i_m_source_file_index>
287

> <i_lp_mmshare_version>
43012

> <i_f3d_flags>
0

> <s_epik_input>
W0NIM11jMVtjSF1jKGMobzEpW0NIM10pW0NAQF0oW0NIM10pKFtPSF0pW0NIMl1bTkhdYyhuW2NIXW4yKWMoYzIzKW5bY0hdbjNbQ0BASF00T1tDQEhdKFtDSDJdW09IXSlbQ0BASF0oW09IXSlbQ0BIXTRbT0hd

> <s_epik_cmdline>
J2VwaWtfcHl0aG9uJywgJy1waCcsICc3LjAnLCAnLXRuJywgJzgnLCAnLW1hJywgJzIwMCcsICctbWV0YWxfYmluZGluZycsICctaW1hZScsICc8aW5maWxlLm1hZT4nLCAnLW9tYWUnLCAnPG91dGZpbGUubWFlPic=

> <r_lp_tautomer_probability>
1

> <r_epik_Ionization_Penalty>
0.000992612

> <r_epik_Ionization_Penalty_Charging>
0

> <r_epik_Ionization_Penalty_Neutral>
0.000992612

> <r_epik_State_Penalty>
-0

> <r_epik_Charging_Adjusted_Penalty>
0

> <i_epik_Tot_Q>
0

> <i_epik_Tot_abs_Q>
0

> <r_epik_Metal_State_Penalty>
-0

> <b_epik_Metal_Only>
0

> <s_epik_Chemistry_Notes>
This compound contains an acetal/aminal-like group ( X-CH(R)-Y where X, Y are N, S, or O) that may be acid/base labile, releasing an aldehyde.

> <s_lp_Force_Field>
OPLS_2005

> <r_lp_Energy>
40.8374

> <b_lp_Chiralities_Consistent>
1

> <s_lp_Variant>
AV-unprocessed.smi:287-2

> <Gold.Version>
5.8.1

> <Gold.Id.Protein>
6NUR|6NUR_protein|mol2

> <Gold.PLP.Fitness>
50.8081

> <Gold.PLP.PLP>
-40.2959

> <Gold.PLP.part.hbond>
-5.6276

> <Gold.PLP.part.metal>
0.0000

> <Gold.PLP.part.buried>
4.4251

> <Gold.PLP.part.nonpolar>
-40.7361

> <Gold.PLP.part.repulsive>
1.6971

> <Gold.PLP.ligand.clash>
0.0017

> <Gold.PLP.ligand.torsion>
1.4189

> <Gold.PLP.Chemscore.Hbond>
4.4120

> <Gold.PLP.Chemscore.CHOScore>
0.0206

> <Gold.PLP.Chemscore.Metal>
0.0000

> <Gold.Chemscore.Hbonds>
donor molecule, donor type, donor heavy atom, donor atom, acceptor molecule, acceptor atom, score
      L1  H     7    42       P1  7957  0.52
      L1  H    23    50       P1 10957  1.00
      L1  H    25    51       P1 10957  0.99
      P1  H  7989  7998       L1     7  0.28
      P1  H  8011  8017       L1     7  0.08
      P1  H 11000 11005       L1    23  0.91

> <Gold.PLP.Chemscore.Internal.Correction>
0.0540

> <Gold.Rescore>
     Score         DG    S(hbond)    S(metal)    S(lipo)     H(rot)  DE(clash)    DE(int)     intcor
      7.04     -14.32       3.52        0.00      90.37       5.27       4.14       3.14       ----

> <Gold.Chemscore.Fitness>
7.0417

> <Gold.Chemscore.DG>
-14.3243

> <Gold.Chemscore.ZeroCoef>
-5.4800

> <Gold.Chemscore.Hbond>
3.5194

> <Gold.Chemscore.Metal>
0.0000

> <Gold.Chemscore.Lipo>
90.3711

> <Gold.Chemscore.Internal_Hbond>
0.0000

> <Gold.Chemscore.DEClash>
4.1435

> <Gold.Chemscore.DEInternal>
3.1391

> <Gold.Chemscore.Rot>
5.2672

> <Gold.Chemscore.Internal.Correction>
   9.000000E+99

> <Gold.Chemscore.Hbonds>
donor molecule, donor type, donor heavy atom, donor atom, acceptor molecule, acceptor atom, score
      L1  H     7    42       P1  7957  0.52
      L1  H    23    50       P1 10957  0.98
      L1  H    25    51       P1 10957  0.69
      P1  H  7989  7998       L1     7  0.03
      P1  H 11000 11005       L1    23  0.22

> <Gold.Chemscore.Hbond.Weighted>
-11.7548

> <Gold.Chemscore.Metal.Weighted>
-0.0000

> <Gold.Chemscore.Lipo.Weighted>
-10.5734

> <Gold.Chemscore.Internal_Hbond.Weighted>
0.0000

> <Gold.Chemscore.DEClash.Weighted>
4.1435

> <Gold.Chemscore.DEInternal.Weighted>
3.1391

> <Gold.Chemscore.Rot.Weighted>
13.4839

> <Gold.Chemscore.Internal.Correction.Weighted>
   9.000000E+99

> <Gold.Protein.RotatedTorsions>
[ 6907 6896 6895 6894 ] final  124.46 input  -60.11 | X-H torsion
[ 7974 7965 7964 7962 ] final   80.72 input  175.53 | X-H torsion
[ 8008 7997 7996 7995 ] final    6.83 input   59.86 | X-H torsion
[ 10167 10162 10161 10158 ] final -140.53 input  -65.29 | X-H torsion
[ 10718 10713 10712 10709 ] final   72.50 input   66.30 | X-H torsion
[ 10763 10752 10751 10750 ] final   39.18 input  -60.55 | X-H torsion
[ 11005 11000 10999 10996 ] final    8.69 input  -57.11 | X-H torsion

> <Gold.Protein.ActiveResidues>
 VAL166  LYS551  ARG553  GLY616  TRP617  ASP618  TYR619  PRO620  LYS621  CYS622 
 ASP623  PHE694  ASN695  SER759  ASP760  ASP761  ALA762  ILE779  LEU786  VAL792 
 PHE793  MET794  SER795  GLU796  ALA797  LYS798  CYS799  TRP800  GLU811  SER814 

> <Gold.Protein.RotatedAtoms>
  152.4076  133.6912  159.6369 H   0  0  0  0  0  0  0  0  0  0  0  0  # atno 6907 bound_to 6896
  150.7959  133.8682  159.3260 H   0  0  0  0  0  0  0  0  0  0  0  0  # atno 6908 bound_to 6896
  151.6432  135.1012  160.0197 H   0  0  0  0  0  0  0  0  0  0  0  0  # atno 6909 bound_to 6896
  145.6475  139.2440  143.1995 H   0  0  0  0  0  0  0  0  0  0  0  0  # atno 7974 bound_to 7965
  154.7460  140.2758  155.6333 H   0  0  0  0  0  0  0  0  0  0  0  0  # atno 8008 bound_to 7997
  156.2885  140.2688  156.2127 H   0  0  0  0  0  0  0  0  0  0  0  0  # atno 8009 bound_to 7997
  155.0197  140.0371  157.2422 H   0  0  0  0  0  0  0  0  0  0  0  0  # atno 8010 bound_to 7997
  139.8273  143.7494  152.2666 H   0  0  0  0  0  0  0  0  0  0  0  0  # atno 10167 bound_to 10162
  157.6504  130.9582  150.0937 H   0  0  0  0  0  0  0  0  0  0  0  0  # atno 10718 bound_to 10713
  152.9976  135.6228  154.2423 H   0  0  0  0  0  0  0  0  0  0  0  0  # atno 10763 bound_to 10752
  154.2163  135.2798  155.2942 H   0  0  0  0  0  0  0  0  0  0  0  0  # atno 10764 bound_to 10752
  154.5565  135.5718  153.7027 H   0  0  0  0  0  0  0  0  0  0  0  0  # atno 10765 bound_to 10752
  140.5341  134.0437  155.7883 H   0  0  0  0  0  0  0  0  0  0  0  0  # atno 11005 bound_to 11000
  146.1230  140.7284  142.9448 LP  0  0  0  0  0  0  0  0  0  0  0  0  # atno 17320 bound_to 7965
  144.7134  140.4124  143.7063 LP  0  0  0  0  0  0  0  0  0  0  0  0  # atno 17321 bound_to 7965
  139.7690  144.7482  151.0251 LP  0  0  0  0  0  0  0  0  0  0  0  0  # atno 17342 bound_to 10162
  140.7809  143.4665  151.0204 LP  0  0  0  0  0  0  0  0  0  0  0  0  # atno 17343 bound_to 10162
  156.1879  130.3653  149.8948 LP  0  0  0  0  0  0  0  0  0  0  0  0  # atno 17370 bound_to 10713
  156.6884  130.8886  151.3585 LP  0  0  0  0  0  0  0  0  0  0  0  0  # atno 17371 bound_to 10713
  141.1264  133.9375  157.2626 LP  0  0  0  0  0  0  0  0  0  0  0  0  # atno 17394 bound_to 11000
  139.9538  135.0170  156.9071 LP  0  0  0  0  0  0  0  0  0  0  0  0  # atno 17395 bound_to 11000

$$$$
