AV-unprocessed.smi:3161|AV-procd|sdf|12058|dock3
  -GOLD-   2272017483D 1   1.00000     0.00000
 Structure written by MMmdl.
 41 42  0  0  0  0  0  0  0  0  2 V2000
  152.6031  143.6898  162.9698 C   0  0  0  0  0  0  0  0  0  0  0  0
  152.5064  143.2300  161.5435 C   0  0  0  0  0  0  0  0  0  0  0  0
  152.8978  141.9731  161.0004 C   0  0  0  0  0  0  0  0  0  0  0  0
  152.6808  141.8856  159.6980 N   0  0  0  0  0  0  0  0  0  0  0  0
  152.1394  143.0764  159.3659 N   0  0  0  0  0  0  0  0  0  0  0  0
  151.7755  143.3421  157.9859 C   0  0  0  0  0  0  0  0  0  0  0  0
  150.6839  142.3856  157.4505 C   0  0  1  0  0  0  0  0  0  0  0  0
  149.2871  142.7144  158.0050 C   0  0  0  0  0  0  0  0  0  0  0  0
  150.6366  142.4014  155.9712 N   0  3  0  0  0  0  0  0  0  0  0  0
  149.6966  141.4419  155.3533 C   0  0  0  0  0  0  0  0  0  0  0  0
  150.0027  140.0066  155.8045 C   0  0  1  0  0  0  0  0  0  0  0  0
  149.2728  138.9634  154.9362 C   0  0  0  0  0  0  0  0  0  0  0  0
  149.6681  137.5425  155.3544 C   0  0  0  0  0  0  0  0  0  0  0  0
  151.1943  137.4070  155.3444 C   0  0  0  0  0  0  0  0  0  0  0  0
  151.8360  138.5282  156.1770 C   0  0  0  0  0  0  0  0  0  0  0  0
  151.4096  139.7989  155.6930 O   0  0  0  0  0  0  0  0  0  0  0  0
  152.0293  143.9099  160.4588 C   0  0  0  0  0  0  0  0  0  0  0  0
  152.6740  142.8507  163.6621 H   0  0  0  0  0  0  0  0  0  0  0  0
  151.7321  144.2753  163.2649 H   0  0  0  0  0  0  0  0  0  0  0  0
  153.4814  144.3150  163.1311 H   0  0  0  0  0  0  0  0  0  0  0  0
  153.3325  141.1266  161.5115 H   0  0  0  0  0  0  0  0  0  0  0  0
  151.4349  144.3761  157.9161 H   0  0  0  0  0  0  0  0  0  0  0  0
  152.6834  143.2719  157.3870 H   0  0  0  0  0  0  0  0  0  0  0  0
  150.9228  141.3676  157.7626 H   0  0  0  0  0  0  0  0  0  0  0  0
  149.2491  142.6090  159.0896 H   0  0  0  0  0  0  0  0  0  0  0  0
  148.5336  142.0427  157.5926 H   0  0  0  0  0  0  0  0  0  0  0  0
  148.9931  143.7354  157.7595 H   0  0  0  0  0  0  0  0  0  0  0  0
  150.3402  143.3250  155.6884 H   0  0  0  0  0  0  0  0  0  0  0  0
  148.6779  141.7019  155.6413 H   0  0  0  0  0  0  0  0  0  0  0  0
  149.7530  141.5128  154.2661 H   0  0  0  0  0  0  0  0  0  0  0  0
  149.6980  139.8872  156.8460 H   0  0  0  0  0  0  0  0  0  0  0  0
  148.1927  139.0882  155.0203 H   0  0  0  0  0  0  0  0  0  0  0  0
  149.5244  139.1164  153.8857 H   0  0  0  0  0  0  0  0  0  0  0  0
  149.2874  137.3345  156.3551 H   0  0  0  0  0  0  0  0  0  0  0  0
  149.2160  136.8082  154.6872 H   0  0  0  0  0  0  0  0  0  0  0  0
  151.4893  136.4315  155.7322 H   0  0  0  0  0  0  0  0  0  0  0  0
  151.5607  137.4601  154.3183 H   0  0  0  0  0  0  0  0  0  0  0  0
  151.5805  138.4245  157.2326 H   0  0  0  0  0  0  0  0  0  0  0  0
  152.9225  138.4708  156.1064 H   0  0  0  0  0  0  0  0  0  0  0  0
  151.6224  144.9072  160.3768 H   0  0  0  0  0  0  0  0  0  0  0  0
  151.5656  142.2404  155.6093 H   0  0  0  0  0  0  0  0  0  0  0  0
  1  2  1  0  0  0  0
  1 18  1  0  0  0  0
  1 19  1  0  0  0  0
  1 20  1  0  0  0  0
  2 17  2  0  0  0  0
  2  3  1  0  0  0  0
  3  4  2  0  0  0  0
  3 21  1  0  0  0  0
  4  5  1  0  0  0  0
  5  6  1  0  0  0  0
  5 17  1  0  0  0  0
  6  7  1  0  0  0  0
  6 22  1  0  0  0  0
  6 23  1  0  0  0  0
  7  8  1  0  0  0  0
  7  9  1  0  0  0  0
  7 24  1  0  0  0  0
  8 25  1  0  0  0  0
  8 26  1  0  0  0  0
  8 27  1  0  0  0  0
  9 10  1  0  0  0  0
  9 28  1  0  0  0  0
  9 41  1  0  0  0  0
 10 11  1  0  0  0  0
 10 29  1  0  0  0  0
 10 30  1  0  0  0  0
 11 16  1  0  0  0  0
 11 12  1  0  0  0  0
 11 31  1  0  0  0  0
 12 13  1  0  0  0  0
 12 32  1  0  0  0  0
 12 33  1  0  0  0  0
 13 14  1  0  0  0  0
 13 34  1  0  0  0  0
 13 35  1  0  0  0  0
 14 15  1  0  0  0  0
 14 36  1  0  0  0  0
 14 37  1  0  0  0  0
 15 16  1  0  0  0  0
 15 38  1  0  0  0  0
 15 39  1  0  0  0  0
 17 40  1  0  0  0  0
M  CHG  1   9   1
M  END
> <s_m_source_file>
AV-unprocessed.smi

> <i_m_source_file_index>
3161

> <i_lp_mmshare_version>
43012

> <i_f3d_flags>
0

> <s_epik_input>
W0NIM11jMVtjSF1ubihbY0hdMSlbQ0gyXVtDQEhdKFtDSDNdKVtOSF1bQ0gyXVtDQEBIXTJbQ0gyXVtDSDJdW0NIMl1bQ0gyXU8y

> <s_epik_cmdline>
J2VwaWtfcHl0aG9uJywgJy1waCcsICc3LjAnLCAnLXRuJywgJzgnLCAnLW1hJywgJzIwMCcsICctbWV0YWxfYmluZGluZycsICctaW1hZScsICc8aW5maWxlLm1hZT4nLCAnLW9tYWUnLCAnPG91dGZpbGUubWFlPic=

> <r_lp_tautomer_probability>
1

> <r_epik_Ionization_Penalty>
0.00849661

> <r_epik_Ionization_Penalty_Charging>
0.00848754

> <r_epik_Ionization_Penalty_Neutral>
9.06711e-06

> <r_epik_State_Penalty>
0.00639836

> <r_epik_Charging_Adjusted_Penalty>
0.0148859

> <i_epik_Tot_Q>
1

> <i_epik_Tot_abs_Q>
1

> <r_epik_Metal_State_Penalty>
0.00639921

> <b_epik_Metal_Only>
0

> <s_lp_Force_Field>
OPLS_2005

> <r_lp_Energy>
12.4103

> <b_lp_Chiralities_Consistent>
1

> <s_lp_Variant>
AV-unprocessed.smi:3161-4

> <Gold.Version>
5.8.1

> <Gold.Id.Protein>
6NUR|6NUR_protein|mol2

> <Gold.PLP.Fitness>
53.7722

> <Gold.PLP.PLP>
-45.4405

> <Gold.PLP.part.hbond>
-2.0000

> <Gold.PLP.part.metal>
0.0000

> <Gold.PLP.part.buried>
-5.5326

> <Gold.PLP.part.nonpolar>
-39.1763

> <Gold.PLP.part.repulsive>
0.1765

> <Gold.PLP.ligand.clash>
0.0000

> <Gold.PLP.ligand.torsion>
0.2245

> <Gold.PLP.Chemscore.Hbond>
2.9120

> <Gold.PLP.Chemscore.CHOScore>
0.0000

> <Gold.PLP.Chemscore.Metal>
0.0000

> <Gold.Chemscore.Hbonds>
donor molecule, donor type, donor heavy atom, donor atom, acceptor molecule, acceptor atom, score
      L1  H     9    28       P1  8028  1.95

> <Gold.PLP.Chemscore.Internal.Correction>
0.0446

> <Gold.Rescore>
     Score         DG    S(hbond)    S(metal)    S(lipo)     H(rot)  DE(clash)    DE(int)     intcor
     20.12     -20.72       1.85        0.00     111.75       1.57       0.40       0.20       ----

> <Gold.Chemscore.Fitness>
20.1171

> <Gold.Chemscore.DG>
-20.7162

> <Gold.Chemscore.ZeroCoef>
-5.4800

> <Gold.Chemscore.Hbond>
1.8516

> <Gold.Chemscore.Metal>
0.0000

> <Gold.Chemscore.Lipo>
111.7491

> <Gold.Chemscore.Internal_Hbond>
0.0000

> <Gold.Chemscore.DEClash>
0.3991

> <Gold.Chemscore.DEInternal>
0.2000

> <Gold.Chemscore.Rot>
1.5714

> <Gold.Chemscore.Internal.Correction>
   9.000000E+99

> <Gold.Chemscore.Hbonds>
donor molecule, donor type, donor heavy atom, donor atom, acceptor molecule, acceptor atom, score
      L1  H     9    28       P1  8028  0.89
      P1  H  7989  7998       L1    16  0.01

> <Gold.Chemscore.Hbond.Weighted>
-6.1844

> <Gold.Chemscore.Metal.Weighted>
-0.0000

> <Gold.Chemscore.Lipo.Weighted>
-13.0746

> <Gold.Chemscore.Internal_Hbond.Weighted>
0.0000

> <Gold.Chemscore.DEClash.Weighted>
0.3991

> <Gold.Chemscore.DEInternal.Weighted>
0.2000

> <Gold.Chemscore.Rot.Weighted>
4.0228

> <Gold.Chemscore.Internal.Correction.Weighted>
   9.000000E+99

> <Gold.Protein.RotatedTorsions>
[ 6907 6896 6895 6894 ] final   77.33 input  -60.11 | X-H torsion
[ 7974 7965 7964 7962 ] final  -12.93 input  175.53 | X-H torsion
[ 8008 7997 7996 7995 ] final  125.65 input   59.86 | X-H torsion
[ 10167 10162 10161 10158 ] final  -46.05 input  -65.29 | X-H torsion
[ 10718 10713 10712 10709 ] final -141.17 input   66.30 | X-H torsion
[ 10763 10752 10751 10750 ] final  -89.70 input  -60.55 | X-H torsion
[ 11005 11000 10999 10996 ] final   58.51 input  -57.11 | X-H torsion

> <Gold.Protein.ActiveResidues>
 VAL166  LYS551  ARG553  GLY616  TRP617  ASP618  TYR619  PRO620  LYS621  CYS622 
 ASP623  PHE694  ASN695  SER759  ASP760  ASP761  ALA762  ILE779  LEU786  VAL792 
 PHE793  MET794  SER795  GLU796  ALA797  LYS798  CYS799  TRP800  GLU811  SER814 

> <Gold.Protein.RotatedAtoms>
  152.5113  134.3833  159.9358 H   0  0  0  0  0  0  0  0  0  0  0  0  # atno 6907 bound_to 6896
  151.3791  133.3821  159.2716 H   0  0  0  0  0  0  0  0  0  0  0  0  # atno 6908 bound_to 6896
  150.9518  134.8937  159.7735 H   0  0  0  0  0  0  0  0  0  0  0  0  # atno 6909 bound_to 6896
  146.2133  140.3129  142.8384 H   0  0  0  0  0  0  0  0  0  0  0  0  # atno 7974 bound_to 7965
  156.2840  140.2711  156.1983 H   0  0  0  0  0  0  0  0  0  0  0  0  # atno 8008 bound_to 7997
  155.0387  140.0386  157.2519 H   0  0  0  0  0  0  0  0  0  0  0  0  # atno 8009 bound_to 7997
  154.7292  140.2703  155.6476 H   0  0  0  0  0  0  0  0  0  0  0  0  # atno 8010 bound_to 7997
  140.6833  143.2849  151.3727 H   0  0  0  0  0  0  0  0  0  0  0  0  # atno 10167 bound_to 10162
  156.3309  130.7585  151.1703 H   0  0  0  0  0  0  0  0  0  0  0  0  # atno 10718 bound_to 10713
  154.6580  135.5331  153.7983 H   0  0  0  0  0  0  0  0  0  0  0  0  # atno 10763 bound_to 10752
  153.0425  135.6499  154.0915 H   0  0  0  0  0  0  0  0  0  0  0  0  # atno 10764 bound_to 10752
  154.0826  135.2946  155.3267 H   0  0  0  0  0  0  0  0  0  0  0  0  # atno 10765 bound_to 10752
  140.0372  134.5925  155.9428 H   0  0  0  0  0  0  0  0  0  0  0  0  # atno 11005 bound_to 11000
  144.8975  140.7601  143.5888 LP  0  0  0  0  0  0  0  0  0  0  0  0  # atno 17320 bound_to 7965
  145.3054  139.1836  143.4667 LP  0  0  0  0  0  0  0  0  0  0  0  0  # atno 17321 bound_to 7965
  139.6172  144.0979  152.2357 LP  0  0  0  0  0  0  0  0  0  0  0  0  # atno 17342 bound_to 10162
  140.0412  144.6006  150.7409 LP  0  0  0  0  0  0  0  0  0  0  0  0  # atno 17343 bound_to 10162
  157.7430  131.0481  150.4980 LP  0  0  0  0  0  0  0  0  0  0  0  0  # atno 17370 bound_to 10713
  156.5146  130.4147  149.6283 LP  0  0  0  0  0  0  0  0  0  0  0  0  # atno 17371 bound_to 10713
  141.1864  133.6557  156.5237 LP  0  0  0  0  0  0  0  0  0  0  0  0  # atno 17394 bound_to 11000
  140.4128  134.7257  157.4845 LP  0  0  0  0  0  0  0  0  0  0  0  0  # atno 17395 bound_to 11000

$$$$
