AV-unprocessed.smi:3142|AV-procd|sdf|11970|dock1
  -GOLD-   2272017373D 1   1.00000     0.00000
 Structure written by MMmdl.
 36 38  0  0  0  0  0  0  0  0  1 V2000
  149.5139  141.2618  155.7940 C   0  0  0  0  0  0  0  0  0  0  0  0
  150.1121  140.2810  156.8208 C   0  0  2  0  0  0  0  0  0  0  0  0
  151.3309  140.8531  157.5629 C   0  0  0  0  0  0  0  0  0  0  0  0
  152.3520  140.1807  157.7110 O   0  0  0  0  0  0  0  0  0  0  0  0
  151.2009  142.1060  158.0275 N   0  0  0  0  0  0  0  0  0  0  0  0
  152.2047  142.8464  158.7831 C   0  0  0  0  0  0  0  0  0  0  0  0
  152.4307  142.2313  160.1518 C   0  0  0  0  0  0  0  0  0  0  0  0
  153.6493  142.5689  160.9779 C   0  0  0  0  0  0  0  0  0  0  0  0
  153.5041  141.1922  160.3685 C   0  0  0  0  0  0  0  0  0  0  0  0
  151.8628  144.3211  158.9141 C   0  0  0  0  0  0  0  0  0  0  0  0
  152.3634  145.1436  160.0778 C   0  0  0  0  0  0  0  0  0  0  0  0
  150.8930  144.8138  159.9623 C   0  0  0  0  0  0  0  0  0  0  0  0
  150.4477  139.0058  156.2026 N   0  0  0  0  0  0  0  0  0  0  0  0
  150.2062  138.6303  154.8865 C   0  0  0  0  0  0  0  0  0  0  0  0
  150.6701  137.3416  154.7506 C   0  0  0  0  0  0  0  0  0  0  0  0
  151.1927  136.9012  155.9636 N   0  0  0  0  0  0  0  0  0  0  0  0
  151.0253  137.9375  156.7748 C   0  0  0  0  0  0  0  0  0  0  0  0
  149.2296  142.2028  156.2661 H   0  0  0  0  0  0  0  0  0  0  0  0
  148.6171  140.8441  155.3355 H   0  0  0  0  0  0  0  0  0  0  0  0
  150.2171  141.4911  154.9924 H   0  0  0  0  0  0  0  0  0  0  0  0
  149.3444  140.0884  157.5721 H   0  0  0  0  0  0  0  0  0  0  0  0
  150.3250  142.5792  157.8586 H   0  0  0  0  0  0  0  0  0  0  0  0
  153.1542  142.7769  158.2481 H   0  0  0  0  0  0  0  0  0  0  0  0
  151.5109  142.0779  160.7134 H   0  0  0  0  0  0  0  0  0  0  0  0
  154.3961  143.2299  160.5427 H   0  0  0  0  0  0  0  0  0  0  0  0
  153.5162  142.6601  162.0538 H   0  0  0  0  0  0  0  0  0  0  0  0
  153.2741  140.3658  161.0379 H   0  0  0  0  0  0  0  0  0  0  0  0
  154.1466  140.9449  159.5257 H   0  0  0  0  0  0  0  0  0  0  0  0
  151.8161  144.8388  157.9575 H   0  0  0  0  0  0  0  0  0  0  0  0
  152.9299  144.6351  160.8553 H   0  0  0  0  0  0  0  0  0  0  0  0
  152.6685  146.1676  159.8733 H   0  0  0  0  0  0  0  0  0  0  0  0
  150.2169  145.6189  159.6813 H   0  0  0  0  0  0  0  0  0  0  0  0
  150.4886  144.0899  160.6664 H   0  0  0  0  0  0  0  0  0  0  0  0
  149.7366  139.2924  154.1741 H   0  0  0  0  0  0  0  0  0  0  0  0
  150.6641  136.7014  153.8809 H   0  0  0  0  0  0  0  0  0  0  0  0
  151.3264  137.9176  157.8122 H   0  0  0  0  0  0  0  0  0  0  0  0
  1  2  1  0  0  0  0
  1 18  1  0  0  0  0
  1 19  1  0  0  0  0
  1 20  1  0  0  0  0
  2  3  1  0  0  0  0
  2 13  1  0  0  0  0
  2 21  1  0  0  0  0
  3  4  2  0  0  0  0
  3  5  1  0  0  0  0
  5  6  1  0  0  0  0
  5 22  1  0  0  0  0
  6  7  1  0  0  0  0
  6 10  1  0  0  0  0
  6 23  1  0  0  0  0
  7  9  1  0  0  0  0
  7  8  1  0  0  0  0
  7 24  1  0  0  0  0
  8  9  1  0  0  0  0
  8 25  1  0  0  0  0
  8 26  1  0  0  0  0
  9 27  1  0  0  0  0
  9 28  1  0  0  0  0
 10 12  1  0  0  0  0
 10 11  1  0  0  0  0
 10 29  1  0  0  0  0
 11 12  1  0  0  0  0
 11 30  1  0  0  0  0
 11 31  1  0  0  0  0
 12 32  1  0  0  0  0
 12 33  1  0  0  0  0
 13 17  1  0  0  0  0
 13 14  1  0  0  0  0
 14 15  2  0  0  0  0
 14 34  1  0  0  0  0
 15 16  1  0  0  0  0
 15 35  1  0  0  0  0
 16 17  2  0  0  0  0
 17 36  1  0  0  0  0
M  END
> <s_m_source_file>
AV-unprocessed.smi

> <i_m_source_file_index>
3142

> <i_lp_mmshare_version>
43012

> <i_f3d_flags>
0

> <s_epik_input>
W2NIXTFuW2NIXVtjSF1uMVtDQEhdKFtDSDNdKUMoPU8pW05IXVtDSF0oW0NIXTJbQ0gyXVtDSDJdMilbQ0hdM1tDSDJdW0NIMl0z

> <s_epik_cmdline>
J2VwaWtfcHl0aG9uJywgJy1waCcsICc3LjAnLCAnLXRuJywgJzgnLCAnLW1hJywgJzIwMCcsICctbWV0YWxfYmluZGluZycsICctaW1hZScsICc8aW5maWxlLm1hZT4nLCAnLW9tYWUnLCAnPG91dGZpbGUubWFlPic=

> <r_lp_tautomer_probability>
1

> <r_epik_Ionization_Penalty>
0.32285

> <r_epik_Ionization_Penalty_Charging>
0.32285

> <r_epik_Ionization_Penalty_Neutral>
3.37967e-08

> <r_epik_State_Penalty>
0.317502

> <r_epik_Charging_Adjusted_Penalty>
0.640352

> <i_epik_Tot_Q>
0

> <i_epik_Tot_abs_Q>
0

> <r_epik_Metal_State_Penalty>
0.20415

> <b_epik_Metal_Only>
0

> <s_lp_Force_Field>
OPLS_2005

> <r_lp_Energy>
29.0844

> <b_lp_Chiralities_Consistent>
1

> <s_lp_Variant>
AV-unprocessed.smi:3142-1

> <Gold.Version>
5.8.1

> <Gold.Id.Protein>
6NUR|6NUR_protein|mol2

> <Gold.PLP.Fitness>
49.7151

> <Gold.PLP.PLP>
-39.8731

> <Gold.PLP.part.hbond>
-2.0000

> <Gold.PLP.part.metal>
0.0000

> <Gold.PLP.part.buried>
-2.1115

> <Gold.PLP.part.nonpolar>
-34.7629

> <Gold.PLP.part.repulsive>
0.1145

> <Gold.PLP.ligand.clash>
0.0000

> <Gold.PLP.ligand.torsion>
1.5146

> <Gold.PLP.Chemscore.Hbond>
1.7676

> <Gold.PLP.Chemscore.CHOScore>
1.7855

> <Gold.PLP.Chemscore.Metal>
0.0000

> <Gold.Chemscore.Hbonds>
donor molecule, donor type, donor heavy atom, donor atom, acceptor molecule, acceptor atom, score
      P1  H  7997  8008       L1     4  0.29
      L1  C    15    35       P1  7948  0.34
      L1  C    15    35       P1  7949  0.65

> <Gold.PLP.Chemscore.Internal.Correction>
2.2118

> <Gold.Rescore>
     Score         DG    S(hbond)    S(metal)    S(lipo)     H(rot)  DE(clash)    DE(int)     intcor
     12.45     -17.34       1.30        0.00     104.85       1.85       0.54       4.34       ----

> <Gold.Chemscore.Fitness>
12.4504

> <Gold.Chemscore.DG>
-17.3374

> <Gold.Chemscore.ZeroCoef>
-5.4800

> <Gold.Chemscore.Hbond>
1.2955

> <Gold.Chemscore.Metal>
0.0000

> <Gold.Chemscore.Lipo>
104.8512

> <Gold.Chemscore.Internal_Hbond>
0.0000

> <Gold.Chemscore.DEClash>
0.5423

> <Gold.Chemscore.DEInternal>
4.3447

> <Gold.Chemscore.Rot>
1.8505

> <Gold.Chemscore.Internal.Correction>
   9.000000E+99

> <Gold.Chemscore.Hbonds>
donor molecule, donor type, donor heavy atom, donor atom, acceptor molecule, acceptor atom, score
      P1  H  7997  8008       L1     4  0.28

> <Gold.Chemscore.Hbond.Weighted>
-4.3271

> <Gold.Chemscore.Metal.Weighted>
-0.0000

> <Gold.Chemscore.Lipo.Weighted>
-12.2676

> <Gold.Chemscore.Internal_Hbond.Weighted>
0.0000

> <Gold.Chemscore.DEClash.Weighted>
0.5423

> <Gold.Chemscore.DEInternal.Weighted>
4.3447

> <Gold.Chemscore.Rot.Weighted>
4.7373

> <Gold.Chemscore.Internal.Correction.Weighted>
   9.000000E+99

> <Gold.Protein.RotatedTorsions>
[ 6907 6896 6895 6894 ] final  -16.40 input  -60.11 | X-H torsion
[ 7974 7965 7964 7962 ] final  -47.41 input  175.53 | X-H torsion
[ 8008 7997 7996 7995 ] final  -81.03 input   59.86 | X-H torsion
[ 10167 10162 10161 10158 ] final  123.53 input  -65.29 | X-H torsion
[ 10718 10713 10712 10709 ] final  -78.61 input   66.30 | X-H torsion
[ 10763 10752 10751 10750 ] final  -48.62 input  -60.55 | X-H torsion
[ 11005 11000 10999 10996 ] final  -49.68 input  -57.11 | X-H torsion

> <Gold.Protein.ActiveResidues>
 VAL166  LYS551  ARG553  GLY616  TRP617  ASP618  TYR619  PRO620  LYS621  CYS622 
 ASP623  PHE694  ASN695  SER759  ASP760  ASP761  ALA762  ILE779  LEU786  VAL792 
 PHE793  MET794  SER795  GLU796  ALA797  LYS798  CYS799  TRP800  GLU811  SER814 

> <Gold.Protein.RotatedAtoms>
  151.3092  135.0789  159.9266 H   0  0  0  0  0  0  0  0  0  0  0  0  # atno 6907 bound_to 6896
  152.5281  133.9753  159.7791 H   0  0  0  0  0  0  0  0  0  0  0  0  # atno 6908 bound_to 6896
  151.0054  133.5964  159.2720 H   0  0  0  0  0  0  0  0  0  0  0  0  # atno 6909 bound_to 6896
  145.9619  140.7471  142.9453 H   0  0  0  0  0  0  0  0  0  0  0  0  # atno 7974 bound_to 7965
  154.5942  140.0654  156.9281 H   0  0  0  0  0  0  0  0  0  0  0  0  # atno 8008 bound_to 7997
  155.2243  140.3332  155.4293 H   0  0  0  0  0  0  0  0  0  0  0  0  # atno 8009 bound_to 7997
  156.2276  140.1826  156.7308 H   0  0  0  0  0  0  0  0  0  0  0  0  # atno 8010 bound_to 7997
  139.5794  144.6979  151.3568 H   0  0  0  0  0  0  0  0  0  0  0  0  # atno 10167 bound_to 10162
  156.0113  130.4523  150.3523 H   0  0  0  0  0  0  0  0  0  0  0  0  # atno 10718 bound_to 10713
  154.0808  135.6591  153.4837 H   0  0  0  0  0  0  0  0  0  0  0  0  # atno 10763 bound_to 10752
  153.0356  135.5179  154.7476 H   0  0  0  0  0  0  0  0  0  0  0  0  # atno 10764 bound_to 10752
  154.6570  135.3009  154.9883 H   0  0  0  0  0  0  0  0  0  0  0  0  # atno 10765 bound_to 10752
  141.0773  133.6662  156.3621 H   0  0  0  0  0  0  0  0  0  0  0  0  # atno 11005 bound_to 11000
  144.6817  140.2605  143.7319 LP  0  0  0  0  0  0  0  0  0  0  0  0  # atno 17320 bound_to 7965
  145.8028  139.1971  143.2038 LP  0  0  0  0  0  0  0  0  0  0  0  0  # atno 17321 bound_to 7965
  140.7074  143.7479  150.7505 LP  0  0  0  0  0  0  0  0  0  0  0  0  # atno 17342 bound_to 10162
  140.1008  143.4790  152.2426 LP  0  0  0  0  0  0  0  0  0  0  0  0  # atno 17343 bound_to 10162
  157.1615  131.0346  151.2838 LP  0  0  0  0  0  0  0  0  0  0  0  0  # atno 17370 bound_to 10713
  157.4307  130.7489  149.6987 LP  0  0  0  0  0  0  0  0  0  0  0  0  # atno 17371 bound_to 10713
  140.5545  134.5995  157.5417 LP  0  0  0  0  0  0  0  0  0  0  0  0  # atno 17394 bound_to 11000
  139.9586  134.7492  156.0287 LP  0  0  0  0  0  0  0  0  0  0  0  0  # atno 17395 bound_to 11000

$$$$
