AV-unprocessed.smi:156|AV-procd|sdf|1290|dock7
  -GOLD-   2262018573D 1   1.00000     0.00000
 Structure written by MMmdl.
 51 53  0  0  0  0  0  0  0  0  1 V2000
  148.5248  133.2908  158.9476 C   0  0  0  0  0  0  0  0  0  0  0  0
  148.0168  134.5354  158.1950 C   0  0  1  0  0  0  0  0  0  0  0  0
  148.5218  135.8956  158.7592 C   0  0  1  0  0  0  0  0  0  0  0  0
  148.4013  137.0106  157.7013 C   0  0  0  0  0  0  0  0  0  0  0  0
  147.5985  136.3807  160.3019 S   0  0  0  0  0  0  0  0  0  0  0  0
  146.6215  134.8756  160.7194 C   0  0  0  0  0  0  0  0  0  0  0  0
  148.5733  136.6051  161.3802 O   0  0  0  0  0  0  0  0  0  0  0  0
  146.6388  137.4416  159.9595 O   0  0  0  0  0  0  0  0  0  0  0  0
  148.3052  134.3957  156.7599 N   0  0  0  0  0  0  0  0  0  0  0  0
  149.6627  134.1175  156.3007 C   0  0  0  0  0  0  0  0  0  0  0  0
  147.2715  134.1348  155.9165 C   0  0  0  0  0  0  0  0  0  0  0  0
  146.0157  134.4440  156.3343 N   0  0  0  0  0  0  0  0  0  0  0  0
  144.9620  134.2195  155.5452 C   0  0  0  0  0  0  0  0  0  0  0  0
  144.9360  133.6981  154.3184 N   0  0  0  0  0  0  0  0  0  0  0  0
  146.1907  133.3783  153.8906 C   0  0  0  0  0  0  0  0  0  0  0  0
  147.4041  133.5681  154.6132 C   0  0  0  0  0  0  0  0  0  0  0  0
  148.4753  133.1238  153.8453 N   0  0  0  0  0  0  0  0  0  0  0  0
  147.9293  132.7037  152.7378 C   0  0  0  0  0  0  0  0  0  0  0  0
  146.5574  132.8000  152.6868 N   0  0  0  0  0  0  0  0  0  0  0  0
  145.6900  132.4035  151.5855 C   0  0  0  0  0  0  0  0  0  0  0  0
  144.8993  133.5576  150.9252 C   0  0  0  0  0  0  0  0  0  0  0  0
  144.3425  132.9908  149.6073 C   0  0  0  0  0  0  0  0  0  0  0  0
  143.5140  131.8617  149.7997 O   0  0  0  0  0  0  0  0  0  0  0  0
  143.9160  134.3102  151.8391 C   0  0  0  0  0  0  0  0  0  0  0  0
  144.8331  135.4145  152.0012 O   0  0  0  0  0  0  0  0  0  0  0  0
  145.5876  134.9340  150.8669 C   0  0  0  0  0  0  0  0  0  0  0  0
  148.1197  133.2333  159.9569 H   0  0  0  0  0  0  0  0  0  0  0  0
  149.6129  133.2787  159.0160 H   0  0  0  0  0  0  0  0  0  0  0  0
  148.2138  132.3770  158.4397 H   0  0  0  0  0  0  0  0  0  0  0  0
  146.9370  134.5324  158.3433 H   0  0  0  0  0  0  0  0  0  0  0  0
  149.5666  135.8070  159.0545 H   0  0  0  0  0  0  0  0  0  0  0  0
  148.9159  136.7467  156.7776 H   0  0  0  0  0  0  0  0  0  0  0  0
  148.8494  137.9427  158.0412 H   0  0  0  0  0  0  0  0  0  0  0  0
  147.3582  137.2071  157.4523 H   0  0  0  0  0  0  0  0  0  0  0  0
  145.9299  135.1128  161.5277 H   0  0  0  0  0  0  0  0  0  0  0  0
  147.2853  134.0780  161.0504 H   0  0  0  0  0  0  0  0  0  0  0  0
  146.0559  134.5505  159.8465 H   0  0  0  0  0  0  0  0  0  0  0  0
  149.7758  134.3659  155.2449 H   0  0  0  0  0  0  0  0  0  0  0  0
  149.9060  133.0638  156.4379 H   0  0  0  0  0  0  0  0  0  0  0  0
  150.3957  134.7047  156.8516 H   0  0  0  0  0  0  0  0  0  0  0  0
  144.0028  134.4958  155.9573 H   0  0  0  0  0  0  0  0  0  0  0  0
  148.5189  132.3060  151.9252 H   0  0  0  0  0  0  0  0  0  0  0  0
  146.3101  131.8934  150.8471 H   0  0  0  0  0  0  0  0  0  0  0  0
  145.0028  131.6462  151.9651 H   0  0  0  0  0  0  0  0  0  0  0  0
  143.7591  133.7453  149.0783 H   0  0  0  0  0  0  0  0  0  0  0  0
  145.1536  132.6974  148.9400 H   0  0  0  0  0  0  0  0  0  0  0  0
  142.6604  132.1574  150.0778 H   0  0  0  0  0  0  0  0  0  0  0  0
  142.9927  134.6259  151.3518 H   0  0  0  0  0  0  0  0  0  0  0  0
  143.6901  133.8045  152.7767 H   0  0  0  0  0  0  0  0  0  0  0  0
  146.6610  134.9218  151.0470 H   0  0  0  0  0  0  0  0  0  0  0  0
  145.3670  135.5112  149.9681 H   0  0  0  0  0  0  0  0  0  0  0  0
  1  2  1  0  0  0  0
  1 27  1  0  0  0  0
  1 28  1  0  0  0  0
  1 29  1  0  0  0  0
  2  3  1  0  0  0  0
  2  9  1  0  0  0  0
  2 30  1  0  0  0  0
  3  4  1  0  0  0  0
  3  5  1  0  0  0  0
  3 31  1  0  0  0  0
  4 32  1  0  0  0  0
  4 33  1  0  0  0  0
  4 34  1  0  0  0  0
  5  6  1  0  0  0  0
  5  7  2  0  0  0  0
  5  8  2  0  0  0  0
  6 35  1  0  0  0  0
  6 36  1  0  0  0  0
  6 37  1  0  0  0  0
  9 10  1  0  0  0  0
  9 11  1  0  0  0  0
 10 38  1  0  0  0  0
 10 39  1  0  0  0  0
 10 40  1  0  0  0  0
 11 16  1  0  0  0  0
 11 12  2  0  0  0  0
 12 13  1  0  0  0  0
 13 14  2  0  0  0  0
 13 41  1  0  0  0  0
 14 15  1  0  0  0  0
 15 19  1  0  0  0  0
 15 16  2  0  0  0  0
 16 17  1  0  0  0  0
 17 18  2  0  0  0  0
 18 19  1  0  0  0  0
 18 42  1  0  0  0  0
 19 20  1  0  0  0  0
 20 21  1  0  0  0  0
 20 43  1  0  0  0  0
 20 44  1  0  0  0  0
 21 26  1  0  0  0  0
 21 22  1  0  0  0  0
 21 24  1  0  0  0  0
 22 23  1  0  0  0  0
 22 45  1  0  0  0  0
 22 46  1  0  0  0  0
 23 47  1  0  0  0  0
 24 25  1  0  0  0  0
 24 48  1  0  0  0  0
 24 49  1  0  0  0  0
 25 26  1  0  0  0  0
 26 50  1  0  0  0  0
 26 51  1  0  0  0  0
M  END
> <s_m_source_file>
AV-unprocessed.smi

> <i_m_source_file_index>
156

> <i_lp_mmshare_version>
43012

> <i_f3d_flags>
0

> <s_epik_input>
W0NIM11TKD1PKSg9TylbQ0BASF0oW0NIM10pW0NAQEhdKFtDSDNdKU4oW0NIM10pYyhuW2NIXW4xKWMoYzEyKW5bY0hdbjJbQ0gyXUMzKFtDSDJdW09IXSlbQ0gyXU9bQ0gyXTM=

> <s_epik_cmdline>
J2VwaWtfcHl0aG9uJywgJy1waCcsICc3LjAnLCAnLXRuJywgJzgnLCAnLW1hJywgJzIwMCcsICctbWV0YWxfYmluZGluZycsICctaW1hZScsICc8aW5maWxlLm1hZT4nLCAnLW9tYWUnLCAnPG91dGZpbGUubWFlPic=

> <r_lp_tautomer_probability>
1

> <r_epik_Ionization_Penalty>
0.00107697

> <r_epik_Ionization_Penalty_Charging>
0

> <r_epik_Ionization_Penalty_Neutral>
0.00107697

> <r_epik_State_Penalty>
0.000614712

> <r_epik_Charging_Adjusted_Penalty>
0.000614712

> <i_epik_Tot_Q>
0

> <i_epik_Tot_abs_Q>
0

> <r_epik_Metal_State_Penalty>
-0

> <b_epik_Metal_Only>
0

> <s_lp_Force_Field>
OPLS_2005

> <r_lp_Energy>
27.5373

> <b_lp_Chiralities_Consistent>
1

> <s_lp_Variant>
AV-unprocessed.smi:156-4

> <Gold.Version>
5.8.1

> <Gold.Id.Protein>
6NUR|6NUR_protein|mol2

> <Gold.PLP.Fitness>
39.4492

> <Gold.PLP.PLP>
-29.0596

> <Gold.PLP.part.hbond>
-3.9544

> <Gold.PLP.part.metal>
0.0000

> <Gold.PLP.part.buried>
-5.0131

> <Gold.PLP.part.nonpolar>
-21.0817

> <Gold.PLP.part.repulsive>
0.6622

> <Gold.PLP.ligand.clash>
0.0053

> <Gold.PLP.ligand.torsion>
1.4055

> <Gold.PLP.Chemscore.Hbond>
3.0000

> <Gold.PLP.Chemscore.CHOScore>
1.0000

> <Gold.PLP.Chemscore.Metal>
0.0000

> <Gold.Chemscore.Hbonds>
donor molecule, donor type, donor heavy atom, donor atom, acceptor molecule, acceptor atom, score
      P1  H  6931  6943       L1     7  1.00
      P1  H  6934  6947       L1     8  1.00
      P1  H 10785 10796       L1    23  0.98
      L1  C    18    42       P1 10747  1.00

> <Gold.PLP.Chemscore.Internal.Correction>
1.2059

> <Gold.Rescore>
     Score         DG    S(hbond)    S(metal)    S(lipo)     H(rot)  DE(clash)    DE(int)     intcor
      7.96     -12.11       2.53        0.00      54.69       3.21       0.30       3.86       ----

> <Gold.Chemscore.Fitness>
7.9602

> <Gold.Chemscore.DG>
-12.1139

> <Gold.Chemscore.ZeroCoef>
-5.4800

> <Gold.Chemscore.Hbond>
2.5320

> <Gold.Chemscore.Metal>
0.0000

> <Gold.Chemscore.Lipo>
54.6885

> <Gold.Chemscore.Internal_Hbond>
0.0000

> <Gold.Chemscore.DEClash>
0.2968

> <Gold.Chemscore.DEInternal>
3.8569

> <Gold.Chemscore.Rot>
3.2115

> <Gold.Chemscore.Internal.Correction>
   9.000000E+99

> <Gold.Chemscore.Hbonds>
donor molecule, donor type, donor heavy atom, donor atom, acceptor molecule, acceptor atom, score
      P1  H  6931  6943       L1     7  0.99
      P1  H  6934  6947       L1     8  0.64
      P1  H 10785 10796       L1    23  0.48

> <Gold.Chemscore.Hbond.Weighted>
-8.4569

> <Gold.Chemscore.Metal.Weighted>
-0.0000

> <Gold.Chemscore.Lipo.Weighted>
-6.3986

> <Gold.Chemscore.Internal_Hbond.Weighted>
0.0000

> <Gold.Chemscore.DEClash.Weighted>
0.2968

> <Gold.Chemscore.DEInternal.Weighted>
3.8569

> <Gold.Chemscore.Rot.Weighted>
8.2215

> <Gold.Chemscore.Internal.Correction.Weighted>
   9.000000E+99

> <Gold.Protein.RotatedTorsions>
[ 6907 6896 6895 6894 ] final   70.03 input  -60.11 | X-H torsion
[ 7974 7965 7964 7962 ] final  -74.57 input  175.53 | X-H torsion
[ 8008 7997 7996 7995 ] final  -10.18 input   59.86 | X-H torsion
[ 10167 10162 10161 10158 ] final  -74.22 input  -65.29 | X-H torsion
[ 10718 10713 10712 10709 ] final  -88.41 input   66.30 | X-H torsion
[ 10763 10752 10751 10750 ] final   22.99 input  -60.55 | X-H torsion
[ 11005 11000 10999 10996 ] final  -91.82 input  -57.11 | X-H torsion

> <Gold.Protein.ActiveResidues>
 VAL166  LYS551  ARG553  GLY616  TRP617  ASP618  TYR619  PRO620  LYS621  CYS622 
 ASP623  PHE694  ASN695  SER759  ASP760  ASP761  ALA762  ILE779  LEU786  VAL792 
 PHE793  MET794  SER795  GLU796  ALA797  LYS798  CYS799  TRP800  GLU811  SER814 

> <Gold.Protein.RotatedAtoms>
  152.4724  134.4928  159.9700 H   0  0  0  0  0  0  0  0  0  0  0  0  # atno 6907 bound_to 6896
  151.4952  133.3510  159.2868 H   0  0  0  0  0  0  0  0  0  0  0  0  # atno 6908 bound_to 6896
  150.8741  134.8148  159.7238 H   0  0  0  0  0  0  0  0  0  0  0  0  # atno 6909 bound_to 6896
  145.6373  140.9321  143.1054 H   0  0  0  0  0  0  0  0  0  0  0  0  # atno 7974 bound_to 7965
  154.5578  140.2336  155.8382 H   0  0  0  0  0  0  0  0  0  0  0  0  # atno 8008 bound_to 7997
  156.2004  140.3054  155.9474 H   0  0  0  0  0  0  0  0  0  0  0  0  # atno 8009 bound_to 7997
  155.2946  140.0428  157.3016 H   0  0  0  0  0  0  0  0  0  0  0  0  # atno 8010 bound_to 7997
  140.5045  143.2355  151.7696 H   0  0  0  0  0  0  0  0  0  0  0  0  # atno 10167 bound_to 10162
  155.9984  130.4834  150.5014 H   0  0  0  0  0  0  0  0  0  0  0  0  # atno 10718 bound_to 10713
  153.0873  135.6636  153.9924 H   0  0  0  0  0  0  0  0  0  0  0  0  # atno 10763 bound_to 10752
  153.9530  135.2982  155.3439 H   0  0  0  0  0  0  0  0  0  0  0  0  # atno 10764 bound_to 10752
  154.7283  135.5134  153.8994 H   0  0  0  0  0  0  0  0  0  0  0  0  # atno 10765 bound_to 10752
  141.1536  133.7781  156.9933 H   0  0  0  0  0  0  0  0  0  0  0  0  # atno 11005 bound_to 11000
  144.7170  139.8160  143.7395 LP  0  0  0  0  0  0  0  0  0  0  0  0  # atno 17320 bound_to 7965
  146.1309  139.4344  143.0169 LP  0  0  0  0  0  0  0  0  0  0  0  0  # atno 17321 bound_to 7965
  139.4880  144.4476  151.9692 LP  0  0  0  0  0  0  0  0  0  0  0  0  # atno 17342 bound_to 10162
  140.3566  144.3024  150.5940 LP  0  0  0  0  0  0  0  0  0  0  0  0  # atno 17343 bound_to 10162
  157.2998  131.0643  151.2076 LP  0  0  0  0  0  0  0  0  0  0  0  0  # atno 17370 bound_to 10713
  157.3059  130.6866  149.6189 LP  0  0  0  0  0  0  0  0  0  0  0  0  # atno 17371 bound_to 10713
  140.0988  134.9548  157.1891 LP  0  0  0  0  0  0  0  0  0  0  0  0  # atno 17394 bound_to 11000
  140.3346  134.2771  155.7222 LP  0  0  0  0  0  0  0  0  0  0  0  0  # atno 17395 bound_to 11000

$$$$
