AV-unprocessed.smi:761|AV-procd|sdf|3632|dock10
  -GOLD-   22720 1 23D 1   1.00000     0.00000
 Structure written by MMmdl.
 34 35  0  0  0  0  0  0  0  0  4 V2000
  151.1578  139.6696  154.6968 O   0  0  0  0  0  0  0  0  0  0  0  0
  150.8931  140.4507  155.6179 C   0  0  0  0  0  0  0  0  0  0  0  0
  151.6797  140.7825  156.6769 N   0  5  0  0  0  0  0  0  0  0  0  0
  151.3434  140.5424  158.0796 C   0  0  0  0  0  0  0  0  0  0  0  0
  152.2586  141.3938  158.9817 C   0  0  0  0  0  0  0  0  0  0  0  0
  151.6762  142.7242  159.2964 N   0  3  0  0  0  0  0  0  0  0  0  0
  151.6498  143.7080  158.1698 C   0  0  0  0  0  0  0  0  0  0  0  0
  151.9623  145.0140  158.8430 C   0  0  0  0  0  0  0  0  0  0  0  0
  152.3069  144.8354  160.1129 C   0  0  0  0  0  0  0  0  0  0  0  0
  152.2813  143.3814  160.4902 C   0  0  0  0  0  0  0  0  0  0  0  0
  149.7189  141.1068  155.6333 N   0  0  0  0  0  0  0  0  0  0  0  0
  148.6162  140.9882  154.7448 C   0  0  0  0  0  0  0  0  0  0  0  0
  147.7489  142.0960  154.6224 C   0  0  0  0  0  0  0  0  0  0  0  0
  146.6285  142.0102  153.7714 C   0  0  0  0  0  0  0  0  0  0  0  0
  146.3863  140.8691  153.0911 N   0  3  0  0  0  0  0  0  0  0  0  0
  147.1771  139.7788  153.1887 C   0  0  0  0  0  0  0  0  0  0  0  0
  148.3120  139.8054  154.0244 C   0  0  0  0  0  0  0  0  0  0  0  0
  150.3052  140.7842  158.3108 H   0  0  0  0  0  0  0  0  0  0  0  0
  151.4660  139.4915  158.3428 H   0  0  0  0  0  0  0  0  0  0  0  0
  152.4076  140.8517  159.9173 H   0  0  0  0  0  0  0  0  0  0  0  0
  153.2475  141.5180  158.5374 H   0  0  0  0  0  0  0  0  0  0  0  0
  152.4091  143.4980  157.4152 H   0  0  0  0  0  0  0  0  0  0  0  0
  150.6692  143.7305  157.6938 H   0  0  0  0  0  0  0  0  0  0  0  0
  151.9237  145.9617  158.3261 H   0  0  0  0  0  0  0  0  0  0  0  0
  152.5975  145.6135  160.8034 H   0  0  0  0  0  0  0  0  0  0  0  0
  151.6756  143.2071  161.3798 H   0  0  0  0  0  0  0  0  0  0  0  0
  153.3008  143.0399  160.6768 H   0  0  0  0  0  0  0  0  0  0  0  0
  149.6289  141.8136  156.3486 H   0  0  0  0  0  0  0  0  0  0  0  0
  147.9426  143.0070  155.1703 H   0  0  0  0  0  0  0  0  0  0  0  0
  145.9226  142.8133  153.6181 H   0  0  0  0  0  0  0  0  0  0  0  0
  146.8771  138.9204  152.6058 H   0  0  0  0  0  0  0  0  0  0  0  0
  148.9209  138.9180  154.1096 H   0  0  0  0  0  0  0  0  0  0  0  0
  150.7113  142.5602  159.5455 H   0  0  0  0  0  0  0  0  0  0  0  0
  145.5686  140.8266  152.4825 H   0  0  0  0  0  0  0  0  0  0  0  0
  1  2  2  0  0  0  0
  2  3  1  0  0  0  0
  2 11  1  0  0  0  0
  3  4  1  0  0  0  0
  4  5  1  0  0  0  0
  4 18  1  0  0  0  0
  4 19  1  0  0  0  0
  5  6  1  0  0  0  0
  5 20  1  0  0  0  0
  5 21  1  0  0  0  0
  6 10  1  0  0  0  0
  6  7  1  0  0  0  0
  6 33  1  0  0  0  0
  7  8  1  0  0  0  0
  7 22  1  0  0  0  0
  7 23  1  0  0  0  0
  8  9  2  0  0  0  0
  8 24  1  0  0  0  0
  9 10  1  0  0  0  0
  9 25  1  0  0  0  0
 10 26  1  0  0  0  0
 10 27  1  0  0  0  0
 11 12  1  0  0  0  0
 11 28  1  0  0  0  0
 12 17  1  0  0  0  0
 12 13  2  0  0  0  0
 13 14  1  0  0  0  0
 13 29  1  0  0  0  0
 14 15  2  0  0  0  0
 14 30  1  0  0  0  0
 15 16  1  0  0  0  0
 15 34  1  0  0  0  0
 16 17  2  0  0  0  0
 16 31  1  0  0  0  0
 17 32  1  0  0  0  0
M  CHG  1   3  -1
M  CHG  1   6   1
M  CHG  1  15   1
M  END
> <s_m_source_file>
AV-unprocessed.smi

> <i_m_source_file_index>
761

> <i_lp_mmshare_version>
43012

> <i_f3d_flags>
0

> <s_epik_input>
W2NIXTFbY0hdbltjSF1bY0hdYzFbTkhdQyg9TylbTkhdW0NIMl1bQ0gyXU4yW0NIMl1bQ0hdPVtDSF1bQ0gyXTI=

> <s_epik_cmdline>
J2VwaWtfcHl0aG9uJywgJy1waCcsICc3LjAnLCAnLXRuJywgJzgnLCAnLW1hJywgJzIwMCcsICctbWV0YWxfYmluZGluZycsICctaW1hZScsICc8aW5maWxlLm1hZT4nLCAnLW9tYWUnLCAnPG91dGZpbGUubWFlPic=

> <r_epik_Ionization_Penalty>
8.30346

> <r_epik_Ionization_Penalty_Charging>
8.30346

> <r_epik_Ionization_Penalty_Neutral>
3.3887e-06

> <r_epik_State_Penalty>
7.87421

> <r_epik_Charging_Adjusted_Penalty>
16.1777

> <i_epik_Tot_Q>
1

> <i_epik_Tot_abs_Q>
3

> <r_epik_Metal_State_Penalty>
3.87237

> <b_epik_Metal_Only>
1

> <s_lp_Force_Field>
OPLS_2005

> <r_lp_Energy>
27.0573

> <b_lp_Chiralities_Consistent>
1

> <s_lp_Variant>
AV-unprocessed.smi:761-3

> <Gold.Version>
5.8.1

> <Gold.Id.Protein>
6NUR|6NUR_protein|mol2

> <Gold.PLP.Fitness>
43.8523

> <Gold.PLP.PLP>
-37.1792

> <Gold.PLP.part.hbond>
-2.0000

> <Gold.PLP.part.metal>
0.0000

> <Gold.PLP.part.buried>
-4.0878

> <Gold.PLP.part.nonpolar>
-31.4538

> <Gold.PLP.part.repulsive>
0.2630

> <Gold.PLP.ligand.clash>
0.0000

> <Gold.PLP.ligand.torsion>
1.1566

> <Gold.PLP.Chemscore.Hbond>
2.9840

> <Gold.PLP.Chemscore.CHOScore>
0.0000

> <Gold.PLP.Chemscore.Metal>
0.0000

> <Gold.Chemscore.Hbonds>
donor molecule, donor type, donor heavy atom, donor atom, acceptor molecule, acceptor atom, score
      L1  H    15    34       P1 10175  1.50
      P1  H  7989  7998       L1     1  0.90

> <Gold.PLP.Chemscore.Internal.Correction>
0.0344

> <Gold.Rescore>
     Score         DG    S(hbond)    S(metal)    S(lipo)     H(rot)  DE(clash)    DE(int)     intcor
     16.10     -18.42       1.89        0.00      89.59       1.51       0.03       2.29       ----

> <Gold.Chemscore.Fitness>
16.1008

> <Gold.Chemscore.DG>
-18.4193

> <Gold.Chemscore.ZeroCoef>
-5.4800

> <Gold.Chemscore.Hbond>
1.8945

> <Gold.Chemscore.Metal>
0.0000

> <Gold.Chemscore.Lipo>
89.5872

> <Gold.Chemscore.Internal_Hbond>
0.0000

> <Gold.Chemscore.DEClash>
0.0323

> <Gold.Chemscore.DEInternal>
2.2863

> <Gold.Chemscore.Rot>
1.5117

> <Gold.Chemscore.Internal.Correction>
   9.000000E+99

> <Gold.Chemscore.Hbonds>
donor molecule, donor type, donor heavy atom, donor atom, acceptor molecule, acceptor atom, score
      L1  H    15    34       P1 10175  0.13
      P1  H  7989  7998       L1     1  0.18

> <Gold.Chemscore.Hbond.Weighted>
-6.3277

> <Gold.Chemscore.Metal.Weighted>
-0.0000

> <Gold.Chemscore.Lipo.Weighted>
-10.4817

> <Gold.Chemscore.Internal_Hbond.Weighted>
0.0000

> <Gold.Chemscore.DEClash.Weighted>
0.0323

> <Gold.Chemscore.DEInternal.Weighted>
2.2863

> <Gold.Chemscore.Rot.Weighted>
3.8700

> <Gold.Chemscore.Internal.Correction.Weighted>
   9.000000E+99

> <Gold.Protein.RotatedTorsions>
[ 6907 6896 6895 6894 ] final   64.96 input  -60.11 | X-H torsion
[ 7974 7965 7964 7962 ] final  -72.04 input  175.53 | X-H torsion
[ 8008 7997 7996 7995 ] final -112.64 input   59.86 | X-H torsion
[ 10167 10162 10161 10158 ] final -136.91 input  -65.29 | X-H torsion
[ 10718 10713 10712 10709 ] final  -26.19 input   66.30 | X-H torsion
[ 10763 10752 10751 10750 ] final  -54.99 input  -60.55 | X-H torsion
[ 11005 11000 10999 10996 ] final   43.20 input  -57.11 | X-H torsion

> <Gold.Protein.ActiveResidues>
 VAL166  LYS551  ARG553  GLY616  TRP617  ASP618  TYR619  PRO620  LYS621  CYS622 
 ASP623  PHE694  ASN695  SER759  ASP760  ASP761  ALA762  ILE779  LEU786  VAL792 
 PHE793  MET794  SER795  GLU796  ALA797  LYS798  CYS799  TRP800  GLU811  SER814 

> <Gold.Protein.RotatedAtoms>
  152.4372  134.5664  159.9908 H   0  0  0  0  0  0  0  0  0  0  0  0  # atno 6907 bound_to 6896
  151.5771  133.3377  159.3009 H   0  0  0  0  0  0  0  0  0  0  0  0  # atno 6908 bound_to 6896
  150.8272  134.7543  159.6887 H   0  0  0  0  0  0  0  0  0  0  0  0  # atno 6909 bound_to 6896
  145.6703  140.9223  143.0887 H   0  0  0  0  0  0  0  0  0  0  0  0  # atno 7974 bound_to 7965
  155.0084  140.0394  157.2389 H   0  0  0  0  0  0  0  0  0  0  0  0  # atno 8008 bound_to 7997
  154.7482  140.2762  155.6292 H   0  0  0  0  0  0  0  0  0  0  0  0  # atno 8009 bound_to 7997
  156.2879  140.2652  156.2228 H   0  0  0  0  0  0  0  0  0  0  0  0  # atno 8010 bound_to 7997
  139.8631  143.7052  152.2648 H   0  0  0  0  0  0  0  0  0  0  0  0  # atno 10167 bound_to 10162
  156.4544  130.4490  149.6969 H   0  0  0  0  0  0  0  0  0  0  0  0  # atno 10718 bound_to 10713
  154.1836  135.6439  153.5041 H   0  0  0  0  0  0  0  0  0  0  0  0  # atno 10763 bound_to 10752
  153.0053  135.5412  154.6488 H   0  0  0  0  0  0  0  0  0  0  0  0  # atno 10764 bound_to 10752
  154.5859  135.2929  155.0658 H   0  0  0  0  0  0  0  0  0  0  0  0  # atno 10765 bound_to 10752
  140.1667  134.4273  155.8282 H   0  0  0  0  0  0  0  0  0  0  0  0  # atno 11005 bound_to 11000
  144.7059  139.8563  143.7430 LP  0  0  0  0  0  0  0  0  0  0  0  0  # atno 17320 bound_to 7965
  146.1051  139.4050  143.0322 LP  0  0  0  0  0  0  0  0  0  0  0  0  # atno 17321 bound_to 7965
  139.7355  144.7572  151.0734 LP  0  0  0  0  0  0  0  0  0  0  0  0  # atno 17342 bound_to 10162
  140.7772  143.5036  150.9740 LP  0  0  0  0  0  0  0  0  0  0  0  0  # atno 17343 bound_to 10162
  156.3782  130.7565  151.2555 LP  0  0  0  0  0  0  0  0  0  0  0  0  # atno 17370 bound_to 10713
  157.7501  131.0303  150.4132 LP  0  0  0  0  0  0  0  0  0  0  0  0  # atno 17371 bound_to 10713
  141.2214  133.6938  156.7691 LP  0  0  0  0  0  0  0  0  0  0  0  0  # atno 17394 bound_to 11000
  140.2425  134.8603  157.3587 LP  0  0  0  0  0  0  0  0  0  0  0  0  # atno 17395 bound_to 11000

$$$$
