AV-unprocessed.smi:1517|AV-procd|sdf|6122|dock6
  -GOLD-   22720 6253D 1   1.00000     0.00000
 Structure written by MMmdl.
 41 43  0  0  0  0  0  0  0  0  1 V2000
  148.2493  139.0686  153.4282 O   0  0  0  0  0  0  0  0  0  0  0  0
  148.9999  138.9286  154.6141 C   0  0  0  0  0  0  0  0  0  0  0  0
  149.9737  140.1067  154.7567 C   0  0  0  0  0  0  0  0  0  0  0  0
  150.6081  140.1416  156.0619 N   0  0  0  0  0  0  0  0  0  0  0  0
  151.0032  141.1979  156.8744 C   0  0  0  0  0  0  0  0  0  0  0  0
  150.8418  142.4796  156.5510 N   0  0  0  0  0  0  0  0  0  0  0  0
  151.3750  143.1292  157.6481 C   0  0  0  0  0  0  0  0  0  0  0  0
  151.5028  144.5091  157.9253 C   0  0  0  0  0  0  0  0  0  0  0  0
  152.0898  144.9437  159.1319 C   0  0  0  0  0  0  0  0  0  0  0  0
  152.5571  144.0072  160.0767 C   0  0  0  0  0  0  0  0  0  0  0  0
  152.4395  142.6275  159.8211 C   0  0  0  0  0  0  0  0  0  0  0  0
  151.8523  142.1985  158.6159 C   0  0  0  0  0  0  0  0  0  0  0  0
  151.5851  140.9459  158.0718 N   0  0  0  0  0  0  0  0  0  0  0  0
  151.8747  139.6596  158.6930 C   0  0  0  0  0  0  0  0  0  0  0  0
  153.3863  139.4449  158.9056 C   0  0  2  0  0  0  0  0  0  0  0  0
  153.9111  138.8376  157.7422 O   0  0  0  0  0  0  0  0  0  0  0  0
  153.6903  138.6442  160.1675 C   0  0  0  0  0  0  0  0  0  0  0  0
  153.2223  137.3178  160.3025 C   0  0  0  0  0  0  0  0  0  0  0  0
  153.5008  136.5792  161.4686 C   0  0  0  0  0  0  0  0  0  0  0  0
  154.2422  137.1639  162.5123 C   0  0  0  0  0  0  0  0  0  0  0  0
  154.5073  136.4551  163.6351 F   0  0  0  0  0  0  0  0  0  0  0  0
  154.7015  138.4886  162.3906 C   0  0  0  0  0  0  0  0  0  0  0  0
  154.4281  139.2277  161.2232 C   0  0  0  0  0  0  0  0  0  0  0  0
  154.8738  140.5034  161.1262 F   0  0  0  0  0  0  0  0  0  0  0  0
  148.7964  139.4790  152.7761 H   0  0  0  0  0  0  0  0  0  0  0  0
  148.2953  138.9342  155.4460 H   0  0  0  0  0  0  0  0  0  0  0  0
  149.5119  137.9655  154.6349 H   0  0  0  0  0  0  0  0  0  0  0  0
  150.7296  140.0948  153.9707 H   0  0  0  0  0  0  0  0  0  0  0  0
  149.4226  141.0408  154.6429 H   0  0  0  0  0  0  0  0  0  0  0  0
  150.8013  139.2260  156.4412 H   0  0  0  0  0  0  0  0  0  0  0  0
  151.1478  145.2346  157.2084 H   0  0  0  0  0  0  0  0  0  0  0  0
  152.1821  146.0008  159.3335 H   0  0  0  0  0  0  0  0  0  0  0  0
  153.0054  144.3487  160.9984 H   0  0  0  0  0  0  0  0  0  0  0  0
  152.7948  141.9074  160.5434 H   0  0  0  0  0  0  0  0  0  0  0  0
  151.3319  139.5668  159.6342 H   0  0  0  0  0  0  0  0  0  0  0  0
  151.4778  138.8824  158.0384 H   0  0  0  0  0  0  0  0  0  0  0  0
  153.8752  140.4168  158.9790 H   0  0  0  0  0  0  0  0  0  0  0  0
  153.9082  137.9005  157.8660 H   0  0  0  0  0  0  0  0  0  0  0  0
  152.6466  136.8599  159.5114 H   0  0  0  0  0  0  0  0  0  0  0  0
  153.1423  135.5649  161.5639 H   0  0  0  0  0  0  0  0  0  0  0  0
  155.2650  138.9397  163.1939 H   0  0  0  0  0  0  0  0  0  0  0  0
  1  2  1  0  0  0  0
  1 25  1  0  0  0  0
  2  3  1  0  0  0  0
  2 26  1  0  0  0  0
  2 27  1  0  0  0  0
  3  4  1  0  0  0  0
  3 28  1  0  0  0  0
  3 29  1  0  0  0  0
  4  5  1  0  0  0  0
  4 30  1  0  0  0  0
  5 13  1  0  0  0  0
  5  6  2  0  0  0  0
  6  7  1  0  0  0  0
  7 12  2  0  0  0  0
  7  8  1  0  0  0  0
  8  9  2  0  0  0  0
  8 31  1  0  0  0  0
  9 10  1  0  0  0  0
  9 32  1  0  0  0  0
 10 11  2  0  0  0  0
 10 33  1  0  0  0  0
 11 12  1  0  0  0  0
 11 34  1  0  0  0  0
 12 13  1  0  0  0  0
 13 14  1  0  0  0  0
 14 15  1  0  0  0  0
 14 35  1  0  0  0  0
 14 36  1  0  0  0  0
 15 16  1  0  0  0  0
 15 17  1  0  0  0  0
 15 37  1  0  0  0  0
 16 38  1  0  0  0  0
 17 23  1  0  0  0  0
 17 18  2  0  0  0  0
 18 19  1  0  0  0  0
 18 39  1  0  0  0  0
 19 20  2  0  0  0  0
 19 40  1  0  0  0  0
 20 21  1  0  0  0  0
 20 22  1  0  0  0  0
 22 23  2  0  0  0  0
 22 41  1  0  0  0  0
 23 24  1  0  0  0  0
M  END
> <s_m_source_file>
AV-unprocessed.smi

> <i_m_source_file_index>
1517

> <i_lp_mmshare_version>
43012

> <i_f3d_flags>
0

> <s_epik_input>
W09IXVtDSDJdW0NIMl1bTkhdYyhuMSluKGMoYzEyKVtjSF1bY0hdW2NIXVtjSF0yKVtDSDJdW0NASF0oW09IXSljM1tjSF1bY0hdYyhGKVtjSF1jM0Y=

> <s_epik_cmdline>
J2VwaWtfcHl0aG9uJywgJy1waCcsICc3LjAnLCAnLXRuJywgJzgnLCAnLW1hJywgJzIwMCcsICctbWV0YWxfYmluZGluZycsICctaW1hZScsICc8aW5maWxlLm1hZT4nLCAnLW9tYWUnLCAnPG91dGZpbGUubWFlPic=

> <r_epik_Ionization_Penalty>
1.30972

> <r_epik_Ionization_Penalty_Charging>
0

> <r_epik_Ionization_Penalty_Neutral>
1.30972

> <r_epik_State_Penalty>
1.38438

> <r_epik_Charging_Adjusted_Penalty>
1.38438

> <i_epik_Tot_Q>
0

> <i_epik_Tot_abs_Q>
0

> <r_epik_Metal_State_Penalty>
0.00551145

> <b_epik_Metal_Only>
0

> <s_lp_Force_Field>
OPLS_2005

> <r_lp_Energy>
9.55996

> <b_lp_Chiralities_Consistent>
1

> <s_lp_Variant>
AV-unprocessed.smi:1517-3

> <Gold.Version>
5.8.1

> <Gold.Id.Protein>
6NUR|6NUR_protein|mol2

> <Gold.PLP.Fitness>
57.2310

> <Gold.PLP.PLP>
-52.4187

> <Gold.PLP.part.hbond>
-2.9834

> <Gold.PLP.part.metal>
0.0000

> <Gold.PLP.part.buried>
-3.7180

> <Gold.PLP.part.nonpolar>
-45.7788

> <Gold.PLP.part.repulsive>
0.1867

> <Gold.PLP.ligand.clash>
0.0000

> <Gold.PLP.ligand.torsion>
0.6169

> <Gold.PLP.Chemscore.Hbond>
2.0000

> <Gold.PLP.Chemscore.CHOScore>
0.0000

> <Gold.PLP.Chemscore.Metal>
0.0000

> <Gold.Chemscore.Hbonds>
donor molecule, donor type, donor heavy atom, donor atom, acceptor molecule, acceptor atom, score
      L1  H     1    25       P1  7957  1.00
      P1  H  7997  8008       L1    16  1.00

> <Gold.PLP.Chemscore.Internal.Correction>
0.0460

> <Gold.Rescore>
     Score         DG    S(hbond)    S(metal)    S(lipo)     H(rot)  DE(clash)    DE(int)     intcor
     18.29     -18.99       1.91        0.00     131.51       3.22       0.20       0.50       ----

> <Gold.Chemscore.Fitness>
18.2930

> <Gold.Chemscore.DG>
-18.9908

> <Gold.Chemscore.ZeroCoef>
-5.4800

> <Gold.Chemscore.Hbond>
1.9059

> <Gold.Chemscore.Metal>
0.0000

> <Gold.Chemscore.Lipo>
131.5116

> <Gold.Chemscore.Internal_Hbond>
0.0000

> <Gold.Chemscore.DEClash>
0.2015

> <Gold.Chemscore.DEInternal>
0.4963

> <Gold.Chemscore.Rot>
3.2194

> <Gold.Chemscore.Internal.Correction>
   9.000000E+99

> <Gold.Chemscore.Hbonds>
donor molecule, donor type, donor heavy atom, donor atom, acceptor molecule, acceptor atom, score
      L1  H     1    25       P1  7957  1.00
      P1  H  7997  8008       L1    16  0.28

> <Gold.Chemscore.Hbond.Weighted>
-6.3656

> <Gold.Chemscore.Metal.Weighted>
-0.0000

> <Gold.Chemscore.Lipo.Weighted>
-15.3869

> <Gold.Chemscore.Internal_Hbond.Weighted>
0.0000

> <Gold.Chemscore.DEClash.Weighted>
0.2015

> <Gold.Chemscore.DEInternal.Weighted>
0.4963

> <Gold.Chemscore.Rot.Weighted>
8.2416

> <Gold.Chemscore.Internal.Correction.Weighted>
   9.000000E+99

> <Gold.Protein.RotatedTorsions>
[ 6907 6896 6895 6894 ] final -136.29 input  -60.11 | X-H torsion
[ 7974 7965 7964 7962 ] final  -25.76 input  175.53 | X-H torsion
[ 8008 7997 7996 7995 ] final -104.42 input   59.86 | X-H torsion
[ 10167 10162 10161 10158 ] final -126.65 input  -65.29 | X-H torsion
[ 10718 10713 10712 10709 ] final -125.00 input   66.30 | X-H torsion
[ 10763 10752 10751 10750 ] final  -66.09 input  -60.55 | X-H torsion
[ 11005 11000 10999 10996 ] final   15.24 input  -57.11 | X-H torsion

> <Gold.Protein.ActiveResidues>
 VAL166  LYS551  ARG553  GLY616  TRP617  ASP618  TYR619  PRO620  LYS621  CYS622 
 ASP623  PHE694  ASN695  SER759  ASP760  ASP761  ALA762  ILE779  LEU786  VAL792 
 PHE793  MET794  SER795  GLU796  ALA797  LYS798  CYS799  TRP800  GLU811  SER814 

> <Gold.Protein.RotatedAtoms>
  151.0083  133.5989  159.2685 H   0  0  0  0  0  0  0  0  0  0  0  0  # atno 6907 bound_to 6896
  151.3150  135.0803  159.9295 H   0  0  0  0  0  0  0  0  0  0  0  0  # atno 6908 bound_to 6896
  152.5293  133.9741  159.7830 H   0  0  0  0  0  0  0  0  0  0  0  0  # atno 6909 bound_to 6896
  146.1470  140.4930  142.8627 H   0  0  0  0  0  0  0  0  0  0  0  0  # atno 7974 bound_to 7965
  154.8850  140.0418  157.1805 H   0  0  0  0  0  0  0  0  0  0  0  0  # atno 8008 bound_to 7997
  154.8600  140.2942  155.5524 H   0  0  0  0  0  0  0  0  0  0  0  0  # atno 8009 bound_to 7997
  156.2998  140.2449  156.3572 H   0  0  0  0  0  0  0  0  0  0  0  0  # atno 8010 bound_to 7997
  139.9692  143.5864  152.2418 H   0  0  0  0  0  0  0  0  0  0  0  0  # atno 10167 bound_to 10162
  156.1637  130.6619  151.0085 H   0  0  0  0  0  0  0  0  0  0  0  0  # atno 10718 bound_to 10713
  154.3546  135.6129  153.5660 H   0  0  0  0  0  0  0  0  0  0  0  0  # atno 10763 bound_to 10752
  152.9796  135.5800  154.4703 H   0  0  0  0  0  0  0  0  0  0  0  0  # atno 10764 bound_to 10752
  154.4431  135.2850  155.1811 H   0  0  0  0  0  0  0  0  0  0  0  0  # atno 10765 bound_to 10752
  140.4605  134.1132  155.7716 H   0  0  0  0  0  0  0  0  0  0  0  0  # atno 11005 bound_to 11000
  144.7858  140.5933  143.6575 LP  0  0  0  0  0  0  0  0  0  0  0  0  # atno 17320 bound_to 7965
  145.4914  139.1488  143.3707 LP  0  0  0  0  0  0  0  0  0  0  0  0  # atno 17321 bound_to 7965
  139.6494  144.7660  151.2179 LP  0  0  0  0  0  0  0  0  0  0  0  0  # atno 17342 bound_to 10162
  140.7527  143.6186  150.8535 LP  0  0  0  0  0  0  0  0  0  0  0  0  # atno 17343 bound_to 10162
  157.6751  131.0852  150.7514 LP  0  0  0  0  0  0  0  0  0  0  0  0  # atno 17370 bound_to 10713
  156.7575  130.4788  149.5443 LP  0  0  0  0  0  0  0  0  0  0  0  0  # atno 17371 bound_to 10713
  141.1623  133.8769  157.1812 LP  0  0  0  0  0  0  0  0  0  0  0  0  # atno 17394 bound_to 11000
  139.9948  135.0051  157.0058 LP  0  0  0  0  0  0  0  0  0  0  0  0  # atno 17395 bound_to 11000

$$$$
