AV-unprocessed.smi:2750|AV-procd|sdf|10592|dock3
  -GOLD-   2272015 43D 1   1.00000     0.00000
 Structure written by MMmdl.
 24 25  0  0  0  0  0  0  0  0  3 V2000
  148.1705  136.8025  162.4779 O   0  0  0  0  0  0  0  0  0  0  0  0
  147.4899  136.5984  161.4486 C   0  0  0  0  0  0  0  0  0  0  0  0
  146.4225  137.1796  161.1538 O   0  5  0  0  0  0  0  0  0  0  0  0
  148.0096  135.5511  160.4636 C   0  0  0  0  0  0  0  0  0  0  0  0
  148.5341  136.1555  159.2528 N   0  0  0  0  0  0  0  0  0  0  0  0
  147.8777  136.9481  158.3341 C   0  0  0  0  0  0  0  0  0  0  0  0
  148.8439  137.2303  157.4113 C   0  0  0  0  0  0  0  0  0  0  0  0
  148.7471  138.0480  156.1584 C   0  0  0  0  0  0  0  0  0  0  0  0
  149.6257  139.3137  156.2069 C   0  0  1  0  0  0  0  0  0  0  0  0
  150.9817  138.9956  156.6017 N   0  0  0  0  0  0  0  0  0  0  0  0
  151.8590  139.3718  155.6738 C   0  0  0  0  0  0  0  0  0  0  0  0
  153.0676  139.2064  155.8225 O   0  0  0  0  0  0  0  0  0  0  0  0
  151.2174  139.9196  154.6236 N   0  5  0  0  0  0  0  0  0  0  0  0
  149.8827  139.9280  154.8315 C   0  0  0  0  0  0  0  0  0  0  0  0
  148.9695  140.3361  154.1159 O   0  0  0  0  0  0  0  0  0  0  0  0
  150.0302  136.6089  157.8001 N   0  0  0  0  0  0  0  0  0  0  0  0
  149.8316  135.9683  158.9093 N   0  0  0  0  0  0  0  0  0  0  0  0
  148.7881  134.9470  160.9325 H   0  0  0  0  0  0  0  0  0  0  0  0
  147.2010  134.8709  160.1931 H   0  0  0  0  0  0  0  0  0  0  0  0
  146.8373  137.2256  158.4161 H   0  0  0  0  0  0  0  0  0  0  0  0
  149.0158  137.4394  155.2934 H   0  0  0  0  0  0  0  0  0  0  0  0
  147.7078  138.3390  156.0011 H   0  0  0  0  0  0  0  0  0  0  0  0
  149.2054  140.0666  156.8753 H   0  0  0  0  0  0  0  0  0  0  0  0
  151.2181  138.5607  157.4813 H   0  0  0  0  0  0  0  0  0  0  0  0
  1  2  2  0  0  0  0
  2  3  1  0  0  0  0
  2  4  1  0  0  0  0
  4  5  1  0  0  0  0
  4 18  1  0  0  0  0
  4 19  1  0  0  0  0
  5 17  1  0  0  0  0
  5  6  1  0  0  0  0
  6  7  2  0  0  0  0
  6 20  1  0  0  0  0
  7  8  1  0  0  0  0
  7 16  1  0  0  0  0
  8  9  1  0  0  0  0
  8 21  1  0  0  0  0
  8 22  1  0  0  0  0
  9 14  1  0  0  0  0
  9 10  1  0  0  0  0
  9 23  1  0  0  0  0
 10 11  1  0  0  0  0
 10 24  1  0  0  0  0
 11 12  2  0  0  0  0
 11 13  1  0  0  0  0
 13 14  1  0  0  0  0
 14 15  2  0  0  0  0
 16 17  2  0  0  0  0
M  CHG  1   3  -1
M  CHG  1  13  -1
M  END
> <s_m_source_file>
AV-unprocessed.smi

> <i_m_source_file_index>
2750

> <i_lp_mmshare_version>
43012

> <i_f3d_flags>
0

> <s_epik_input>
Tz1DKFtPSF0pW0NIMl1uMVtjSF1jKG5uMSlbQ0gyXVtDQEBIXTJbTkhdQyg9TylbTkhdQzI9Tw==

> <s_epik_cmdline>
J2VwaWtfcHl0aG9uJywgJy1waCcsICc3LjAnLCAnLXRuJywgJzgnLCAnLW1hJywgJzIwMCcsICctbWV0YWxfYmluZGluZycsICctaW1hZScsICc8aW5maWxlLm1hZT4nLCAnLW9tYWUnLCAnPG91dGZpbGUubWFlPic=

> <r_lp_tautomer_probability>
1

> <r_epik_Ionization_Penalty>
2.03209

> <r_epik_Ionization_Penalty_Charging>
2.03208

> <r_epik_Ionization_Penalty_Neutral>
1.30912e-05

> <r_epik_State_Penalty>
2.16313

> <r_epik_Charging_Adjusted_Penalty>
4.19521

> <i_epik_Tot_Q>
-2

> <i_epik_Tot_abs_Q>
2

> <r_epik_Metal_State_Penalty>
0.529162

> <b_epik_Metal_Only>
0

> <s_lp_Force_Field>
OPLS_2005

> <r_lp_Energy>
6.41301

> <b_lp_Chiralities_Consistent>
1

> <s_lp_Variant>
AV-unprocessed.smi:2750-4

> <Gold.Version>
5.8.1

> <Gold.Id.Protein>
6NUR|6NUR_protein|mol2

> <Gold.PLP.Fitness>
40.8349

> <Gold.PLP.PLP>
-20.6172

> <Gold.PLP.part.hbond>
-5.0000

> <Gold.PLP.part.metal>
0.0000

> <Gold.PLP.part.buried>
-5.4071

> <Gold.PLP.part.nonpolar>
-11.3029

> <Gold.PLP.part.repulsive>
0.8229

> <Gold.PLP.ligand.clash>
0.0000

> <Gold.PLP.ligand.torsion>
0.2545

> <Gold.PLP.Chemscore.Hbond>
6.9000

> <Gold.PLP.Chemscore.CHOScore>
0.0000

> <Gold.PLP.Chemscore.Metal>
0.0000

> <Gold.Chemscore.Hbonds>
donor molecule, donor type, donor heavy atom, donor atom, acceptor molecule, acceptor atom, score
      P1  H  6896  6909       L1    17  0.99
      P1  H  6931  6943       L1     1  1.90
      P1  H  6934  6947       L1     3  1.80
      P1  H  7989  7998       L1    13  0.99
      P1  H  7997  8010       L1    12  1.00

> <Gold.PLP.Chemscore.Internal.Correction>
0.0266

> <Gold.Rescore>
     Score         DG    S(hbond)    S(metal)    S(lipo)     H(rot)  DE(clash)    DE(int)     intcor
     11.35     -12.81       3.89        0.00      12.70       2.80       0.03       1.44       ----

> <Gold.Chemscore.Fitness>
11.3453

> <Gold.Chemscore.DG>
-12.8096

> <Gold.Chemscore.ZeroCoef>
-5.4800

> <Gold.Chemscore.Hbond>
3.8936

> <Gold.Chemscore.Metal>
0.0000

> <Gold.Chemscore.Lipo>
12.7016

> <Gold.Chemscore.Internal_Hbond>
0.0000

> <Gold.Chemscore.DEClash>
0.0275

> <Gold.Chemscore.DEInternal>
1.4368

> <Gold.Chemscore.Rot>
2.7973

> <Gold.Chemscore.Internal.Correction>
   9.000000E+99

> <Gold.Chemscore.Hbonds>
donor molecule, donor type, donor heavy atom, donor atom, acceptor molecule, acceptor atom, score
      P1  H  6896  6909       L1    17  0.90
      P1  H  6931  6943       L1     1  0.21
      P1  H  6934  6947       L1     3  0.17
      P1  H  7989  7998       L1    13  0.79
      P1  H  7997  8010       L1    12  0.99

> <Gold.Chemscore.Hbond.Weighted>
-13.0046

> <Gold.Chemscore.Metal.Weighted>
-0.0000

> <Gold.Chemscore.Lipo.Weighted>
-1.4861

> <Gold.Chemscore.Internal_Hbond.Weighted>
0.0000

> <Gold.Chemscore.DEClash.Weighted>
0.0275

> <Gold.Chemscore.DEInternal.Weighted>
1.4368

> <Gold.Chemscore.Rot.Weighted>
7.1611

> <Gold.Chemscore.Internal.Correction.Weighted>
   9.000000E+99

> <Gold.Protein.RotatedTorsions>
[ 6907 6896 6895 6894 ] final   46.51 input  -60.11 | X-H torsion
[ 7974 7965 7964 7962 ] final  -96.41 input  175.53 | X-H torsion
[ 8008 7997 7996 7995 ] final   98.52 input   59.86 | X-H torsion
[ 10167 10162 10161 10158 ] final  -16.99 input  -65.29 | X-H torsion
[ 10718 10713 10712 10709 ] final   59.66 input   66.30 | X-H torsion
[ 10763 10752 10751 10750 ] final  -20.00 input  -60.55 | X-H torsion
[ 11005 11000 10999 10996 ] final  -90.45 input  -57.11 | X-H torsion

> <Gold.Protein.ActiveResidues>
 VAL166  LYS551  ARG553  GLY616  TRP617  ASP618  TYR619  PRO620  LYS621  CYS622 
 ASP623  PHE694  ASN695  SER759  ASP760  ASP761  ALA762  ILE779  LEU786  VAL792 
 PHE793  MET794  SER795  GLU796  ALA797  LYS798  CYS799  TRP800  GLU811  SER814 

> <Gold.Protein.RotatedAtoms>
  152.2573  134.8071  160.0436 H   0  0  0  0  0  0  0  0  0  0  0  0  # atno 6907 bound_to 6896
  151.8730  133.3474  159.3749 H   0  0  0  0  0  0  0  0  0  0  0  0  # atno 6908 bound_to 6896
  150.7104  134.5021  159.5610 H   0  0  0  0  0  0  0  0  0  0  0  0  # atno 6909 bound_to 6896
  145.3472  140.9470  143.2575 H   0  0  0  0  0  0  0  0  0  0  0  0  # atno 7974 bound_to 7965
  156.1013  140.3242  155.7945 H   0  0  0  0  0  0  0  0  0  0  0  0  # atno 8008 bound_to 7997
  155.4832  140.0555  157.2981 H   0  0  0  0  0  0  0  0  0  0  0  0  # atno 8009 bound_to 7997
  154.4698  140.2006  156.0038 H   0  0  0  0  0  0  0  0  0  0  0  0  # atno 8010 bound_to 7997
  140.7241  143.5060  150.9809 H   0  0  0  0  0  0  0  0  0  0  0  0  # atno 10167 bound_to 10162
  157.5693  130.8895  149.9239 H   0  0  0  0  0  0  0  0  0  0  0  0  # atno 10718 bound_to 10713
  153.6135  135.6995  153.5337 H   0  0  0  0  0  0  0  0  0  0  0  0  # atno 10763 bound_to 10752
  153.2997  135.4132  155.1241 H   0  0  0  0  0  0  0  0  0  0  0  0  # atno 10764 bound_to 10752
  154.8558  135.3645  154.5674 H   0  0  0  0  0  0  0  0  0  0  0  0  # atno 10765 bound_to 10752
  141.1565  133.7693  156.9739 H   0  0  0  0  0  0  0  0  0  0  0  0  # atno 11005 bound_to 11000
  144.8745  139.4990  143.6752 LP  0  0  0  0  0  0  0  0  0  0  0  0  # atno 17320 bound_to 7965
  146.2983  139.7346  142.9110 LP  0  0  0  0  0  0  0  0  0  0  0  0  # atno 17321 bound_to 7965
  139.8772  143.7118  152.3161 LP  0  0  0  0  0  0  0  0  0  0  0  0  # atno 17342 bound_to 10162
  139.7387  144.7565  151.0686 LP  0  0  0  0  0  0  0  0  0  0  0  0  # atno 17343 bound_to 10162
  156.0739  130.3681  150.0718 LP  0  0  0  0  0  0  0  0  0  0  0  0  # atno 17370 bound_to 10713
  156.8873  130.9576  151.3592 LP  0  0  0  0  0  0  0  0  0  0  0  0  # atno 17371 bound_to 10713
  140.1111  134.9476  157.2066 LP  0  0  0  0  0  0  0  0  0  0  0  0  # atno 17394 bound_to 11000
  140.3193  134.2935  155.7249 LP  0  0  0  0  0  0  0  0  0  0  0  0  # atno 17395 bound_to 11000

$$$$
