AV-unprocessed.smi:2709|AV-procd|sdf|10462|dock8
  -GOLD-   2272014503D 1   1.00000     0.00000
 Structure written by MMmdl.
 40 42  0  0  0  0  0  0  0  0  1 V2000
  144.4167  134.8539  155.5109 C   0  0  0  0  0  0  0  0  0  0  0  0
  145.0213  135.2768  154.3003 O   0  0  0  0  0  0  0  0  0  0  0  0
  144.1210  135.9314  153.4102 C   0  0  2  0  0  0  0  0  0  0  0  0
  143.2804  134.8414  152.7427 C   0  0  0  0  0  0  0  0  0  0  0  0
  144.1575  134.3365  151.6001 C   0  0  0  0  0  0  0  0  0  0  0  0
  144.8779  135.5847  151.0830 C   0  0  0  0  0  0  0  0  0  0  0  0
  144.8885  136.5977  152.2449 C   0  0  2  0  0  0  0  0  0  0  0  0
  146.2542  136.9771  152.6020 N   0  0  0  0  0  0  0  0  0  0  0  0
  146.5776  137.9192  153.4981 C   0  0  0  0  0  0  0  0  0  0  0  0
  145.7439  138.5789  154.1179 O   0  0  0  0  0  0  0  0  0  0  0  0
  147.9108  138.0412  153.6131 N   0  0  0  0  0  0  0  0  0  0  0  0
  148.6522  138.9320  154.4353 C   0  0  0  0  0  0  0  0  0  0  0  0
  149.9646  139.2786  154.0512 C   0  0  0  0  0  0  0  0  0  0  0  0
  150.7290  140.1159  154.7846 N   0  0  0  0  0  0  0  0  0  0  0  0
  150.1910  140.5932  155.9101 C   0  0  0  0  0  0  0  0  0  0  0  0
  151.0192  141.5652  156.6924 C   0  0  0  0  0  0  0  0  0  0  0  0
  151.5074  141.2271  158.0862 C   0  0  0  0  0  0  0  0  0  0  0  0
  150.4470  142.2768  157.9016 C   0  0  0  0  0  0  0  0  0  0  0  0
  148.9662  140.3370  156.3773 N   0  0  0  0  0  0  0  0  0  0  0  0
  148.1937  139.5016  155.6492 C   0  0  0  0  0  0  0  0  0  0  0  0
  145.1627  134.3778  156.1470 H   0  0  0  0  0  0  0  0  0  0  0  0
  143.6229  134.1305  155.3200 H   0  0  0  0  0  0  0  0  0  0  0  0
  143.9978  135.6993  156.0584 H   0  0  0  0  0  0  0  0  0  0  0  0
  143.4857  136.6528  153.9285 H   0  0  0  0  0  0  0  0  0  0  0  0
  142.9855  134.0493  153.4319 H   0  0  0  0  0  0  0  0  0  0  0  0
  142.3691  135.2805  152.3344 H   0  0  0  0  0  0  0  0  0  0  0  0
  144.8877  133.6248  151.9878 H   0  0  0  0  0  0  0  0  0  0  0  0
  143.5834  133.8315  150.8227 H   0  0  0  0  0  0  0  0  0  0  0  0
  145.8769  135.3392  150.7203 H   0  0  0  0  0  0  0  0  0  0  0  0
  144.3280  136.0056  150.2402 H   0  0  0  0  0  0  0  0  0  0  0  0
  144.3396  137.4832  151.9181 H   0  0  0  0  0  0  0  0  0  0  0  0
  147.0007  136.4768  152.1426 H   0  0  0  0  0  0  0  0  0  0  0  0
  148.4624  137.4609  152.9980 H   0  0  0  0  0  0  0  0  0  0  0  0
  150.4047  138.8876  153.1453 H   0  0  0  0  0  0  0  0  0  0  0  0
  151.6881  142.1260  156.0423 H   0  0  0  0  0  0  0  0  0  0  0  0
  151.1996  140.2762  158.5171 H   0  0  0  0  0  0  0  0  0  0  0  0
  152.5052  141.5622  158.3616 H   0  0  0  0  0  0  0  0  0  0  0  0
  150.7342  143.3153  158.0535 H   0  0  0  0  0  0  0  0  0  0  0  0
  149.4343  142.0237  158.2095 H   0  0  0  0  0  0  0  0  0  0  0  0
  147.2204  139.2943  156.0643 H   0  0  0  0  0  0  0  0  0  0  0  0
  1  2  1  0  0  0  0
  1 21  1  0  0  0  0
  1 22  1  0  0  0  0
  1 23  1  0  0  0  0
  2  3  1  0  0  0  0
  3  7  1  0  0  0  0
  3  4  1  0  0  0  0
  3 24  1  0  0  0  0
  4  5  1  0  0  0  0
  4 25  1  0  0  0  0
  4 26  1  0  0  0  0
  5  6  1  0  0  0  0
  5 27  1  0  0  0  0
  5 28  1  0  0  0  0
  6  7  1  0  0  0  0
  6 29  1  0  0  0  0
  6 30  1  0  0  0  0
  7  8  1  0  0  0  0
  7 31  1  0  0  0  0
  8  9  1  0  0  0  0
  8 32  1  0  0  0  0
  9 10  2  0  0  0  0
  9 11  1  0  0  0  0
 11 12  1  0  0  0  0
 11 33  1  0  0  0  0
 12 20  1  0  0  0  0
 12 13  2  0  0  0  0
 13 14  1  0  0  0  0
 13 34  1  0  0  0  0
 14 15  2  0  0  0  0
 15 16  1  0  0  0  0
 15 19  1  0  0  0  0
 16 18  1  0  0  0  0
 16 17  1  0  0  0  0
 16 35  1  0  0  0  0
 17 18  1  0  0  0  0
 17 36  1  0  0  0  0
 17 37  1  0  0  0  0
 18 38  1  0  0  0  0
 18 39  1  0  0  0  0
 19 20  2  0  0  0  0
 20 40  1  0  0  0  0
M  END
> <s_m_source_file>
AV-unprocessed.smi

> <i_m_source_file_index>
2709

> <i_lp_mmshare_version>
43012

> <i_f3d_flags>
0

> <s_epik_input>
W0NIM11PW0NAQEhdMVtDSDJdW0NIMl1bQ0gyXVtDQEhdMVtOSF1DKD1PKVtOSF1jMltjSF1uYyhuW2NIXTIpW0NIXTNbQ0gyXVtDSDJdMw==

> <s_epik_cmdline>
J2VwaWtfcHl0aG9uJywgJy1waCcsICc3LjAnLCAnLXRuJywgJzgnLCAnLW1hJywgJzIwMCcsICctbWV0YWxfYmluZGluZycsICctaW1hZScsICc8aW5maWxlLm1hZT4nLCAnLW9tYWUnLCAnPG91dGZpbGUubWFlPic=

> <r_lp_tautomer_probability>
1

> <r_epik_Ionization_Penalty>
2.49969e-05

> <r_epik_Ionization_Penalty_Charging>
0

> <r_epik_Ionization_Penalty_Neutral>
2.49969e-05

> <r_epik_State_Penalty>
-0

> <r_epik_Charging_Adjusted_Penalty>
0

> <i_epik_Tot_Q>
0

> <i_epik_Tot_abs_Q>
0

> <r_epik_Metal_State_Penalty>
-0

> <b_epik_Metal_Only>
0

> <s_lp_Force_Field>
OPLS_2005

> <r_lp_Energy>
20.8159

> <b_lp_Chiralities_Consistent>
1

> <s_lp_Variant>
AV-unprocessed.smi:2709-3

> <Gold.Version>
5.8.1

> <Gold.Id.Protein>
6NUR|6NUR_protein|mol2

> <Gold.PLP.Fitness>
37.0187

> <Gold.PLP.PLP>
-26.5809

> <Gold.PLP.part.hbond>
-3.0000

> <Gold.PLP.part.metal>
0.0000

> <Gold.PLP.part.buried>
-4.1593

> <Gold.PLP.part.nonpolar>
-20.4153

> <Gold.PLP.part.repulsive>
0.3250

> <Gold.PLP.ligand.clash>
0.0000

> <Gold.PLP.ligand.torsion>
0.3331

> <Gold.PLP.Chemscore.Hbond>
2.9920

> <Gold.PLP.Chemscore.CHOScore>
0.6651

> <Gold.PLP.Chemscore.Metal>
0.0000

> <Gold.Chemscore.Hbonds>
donor molecule, donor type, donor heavy atom, donor atom, acceptor molecule, acceptor atom, score
      L1  H     8    32       P1  7948  0.99
      L1  H    11    33       P1  7948  1.00
      P1  H  7989  7998       L1    14  0.95
      L1  C    13    34       P1  7957  0.67

> <Gold.PLP.Chemscore.Internal.Correction>
0.1328

> <Gold.Rescore>
     Score         DG    S(hbond)    S(metal)    S(lipo)     H(rot)  DE(clash)    DE(int)     intcor
     15.42     -17.17       2.45        0.00      60.75       1.41       1.31       0.44       ----

> <Gold.Chemscore.Fitness>
15.4181

> <Gold.Chemscore.DG>
-17.1705

> <Gold.Chemscore.ZeroCoef>
-5.4800

> <Gold.Chemscore.Hbond>
2.4539

> <Gold.Chemscore.Metal>
0.0000

> <Gold.Chemscore.Lipo>
60.7487

> <Gold.Chemscore.Internal_Hbond>
0.0000

> <Gold.Chemscore.DEClash>
1.3132

> <Gold.Chemscore.DEInternal>
0.4391

> <Gold.Chemscore.Rot>
1.4114

> <Gold.Chemscore.Internal.Correction>
   9.000000E+99

> <Gold.Chemscore.Hbonds>
donor molecule, donor type, donor heavy atom, donor atom, acceptor molecule, acceptor atom, score
      L1  H     8    32       P1  7948  0.92
      L1  H    11    33       P1  7948  1.00
      P1  H  7989  7998       L1    14  0.22

> <Gold.Chemscore.Hbond.Weighted>
-8.1961

> <Gold.Chemscore.Metal.Weighted>
-0.0000

> <Gold.Chemscore.Lipo.Weighted>
-7.1076

> <Gold.Chemscore.Internal_Hbond.Weighted>
0.0000

> <Gold.Chemscore.DEClash.Weighted>
1.3132

> <Gold.Chemscore.DEInternal.Weighted>
0.4391

> <Gold.Chemscore.Rot.Weighted>
3.6133

> <Gold.Chemscore.Internal.Correction.Weighted>
   9.000000E+99

> <Gold.Protein.RotatedTorsions>
[ 6907 6896 6895 6894 ] final   -9.33 input  -60.11 | X-H torsion
[ 7974 7965 7964 7962 ] final    0.54 input  175.53 | X-H torsion
[ 8008 7997 7996 7995 ] final   77.92 input   59.86 | X-H torsion
[ 10167 10162 10161 10158 ] final   90.61 input  -65.29 | X-H torsion
[ 10718 10713 10712 10709 ] final  -68.83 input   66.30 | X-H torsion
[ 10763 10752 10751 10750 ] final  136.66 input  -60.55 | X-H torsion
[ 11005 11000 10999 10996 ] final -133.84 input  -57.11 | X-H torsion

> <Gold.Protein.ActiveResidues>
 VAL166  LYS551  ARG553  GLY616  TRP617  ASP618  TYR619  PRO620  LYS621  CYS622 
 ASP623  PHE694  ASN695  SER759  ASP760  ASP761  ALA762  ILE779  LEU786  VAL792 
 PHE793  MET794  SER795  GLU796  ALA797  LYS798  CYS799  TRP800  GLU811  SER814 

> <Gold.Protein.RotatedAtoms>
  151.4195  135.0996  159.9609 H   0  0  0  0  0  0  0  0  0  0  0  0  # atno 6907 bound_to 6896
  152.4993  133.8720  159.7314 H   0  0  0  0  0  0  0  0  0  0  0  0  # atno 6908 bound_to 6896
  150.9233  133.6796  159.2855 H   0  0  0  0  0  0  0  0  0  0  0  0  # atno 6909 bound_to 6896
  146.2435  140.1122  142.8343 H   0  0  0  0  0  0  0  0  0  0  0  0  # atno 7974 bound_to 7965
  155.8484  140.3459  155.5677 H   0  0  0  0  0  0  0  0  0  0  0  0  # atno 8008 bound_to 7997
  155.8065  140.0892  157.1947 H   0  0  0  0  0  0  0  0  0  0  0  0  # atno 8009 bound_to 7997
  154.4007  140.1456  156.3323 H   0  0  0  0  0  0  0  0  0  0  0  0  # atno 8010 bound_to 7997
  139.8456  144.6619  150.9231 H   0  0  0  0  0  0  0  0  0  0  0  0  # atno 10167 bound_to 10162
  156.0485  130.4301  150.2058 H   0  0  0  0  0  0  0  0  0  0  0  0  # atno 10718 bound_to 10713
  153.8601  135.3068  155.3437 H   0  0  0  0  0  0  0  0  0  0  0  0  # atno 10763 bound_to 10752
  154.7852  135.4813  153.9934 H   0  0  0  0  0  0  0  0  0  0  0  0  # atno 10764 bound_to 10752
  153.1466  135.6835  153.9039 H   0  0  0  0  0  0  0  0  0  0  0  0  # atno 10765 bound_to 10752
  140.9044  134.1649  157.4437 H   0  0  0  0  0  0  0  0  0  0  0  0  # atno 11005 bound_to 11000
  145.0477  140.8994  143.5014 LP  0  0  0  0  0  0  0  0  0  0  0  0  # atno 17320 bound_to 7965
  145.1214  139.2691  143.5586 LP  0  0  0  0  0  0  0  0  0  0  0  0  # atno 17321 bound_to 7965
  140.7793  143.3873  151.1371 LP  0  0  0  0  0  0  0  0  0  0  0  0  # atno 17342 bound_to 10162
  139.7516  143.8771  152.3078 LP  0  0  0  0  0  0  0  0  0  0  0  0  # atno 17343 bound_to 10162
  157.0144  130.9961  151.3357 LP  0  0  0  0  0  0  0  0  0  0  0  0  # atno 17370 bound_to 10713
  157.5387  130.8106  149.8003 LP  0  0  0  0  0  0  0  0  0  0  0  0  # atno 17371 bound_to 10713
  139.8747  134.9911  156.5533 LP  0  0  0  0  0  0  0  0  0  0  0  0  # atno 17394 bound_to 11000
  140.8189  133.8369  155.8878 LP  0  0  0  0  0  0  0  0  0  0  0  0  # atno 17395 bound_to 11000

$$$$
