AV-unprocessed.smi:1033|AV-procd|sdf|4493|dock9
  -GOLD-   22720 2483D 1   1.00000     0.00000
 Structure written by MMmdl.
 56 58  0  0  0  0  0  0  0  0  2 V2000
  151.1204  143.7434  159.7499 C   0  0  0  0  0  0  0  0  0  0  0  0
  151.2377  142.6943  158.6582 C   0  0  0  0  0  0  0  0  0  0  0  0
  150.3544  142.7476  157.5562 C   0  0  0  0  0  0  0  0  0  0  0  0
  150.4307  141.7915  156.5200 C   0  0  0  0  0  0  0  0  0  0  0  0
  149.6792  141.6532  155.3656 N   0  0  0  0  0  0  0  0  0  0  0  0
  150.2315  140.5774  154.8123 C   0  0  0  0  0  0  0  0  0  0  0  0
  151.2492  139.9969  155.4771 N   0  0  0  0  0  0  0  0  0  0  0  0
  152.0003  138.8191  155.0826 C   0  0  0  0  0  0  0  0  0  0  0  0
  151.1059  137.7531  154.4222 C   0  0  1  0  0  0  0  0  0  0  0  0
  151.9165  136.8636  153.6779 O   0  0  0  0  0  0  0  0  0  0  0  0
  150.3100  136.9460  155.4664 C   0  0  0  0  0  0  0  0  0  0  0  0
  149.3734  135.9727  154.8484 N   0  3  0  0  0  0  0  0  0  0  0  0
  147.9886  136.0465  155.3870 C   0  0  0  0  0  0  0  0  0  0  0  0
  147.0758  135.0486  154.6465 C   0  0  0  0  0  0  0  0  0  0  0  0
  147.5531  133.6652  154.7134 N   0  0  0  0  0  0  0  0  0  0  0  0
  147.4353  133.0379  156.0351 C   0  0  0  0  0  0  0  0  0  0  0  0
  146.0079  132.6319  156.4537 C   0  0  1  0  0  0  0  0  0  0  0  0
  145.0314  133.8162  156.4924 C   0  0  0  0  0  0  0  0  0  0  0  0
  145.5262  131.6952  155.5138 O   0  0  0  0  0  0  0  0  0  0  0  0
  148.9162  133.6189  154.1843 C   0  0  0  0  0  0  0  0  0  0  0  0
  149.8840  134.5786  154.9074 C   0  0  0  0  0  0  0  0  0  0  0  0
  151.4223  140.7722  156.6180 C   0  0  0  0  0  0  0  0  0  0  0  0
  152.3075  140.7086  157.7085 C   0  0  0  0  0  0  0  0  0  0  0  0
  152.2180  141.6723  158.7347 C   0  0  0  0  0  0  0  0  0  0  0  0
  153.1790  141.5969  159.9079 C   0  0  0  0  0  0  0  0  0  0  0  0
  150.2998  144.4339  159.5521 H   0  0  0  0  0  0  0  0  0  0  0  0
  152.0392  144.3261  159.8189 H   0  0  0  0  0  0  0  0  0  0  0  0
  150.9346  143.2727  160.7154 H   0  0  0  0  0  0  0  0  0  0  0  0
  149.6085  143.5266  157.4969 H   0  0  0  0  0  0  0  0  0  0  0  0
  149.8720  140.1848  153.8722 H   0  0  0  0  0  0  0  0  0  0  0  0
  152.8023  139.1219  154.4077 H   0  0  0  0  0  0  0  0  0  0  0  0
  152.4792  138.4111  155.9736 H   0  0  0  0  0  0  0  0  0  0  0  0
  150.4274  138.2533  153.7323 H   0  0  0  0  0  0  0  0  0  0  0  0
  151.4898  136.6869  152.8526 H   0  0  0  0  0  0  0  0  0  0  0  0
  151.0179  136.4158  156.1059 H   0  0  0  0  0  0  0  0  0  0  0  0
  149.7501  137.6145  156.1220 H   0  0  0  0  0  0  0  0  0  0  0  0
  147.9915  135.8502  156.4599 H   0  0  0  0  0  0  0  0  0  0  0  0
  147.5845  137.0492  155.2560 H   0  0  0  0  0  0  0  0  0  0  0  0
  146.0569  135.1223  155.0241 H   0  0  0  0  0  0  0  0  0  0  0  0
  147.0136  135.3474  153.5991 H   0  0  0  0  0  0  0  0  0  0  0  0
  148.0552  132.1401  156.0519 H   0  0  0  0  0  0  0  0  0  0  0  0
  147.8529  133.6937  156.7989 H   0  0  0  0  0  0  0  0  0  0  0  0
  146.0173  132.1318  157.4217 H   0  0  0  0  0  0  0  0  0  0  0  0
  145.3344  134.5511  157.2388 H   0  0  0  0  0  0  0  0  0  0  0  0
  144.0241  133.4870  156.7494 H   0  0  0  0  0  0  0  0  0  0  0  0
  144.9814  134.3238  155.5286 H   0  0  0  0  0  0  0  0  0  0  0  0
  144.6576  131.9549  155.2464 H   0  0  0  0  0  0  0  0  0  0  0  0
  149.2991  132.5987  154.2339 H   0  0  0  0  0  0  0  0  0  0  0  0
  148.8940  133.8748  153.1240 H   0  0  0  0  0  0  0  0  0  0  0  0
  150.8616  134.5281  154.4266 H   0  0  0  0  0  0  0  0  0  0  0  0
  150.0294  134.2784  155.9459 H   0  0  0  0  0  0  0  0  0  0  0  0
  153.0497  139.9255  157.7541 H   0  0  0  0  0  0  0  0  0  0  0  0
  153.8692  140.7590  159.8046 H   0  0  0  0  0  0  0  0  0  0  0  0
  152.6318  141.4662  160.8417 H   0  0  0  0  0  0  0  0  0  0  0  0
  153.7698  142.5106  159.9771 H   0  0  0  0  0  0  0  0  0  0  0  0
  149.3212  136.2115  153.8681 H   0  0  0  0  0  0  0  0  0  0  0  0
  1  2  1  0  0  0  0
  1 26  1  0  0  0  0
  1 27  1  0  0  0  0
  1 28  1  0  0  0  0
  2 24  1  0  0  0  0
  2  3  2  0  0  0  0
  3  4  1  0  0  0  0
  3 29  1  0  0  0  0
  4 22  2  0  0  0  0
  4  5  1  0  0  0  0
  5  6  2  0  0  0  0
  6  7  1  0  0  0  0
  6 30  1  0  0  0  0
  7  8  1  0  0  0  0
  7 22  1  0  0  0  0
  8  9  1  0  0  0  0
  8 31  1  0  0  0  0
  8 32  1  0  0  0  0
  9 10  1  0  0  0  0
  9 11  1  0  0  0  0
  9 33  1  0  0  0  0
 10 34  1  0  0  0  0
 11 12  1  0  0  0  0
 11 35  1  0  0  0  0
 11 36  1  0  0  0  0
 12 21  1  0  0  0  0
 12 13  1  0  0  0  0
 12 56  1  0  0  0  0
 13 14  1  0  0  0  0
 13 37  1  0  0  0  0
 13 38  1  0  0  0  0
 14 15  1  0  0  0  0
 14 39  1  0  0  0  0
 14 40  1  0  0  0  0
 15 16  1  0  0  0  0
 15 20  1  0  0  0  0
 16 17  1  0  0  0  0
 16 41  1  0  0  0  0
 16 42  1  0  0  0  0
 17 18  1  0  0  0  0
 17 19  1  0  0  0  0
 17 43  1  0  0  0  0
 18 44  1  0  0  0  0
 18 45  1  0  0  0  0
 18 46  1  0  0  0  0
 19 47  1  0  0  0  0
 20 21  1  0  0  0  0
 20 48  1  0  0  0  0
 20 49  1  0  0  0  0
 21 50  1  0  0  0  0
 21 51  1  0  0  0  0
 22 23  1  0  0  0  0
 23 24  2  0  0  0  0
 23 52  1  0  0  0  0
 24 25  1  0  0  0  0
 25 53  1  0  0  0  0
 25 54  1  0  0  0  0
 25 55  1  0  0  0  0
M  CHG  1  12   1
M  END
> <s_m_source_file>
AV-unprocessed.smi

> <i_m_source_file_index>
1033

> <i_lp_mmshare_version>
43012

> <i_f3d_flags>
0

> <s_epik_input>
W0NIM11jKFtjSF0xKWMoW0NIM10pW2NIXWMoYzEyKW4oW2NIXW4yKVtDSDJdW0NASF0oW09IXSlbQ0gyXU4zW0NIMl1bQ0gyXU4oW0NIMl1bQ0gyXTMpW0NIMl1bQ0BIXShbQ0gzXSlbT0hd

> <s_epik_cmdline>
J2VwaWtfcHl0aG9uJywgJy1waCcsICc3LjAnLCAnLXRuJywgJzgnLCAnLW1hJywgJzIwMCcsICctbWV0YWxfYmluZGluZycsICctaW1hZScsICc8aW5maWxlLm1hZT4nLCAnLW9tYWUnLCAnPG91dGZpbGUubWFlPic=

> <r_epik_Ionization_Penalty>
0.131893

> <r_epik_Ionization_Penalty_Charging>
0.00208556

> <r_epik_Ionization_Penalty_Neutral>
0.129808

> <r_epik_State_Penalty>
0.452125

> <r_epik_Charging_Adjusted_Penalty>
0.454211

> <i_epik_Tot_Q>
1

> <i_epik_Tot_abs_Q>
1

> <r_epik_Metal_State_Penalty>
0.376389

> <b_epik_Metal_Only>
0

> <s_lp_Force_Field>
OPLS_2005

> <r_lp_Energy>
31.8043

> <b_lp_Chiralities_Consistent>
1

> <s_lp_Variant>
AV-unprocessed.smi:1033-4

> <Gold.Version>
5.8.1

> <Gold.Id.Protein>
6NUR|6NUR_protein|mol2

> <Gold.PLP.Fitness>
53.6197

> <Gold.PLP.PLP>
-38.9900

> <Gold.PLP.part.hbond>
-4.4223

> <Gold.PLP.part.metal>
0.0000

> <Gold.PLP.part.buried>
-0.6250

> <Gold.PLP.part.nonpolar>
-34.7806

> <Gold.PLP.part.repulsive>
0.2074

> <Gold.PLP.ligand.clash>
0.0000

> <Gold.PLP.ligand.torsion>
1.2855

> <Gold.PLP.Chemscore.Hbond>
4.9913

> <Gold.PLP.Chemscore.CHOScore>
0.7090

> <Gold.PLP.Chemscore.Metal>
0.0000

> <Gold.Chemscore.Hbonds>
donor molecule, donor type, donor heavy atom, donor atom, acceptor molecule, acceptor atom, score
      L1  H    10    34       P1  7949  1.00
      L1  H    12    56       P1  7948  2.00
      L1  H    19    47       P1 10957  1.00
      P1  H 10752 10765       L1    10  1.00
      L1  C     6    30       P1  7957  0.51

> <Gold.PLP.Chemscore.Internal.Correction>
0.1000

> <Gold.Rescore>
     Score         DG    S(hbond)    S(metal)    S(lipo)     H(rot)  DE(clash)    DE(int)     intcor
     18.18     -20.60       3.39        0.00      99.48       3.07       0.17       2.25       ----

> <Gold.Chemscore.Fitness>
18.1840

> <Gold.Chemscore.DG>
-20.6005

> <Gold.Chemscore.ZeroCoef>
-5.4800

> <Gold.Chemscore.Hbond>
3.3914

> <Gold.Chemscore.Metal>
0.0000

> <Gold.Chemscore.Lipo>
99.4838

> <Gold.Chemscore.Internal_Hbond>
0.0000

> <Gold.Chemscore.DEClash>
0.1676

> <Gold.Chemscore.DEInternal>
2.2488

> <Gold.Chemscore.Rot>
3.0650

> <Gold.Chemscore.Internal.Correction>
   9.000000E+99

> <Gold.Chemscore.Hbonds>
donor molecule, donor type, donor heavy atom, donor atom, acceptor molecule, acceptor atom, score
      L1  H    10    34       P1  7949  0.90
      L1  H    12    56       P1  7948  0.81
      L1  H    19    47       P1 10957  0.47
      P1  H 10752 10765       L1    10  0.91

> <Gold.Chemscore.Hbond.Weighted>
-11.3274

> <Gold.Chemscore.Metal.Weighted>
-0.0000

> <Gold.Chemscore.Lipo.Weighted>
-11.6396

> <Gold.Chemscore.Internal_Hbond.Weighted>
0.0000

> <Gold.Chemscore.DEClash.Weighted>
0.1676

> <Gold.Chemscore.DEInternal.Weighted>
2.2488

> <Gold.Chemscore.Rot.Weighted>
7.8465

> <Gold.Chemscore.Internal.Correction.Weighted>
   9.000000E+99

> <Gold.Protein.RotatedTorsions>
[ 6907 6896 6895 6894 ] final   84.61 input  -60.11 | X-H torsion
[ 7974 7965 7964 7962 ] final -137.74 input  175.53 | X-H torsion
[ 8008 7997 7996 7995 ] final  174.55 input   59.86 | X-H torsion
[ 10167 10162 10161 10158 ] final  127.74 input  -65.29 | X-H torsion
[ 10718 10713 10712 10709 ] final  -49.22 input   66.30 | X-H torsion
[ 10763 10752 10751 10750 ] final  159.76 input  -60.55 | X-H torsion
[ 11005 11000 10999 10996 ] final  -50.13 input  -57.11 | X-H torsion

> <Gold.Protein.ActiveResidues>
 VAL166  LYS551  ARG553  GLY616  TRP617  ASP618  TYR619  PRO620  LYS621  CYS622 
 ASP623  PHE694  ASN695  SER759  ASP760  ASP761  ALA762  ILE779  LEU786  VAL792 
 PHE793  MET794  SER795  GLU796  ALA797  LYS798  CYS799  TRP800  GLU811  SER814 

> <Gold.Protein.RotatedAtoms>
  152.5356  134.2714  159.8972 H   0  0  0  0  0  0  0  0  0  0  0  0  # atno 6907 bound_to 6896
  151.2671  133.4267  159.2627 H   0  0  0  0  0  0  0  0  0  0  0  0  # atno 6908 bound_to 6896
  151.0401  134.9615  159.8213 H   0  0  0  0  0  0  0  0  0  0  0  0  # atno 6909 bound_to 6896
  144.8817  140.6516  143.5202 H   0  0  0  0  0  0  0  0  0  0  0  0  # atno 7974 bound_to 7965
  156.0962  140.1431  156.9527 H   0  0  0  0  0  0  0  0  0  0  0  0  # atno 8008 bound_to 7997
  154.4673  140.0922  156.7099 H   0  0  0  0  0  0  0  0  0  0  0  0  # atno 8009 bound_to 7997
  155.4837  140.3446  155.4346 H   0  0  0  0  0  0  0  0  0  0  0  0  # atno 8010 bound_to 7997
  139.5563  144.6850  151.4174 H   0  0  0  0  0  0  0  0  0  0  0  0  # atno 10167 bound_to 10162
  156.1914  130.4153  149.9367 H   0  0  0  0  0  0  0  0  0  0  0  0  # atno 10718 bound_to 10713
  154.2369  135.2776  155.2869 H   0  0  0  0  0  0  0  0  0  0  0  0  # atno 10763 bound_to 10752
  154.5578  135.5656  153.6983 H   0  0  0  0  0  0  0  0  0  0  0  0  # atno 10764 bound_to 10752
  153.0008  135.6290  154.2512 H   0  0  0  0  0  0  0  0  0  0  0  0  # atno 10765 bound_to 10752
  141.0798  133.6656  156.3686 H   0  0  0  0  0  0  0  0  0  0  0  0  # atno 11005 bound_to 11000
  145.3943  139.1610  143.4212 LP  0  0  0  0  0  0  0  0  0  0  0  0  # atno 17320 bound_to 7965
  146.2998  140.4034  142.8708 LP  0  0  0  0  0  0  0  0  0  0  0  0  # atno 17321 bound_to 7965
  140.6836  143.8026  150.7155 LP  0  0  0  0  0  0  0  0  0  0  0  0  # atno 17342 bound_to 10162
  140.1487  143.4377  152.2146 LP  0  0  0  0  0  0  0  0  0  0  0  0  # atno 17343 bound_to 10162
  156.7106  130.8968  151.3609 LP  0  0  0  0  0  0  0  0  0  0  0  0  # atno 17370 bound_to 10713
  157.6931  130.9254  150.0568 LP  0  0  0  0  0  0  0  0  0  0  0  0  # atno 17371 bound_to 10713
  140.5492  134.6044  157.5403 LP  0  0  0  0  0  0  0  0  0  0  0  0  # atno 17394 bound_to 11000
  139.9612  134.7450  156.0233 LP  0  0  0  0  0  0  0  0  0  0  0  0  # atno 17395 bound_to 11000

$$$$
