AV-unprocessed.smi:922|AV-procd|sdf|4174|dock5
  -GOLD-   22720 2 83D 1   1.00000     0.00000
 Structure written by MMmdl.
 32 33  0  0  0  0  0  0  0  0  2 V2000
  153.6084  141.6373  161.3417 C   0  0  0  0  0  0  0  0  0  0  0  0
  153.0233  142.1984  160.0420 C   0  0  1  0  0  0  0  0  0  0  0  0
  151.9126  141.2944  159.4755 C   0  0  0  0  0  0  0  0  0  0  0  0
  151.3004  141.9141  158.3079 N   0  0  0  0  0  0  0  0  0  0  0  0
  151.1425  141.3038  157.0626 C   0  0  0  0  0  0  0  0  0  0  0  0
  150.1691  141.8679  156.0948 C   0  0  0  0  0  0  0  0  0  0  0  0
  149.9705  141.3646  154.9419 N   0  0  0  0  0  0  0  0  0  0  0  0
  150.6933  140.1907  154.5102 N   0  5  0  0  0  0  0  0  0  0  0  0
  151.6175  139.6125  155.3349 C   0  0  0  0  0  0  0  0  0  0  0  0
  152.2589  138.6188  154.9971 O   0  0  0  0  0  0  0  0  0  0  0  0
  151.8413  140.2042  156.6609 C   0  0  0  0  0  0  0  0  0  0  0  0
  153.0641  139.4781  157.6532 Cl  0  0  0  0  0  0  0  0  0  0  0  0
  150.7556  143.2253  158.6393 C   0  0  0  0  0  0  0  0  0  0  0  0
  151.8493  144.1508  159.2194 C   0  0  0  0  0  0  0  0  0  0  0  0
  152.8813  144.5686  158.1495 C   0  0  0  0  0  0  0  0  0  0  0  0
  151.1998  145.4097  159.8143 C   0  0  0  0  0  0  0  0  0  0  0  0
  152.4854  143.4919  160.3212 O   0  0  0  0  0  0  0  0  0  0  0  0
  154.0489  140.6532  161.1799 H   0  0  0  0  0  0  0  0  0  0  0  0
  152.8415  141.5395  162.1105 H   0  0  0  0  0  0  0  0  0  0  0  0
  154.3894  142.2911  161.7308 H   0  0  0  0  0  0  0  0  0  0  0  0
  153.8361  142.2902  159.3228 H   0  0  0  0  0  0  0  0  0  0  0  0
  152.3034  140.3071  159.2298 H   0  0  0  0  0  0  0  0  0  0  0  0
  151.1394  141.1374  160.2286 H   0  0  0  0  0  0  0  0  0  0  0  0
  149.6197  142.7509  156.4313 H   0  0  0  0  0  0  0  0  0  0  0  0
  150.3107  143.6912  157.7592 H   0  0  0  0  0  0  0  0  0  0  0  0
  149.9500  143.0892  159.3622 H   0  0  0  0  0  0  0  0  0  0  0  0
  152.4111  145.1654  157.3675 H   0  0  0  0  0  0  0  0  0  0  0  0
  153.3425  143.7131  157.6572 H   0  0  0  0  0  0  0  0  0  0  0  0
  153.6798  145.1680  158.5869 H   0  0  0  0  0  0  0  0  0  0  0  0
  150.6678  145.9795  159.0516 H   0  0  0  0  0  0  0  0  0  0  0  0
  151.9473  146.0673  160.2590 H   0  0  0  0  0  0  0  0  0  0  0  0
  150.4834  145.1528  160.5952 H   0  0  0  0  0  0  0  0  0  0  0  0
  1  2  1  0  0  0  0
  1 18  1  0  0  0  0
  1 19  1  0  0  0  0
  1 20  1  0  0  0  0
  2 17  1  0  0  0  0
  2  3  1  0  0  0  0
  2 21  1  0  0  0  0
  3  4  1  0  0  0  0
  3 22  1  0  0  0  0
  3 23  1  0  0  0  0
  4  5  1  0  0  0  0
  4 13  1  0  0  0  0
  5 11  2  0  0  0  0
  5  6  1  0  0  0  0
  6  7  2  0  0  0  0
  6 24  1  0  0  0  0
  7  8  1  0  0  0  0
  8  9  1  0  0  0  0
  9 10  2  0  0  0  0
  9 11  1  0  0  0  0
 11 12  1  0  0  0  0
 13 14  1  0  0  0  0
 13 25  1  0  0  0  0
 13 26  1  0  0  0  0
 14 15  1  0  0  0  0
 14 16  1  0  0  0  0
 14 17  1  0  0  0  0
 15 27  1  0  0  0  0
 15 28  1  0  0  0  0
 15 29  1  0  0  0  0
 16 30  1  0  0  0  0
 16 31  1  0  0  0  0
 16 32  1  0  0  0  0
M  CHG  1   8  -1
M  END
> <s_m_source_file>
AV-unprocessed.smi

> <i_m_source_file_index>
922

> <i_lp_mmshare_version>
43012

> <i_f3d_flags>
0

> <s_epik_input>
W0NIM11bQ0BASF0oTzEpW0NIMl1OKFtDSDJdQzEoW0NIM10pW0NIM10pYzJbY0hdbltuSF1jKD1PKWMyQ2w=

> <s_epik_cmdline>
J2VwaWtfcHl0aG9uJywgJy1waCcsICc3LjAnLCAnLXRuJywgJzgnLCAnLW1hJywgJzIwMCcsICctbWV0YWxfYmluZGluZycsICctaW1hZScsICc8aW5maWxlLm1hZT4nLCAnLW9tYWUnLCAnPG91dGZpbGUubWFlPic=

> <r_lp_tautomer_probability>
1

> <r_epik_Ionization_Penalty>
2.48086

> <r_epik_Ionization_Penalty_Charging>
0.00187014

> <r_epik_Ionization_Penalty_Neutral>
2.47899

> <r_epik_State_Penalty>
0.0455822

> <r_epik_Charging_Adjusted_Penalty>
0.0474524

> <i_epik_Tot_Q>
-1

> <i_epik_Tot_abs_Q>
1

> <r_epik_Metal_State_Penalty>
0.000768086

> <b_epik_Metal_Only>
0

> <s_lp_Force_Field>
OPLS_2005

> <r_lp_Energy>
41.3096

> <b_lp_Chiralities_Consistent>
1

> <s_lp_Variant>
AV-unprocessed.smi:922-2

> <Gold.Version>
5.8.1

> <Gold.Id.Protein>
6NUR|6NUR_protein|mol2

> <Gold.PLP.Fitness>
38.7916

> <Gold.PLP.PLP>
-38.1913

> <Gold.PLP.part.hbond>
-2.0000

> <Gold.PLP.part.metal>
0.0000

> <Gold.PLP.part.buried>
-1.5859

> <Gold.PLP.part.nonpolar>
-34.5943

> <Gold.PLP.part.repulsive>
0.2765

> <Gold.PLP.ligand.clash>
5.8570

> <Gold.PLP.ligand.torsion>
0.1066

> <Gold.PLP.Chemscore.Hbond>
0.9000

> <Gold.PLP.Chemscore.CHOScore>
1.0000

> <Gold.PLP.Chemscore.Metal>
0.0000

> <Gold.Chemscore.Hbonds>
donor molecule, donor type, donor heavy atom, donor atom, acceptor molecule, acceptor atom, score
      P1  H  7989  7998       L1     8  0.90
      L1  C     6    24       P1  8028  1.00

> <Gold.PLP.Chemscore.Internal.Correction>
0.9704

> <Gold.Rescore>
     Score         DG    S(hbond)    S(metal)    S(lipo)     H(rot)  DE(clash)    DE(int)     intcor
     15.54     -17.03       0.00        0.00      98.69       0.00       0.02       1.47       ----

> <Gold.Chemscore.Fitness>
15.5398

> <Gold.Chemscore.DG>
-17.0273

> <Gold.Chemscore.ZeroCoef>
-5.4800

> <Gold.Chemscore.Hbond>
0.0000

> <Gold.Chemscore.Metal>
0.0000

> <Gold.Chemscore.Lipo>
98.6945

> <Gold.Chemscore.Internal_Hbond>
0.0000

> <Gold.Chemscore.DEClash>
0.0164

> <Gold.Chemscore.DEInternal>
1.4711

> <Gold.Chemscore.Rot>
0.0000

> <Gold.Chemscore.Internal.Correction>
   9.000000E+99

> <Gold.Chemscore.Hbonds>
donor molecule, donor type, donor heavy atom, donor atom, acceptor molecule, acceptor atom, score
      P1  H  7989  7998       L1     8  0.04

> <Gold.Chemscore.Hbond.Weighted>
-0.0000

> <Gold.Chemscore.Metal.Weighted>
-0.0000

> <Gold.Chemscore.Lipo.Weighted>
-11.5473

> <Gold.Chemscore.Internal_Hbond.Weighted>
0.0000

> <Gold.Chemscore.DEClash.Weighted>
0.0164

> <Gold.Chemscore.DEInternal.Weighted>
1.4711

> <Gold.Chemscore.Rot.Weighted>
0.0000

> <Gold.Chemscore.Internal.Correction.Weighted>
   9.000000E+99

> <Gold.Protein.RotatedTorsions>
[ 6907 6896 6895 6894 ] final  166.80 input  -60.11 | X-H torsion
[ 7974 7965 7964 7962 ] final  120.41 input  175.53 | X-H torsion
[ 8008 7997 7996 7995 ] final -177.06 input   59.86 | X-H torsion
[ 10167 10162 10161 10158 ] final -151.28 input  -65.29 | X-H torsion
[ 10718 10713 10712 10709 ] final   57.46 input   66.30 | X-H torsion
[ 10763 10752 10751 10750 ] final   73.56 input  -60.55 | X-H torsion
[ 11005 11000 10999 10996 ] final  178.89 input  -57.11 | X-H torsion

> <Gold.Protein.ActiveResidues>
 VAL166  LYS551  ARG553  GLY616  TRP617  ASP618  TYR619  PRO620  LYS621  CYS622 
 ASP623  PHE694  ASN695  SER759  ASP760  ASP761  ALA762  ILE779  LEU786  VAL792 
 PHE793  MET794  SER795  GLU796  ALA797  LYS798  CYS799  TRP800  GLU811  SER814 

> <Gold.Protein.RotatedAtoms>
  151.8732  133.3480  159.3741 H   0  0  0  0  0  0  0  0  0  0  0  0  # atno 6907 bound_to 6896
  150.7147  134.5092  159.5608 H   0  0  0  0  0  0  0  0  0  0  0  0  # atno 6908 bound_to 6896
  152.2629  134.8015  160.0478 H   0  0  0  0  0  0  0  0  0  0  0  0  # atno 6909 bound_to 6896
  145.1315  139.3324  143.4662 H   0  0  0  0  0  0  0  0  0  0  0  0  # atno 7974 bound_to 7965
  156.0024  140.1223  157.0534 H   0  0  0  0  0  0  0  0  0  0  0  0  # atno 8008 bound_to 7997
  154.4247  140.1104  156.5784 H   0  0  0  0  0  0  0  0  0  0  0  0  # atno 8009 bound_to 7997
  155.6194  140.3472  155.4649 H   0  0  0  0  0  0  0  0  0  0  0  0  # atno 8010 bound_to 7997
  139.7281  143.8851  152.2526 H   0  0  0  0  0  0  0  0  0  0  0  0  # atno 10167 bound_to 10162
  157.5516  130.8770  149.8972 H   0  0  0  0  0  0  0  0  0  0  0  0  # atno 10718 bound_to 10713
  153.0530  135.5058  154.7912 H   0  0  0  0  0  0  0  0  0  0  0  0  # atno 10763 bound_to 10752
  154.6760  135.2960  154.9680 H   0  0  0  0  0  0  0  0  0  0  0  0  # atno 10764 bound_to 10752
  154.0482  135.6707  153.4850 H   0  0  0  0  0  0  0  0  0  0  0  0  # atno 10765 bound_to 10752
  140.4001  134.6785  157.4557 H   0  0  0  0  0  0  0  0  0  0  0  0  # atno 11005 bound_to 11000
  146.3513  140.1316  142.8597 LP  0  0  0  0  0  0  0  0  0  0  0  0  # atno 17320 bound_to 7965
  145.0630  140.9101  143.4927 LP  0  0  0  0  0  0  0  0  0  0  0  0  # atno 17321 bound_to 7965
  139.8766  144.7040  150.8926 LP  0  0  0  0  0  0  0  0  0  0  0  0  # atno 17342 bound_to 10162
  140.7766  143.3695  151.1676 LP  0  0  0  0  0  0  0  0  0  0  0  0  # atno 17343 bound_to 10162
  156.0582  130.3704  150.1043 LP  0  0  0  0  0  0  0  0  0  0  0  0  # atno 17370 bound_to 10713
  156.9215  130.9684  151.3548 LP  0  0  0  0  0  0  0  0  0  0  0  0  # atno 17371 bound_to 10713
  140.0343  134.6360  155.9065 LP  0  0  0  0  0  0  0  0  0  0  0  0  # atno 17394 bound_to 11000
  141.1860  133.6556  156.5221 LP  0  0  0  0  0  0  0  0  0  0  0  0  # atno 17395 bound_to 11000

$$$$
