AV-unprocessed.smi:1242|AV-procd|sdf|5217|dock5
  -GOLD-   22720 4313D 1   1.00000     0.00000
 Structure written by MMmdl.
 39 40  0  0  0  0  0  0  0  0  1 V2000
  150.5974  141.1193  157.8414 O   0  0  0  0  0  0  0  0  0  0  0  0
  150.5979  142.1443  157.1583 C   0  0  0  0  0  0  0  0  0  0  0  0
  151.3957  143.3792  157.5983 C   0  0  0  0  0  0  0  0  0  0  0  0
  151.9102  143.2715  158.9735 N   0  0  0  0  0  0  0  0  0  0  0  0
  152.7559  142.1821  159.2611 C   0  0  0  0  0  0  0  0  0  0  0  0
  153.3055  141.9811  160.4743 C   0  0  0  0  0  0  0  0  0  0  0  0
  154.1750  140.7688  160.7688 C   0  0  0  0  0  0  0  0  0  0  0  0
  154.4797  140.7005  162.0650 F   0  0  0  0  0  0  0  0  0  0  0  0
  153.5588  139.6376  160.4237 F   0  0  0  0  0  0  0  0  0  0  0  0
  155.3119  140.8488  160.0790 F   0  0  0  0  0  0  0  0  0  0  0  0
  152.9551  142.9359  161.5072 C   0  0  0  0  0  0  0  0  0  0  0  0
  152.1435  143.9802  161.2504 C   0  0  0  0  0  0  0  0  0  0  0  0
  151.5741  144.1996  159.9191 C   0  0  0  0  0  0  0  0  0  0  0  0
  150.8391  145.1556  159.6701 O   0  0  0  0  0  0  0  0  0  0  0  0
  149.9055  142.2662  156.0144 N   0  0  0  0  0  0  0  0  0  0  0  0
  149.0955  141.2149  155.3948 C   0  0  1  0  0  0  0  0  0  0  0  0
  148.3878  141.8332  154.1673 C   0  0  0  0  0  0  0  0  0  0  0  0
  147.1251  141.0709  153.7291 C   0  0  0  0  0  0  0  0  0  0  0  0
  147.3731  139.6449  153.2144 C   0  0  0  0  0  0  0  0  0  0  0  0
  147.9731  138.7018  154.2707 C   0  0  0  0  0  0  0  0  0  0  0  0
  149.4002  138.9268  154.4591 N   0  0  0  0  0  0  0  0  0  0  0  0
  149.9859  140.0383  154.9299 C   0  0  0  0  0  0  0  0  0  0  0  0
  151.2130  140.1179  154.9854 O   0  0  0  0  0  0  0  0  0  0  0  0
  152.2201  143.5502  156.9031 H   0  0  0  0  0  0  0  0  0  0  0  0
  150.7509  144.2529  157.4951 H   0  0  0  0  0  0  0  0  0  0  0  0
  152.9353  141.5198  158.4265 H   0  0  0  0  0  0  0  0  0  0  0  0
  153.3547  142.8156  162.5032 H   0  0  0  0  0  0  0  0  0  0  0  0
  151.9067  144.6740  162.0437 H   0  0  0  0  0  0  0  0  0  0  0  0
  149.9657  143.1429  155.5176 H   0  0  0  0  0  0  0  0  0  0  0  0
  148.3566  140.8634  156.1172 H   0  0  0  0  0  0  0  0  0  0  0  0
  148.0756  142.8498  154.4120 H   0  0  0  0  0  0  0  0  0  0  0  0
  149.0779  141.9356  153.3280 H   0  0  0  0  0  0  0  0  0  0  0  0
  146.4164  141.0390  154.5575 H   0  0  0  0  0  0  0  0  0  0  0  0
  146.6326  141.6409  152.9407 H   0  0  0  0  0  0  0  0  0  0  0  0
  146.4177  139.2329  152.8879 H   0  0  0  0  0  0  0  0  0  0  0  0
  148.0064  139.6688  152.3267 H   0  0  0  0  0  0  0  0  0  0  0  0
  147.4430  138.7826  155.2207 H   0  0  0  0  0  0  0  0  0  0  0  0
  147.8528  137.6701  153.9396 H   0  0  0  0  0  0  0  0  0  0  0  0
  150.0103  138.1735  154.1761 H   0  0  0  0  0  0  0  0  0  0  0  0
  1  2  2  0  0  0  0
  2  3  1  0  0  0  0
  2 15  1  0  0  0  0
  3  4  1  0  0  0  0
  3 24  1  0  0  0  0
  3 25  1  0  0  0  0
  4 13  1  0  0  0  0
  4  5  1  0  0  0  0
  5  6  2  0  0  0  0
  5 26  1  0  0  0  0
  6  7  1  0  0  0  0
  6 11  1  0  0  0  0
  7  8  1  0  0  0  0
  7  9  1  0  0  0  0
  7 10  1  0  0  0  0
 11 12  2  0  0  0  0
 11 27  1  0  0  0  0
 12 13  1  0  0  0  0
 12 28  1  0  0  0  0
 13 14  2  0  0  0  0
 15 16  1  0  0  0  0
 15 29  1  0  0  0  0
 16 22  1  0  0  0  0
 16 17  1  0  0  0  0
 16 30  1  0  0  0  0
 17 18  1  0  0  0  0
 17 31  1  0  0  0  0
 17 32  1  0  0  0  0
 18 19  1  0  0  0  0
 18 33  1  0  0  0  0
 18 34  1  0  0  0  0
 19 20  1  0  0  0  0
 19 35  1  0  0  0  0
 19 36  1  0  0  0  0
 20 21  1  0  0  0  0
 20 37  1  0  0  0  0
 20 38  1  0  0  0  0
 21 22  1  0  0  0  0
 21 39  1  0  0  0  0
 22 23  2  0  0  0  0
M  END
> <s_m_source_file>
AV-unprocessed.smi

> <i_m_source_file_index>
1242

> <i_lp_mmshare_version>
43012

> <i_f3d_flags>
0

> <s_epik_input>
Tz1jMVtjSF1bY0hdYyhDKEYpKEYpRilbY0hdbjFbQ0gyXUMoPU8pW05IXVtDQEBIXTJbQ0gyXVtDSDJdW0NIMl1bQ0gyXVtOSF1DMj1P

> <s_epik_cmdline>
J2VwaWtfcHl0aG9uJywgJy1waCcsICc3LjAnLCAnLXRuJywgJzgnLCAnLW1hJywgJzIwMCcsICctbWV0YWxfYmluZGluZycsICctaW1hZScsICc8aW5maWxlLm1hZT4nLCAnLW9tYWUnLCAnPG91dGZpbGUubWFlPic=

> <r_lp_tautomer_probability>
1

> <r_epik_Ionization_Penalty>
6.92876e-08

> <r_epik_Ionization_Penalty_Charging>
1.59659e-08

> <r_epik_Ionization_Penalty_Neutral>
5.33217e-08

> <r_epik_State_Penalty>
-0

> <r_epik_Charging_Adjusted_Penalty>
1.59659e-08

> <i_epik_Tot_Q>
0

> <i_epik_Tot_abs_Q>
0

> <r_epik_Metal_State_Penalty>
-0

> <b_epik_Metal_Only>
0

> <s_lp_Force_Field>
OPLS_2005

> <r_lp_Energy>
23.3592

> <b_lp_Chiralities_Consistent>
1

> <s_lp_Variant>
AV-unprocessed.smi:1242-2

> <Gold.Version>
5.8.1

> <Gold.Id.Protein>
6NUR|6NUR_protein|mol2

> <Gold.PLP.Fitness>
56.7032

> <Gold.PLP.PLP>
-52.1298

> <Gold.PLP.part.hbond>
-2.0000

> <Gold.PLP.part.metal>
0.0000

> <Gold.PLP.part.buried>
-4.3094

> <Gold.PLP.part.nonpolar>
-46.0793

> <Gold.PLP.part.repulsive>
0.4092

> <Gold.PLP.ligand.clash>
0.0000

> <Gold.PLP.ligand.torsion>
0.2385

> <Gold.PLP.Chemscore.Hbond>
1.6720

> <Gold.PLP.Chemscore.CHOScore>
0.0000

> <Gold.PLP.Chemscore.Metal>
0.0000

> <Gold.Chemscore.Hbonds>
donor molecule, donor type, donor heavy atom, donor atom, acceptor molecule, acceptor atom, score
      L1  H    15    29       P1  8028  0.62
      P1  H  7989  7998       L1    23  1.00

> <Gold.PLP.Chemscore.Internal.Correction>
0.0345

> <Gold.Rescore>
     Score         DG    S(hbond)    S(metal)    S(lipo)     H(rot)  DE(clash)    DE(int)     intcor
     16.46     -18.10       1.85        0.00      92.68       1.72       0.02       1.62       ----

> <Gold.Chemscore.Fitness>
16.4589

> <Gold.Chemscore.DG>
-18.0995

> <Gold.Chemscore.ZeroCoef>
-5.4800

> <Gold.Chemscore.Hbond>
1.8511

> <Gold.Chemscore.Metal>
0.0000

> <Gold.Chemscore.Lipo>
92.6771

> <Gold.Chemscore.Internal_Hbond>
0.0000

> <Gold.Chemscore.DEClash>
0.0228

> <Gold.Chemscore.DEInternal>
1.6178

> <Gold.Chemscore.Rot>
1.7212

> <Gold.Chemscore.Internal.Correction>
   9.000000E+99

> <Gold.Chemscore.Hbonds>
donor molecule, donor type, donor heavy atom, donor atom, acceptor molecule, acceptor atom, score
      L1  H    15    29       P1  8028  0.62
      P1  H  7989  7998       L1    23  0.45

> <Gold.Chemscore.Hbond.Weighted>
-6.1825

> <Gold.Chemscore.Metal.Weighted>
-0.0000

> <Gold.Chemscore.Lipo.Weighted>
-10.8432

> <Gold.Chemscore.Internal_Hbond.Weighted>
0.0000

> <Gold.Chemscore.DEClash.Weighted>
0.0228

> <Gold.Chemscore.DEInternal.Weighted>
1.6178

> <Gold.Chemscore.Rot.Weighted>
4.4062

> <Gold.Chemscore.Internal.Correction.Weighted>
   9.000000E+99

> <Gold.Protein.RotatedTorsions>
[ 6907 6896 6895 6894 ] final   95.17 input  -60.11 | X-H torsion
[ 7974 7965 7964 7962 ] final   88.06 input  175.53 | X-H torsion
[ 8008 7997 7996 7995 ] final   65.60 input   59.86 | X-H torsion
[ 10167 10162 10161 10158 ] final  175.03 input  -65.29 | X-H torsion
[ 10718 10713 10712 10709 ] final  -22.92 input   66.30 | X-H torsion
[ 10763 10752 10751 10750 ] final -153.24 input  -60.55 | X-H torsion
[ 11005 11000 10999 10996 ] final  148.14 input  -57.11 | X-H torsion

> <Gold.Protein.ActiveResidues>
 VAL166  LYS551  ARG553  GLY616  TRP617  ASP618  TYR619  PRO620  LYS621  CYS622 
 ASP623  PHE694  ASN695  SER759  ASP760  ASP761  ALA762  ILE779  LEU786  VAL792 
 PHE793  MET794  SER795  GLU796  ALA797  LYS798  CYS799  TRP800  GLU811  SER814 

> <Gold.Protein.RotatedAtoms>
  152.5445  134.1081  159.8346 H   0  0  0  0  0  0  0  0  0  0  0  0  # atno 6907 bound_to 6896
  151.1151  133.5137  159.2611 H   0  0  0  0  0  0  0  0  0  0  0  0  # atno 6908 bound_to 6896
  151.1841  135.0383  159.8859 H   0  0  0  0  0  0  0  0  0  0  0  0  # atno 6909 bound_to 6896
  145.5507  139.2295  143.2514 H   0  0  0  0  0  0  0  0  0  0  0  0  # atno 7974 bound_to 7965
  155.6642  140.3497  155.4794 H   0  0  0  0  0  0  0  0  0  0  0  0  # atno 8008 bound_to 7997
  155.9743  140.1162  157.0807 H   0  0  0  0  0  0  0  0  0  0  0  0  # atno 8009 bound_to 7997
  154.4174  140.1151  156.5335 H   0  0  0  0  0  0  0  0  0  0  0  0  # atno 8010 bound_to 7997
  139.5162  144.3079  152.0319 H   0  0  0  0  0  0  0  0  0  0  0  0  # atno 10167 bound_to 10162
  156.4980  130.4581  149.6717 H   0  0  0  0  0  0  0  0  0  0  0  0  # atno 10718 bound_to 10713
  154.7941  135.3217  154.7708 H   0  0  0  0  0  0  0  0  0  0  0  0  # atno 10763 bound_to 10752
  153.8391  135.6872  153.4809 H   0  0  0  0  0  0  0  0  0  0  0  0  # atno 10764 bound_to 10752
  153.1624  135.4655  154.9732 H   0  0  0  0  0  0  0  0  0  0  0  0  # atno 10765 bound_to 10752
  140.0934  134.9027  157.1686 H   0  0  0  0  0  0  0  0  0  0  0  0  # atno 11005 bound_to 11000
  146.1919  140.6330  142.9142 LP  0  0  0  0  0  0  0  0  0  0  0  0  # atno 17320 bound_to 7965
  144.7531  140.5240  143.6788 LP  0  0  0  0  0  0  0  0  0  0  0  0  # atno 17321 bound_to 7965
  140.2524  144.4154  150.6216 LP  0  0  0  0  0  0  0  0  0  0  0  0  # atno 17342 bound_to 10162
  140.6215  143.2177  151.6684 LP  0  0  0  0  0  0  0  0  0  0  0  0  # atno 17343 bound_to 10162
  156.3360  130.7357  151.2294 LP  0  0  0  0  0  0  0  0  0  0  0  0  # atno 17370 bound_to 10713
  157.7466  131.0416  150.4657 LP  0  0  0  0  0  0  0  0  0  0  0  0  # atno 17371 bound_to 10713
  140.3320  134.2799  155.7226 LP  0  0  0  0  0  0  0  0  0  0  0  0  # atno 17394 bound_to 11000
  141.2085  133.7776  157.0056 LP  0  0  0  0  0  0  0  0  0  0  0  0  # atno 17395 bound_to 11000

$$$$
