AV-unprocessed.smi:1810|AV-procd|sdf|7333|dock9
  -GOLD-   22720 8593D 1   1.00000     0.00000
 Structure written by MMmdl.
 40 41  0  0  0  0  0  0  0  0  1 V2000
  151.5992  144.7268  158.7305 C   0  0  0  0  0  0  0  0  0  0  0  0
  151.6527  143.2850  158.3017 C   0  0  0  0  0  0  0  0  0  0  0  0
  150.9703  142.9655  157.2514 N   0  0  0  0  0  0  0  0  0  0  0  0
  150.9518  141.6705  156.7724 N   0  0  0  0  0  0  0  0  0  0  0  0
  150.1157  141.4859  155.5814 C   0  0  0  0  0  0  0  0  0  0  0  0
  148.6207  141.5921  155.9195 C   0  0  0  0  0  0  0  0  0  0  0  0
  147.9163  141.9803  154.7481 O   0  0  0  0  0  0  0  0  0  0  0  0
  146.7571  142.7115  154.8964 C   0  0  0  0  0  0  0  0  0  0  0  0
  146.0151  142.7932  156.1029 C   0  0  0  0  0  0  0  0  0  0  0  0
  144.8379  143.5637  156.1659 C   0  0  0  0  0  0  0  0  0  0  0  0
  144.3949  144.2588  155.0249 C   0  0  0  0  0  0  0  0  0  0  0  0
  142.8975  145.2325  155.1194 S   0  0  0  0  0  0  0  0  0  0  0  0
  141.9839  144.6133  153.7996 N   0  0  0  0  0  0  0  0  0  0  0  0
  142.1878  144.8721  156.3563 O   0  0  0  0  0  0  0  0  0  0  0  0
  143.2178  146.6362  154.8173 O   0  0  0  0  0  0  0  0  0  0  0  0
  145.1206  144.1879  153.8204 C   0  0  0  0  0  0  0  0  0  0  0  0
  146.2963  143.4150  153.7632 C   0  0  0  0  0  0  0  0  0  0  0  0
  151.6233  140.6249  157.3333 C   0  0  0  0  0  0  0  0  0  0  0  0
  151.5738  139.4828  156.8742 O   0  0  0  0  0  0  0  0  0  0  0  0
  152.3940  140.9933  158.5232 C   0  0  0  0  0  0  0  0  0  0  0  0
  153.1119  139.9269  159.1434 C   0  0  0  0  0  0  0  0  0  0  0  0
  153.7119  139.0696  159.6385 N   0  0  0  0  0  0  0  0  0  0  0  0
  152.4211  142.2618  159.0036 C   0  0  0  0  0  0  0  0  0  0  0  0
  153.2047  142.6963  160.2348 C   0  0  0  0  0  0  0  0  0  0  0  0
  152.5963  145.1674  158.7335 H   0  0  0  0  0  0  0  0  0  0  0  0
  151.1861  144.8163  159.7352 H   0  0  0  0  0  0  0  0  0  0  0  0
  150.9769  145.3265  158.0645 H   0  0  0  0  0  0  0  0  0  0  0  0
  150.3692  142.2355  154.8294 H   0  0  0  0  0  0  0  0  0  0  0  0
  150.3265  140.5229  155.1131 H   0  0  0  0  0  0  0  0  0  0  0  0
  148.2501  140.6311  156.2793 H   0  0  0  0  0  0  0  0  0  0  0  0
  148.4734  142.3323  156.7077 H   0  0  0  0  0  0  0  0  0  0  0  0
  146.3273  142.2728  156.9954 H   0  0  0  0  0  0  0  0  0  0  0  0
  144.2788  143.6190  157.0884 H   0  0  0  0  0  0  0  0  0  0  0  0
  140.9859  144.5752  154.0047 H   0  0  0  0  0  0  0  0  0  0  0  0
  142.3582  143.7311  153.4511 H   0  0  0  0  0  0  0  0  0  0  0  0
  144.7848  144.7185  152.9418 H   0  0  0  0  0  0  0  0  0  0  0  0
  146.8520  143.3614  152.8384 H   0  0  0  0  0  0  0  0  0  0  0  0
  153.7391  141.8676  160.6984 H   0  0  0  0  0  0  0  0  0  0  0  0
  152.5351  143.1148  160.9871 H   0  0  0  0  0  0  0  0  0  0  0  0
  153.9428  143.4541  159.9701 H   0  0  0  0  0  0  0  0  0  0  0  0
  1  2  1  0  0  0  0
  1 25  1  0  0  0  0
  1 26  1  0  0  0  0
  1 27  1  0  0  0  0
  2 23  1  0  0  0  0
  2  3  2  0  0  0  0
  3  4  1  0  0  0  0
  4  5  1  0  0  0  0
  4 18  1  0  0  0  0
  5  6  1  0  0  0  0
  5 28  1  0  0  0  0
  5 29  1  0  0  0  0
  6  7  1  0  0  0  0
  6 30  1  0  0  0  0
  6 31  1  0  0  0  0
  7  8  1  0  0  0  0
  8 17  1  0  0  0  0
  8  9  2  0  0  0  0
  9 10  1  0  0  0  0
  9 32  1  0  0  0  0
 10 11  2  0  0  0  0
 10 33  1  0  0  0  0
 11 12  1  0  0  0  0
 11 16  1  0  0  0  0
 12 13  1  0  0  0  0
 12 14  2  0  0  0  0
 12 15  2  0  0  0  0
 13 34  1  0  0  0  0
 13 35  1  0  0  0  0
 16 17  2  0  0  0  0
 16 36  1  0  0  0  0
 17 37  1  0  0  0  0
 18 19  2  0  0  0  0
 18 20  1  0  0  0  0
 20 21  1  0  0  0  0
 20 23  2  0  0  0  0
 21 22  3  0  0  0  0
 23 24  1  0  0  0  0
 24 38  1  0  0  0  0
 24 39  1  0  0  0  0
 24 40  1  0  0  0  0
M  END
> <s_m_source_file>
AV-unprocessed.smi

> <i_m_source_file_index>
1810

> <i_lp_mmshare_version>
43012

> <i_f3d_flags>
0

> <s_epik_input>
TiNDYyhjMVtDSDNdKWMoPU8pbihuYzFbQ0gzXSlbQ0gyXVtDSDJdT2MyW2NIXVtjSF1jKFMoPU8pKD1PKVtOSDJdKVtjSF1bY0hdMg==

> <s_epik_cmdline>
J2VwaWtfcHl0aG9uJywgJy1waCcsICc3LjAnLCAnLXRuJywgJzgnLCAnLW1hJywgJzIwMCcsICctbWV0YWxfYmluZGluZycsICctaW1hZScsICc8aW5maWxlLm1hZT4nLCAnLW9tYWUnLCAnPG91dGZpbGUubWFlPic=

> <r_lp_tautomer_probability>
1

> <r_epik_Ionization_Penalty>
0.000347403

> <r_epik_Ionization_Penalty_Charging>
5.27838e-11

> <r_epik_Ionization_Penalty_Neutral>
0.000347403

> <r_epik_State_Penalty>
0.00021091

> <r_epik_Charging_Adjusted_Penalty>
0.000210911

> <i_epik_Tot_Q>
0

> <i_epik_Tot_abs_Q>
0

> <r_epik_Metal_State_Penalty>
0.18648

> <b_epik_Metal_Only>
0

> <s_lp_Force_Field>
OPLS_2005

> <r_lp_Energy>
32.1268

> <b_lp_Chiralities_Consistent>
1

> <s_lp_Variant>
AV-unprocessed.smi:1810-1

> <Gold.Version>
5.8.1

> <Gold.Id.Protein>
6NUR|6NUR_protein|mol2

> <Gold.PLP.Fitness>
47.7084

> <Gold.PLP.PLP>
-46.2681

> <Gold.PLP.part.hbond>
-3.7603

> <Gold.PLP.part.metal>
0.0000

> <Gold.PLP.part.buried>
-6.7572

> <Gold.PLP.part.nonpolar>
-36.0118

> <Gold.PLP.part.repulsive>
0.3102

> <Gold.PLP.ligand.clash>
0.0000

> <Gold.PLP.ligand.torsion>
1.7739

> <Gold.PLP.Chemscore.Hbond>
1.0000

> <Gold.PLP.Chemscore.CHOScore>
0.0000

> <Gold.PLP.Chemscore.Metal>
0.0000

> <Gold.Chemscore.Hbonds>
donor molecule, donor type, donor heavy atom, donor atom, acceptor molecule, acceptor atom, score
      L1  H    13    35       P1 10174  1.00

> <Gold.PLP.Chemscore.Internal.Correction>
1.9881

> <Gold.Rescore>
     Score         DG    S(hbond)    S(metal)    S(lipo)     H(rot)  DE(clash)    DE(int)     intcor
     11.48     -13.27       0.88        0.00      85.06       1.99       0.07       1.71       ----

> <Gold.Chemscore.Fitness>
11.4845

> <Gold.Chemscore.DG>
-13.2654

> <Gold.Chemscore.ZeroCoef>
-5.4800

> <Gold.Chemscore.Hbond>
0.8785

> <Gold.Chemscore.Metal>
0.0000

> <Gold.Chemscore.Lipo>
85.0588

> <Gold.Chemscore.Internal_Hbond>
0.0000

> <Gold.Chemscore.DEClash>
0.0686

> <Gold.Chemscore.DEInternal>
1.7123

> <Gold.Chemscore.Rot>
1.9925

> <Gold.Chemscore.Internal.Correction>
   9.000000E+99

> <Gold.Chemscore.Hbonds>
donor molecule, donor type, donor heavy atom, donor atom, acceptor molecule, acceptor atom, score
      L1  H    13    35       P1 10174  0.96

> <Gold.Chemscore.Hbond.Weighted>
-2.9342

> <Gold.Chemscore.Metal.Weighted>
-0.0000

> <Gold.Chemscore.Lipo.Weighted>
-9.9519

> <Gold.Chemscore.Internal_Hbond.Weighted>
0.0000

> <Gold.Chemscore.DEClash.Weighted>
0.0686

> <Gold.Chemscore.DEInternal.Weighted>
1.7123

> <Gold.Chemscore.Rot.Weighted>
5.1007

> <Gold.Chemscore.Internal.Correction.Weighted>
   9.000000E+99

> <Gold.Protein.RotatedTorsions>
[ 6907 6896 6895 6894 ] final  161.68 input  -60.11 | X-H torsion
[ 7974 7965 7964 7962 ] final   33.67 input  175.53 | X-H torsion
[ 8008 7997 7996 7995 ] final    0.33 input   59.86 | X-H torsion
[ 10167 10162 10161 10158 ] final  163.27 input  -65.29 | X-H torsion
[ 10718 10713 10712 10709 ] final  124.69 input   66.30 | X-H torsion
[ 10763 10752 10751 10750 ] final -120.44 input  -60.55 | X-H torsion
[ 11005 11000 10999 10996 ] final -147.85 input  -57.11 | X-H torsion

> <Gold.Protein.ActiveResidues>
 VAL166  LYS551  ARG553  GLY616  TRP617  ASP618  TYR619  PRO620  LYS621  CYS622 
 ASP623  PHE694  ASN695  SER759  ASP760  ASP761  ALA762  ILE779  LEU786  VAL792 
 PHE793  MET794  SER795  GLU796  ALA797  LYS798  CYS799  TRP800  GLU811  SER814 

> <Gold.Protein.RotatedAtoms>
  151.9519  133.3668  159.4003 H   0  0  0  0  0  0  0  0  0  0  0  0  # atno 6907 bound_to 6896
  150.6979  134.4331  159.5267 H   0  0  0  0  0  0  0  0  0  0  0  0  # atno 6908 bound_to 6896
  152.2005  134.8592  160.0559 H   0  0  0  0  0  0  0  0  0  0  0  0  # atno 6909 bound_to 6896
  146.1405  139.6366  142.9166 H   0  0  0  0  0  0  0  0  0  0  0  0  # atno 7974 bound_to 7965
  154.6668  140.2603  155.7049 H   0  0  0  0  0  0  0  0  0  0  0  0  # atno 8008 bound_to 7997
  156.2642  140.2837  156.1084 H   0  0  0  0  0  0  0  0  0  0  0  0  # atno 8009 bound_to 7997
  155.1227  140.0377  157.2744 H   0  0  0  0  0  0  0  0  0  0  0  0  # atno 8010 bound_to 7997
  139.4871  144.4354  151.9018 H   0  0  0  0  0  0  0  0  0  0  0  0  # atno 10167 bound_to 10162
  157.5565  131.1092  150.8613 H   0  0  0  0  0  0  0  0  0  0  0  0  # atno 10718 bound_to 10713
  154.8644  135.4203  154.2460 H   0  0  0  0  0  0  0  0  0  0  0  0  # atno 10763 bound_to 10752
  153.3416  135.6994  153.6868 H   0  0  0  0  0  0  0  0  0  0  0  0  # atno 10764 bound_to 10752
  153.5844  135.3566  155.2860 H   0  0  0  0  0  0  0  0  0  0  0  0  # atno 10765 bound_to 10752
  140.7674  134.3228  157.5085 H   0  0  0  0  0  0  0  0  0  0  0  0  # atno 11005 bound_to 11000
  145.5059  141.0436  143.2515 LP  0  0  0  0  0  0  0  0  0  0  0  0  # atno 17320 bound_to 7965
  144.7787  139.6574  143.7164 LP  0  0  0  0  0  0  0  0  0  0  0  0  # atno 17321 bound_to 7965
  140.3804  144.2744  150.5909 LP  0  0  0  0  0  0  0  0  0  0  0  0  # atno 17342 bound_to 10162
  140.5239  143.2259  151.8346 LP  0  0  0  0  0  0  0  0  0  0  0  0  # atno 17343 bound_to 10162
  156.9123  130.5285  149.5280 LP  0  0  0  0  0  0  0  0  0  0  0  0  # atno 17370 bound_to 10713
  156.0623  130.5673  150.9218 LP  0  0  0  0  0  0  0  0  0  0  0  0  # atno 17371 bound_to 10713
  139.8761  134.9240  156.3338 LP  0  0  0  0  0  0  0  0  0  0  0  0  # atno 17394 bound_to 11000
  140.9606  133.7391  156.0396 LP  0  0  0  0  0  0  0  0  0  0  0  0  # atno 17395 bound_to 11000

$$$$
