AV-unprocessed.smi:109|AV-procd|sdf|1054|dock4
  -GOLD-   2262018113D 1   1.00000     0.00000
 Structure written by MMmdl.
 58 61  0  0  0  0  0  0  0  0  1 V2000
  148.8280  142.2596  154.4468 O   0  0  0  0  0  0  0  0  0  0  0  0
  148.0014  141.6327  155.4034 C   0  0  0  0  0  0  0  0  0  0  0  0
  148.5498  141.8901  156.8157 C   0  0  0  0  0  0  0  0  0  0  0  0
  149.9275  141.2416  157.0745 C   0  0  1  0  0  0  0  0  0  0  0  0
  150.6575  141.0365  155.8221 N   0  0  0  0  0  0  0  0  0  0  0  0
  151.0710  139.8158  155.4149 C   0  0  0  0  0  0  0  0  0  0  0  0
  152.3277  139.6104  154.9415 N   0  0  0  0  0  0  0  0  0  0  0  0
  152.7032  138.3906  154.5466 C   0  0  0  0  0  0  0  0  0  0  0  0
  151.9930  137.2607  154.5407 N   0  0  0  0  0  0  0  0  0  0  0  0
  150.7291  137.4605  155.0146 C   0  0  0  0  0  0  0  0  0  0  0  0
  150.1970  138.6995  155.4682 C   0  0  0  0  0  0  0  0  0  0  0  0
  148.8811  138.5255  155.8765 N   0  0  0  0  0  0  0  0  0  0  0  0
  148.6518  137.2565  155.6699 C   0  0  0  0  0  0  0  0  0  0  0  0
  149.7100  136.5407  155.1554 N   0  0  0  0  0  0  0  0  0  0  0  0
  149.7460  135.0878  154.8124 C   0  0  1  0  0  0  0  0  0  0  0  0
  150.2866  134.4021  155.8956 O   0  0  0  0  0  0  0  0  0  0  0  0
  149.6823  133.1194  155.9704 C   0  0  1  0  0  0  0  0  0  0  0  0
  149.8963  132.4850  157.3562 C   0  0  0  0  0  0  0  0  0  0  0  0
  149.2806  133.2743  158.3516 O   0  0  0  0  0  0  0  0  0  0  0  0
  148.2219  133.4038  155.5866 C   0  0  1  0  0  0  0  0  0  0  0  0
  147.4646  133.8180  156.7085 O   0  0  0  0  0  0  0  0  0  0  0  0
  148.3303  134.5361  154.5664 C   0  0  2  0  0  0  0  0  0  0  0  0
  148.2127  134.0051  153.2615 O   0  0  0  0  0  0  0  0  0  0  0  0
  150.7837  142.0504  158.0815 C   0  0  0  0  0  0  0  0  0  0  0  0
  151.3400  143.3779  157.5132 C   0  0  0  0  0  0  0  0  0  0  0  0
  152.1542  144.1487  158.5657 C   0  0  0  0  0  0  0  0  0  0  0  0
  153.2853  143.2839  159.1422 C   0  0  0  0  0  0  0  0  0  0  0  0
  152.7357  141.9724  159.7225 C   0  0  0  0  0  0  0  0  0  0  0  0
  151.9278  141.1952  158.6712 C   0  0  0  0  0  0  0  0  0  0  0  0
  150.4053  135.0136  153.9460 H   0  0  0  0  0  0  0  0  0  0  0  0
  150.1198  132.4861  155.1955 H   0  0  0  0  0  0  0  0  0  0  0  0
  147.7393  132.5145  155.1782 H   0  0  0  0  0  0  0  0  0  0  0  0
  147.5695  135.3054  154.7125 H   0  0  0  0  0  0  0  0  0  0  0  0
  148.8204  143.1907  154.6085 H   0  0  0  0  0  0  0  0  0  0  0  0
  146.9877  142.0223  155.3067 H   0  0  0  0  0  0  0  0  0  0  0  0
  147.9655  140.5651  155.1867 H   0  0  0  0  0  0  0  0  0  0  0  0
  148.6004  142.9647  156.9943 H   0  0  0  0  0  0  0  0  0  0  0  0
  147.8322  141.4955  157.5362 H   0  0  0  0  0  0  0  0  0  0  0  0
  149.7386  140.2844  157.5599 H   0  0  0  0  0  0  0  0  0  0  0  0
  150.8513  141.8762  155.2956 H   0  0  0  0  0  0  0  0  0  0  0  0
  153.7166  138.3087  154.1823 H   0  0  0  0  0  0  0  0  0  0  0  0
  147.6957  136.8041  155.8901 H   0  0  0  0  0  0  0  0  0  0  0  0
  149.5114  131.4652  157.3909 H   0  0  0  0  0  0  0  0  0  0  0  0
  150.9606  132.4406  157.5885 H   0  0  0  0  0  0  0  0  0  0  0  0
  148.5147  133.6839  157.9788 H   0  0  0  0  0  0  0  0  0  0  0  0
  147.7106  134.7060  156.9229 H   0  0  0  0  0  0  0  0  0  0  0  0
  148.3776  134.6976  152.6397 H   0  0  0  0  0  0  0  0  0  0  0  0
  150.1298  142.3078  158.9162 H   0  0  0  0  0  0  0  0  0  0  0  0
  151.9741  143.1814  156.6479 H   0  0  0  0  0  0  0  0  0  0  0  0
  150.5266  144.0128  157.1620 H   0  0  0  0  0  0  0  0  0  0  0  0
  152.5692  145.0549  158.1233 H   0  0  0  0  0  0  0  0  0  0  0  0
  151.4950  144.4732  159.3719 H   0  0  0  0  0  0  0  0  0  0  0  0
  154.0119  143.0615  158.3595 H   0  0  0  0  0  0  0  0  0  0  0  0
  153.8208  143.8372  159.9140 H   0  0  0  0  0  0  0  0  0  0  0  0
  153.5566  141.3560  160.0900 H   0  0  0  0  0  0  0  0  0  0  0  0
  152.1025  142.1898  160.5836 H   0  0  0  0  0  0  0  0  0  0  0  0
  151.5218  140.2896  159.1231 H   0  0  0  0  0  0  0  0  0  0  0  0
  152.5986  140.8665  157.8762 H   0  0  0  0  0  0  0  0  0  0  0  0
  1  2  1  0  0  0  0
  1 34  1  0  0  0  0
  2  3  1  0  0  0  0
  2 35  1  0  0  0  0
  2 36  1  0  0  0  0
  3  4  1  0  0  0  0
  3 37  1  0  0  0  0
  3 38  1  0  0  0  0
  4  5  1  0  0  0  0
  4 24  1  0  0  0  0
  4 39  1  0  0  0  0
  5  6  1  0  0  0  0
  5 40  1  0  0  0  0
  6 11  1  0  0  0  0
  6  7  2  0  0  0  0
  7  8  1  0  0  0  0
  8  9  2  0  0  0  0
  8 41  1  0  0  0  0
  9 10  1  0  0  0  0
 10 14  1  0  0  0  0
 10 11  2  0  0  0  0
 11 12  1  0  0  0  0
 12 13  2  0  0  0  0
 13 14  1  0  0  0  0
 13 42  1  0  0  0  0
 14 15  1  0  0  0  0
 15 30  1  0  0  0  0
 15 22  1  0  0  0  0
 15 16  1  0  0  0  0
 16 17  1  0  0  0  0
 17 31  1  0  0  0  0
 17 18  1  0  0  0  0
 17 20  1  0  0  0  0
 18 19  1  0  0  0  0
 18 43  1  0  0  0  0
 18 44  1  0  0  0  0
 19 45  1  0  0  0  0
 20 32  1  0  0  0  0
 20 21  1  0  0  0  0
 20 22  1  0  0  0  0
 21 46  1  0  0  0  0
 22 33  1  0  0  0  0
 22 23  1  0  0  0  0
 23 47  1  0  0  0  0
 24 29  1  0  0  0  0
 24 25  1  0  0  0  0
 24 48  1  0  0  0  0
 25 26  1  0  0  0  0
 25 49  1  0  0  0  0
 25 50  1  0  0  0  0
 26 27  1  0  0  0  0
 26 51  1  0  0  0  0
 26 52  1  0  0  0  0
 27 28  1  0  0  0  0
 27 53  1  0  0  0  0
 27 54  1  0  0  0  0
 28 29  1  0  0  0  0
 28 55  1  0  0  0  0
 28 56  1  0  0  0  0
 29 57  1  0  0  0  0
 29 58  1  0  0  0  0
M  END
> <s_m_source_file>
AV-unprocessed.smi

> <i_m_source_file_index>
109

> <i_lp_mmshare_version>
43012

> <i_f3d_flags>
0

> <s_epik_input>
W0NIMl0xW0NIMl1bQ0gyXVtDSDJdW0NIMl1bQ0hdMVtDQEhdKFtDSDJdW0NIMl1bT0hdKVtOSF1jKG5bY0hdbjIpYyhjMjMpbltjSF1uM1tDQEBIXTRPW0NASF0oW0NIMl1bT0hdKVtDQEBIXShbT0hdKVtDQEhdNFtPSF0=

> <s_epik_cmdline>
J2VwaWtfcHl0aG9uJywgJy1waCcsICc3LjAnLCAnLXRuJywgJzgnLCAnLW1hJywgJzIwMCcsICctbWV0YWxfYmluZGluZycsICctaW1hZScsICc8aW5maWxlLm1hZT4nLCAnLW9tYWUnLCAnPG91dGZpbGUubWFlPic=

> <r_lp_tautomer_probability>
1

> <r_epik_Ionization_Penalty>
0.000793976

> <r_epik_Ionization_Penalty_Charging>
0

> <r_epik_Ionization_Penalty_Neutral>
0.000793976

> <r_epik_State_Penalty>
-0

> <r_epik_Charging_Adjusted_Penalty>
0

> <i_epik_Tot_Q>
0

> <i_epik_Tot_abs_Q>
0

> <r_epik_Metal_State_Penalty>
-0

> <b_epik_Metal_Only>
0

> <s_epik_Chemistry_Notes>
This compound contains an acetal/aminal-like group ( X-CH(R)-Y where X, Y are N, S, or O) that may be acid/base labile, releasing an aldehyde.

> <s_lp_Force_Field>
OPLS_2005

> <r_lp_Energy>
50.1139

> <b_lp_Chiralities_Consistent>
1

> <s_lp_Variant>
AV-unprocessed.smi:109-24

> <Gold.Version>
5.8.1

> <Gold.Id.Protein>
6NUR|6NUR_protein|mol2

> <Gold.PLP.Fitness>
54.9903

> <Gold.PLP.PLP>
-45.7590

> <Gold.PLP.part.hbond>
-6.0000

> <Gold.PLP.part.metal>
0.0000

> <Gold.PLP.part.buried>
-4.9944

> <Gold.PLP.part.nonpolar>
-36.3305

> <Gold.PLP.part.repulsive>
0.3249

> <Gold.PLP.ligand.clash>
0.0000

> <Gold.PLP.ligand.torsion>
1.7019

> <Gold.PLP.Chemscore.Hbond>
4.1029

> <Gold.PLP.Chemscore.CHOScore>
0.0000

> <Gold.PLP.Chemscore.Metal>
0.0000

> <Gold.Chemscore.Hbonds>
donor molecule, donor type, donor heavy atom, donor atom, acceptor molecule, acceptor atom, score
      L1  H     1    34       P1  8028  1.00
      L1  H    23    47       P1  7948  1.00
      P1  H  6896  6908       L1    19  1.00
      P1  H  7989  7998       L1     7  0.07
      P1  H  7997  8010       L1     7  0.05
      P1  H  8011  8017       L1     1  0.05
      P1  H 10752 10765       L1     9  0.93

> <Gold.PLP.Chemscore.Internal.Correction>
0.3263

> <Gold.Rescore>
     Score         DG    S(hbond)    S(metal)    S(lipo)     H(rot)  DE(clash)    DE(int)     intcor
     12.71     -14.41       3.57        0.00      93.93       5.47       0.12       1.58       ----

> <Gold.Chemscore.Fitness>
12.7114

> <Gold.Chemscore.DG>
-14.4076

> <Gold.Chemscore.ZeroCoef>
-5.4800

> <Gold.Chemscore.Hbond>
3.5724

> <Gold.Chemscore.Metal>
0.0000

> <Gold.Chemscore.Lipo>
93.9263

> <Gold.Chemscore.Internal_Hbond>
0.0000

> <Gold.Chemscore.DEClash>
0.1183

> <Gold.Chemscore.DEInternal>
1.5779

> <Gold.Chemscore.Rot>
5.4662

> <Gold.Chemscore.Internal.Correction>
   9.000000E+99

> <Gold.Chemscore.Hbonds>
donor molecule, donor type, donor heavy atom, donor atom, acceptor molecule, acceptor atom, score
      L1  H     1    34       P1  8028  0.99
      L1  H    23    47       P1  7948  0.30
      P1  H  6896  6908       L1    19  0.55
      P1  H  7997  8010       L1     7  0.01
      P1  H  8011  8017       L1     1  0.01
      P1  H 10752 10765       L1     9  0.86

> <Gold.Chemscore.Hbond.Weighted>
-11.9317

> <Gold.Chemscore.Metal.Weighted>
-0.0000

> <Gold.Chemscore.Lipo.Weighted>
-10.9894

> <Gold.Chemscore.Internal_Hbond.Weighted>
0.0000

> <Gold.Chemscore.DEClash.Weighted>
0.1183

> <Gold.Chemscore.DEInternal.Weighted>
1.5779

> <Gold.Chemscore.Rot.Weighted>
13.9935

> <Gold.Chemscore.Internal.Correction.Weighted>
   9.000000E+99

> <Gold.Protein.RotatedTorsions>
[ 6907 6896 6895 6894 ] final  137.01 input  -60.11 | X-H torsion
[ 7974 7965 7964 7962 ] final  137.91 input  175.53 | X-H torsion
[ 8008 7997 7996 7995 ] final   92.56 input   59.86 | X-H torsion
[ 10167 10162 10161 10158 ] final -152.82 input  -65.29 | X-H torsion
[ 10718 10713 10712 10709 ] final  -29.46 input   66.30 | X-H torsion
[ 10763 10752 10751 10750 ] final  168.90 input  -60.55 | X-H torsion
[ 11005 11000 10999 10996 ] final -134.02 input  -57.11 | X-H torsion

> <Gold.Protein.ActiveResidues>
 VAL166  LYS551  ARG553  GLY616  TRP617  ASP618  TYR619  PRO620  LYS621  CYS622 
 ASP623  PHE694  ASN695  SER759  ASP760  ASP761  ALA762  ILE779  LEU786  VAL792 
 PHE793  MET794  SER795  GLU796  ALA797  LYS798  CYS799  TRP800  GLU811  SER814 

> <Gold.Protein.RotatedAtoms>
  152.2829  133.5488  159.5508 H   0  0  0  0  0  0  0  0  0  0  0  0  # atno 6907 bound_to 6896
  150.7203  134.0538  159.3816 H   0  0  0  0  0  0  0  0  0  0  0  0  # atno 6908 bound_to 6896
  151.8448  135.0578  160.0503 H   0  0  0  0  0  0  0  0  0  0  0  0  # atno 6909 bound_to 6896
  144.9422  139.4917  143.5566 H   0  0  0  0  0  0  0  0  0  0  0  0  # atno 7974 bound_to 7965
  156.0368  140.3324  155.7199 H   0  0  0  0  0  0  0  0  0  0  0  0  # atno 8008 bound_to 7997
  155.5804  140.0636  157.2802 H   0  0  0  0  0  0  0  0  0  0  0  0  # atno 8009 bound_to 7997
  154.4376  140.1845  156.0958 H   0  0  0  0  0  0  0  0  0  0  0  0  # atno 8010 bound_to 7997
  139.7149  143.9049  152.2482 H   0  0  0  0  0  0  0  0  0  0  0  0  # atno 10167 bound_to 10162
  156.4122  130.4410  149.7244 H   0  0  0  0  0  0  0  0  0  0  0  0  # atno 10718 bound_to 10713
  154.3753  135.2753  155.2242 H   0  0  0  0  0  0  0  0  0  0  0  0  # atno 10763 bound_to 10752
  154.4372  135.5963  153.6110 H   0  0  0  0  0  0  0  0  0  0  0  0  # atno 10764 bound_to 10752
  152.9836  135.6010  154.3989 H   0  0  0  0  0  0  0  0  0  0  0  0  # atno 10765 bound_to 10752
  140.9028  134.1668  157.4448 H   0  0  0  0  0  0  0  0  0  0  0  0  # atno 11005 bound_to 11000
  146.3290  139.8449  142.8883 LP  0  0  0  0  0  0  0  0  0  0  0  0  # atno 17320 bound_to 7965
  145.2973  141.0184  143.3629 LP  0  0  0  0  0  0  0  0  0  0  0  0  # atno 17321 bound_to 7965
  139.8929  144.6955  150.8750 LP  0  0  0  0  0  0  0  0  0  0  0  0  # atno 17342 bound_to 10162
  140.7741  143.3572  151.1897 LP  0  0  0  0  0  0  0  0  0  0  0  0  # atno 17343 bound_to 10162
  156.4218  130.7772  151.2789 LP  0  0  0  0  0  0  0  0  0  0  0  0  # atno 17370 bound_to 10713
  157.7507  131.0180  150.3610 LP  0  0  0  0  0  0  0  0  0  0  0  0  # atno 17371 bound_to 10713
  139.8745  134.9905  156.5505 LP  0  0  0  0  0  0  0  0  0  0  0  0  # atno 17394 bound_to 11000
  140.8208  133.8355  155.8894 LP  0  0  0  0  0  0  0  0  0  0  0  0  # atno 17395 bound_to 11000

$$$$
