AV-unprocessed.smi:1288|AV-procd|sdf|5382|dock7
  -GOLD-   22720 4533D 1   1.00000     0.00000
 Structure written by MMmdl.
 42 44  0  0  0  0  0  0  0  0  1 V2000
  151.5974  138.8437  157.9565 C   0  0  0  0  0  0  0  0  0  0  0  0
  151.6241  140.2960  158.3141 C   0  0  0  0  0  0  0  0  0  0  0  0
  152.5179  140.8028  159.1635 N   0  0  0  0  0  0  0  0  0  0  0  0
  152.1844  142.1433  159.1901 C   0  0  0  0  0  0  0  0  0  0  0  0
  152.7593  143.2188  159.9047 C   0  0  0  0  0  0  0  0  0  0  0  0
  152.2394  144.5230  159.7718 C   0  0  0  0  0  0  0  0  0  0  0  0
  151.1400  144.7704  158.9245 C   0  0  0  0  0  0  0  0  0  0  0  0
  150.5525  143.7134  158.2030 C   0  0  0  0  0  0  0  0  0  0  0  0
  151.0750  142.4131  158.3391 C   0  0  0  0  0  0  0  0  0  0  0  0
  150.7393  141.1792  157.7892 N   0  0  0  0  0  0  0  0  0  0  0  0
  149.6616  140.9130  156.8455 C   0  0  0  0  0  0  0  0  0  0  0  0
  150.0739  141.1652  155.3810 C   0  0  1  0  0  0  0  0  0  0  0  0
  151.1597  140.3197  155.0551 O   0  0  0  0  0  0  0  0  0  0  0  0
  148.9221  140.8791  154.4043 C   0  0  0  0  0  0  0  0  0  0  0  0
  148.0154  141.9695  154.4249 O   0  0  0  0  0  0  0  0  0  0  0  0
  146.7705  141.6630  153.8204 C   0  0  0  0  0  0  0  0  0  0  0  0
  145.7440  142.7427  154.1014 C   0  0  0  0  0  0  0  0  0  0  0  0
  145.3875  143.6545  153.0855 C   0  0  0  0  0  0  0  0  0  0  0  0
  144.4290  144.6558  153.3362 C   0  0  0  0  0  0  0  0  0  0  0  0
  143.8236  144.7493  154.6040 C   0  0  0  0  0  0  0  0  0  0  0  0
  144.1756  143.8402  155.6202 C   0  0  0  0  0  0  0  0  0  0  0  0
  145.1323  142.8366  155.3708 C   0  0  0  0  0  0  0  0  0  0  0  0
  145.4578  141.9639  156.3545 F   0  0  0  0  0  0  0  0  0  0  0  0
  152.3766  138.3033  158.4950 H   0  0  0  0  0  0  0  0  0  0  0  0
  151.7685  138.7142  156.8877 H   0  0  0  0  0  0  0  0  0  0  0  0
  150.6347  138.4047  158.2173 H   0  0  0  0  0  0  0  0  0  0  0  0
  153.6013  143.0396  160.5567 H   0  0  0  0  0  0  0  0  0  0  0  0
  152.6861  145.3375  160.3231 H   0  0  0  0  0  0  0  0  0  0  0  0
  150.7470  145.7721  158.8294 H   0  0  0  0  0  0  0  0  0  0  0  0
  149.7087  143.8996  157.5553 H   0  0  0  0  0  0  0  0  0  0  0  0
  149.3338  139.8804  156.9737 H   0  0  0  0  0  0  0  0  0  0  0  0
  148.8052  141.5334  157.1102 H   0  0  0  0  0  0  0  0  0  0  0  0
  150.3920  142.2024  155.2723 H   0  0  0  0  0  0  0  0  0  0  0  0
  150.8289  139.4442  154.9233 H   0  0  0  0  0  0  0  0  0  0  0  0
  149.2964  140.6886  153.3967 H   0  0  0  0  0  0  0  0  0  0  0  0
  148.3843  139.9848  154.7232 H   0  0  0  0  0  0  0  0  0  0  0  0
  146.8935  141.5515  152.7420 H   0  0  0  0  0  0  0  0  0  0  0  0
  146.3990  140.7084  154.1969 H   0  0  0  0  0  0  0  0  0  0  0  0
  145.8464  143.5873  152.1099 H   0  0  0  0  0  0  0  0  0  0  0  0
  144.1581  145.3511  152.5554 H   0  0  0  0  0  0  0  0  0  0  0  0
  143.0886  145.5168  154.7968 H   0  0  0  0  0  0  0  0  0  0  0  0
  143.7099  143.9111  156.5922 H   0  0  0  0  0  0  0  0  0  0  0  0
  1  2  1  0  0  0  0
  1 24  1  0  0  0  0
  1 25  1  0  0  0  0
  1 26  1  0  0  0  0
  2 10  1  0  0  0  0
  2  3  2  0  0  0  0
  3  4  1  0  0  0  0
  4  9  2  0  0  0  0
  4  5  1  0  0  0  0
  5  6  2  0  0  0  0
  5 27  1  0  0  0  0
  6  7  1  0  0  0  0
  6 28  1  0  0  0  0
  7  8  2  0  0  0  0
  7 29  1  0  0  0  0
  8  9  1  0  0  0  0
  8 30  1  0  0  0  0
  9 10  1  0  0  0  0
 10 11  1  0  0  0  0
 11 12  1  0  0  0  0
 11 31  1  0  0  0  0
 11 32  1  0  0  0  0
 12 13  1  0  0  0  0
 12 14  1  0  0  0  0
 12 33  1  0  0  0  0
 13 34  1  0  0  0  0
 14 15  1  0  0  0  0
 14 35  1  0  0  0  0
 14 36  1  0  0  0  0
 15 16  1  0  0  0  0
 16 17  1  0  0  0  0
 16 37  1  0  0  0  0
 16 38  1  0  0  0  0
 17 22  1  0  0  0  0
 17 18  2  0  0  0  0
 18 19  1  0  0  0  0
 18 39  1  0  0  0  0
 19 20  2  0  0  0  0
 19 40  1  0  0  0  0
 20 21  1  0  0  0  0
 20 41  1  0  0  0  0
 21 22  2  0  0  0  0
 21 42  1  0  0  0  0
 22 23  1  0  0  0  0
M  END
> <s_m_source_file>
AV-unprocessed.smi

> <i_m_source_file_index>
1288

> <i_lp_mmshare_version>
43012

> <i_f3d_flags>
0

> <s_epik_input>
W2NIXTFbY0hdW2NIXVtjSF1jKGMxMiluKGMobjIpW0NIM10pW0NIMl1bQ0BIXShbT0hdKVtDSDJdT1tDSDJdYzNbY0hdW2NIXVtjSF1bY0hdYzNG

> <s_epik_cmdline>
J2VwaWtfcHl0aG9uJywgJy1waCcsICc3LjAnLCAnLXRuJywgJzgnLCAnLW1hJywgJzIwMCcsICctbWV0YWxfYmluZGluZycsICctaW1hZScsICc8aW5maWxlLm1hZT4nLCAnLW9tYWUnLCAnPG91dGZpbGUubWFlPic=

> <r_epik_Ionization_Penalty>
0.132603

> <r_epik_Ionization_Penalty_Charging>
0

> <r_epik_Ionization_Penalty_Neutral>
0.132603

> <r_epik_State_Penalty>
0.121982

> <r_epik_Charging_Adjusted_Penalty>
0.121982

> <i_epik_Tot_Q>
0

> <i_epik_Tot_abs_Q>
0

> <r_epik_Metal_State_Penalty>
0.000135431

> <b_epik_Metal_Only>
0

> <s_lp_Force_Field>
OPLS_2005

> <r_lp_Energy>
16.0492

> <b_lp_Chiralities_Consistent>
1

> <s_lp_Variant>
AV-unprocessed.smi:1288-2

> <Gold.Version>
5.8.1

> <Gold.Id.Protein>
6NUR|6NUR_protein|mol2

> <Gold.PLP.Fitness>
54.1700

> <Gold.PLP.PLP>
-52.6377

> <Gold.PLP.part.hbond>
-1.2966

> <Gold.PLP.part.metal>
0.0000

> <Gold.PLP.part.buried>
-8.4377

> <Gold.PLP.part.nonpolar>
-43.5446

> <Gold.PLP.part.repulsive>
1.0563

> <Gold.PLP.ligand.clash>
0.0000

> <Gold.PLP.ligand.torsion>
0.7875

> <Gold.PLP.Chemscore.Hbond>
1.0000

> <Gold.PLP.Chemscore.CHOScore>
0.0000

> <Gold.PLP.Chemscore.Metal>
0.0000

> <Gold.Chemscore.Hbonds>
donor molecule, donor type, donor heavy atom, donor atom, acceptor molecule, acceptor atom, score
      P1  H  7989  7998       L1    13  1.00

> <Gold.PLP.Chemscore.Internal.Correction>
0.1072

> <Gold.Rescore>
     Score         DG    S(hbond)    S(metal)    S(lipo)     H(rot)  DE(clash)    DE(int)     intcor
     16.43     -17.59       0.48        0.00     139.82       2.29       0.36       0.79       ----

> <Gold.Chemscore.Fitness>
16.4339

> <Gold.Chemscore.DG>
-17.5895

> <Gold.Chemscore.ZeroCoef>
-5.4800

> <Gold.Chemscore.Hbond>
0.4801

> <Gold.Chemscore.Metal>
0.0000

> <Gold.Chemscore.Lipo>
139.8198

> <Gold.Chemscore.Internal_Hbond>
0.0000

> <Gold.Chemscore.DEClash>
0.3628

> <Gold.Chemscore.DEInternal>
0.7927

> <Gold.Chemscore.Rot>
2.2863

> <Gold.Chemscore.Internal.Correction>
   9.000000E+99

> <Gold.Chemscore.Hbonds>
donor molecule, donor type, donor heavy atom, donor atom, acceptor molecule, acceptor atom, score
      P1  H  7989  7998       L1    13  0.21

> <Gold.Chemscore.Hbond.Weighted>
-1.6036

> <Gold.Chemscore.Metal.Weighted>
-0.0000

> <Gold.Chemscore.Lipo.Weighted>
-16.3589

> <Gold.Chemscore.Internal_Hbond.Weighted>
0.0000

> <Gold.Chemscore.DEClash.Weighted>
0.3628

> <Gold.Chemscore.DEInternal.Weighted>
0.7927

> <Gold.Chemscore.Rot.Weighted>
5.8530

> <Gold.Chemscore.Internal.Correction.Weighted>
   9.000000E+99

> <Gold.Protein.RotatedTorsions>
[ 6907 6896 6895 6894 ] final   -8.62 input  -60.11 | X-H torsion
[ 7974 7965 7964 7962 ] final  125.33 input  175.53 | X-H torsion
[ 8008 7997 7996 7995 ] final  -80.79 input   59.86 | X-H torsion
[ 10167 10162 10161 10158 ] final   38.12 input  -65.29 | X-H torsion
[ 10718 10713 10712 10709 ] final   82.29 input   66.30 | X-H torsion
[ 10763 10752 10751 10750 ] final   92.06 input  -60.55 | X-H torsion
[ 11005 11000 10999 10996 ] final   83.46 input  -57.11 | X-H torsion

> <Gold.Protein.ActiveResidues>
 VAL166  LYS551  ARG553  GLY616  TRP617  ASP618  TYR619  PRO620  LYS621  CYS622 
 ASP623  PHE694  ASN695  SER759  ASP760  ASP761  ALA762  ILE779  LEU786  VAL792 
 PHE793  MET794  SER795  GLU796  ALA797  LYS798  CYS799  TRP800  GLU811  SER814 

> <Gold.Protein.RotatedAtoms>
  151.4308  135.1009  159.9641 H   0  0  0  0  0  0  0  0  0  0  0  0  # atno 6907 bound_to 6896
  152.4956  133.8619  159.7265 H   0  0  0  0  0  0  0  0  0  0  0  0  # atno 6908 bound_to 6896
  150.9156  133.6885  159.2872 H   0  0  0  0  0  0  0  0  0  0  0  0  # atno 6909 bound_to 6896
  145.0742  139.3706  143.4942 H   0  0  0  0  0  0  0  0  0  0  0  0  # atno 7974 bound_to 7965
  154.5918  140.0657  156.9249 H   0  0  0  0  0  0  0  0  0  0  0  0  # atno 8008 bound_to 7997
  155.2282  140.3335  155.4288 H   0  0  0  0  0  0  0  0  0  0  0  0  # atno 8009 bound_to 7997
  156.2261  140.1820  156.7344 H   0  0  0  0  0  0  0  0  0  0  0  0  # atno 8010 bound_to 7997
  140.3967  144.1779  150.6132 H   0  0  0  0  0  0  0  0  0  0  0  0  # atno 10167 bound_to 10162
  157.6853  131.0041  150.2352 H   0  0  0  0  0  0  0  0  0  0  0  0  # atno 10718 bound_to 10713
  153.2150  135.4375  155.0424 H   0  0  0  0  0  0  0  0  0  0  0  0  # atno 10763 bound_to 10752
  154.8220  135.3342  154.7012 H   0  0  0  0  0  0  0  0  0  0  0  0  # atno 10764 bound_to 10752
  153.7447  135.7002  153.5015 H   0  0  0  0  0  0  0  0  0  0  0  0  # atno 10765 bound_to 10752
  139.9030  134.8146  156.2312 H   0  0  0  0  0  0  0  0  0  0  0  0  # atno 11005 bound_to 11000
  146.3529  140.0502  142.8636 LP  0  0  0  0  0  0  0  0  0  0  0  0  # atno 17320 bound_to 7965
  145.1255  140.9488  143.4575 LP  0  0  0  0  0  0  0  0  0  0  0  0  # atno 17321 bound_to 7965
  140.4783  143.2388  151.8992 LP  0  0  0  0  0  0  0  0  0  0  0  0  # atno 17342 bound_to 10162
  139.4786  144.5297  151.8684 LP  0  0  0  0  0  0  0  0  0  0  0  0  # atno 17343 bound_to 10162
  156.2977  130.3754  149.7780 LP  0  0  0  0  0  0  0  0  0  0  0  0  # atno 17370 bound_to 10713
  156.5419  130.8304  151.3272 LP  0  0  0  0  0  0  0  0  0  0  0  0  # atno 17371 bound_to 10713
  141.0344  133.6971  156.1487 LP  0  0  0  0  0  0  0  0  0  0  0  0  # atno 17394 bound_to 11000
  140.7048  134.4525  157.5584 LP  0  0  0  0  0  0  0  0  0  0  0  0  # atno 17395 bound_to 11000

$$$$
