AV-unprocessed.smi:99|AV-procd|sdf|878|dock1
  -GOLD-   2262017353D 1   1.00000     0.00000
 Structure written by MMmdl.
 53 56  0  0  0  0  0  0  0  0  1 V2000
  151.6589  135.5599  156.1988 O   0  0  0  0  0  0  0  0  0  0  0  0
  150.5284  135.6446  155.7144 C   0  0  0  0  0  0  0  0  0  0  0  0
  149.8138  136.7863  155.6857 O   0  0  0  0  0  0  0  0  0  0  0  0
  150.4330  138.0197  156.0105 C   0  0  0  0  0  0  0  0  0  0  0  0
  150.0478  139.0663  154.9603 C   0  0  1  0  0  0  0  0  0  0  0  0
  149.3155  138.4540  153.9005 O   0  0  0  0  0  0  0  0  0  0  0  0
  148.3908  139.3560  153.3599 C   0  0  1  0  0  0  0  0  0  0  0  0
  147.0079  138.7457  153.4189 N   0  0  0  0  0  0  0  0  0  0  0  0
  146.4280  138.3582  154.6206 C   0  0  0  0  0  0  0  0  0  0  0  0
  145.1848  137.8275  154.7030 C   0  0  0  0  0  0  0  0  0  0  0  0
  144.3774  137.6418  153.5018 C   0  0  0  0  0  0  0  0  0  0  0  0
  143.2441  137.1669  153.4760 O   0  0  0  0  0  0  0  0  0  0  0  0
  144.9934  138.0591  152.3186 N   0  0  0  0  0  0  0  0  0  0  0  0
  146.2716  138.6110  152.2214 C   0  0  0  0  0  0  0  0  0  0  0  0
  146.7087  138.9638  151.1267 O   0  0  0  0  0  0  0  0  0  0  0  0
  148.4362  140.6383  154.2040 C   0  0  2  0  0  0  0  0  0  0  0  0
  149.2321  141.6192  153.5641 O   0  0  0  0  0  0  0  0  0  0  0  0
  149.0746  140.1159  155.4828 C   0  0  2  0  0  0  0  0  0  0  0  0
  149.6831  141.1364  156.2660 O   0  0  0  0  0  0  0  0  0  0  0  0
  150.2315  140.8457  157.4657 C   0  0  0  0  0  0  0  0  0  0  0  0
  150.0224  139.7951  158.0752 O   0  0  0  0  0  0  0  0  0  0  0  0
  151.1106  141.9339  157.9814 C   0  0  0  0  0  0  0  0  0  0  0  0
  151.1318  143.1810  157.3144 C   0  0  0  0  0  0  0  0  0  0  0  0
  151.9542  144.2273  157.7755 C   0  0  0  0  0  0  0  0  0  0  0  0
  152.7657  144.0391  158.9092 C   0  0  0  0  0  0  0  0  0  0  0  0
  152.7531  142.8033  159.5821 C   0  0  0  0  0  0  0  0  0  0  0  0
  151.9309  141.7557  159.1227 C   0  0  0  0  0  0  0  0  0  0  0  0
  149.8073  134.4927  155.0993 C   0  0  0  0  0  0  0  0  0  0  0  0
  148.6186  134.7283  154.3695 C   0  0  0  0  0  0  0  0  0  0  0  0
  147.9188  133.6610  153.7736 C   0  0  0  0  0  0  0  0  0  0  0  0
  148.3992  132.3448  153.9004 C   0  0  0  0  0  0  0  0  0  0  0  0
  149.5798  132.0967  154.6245 C   0  0  0  0  0  0  0  0  0  0  0  0
  150.2809  133.1628  155.2212 C   0  0  0  0  0  0  0  0  0  0  0  0
  144.4672  137.9579  151.4629 H   0  0  0  0  0  0  0  0  0  0  0  0
  150.1356  138.3491  157.0069 H   0  0  0  0  0  0  0  0  0  0  0  0
  151.5152  137.8829  156.0174 H   0  0  0  0  0  0  0  0  0  0  0  0
  150.9338  139.5532  154.5490 H   0  0  0  0  0  0  0  0  0  0  0  0
  148.6146  139.5042  152.3014 H   0  0  0  0  0  0  0  0  0  0  0  0
  146.9737  138.4811  155.5442 H   0  0  0  0  0  0  0  0  0  0  0  0
  144.7838  137.5408  155.6645 H   0  0  0  0  0  0  0  0  0  0  0  0
  147.4383  141.0457  154.3718 H   0  0  0  0  0  0  0  0  0  0  0  0
  149.2509  141.4328  152.6378 H   0  0  0  0  0  0  0  0  0  0  0  0
  148.3137  139.6000  156.0715 H   0  0  0  0  0  0  0  0  0  0  0  0
  150.5182  143.3489  156.4409 H   0  0  0  0  0  0  0  0  0  0  0  0
  151.9623  145.1751  157.2575 H   0  0  0  0  0  0  0  0  0  0  0  0
  153.3968  144.8414  159.2621 H   0  0  0  0  0  0  0  0  0  0  0  0
  153.3755  142.6578  160.4526 H   0  0  0  0  0  0  0  0  0  0  0  0
  151.9455  140.8201  159.6625 H   0  0  0  0  0  0  0  0  0  0  0  0
  148.2306  135.7305  154.2580 H   0  0  0  0  0  0  0  0  0  0  0  0
  147.0131  133.8533  153.2177 H   0  0  0  0  0  0  0  0  0  0  0  0
  147.8631  131.5267  153.4424 H   0  0  0  0  0  0  0  0  0  0  0  0
  149.9500  131.0868  154.7221 H   0  0  0  0  0  0  0  0  0  0  0  0
  151.1846  132.9373  155.7684 H   0  0  0  0  0  0  0  0  0  0  0  0
  1  2  2  0  0  0  0
  2  3  1  0  0  0  0
  2 28  1  0  0  0  0
  3  4  1  0  0  0  0
  4  5  1  0  0  0  0
  4 35  1  0  0  0  0
  4 36  1  0  0  0  0
  5 18  1  0  0  0  0
  5  6  1  0  0  0  0
  5 37  1  0  0  0  0
  6  7  1  0  0  0  0
  7  8  1  0  0  0  0
  7 16  1  0  0  0  0
  7 38  1  0  0  0  0
  8 14  1  0  0  0  0
  8  9  1  0  0  0  0
  9 10  2  0  0  0  0
  9 39  1  0  0  0  0
 10 11  1  0  0  0  0
 10 40  1  0  0  0  0
 11 12  2  0  0  0  0
 11 13  1  0  0  0  0
 13 34  1  0  0  0  0
 13 14  1  0  0  0  0
 14 15  2  0  0  0  0
 16 17  1  0  0  0  0
 16 18  1  0  0  0  0
 16 41  1  0  0  0  0
 17 42  1  0  0  0  0
 18 19  1  0  0  0  0
 18 43  1  0  0  0  0
 19 20  1  0  0  0  0
 20 21  2  0  0  0  0
 20 22  1  0  0  0  0
 22 27  1  0  0  0  0
 22 23  2  0  0  0  0
 23 24  1  0  0  0  0
 23 44  1  0  0  0  0
 24 25  2  0  0  0  0
 24 45  1  0  0  0  0
 25 26  1  0  0  0  0
 25 46  1  0  0  0  0
 26 27  2  0  0  0  0
 26 47  1  0  0  0  0
 27 48  1  0  0  0  0
 28 33  1  0  0  0  0
 28 29  2  0  0  0  0
 29 30  1  0  0  0  0
 29 49  1  0  0  0  0
 30 31  2  0  0  0  0
 30 50  1  0  0  0  0
 31 32  1  0  0  0  0
 31 51  1  0  0  0  0
 32 33  2  0  0  0  0
 32 52  1  0  0  0  0
 33 53  1  0  0  0  0
M  END
> <s_m_source_file>
AV-unprocessed.smi

> <i_m_source_file_index>
99

> <i_lp_mmshare_version>
43012

> <i_f3d_flags>
0

> <s_epik_input>
W2NIXTFbY0hdW2NIXVtjSF1bY0hdYzFDKD1PKU9bQ0gyXVtDQEBIXTJPW0NAQEhdKG4zW2NIXVtjSF1jKD1PKVtuSF1jMz1PKVtDQEBIXShbT0hdKVtDQEhdMk9DKD1PKWM0W2NIXVtjSF1bY0hdW2NIXVtjSF00

> <s_epik_cmdline>
J2VwaWtfcHl0aG9uJywgJy1waCcsICc3LjAnLCAnLXRuJywgJzgnLCAnLW1hJywgJzIwMCcsICctbWV0YWxfYmluZGluZycsICctaW1hZScsICc8aW5maWxlLm1hZT4nLCAnLW9tYWUnLCAnPG91dGZpbGUubWFlPic=

> <r_lp_tautomer_probability>
1

> <r_epik_Ionization_Penalty>
0.00454555

> <r_epik_Ionization_Penalty_Charging>
0.0045191

> <r_epik_Ionization_Penalty_Neutral>
2.64449e-05

> <r_epik_State_Penalty>
-0

> <r_epik_Charging_Adjusted_Penalty>
0.0045191

> <i_epik_Tot_Q>
0

> <i_epik_Tot_abs_Q>
0

> <r_epik_Metal_State_Penalty>
1.27877

> <b_epik_Metal_Only>
0

> <s_epik_Chemistry_Notes>
This compound has an ester and may undergo hydrolysis at high or low pH. This compound contains an acetal/aminal-like group ( X-CH(R)-Y where X, Y are N, S, or O) that may be acid/base labile, releasing an aldehyde.

> <s_lp_Force_Field>
OPLS_2005

> <r_lp_Energy>
38.7636

> <b_lp_Chiralities_Consistent>
1

> <s_lp_Variant>
AV-unprocessed.smi:99-14

> <Gold.Version>
5.8.1

> <Gold.Id.Protein>
6NUR|6NUR_protein|mol2

> <Gold.PLP.Fitness>
60.9603

> <Gold.PLP.PLP>
-51.7269

> <Gold.PLP.part.hbond>
-6.7796

> <Gold.PLP.part.metal>
0.0000

> <Gold.PLP.part.buried>
-1.1615

> <Gold.PLP.part.nonpolar>
-46.6104

> <Gold.PLP.part.repulsive>
2.7065

> <Gold.PLP.ligand.clash>
0.2696

> <Gold.PLP.ligand.torsion>
1.4427

> <Gold.PLP.Chemscore.Hbond>
3.8807

> <Gold.PLP.Chemscore.CHOScore>
0.0000

> <Gold.PLP.Chemscore.Metal>
0.0000

> <Gold.Chemscore.Hbonds>
donor molecule, donor type, donor heavy atom, donor atom, acceptor molecule, acceptor atom, score
      L1  H    13    34       P1 10171  1.00
      L1  H    17    42       P1  7957  0.94
      P1  H  7954  7966       L1    15  0.52
      P1  H 10752 10763       L1     1  1.00

> <Gold.PLP.Chemscore.Internal.Correction>
0.7465

> <Gold.Rescore>
     Score         DG    S(hbond)    S(metal)    S(lipo)     H(rot)  DE(clash)    DE(int)     intcor
     18.27     -23.66       3.75        0.00     118.08       3.19       2.50       2.90       ----

> <Gold.Chemscore.Fitness>
18.2663

> <Gold.Chemscore.DG>
-23.6637

> <Gold.Chemscore.ZeroCoef>
-5.4800

> <Gold.Chemscore.Hbond>
3.7530

> <Gold.Chemscore.Metal>
0.0000

> <Gold.Chemscore.Lipo>
118.0842

> <Gold.Chemscore.Internal_Hbond>
0.0000

> <Gold.Chemscore.DEClash>
2.4966

> <Gold.Chemscore.DEInternal>
2.9008

> <Gold.Chemscore.Rot>
3.1903

> <Gold.Chemscore.Internal.Correction>
   9.000000E+99

> <Gold.Chemscore.Hbonds>
donor molecule, donor type, donor heavy atom, donor atom, acceptor molecule, acceptor atom, score
      L1  H    13    34       P1 10171  0.96
      L1  H    17    42       P1  7957  0.84
      P1  H  7954  7966       L1    15  0.52
      P1  H 10752 10763       L1     1  0.88

> <Gold.Chemscore.Hbond.Weighted>
-12.5349

> <Gold.Chemscore.Metal.Weighted>
-0.0000

> <Gold.Chemscore.Lipo.Weighted>
-13.8158

> <Gold.Chemscore.Internal_Hbond.Weighted>
0.0000

> <Gold.Chemscore.DEClash.Weighted>
2.4966

> <Gold.Chemscore.DEInternal.Weighted>
2.9008

> <Gold.Chemscore.Rot.Weighted>
8.1671

> <Gold.Chemscore.Internal.Correction.Weighted>
   9.000000E+99

> <Gold.Protein.RotatedTorsions>
[ 6907 6896 6895 6894 ] final   36.77 input  -60.11 | X-H torsion
[ 7974 7965 7964 7962 ] final   65.29 input  175.53 | X-H torsion
[ 8008 7997 7996 7995 ] final  110.77 input   59.86 | X-H torsion
[ 10167 10162 10161 10158 ] final  151.28 input  -65.29 | X-H torsion
[ 10718 10713 10712 10709 ] final   29.62 input   66.30 | X-H torsion
[ 10763 10752 10751 10750 ] final   79.64 input  -60.55 | X-H torsion
[ 11005 11000 10999 10996 ] final   50.49 input  -57.11 | X-H torsion

> <Gold.Protein.ActiveResidues>
 VAL166  LYS551  ARG553  GLY616  TRP617  ASP618  TYR619  PRO620  LYS621  CYS622 
 ASP623  PHE694  ASN695  SER759  ASP760  ASP761  ALA762  ILE779  LEU786  VAL792 
 PHE793  MET794  SER795  GLU796  ALA797  LYS798  CYS799  TRP800  GLU811  SER814 

> <Gold.Protein.RotatedAtoms>
  152.1343  134.9111  160.0556 H   0  0  0  0  0  0  0  0  0  0  0  0  # atno 6907 bound_to 6896
  152.0204  133.3891  159.4264 H   0  0  0  0  0  0  0  0  0  0  0  0  # atno 6908 bound_to 6896
  150.6859  134.3554  159.4971 H   0  0  0  0  0  0  0  0  0  0  0  0  # atno 6909 bound_to 6896
  145.8402  139.3191  143.0936 H   0  0  0  0  0  0  0  0  0  0  0  0  # atno 7974 bound_to 7965
  156.2076  140.3032  155.9662 H   0  0  0  0  0  0  0  0  0  0  0  0  # atno 8008 bound_to 7997
  155.2802  140.0437  157.3032 H   0  0  0  0  0  0  0  0  0  0  0  0  # atno 8009 bound_to 7997
  154.5655  140.2333  155.8279 H   0  0  0  0  0  0  0  0  0  0  0  0  # atno 8010 bound_to 7997
  139.4842  144.5454  151.7493 H   0  0  0  0  0  0  0  0  0  0  0  0  # atno 10167 bound_to 10162
  157.2490  130.7106  149.6396 H   0  0  0  0  0  0  0  0  0  0  0  0  # atno 10718 bound_to 10713
  153.0969  135.4832  154.8794 H   0  0  0  0  0  0  0  0  0  0  0  0  # atno 10763 bound_to 10752
  154.7334  135.3065  154.8855 H   0  0  0  0  0  0  0  0  0  0  0  0  # atno 10764 bound_to 10752
  153.9484  135.6826  153.4797 H   0  0  0  0  0  0  0  0  0  0  0  0  # atno 10765 bound_to 10752
  140.1013  134.5077  155.8760 H   0  0  0  0  0  0  0  0  0  0  0  0  # atno 11005 bound_to 11000
  145.9473  140.8935  143.0277 LP  0  0  0  0  0  0  0  0  0  0  0  0  # atno 17320 bound_to 7965
  144.6734  140.1631  143.7420 LP  0  0  0  0  0  0  0  0  0  0  0  0  # atno 17321 bound_to 7965
  140.4999  144.1184  150.5969 LP  0  0  0  0  0  0  0  0  0  0  0  0  # atno 17342 bound_to 10162
  140.4074  143.2674  151.9875 LP  0  0  0  0  0  0  0  0  0  0  0  0  # atno 17343 bound_to 10162
  155.9667  130.4434  150.5418 LP  0  0  0  0  0  0  0  0  0  0  0  0  # atno 17370 bound_to 10713
  157.3298  131.0697  151.1869 LP  0  0  0  0  0  0  0  0  0  0  0  0  # atno 17371 bound_to 10713
  141.2106  133.6697  156.6524 LP  0  0  0  0  0  0  0  0  0  0  0  0  # atno 17394 bound_to 11000
  140.3216  134.8003  157.4257 LP  0  0  0  0  0  0  0  0  0  0  0  0  # atno 17395 bound_to 11000

$$$$
