AV-unprocessed.smi:25|AV-procd|sdf|180|dock5
  -GOLD-   2262015443D 1   1.00000     0.00000
 Structure written by MMmdl.
 47 50  0  0  0  0  0  0  0  0  1 V2000
  154.6941  140.5664  160.8528 C   0  0  0  0  0  0  0  0  0  0  0  0
  153.1912  140.9054  160.7952 C   0  0  1  0  0  0  0  0  0  0  0  0
  152.9321  142.3855  161.1563 C   0  0  0  0  0  0  0  0  0  0  0  0
  152.3830  142.9560  159.8856 C   0  0  0  0  0  0  0  0  0  0  0  0
  152.0653  144.3061  159.6569 C   0  0  0  0  0  0  0  0  0  0  0  0
  151.5795  144.6730  158.3863 C   0  0  0  0  0  0  0  0  0  0  0  0
  151.4305  143.6974  157.3762 C   0  0  0  0  0  0  0  0  0  0  0  0
  151.7563  142.3458  157.6238 C   0  0  0  0  0  0  0  0  0  0  0  0
  152.2279  141.9754  158.9066 C   0  0  0  0  0  0  0  0  0  0  0  0
  152.6303  140.7118  159.4376 N   0  0  0  0  0  0  0  0  0  0  0  0
  152.4268  139.4574  158.9476 C   0  0  0  0  0  0  0  0  0  0  0  0
  152.7090  138.4616  159.6188 O   0  0  0  0  0  0  0  0  0  0  0  0
  151.8112  139.2320  157.5530 C   0  0  0  0  0  0  0  0  0  0  0  0
  150.9025  138.0638  157.4810 N   0  0  0  0  0  0  0  0  0  0  0  0
  151.1755  137.0458  156.5325 C   0  0  0  0  0  0  0  0  0  0  0  0
  152.1411  137.1234  155.7714 O   0  0  0  0  0  0  0  0  0  0  0  0
  150.2522  135.9167  156.5355 C   0  0  0  0  0  0  0  0  0  0  0  0
  150.4382  134.9023  155.6740 F   0  0  0  0  0  0  0  0  0  0  0  0
  149.2142  135.8707  157.3951 C   0  0  0  0  0  0  0  0  0  0  0  0
  148.9582  136.8718  158.3139 N   0  0  0  0  0  0  0  0  0  0  0  0
  147.7946  136.7764  159.2753 C   0  0  2  0  0  0  0  0  0  0  0  0
  147.0168  135.4769  159.0382 C   0  0  0  0  0  0  0  0  0  0  0  0
  145.9154  135.9371  158.1080 C   0  0  0  0  0  0  0  0  0  0  0  0
  145.6495  137.3472  158.6223 C   0  0  0  0  0  0  0  0  0  0  0  0
  146.9192  137.8419  159.0395 O   0  0  0  0  0  0  0  0  0  0  0  0
  149.8156  137.9910  158.3854 C   0  0  0  0  0  0  0  0  0  0  0  0
  149.6275  138.8750  159.2242 O   0  0  0  0  0  0  0  0  0  0  0  0
  155.0993  140.7661  161.8451 H   0  0  0  0  0  0  0  0  0  0  0  0
  155.2603  141.1631  160.1369 H   0  0  0  0  0  0  0  0  0  0  0  0
  154.8858  139.5163  160.6333 H   0  0  0  0  0  0  0  0  0  0  0  0
  152.6567  140.2771  161.5101 H   0  0  0  0  0  0  0  0  0  0  0  0
  152.1930  142.4801  161.9526 H   0  0  0  0  0  0  0  0  0  0  0  0
  153.8364  142.9158  161.4576 H   0  0  0  0  0  0  0  0  0  0  0  0
  152.1948  145.0454  160.4336 H   0  0  0  0  0  0  0  0  0  0  0  0
  151.3283  145.7033  158.1818 H   0  0  0  0  0  0  0  0  0  0  0  0
  151.0678  143.9892  156.4016 H   0  0  0  0  0  0  0  0  0  0  0  0
  151.6391  141.6554  156.8086 H   0  0  0  0  0  0  0  0  0  0  0  0
  151.2778  140.1339  157.2518 H   0  0  0  0  0  0  0  0  0  0  0  0
  152.6218  139.1091  156.8349 H   0  0  0  0  0  0  0  0  0  0  0  0
  148.5680  135.0066  157.3575 H   0  0  0  0  0  0  0  0  0  0  0  0
  148.2163  136.8647  160.2779 H   0  0  0  0  0  0  0  0  0  0  0  0
  147.6435  134.6836  158.6287 H   0  0  0  0  0  0  0  0  0  0  0  0
  146.5992  135.1431  159.9889 H   0  0  0  0  0  0  0  0  0  0  0  0
  146.2777  135.9697  157.0799 H   0  0  0  0  0  0  0  0  0  0  0  0
  145.0324  135.2984  158.1393 H   0  0  0  0  0  0  0  0  0  0  0  0
  145.1963  137.9915  157.8689 H   0  0  0  0  0  0  0  0  0  0  0  0
  144.9859  137.3160  159.4873 H   0  0  0  0  0  0  0  0  0  0  0  0
  1  2  1  0  0  0  0
  1 28  1  0  0  0  0
  1 29  1  0  0  0  0
  1 30  1  0  0  0  0
  2 10  1  0  0  0  0
  2  3  1  0  0  0  0
  2 31  1  0  0  0  0
  3  4  1  0  0  0  0
  3 32  1  0  0  0  0
  3 33  1  0  0  0  0
  4  9  2  0  0  0  0
  4  5  1  0  0  0  0
  5  6  2  0  0  0  0
  5 34  1  0  0  0  0
  6  7  1  0  0  0  0
  6 35  1  0  0  0  0
  7  8  2  0  0  0  0
  7 36  1  0  0  0  0
  8  9  1  0  0  0  0
  8 37  1  0  0  0  0
  9 10  1  0  0  0  0
 10 11  1  0  0  0  0
 11 12  2  0  0  0  0
 11 13  1  0  0  0  0
 13 14  1  0  0  0  0
 13 38  1  0  0  0  0
 13 39  1  0  0  0  0
 14 26  1  0  0  0  0
 14 15  1  0  0  0  0
 15 16  2  0  0  0  0
 15 17  1  0  0  0  0
 17 18  1  0  0  0  0
 17 19  2  0  0  0  0
 19 20  1  0  0  0  0
 19 40  1  0  0  0  0
 20 21  1  0  0  0  0
 20 26  1  0  0  0  0
 21 25  1  0  0  0  0
 21 22  1  0  0  0  0
 21 41  1  0  0  0  0
 22 23  1  0  0  0  0
 22 42  1  0  0  0  0
 22 43  1  0  0  0  0
 23 24  1  0  0  0  0
 23 44  1  0  0  0  0
 23 45  1  0  0  0  0
 24 25  1  0  0  0  0
 24 46  1  0  0  0  0
 24 47  1  0  0  0  0
 26 27  2  0  0  0  0
M  END
> <s_m_source_file>
AV-unprocessed.smi

> <i_m_source_file_index>
25

> <i_lp_mmshare_version>
43012

> <i_f3d_flags>
0

> <s_epik_input>
W2NIXTFbY0hdW2NIXVtjSF1jKGMxMilOKFtDQEhdKFtDSDNdKVtDSDJdMilDKD1PKVtDSDJdbjNjKD1PKWMoRilbY0hdbihjMz1PKVtDQEBIXTRbQ0gyXVtDSDJdW0NIMl1PNA==

> <s_epik_cmdline>
J2VwaWtfcHl0aG9uJywgJy1waCcsICc3LjAnLCAnLXRuJywgJzgnLCAnLW1hJywgJzIwMCcsICctbWV0YWxfYmluZGluZycsICctaW1hZScsICc8aW5maWxlLm1hZT4nLCAnLW9tYWUnLCAnPG91dGZpbGUubWFlPic=

> <r_lp_tautomer_probability>
1

> <r_epik_Ionization_Penalty>
1.67943e-06

> <r_epik_Ionization_Penalty_Charging>
3.79603e-09

> <r_epik_Ionization_Penalty_Neutral>
1.67563e-06

> <r_epik_State_Penalty>
-0

> <r_epik_Charging_Adjusted_Penalty>
3.79603e-09

> <i_epik_Tot_Q>
0

> <i_epik_Tot_abs_Q>
0

> <r_epik_Metal_State_Penalty>
-0

> <b_epik_Metal_Only>
0

> <s_epik_Chemistry_Notes>
This compound contains an acetal/aminal-like group ( X-CH(R)-Y where X, Y are N, S, or O) that may be acid/base labile, releasing an aldehyde.

> <s_lp_Force_Field>
OPLS_2005

> <r_lp_Energy>
55.2786

> <b_lp_Chiralities_Consistent>
1

> <s_lp_Variant>
AV-unprocessed.smi:25-2

> <Gold.Version>
5.8.1

> <Gold.Id.Protein>
6NUR|6NUR_protein|mol2

> <Gold.PLP.Fitness>
48.8325

> <Gold.PLP.PLP>
-44.3039

> <Gold.PLP.part.hbond>
-3.3842

> <Gold.PLP.part.metal>
0.0000

> <Gold.PLP.part.buried>
-3.8439

> <Gold.PLP.part.nonpolar>
-38.4117

> <Gold.PLP.part.repulsive>
0.0315

> <Gold.PLP.ligand.clash>
0.0000

> <Gold.PLP.ligand.torsion>
0.3730

> <Gold.PLP.Chemscore.Hbond>
1.7440

> <Gold.PLP.Chemscore.CHOScore>
0.0000

> <Gold.PLP.Chemscore.Metal>
0.0000

> <Gold.Chemscore.Hbonds>
donor molecule, donor type, donor heavy atom, donor atom, acceptor molecule, acceptor atom, score
      P1  H  6934  6947       L1    25  0.33
      P1  H 10752 10764       L1    16  0.93

> <Gold.PLP.Chemscore.Internal.Correction>
0.0426

> <Gold.Rescore>
     Score         DG    S(hbond)    S(metal)    S(lipo)     H(rot)  DE(clash)    DE(int)     intcor
     16.96     -19.75       1.86        0.00     102.79       1.55       0.04       2.75       ----

> <Gold.Chemscore.Fitness>
16.9595

> <Gold.Chemscore.DG>
-19.7497

> <Gold.Chemscore.ZeroCoef>
-5.4800

> <Gold.Chemscore.Hbond>
1.8589

> <Gold.Chemscore.Metal>
0.0000

> <Gold.Chemscore.Lipo>
102.7883

> <Gold.Chemscore.Internal_Hbond>
0.0000

> <Gold.Chemscore.DEClash>
0.0408

> <Gold.Chemscore.DEInternal>
2.7494

> <Gold.Chemscore.Rot>
1.5489

> <Gold.Chemscore.Internal.Correction>
   9.000000E+99

> <Gold.Chemscore.Hbonds>
donor molecule, donor type, donor heavy atom, donor atom, acceptor molecule, acceptor atom, score
      P1  H  6934  6947       L1    25  0.12
      P1  H 10752 10764       L1    16  0.83

> <Gold.Chemscore.Hbond.Weighted>
-6.2086

> <Gold.Chemscore.Metal.Weighted>
-0.0000

> <Gold.Chemscore.Lipo.Weighted>
-12.0262

> <Gold.Chemscore.Internal_Hbond.Weighted>
0.0000

> <Gold.Chemscore.DEClash.Weighted>
0.0408

> <Gold.Chemscore.DEInternal.Weighted>
2.7494

> <Gold.Chemscore.Rot.Weighted>
3.9651

> <Gold.Chemscore.Internal.Correction.Weighted>
   9.000000E+99

> <Gold.Protein.RotatedTorsions>
[ 6907 6896 6895 6894 ] final -101.11 input  -60.11 | X-H torsion
[ 7974 7965 7964 7962 ] final   48.60 input  175.53 | X-H torsion
[ 8008 7997 7996 7995 ] final  -92.37 input   59.86 | X-H torsion
[ 10167 10162 10161 10158 ] final  -89.27 input  -65.29 | X-H torsion
[ 10718 10713 10712 10709 ] final   14.11 input   66.30 | X-H torsion
[ 10763 10752 10751 10750 ] final  -41.46 input  -60.55 | X-H torsion
[ 11005 11000 10999 10996 ] final  174.75 input  -57.11 | X-H torsion

> <Gold.Protein.ActiveResidues>
 VAL166  LYS551  ARG553  GLY616  TRP617  ASP618  TYR619  PRO620  LYS621  CYS622 
 ASP623  PHE694  ASN695  SER759  ASP760  ASP761  ALA762  ILE779  LEU786  VAL792 
 PHE793  MET794  SER795  GLU796  ALA797  LYS798  CYS799  TRP800  GLU811  SER814 

> <Gold.Protein.RotatedAtoms>
  150.7142  134.0784  159.3888 H   0  0  0  0  0  0  0  0  0  0  0  0  # atno 6907 bound_to 6896
  151.8768  135.0466  160.0494 H   0  0  0  0  0  0  0  0  0  0  0  0  # atno 6908 bound_to 6896
  152.2600  133.5253  159.5412 H   0  0  0  0  0  0  0  0  0  0  0  0  # atno 6909 bound_to 6896
  146.0188  139.4628  142.9910 H   0  0  0  0  0  0  0  0  0  0  0  0  # atno 7974 bound_to 7965
  154.7222  140.0510  157.0650 H   0  0  0  0  0  0  0  0  0  0  0  0  # atno 8008 bound_to 7997
  155.0412  140.3169  155.4705 H   0  0  0  0  0  0  0  0  0  0  0  0  # atno 8009 bound_to 7997
  156.2819  140.2132  156.5535 H   0  0  0  0  0  0  0  0  0  0  0  0  # atno 8010 bound_to 7997
  140.3665  143.2815  151.9552 H   0  0  0  0  0  0  0  0  0  0  0  0  # atno 10167 bound_to 10162
  157.0344  130.6206  149.5740 H   0  0  0  0  0  0  0  0  0  0  0  0  # atno 10718 bound_to 10713
  153.9628  135.6737  153.4745 H   0  0  0  0  0  0  0  0  0  0  0  0  # atno 10763 bound_to 10752
  153.0830  135.4913  154.8537 H   0  0  0  0  0  0  0  0  0  0  0  0  # atno 10764 bound_to 10752
  154.7263  135.3128  154.8926 H   0  0  0  0  0  0  0  0  0  0  0  0  # atno 10765 bound_to 10752
  140.3547  134.7164  157.4291 H   0  0  0  0  0  0  0  0  0  0  0  0  # atno 11005 bound_to 11000
  145.7225  141.0070  143.1395 LP  0  0  0  0  0  0  0  0  0  0  0  0  # atno 17320 bound_to 7965
  144.6982  139.8888  143.7452 LP  0  0  0  0  0  0  0  0  0  0  0  0  # atno 17321 bound_to 7965
  139.4808  144.5946  151.7713 LP  0  0  0  0  0  0  0  0  0  0  0  0  # atno 17342 bound_to 10162
  140.5076  144.1075  150.5986 LP  0  0  0  0  0  0  0  0  0  0  0  0  # atno 17343 bound_to 10162
  156.0058  130.5145  150.7826 LP  0  0  0  0  0  0  0  0  0  0  0  0  # atno 17370 bound_to 10713
  157.5152  131.0928  151.0148 LP  0  0  0  0  0  0  0  0  0  0  0  0  # atno 17371 bound_to 10713
  140.0674  134.5910  155.8679 LP  0  0  0  0  0  0  0  0  0  0  0  0  # atno 17394 bound_to 11000
  141.2002  133.6611  156.5883 LP  0  0  0  0  0  0  0  0  0  0  0  0  # atno 17395 bound_to 11000

$$$$
