AV-unprocessed.smi:21|AV-procd|sdf|167|dock3
  -GOLD-   2262015413D 1   1.00000     0.00000
 Structure written by MMmdl.
 61 64  0  0  0  0  0  0  0  0  1 V2000
  151.6344  139.9514  155.8264 C   0  0  0  0  0  0  0  0  0  0  0  0
  152.2968  140.0702  157.0750 O   0  0  0  0  0  0  0  0  0  0  0  0
  151.4957  140.6666  158.0852 C   0  0  1  0  0  0  0  0  0  0  0  0
  152.1806  140.5390  159.4549 C   0  0  0  0  0  0  0  0  0  0  0  0
  152.4343  141.9882  159.9009 C   0  0  2  0  0  0  0  0  0  0  0  0
  152.4614  142.1656  161.4342 C   0  0  0  0  0  0  0  0  0  0  0  0
  153.7593  141.8130  162.0153 N   0  0  0  0  0  0  0  0  0  0  0  0
  154.3831  140.5685  161.5833 C   0  0  0  0  0  0  0  0  0  0  0  0
  154.2136  142.4531  163.1309 C   0  0  0  0  0  0  0  0  0  0  0  0
  153.6824  143.6673  163.4352 N   0  0  0  0  0  0  0  0  0  0  0  0
  154.0838  144.3426  164.5145 C   0  0  0  0  0  0  0  0  0  0  0  0
  154.9995  143.9979  165.4186 N   0  0  0  0  0  0  0  0  0  0  0  0
  155.5465  142.7843  165.1271 C   0  0  0  0  0  0  0  0  0  0  0  0
  155.2154  141.9495  164.0188 C   0  0  0  0  0  0  0  0  0  0  0  0
  155.9739  140.7841  164.0813 N   0  0  0  0  0  0  0  0  0  0  0  0
  156.7071  140.9241  165.1504 C   0  0  0  0  0  0  0  0  0  0  0  0
  156.5317  142.1084  165.8268 N   0  0  0  0  0  0  0  0  0  0  0  0
  157.2084  142.5162  167.0462 C   0  0  0  0  0  0  0  0  0  0  0  0
  156.7956  143.9108  167.5968 C   0  0  1  0  0  0  0  0  0  0  0  0
  155.3716  143.8155  168.1974 C   0  0  0  0  0  0  0  0  0  0  0  0
  155.3305  142.9204  169.2899 O   0  0  0  0  0  0  0  0  0  0  0  0
  157.8071  144.4933  168.6300 C   0  0  1  0  0  0  0  0  0  0  0  0
  159.2188  144.7423  168.1123 C   0  0  0  0  0  0  0  0  0  0  0  0
  159.7868  145.7924  169.0659 C   0  0  0  0  0  0  0  0  0  0  0  0
  158.6712  146.3907  169.7120 O   0  0  0  0  0  0  0  0  0  0  0  0
  157.4725  145.9032  169.1299 C   0  0  0  0  0  0  0  0  0  0  0  0
  151.4109  142.7645  159.2188 N   0  0  0  0  0  0  0  0  0  0  0  0
  151.6835  144.1953  159.1809 C   0  0  0  0  0  0  0  0  0  0  0  0
  151.3623  142.1831  157.8917 C   0  0  0  0  0  0  0  0  0  0  0  0
  150.5136  140.1926  158.1326 H   0  0  0  0  0  0  0  0  0  0  0  0
  153.4056  142.2867  159.5020 H   0  0  0  0  0  0  0  0  0  0  0  0
  152.2985  139.4742  155.1060 H   0  0  0  0  0  0  0  0  0  0  0  0
  151.3529  140.9260  155.4263 H   0  0  0  0  0  0  0  0  0  0  0  0
  150.7377  139.3368  155.9134 H   0  0  0  0  0  0  0  0  0  0  0  0
  151.5073  140.0327  160.1476 H   0  0  0  0  0  0  0  0  0  0  0  0
  153.1048  139.9612  159.4139 H   0  0  0  0  0  0  0  0  0  0  0  0
  152.2742  143.2096  161.6846 H   0  0  0  0  0  0  0  0  0  0  0  0
  151.6384  141.6163  161.8912 H   0  0  0  0  0  0  0  0  0  0  0  0
  155.4682  140.6688  161.5471 H   0  0  0  0  0  0  0  0  0  0  0  0
  154.0454  140.2929  160.5841 H   0  0  0  0  0  0  0  0  0  0  0  0
  154.1242  139.7527  162.2588 H   0  0  0  0  0  0  0  0  0  0  0  0
  153.6041  145.2968  164.6750 H   0  0  0  0  0  0  0  0  0  0  0  0
  157.4083  140.1666  165.4690 H   0  0  0  0  0  0  0  0  0  0  0  0
  157.0092  141.7394  167.7847 H   0  0  0  0  0  0  0  0  0  0  0  0
  158.2845  142.4950  166.8686 H   0  0  0  0  0  0  0  0  0  0  0  0
  156.7381  144.6117  166.7634 H   0  0  0  0  0  0  0  0  0  0  0  0
  155.0201  144.7959  168.5197 H   0  0  0  0  0  0  0  0  0  0  0  0
  154.6536  143.4408  167.4693 H   0  0  0  0  0  0  0  0  0  0  0  0
  155.5315  143.3996  170.0794 H   0  0  0  0  0  0  0  0  0  0  0  0
  157.8626  143.8302  169.4947 H   0  0  0  0  0  0  0  0  0  0  0  0
  159.8406  143.8490  168.1009 H   0  0  0  0  0  0  0  0  0  0  0  0
  159.1856  145.1453  167.0992 H   0  0  0  0  0  0  0  0  0  0  0  0
  160.4232  145.3322  169.8220 H   0  0  0  0  0  0  0  0  0  0  0  0
  160.3777  146.5394  168.5351 H   0  0  0  0  0  0  0  0  0  0  0  0
  157.1929  146.5544  168.3001 H   0  0  0  0  0  0  0  0  0  0  0  0
  156.6653  145.9153  169.8625 H   0  0  0  0  0  0  0  0  0  0  0  0
  150.9160  144.7156  158.6072 H   0  0  0  0  0  0  0  0  0  0  0  0
  152.6499  144.4034  158.7197 H   0  0  0  0  0  0  0  0  0  0  0  0
  151.6863  144.6207  160.1841 H   0  0  0  0  0  0  0  0  0  0  0  0
  152.2039  142.5467  157.2993 H   0  0  0  0  0  0  0  0  0  0  0  0
  150.4465  142.4558  157.3663 H   0  0  0  0  0  0  0  0  0  0  0  0
  1  2  1  0  0  0  0
  1 32  1  0  0  0  0
  1 33  1  0  0  0  0
  1 34  1  0  0  0  0
  2  3  1  0  0  0  0
  3 30  1  0  0  0  0
  3 29  1  0  0  0  0
  3  4  1  0  0  0  0
  4  5  1  0  0  0  0
  4 35  1  0  0  0  0
  4 36  1  0  0  0  0
  5 31  1  0  0  0  0
  5  6  1  0  0  0  0
  5 27  1  0  0  0  0
  6  7  1  0  0  0  0
  6 37  1  0  0  0  0
  6 38  1  0  0  0  0
  7  8  1  0  0  0  0
  7  9  1  0  0  0  0
  8 39  1  0  0  0  0
  8 40  1  0  0  0  0
  8 41  1  0  0  0  0
  9 14  1  0  0  0  0
  9 10  2  0  0  0  0
 10 11  1  0  0  0  0
 11 12  2  0  0  0  0
 11 42  1  0  0  0  0
 12 13  1  0  0  0  0
 13 17  1  0  0  0  0
 13 14  2  0  0  0  0
 14 15  1  0  0  0  0
 15 16  2  0  0  0  0
 16 17  1  0  0  0  0
 16 43  1  0  0  0  0
 17 18  1  0  0  0  0
 18 19  1  0  0  0  0
 18 44  1  0  0  0  0
 18 45  1  0  0  0  0
 19 20  1  0  0  0  0
 19 22  1  0  0  0  0
 19 46  1  0  0  0  0
 20 21  1  0  0  0  0
 20 47  1  0  0  0  0
 20 48  1  0  0  0  0
 21 49  1  0  0  0  0
 22 26  1  0  0  0  0
 22 23  1  0  0  0  0
 22 50  1  0  0  0  0
 23 24  1  0  0  0  0
 23 51  1  0  0  0  0
 23 52  1  0  0  0  0
 24 25  1  0  0  0  0
 24 53  1  0  0  0  0
 24 54  1  0  0  0  0
 25 26  1  0  0  0  0
 26 55  1  0  0  0  0
 26 56  1  0  0  0  0
 27 28  1  0  0  0  0
 27 29  1  0  0  0  0
 28 57  1  0  0  0  0
 28 58  1  0  0  0  0
 28 59  1  0  0  0  0
 29 60  1  0  0  0  0
 29 61  1  0  0  0  0
M  END
> <s_m_source_file>
AV-unprocessed.smi

> <i_m_source_file_index>
21

> <i_lp_mmshare_version>
43012

> <i_f3d_flags>
0

> <s_epik_input>
W0NIM11PW0NASF0xW0NIMl1bQ0BIXShOKFtDSDNdKVtDSDJdMSlbQ0gyXU4oW0NIM10pYyhuW2NIXW4yKWMoYzIzKW5bY0hdbjNbQ0gyXVtDQEhdKFtDSDJdW09IXSlbQ0BASF00W0NIMl1bQ0gyXU9bQ0gyXTQ=

> <s_epik_cmdline>
J2VwaWtfcHl0aG9uJywgJy1waCcsICc3LjAnLCAnLXRuJywgJzgnLCAnLW1hJywgJzIwMCcsICctbWV0YWxfYmluZGluZycsICctaW1hZScsICc8aW5maWxlLm1hZT4nLCAnLW9tYWUnLCAnPG91dGZpbGUubWFlPic=

> <r_lp_tautomer_probability>
1

> <r_epik_Ionization_Penalty>
2.17574

> <r_epik_Ionization_Penalty_Charging>
0

> <r_epik_Ionization_Penalty_Neutral>
2.17574

> <r_epik_State_Penalty>
2.31336

> <r_epik_Charging_Adjusted_Penalty>
2.31336

> <i_epik_Tot_Q>
0

> <i_epik_Tot_abs_Q>
0

> <r_epik_Metal_State_Penalty>
2.31025

> <b_epik_Metal_Only>
0

> <s_lp_Force_Field>
OPLS_2005

> <r_lp_Energy>
70.7714

> <b_lp_Chiralities_Consistent>
1

> <s_lp_Variant>
AV-unprocessed.smi:21-47

> <Gold.Version>
5.8.1

> <Gold.Id.Protein>
6NUR|6NUR_protein|mol2

> <Gold.PLP.Fitness>
53.1567

> <Gold.PLP.PLP>
-51.2222

> <Gold.PLP.part.hbond>
-2.6615

> <Gold.PLP.part.metal>
0.0000

> <Gold.PLP.part.buried>
-3.6113

> <Gold.PLP.part.nonpolar>
-45.1136

> <Gold.PLP.part.repulsive>
0.4164

> <Gold.PLP.ligand.clash>
0.0000

> <Gold.PLP.ligand.torsion>
0.7938

> <Gold.PLP.Chemscore.Hbond>
0.9516

> <Gold.PLP.Chemscore.CHOScore>
0.0000

> <Gold.PLP.Chemscore.Metal>
0.0000

> <Gold.Chemscore.Hbonds>
donor molecule, donor type, donor heavy atom, donor atom, acceptor molecule, acceptor atom, score
      P1  H  7997  8009       L1     2  0.59

> <Gold.PLP.Chemscore.Internal.Correction>
0.6673

> <Gold.Rescore>
     Score         DG    S(hbond)    S(metal)    S(lipo)     H(rot)  DE(clash)    DE(int)     intcor
      2.58      -8.87       0.21        0.00      88.72       3.00       0.72       5.58       ----

> <Gold.Chemscore.Fitness>
2.5811

> <Gold.Chemscore.DG>
-8.8745

> <Gold.Chemscore.ZeroCoef>
-5.4800

> <Gold.Chemscore.Hbond>
0.2103

> <Gold.Chemscore.Metal>
0.0000

> <Gold.Chemscore.Lipo>
88.7181

> <Gold.Chemscore.Internal_Hbond>
0.0000

> <Gold.Chemscore.DEClash>
0.7159

> <Gold.Chemscore.DEInternal>
5.5775

> <Gold.Chemscore.Rot>
3.0031

> <Gold.Chemscore.Internal.Correction>
   9.000000E+99

> <Gold.Chemscore.Hbonds>
donor molecule, donor type, donor heavy atom, donor atom, acceptor molecule, acceptor atom, score
      P1  H  7997  8009       L1     2  0.47

> <Gold.Chemscore.Hbond.Weighted>
-0.7025

> <Gold.Chemscore.Metal.Weighted>
-0.0000

> <Gold.Chemscore.Lipo.Weighted>
-10.3800

> <Gold.Chemscore.Internal_Hbond.Weighted>
0.0000

> <Gold.Chemscore.DEClash.Weighted>
0.7159

> <Gold.Chemscore.DEInternal.Weighted>
5.5775

> <Gold.Chemscore.Rot.Weighted>
7.6880

> <Gold.Chemscore.Internal.Correction.Weighted>
   9.000000E+99

> <Gold.Protein.RotatedTorsions>
[ 6907 6896 6895 6894 ] final    1.76 input  -60.11 | X-H torsion
[ 7974 7965 7964 7962 ] final  -72.48 input  175.53 | X-H torsion
[ 8008 7997 7996 7995 ] final  166.01 input   59.86 | X-H torsion
[ 10167 10162 10161 10158 ] final   73.03 input  -65.29 | X-H torsion
[ 10718 10713 10712 10709 ] final  179.18 input   66.30 | X-H torsion
[ 10763 10752 10751 10750 ] final  167.82 input  -60.55 | X-H torsion
[ 11005 11000 10999 10996 ] final  133.30 input  -57.11 | X-H torsion

> <Gold.Protein.ActiveResidues>
 VAL166  LYS551  ARG553  GLY616  TRP617  ASP618  TYR619  PRO620  LYS621  CYS622 
 ASP623  PHE694  ASN695  SER759  ASP760  ASP761  ALA762  ILE779  LEU786  VAL792 
 PHE793  MET794  SER795  GLU796  ALA797  LYS798  CYS799  TRP800  GLU811  SER814 

> <Gold.Protein.RotatedAtoms>
  151.5979  135.1049  160.0053 H   0  0  0  0  0  0  0  0  0  0  0  0  # atno 6907 bound_to 6896
  152.4273  133.7212  159.6545 H   0  0  0  0  0  0  0  0  0  0  0  0  # atno 6908 bound_to 6896
  150.8162  133.8261  159.3181 H   0  0  0  0  0  0  0  0  0  0  0  0  # atno 6909 bound_to 6896
  145.6646  140.9241  143.0915 H   0  0  0  0  0  0  0  0  0  0  0  0  # atno 7974 bound_to 7965
  156.1754  140.1655  156.8372 H   0  0  0  0  0  0  0  0  0  0  0  0  # atno 8008 bound_to 7997
  154.5301  140.0759  156.8363 H   0  0  0  0  0  0  0  0  0  0  0  0  # atno 8009 bound_to 7997
  155.3425  140.3385  155.4241 H   0  0  0  0  0  0  0  0  0  0  0  0  # atno 8010 bound_to 7997
  140.0289  144.5482  150.7523 H   0  0  0  0  0  0  0  0  0  0  0  0  # atno 10167 bound_to 10162
  156.8795  130.9811  151.3063 H   0  0  0  0  0  0  0  0  0  0  0  0  # atno 10718 bound_to 10713
  154.3595  135.2753  155.2328 H   0  0  0  0  0  0  0  0  0  0  0  0  # atno 10763 bound_to 10752
  154.4522  135.5928  153.6203 H   0  0  0  0  0  0  0  0  0  0  0  0  # atno 10764 bound_to 10752
  152.9844  135.6044  154.3814 H   0  0  0  0  0  0  0  0  0  0  0  0  # atno 10765 bound_to 10752
  139.9843  134.9537  156.9705 H   0  0  0  0  0  0  0  0  0  0  0  0  # atno 11005 bound_to 11000
  144.7077  139.8494  143.7424 LP  0  0  0  0  0  0  0  0  0  0  0  0  # atno 17320 bound_to 7965
  146.1096  139.4100  143.0296 LP  0  0  0  0  0  0  0  0  0  0  0  0  # atno 17321 bound_to 7965
  140.7311  143.2690  151.3949 LP  0  0  0  0  0  0  0  0  0  0  0  0  # atno 17342 bound_to 10162
  139.6089  144.1138  152.2278 LP  0  0  0  0  0  0  0  0  0  0  0  0  # atno 17343 bound_to 10162
  157.6148  130.8610  149.9011 LP  0  0  0  0  0  0  0  0  0  0  0  0  # atno 17370 bound_to 10713
  156.0684  130.3688  150.0828 LP  0  0  0  0  0  0  0  0  0  0  0  0  # atno 17371 bound_to 10713
  140.5034  134.1075  155.7255 LP  0  0  0  0  0  0  0  0  0  0  0  0  # atno 17394 bound_to 11000
  141.1510  133.8968  157.2096 LP  0  0  0  0  0  0  0  0  0  0  0  0  # atno 17395 bound_to 11000

$$$$
