AV-unprocessed.smi:3167|AV-procd|sdf|12097|dock4
  -GOLD-   2272017533D 1   1.00000     0.00000
 Structure written by MMmdl.
 37 38  0  0  0  0  0  0  0  0  2 V2000
  147.1438  140.7754  153.5685 C   0  0  0  0  0  0  0  0  0  0  0  0
  147.4966  139.4845  152.7959 C   0  0  2  0  0  0  0  0  0  0  0  0
  146.2295  138.6201  152.5630 C   0  0  0  0  0  0  0  0  0  0  0  0
  146.5330  137.2912  152.0407 N   0  0  0  0  0  0  0  0  0  0  0  0
  145.6201  136.3421  151.7892 C   0  0  0  0  0  0  0  0  0  0  0  0
  144.4134  136.4966  151.9781 O   0  0  0  0  0  0  0  0  0  0  0  0
  146.1928  135.2247  151.3141 N   0  0  0  0  0  0  0  0  0  0  0  0
  145.5470  134.0120  150.9666 C   0  0  0  0  0  0  0  0  0  0  0  0
  146.0978  132.7045  150.8237 C   0  0  0  0  0  0  0  0  0  0  0  0
  145.1658  131.8264  150.4809 N   0  0  0  0  0  0  0  0  0  0  0  0
  144.0308  132.5568  150.4036 N   0  0  0  0  0  0  0  0  0  0  0  0
  144.2179  133.8910  150.6907 C   0  0  0  0  0  0  0  0  0  0  0  0
  148.5479  138.6970  153.5026 N   0  3  0  0  0  0  0  0  0  0  0  0
  149.7624  139.4646  153.8807 C   0  0  0  0  0  0  0  0  0  0  0  0
  150.2222  138.9488  155.2512 C   0  0  0  0  0  0  0  0  0  0  0  0
  149.3851  137.6998  155.5001 C   0  0  0  0  0  0  0  0  0  0  0  0
  148.1063  137.9824  154.7205 C   0  0  0  0  0  0  0  0  0  0  0  0
  143.1470  132.1346  150.1565 H   0  0  0  0  0  0  0  0  0  0  0  0
  146.3716  141.3510  153.0582 H   0  0  0  0  0  0  0  0  0  0  0  0
  148.0009  141.4412  153.6669 H   0  0  0  0  0  0  0  0  0  0  0  0
  146.7780  140.5496  154.5706 H   0  0  0  0  0  0  0  0  0  0  0  0
  147.9069  139.7777  151.8281 H   0  0  0  0  0  0  0  0  0  0  0  0
  145.6506  138.5012  153.4797 H   0  0  0  0  0  0  0  0  0  0  0  0
  145.5694  139.1166  151.8512 H   0  0  0  0  0  0  0  0  0  0  0  0
  147.5035  137.0819  151.8555 H   0  0  0  0  0  0  0  0  0  0  0  0
  147.1947  135.2400  151.1926 H   0  0  0  0  0  0  0  0  0  0  0  0
  147.1139  132.3622  150.9502 H   0  0  0  0  0  0  0  0  0  0  0  0
  143.4137  134.6118  150.6740 H   0  0  0  0  0  0  0  0  0  0  0  0
  150.5318  139.3160  153.1223 H   0  0  0  0  0  0  0  0  0  0  0  0
  149.5600  140.5352  153.9425 H   0  0  0  0  0  0  0  0  0  0  0  0
  151.2928  138.7442  155.2849 H   0  0  0  0  0  0  0  0  0  0  0  0
  150.0039  139.6956  156.0160 H   0  0  0  0  0  0  0  0  0  0  0  0
  149.8882  136.8262  155.0834 H   0  0  0  0  0  0  0  0  0  0  0  0
  149.2048  137.5130  156.5592 H   0  0  0  0  0  0  0  0  0  0  0  0
  147.4515  138.6267  155.3100 H   0  0  0  0  0  0  0  0  0  0  0  0
  147.5638  137.0666  154.4834 H   0  0  0  0  0  0  0  0  0  0  0  0
  148.8606  137.9796  152.8642 H   0  0  0  0  0  0  0  0  0  0  0  0
  1  2  1  0  0  0  0
  1 19  1  0  0  0  0
  1 20  1  0  0  0  0
  1 21  1  0  0  0  0
  2  3  1  0  0  0  0
  2 13  1  0  0  0  0
  2 22  1  0  0  0  0
  3  4  1  0  0  0  0
  3 23  1  0  0  0  0
  3 24  1  0  0  0  0
  4  5  1  0  0  0  0
  4 25  1  0  0  0  0
  5  6  2  0  0  0  0
  5  7  1  0  0  0  0
  7  8  1  0  0  0  0
  7 26  1  0  0  0  0
  8 12  2  0  0  0  0
  8  9  1  0  0  0  0
  9 10  2  0  0  0  0
  9 27  1  0  0  0  0
 10 11  1  0  0  0  0
 11 18  1  0  0  0  0
 11 12  1  0  0  0  0
 12 28  1  0  0  0  0
 13 17  1  0  0  0  0
 13 14  1  0  0  0  0
 13 37  1  0  0  0  0
 14 15  1  0  0  0  0
 14 29  1  0  0  0  0
 14 30  1  0  0  0  0
 15 16  1  0  0  0  0
 15 31  1  0  0  0  0
 15 32  1  0  0  0  0
 16 17  1  0  0  0  0
 16 33  1  0  0  0  0
 16 34  1  0  0  0  0
 17 35  1  0  0  0  0
 17 36  1  0  0  0  0
M  CHG  1  13   1
M  END
> <s_m_source_file>
AV-unprocessed.smi

> <i_m_source_file_index>
3167

> <i_lp_mmshare_version>
43012

> <i_f3d_flags>
0

> <s_epik_input>
W0NIMl0xW0NIMl1bQ0gyXVtDSDJdTjFbQ0BIXShbQ0gzXSlbQ0gyXVtOSF1DKD1PKVtOSF1jMltjSF1uW25IXVtjSF0y

> <s_epik_cmdline>
J2VwaWtfcHl0aG9uJywgJy1waCcsICc3LjAnLCAnLXRuJywgJzgnLCAnLW1hJywgJzIwMCcsICctbWV0YWxfYmluZGluZycsICctaW1hZScsICc8aW5maWxlLm1hZT4nLCAnLW9tYWUnLCAnPG91dGZpbGUubWFlPic=

> <r_lp_tautomer_probability>
0.5

> <r_epik_Ionization_Penalty>
0.000801258

> <r_epik_Ionization_Penalty_Charging>
0.000761583

> <r_epik_Ionization_Penalty_Neutral>
3.96747e-05

> <r_epik_State_Penalty>
0.000487427

> <r_epik_Charging_Adjusted_Penalty>
0.00124901

> <i_epik_Tot_Q>
1

> <i_epik_Tot_abs_Q>
1

> <r_epik_Metal_State_Penalty>
-0

> <b_epik_Metal_Only>
0

> <s_lp_Force_Field>
OPLS_2005

> <r_lp_Energy>
32.1126

> <b_lp_Chiralities_Consistent>
1

> <s_lp_Variant>
AV-unprocessed.smi:3167-1

> <Gold.Version>
5.8.1

> <Gold.Id.Protein>
6NUR|6NUR_protein|mol2

> <Gold.PLP.Fitness>
39.4151

> <Gold.PLP.PLP>
-23.2929

> <Gold.PLP.part.hbond>
-4.0000

> <Gold.PLP.part.metal>
0.0000

> <Gold.PLP.part.buried>
0.8411

> <Gold.PLP.part.nonpolar>
-21.4008

> <Gold.PLP.part.repulsive>
1.2608

> <Gold.PLP.ligand.clash>
0.0000

> <Gold.PLP.ligand.torsion>
0.2540

> <Gold.PLP.Chemscore.Hbond>
3.7865

> <Gold.PLP.Chemscore.CHOScore>
1.7462

> <Gold.PLP.Chemscore.Metal>
0.0000

> <Gold.Chemscore.Hbonds>
donor molecule, donor type, donor heavy atom, donor atom, acceptor molecule, acceptor atom, score
      L1  H     4    25       P1  7948  1.00
      L1  H     7    26       P1  7948  0.79
      L1  H    13    37       P1  7948  2.00
      L1  C     9    27       P1 10747  1.00
      L1  C    12    28       P1 10186  0.69

> <Gold.PLP.Chemscore.Internal.Correction>
0.0322

> <Gold.Rescore>
     Score         DG    S(hbond)    S(metal)    S(lipo)     H(rot)  DE(clash)    DE(int)     intcor
     15.17     -19.96       3.53        0.00      58.55       1.63       3.29       1.51       ----

> <Gold.Chemscore.Fitness>
15.1657

> <Gold.Chemscore.DG>
-19.9585

> <Gold.Chemscore.ZeroCoef>
-5.4800

> <Gold.Chemscore.Hbond>
3.5342

> <Gold.Chemscore.Metal>
0.0000

> <Gold.Chemscore.Lipo>
58.5479

> <Gold.Chemscore.Internal_Hbond>
0.0000

> <Gold.Chemscore.DEClash>
3.2851

> <Gold.Chemscore.DEInternal>
1.5078

> <Gold.Chemscore.Rot>
1.6311

> <Gold.Chemscore.Internal.Correction>
   9.000000E+99

> <Gold.Chemscore.Hbonds>
donor molecule, donor type, donor heavy atom, donor atom, acceptor molecule, acceptor atom, score
      L1  H     4    25       P1  7948  0.99
      L1  H     7    26       P1  7948  0.56
      L1  H    13    37       P1  7948  0.97

> <Gold.Chemscore.Hbond.Weighted>
-11.8041

> <Gold.Chemscore.Metal.Weighted>
-0.0000

> <Gold.Chemscore.Lipo.Weighted>
-6.8501

> <Gold.Chemscore.Internal_Hbond.Weighted>
0.0000

> <Gold.Chemscore.DEClash.Weighted>
3.2851

> <Gold.Chemscore.DEInternal.Weighted>
1.5078

> <Gold.Chemscore.Rot.Weighted>
4.1757

> <Gold.Chemscore.Internal.Correction.Weighted>
   9.000000E+99

> <Gold.Protein.RotatedTorsions>
[ 6907 6896 6895 6894 ] final   49.12 input  -60.11 | X-H torsion
[ 7974 7965 7964 7962 ] final   65.30 input  175.53 | X-H torsion
[ 8008 7997 7996 7995 ] final -101.45 input   59.86 | X-H torsion
[ 10167 10162 10161 10158 ] final   61.35 input  -65.29 | X-H torsion
[ 10718 10713 10712 10709 ] final   53.39 input   66.30 | X-H torsion
[ 10763 10752 10751 10750 ] final   71.77 input  -60.55 | X-H torsion
[ 11005 11000 10999 10996 ] final    3.46 input  -57.11 | X-H torsion

> <Gold.Protein.ActiveResidues>
 VAL166  LYS551  ARG553  GLY616  TRP617  ASP618  TYR619  PRO620  LYS621  CYS622 
 ASP623  PHE694  ASN695  SER759  ASP760  ASP761  ALA762  ILE779  LEU786  VAL792 
 PHE793  MET794  SER795  GLU796  ALA797  LYS798  CYS799  TRP800  GLU811  SER814 

> <Gold.Protein.RotatedAtoms>
  152.2872  134.7762  160.0384 H   0  0  0  0  0  0  0  0  0  0  0  0  # atno 6907 bound_to 6896
  151.8321  133.3405  159.3624 H   0  0  0  0  0  0  0  0  0  0  0  0  # atno 6908 bound_to 6896
  150.7215  134.5402  159.5788 H   0  0  0  0  0  0  0  0  0  0  0  0  # atno 6909 bound_to 6896
  145.8401  139.3190  143.0936 H   0  0  0  0  0  0  0  0  0  0  0  0  # atno 7974 bound_to 7965
  154.8427  140.0434  157.1552 H   0  0  0  0  0  0  0  0  0  0  0  0  # atno 8008 bound_to 7997
  154.9029  140.3002  155.5288 H   0  0  0  0  0  0  0  0  0  0  0  0  # atno 8009 bound_to 7997
  156.2993  140.2372  156.4059 H   0  0  0  0  0  0  0  0  0  0  0  0  # atno 8010 bound_to 7997
  140.1557  144.4419  150.6735 H   0  0  0  0  0  0  0  0  0  0  0  0  # atno 10167 bound_to 10162
  157.5163  130.8534  149.8499 H   0  0  0  0  0  0  0  0  0  0  0  0  # atno 10718 bound_to 10713
  153.0419  135.5124  154.7644 H   0  0  0  0  0  0  0  0  0  0  0  0  # atno 10763 bound_to 10752
  154.6575  135.2934  154.9912 H   0  0  0  0  0  0  0  0  0  0  0  0  # atno 10764 bound_to 10752
  154.0774  135.6669  153.4885 H   0  0  0  0  0  0  0  0  0  0  0  0  # atno 10765 bound_to 10752
  140.5929  133.9907  155.8097 H   0  0  0  0  0  0  0  0  0  0  0  0  # atno 11005 bound_to 11000
  145.9475  140.8934  143.0276 LP  0  0  0  0  0  0  0  0  0  0  0  0  # atno 17320 bound_to 7965
  144.6734  140.1633  143.7420 LP  0  0  0  0  0  0  0  0  0  0  0  0  # atno 17321 bound_to 7965
  140.6675  143.2273  151.5708 LP  0  0  0  0  0  0  0  0  0  0  0  0  # atno 17342 bound_to 10162
  139.5405  144.2662  152.1340 LP  0  0  0  0  0  0  0  0  0  0  0  0  # atno 17343 bound_to 10162
  156.0322  130.3761  150.1656 LP  0  0  0  0  0  0  0  0  0  0  0  0  # atno 17370 bound_to 10713
  156.9845  130.9874  151.3429 LP  0  0  0  0  0  0  0  0  0  0  0  0  # atno 17371 bound_to 10713
  141.0923  133.9897  157.3217 LP  0  0  0  0  0  0  0  0  0  0  0  0  # atno 17394 bound_to 11000
  139.9266  135.0201  156.8256 LP  0  0  0  0  0  0  0  0  0  0  0  0  # atno 17395 bound_to 11000

$$$$
