AV-unprocessed.smi:85|AV-procd|sdf|811|dock9
  -GOLD-   2262017213D 1   1.00000     0.00000
 Structure written by MMmdl.
 62 65  0  0  0  0  0  0  0  0  1 V2000
  149.9644  141.5239  155.6042 C   0  0  0  0  0  0  0  0  0  0  0  0
  151.0481  140.7194  156.3415 C   0  0  0  0  0  0  0  0  0  0  0  0
  150.8029  140.5886  157.7821 N   0  0  0  0  0  0  0  0  0  0  0  0
  150.6109  139.3351  158.2610 C   0  0  0  0  0  0  0  0  0  0  0  0
  151.6858  138.7079  158.8015 N   0  0  0  0  0  0  0  0  0  0  0  0
  151.5623  137.4734  159.2972 C   0  0  0  0  0  0  0  0  0  0  0  0
  150.4760  136.7005  159.3502 N   0  0  0  0  0  0  0  0  0  0  0  0
  149.3947  137.3223  158.7988 C   0  0  0  0  0  0  0  0  0  0  0  0
  149.3753  138.6264  158.2275 C   0  0  0  0  0  0  0  0  0  0  0  0
  148.1042  138.9087  157.7421 N   0  0  0  0  0  0  0  0  0  0  0  0
  147.4113  137.8391  158.0189 C   0  0  0  0  0  0  0  0  0  0  0  0
  148.1009  136.8442  158.6753 N   0  0  0  0  0  0  0  0  0  0  0  0
  147.5718  135.5579  159.1084 C   0  0  0  0  0  0  0  0  0  0  0  0
  146.8639  135.5748  160.4966 C   0  0  0  0  0  0  0  0  0  0  0  0
  145.5668  136.4319  160.4396 C   0  0  0  0  0  0  0  0  0  0  0  0
  145.8287  137.8100  160.6129 O   0  0  0  0  0  0  0  0  0  0  0  0
  146.5088  134.1281  160.9277 C   0  0  0  0  0  0  0  0  0  0  0  0
  146.1133  134.0159  162.4120 C   0  0  0  0  0  0  0  0  0  0  0  0
  147.1412  134.5479  163.2365 O   0  0  0  0  0  0  0  0  0  0  0  0
  147.3799  135.9278  162.9946 C   0  0  0  0  0  0  0  0  0  0  0  0
  147.8615  136.1262  161.5467 C   0  0  0  0  0  0  0  0  0  0  0  0
  151.5027  141.4634  158.7317 C   0  0  1  0  0  0  0  0  0  0  0  0
  152.9986  141.1336  158.8603 C   0  0  0  0  0  0  0  0  0  0  0  0
  153.6635  142.0744  159.8739 C   0  0  0  0  0  0  0  0  0  0  0  0
  153.4567  143.4370  159.5045 O   0  0  0  0  0  0  0  0  0  0  0  0
  152.0951  143.8681  159.3975 C   0  0  0  0  0  0  0  0  0  0  0  0
  151.4216  143.9080  160.7864 C   0  0  0  0  0  0  0  0  0  0  0  0
  152.1708  145.2997  158.8403 C   0  0  0  0  0  0  0  0  0  0  0  0
  151.3429  142.9580  158.3963 C   0  0  0  0  0  0  0  0  0  0  0  0
  150.2295  141.6483  154.5544 H   0  0  0  0  0  0  0  0  0  0  0  0
  149.8519  142.5183  156.0372 H   0  0  0  0  0  0  0  0  0  0  0  0
  148.9930  141.0308  155.6364 H   0  0  0  0  0  0  0  0  0  0  0  0
  151.1541  139.7343  155.8886 H   0  0  0  0  0  0  0  0  0  0  0  0
  152.0001  141.2217  156.1815 H   0  0  0  0  0  0  0  0  0  0  0  0
  152.4616  137.0441  159.7135 H   0  0  0  0  0  0  0  0  0  0  0  0
  146.3667  137.7505  157.7582 H   0  0  0  0  0  0  0  0  0  0  0  0
  146.8783  135.2146  158.3393 H   0  0  0  0  0  0  0  0  0  0  0  0
  148.3888  134.8352  159.1071 H   0  0  0  0  0  0  0  0  0  0  0  0
  145.0524  136.2955  159.4883 H   0  0  0  0  0  0  0  0  0  0  0  0
  144.8543  136.1373  161.2083 H   0  0  0  0  0  0  0  0  0  0  0  0
  145.0302  138.2902  160.4551 H   0  0  0  0  0  0  0  0  0  0  0  0
  145.7010  133.7299  160.3133 H   0  0  0  0  0  0  0  0  0  0  0  0
  147.3690  133.4790  160.7580 H   0  0  0  0  0  0  0  0  0  0  0  0
  145.1685  134.5201  162.6161 H   0  0  0  0  0  0  0  0  0  0  0  0
  145.9672  132.9683  162.6757 H   0  0  0  0  0  0  0  0  0  0  0  0
  146.4836  136.5122  163.2049 H   0  0  0  0  0  0  0  0  0  0  0  0
  148.1462  136.2729  163.6890 H   0  0  0  0  0  0  0  0  0  0  0  0
  148.8184  135.6133  161.4403 H   0  0  0  0  0  0  0  0  0  0  0  0
  148.0719  137.1810  161.3677 H   0  0  0  0  0  0  0  0  0  0  0  0
  151.0511  141.3076  159.7121 H   0  0  0  0  0  0  0  0  0  0  0  0
  153.1392  140.0995  159.1753 H   0  0  0  0  0  0  0  0  0  0  0  0
  153.4950  141.2386  157.8952 H   0  0  0  0  0  0  0  0  0  0  0  0
  153.2942  141.8850  160.8816 H   0  0  0  0  0  0  0  0  0  0  0  0
  154.7367  141.8854  159.9022 H   0  0  0  0  0  0  0  0  0  0  0  0
  150.4173  144.3276  160.7202 H   0  0  0  0  0  0  0  0  0  0  0  0
  151.9911  144.5289  161.4784 H   0  0  0  0  0  0  0  0  0  0  0  0
  151.3246  142.9227  161.2394 H   0  0  0  0  0  0  0  0  0  0  0  0
  151.1760  145.7219  158.6946 H   0  0  0  0  0  0  0  0  0  0  0  0
  152.6842  145.3252  157.8784 H   0  0  0  0  0  0  0  0  0  0  0  0
  152.7149  145.9595  159.5170 H   0  0  0  0  0  0  0  0  0  0  0  0
  151.7352  143.1532  157.3988 H   0  0  0  0  0  0  0  0  0  0  0  0
  150.2856  143.2249  158.3659 H   0  0  0  0  0  0  0  0  0  0  0  0
  1  2  1  0  0  0  0
  1 30  1  0  0  0  0
  1 31  1  0  0  0  0
  1 32  1  0  0  0  0
  2  3  1  0  0  0  0
  2 33  1  0  0  0  0
  2 34  1  0  0  0  0
  3  4  1  0  0  0  0
  3 22  1  0  0  0  0
  4  9  1  0  0  0  0
  4  5  2  0  0  0  0
  5  6  1  0  0  0  0
  6  7  2  0  0  0  0
  6 35  1  0  0  0  0
  7  8  1  0  0  0  0
  8 12  1  0  0  0  0
  8  9  2  0  0  0  0
  9 10  1  0  0  0  0
 10 11  2  0  0  0  0
 11 12  1  0  0  0  0
 11 36  1  0  0  0  0
 12 13  1  0  0  0  0
 13 14  1  0  0  0  0
 13 37  1  0  0  0  0
 13 38  1  0  0  0  0
 14 21  1  0  0  0  0
 14 15  1  0  0  0  0
 14 17  1  0  0  0  0
 15 16  1  0  0  0  0
 15 39  1  0  0  0  0
 15 40  1  0  0  0  0
 16 41  1  0  0  0  0
 17 18  1  0  0  0  0
 17 42  1  0  0  0  0
 17 43  1  0  0  0  0
 18 19  1  0  0  0  0
 18 44  1  0  0  0  0
 18 45  1  0  0  0  0
 19 20  1  0  0  0  0
 20 21  1  0  0  0  0
 20 46  1  0  0  0  0
 20 47  1  0  0  0  0
 21 48  1  0  0  0  0
 21 49  1  0  0  0  0
 22 29  1  0  0  0  0
 22 23  1  0  0  0  0
 22 50  1  0  0  0  0
 23 24  1  0  0  0  0
 23 51  1  0  0  0  0
 23 52  1  0  0  0  0
 24 25  1  0  0  0  0
 24 53  1  0  0  0  0
 24 54  1  0  0  0  0
 25 26  1  0  0  0  0
 26 27  1  0  0  0  0
 26 28  1  0  0  0  0
 26 29  1  0  0  0  0
 27 55  1  0  0  0  0
 27 56  1  0  0  0  0
 27 57  1  0  0  0  0
 28 58  1  0  0  0  0
 28 59  1  0  0  0  0
 28 60  1  0  0  0  0
 29 61  1  0  0  0  0
 29 62  1  0  0  0  0
M  END
> <s_m_source_file>
AV-unprocessed.smi

> <i_m_source_file_index>
85

> <i_lp_mmshare_version>
43012

> <i_f3d_flags>
0

> <s_epik_input>
W0NIM11DMShbQ0gzXSlPW0NIMl1bQ0gyXVtDQEhdKFtDSDJdMSlOKFtDSDJdW0NIM10pYyhuW2NIXW4yKWMoYzIzKW5bY0hdbjNbQ0gyXUM0KFtDSDJdW09IXSlbQ0gyXVtDSDJdT1tDSDJdW0NIMl00

> <s_epik_cmdline>
J2VwaWtfcHl0aG9uJywgJy1waCcsICc3LjAnLCAnLXRuJywgJzgnLCAnLW1hJywgJzIwMCcsICctbWV0YWxfYmluZGluZycsICctaW1hZScsICc8aW5maWxlLm1hZT4nLCAnLW9tYWUnLCAnPG91dGZpbGUubWFlPic=

> <r_lp_tautomer_probability>
1

> <r_epik_Ionization_Penalty>
0.00336056

> <r_epik_Ionization_Penalty_Charging>
0

> <r_epik_Ionization_Penalty_Neutral>
0.00336056

> <r_epik_State_Penalty>
0.00222191

> <r_epik_Charging_Adjusted_Penalty>
0.00222191

> <i_epik_Tot_Q>
0

> <i_epik_Tot_abs_Q>
0

> <r_epik_Metal_State_Penalty>
-0

> <b_epik_Metal_Only>
0

> <s_lp_Force_Field>
OPLS_2005

> <r_lp_Energy>
36.9586

> <b_lp_Chiralities_Consistent>
1

> <s_lp_Variant>
AV-unprocessed.smi:85-2

> <Gold.Version>
5.8.1

> <Gold.Id.Protein>
6NUR|6NUR_protein|mol2

> <Gold.PLP.Fitness>
56.8896

> <Gold.PLP.PLP>
-54.4244

> <Gold.PLP.part.hbond>
-3.3495

> <Gold.PLP.part.metal>
0.0000

> <Gold.PLP.part.buried>
-8.5696

> <Gold.PLP.part.nonpolar>
-43.7367

> <Gold.PLP.part.repulsive>
0.0188

> <Gold.PLP.ligand.clash>
0.0000

> <Gold.PLP.ligand.torsion>
2.3403

> <Gold.PLP.Chemscore.Hbond>
2.0000

> <Gold.PLP.Chemscore.CHOScore>
0.0000

> <Gold.PLP.Chemscore.Metal>
0.0000

> <Gold.Chemscore.Hbonds>
donor molecule, donor type, donor heavy atom, donor atom, acceptor molecule, acceptor atom, score
      P1  H  6896  6907       L1     7  1.00
      P1  H  6934  6947       L1    16  1.00

> <Gold.PLP.Chemscore.Internal.Correction>
1.1458

> <Gold.Rescore>
     Score         DG    S(hbond)    S(metal)    S(lipo)     H(rot)  DE(clash)    DE(int)     intcor
     17.18     -21.48       1.76        0.00     139.09       2.41       0.32       3.99       ----

> <Gold.Chemscore.Fitness>
17.1794

> <Gold.Chemscore.DG>
-21.4830

> <Gold.Chemscore.ZeroCoef>
-5.4800

> <Gold.Chemscore.Hbond>
1.7650

> <Gold.Chemscore.Metal>
0.0000

> <Gold.Chemscore.Lipo>
139.0873

> <Gold.Chemscore.Internal_Hbond>
0.0000

> <Gold.Chemscore.DEClash>
0.3159

> <Gold.Chemscore.DEInternal>
3.9877

> <Gold.Chemscore.Rot>
2.4083

> <Gold.Chemscore.Internal.Correction>
   9.000000E+99

> <Gold.Chemscore.Hbonds>
donor molecule, donor type, donor heavy atom, donor atom, acceptor molecule, acceptor atom, score
      P1  H  6896  6907       L1     7  0.35
      P1  H  6934  6947       L1    16  0.58

> <Gold.Chemscore.Hbond.Weighted>
-5.8950

> <Gold.Chemscore.Metal.Weighted>
-0.0000

> <Gold.Chemscore.Lipo.Weighted>
-16.2732

> <Gold.Chemscore.Internal_Hbond.Weighted>
0.0000

> <Gold.Chemscore.DEClash.Weighted>
0.3159

> <Gold.Chemscore.DEInternal.Weighted>
3.9877

> <Gold.Chemscore.Rot.Weighted>
6.1652

> <Gold.Chemscore.Internal.Correction.Weighted>
   9.000000E+99

> <Gold.Protein.RotatedTorsions>
[ 6907 6896 6895 6894 ] final  -23.49 input  -60.11 | X-H torsion
[ 7974 7965 7964 7962 ] final  -15.91 input  175.53 | X-H torsion
[ 8008 7997 7996 7995 ] final -141.74 input   59.86 | X-H torsion
[ 10167 10162 10161 10158 ] final  114.75 input  -65.29 | X-H torsion
[ 10718 10713 10712 10709 ] final  -93.06 input   66.30 | X-H torsion
[ 10763 10752 10751 10750 ] final  -19.55 input  -60.55 | X-H torsion
[ 11005 11000 10999 10996 ] final  166.37 input  -57.11 | X-H torsion

> <Gold.Protein.ActiveResidues>
 VAL166  LYS551  ARG553  GLY616  TRP617  ASP618  TYR619  PRO620  LYS621  CYS622 
 ASP623  PHE694  ASN695  SER759  ASP760  ASP761  ALA762  ILE779  LEU786  VAL792 
 PHE793  MET794  SER795  GLU796  ALA797  LYS798  CYS799  TRP800  GLU811  SER814 

> <Gold.Protein.RotatedAtoms>
  151.2033  135.0451  159.8880 H   0  0  0  0  0  0  0  0  0  0  0  0  # atno 6907 bound_to 6896
  152.5431  134.0826  159.8252 H   0  0  0  0  0  0  0  0  0  0  0  0  # atno 6908 bound_to 6896
  151.0969  133.5225  159.2644 H   0  0  0  0  0  0  0  0  0  0  0  0  # atno 6909 bound_to 6896
  146.2011  140.3560  142.8423 H   0  0  0  0  0  0  0  0  0  0  0  0  # atno 7974 bound_to 7965
  155.4828  140.0561  157.2965 H   0  0  0  0  0  0  0  0  0  0  0  0  # atno 8008 bound_to 7997
  154.4653  140.2016  156.0086 H   0  0  0  0  0  0  0  0  0  0  0  0  # atno 8009 bound_to 7997
  156.0964  140.3226  155.7887 H   0  0  0  0  0  0  0  0  0  0  0  0  # atno 8010 bound_to 7997
  139.6366  144.7120  151.2322 H   0  0  0  0  0  0  0  0  0  0  0  0  # atno 10167 bound_to 10162
  156.0009  130.5012  150.5719 H   0  0  0  0  0  0  0  0  0  0  0  0  # atno 10718 bound_to 10713
  153.6066  135.6997  153.5363 H   0  0  0  0  0  0  0  0  0  0  0  0  # atno 10763 bound_to 10752
  153.3052  135.4117  155.1287 H   0  0  0  0  0  0  0  0  0  0  0  0  # atno 10764 bound_to 10752
  154.8572  135.3658  154.5603 H   0  0  0  0  0  0  0  0  0  0  0  0  # atno 10765 bound_to 10752
  140.2657  134.7867  157.3630 H   0  0  0  0  0  0  0  0  0  0  0  0  # atno 11005 bound_to 11000
  144.8686  140.7241  143.6061 LP  0  0  0  0  0  0  0  0  0  0  0  0  # atno 17320 bound_to 7965
  145.3479  139.1714  143.4450 LP  0  0  0  0  0  0  0  0  0  0  0  0  # atno 17321 bound_to 7965
  140.7468  143.6385  150.8357 LP  0  0  0  0  0  0  0  0  0  0  0  0  # atno 17342 bound_to 10162
  140.0017  143.5737  152.2873 LP  0  0  0  0  0  0  0  0  0  0  0  0  # atno 17343 bound_to 10162
  157.3612  131.0750  151.1634 LP  0  0  0  0  0  0  0  0  0  0  0  0  # atno 17370 bound_to 10713
  157.2419  130.6573  149.5893 LP  0  0  0  0  0  0  0  0  0  0  0  0  # atno 17371 bound_to 10713
  140.1421  134.4958  155.8023 LP  0  0  0  0  0  0  0  0  0  0  0  0  # atno 17394 bound_to 11000
  141.2184  133.6829  156.7229 LP  0  0  0  0  0  0  0  0  0  0  0  0  # atno 17395 bound_to 11000

$$$$
