AV-unprocessed.smi:3161|AV-procd|sdf|12060|dock2
  -GOLD-   2272017483D 1   1.00000     0.00000
 Structure written by MMmdl.
 40 41  0  0  0  0  0  0  0  0  1 V2000
  142.8124  135.5003  152.7051 C   0  0  0  0  0  0  0  0  0  0  0  0
  143.8992  136.2589  153.4105 C   0  0  0  0  0  0  0  0  0  0  0  0
  144.6529  135.8529  154.5480 C   0  0  0  0  0  0  0  0  0  0  0  0
  145.5431  136.7561  154.9241 N   0  0  0  0  0  0  0  0  0  0  0  0
  145.3785  137.7771  154.0555 N   0  0  0  0  0  0  0  0  0  0  0  0
  146.2225  138.9575  154.1486 C   0  0  0  0  0  0  0  0  0  0  0  0
  147.3391  139.0299  153.0755 C   0  0  1  0  0  0  0  0  0  0  0  0
  146.7471  138.8182  151.6746 C   0  0  0  0  0  0  0  0  0  0  0  0
  148.0693  140.3039  153.0861 N   0  0  0  0  0  0  0  0  0  0  0  0
  148.4207  140.8345  154.4023 C   0  0  0  0  0  0  0  0  0  0  0  0
  149.4546  139.9433  155.1058 C   0  0  2  0  0  0  0  0  0  0  0  0
  150.1891  140.6733  156.2495 C   0  0  0  0  0  0  0  0  0  0  0  0
  151.2746  139.7747  156.8527 C   0  0  0  0  0  0  0  0  0  0  0  0
  152.1979  139.2633  155.7421 C   0  0  0  0  0  0  0  0  0  0  0  0
  151.3730  138.6143  154.6196 C   0  0  0  0  0  0  0  0  0  0  0  0
  150.4098  139.5406  154.1264 O   0  0  0  0  0  0  0  0  0  0  0  0
  144.4054  137.4940  153.1197 C   0  0  0  0  0  0  0  0  0  0  0  0
  142.8399  134.4370  152.9445 H   0  0  0  0  0  0  0  0  0  0  0  0
  142.8975  135.5873  151.6217 H   0  0  0  0  0  0  0  0  0  0  0  0
  141.8235  135.8665  152.9812 H   0  0  0  0  0  0  0  0  0  0  0  0
  144.5828  134.9304  155.1051 H   0  0  0  0  0  0  0  0  0  0  0  0
  145.5618  139.8201  154.0532 H   0  0  0  0  0  0  0  0  0  0  0  0
  146.6495  139.0141  155.1508 H   0  0  0  0  0  0  0  0  0  0  0  0
  148.0455  138.2152  153.2383 H   0  0  0  0  0  0  0  0  0  0  0  0
  146.2527  137.8495  151.5994 H   0  0  0  0  0  0  0  0  0  0  0  0
  147.5236  138.8464  150.9094 H   0  0  0  0  0  0  0  0  0  0  0  0
  146.0118  139.5868  151.4326 H   0  0  0  0  0  0  0  0  0  0  0  0
  148.9125  140.2090  152.5288 H   0  0  0  0  0  0  0  0  0  0  0  0
  148.8486  141.8293  154.2937 H   0  0  0  0  0  0  0  0  0  0  0  0
  147.5321  140.9376  155.0265 H   0  0  0  0  0  0  0  0  0  0  0  0
  148.9541  139.0519  155.4893 H   0  0  0  0  0  0  0  0  0  0  0  0
  150.6436  141.5897  155.8706 H   0  0  0  0  0  0  0  0  0  0  0  0
  149.4849  140.9722  157.0264 H   0  0  0  0  0  0  0  0  0  0  0  0
  151.8467  140.3194  157.6042 H   0  0  0  0  0  0  0  0  0  0  0  0
  150.8098  138.9296  157.3620 H   0  0  0  0  0  0  0  0  0  0  0  0
  152.7768  140.0931  155.3349 H   0  0  0  0  0  0  0  0  0  0  0  0
  152.9155  138.5490  156.1465 H   0  0  0  0  0  0  0  0  0  0  0  0
  152.0261  138.3157  153.7995 H   0  0  0  0  0  0  0  0  0  0  0  0
  150.8757  137.7107  154.9749 H   0  0  0  0  0  0  0  0  0  0  0  0
  144.1515  138.1920  152.3355 H   0  0  0  0  0  0  0  0  0  0  0  0
  1  2  1  0  0  0  0
  1 18  1  0  0  0  0
  1 19  1  0  0  0  0
  1 20  1  0  0  0  0
  2 17  2  0  0  0  0
  2  3  1  0  0  0  0
  3  4  2  0  0  0  0
  3 21  1  0  0  0  0
  4  5  1  0  0  0  0
  5  6  1  0  0  0  0
  5 17  1  0  0  0  0
  6  7  1  0  0  0  0
  6 22  1  0  0  0  0
  6 23  1  0  0  0  0
  7  8  1  0  0  0  0
  7  9  1  0  0  0  0
  7 24  1  0  0  0  0
  8 25  1  0  0  0  0
  8 26  1  0  0  0  0
  8 27  1  0  0  0  0
  9 10  1  0  0  0  0
  9 28  1  0  0  0  0
 10 11  1  0  0  0  0
 10 29  1  0  0  0  0
 10 30  1  0  0  0  0
 11 16  1  0  0  0  0
 11 12  1  0  0  0  0
 11 31  1  0  0  0  0
 12 13  1  0  0  0  0
 12 32  1  0  0  0  0
 12 33  1  0  0  0  0
 13 14  1  0  0  0  0
 13 34  1  0  0  0  0
 13 35  1  0  0  0  0
 14 15  1  0  0  0  0
 14 36  1  0  0  0  0
 14 37  1  0  0  0  0
 15 16  1  0  0  0  0
 15 38  1  0  0  0  0
 15 39  1  0  0  0  0
 17 40  1  0  0  0  0
M  END
> <s_m_source_file>
AV-unprocessed.smi

> <i_m_source_file_index>
3161

> <i_lp_mmshare_version>
43012

> <i_f3d_flags>
0

> <s_epik_input>
W0NIM11jMVtjSF1ubihbY0hdMSlbQ0gyXVtDQEhdKFtDSDNdKVtOSF1bQ0gyXVtDQEBIXTJbQ0gyXVtDSDJdW0NIMl1bQ0gyXU8y

> <s_epik_cmdline>
J2VwaWtfcHl0aG9uJywgJy1waCcsICc3LjAnLCAnLXRuJywgJzgnLCAnLW1hJywgJzIwMCcsICctbWV0YWxfYmluZGluZycsICctaW1hZScsICc8aW5maWxlLm1hZT4nLCAnLW9tYWUnLCAnPG91dGZpbGUubWFlPic=

> <r_lp_tautomer_probability>
1

> <r_epik_Ionization_Penalty>
2.51986

> <r_epik_Ionization_Penalty_Charging>
0

> <r_epik_Ionization_Penalty_Neutral>
2.51986

> <r_epik_State_Penalty>
2.68614

> <r_epik_Charging_Adjusted_Penalty>
2.68614

> <i_epik_Tot_Q>
0

> <i_epik_Tot_abs_Q>
0

> <r_epik_Metal_State_Penalty>
2.68606

> <b_epik_Metal_Only>
0

> <s_lp_Force_Field>
OPLS_2005

> <r_lp_Energy>
14.6841

> <b_lp_Chiralities_Consistent>
1

> <s_lp_Variant>
AV-unprocessed.smi:3161-6

> <Gold.Version>
5.8.1

> <Gold.Id.Protein>
6NUR|6NUR_protein|mol2

> <Gold.PLP.Fitness>
37.7971

> <Gold.PLP.PLP>
-27.2361

> <Gold.PLP.part.hbond>
-1.7815

> <Gold.PLP.part.metal>
0.0000

> <Gold.PLP.part.buried>
-1.9179

> <Gold.PLP.part.nonpolar>
-24.2261

> <Gold.PLP.part.repulsive>
0.5085

> <Gold.PLP.ligand.clash>
0.0000

> <Gold.PLP.ligand.torsion>
0.5193

> <Gold.PLP.Chemscore.Hbond>
1.8500

> <Gold.PLP.Chemscore.CHOScore>
1.9903

> <Gold.PLP.Chemscore.Metal>
0.0000

> <Gold.Chemscore.Hbonds>
donor molecule, donor type, donor heavy atom, donor atom, acceptor molecule, acceptor atom, score
      L1  H     9    28       P1  7957  0.99
      P1  H  7989  7998       L1    16  0.90
      L1  C    17    40       P1 10171  0.93
      L1  C    17    40       P1 10175  1.00

> <Gold.PLP.Chemscore.Internal.Correction>
0.0787

> <Gold.Rescore>
     Score         DG    S(hbond)    S(metal)    S(lipo)     H(rot)  DE(clash)    DE(int)     intcor
     13.69     -14.42       1.48        0.00      66.91       1.50       0.20       0.53       ----

> <Gold.Chemscore.Fitness>
13.6933

> <Gold.Chemscore.DG>
-14.4175

> <Gold.Chemscore.ZeroCoef>
-5.4800

> <Gold.Chemscore.Hbond>
1.4842

> <Gold.Chemscore.Metal>
0.0000

> <Gold.Chemscore.Lipo>
66.9070

> <Gold.Chemscore.Internal_Hbond>
0.0000

> <Gold.Chemscore.DEClash>
0.1973

> <Gold.Chemscore.DEInternal>
0.5268

> <Gold.Chemscore.Rot>
1.5030

> <Gold.Chemscore.Internal.Correction>
   9.000000E+99

> <Gold.Chemscore.Hbonds>
donor molecule, donor type, donor heavy atom, donor atom, acceptor molecule, acceptor atom, score
      L1  H     9    28       P1  7957  0.89
      P1  H  7989  7998       L1    16  0.17

> <Gold.Chemscore.Hbond.Weighted>
-4.9571

> <Gold.Chemscore.Metal.Weighted>
-0.0000

> <Gold.Chemscore.Lipo.Weighted>
-7.8281

> <Gold.Chemscore.Internal_Hbond.Weighted>
0.0000

> <Gold.Chemscore.DEClash.Weighted>
0.1973

> <Gold.Chemscore.DEInternal.Weighted>
0.5268

> <Gold.Chemscore.Rot.Weighted>
3.8477

> <Gold.Chemscore.Internal.Correction.Weighted>
   9.000000E+99

> <Gold.Protein.RotatedTorsions>
[ 6907 6896 6895 6894 ] final   23.08 input  -60.11 | X-H torsion
[ 7974 7965 7964 7962 ] final   56.30 input  175.53 | X-H torsion
[ 8008 7997 7996 7995 ] final -102.01 input   59.86 | X-H torsion
[ 10167 10162 10161 10158 ] final   34.48 input  -65.29 | X-H torsion
[ 10718 10713 10712 10709 ] final -115.26 input   66.30 | X-H torsion
[ 10763 10752 10751 10750 ] final -148.19 input  -60.55 | X-H torsion
[ 11005 11000 10999 10996 ] final  -49.58 input  -57.11 | X-H torsion

> <Gold.Protein.ActiveResidues>
 VAL166  LYS551  ARG553  GLY616  TRP617  ASP618  TYR619  PRO620  LYS621  CYS622 
 ASP623  PHE694  ASN695  SER759  ASP760  ASP761  ALA762  ILE779  LEU786  VAL792 
 PHE793  MET794  SER795  GLU796  ALA797  LYS798  CYS799  TRP800  GLU811  SER814 

> <Gold.Protein.RotatedAtoms>
  151.9369  135.0231  160.0532 H   0  0  0  0  0  0  0  0  0  0  0  0  # atno 6907 bound_to 6896
  152.2070  133.4878  159.5097 H   0  0  0  0  0  0  0  0  0  0  0  0  # atno 6908 bound_to 6896
  150.6967  134.1434  159.4156 H   0  0  0  0  0  0  0  0  0  0  0  0  # atno 6909 bound_to 6896
  145.9412  139.3890  143.0362 H   0  0  0  0  0  0  0  0  0  0  0  0  # atno 7974 bound_to 7965
  154.8507  140.0431  157.1602 H   0  0  0  0  0  0  0  0  0  0  0  0  # atno 8008 bound_to 7997
  154.8946  140.2991  155.5331 H   0  0  0  0  0  0  0  0  0  0  0  0  # atno 8009 bound_to 7997
  156.2996  140.2387  156.3966 H   0  0  0  0  0  0  0  0  0  0  0  0  # atno 8010 bound_to 7997
  140.4311  144.1323  150.6159 H   0  0  0  0  0  0  0  0  0  0  0  0  # atno 10167 bound_to 10162
  156.0884  130.6071  150.8882 H   0  0  0  0  0  0  0  0  0  0  0  0  # atno 10718 bound_to 10713
  154.8246  135.3341  154.6935 H   0  0  0  0  0  0  0  0  0  0  0  0  # atno 10763 bound_to 10752
  153.7563  135.6936  153.4939 H   0  0  0  0  0  0  0  0  0  0  0  0  # atno 10764 bound_to 10752
  153.2141  135.4472  155.0364 H   0  0  0  0  0  0  0  0  0  0  0  0  # atno 10765 bound_to 10752
  141.0767  133.6664  156.3606 H   0  0  0  0  0  0  0  0  0  0  0  0  # atno 11005 bound_to 11000
  145.8297  140.9637  143.0856 LP  0  0  0  0  0  0  0  0  0  0  0  0  # atno 17320 bound_to 7965
  144.6779  140.0146  143.7484 LP  0  0  0  0  0  0  0  0  0  0  0  0  # atno 17321 bound_to 7965
  140.4426  143.2520  151.9453 LP  0  0  0  0  0  0  0  0  0  0  0  0  # atno 17342 bound_to 10162
  139.4785  144.5640  151.8194 LP  0  0  0  0  0  0  0  0  0  0  0  0  # atno 17343 bound_to 10162
  157.6025  131.0940  150.8935 LP  0  0  0  0  0  0  0  0  0  0  0  0  # atno 17370 bound_to 10713
  156.9090  130.5274  149.5281 LP  0  0  0  0  0  0  0  0  0  0  0  0  # atno 17371 bound_to 10713
  140.5558  134.5983  157.5420 LP  0  0  0  0  0  0  0  0  0  0  0  0  # atno 17394 bound_to 11000
  139.9579  134.7502  156.0300 LP  0  0  0  0  0  0  0  0  0  0  0  0  # atno 17395 bound_to 11000

$$$$
