AV-unprocessed.smi:2165|AV-procd|sdf|8813|dock5
  -GOLD-   2272012 03D 1   1.00000     0.00000
 Structure written by MMmdl.
 36 37  0  0  0  0  0  0  0  0  1 V2000
  150.9470  141.8219  156.5596 C   0  0  0  0  0  0  0  0  0  0  0  0
  150.6658  140.6559  155.7484 N   0  0  0  0  0  0  0  0  0  0  0  0
  151.6181  139.6096  155.6893 C   0  0  0  0  0  0  0  0  0  0  0  0
  152.6834  139.6443  156.3057 O   0  0  0  0  0  0  0  0  0  0  0  0
  151.2337  138.4926  154.8345 C   0  0  0  0  0  0  0  0  0  0  0  0
  150.0588  138.5005  154.1676 C   0  0  0  0  0  0  0  0  0  0  0  0
  149.1489  139.5396  154.2381 N   0  0  0  0  0  0  0  0  0  0  0  0
  147.9021  139.4705  153.4655 C   0  0  0  0  0  0  0  0  0  0  0  0
  146.9308  138.4040  153.9892 C   0  0  0  0  0  0  0  0  0  0  0  0
  146.2550  138.6092  154.9987 O   0  0  0  0  0  0  0  0  0  0  0  0
  146.8618  137.2698  153.2767 N   0  0  0  0  0  0  0  0  0  0  0  0
  146.0251  136.1223  153.6073 C   0  0  0  0  0  0  0  0  0  0  0  0
  144.9900  135.8431  152.5047 C   0  0  1  0  0  0  0  0  0  0  0  0
  145.6076  135.6074  151.1278 C   0  0  0  0  0  0  0  0  0  0  0  0
  144.5318  134.7919  150.4487 C   0  0  0  0  0  0  0  0  0  0  0  0
  144.0476  133.9042  151.5914 C   0  0  0  0  0  0  0  0  0  0  0  0
  144.2636  134.6490  152.7877 O   0  0  0  0  0  0  0  0  0  0  0  0
  149.4421  140.6606  155.0436 C   0  0  0  0  0  0  0  0  0  0  0  0
  148.6531  141.6062  155.1191 O   0  0  0  0  0  0  0  0  0  0  0  0
  151.8474  141.6818  157.1569 H   0  0  0  0  0  0  0  0  0  0  0  0
  150.0955  141.9724  157.2258 H   0  0  0  0  0  0  0  0  0  0  0  0
  151.0714  142.6631  155.8759 H   0  0  0  0  0  0  0  0  0  0  0  0
  151.9005  137.6490  154.7319 H   0  0  0  0  0  0  0  0  0  0  0  0
  149.8228  137.6509  153.5433 H   0  0  0  0  0  0  0  0  0  0  0  0
  147.3933  140.4349  153.4912 H   0  0  0  0  0  0  0  0  0  0  0  0
  148.1262  139.2827  152.4136 H   0  0  0  0  0  0  0  0  0  0  0  0
  147.4507  137.1842  152.4610 H   0  0  0  0  0  0  0  0  0  0  0  0
  146.6502  135.2431  153.7717 H   0  0  0  0  0  0  0  0  0  0  0  0
  145.5202  136.3244  154.5523 H   0  0  0  0  0  0  0  0  0  0  0  0
  144.2738  136.6633  152.4324 H   0  0  0  0  0  0  0  0  0  0  0  0
  145.8394  136.5337  150.6016 H   0  0  0  0  0  0  0  0  0  0  0  0
  146.5235  135.0203  151.2097 H   0  0  0  0  0  0  0  0  0  0  0  0
  143.7253  135.4443  150.1105 H   0  0  0  0  0  0  0  0  0  0  0  0
  144.8967  134.2250  149.5918 H   0  0  0  0  0  0  0  0  0  0  0  0
  143.0006  133.6213  151.4816 H   0  0  0  0  0  0  0  0  0  0  0  0
  144.6415  132.9910  151.6424 H   0  0  0  0  0  0  0  0  0  0  0  0
  1  2  1  0  0  0  0
  1 20  1  0  0  0  0
  1 21  1  0  0  0  0
  1 22  1  0  0  0  0
  2 18  1  0  0  0  0
  2  3  1  0  0  0  0
  3  4  2  0  0  0  0
  3  5  1  0  0  0  0
  5  6  2  0  0  0  0
  5 23  1  0  0  0  0
  6  7  1  0  0  0  0
  6 24  1  0  0  0  0
  7  8  1  0  0  0  0
  7 18  1  0  0  0  0
  8  9  1  0  0  0  0
  8 25  1  0  0  0  0
  8 26  1  0  0  0  0
  9 10  2  0  0  0  0
  9 11  1  0  0  0  0
 11 12  1  0  0  0  0
 11 27  1  0  0  0  0
 12 13  1  0  0  0  0
 12 28  1  0  0  0  0
 12 29  1  0  0  0  0
 13 17  1  0  0  0  0
 13 14  1  0  0  0  0
 13 30  1  0  0  0  0
 14 15  1  0  0  0  0
 14 31  1  0  0  0  0
 14 32  1  0  0  0  0
 15 16  1  0  0  0  0
 15 33  1  0  0  0  0
 15 34  1  0  0  0  0
 16 17  1  0  0  0  0
 16 35  1  0  0  0  0
 16 36  1  0  0  0  0
 18 19  2  0  0  0  0
M  END
> <s_m_source_file>
AV-unprocessed.smi

> <i_m_source_file_index>
2165

> <i_lp_mmshare_version>
43012

> <i_f3d_flags>
0

> <s_epik_input>
W0NIM11uMWMoPU8pW2NIXVtjSF1uKGMxPU8pW0NIMl1DKD1PKVtOSF1bQ0gyXVtDQEBIXTJbQ0gyXVtDSDJdW0NIMl1PMg==

> <s_epik_cmdline>
J2VwaWtfcHl0aG9uJywgJy1waCcsICc3LjAnLCAnLXRuJywgJzgnLCAnLW1hJywgJzIwMCcsICctbWV0YWxfYmluZGluZycsICctaW1hZScsICc8aW5maWxlLm1hZT4nLCAnLW9tYWUnLCAnPG91dGZpbGUubWFlPic=

> <r_lp_tautomer_probability>
1

> <r_epik_Ionization_Penalty>
3.89869e-08

> <r_epik_Ionization_Penalty_Charging>
1.21279e-08

> <r_epik_Ionization_Penalty_Neutral>
2.6859e-08

> <r_epik_State_Penalty>
-0

> <r_epik_Charging_Adjusted_Penalty>
1.21279e-08

> <i_epik_Tot_Q>
0

> <i_epik_Tot_abs_Q>
0

> <r_epik_Metal_State_Penalty>
-0

> <b_epik_Metal_Only>
0

> <s_lp_Force_Field>
OPLS_2005

> <r_lp_Energy>
24.234

> <b_lp_Chiralities_Consistent>
1

> <s_lp_Variant>
AV-unprocessed.smi:2165-2

> <Gold.Version>
5.8.1

> <Gold.Id.Protein>
6NUR|6NUR_protein|mol2

> <Gold.PLP.Fitness>
40.3014

> <Gold.PLP.PLP>
-32.5748

> <Gold.PLP.part.hbond>
-2.0000

> <Gold.PLP.part.metal>
0.0000

> <Gold.PLP.part.buried>
-2.5570

> <Gold.PLP.part.nonpolar>
-29.2437

> <Gold.PLP.part.repulsive>
0.3176

> <Gold.PLP.ligand.clash>
0.0000

> <Gold.PLP.ligand.torsion>
0.3169

> <Gold.PLP.Chemscore.Hbond>
1.7840

> <Gold.PLP.Chemscore.CHOScore>
1.0000

> <Gold.PLP.Chemscore.Metal>
0.0000

> <Gold.Chemscore.Hbonds>
donor molecule, donor type, donor heavy atom, donor atom, acceptor molecule, acceptor atom, score
      L1  H    11    27       P1  7948  0.83
      P1  H  7997  8010       L1     4  1.00
      L1  C     6    24       P1  7948  1.00

> <Gold.PLP.Chemscore.Internal.Correction>
0.0085

> <Gold.Rescore>
     Score         DG    S(hbond)    S(metal)    S(lipo)     H(rot)  DE(clash)    DE(int)     intcor
     12.53     -12.84       1.88        0.00      50.06       1.87       0.05       0.25       ----

> <Gold.Chemscore.Fitness>
12.5299

> <Gold.Chemscore.DG>
-12.8363

> <Gold.Chemscore.ZeroCoef>
-5.4800

> <Gold.Chemscore.Hbond>
1.8806

> <Gold.Chemscore.Metal>
0.0000

> <Gold.Chemscore.Lipo>
50.0620

> <Gold.Chemscore.Internal_Hbond>
0.0000

> <Gold.Chemscore.DEClash>
0.0515

> <Gold.Chemscore.DEInternal>
0.2549

> <Gold.Chemscore.Rot>
1.8681

> <Gold.Chemscore.Internal.Correction>
   9.000000E+99

> <Gold.Chemscore.Hbonds>
donor molecule, donor type, donor heavy atom, donor atom, acceptor molecule, acceptor atom, score
      L1  H    11    27       P1  7948  0.81
      P1  H  7997  8010       L1     4  0.97

> <Gold.Chemscore.Hbond.Weighted>
-6.2812

> <Gold.Chemscore.Metal.Weighted>
-0.0000

> <Gold.Chemscore.Lipo.Weighted>
-5.8573

> <Gold.Chemscore.Internal_Hbond.Weighted>
0.0000

> <Gold.Chemscore.DEClash.Weighted>
0.0515

> <Gold.Chemscore.DEInternal.Weighted>
0.2549

> <Gold.Chemscore.Rot.Weighted>
4.7822

> <Gold.Chemscore.Internal.Correction.Weighted>
   9.000000E+99

> <Gold.Protein.RotatedTorsions>
[ 6907 6896 6895 6894 ] final  177.92 input  -60.11 | X-H torsion
[ 7974 7965 7964 7962 ] final   26.99 input  175.53 | X-H torsion
[ 8008 7997 7996 7995 ] final   93.81 input   59.86 | X-H torsion
[ 10167 10162 10161 10158 ] final  110.84 input  -65.29 | X-H torsion
[ 10718 10713 10712 10709 ] final   12.16 input   66.30 | X-H torsion
[ 10763 10752 10751 10750 ] final  -48.94 input  -60.55 | X-H torsion
[ 11005 11000 10999 10996 ] final  -66.80 input  -57.11 | X-H torsion

> <Gold.Protein.ActiveResidues>
 VAL166  LYS551  ARG553  GLY616  TRP617  ASP618  TYR619  PRO620  LYS621  CYS622 
 ASP623  PHE694  ASN695  SER759  ASP760  ASP761  ALA762  ILE779  LEU786  VAL792 
 PHE793  MET794  SER795  GLU796  ALA797  LYS798  CYS799  TRP800  GLU811  SER814 

> <Gold.Protein.RotatedAtoms>
  151.6962  133.3311  159.3254 H   0  0  0  0  0  0  0  0  0  0  0  0  # atno 6907 bound_to 6896
  150.7757  134.6656  159.6373 H   0  0  0  0  0  0  0  0  0  0  0  0  # atno 6908 bound_to 6896
  152.3797  134.6611  160.0199 H   0  0  0  0  0  0  0  0  0  0  0  0  # atno 6909 bound_to 6896
  146.1808  139.7253  142.8901 H   0  0  0  0  0  0  0  0  0  0  0  0  # atno 7974 bound_to 7965
  156.0509  140.3308  155.7350 H   0  0  0  0  0  0  0  0  0  0  0  0  # atno 8008 bound_to 7997
  155.5603  140.0618  157.2848 H   0  0  0  0  0  0  0  0  0  0  0  0  # atno 8009 bound_to 7997
  154.4435  140.1878  156.0764 H   0  0  0  0  0  0  0  0  0  0  0  0  # atno 8010 bound_to 7997
  139.6657  144.7127  151.1781 H   0  0  0  0  0  0  0  0  0  0  0  0  # atno 10167 bound_to 10162
  157.0060  130.6098  149.5702 H   0  0  0  0  0  0  0  0  0  0  0  0  # atno 10718 bound_to 10713
  154.0859  135.6584  153.4845 H   0  0  0  0  0  0  0  0  0  0  0  0  # atno 10763 bound_to 10752
  153.0339  135.5191  154.7428 H   0  0  0  0  0  0  0  0  0  0  0  0  # atno 10764 bound_to 10752
  154.6537  135.3005  154.9923 H   0  0  0  0  0  0  0  0  0  0  0  0  # atno 10765 bound_to 10752
  141.1492  133.6706  156.6196 H   0  0  0  0  0  0  0  0  0  0  0  0  # atno 11005 bound_to 11000
  145.4080  141.0393  143.3033 LP  0  0  0  0  0  0  0  0  0  0  0  0  # atno 17320 bound_to 7965
  144.8313  139.5624  143.6942 LP  0  0  0  0  0  0  0  0  0  0  0  0  # atno 17321 bound_to 7965
  140.7598  143.5923  150.8784 LP  0  0  0  0  0  0  0  0  0  0  0  0  # atno 17342 bound_to 10162
  139.9584  143.6192  152.3009 LP  0  0  0  0  0  0  0  0  0  0  0  0  # atno 17343 bound_to 10162
  156.0153  130.5247  150.8116 LP  0  0  0  0  0  0  0  0  0  0  0  0  # atno 17370 bound_to 10713
  157.5355  131.0938  150.9898 LP  0  0  0  0  0  0  0  0  0  0  0  0  # atno 17371 bound_to 10713
  140.3551  134.7735  157.4494 LP  0  0  0  0  0  0  0  0  0  0  0  0  # atno 17394 bound_to 11000
  140.0829  134.5706  155.8521 LP  0  0  0  0  0  0  0  0  0  0  0  0  # atno 17395 bound_to 11000

$$$$
