AV-unprocessed.smi:3354|AV-procd|sdf|12956|dock3
  -GOLD-   2272019393D 1   1.00000     0.00000
 Structure written by MMmdl.
 38 40  0  0  0  0  0  0  0  0  1 V2000
  146.1860  131.3800  149.5806 C   0  0  0  0  0  0  0  0  0  0  0  0
  145.3765  130.9696  150.7952 C   0  0  1  0  0  0  0  0  0  0  0  0
  145.9573  131.0896  152.1852 C   0  0  0  0  0  0  0  0  0  0  0  0
  144.8051  131.9826  151.7684 C   0  0  1  0  0  0  0  0  0  0  0  0
  145.0122  133.3831  151.5420 N   0  0  0  0  0  0  0  0  0  0  0  0
  145.4717  134.2788  152.5948 C   0  0  0  0  0  0  0  0  0  0  0  0
  145.1616  135.6993  152.0898 C   0  0  1  0  0  0  0  0  0  0  0  0
  146.2966  136.5952  152.3044 N   0  0  0  0  0  0  0  0  0  0  0  0
  146.3042  137.6698  153.1063 C   0  0  0  0  0  0  0  0  0  0  0  0
  145.3347  138.0305  153.7733 O   0  0  0  0  0  0  0  0  0  0  0  0
  147.5054  138.2732  153.0939 N   0  0  0  0  0  0  0  0  0  0  0  0
  147.9136  139.4487  153.7810 C   0  0  0  0  0  0  0  0  0  0  0  0
  149.2019  139.6411  154.3367 C   0  0  0  0  0  0  0  0  0  0  0  0
  149.4773  140.8450  155.0135 C   0  0  0  0  0  0  0  0  0  0  0  0
  148.4551  141.8081  155.1166 C   0  0  0  0  0  0  0  0  0  0  0  0
  147.2190  141.6328  154.6039 N   0  0  0  0  0  0  0  0  0  0  0  0
  146.9621  140.4760  153.9570 C   0  0  0  0  0  0  0  0  0  0  0  0
  144.8360  135.5397  150.5986 C   0  0  0  0  0  0  0  0  0  0  0  0
  144.6321  134.0426  150.4421 C   0  0  0  0  0  0  0  0  0  0  0  0
  144.1593  133.5392  149.4240 O   0  0  0  0  0  0  0  0  0  0  0  0
  146.8682  132.1966  149.8173 H   0  0  0  0  0  0  0  0  0  0  0  0
  145.5197  131.7040  148.7808 H   0  0  0  0  0  0  0  0  0  0  0  0
  146.7742  130.5352  149.2223 H   0  0  0  0  0  0  0  0  0  0  0  0
  144.7492  130.0988  150.6142 H   0  0  0  0  0  0  0  0  0  0  0  0
  145.7389  130.2871  152.8867 H   0  0  0  0  0  0  0  0  0  0  0  0
  146.9541  131.5164  152.2725 H   0  0  0  0  0  0  0  0  0  0  0  0
  143.8415  131.7250  152.2055 H   0  0  0  0  0  0  0  0  0  0  0  0
  144.9654  134.0751  153.5394 H   0  0  0  0  0  0  0  0  0  0  0  0
  146.5417  134.1292  152.7461 H   0  0  0  0  0  0  0  0  0  0  0  0
  144.2662  136.0626  152.5978 H   0  0  0  0  0  0  0  0  0  0  0  0
  147.1446  136.3764  151.8023 H   0  0  0  0  0  0  0  0  0  0  0  0
  148.2295  137.8088  152.5655 H   0  0  0  0  0  0  0  0  0  0  0  0
  149.9743  138.8906  154.2726 H   0  0  0  0  0  0  0  0  0  0  0  0
  150.4497  141.0235  155.4487 H   0  0  0  0  0  0  0  0  0  0  0  0
  148.6330  142.7414  155.6302 H   0  0  0  0  0  0  0  0  0  0  0  0
  145.9618  140.3691  153.5631 H   0  0  0  0  0  0  0  0  0  0  0  0
  143.9421  136.0948  150.3122 H   0  0  0  0  0  0  0  0  0  0  0  0
  145.6609  135.8538  149.9575 H   0  0  0  0  0  0  0  0  0  0  0  0
  1  2  1  0  0  0  0
  1 21  1  0  0  0  0
  1 22  1  0  0  0  0
  1 23  1  0  0  0  0
  2  4  1  0  0  0  0
  2  3  1  0  0  0  0
  2 24  1  0  0  0  0
  3  4  1  0  0  0  0
  3 25  1  0  0  0  0
  3 26  1  0  0  0  0
  4  5  1  0  0  0  0
  4 27  1  0  0  0  0
  5 19  1  0  0  0  0
  5  6  1  0  0  0  0
  6  7  1  0  0  0  0
  6 28  1  0  0  0  0
  6 29  1  0  0  0  0
  7  8  1  0  0  0  0
  7 18  1  0  0  0  0
  7 30  1  0  0  0  0
  8  9  1  0  0  0  0
  8 31  1  0  0  0  0
  9 10  2  0  0  0  0
  9 11  1  0  0  0  0
 11 12  1  0  0  0  0
 11 32  1  0  0  0  0
 12 17  1  0  0  0  0
 12 13  2  0  0  0  0
 13 14  1  0  0  0  0
 13 33  1  0  0  0  0
 14 15  2  0  0  0  0
 14 34  1  0  0  0  0
 15 16  1  0  0  0  0
 15 35  1  0  0  0  0
 16 17  2  0  0  0  0
 17 36  1  0  0  0  0
 18 19  1  0  0  0  0
 18 37  1  0  0  0  0
 18 38  1  0  0  0  0
 19 20  2  0  0  0  0
M  END
> <s_m_source_file>
AV-unprocessed.smi

> <i_m_source_file_index>
3354

> <i_lp_mmshare_version>
43012

> <i_f3d_flags>
0

> <s_epik_input>
W0NIM11bQ0BASF0xW0NIMl1bQ0BIXTFOMltDSDJdW0NASF0oW0NIMl1DMj1PKVtOSF1DKD1PKVtOSF1jM1tjSF1bY0hdW2NIXW5bY0hdMw==

> <s_epik_cmdline>
J2VwaWtfcHl0aG9uJywgJy1waCcsICc3LjAnLCAnLXRuJywgJzgnLCAnLW1hJywgJzIwMCcsICctbWV0YWxfYmluZGluZycsICctaW1hZScsICc8aW5maWxlLm1hZT4nLCAnLW9tYWUnLCAnPG91dGZpbGUubWFlPic=

> <r_epik_Ionization_Penalty>
0.00456191

> <r_epik_Ionization_Penalty_Charging>
0

> <r_epik_Ionization_Penalty_Neutral>
0.00456191

> <r_epik_State_Penalty>
0.00327094

> <r_epik_Charging_Adjusted_Penalty>
0.00327094

> <i_epik_Tot_Q>
0

> <i_epik_Tot_abs_Q>
0

> <r_epik_Metal_State_Penalty>
-0

> <b_epik_Metal_Only>
0

> <s_lp_Force_Field>
OPLS_2005

> <r_lp_Energy>
43.9825

> <b_lp_Chiralities_Consistent>
1

> <s_lp_Variant>
AV-unprocessed.smi:3354-2

> <Gold.Version>
5.8.1

> <Gold.Id.Protein>
6NUR|6NUR_protein|mol2

> <Gold.PLP.Fitness>
41.1795

> <Gold.PLP.PLP>
-29.8700

> <Gold.PLP.part.hbond>
-2.0000

> <Gold.PLP.part.metal>
0.0000

> <Gold.PLP.part.buried>
-2.1184

> <Gold.PLP.part.nonpolar>
-27.8846

> <Gold.PLP.part.repulsive>
1.6698

> <Gold.PLP.ligand.clash>
0.0000

> <Gold.PLP.ligand.torsion>
0.3865

> <Gold.PLP.Chemscore.Hbond>
1.9600

> <Gold.PLP.Chemscore.CHOScore>
1.9992

> <Gold.PLP.Chemscore.Metal>
0.0000

> <Gold.Chemscore.Hbonds>
donor molecule, donor type, donor heavy atom, donor atom, acceptor molecule, acceptor atom, score
      L1  H     8    31       P1  7948  0.98
      L1  H    11    32       P1  7948  1.00
      L1  C    15    35       P1  8028  0.89
      L1  C    17    36       P1 10175  1.00

> <Gold.PLP.Chemscore.Internal.Correction>
0.2048

> <Gold.Rescore>
     Score         DG    S(hbond)    S(metal)    S(lipo)     H(rot)  DE(clash)    DE(int)     intcor
     16.05     -18.70       1.92        0.00      85.28       1.24       1.12       1.53       ----

> <Gold.Chemscore.Fitness>
16.0500

> <Gold.Chemscore.DG>
-18.7024

> <Gold.Chemscore.ZeroCoef>
-5.4800

> <Gold.Chemscore.Hbond>
1.9188

> <Gold.Chemscore.Metal>
0.0000

> <Gold.Chemscore.Lipo>
85.2828

> <Gold.Chemscore.Internal_Hbond>
0.0000

> <Gold.Chemscore.DEClash>
1.1188

> <Gold.Chemscore.DEInternal>
1.5336

> <Gold.Chemscore.Rot>
1.2361

> <Gold.Chemscore.Internal.Correction>
   9.000000E+99

> <Gold.Chemscore.Hbonds>
donor molecule, donor type, donor heavy atom, donor atom, acceptor molecule, acceptor atom, score
      L1  H     8    31       P1  7948  0.93
      L1  H    11    32       P1  7948  0.95

> <Gold.Chemscore.Hbond.Weighted>
-6.4086

> <Gold.Chemscore.Metal.Weighted>
-0.0000

> <Gold.Chemscore.Lipo.Weighted>
-9.9781

> <Gold.Chemscore.Internal_Hbond.Weighted>
0.0000

> <Gold.Chemscore.DEClash.Weighted>
1.1188

> <Gold.Chemscore.DEInternal.Weighted>
1.5336

> <Gold.Chemscore.Rot.Weighted>
3.1643

> <Gold.Chemscore.Internal.Correction.Weighted>
   9.000000E+99

> <Gold.Protein.RotatedTorsions>
[ 6907 6896 6895 6894 ] final  -35.07 input  -60.11 | X-H torsion
[ 7974 7965 7964 7962 ] final   39.97 input  175.53 | X-H torsion
[ 8008 7997 7996 7995 ] final   68.39 input   59.86 | X-H torsion
[ 10167 10162 10161 10158 ] final  -16.17 input  -65.29 | X-H torsion
[ 10718 10713 10712 10709 ] final  -72.11 input   66.30 | X-H torsion
[ 10763 10752 10751 10750 ] final -128.07 input  -60.55 | X-H torsion
[ 11005 11000 10999 10996 ] final -150.62 input  -57.11 | X-H torsion

> <Gold.Protein.ActiveResidues>
 VAL166  LYS551  ARG553  GLY616  TRP617  ASP618  TYR619  PRO620  LYS621  CYS622 
 ASP623  PHE694  ASN695  SER759  ASP760  ASP761  ALA762  ILE779  LEU786  VAL792 
 PHE793  MET794  SER795  GLU796  ALA797  LYS798  CYS799  TRP800  GLU811  SER814 

> <Gold.Protein.RotatedAtoms>
  151.0445  134.9630  159.8179 H   0  0  0  0  0  0  0  0  0  0  0  0  # atno 6907 bound_to 6896
  152.5370  134.2615  159.8947 H   0  0  0  0  0  0  0  0  0  0  0  0  # atno 6908 bound_to 6896
  151.2628  133.4250  159.2651 H   0  0  0  0  0  0  0  0  0  0  0  0  # atno 6909 bound_to 6896
  146.0942  139.5589  142.9456 H   0  0  0  0  0  0  0  0  0  0  0  0  # atno 7974 bound_to 7965
  155.7076  140.3494  155.4960 H   0  0  0  0  0  0  0  0  0  0  0  0  # atno 8008 bound_to 7997
  155.9384  140.1097  157.1097 H   0  0  0  0  0  0  0  0  0  0  0  0  # atno 8009 bound_to 7997
  154.4098  140.1217  156.4881 H   0  0  0  0  0  0  0  0  0  0  0  0  # atno 8010 bound_to 7997
  140.7229  143.5144  150.9710 H   0  0  0  0  0  0  0  0  0  0  0  0  # atno 10167 bound_to 10162
  156.0334  130.4365  150.2544 H   0  0  0  0  0  0  0  0  0  0  0  0  # atno 10718 bound_to 10713
  154.8755  135.3941  154.3697 H   0  0  0  0  0  0  0  0  0  0  0  0  # atno 10763 bound_to 10752
  153.4458  135.7027  153.6145 H   0  0  0  0  0  0  0  0  0  0  0  0  # atno 10764 bound_to 10752
  153.4706  135.3791  155.2358 H   0  0  0  0  0  0  0  0  0  0  0  0  # atno 10765 bound_to 10752
  140.7383  134.3543  157.5153 H   0  0  0  0  0  0  0  0  0  0  0  0  # atno 11005 bound_to 11000
  145.5980  141.0359  143.2034 LP  0  0  0  0  0  0  0  0  0  0  0  0  # atno 17320 bound_to 7965
  144.7383  139.7522  143.7321 LP  0  0  0  0  0  0  0  0  0  0  0  0  # atno 17321 bound_to 7965
  139.8859  143.7014  152.3151 LP  0  0  0  0  0  0  0  0  0  0  0  0  # atno 17342 bound_to 10162
  139.7313  144.7582  151.0798 LP  0  0  0  0  0  0  0  0  0  0  0  0  # atno 17343 bound_to 10162
  157.0644  131.0099  151.3211 LP  0  0  0  0  0  0  0  0  0  0  0  0  # atno 17370 bound_to 10713
  157.5046  130.7901  149.7640 LP  0  0  0  0  0  0  0  0  0  0  0  0  # atno 17371 bound_to 10713
  139.8811  134.9064  156.2921 LP  0  0  0  0  0  0  0  0  0  0  0  0  # atno 17394 bound_to 11000
  140.9860  133.7238  156.0742 LP  0  0  0  0  0  0  0  0  0  0  0  0  # atno 17395 bound_to 11000

$$$$
