AV-unprocessed.smi:915|AV-procd|sdf|4157|dock7
  -GOLD-   22720 2 63D 1   1.00000     0.00000
 Structure written by MMmdl.
 33 34  0  0  0  0  0  0  0  0  2 V2000
  153.8428  142.8616  163.8098 C   0  0  0  0  0  0  0  0  0  0  0  0
  153.0741  142.7471  162.4886 C   0  0  0  0  0  0  0  0  0  0  0  0
  153.5551  141.6038  161.6479 C   0  0  0  0  0  0  0  0  0  0  0  0
  154.5406  140.7059  161.9592 C   0  0  0  0  0  0  0  0  0  0  0  0
  154.7737  139.5450  160.6847 S   0  0  0  0  0  0  0  0  0  0  0  0
  153.5030  140.3223  159.7374 C   0  0  0  0  0  0  0  0  0  0  0  0
  153.1469  139.8759  158.5122 N   0  5  0  0  0  0  0  0  0  0  0  0
  152.1177  140.3572  157.7693 C   0  0  0  0  0  0  0  0  0  0  0  0
  151.3516  139.7190  157.0442 O   0  0  0  0  0  0  0  0  0  0  0  0
  151.9653  141.6836  157.8771 N   0  0  0  0  0  0  0  0  0  0  0  0
  150.9404  142.4696  157.2014 C   0  0  0  0  0  0  0  0  0  0  0  0
  150.9242  143.9186  157.7141 C   0  0  1  0  0  0  0  0  0  0  0  0
  150.1672  144.0694  159.0407 C   0  0  0  0  0  0  0  0  0  0  0  0
  150.6732  145.3522  159.7013 C   0  0  0  0  0  0  0  0  0  0  0  0
  152.1970  145.3226  159.5844 C   0  0  0  0  0  0  0  0  0  0  0  0
  152.5973  144.5780  157.9836 S   0  0  0  0  0  0  0  0  0  0  0  0
  152.9827  141.3706  160.3959 N   0  0  0  0  0  0  0  0  0  0  0  0
  153.4755  143.6999  164.4017 H   0  0  0  0  0  0  0  0  0  0  0  0
  154.9071  143.0200  163.6327 H   0  0  0  0  0  0  0  0  0  0  0  0
  153.7329  141.9567  164.4081 H   0  0  0  0  0  0  0  0  0  0  0  0
  152.0109  142.6333  162.7022 H   0  0  0  0  0  0  0  0  0  0  0  0
  153.1697  143.6817  161.9349 H   0  0  0  0  0  0  0  0  0  0  0  0
  155.1422  140.6557  162.8540 H   0  0  0  0  0  0  0  0  0  0  0  0
  152.6026  142.1809  158.4817 H   0  0  0  0  0  0  0  0  0  0  0  0
  151.1401  142.4596  156.1288 H   0  0  0  0  0  0  0  0  0  0  0  0
  149.9647  142.0044  157.3510 H   0  0  0  0  0  0  0  0  0  0  0  0
  150.4454  144.5614  156.9740 H   0  0  0  0  0  0  0  0  0  0  0  0
  149.0877  144.0911  158.8876 H   0  0  0  0  0  0  0  0  0  0  0  0
  150.3835  143.2221  159.6930 H   0  0  0  0  0  0  0  0  0  0  0  0
  150.2803  146.2182  159.1672 H   0  0  0  0  0  0  0  0  0  0  0  0
  150.3481  145.4332  160.7387 H   0  0  0  0  0  0  0  0  0  0  0  0
  152.6387  146.3148  159.6787 H   0  0  0  0  0  0  0  0  0  0  0  0
  152.6198  144.6924  160.3675 H   0  0  0  0  0  0  0  0  0  0  0  0
  1  2  1  0  0  0  0
  1 18  1  0  0  0  0
  1 19  1  0  0  0  0
  1 20  1  0  0  0  0
  2  3  1  0  0  0  0
  2 21  1  0  0  0  0
  2 22  1  0  0  0  0
  3 17  1  0  0  0  0
  3  4  2  0  0  0  0
  4  5  1  0  0  0  0
  4 23  1  0  0  0  0
  5  6  1  0  0  0  0
  6  7  1  0  0  0  0
  6 17  2  0  0  0  0
  7  8  1  0  0  0  0
  8  9  2  0  0  0  0
  8 10  1  0  0  0  0
 10 11  1  0  0  0  0
 10 24  1  0  0  0  0
 11 12  1  0  0  0  0
 11 25  1  0  0  0  0
 11 26  1  0  0  0  0
 12 16  1  0  0  0  0
 12 13  1  0  0  0  0
 12 27  1  0  0  0  0
 13 14  1  0  0  0  0
 13 28  1  0  0  0  0
 13 29  1  0  0  0  0
 14 15  1  0  0  0  0
 14 30  1  0  0  0  0
 14 31  1  0  0  0  0
 15 16  1  0  0  0  0
 15 32  1  0  0  0  0
 15 33  1  0  0  0  0
M  CHG  1   7  -1
M  END
> <s_m_source_file>
AV-unprocessed.smi

> <i_m_source_file_index>
915

> <i_lp_mmshare_version>
43012

> <i_f3d_flags>
0

> <s_epik_input>
W0NIM11bQ0gyXWMxW2NIXXNjKG4xKVtOSF1DKD1PKVtOSF1bQ0gyXVtDQEBIXTJbQ0gyXVtDSDJdW0NIMl1TMg==

> <s_epik_cmdline>
J2VwaWtfcHl0aG9uJywgJy1waCcsICc3LjAnLCAnLXRuJywgJzgnLCAnLW1hJywgJzIwMCcsICctbWV0YWxfYmluZGluZycsICctaW1hZScsICc8aW5maWxlLm1hZT4nLCAnLW9tYWUnLCAnPG91dGZpbGUubWFlPic=

> <r_lp_tautomer_probability>
0.999

> <r_epik_Ionization_Penalty>
8.73043

> <r_epik_Ionization_Penalty_Charging>
6.79141

> <r_epik_Ionization_Penalty_Neutral>
1.93902

> <r_epik_State_Penalty>
6.79158

> <r_epik_Charging_Adjusted_Penalty>
13.583

> <i_epik_Tot_Q>
-1

> <i_epik_Tot_abs_Q>
1

> <r_epik_Metal_State_Penalty>
2.71141

> <b_epik_Metal_Only>
1

> <s_lp_Force_Field>
OPLS_2005

> <r_lp_Energy>
9.1846

> <b_lp_Chiralities_Consistent>
1

> <s_lp_Variant>
AV-unprocessed.smi:915-4

> <Gold.Version>
5.8.1

> <Gold.Id.Protein>
6NUR|6NUR_protein|mol2

> <Gold.PLP.Fitness>
45.1917

> <Gold.PLP.PLP>
-40.2094

> <Gold.PLP.part.hbond>
-1.0000

> <Gold.PLP.part.metal>
0.0000

> <Gold.PLP.part.buried>
-1.7555

> <Gold.PLP.part.nonpolar>
-36.0344

> <Gold.PLP.part.repulsive>
0.0731

> <Gold.PLP.ligand.clash>
0.0000

> <Gold.PLP.ligand.torsion>
0.5098

> <Gold.PLP.Chemscore.Hbond>
2.0000

> <Gold.PLP.Chemscore.CHOScore>
0.0000

> <Gold.PLP.Chemscore.Metal>
0.0000

> <Gold.Chemscore.Hbonds>
donor molecule, donor type, donor heavy atom, donor atom, acceptor molecule, acceptor atom, score
      P1  H  7997  8009       L1     7  1.76

> <Gold.PLP.Chemscore.Internal.Correction>
0.0018

> <Gold.Rescore>
     Score         DG    S(hbond)    S(metal)    S(lipo)     H(rot)  DE(clash)    DE(int)     intcor
     13.94     -16.10       0.20        0.00     114.29       1.33       0.34       1.82       ----

> <Gold.Chemscore.Fitness>
13.9404

> <Gold.Chemscore.DG>
-16.0991

> <Gold.Chemscore.ZeroCoef>
-5.4800

> <Gold.Chemscore.Hbond>
0.1956

> <Gold.Chemscore.Metal>
0.0000

> <Gold.Chemscore.Lipo>
114.2904

> <Gold.Chemscore.Internal_Hbond>
0.0000

> <Gold.Chemscore.DEClash>
0.3366

> <Gold.Chemscore.DEInternal>
1.8221

> <Gold.Chemscore.Rot>
1.3305

> <Gold.Chemscore.Internal.Correction>
   9.000000E+99

> <Gold.Chemscore.Hbonds>
donor molecule, donor type, donor heavy atom, donor atom, acceptor molecule, acceptor atom, score
      P1  H  7997  8009       L1     7  0.18

> <Gold.Chemscore.Hbond.Weighted>
-0.6532

> <Gold.Chemscore.Metal.Weighted>
-0.0000

> <Gold.Chemscore.Lipo.Weighted>
-13.3720

> <Gold.Chemscore.Internal_Hbond.Weighted>
0.0000

> <Gold.Chemscore.DEClash.Weighted>
0.3366

> <Gold.Chemscore.DEInternal.Weighted>
1.8221

> <Gold.Chemscore.Rot.Weighted>
3.4060

> <Gold.Chemscore.Internal.Correction.Weighted>
   9.000000E+99

> <Gold.Protein.RotatedTorsions>
[ 6907 6896 6895 6894 ] final  118.06 input  -60.11 | X-H torsion
[ 7974 7965 7964 7962 ] final   38.67 input  175.53 | X-H torsion
[ 8008 7997 7996 7995 ] final  145.55 input   59.86 | X-H torsion
[ 10167 10162 10161 10158 ] final  -24.49 input  -65.29 | X-H torsion
[ 10718 10713 10712 10709 ] final   14.51 input   66.30 | X-H torsion
[ 10763 10752 10751 10750 ] final -155.79 input  -60.55 | X-H torsion
[ 11005 11000 10999 10996 ] final -165.86 input  -57.11 | X-H torsion

> <Gold.Protein.ActiveResidues>
 VAL166  LYS551  ARG553  GLY616  TRP617  ASP618  TYR619  PRO620  LYS621  CYS622 
 ASP623  PHE694  ASN695  SER759  ASP760  ASP761  ALA762  ILE779  LEU786  VAL792 
 PHE793  MET794  SER795  GLU796  ALA797  LYS798  CYS799  TRP800  GLU811  SER814 

> <Gold.Protein.RotatedAtoms>
  152.4569  133.7742  159.6815 H   0  0  0  0  0  0  0  0  0  0  0  0  # atno 6907 bound_to 6896
  150.8499  133.7793  159.3035 H   0  0  0  0  0  0  0  0  0  0  0  0  # atno 6908 bound_to 6896
  151.5392  135.1071  159.9974 H   0  0  0  0  0  0  0  0  0  0  0  0  # atno 6909 bound_to 6896
  146.1044  139.5744  142.9393 H   0  0  0  0  0  0  0  0  0  0  0  0  # atno 7974 bound_to 7965
  156.2880  140.2206  156.5233 H   0  0  0  0  0  0  0  0  0  0  0  0  # atno 8008 bound_to 7997
  154.7510  140.0480  157.0915 H   0  0  0  0  0  0  0  0  0  0  0  0  # atno 8009 bound_to 7997
  155.0110  140.3113  155.4833 H   0  0  0  0  0  0  0  0  0  0  0  0  # atno 8010 bound_to 7997
  140.7288  143.4349  151.0745 H   0  0  0  0  0  0  0  0  0  0  0  0  # atno 10167 bound_to 10162
  157.0402  130.6228  149.5749 H   0  0  0  0  0  0  0  0  0  0  0  0  # atno 10718 bound_to 10713
  154.7761  135.3160  154.8089 H   0  0  0  0  0  0  0  0  0  0  0  0  # atno 10763 bound_to 10752
  153.8812  135.6834  153.4771 H   0  0  0  0  0  0  0  0  0  0  0  0  # atno 10764 bound_to 10752
  153.1385  135.4749  154.9395 H   0  0  0  0  0  0  0  0  0  0  0  0  # atno 10765 bound_to 10752
  140.5710  134.5238  157.5161 H   0  0  0  0  0  0  0  0  0  0  0  0  # atno 11005 bound_to 11000
  145.5791  141.0385  143.2132 LP  0  0  0  0  0  0  0  0  0  0  0  0  # atno 17320 bound_to 7965
  144.7459  139.7323  143.7292 LP  0  0  0  0  0  0  0  0  0  0  0  0  # atno 17321 bound_to 7965
  139.8010  143.8084  152.3163 LP  0  0  0  0  0  0  0  0  0  0  0  0  # atno 17342 bound_to 10162
  139.8101  144.7339  150.9709 LP  0  0  0  0  0  0  0  0  0  0  0  0  # atno 17343 bound_to 10162
  156.0040  130.5124  150.7766 LP  0  0  0  0  0  0  0  0  0  0  0  0  # atno 17370 bound_to 10713
  157.5110  131.0925  151.0198 LP  0  0  0  0  0  0  0  0  0  0  0  0  # atno 17371 bound_to 10713
  139.9362  134.7871  156.0797 LP  0  0  0  0  0  0  0  0  0  0  0  0  # atno 17394 bound_to 11000
  141.1056  133.6661  156.2856 LP  0  0  0  0  0  0  0  0  0  0  0  0  # atno 17395 bound_to 11000

$$$$
