AV-unprocessed.smi:2543|AV-procd|sdf|9993|dock3
  -GOLD-   2272014 43D 1   1.00000     0.00000
 Structure written by MMmdl.
 37 38  0  0  0  0  0  0  0  0  1 V2000
  145.3564  135.9713  151.1385 C   0  0  0  0  0  0  0  0  0  0  0  0
  145.6191  136.9021  152.0678 C   0  0  0  0  0  0  0  0  0  0  0  0
  146.2945  138.2292  151.7839 C   0  0  0  0  0  0  0  0  0  0  0  0
  147.5729  138.3370  152.4759 N   0  0  0  0  0  0  0  0  0  0  0  0
  147.8819  139.2807  153.3769 C   0  0  0  0  0  0  0  0  0  0  0  0
  147.0998  140.1633  153.7293 O   0  0  0  0  0  0  0  0  0  0  0  0
  149.1333  139.1168  153.8400 N   0  0  0  0  0  0  0  0  0  0  0  0
  149.8456  139.9063  154.7838 C   0  0  0  0  0  0  0  0  0  0  0  0
  151.1888  139.6837  155.1665 C   0  0  0  0  0  0  0  0  0  0  0  0
  151.7738  140.5304  156.1276 C   0  0  0  0  0  0  0  0  0  0  0  0
  151.0046  141.5744  156.6936 C   0  0  0  0  0  0  0  0  0  0  0  0
  151.5715  142.4338  157.6605 N   0  0  0  0  0  0  0  0  0  0  0  0
  151.2974  142.0917  159.0543 C   0  0  0  0  0  0  0  0  0  0  0  0
  152.2089  142.8995  159.9944 C   0  0  0  0  0  0  0  0  0  0  0  0
  152.0655  144.2907  159.7286 O   0  0  0  0  0  0  0  0  0  0  0  0
  152.4483  144.6163  158.3968 C   0  0  0  0  0  0  0  0  0  0  0  0
  151.5428  143.8723  157.4009 C   0  0  0  0  0  0  0  0  0  0  0  0
  149.7160  141.7812  156.3268 N   0  0  0  0  0  0  0  0  0  0  0  0
  149.1588  140.9672  155.4063 C   0  0  0  0  0  0  0  0  0  0  0  0
  145.6244  136.1217  150.1029 H   0  0  0  0  0  0  0  0  0  0  0  0
  144.8697  135.0444  151.4035 H   0  0  0  0  0  0  0  0  0  0  0  0
  145.3349  136.7175  153.0936 H   0  0  0  0  0  0  0  0  0  0  0  0
  146.4255  138.3734  150.7100 H   0  0  0  0  0  0  0  0  0  0  0  0
  145.6448  139.0313  152.1338 H   0  0  0  0  0  0  0  0  0  0  0  0
  148.2727  137.6454  152.2501 H   0  0  0  0  0  0  0  0  0  0  0  0
  149.6237  138.3000  153.5062 H   0  0  0  0  0  0  0  0  0  0  0  0
  151.7802  138.8810  154.7557 H   0  0  0  0  0  0  0  0  0  0  0  0
  152.8044  140.3740  156.4086 H   0  0  0  0  0  0  0  0  0  0  0  0
  150.2512  142.3119  159.2705 H   0  0  0  0  0  0  0  0  0  0  0  0
  151.4439  141.0303  159.2484 H   0  0  0  0  0  0  0  0  0  0  0  0
  151.9396  142.7074  161.0330 H   0  0  0  0  0  0  0  0  0  0  0  0
  153.2517  142.6009  159.8759 H   0  0  0  0  0  0  0  0  0  0  0  0
  152.3573  145.6932  158.2540 H   0  0  0  0  0  0  0  0  0  0  0  0
  153.4970  144.3612  158.2350 H   0  0  0  0  0  0  0  0  0  0  0  0
  151.8794  144.0802  156.3843 H   0  0  0  0  0  0  0  0  0  0  0  0
  150.5173  144.2345  157.4865 H   0  0  0  0  0  0  0  0  0  0  0  0
  148.1284  141.1747  155.1567 H   0  0  0  0  0  0  0  0  0  0  0  0
  1  2  2  0  0  0  0
  1 20  1  0  0  0  0
  1 21  1  0  0  0  0
  2  3  1  0  0  0  0
  2 22  1  0  0  0  0
  3  4  1  0  0  0  0
  3 23  1  0  0  0  0
  3 24  1  0  0  0  0
  4  5  1  0  0  0  0
  4 25  1  0  0  0  0
  5  6  2  0  0  0  0
  5  7  1  0  0  0  0
  7  8  1  0  0  0  0
  7 26  1  0  0  0  0
  8 19  1  0  0  0  0
  8  9  2  0  0  0  0
  9 10  1  0  0  0  0
  9 27  1  0  0  0  0
 10 11  2  0  0  0  0
 10 28  1  0  0  0  0
 11 12  1  0  0  0  0
 11 18  1  0  0  0  0
 12 17  1  0  0  0  0
 12 13  1  0  0  0  0
 13 14  1  0  0  0  0
 13 29  1  0  0  0  0
 13 30  1  0  0  0  0
 14 15  1  0  0  0  0
 14 31  1  0  0  0  0
 14 32  1  0  0  0  0
 15 16  1  0  0  0  0
 16 17  1  0  0  0  0
 16 33  1  0  0  0  0
 16 34  1  0  0  0  0
 17 35  1  0  0  0  0
 17 36  1  0  0  0  0
 18 19  2  0  0  0  0
 19 37  1  0  0  0  0
M  END
> <s_m_source_file>
AV-unprocessed.smi

> <i_m_source_file_index>
2543

> <i_lp_mmshare_version>
43012

> <i_f3d_flags>
0

> <s_epik_input>
W0NIMl09W0NIXVtDSDJdW05IXUMoPU8pW05IXWMxW2NIXVtjSF1jKG5bY0hdMSlOMltDSDJdW0NIMl1PW0NIMl1bQ0gyXTI=

> <s_epik_cmdline>
J2VwaWtfcHl0aG9uJywgJy1waCcsICc3LjAnLCAnLXRuJywgJzgnLCAnLW1hJywgJzIwMCcsICctbWV0YWxfYmluZGluZycsICctaW1hZScsICc8aW5maWxlLm1hZT4nLCAnLW9tYWUnLCAnPG91dGZpbGUubWFlPic=

> <r_lp_tautomer_probability>
1

> <r_epik_Ionization_Penalty>
0.00651682

> <r_epik_Ionization_Penalty_Charging>
0

> <r_epik_Ionization_Penalty_Neutral>
0.00651682

> <r_epik_State_Penalty>
0.00479503

> <r_epik_Charging_Adjusted_Penalty>
0.00479503

> <i_epik_Tot_Q>
0

> <i_epik_Tot_abs_Q>
0

> <r_epik_Metal_State_Penalty>
-0

> <b_epik_Metal_Only>
0

> <s_lp_Force_Field>
OPLS_2005

> <r_lp_Energy>
19.3567

> <b_lp_Chiralities_Consistent>
1

> <s_lp_Variant>
AV-unprocessed.smi:2543-1

> <Gold.Version>
5.8.1

> <Gold.Id.Protein>
6NUR|6NUR_protein|mol2

> <Gold.PLP.Fitness>
41.8443

> <Gold.PLP.PLP>
-39.2125

> <Gold.PLP.part.hbond>
-3.0000

> <Gold.PLP.part.metal>
0.0000

> <Gold.PLP.part.buried>
-0.8790

> <Gold.PLP.part.nonpolar>
-36.4513

> <Gold.PLP.part.repulsive>
0.5000

> <Gold.PLP.ligand.clash>
0.0000

> <Gold.PLP.ligand.torsion>
0.3578

> <Gold.PLP.Chemscore.Hbond>
1.0000

> <Gold.PLP.Chemscore.CHOScore>
0.0000

> <Gold.PLP.Chemscore.Metal>
0.0000

> <Gold.Chemscore.Hbonds>
donor molecule, donor type, donor heavy atom, donor atom, acceptor molecule, acceptor atom, score
      L1  H     4    25       P1  7948  1.00

> <Gold.PLP.Chemscore.Internal.Correction>
0.3475

> <Gold.Rescore>
     Score         DG    S(hbond)    S(metal)    S(lipo)     H(rot)  DE(clash)    DE(int)     intcor
     14.24     -16.12       1.00        0.00      92.75       1.38       0.07       1.81       ----

> <Gold.Chemscore.Fitness>
14.2417

> <Gold.Chemscore.DG>
-16.1169

> <Gold.Chemscore.ZeroCoef>
-5.4800

> <Gold.Chemscore.Hbond>
0.9955

> <Gold.Chemscore.Metal>
0.0000

> <Gold.Chemscore.Lipo>
92.7486

> <Gold.Chemscore.Internal_Hbond>
0.0000

> <Gold.Chemscore.DEClash>
0.0652

> <Gold.Chemscore.DEInternal>
1.8099

> <Gold.Chemscore.Rot>
1.3827

> <Gold.Chemscore.Internal.Correction>
   9.000000E+99

> <Gold.Chemscore.Hbonds>
donor molecule, donor type, donor heavy atom, donor atom, acceptor molecule, acceptor atom, score
      L1  H     4    25       P1  7948  0.98

> <Gold.Chemscore.Hbond.Weighted>
-3.3249

> <Gold.Chemscore.Metal.Weighted>
-0.0000

> <Gold.Chemscore.Lipo.Weighted>
-10.8516

> <Gold.Chemscore.Internal_Hbond.Weighted>
0.0000

> <Gold.Chemscore.DEClash.Weighted>
0.0652

> <Gold.Chemscore.DEInternal.Weighted>
1.8099

> <Gold.Chemscore.Rot.Weighted>
3.5396

> <Gold.Chemscore.Internal.Correction.Weighted>
   9.000000E+99

> <Gold.Protein.RotatedTorsions>
[ 6907 6896 6895 6894 ] final -123.40 input  -60.11 | X-H torsion
[ 7974 7965 7964 7962 ] final    6.21 input  175.53 | X-H torsion
[ 8008 7997 7996 7995 ] final   64.15 input   59.86 | X-H torsion
[ 10167 10162 10161 10158 ] final -114.08 input  -65.29 | X-H torsion
[ 10718 10713 10712 10709 ] final  -78.44 input   66.30 | X-H torsion
[ 10763 10752 10751 10750 ] final    1.73 input  -60.55 | X-H torsion
[ 11005 11000 10999 10996 ] final -124.29 input  -57.11 | X-H torsion

> <Gold.Protein.ActiveResidues>
 VAL166  LYS551  ARG553  GLY616  TRP617  ASP618  TYR619  PRO620  LYS621  CYS622 
 ASP623  PHE694  ASN695  SER759  ASP760  ASP761  ALA762  ILE779  LEU786  VAL792 
 PHE793  MET794  SER795  GLU796  ALA797  LYS798  CYS799  TRP800  GLU811  SER814 

> <Gold.Protein.RotatedAtoms>
  150.8667  133.7564  159.2974 H   0  0  0  0  0  0  0  0  0  0  0  0  # atno 6907 bound_to 6896
  151.5189  135.1065  159.9883 H   0  0  0  0  0  0  0  0  0  0  0  0  # atno 6908 bound_to 6896
  152.4666  133.7892  159.6948 H   0  0  0  0  0  0  0  0  0  0  0  0  # atno 6909 bound_to 6896
  146.2436  140.0268  142.8393 H   0  0  0  0  0  0  0  0  0  0  0  0  # atno 7974 bound_to 7965
  155.6415  140.3497  155.4716 H   0  0  0  0  0  0  0  0  0  0  0  0  # atno 8008 bound_to 7997
  155.9922  140.1196  157.0651 H   0  0  0  0  0  0  0  0  0  0  0  0  # atno 8009 bound_to 7997
  154.4222  140.1117  156.5567 H   0  0  0  0  0  0  0  0  0  0  0  0  # atno 8010 bound_to 7997
  140.1049  143.4580  152.1789 H   0  0  0  0  0  0  0  0  0  0  0  0  # atno 10167 bound_to 10162
  156.0117  130.4518  150.3496 H   0  0  0  0  0  0  0  0  0  0  0  0  # atno 10718 bound_to 10713
  153.3044  135.6958  153.7173 H   0  0  0  0  0  0  0  0  0  0  0  0  # atno 10763 bound_to 10752
  153.6075  135.3450  155.2968 H   0  0  0  0  0  0  0  0  0  0  0  0  # atno 10764 bound_to 10752
  154.8559  135.4355  154.2164 H   0  0  0  0  0  0  0  0  0  0  0  0  # atno 10765 bound_to 10752
  140.9853  134.0616  157.3718 H   0  0  0  0  0  0  0  0  0  0  0  0  # atno 11005 bound_to 11000
  145.1191  140.9451  143.4611 LP  0  0  0  0  0  0  0  0  0  0  0  0  # atno 17320 bound_to 7965
  145.0499  139.3190  143.5934 LP  0  0  0  0  0  0  0  0  0  0  0  0  # atno 17321 bound_to 7965
  139.5651  144.7430  151.4045 LP  0  0  0  0  0  0  0  0  0  0  0  0  # atno 17342 bound_to 10162
  140.6958  143.7753  150.7324 LP  0  0  0  0  0  0  0  0  0  0  0  0  # atno 17343 bound_to 10162
  157.1589  131.0340  151.2850 LP  0  0  0  0  0  0  0  0  0  0  0  0  # atno 17370 bound_to 10713
  157.4328  130.7500  149.7004 LP  0  0  0  0  0  0  0  0  0  0  0  0  # atno 17371 bound_to 10713
  139.8968  135.0147  156.7068 LP  0  0  0  0  0  0  0  0  0  0  0  0  # atno 17394 bound_to 11000
  140.7124  133.9211  155.8093 LP  0  0  0  0  0  0  0  0  0  0  0  0  # atno 17395 bound_to 11000

$$$$
