AV-unprocessed.smi:218|AV-procd|sdf|1673|dock6
  -GOLD-   2262020 93D 1   1.00000     0.00000
 Structure written by MMmdl.
 54 57  0  0  0  0  0  0  0  0  1 V2000
  153.4491  141.5140  160.3960 C   0  0  0  0  0  0  0  0  0  0  0  0
  152.9055  141.1499  159.0093 C   0  0  0  0  0  0  0  0  0  0  0  0
  151.4943  141.7247  158.7961 C   0  0  0  0  0  0  0  0  0  0  0  0
  152.8763  139.7231  158.9373 O   0  0  0  0  0  0  0  0  0  0  0  0
  152.4692  139.0941  157.7765 C   0  0  0  0  0  0  0  0  0  0  0  0
  152.0034  137.7666  157.8654 C   0  0  0  0  0  0  0  0  0  0  0  0
  151.5827  137.1101  156.6895 C   0  0  0  0  0  0  0  0  0  0  0  0
  151.0698  135.6797  156.7295 C   0  0  0  0  0  0  0  0  0  0  0  0
  150.5280  135.1809  155.4694 N   0  0  0  0  0  0  0  0  0  0  0  0
  149.2177  134.8690  155.3592 C   0  0  0  0  0  0  0  0  0  0  0  0
  148.2686  135.5767  156.0261 N   0  0  0  0  0  0  0  0  0  0  0  0
  146.9793  135.2506  155.8973 C   0  0  0  0  0  0  0  0  0  0  0  0
  146.4342  134.2778  155.1639 N   0  0  0  0  0  0  0  0  0  0  0  0
  147.3823  133.5673  154.4869 C   0  0  0  0  0  0  0  0  0  0  0  0
  148.7854  133.7995  154.5331 C   0  0  0  0  0  0  0  0  0  0  0  0
  149.4419  132.8834  153.7218 N   0  0  0  0  0  0  0  0  0  0  0  0
  148.4782  132.1551  153.2251 C   0  0  0  0  0  0  0  0  0  0  0  0
  147.2077  132.4996  153.6296 N   0  0  0  0  0  0  0  0  0  0  0  0
  145.9200  131.8604  153.2227 C   0  0  1  0  0  0  0  0  0  0  0  0
  145.1554  132.8095  152.5496 O   0  0  0  0  0  0  0  0  0  0  0  0
  144.4264  132.1624  151.5189 C   0  0  1  0  0  0  0  0  0  0  0  0
  143.9186  133.1821  150.4845 C   0  0  0  0  0  0  0  0  0  0  0  0
  142.9386  132.5945  149.6552 O   0  0  0  0  0  0  0  0  0  0  0  0
  145.3838  131.0709  151.0148 C   0  0  1  0  0  0  0  0  0  0  0  0
  146.2574  131.5543  150.0124 O   0  0  0  0  0  0  0  0  0  0  0  0
  146.1684  130.6798  152.2658 C   0  0  2  0  0  0  0  0  0  0  0  0
  145.6400  129.4799  152.7947 O   0  0  0  0  0  0  0  0  0  0  0  0
  151.6557  137.8069  155.4671 C   0  0  0  0  0  0  0  0  0  0  0  0
  152.1364  139.1304  155.4776 C   0  0  0  0  0  0  0  0  0  0  0  0
  152.5370  139.7648  156.5996 N   0  0  0  0  0  0  0  0  0  0  0  0
  145.4372  131.5738  154.1584 H   0  0  0  0  0  0  0  0  0  0  0  0
  143.5707  131.6798  151.9950 H   0  0  0  0  0  0  0  0  0  0  0  0
  144.8318  130.2328  150.5863 H   0  0  0  0  0  0  0  0  0  0  0  0
  147.2335  130.5457  152.0674 H   0  0  0  0  0  0  0  0  0  0  0  0
  153.5071  142.5951  160.5246 H   0  0  0  0  0  0  0  0  0  0  0  0
  154.4513  141.1094  160.5397 H   0  0  0  0  0  0  0  0  0  0  0  0
  152.8134  141.1161  161.1876 H   0  0  0  0  0  0  0  0  0  0  0  0
  153.5942  141.5673  158.2732 H   0  0  0  0  0  0  0  0  0  0  0  0
  151.4969  142.8107  158.8924 H   0  0  0  0  0  0  0  0  0  0  0  0
  150.7934  141.3271  159.5303 H   0  0  0  0  0  0  0  0  0  0  0  0
  151.1054  141.4870  157.8064 H   0  0  0  0  0  0  0  0  0  0  0  0
  151.9675  137.2659  158.8217 H   0  0  0  0  0  0  0  0  0  0  0  0
  151.8613  135.0115  157.0716 H   0  0  0  0  0  0  0  0  0  0  0  0
  150.2804  135.6256  157.4793 H   0  0  0  0  0  0  0  0  0  0  0  0
  151.2096  134.9341  154.7664 H   0  0  0  0  0  0  0  0  0  0  0  0
  146.2849  135.8563  156.4605 H   0  0  0  0  0  0  0  0  0  0  0  0
  148.6689  131.3425  152.5392 H   0  0  0  0  0  0  0  0  0  0  0  0
  143.4691  134.0340  150.9951 H   0  0  0  0  0  0  0  0  0  0  0  0
  144.7326  133.5745  149.8743 H   0  0  0  0  0  0  0  0  0  0  0  0
  142.2006  133.1826  149.5998 H   0  0  0  0  0  0  0  0  0  0  0  0
  147.1063  131.1592  150.1411 H   0  0  0  0  0  0  0  0  0  0  0  0
  144.9388  129.6998  153.3887 H   0  0  0  0  0  0  0  0  0  0  0  0
  151.3456  137.3432  154.5421 H   0  0  0  0  0  0  0  0  0  0  0  0
  152.2020  139.6948  154.5593 H   0  0  0  0  0  0  0  0  0  0  0  0
  1  2  1  0  0  0  0
  1 35  1  0  0  0  0
  1 36  1  0  0  0  0
  1 37  1  0  0  0  0
  2  3  1  0  0  0  0
  2  4  1  0  0  0  0
  2 38  1  0  0  0  0
  3 39  1  0  0  0  0
  3 40  1  0  0  0  0
  3 41  1  0  0  0  0
  4  5  1  0  0  0  0
  5 30  1  0  0  0  0
  5  6  2  0  0  0  0
  6  7  1  0  0  0  0
  6 42  1  0  0  0  0
  7  8  1  0  0  0  0
  7 28  2  0  0  0  0
  8  9  1  0  0  0  0
  8 43  1  0  0  0  0
  8 44  1  0  0  0  0
  9 10  1  0  0  0  0
  9 45  1  0  0  0  0
 10 15  1  0  0  0  0
 10 11  2  0  0  0  0
 11 12  1  0  0  0  0
 12 13  2  0  0  0  0
 12 46  1  0  0  0  0
 13 14  1  0  0  0  0
 14 18  1  0  0  0  0
 14 15  2  0  0  0  0
 15 16  1  0  0  0  0
 16 17  2  0  0  0  0
 17 18  1  0  0  0  0
 17 47  1  0  0  0  0
 18 19  1  0  0  0  0
 19 31  1  0  0  0  0
 19 26  1  0  0  0  0
 19 20  1  0  0  0  0
 20 21  1  0  0  0  0
 21 32  1  0  0  0  0
 21 22  1  0  0  0  0
 21 24  1  0  0  0  0
 22 23  1  0  0  0  0
 22 48  1  0  0  0  0
 22 49  1  0  0  0  0
 23 50  1  0  0  0  0
 24 33  1  0  0  0  0
 24 25  1  0  0  0  0
 24 26  1  0  0  0  0
 25 51  1  0  0  0  0
 26 34  1  0  0  0  0
 26 27  1  0  0  0  0
 27 52  1  0  0  0  0
 28 29  1  0  0  0  0
 28 53  1  0  0  0  0
 29 30  2  0  0  0  0
 29 54  1  0  0  0  0
M  END
> <s_m_source_file>
AV-unprocessed.smi

> <i_m_source_file_index>
218

> <i_lp_mmshare_version>
43012

> <i_f3d_flags>
0

> <s_epik_input>
W0NIM11bQ0hdKFtDSDNdKU9jMVtjSF1jKFtjSF1bY0hdbjEpW0NIMl1bTkhdYyhuW2NIXW4yKWMoYzIzKW5bY0hdbjNbQ0BASF00T1tDQEhdKFtDSDJdW09IXSlbQ0BASF0oW09IXSlbQ0BIXTRbT0hd

> <s_epik_cmdline>
J2VwaWtfcHl0aG9uJywgJy1waCcsICc3LjAnLCAnLXRuJywgJzgnLCAnLW1hJywgJzIwMCcsICctbWV0YWxfYmluZGluZycsICctaW1hZScsICc8aW5maWxlLm1hZT4nLCAnLW9tYWUnLCAnPG91dGZpbGUubWFlPic=

> <r_lp_tautomer_probability>
1

> <r_epik_Ionization_Penalty>
0.00457014

> <r_epik_Ionization_Penalty_Charging>
0

> <r_epik_Ionization_Penalty_Neutral>
0.00457014

> <r_epik_State_Penalty>
-0

> <r_epik_Charging_Adjusted_Penalty>
0

> <i_epik_Tot_Q>
0

> <i_epik_Tot_abs_Q>
0

> <r_epik_Metal_State_Penalty>
-0

> <b_epik_Metal_Only>
0

> <s_epik_Chemistry_Notes>
This compound contains an acetal/aminal-like group ( X-CH(R)-Y where X, Y are N, S, or O) that may be acid/base labile, releasing an aldehyde.

> <s_lp_Force_Field>
OPLS_2005

> <r_lp_Energy>
38.5835

> <b_lp_Chiralities_Consistent>
1

> <s_lp_Variant>
AV-unprocessed.smi:218-12

> <Gold.Version>
5.8.1

> <Gold.Id.Protein>
6NUR|6NUR_protein|mol2

> <Gold.PLP.Fitness>
58.2982

> <Gold.PLP.PLP>
-43.8164

> <Gold.PLP.part.hbond>
-5.2450

> <Gold.PLP.part.metal>
0.0000

> <Gold.PLP.part.buried>
-10.7624

> <Gold.PLP.part.nonpolar>
-29.9503

> <Gold.PLP.part.repulsive>
0.4420

> <Gold.PLP.ligand.clash>
0.0000

> <Gold.PLP.ligand.torsion>
0.7307

> <Gold.PLP.Chemscore.Hbond>
4.2425

> <Gold.PLP.Chemscore.CHOScore>
1.0000

> <Gold.PLP.Chemscore.Metal>
0.0000

> <Gold.Chemscore.Hbonds>
donor molecule, donor type, donor heavy atom, donor atom, acceptor molecule, acceptor atom, score
      L1  H    23    50       P1 10186  1.00
      L1  H    25    51       P1 10747  1.00
      L1  H    27    52       P1 10956  0.61
      P1  H  7997  8010       L1    30  1.00
      L1  C    17    47       P1 10747  1.00

> <Gold.PLP.Chemscore.Internal.Correction>
0.2158

> <Gold.Rescore>
     Score         DG    S(hbond)    S(metal)    S(lipo)     H(rot)  DE(clash)    DE(int)     intcor
     14.89     -15.72       3.61        0.00      91.72       4.90       0.12       0.71       ----

> <Gold.Chemscore.Fitness>
14.8917

> <Gold.Chemscore.DG>
-15.7230

> <Gold.Chemscore.ZeroCoef>
-5.4800

> <Gold.Chemscore.Hbond>
3.6117

> <Gold.Chemscore.Metal>
0.0000

> <Gold.Chemscore.Lipo>
91.7205

> <Gold.Chemscore.Internal_Hbond>
0.0000

> <Gold.Chemscore.DEClash>
0.1243

> <Gold.Chemscore.DEInternal>
0.7069

> <Gold.Chemscore.Rot>
4.9029

> <Gold.Chemscore.Internal.Correction>
   9.000000E+99

> <Gold.Chemscore.Hbonds>
donor molecule, donor type, donor heavy atom, donor atom, acceptor molecule, acceptor atom, score
      L1  H    23    50       P1 10186  1.00
      L1  H    25    51       P1 10747  1.00
      L1  H    27    52       P1 10956  0.12
      P1  H  7997  8010       L1    30  0.28

> <Gold.Chemscore.Hbond.Weighted>
-12.0632

> <Gold.Chemscore.Metal.Weighted>
-0.0000

> <Gold.Chemscore.Lipo.Weighted>
-10.7313

> <Gold.Chemscore.Internal_Hbond.Weighted>
0.0000

> <Gold.Chemscore.DEClash.Weighted>
0.1243

> <Gold.Chemscore.DEInternal.Weighted>
0.7069

> <Gold.Chemscore.Rot.Weighted>
12.5515

> <Gold.Chemscore.Internal.Correction.Weighted>
   9.000000E+99

> <Gold.Protein.RotatedTorsions>
[ 6907 6896 6895 6894 ] final -173.42 input  -60.11 | X-H torsion
[ 7974 7965 7964 7962 ] final   22.27 input  175.53 | X-H torsion
[ 8008 7997 7996 7995 ] final   75.84 input   59.86 | X-H torsion
[ 10167 10162 10161 10158 ] final -121.65 input  -65.29 | X-H torsion
[ 10718 10713 10712 10709 ] final   42.75 input   66.30 | X-H torsion
[ 10763 10752 10751 10750 ] final   39.54 input  -60.55 | X-H torsion
[ 11005 11000 10999 10996 ] final -103.25 input  -57.11 | X-H torsion

> <Gold.Protein.ActiveResidues>
 VAL166  LYS551  ARG553  GLY616  TRP617  ASP618  TYR619  PRO620  LYS621  CYS622 
 ASP623  PHE694  ASN695  SER759  ASP760  ASP761  ALA762  ILE779  LEU786  VAL792 
 PHE793  MET794  SER795  GLU796  ALA797  LYS798  CYS799  TRP800  GLU811  SER814 

> <Gold.Protein.RotatedAtoms>
  151.5559  133.3410  159.2961 H   0  0  0  0  0  0  0  0  0  0  0  0  # atno 6907 bound_to 6896
  150.8451  134.7760  159.6975 H   0  0  0  0  0  0  0  0  0  0  0  0  # atno 6908 bound_to 6896
  152.4511  134.5400  159.9888 H   0  0  0  0  0  0  0  0  0  0  0  0  # atno 6909 bound_to 6896
  146.2036  139.7909  142.8743 H   0  0  0  0  0  0  0  0  0  0  0  0  # atno 7974 bound_to 7965
  155.8188  140.3470  155.5501 H   0  0  0  0  0  0  0  0  0  0  0  0  # atno 8008 bound_to 7997
  155.8364  140.0935  157.1781 H   0  0  0  0  0  0  0  0  0  0  0  0  # atno 8009 bound_to 7997
  154.4004  140.1402  156.3663 H   0  0  0  0  0  0  0  0  0  0  0  0  # atno 8010 bound_to 7997
  140.0227  143.5327  152.2213 H   0  0  0  0  0  0  0  0  0  0  0  0  # atno 10167 bound_to 10162
  157.4083  130.7899  149.7408 H   0  0  0  0  0  0  0  0  0  0  0  0  # atno 10718 bound_to 10713
  152.9964  135.6217  154.2481 H   0  0  0  0  0  0  0  0  0  0  0  0  # atno 10763 bound_to 10752
  154.2221  135.2795  155.2923 H   0  0  0  0  0  0  0  0  0  0  0  0  # atno 10764 bound_to 10752
  154.5520  135.5730  153.6989 H   0  0  0  0  0  0  0  0  0  0  0  0  # atno 10765 bound_to 10752
  141.1154  133.8625  157.1462 H   0  0  0  0  0  0  0  0  0  0  0  0  # atno 11005 bound_to 11000
  145.3399  141.0285  143.3398 LP  0  0  0  0  0  0  0  0  0  0  0  0  # atno 17320 bound_to 7965
  144.8739  139.4998  143.6754 LP  0  0  0  0  0  0  0  0  0  0  0  0  # atno 17321 bound_to 7965
  139.6129  144.7613  151.2912 LP  0  0  0  0  0  0  0  0  0  0  0  0  # atno 17342 bound_to 10162
  140.7335  143.6792  150.8016 LP  0  0  0  0  0  0  0  0  0  0  0  0  # atno 17343 bound_to 10162
  155.9843  130.3993  150.3319 LP  0  0  0  0  0  0  0  0  0  0  0  0  # atno 17370 bound_to 10713
  157.1454  131.0307  151.2909 LP  0  0  0  0  0  0  0  0  0  0  0  0  # atno 17371 bound_to 10713
  140.0073  135.0003  157.0319 LP  0  0  0  0  0  0  0  0  0  0  0  0  # atno 17394 bound_to 11000
  140.4660  134.1435  155.7197 LP  0  0  0  0  0  0  0  0  0  0  0  0  # atno 17395 bound_to 11000

$$$$
