AV-unprocessed.smi:2100|AV-procd|sdf|8577|dock8
  -GOLD-   2272011303D 1   1.00000     0.00000
 Structure written by MMmdl.
 40 41  0  0  0  0  0  0  0  0  2 V2000
  150.1945  134.5541  155.4078 C   0  0  0  0  0  0  0  0  0  0  0  0
  150.6591  135.6993  156.3143 C   0  0  1  0  0  0  0  0  0  0  0  0
  150.7842  137.0285  155.5475 C   0  0  0  0  0  0  0  0  0  0  0  0
  151.0906  138.1411  156.4624 N   0  0  0  0  0  0  0  0  0  0  0  0
  151.6402  139.6398  155.7792 S   0  0  0  0  0  0  0  0  0  0  0  0
  152.9538  139.3626  155.1751 O   0  0  0  0  0  0  0  0  0  0  0  0
  150.5620  140.1101  154.8941 O   0  0  0  0  0  0  0  0  0  0  0  0
  151.7356  140.4666  157.1704 N   0  5  0  0  0  0  0  0  0  0  0  0
  150.7093  141.4461  157.4811 C   0  0  0  0  0  0  0  0  0  0  0  0
  151.3590  142.8290  157.7030 C   0  0  0  0  0  0  0  0  0  0  0  0
  151.7726  143.1044  159.1453 C   0  0  0  0  0  0  0  0  0  0  0  0
  152.6738  142.2422  159.8111 C   0  0  0  0  0  0  0  0  0  0  0  0
  153.0173  142.5254  161.1469 C   0  0  0  0  0  0  0  0  0  0  0  0
  152.4478  143.6519  161.7700 C   0  0  0  0  0  0  0  0  0  0  0  0
  151.5552  144.4486  161.0260 C   0  0  0  0  0  0  0  0  0  0  0  0
  151.2182  144.1865  159.7453 N   0  0  0  0  0  0  0  0  0  0  0  0
  150.2219  138.1922  157.6506 C   0  0  0  0  0  0  0  0  0  0  0  0
  150.1242  136.8109  158.3235 C   0  0  1  0  0  0  0  0  0  0  0  0
  149.1137  136.8021  159.4760 C   0  0  0  0  0  0  0  0  0  0  0  0
  149.7157  135.8417  157.3678 O   0  0  0  0  0  0  0  0  0  0  0  0
  150.8940  134.3954  154.5867 H   0  0  0  0  0  0  0  0  0  0  0  0
  149.2149  134.7638  154.9775 H   0  0  0  0  0  0  0  0  0  0  0  0
  150.1202  133.6207  155.9662 H   0  0  0  0  0  0  0  0  0  0  0  0
  151.6291  135.4305  156.7367 H   0  0  0  0  0  0  0  0  0  0  0  0
  151.5647  136.9470  154.7912 H   0  0  0  0  0  0  0  0  0  0  0  0
  149.8538  137.2513  155.0236 H   0  0  0  0  0  0  0  0  0  0  0  0
  149.9775  141.5237  156.6762 H   0  0  0  0  0  0  0  0  0  0  0  0
  150.1468  141.1673  158.3725 H   0  0  0  0  0  0  0  0  0  0  0  0
  152.2387  142.9292  157.0652 H   0  0  0  0  0  0  0  0  0  0  0  0
  150.6693  143.6135  157.3879 H   0  0  0  0  0  0  0  0  0  0  0  0
  153.0949  141.3849  159.3065 H   0  0  0  0  0  0  0  0  0  0  0  0
  153.7049  141.8890  161.6841 H   0  0  0  0  0  0  0  0  0  0  0  0
  152.6881  143.8989  162.7935 H   0  0  0  0  0  0  0  0  0  0  0  0
  151.0978  145.3189  161.4729 H   0  0  0  0  0  0  0  0  0  0  0  0
  150.6104  138.9222  158.3604 H   0  0  0  0  0  0  0  0  0  0  0  0
  149.2324  138.5362  157.3472 H   0  0  0  0  0  0  0  0  0  0  0  0
  151.1009  136.5307  158.7222 H   0  0  0  0  0  0  0  0  0  0  0  0
  149.3902  137.5235  160.2453 H   0  0  0  0  0  0  0  0  0  0  0  0
  149.0655  135.8188  159.9442 H   0  0  0  0  0  0  0  0  0  0  0  0
  148.1125  137.0536  159.1250 H   0  0  0  0  0  0  0  0  0  0  0  0
  1  2  1  0  0  0  0
  1 21  1  0  0  0  0
  1 22  1  0  0  0  0
  1 23  1  0  0  0  0
  2 20  1  0  0  0  0
  2  3  1  0  0  0  0
  2 24  1  0  0  0  0
  3  4  1  0  0  0  0
  3 25  1  0  0  0  0
  3 26  1  0  0  0  0
  4  5  1  0  0  0  0
  4 17  1  0  0  0  0
  5  6  2  0  0  0  0
  5  7  2  0  0  0  0
  5  8  1  0  0  0  0
  8  9  1  0  0  0  0
  9 10  1  0  0  0  0
  9 27  1  0  0  0  0
  9 28  1  0  0  0  0
 10 11  1  0  0  0  0
 10 29  1  0  0  0  0
 10 30  1  0  0  0  0
 11 16  1  0  0  0  0
 11 12  2  0  0  0  0
 12 13  1  0  0  0  0
 12 31  1  0  0  0  0
 13 14  2  0  0  0  0
 13 32  1  0  0  0  0
 14 15  1  0  0  0  0
 14 33  1  0  0  0  0
 15 16  2  0  0  0  0
 15 34  1  0  0  0  0
 17 18  1  0  0  0  0
 17 35  1  0  0  0  0
 17 36  1  0  0  0  0
 18 19  1  0  0  0  0
 18 20  1  0  0  0  0
 18 37  1  0  0  0  0
 19 38  1  0  0  0  0
 19 39  1  0  0  0  0
 19 40  1  0  0  0  0
M  CHG  1   8  -1
M  END
> <s_m_source_file>
AV-unprocessed.smi

> <i_m_source_file_index>
2100

> <i_lp_mmshare_version>
43012

> <i_f3d_flags>
0

> <s_epik_input>
W0NIM11bQ0BASF0xW0NIMl1OKFtDSDJdW0NASF0oTzEpW0NIM10pUyg9TykoPU8pW05IXVtDSDJdW0NIMl1jMltjSF1bY0hdW2NIXVtjSF1uMg==

> <s_epik_cmdline>
J2VwaWtfcHl0aG9uJywgJy1waCcsICc3LjAnLCAnLXRuJywgJzgnLCAnLW1hJywgJzIwMCcsICctbWV0YWxfYmluZGluZycsICctaW1hZScsICc8aW5maWxlLm1hZT4nLCAnLW9tYWUnLCAnPG91dGZpbGUubWFlPic=

> <r_epik_Ionization_Penalty>
1.27779

> <r_epik_Ionization_Penalty_Charging>
1.20871

> <r_epik_Ionization_Penalty_Neutral>
0.0690773

> <r_epik_State_Penalty>
1.64557

> <r_epik_Charging_Adjusted_Penalty>
2.85428

> <i_epik_Tot_Q>
-1

> <i_epik_Tot_abs_Q>
1

> <r_epik_Metal_State_Penalty>
0.643506

> <b_epik_Metal_Only>
0

> <s_lp_Force_Field>
OPLS_2005

> <r_lp_Energy>
4.91885

> <b_lp_Chiralities_Consistent>
1

> <s_lp_Variant>
AV-unprocessed.smi:2100-5

> <Gold.Version>
5.8.1

> <Gold.Id.Protein>
6NUR|6NUR_protein|mol2

> <Gold.PLP.Fitness>
46.0183

> <Gold.PLP.PLP>
-40.6174

> <Gold.PLP.part.hbond>
-2.8512

> <Gold.PLP.part.metal>
0.0000

> <Gold.PLP.part.buried>
-6.1386

> <Gold.PLP.part.nonpolar>
-30.8271

> <Gold.PLP.part.repulsive>
0.1455

> <Gold.PLP.ligand.clash>
0.0000

> <Gold.PLP.ligand.torsion>
1.8479

> <Gold.PLP.Chemscore.Hbond>
2.0000

> <Gold.PLP.Chemscore.CHOScore>
0.0000

> <Gold.PLP.Chemscore.Metal>
0.0000

> <Gold.Chemscore.Hbonds>
donor molecule, donor type, donor heavy atom, donor atom, acceptor molecule, acceptor atom, score
      P1  H  7989  7998       L1     7  0.95
      P1  H  7997  8009       L1     6  1.00

> <Gold.PLP.Chemscore.Internal.Correction>
3.0966

> <Gold.Rescore>
     Score         DG    S(hbond)    S(metal)    S(lipo)     H(rot)  DE(clash)    DE(int)     intcor
     18.04     -19.89       1.87        0.00      98.23       1.30       0.01       1.83       ----

> <Gold.Chemscore.Fitness>
18.0442

> <Gold.Chemscore.DG>
-19.8867

> <Gold.Chemscore.ZeroCoef>
-5.4800

> <Gold.Chemscore.Hbond>
1.8719

> <Gold.Chemscore.Metal>
0.0000

> <Gold.Chemscore.Lipo>
98.2255

> <Gold.Chemscore.Internal_Hbond>
0.0000

> <Gold.Chemscore.DEClash>
0.0149

> <Gold.Chemscore.DEInternal>
1.8276

> <Gold.Chemscore.Rot>
1.3039

> <Gold.Chemscore.Internal.Correction>
   9.000000E+99

> <Gold.Chemscore.Hbonds>
donor molecule, donor type, donor heavy atom, donor atom, acceptor molecule, acceptor atom, score
      P1  H  7989  7998       L1     7  0.21
      P1  H  7997  8009       L1     6  0.94

> <Gold.Chemscore.Hbond.Weighted>
-6.2523

> <Gold.Chemscore.Metal.Weighted>
-0.0000

> <Gold.Chemscore.Lipo.Weighted>
-11.4924

> <Gold.Chemscore.Internal_Hbond.Weighted>
0.0000

> <Gold.Chemscore.DEClash.Weighted>
0.0149

> <Gold.Chemscore.DEInternal.Weighted>
1.8276

> <Gold.Chemscore.Rot.Weighted>
3.3379

> <Gold.Chemscore.Internal.Correction.Weighted>
   9.000000E+99

> <Gold.Protein.RotatedTorsions>
[ 6907 6896 6895 6894 ] final   -7.37 input  -60.11 | X-H torsion
[ 7974 7965 7964 7962 ] final  143.59 input  175.53 | X-H torsion
[ 8008 7997 7996 7995 ] final -140.79 input   59.86 | X-H torsion
[ 10167 10162 10161 10158 ] final  -88.16 input  -65.29 | X-H torsion
[ 10718 10713 10712 10709 ] final -165.22 input   66.30 | X-H torsion
[ 10763 10752 10751 10750 ] final  -98.01 input  -60.55 | X-H torsion
[ 11005 11000 10999 10996 ] final  -51.35 input  -57.11 | X-H torsion

> <Gold.Protein.ActiveResidues>
 VAL166  LYS551  ARG553  GLY616  TRP617  ASP618  TYR619  PRO620  LYS621  CYS622 
 ASP623  PHE694  ASN695  SER759  ASP760  ASP761  ALA762  ILE779  LEU786  VAL792 
 PHE793  MET794  SER795  GLU796  ALA797  LYS798  CYS799  TRP800  GLU811  SER814 

> <Gold.Protein.RotatedAtoms>
  151.4507  135.1029  159.9696 H   0  0  0  0  0  0  0  0  0  0  0  0  # atno 6907 bound_to 6896
  152.4889  133.8443  159.7179 H   0  0  0  0  0  0  0  0  0  0  0  0  # atno 6908 bound_to 6896
  150.9024  133.7042  159.2903 H   0  0  0  0  0  0  0  0  0  0  0  0  # atno 6909 bound_to 6896
  144.8907  139.5562  143.5799 H   0  0  0  0  0  0  0  0  0  0  0  0  # atno 7974 bound_to 7965
  155.4671  140.0550  157.2984 H   0  0  0  0  0  0  0  0  0  0  0  0  # atno 8008 bound_to 7997
  154.4713  140.2042  155.9941 H   0  0  0  0  0  0  0  0  0  0  0  0  # atno 8009 bound_to 7997
  156.1061  140.3211  155.8012 H   0  0  0  0  0  0  0  0  0  0  0  0  # atno 8010 bound_to 7997
  140.3774  143.2765  151.9426 H   0  0  0  0  0  0  0  0  0  0  0  0  # atno 10167 bound_to 10162
  156.6502  130.9004  151.3012 H   0  0  0  0  0  0  0  0  0  0  0  0  # atno 10718 bound_to 10713
  154.7378  135.5025  153.9071 H   0  0  0  0  0  0  0  0  0  0  0  0  # atno 10763 bound_to 10752
  153.1012  135.6685  153.9677 H   0  0  0  0  0  0  0  0  0  0  0  0  # atno 10764 bound_to 10752
  153.9462  135.3062  155.3420 H   0  0  0  0  0  0  0  0  0  0  0  0  # atno 10765 bound_to 10752
  141.0866  133.6641  156.3864 H   0  0  0  0  0  0  0  0  0  0  0  0  # atno 11005 bound_to 11000
  146.3052  139.7557  142.9061 LP  0  0  0  0  0  0  0  0  0  0  0  0  # atno 17320 bound_to 7965
  145.3787  141.0355  143.3189 LP  0  0  0  0  0  0  0  0  0  0  0  0  # atno 17321 bound_to 7965
  139.4798  144.5851  151.7867 LP  0  0  0  0  0  0  0  0  0  0  0  0  # atno 17342 bound_to 10162
  140.4972  144.1222  150.5963 LP  0  0  0  0  0  0  0  0  0  0  0  0  # atno 17343 bound_to 10162
  157.7143  130.9478  150.1199 LP  0  0  0  0  0  0  0  0  0  0  0  0  # atno 17370 bound_to 10713
  156.2090  130.3665  149.8694 LP  0  0  0  0  0  0  0  0  0  0  0  0  # atno 17371 bound_to 10713
  140.5349  134.6177  157.5361 LP  0  0  0  0  0  0  0  0  0  0  0  0  # atno 17394 bound_to 11000
  139.9685  134.7332  156.0089 LP  0  0  0  0  0  0  0  0  0  0  0  0  # atno 17395 bound_to 11000

$$$$
