AV-unprocessed.smi:1554|AV-procd|sdf|6260|dock6
  -GOLD-   22720 6443D 1   1.00000     0.00000
 Structure written by MMmdl.
 49 51  0  0  0  0  0  0  0  0  3 V2000
  152.1379  144.3262  160.5408 C   0  0  0  0  0  0  0  0  0  0  0  0
  152.0262  143.2465  159.4780 C   0  0  0  0  0  0  0  0  0  0  0  0
  151.2116  143.4922  158.3500 C   0  0  0  0  0  0  0  0  0  0  0  0
  151.1304  142.4864  157.3944 C   0  0  0  0  0  0  0  0  0  0  0  0
  150.4253  142.4258  156.1912 N   0  3  0  0  0  0  0  0  0  0  0  0
  150.6561  141.2269  155.5893 C   0  0  0  0  0  0  0  0  0  0  0  0
  151.4930  140.5159  156.3939 N   0  0  0  0  0  0  0  0  0  0  0  0
  152.0469  139.1642  156.2056 C   0  0  0  0  0  0  0  0  0  0  0  0
  151.0254  138.1406  155.6613 C   0  0  2  0  0  0  0  0  0  0  0  0
  151.6452  136.8699  155.6023 O   0  0  0  0  0  0  0  0  0  0  0  0
  150.4867  138.5008  154.2591 C   0  0  0  0  0  0  0  0  0  0  0  0
  149.0372  138.2044  154.1018 N   0  3  1  0  0  0  0  0  0  0  0  0
  148.3411  137.8220  155.3571 C   0  0  0  0  0  0  0  0  0  0  0  0
  148.0240  139.0536  156.2283 C   0  0  0  0  0  0  0  0  0  0  0  0
  147.2920  140.0088  155.4700 O   0  0  0  0  0  0  0  0  0  0  0  0
  148.0119  140.4716  154.3327 C   0  0  2  0  0  0  0  0  0  0  0  0
  147.1757  141.5581  153.6475 C   0  0  0  0  0  0  0  0  0  0  0  0
  148.2864  139.2744  153.3993 C   0  0  0  0  0  0  0  0  0  0  0  0
  151.8231  141.2668  157.5296 C   0  0  0  0  0  0  0  0  0  0  0  0
  152.6316  141.0103  158.6355 C   0  0  0  0  0  0  0  0  0  0  0  0
  152.7267  142.0208  159.6187 C   0  0  0  0  0  0  0  0  0  0  0  0
  153.6009  141.7674  160.8351 C   0  0  0  0  0  0  0  0  0  0  0  0
  151.5597  145.2111  160.2729 H   0  0  0  0  0  0  0  0  0  0  0  0
  153.1761  144.6338  160.6677 H   0  0  0  0  0  0  0  0  0  0  0  0
  151.7647  143.9618  161.4981 H   0  0  0  0  0  0  0  0  0  0  0  0
  150.6758  144.4235  158.2355 H   0  0  0  0  0  0  0  0  0  0  0  0
  150.2444  140.8960  154.6463 H   0  0  0  0  0  0  0  0  0  0  0  0
  152.8849  139.2549  155.5132 H   0  0  0  0  0  0  0  0  0  0  0  0
  152.4762  138.8165  157.1448 H   0  0  0  0  0  0  0  0  0  0  0  0
  150.2086  138.0778  156.3793 H   0  0  0  0  0  0  0  0  0  0  0  0
  151.2491  136.3048  156.2480 H   0  0  0  0  0  0  0  0  0  0  0  0
  150.6693  139.5540  154.0475 H   0  0  0  0  0  0  0  0  0  0  0  0
  151.0543  137.9426  153.5134 H   0  0  0  0  0  0  0  0  0  0  0  0
  147.4067  137.3279  155.0872 H   0  0  0  0  0  0  0  0  0  0  0  0
  148.9168  137.0912  155.9237 H   0  0  0  0  0  0  0  0  0  0  0  0
  147.4229  138.7555  157.0874 H   0  0  0  0  0  0  0  0  0  0  0  0
  148.9321  139.5075  156.6267 H   0  0  0  0  0  0  0  0  0  0  0  0
  148.9533  140.9176  154.6583 H   0  0  0  0  0  0  0  0  0  0  0  0
  147.6897  141.9565  152.7723 H   0  0  0  0  0  0  0  0  0  0  0  0
  146.9853  142.3898  154.3265 H   0  0  0  0  0  0  0  0  0  0  0  0
  146.2113  141.1679  153.3208 H   0  0  0  0  0  0  0  0  0  0  0  0
  148.8206  139.5913  152.5029 H   0  0  0  0  0  0  0  0  0  0  0  0
  147.3391  138.8561  153.0558 H   0  0  0  0  0  0  0  0  0  0  0  0
  153.1695  140.0811  158.7471 H   0  0  0  0  0  0  0  0  0  0  0  0
  154.0401  140.7696  160.8109 H   0  0  0  0  0  0  0  0  0  0  0  0
  153.0171  141.8507  161.7520 H   0  0  0  0  0  0  0  0  0  0  0  0
  154.4167  142.4896  160.8760 H   0  0  0  0  0  0  0  0  0  0  0  0
  148.9986  137.4003  153.4919 H   0  0  0  0  0  0  0  0  0  0  0  0
  149.8316  143.1489  155.8047 H   0  0  0  0  0  0  0  0  0  0  0  0
  1  2  1  0  0  0  0
  1 23  1  0  0  0  0
  1 24  1  0  0  0  0
  1 25  1  0  0  0  0
  2 21  1  0  0  0  0
  2  3  2  0  0  0  0
  3  4  1  0  0  0  0
  3 26  1  0  0  0  0
  4 19  2  0  0  0  0
  4  5  1  0  0  0  0
  5  6  2  0  0  0  0
  5 49  1  0  0  0  0
  6  7  1  0  0  0  0
  6 27  1  0  0  0  0
  7  8  1  0  0  0  0
  7 19  1  0  0  0  0
  8  9  1  0  0  0  0
  8 28  1  0  0  0  0
  8 29  1  0  0  0  0
  9 10  1  0  0  0  0
  9 11  1  0  0  0  0
  9 30  1  0  0  0  0
 10 31  1  0  0  0  0
 11 12  1  0  0  0  0
 11 32  1  0  0  0  0
 11 33  1  0  0  0  0
 12 18  1  0  0  0  0
 12 13  1  0  0  0  0
 12 48  1  0  0  0  0
 13 14  1  0  0  0  0
 13 34  1  0  0  0  0
 13 35  1  0  0  0  0
 14 15  1  0  0  0  0
 14 36  1  0  0  0  0
 14 37  1  0  0  0  0
 15 16  1  0  0  0  0
 16 17  1  0  0  0  0
 16 18  1  0  0  0  0
 16 38  1  0  0  0  0
 17 39  1  0  0  0  0
 17 40  1  0  0  0  0
 17 41  1  0  0  0  0
 18 42  1  0  0  0  0
 18 43  1  0  0  0  0
 19 20  1  0  0  0  0
 20 21  2  0  0  0  0
 20 44  1  0  0  0  0
 21 22  1  0  0  0  0
 22 45  1  0  0  0  0
 22 46  1  0  0  0  0
 22 47  1  0  0  0  0
M  CHG  1   5   1
M  CHG  1  12   1
M  END
> <s_m_source_file>
AV-unprocessed.smi

> <i_m_source_file_index>
1554

> <i_lp_mmshare_version>
43012

> <i_f3d_flags>
0

> <s_epik_input>
W0NIM11jKFtjSF0xKWMoW0NIM10pW2NIXWMoYzEyKW4oW2NIXW4yKVtDSDJdW0NASF0oW09IXSlbQ0gyXU4zW0NIMl1bQ0gyXU9bQ0BASF0oW0NIM10pW0NIMl0z

> <s_epik_cmdline>
J2VwaWtfcHl0aG9uJywgJy1waCcsICc3LjAnLCAnLXRuJywgJzgnLCAnLW1hJywgJzIwMCcsICctbWV0YWxfYmluZGluZycsICctaW1hZScsICc8aW5maWxlLm1hZT4nLCAnLW9tYWUnLCAnPG91dGZpbGUubWFlPic=

> <r_epik_Ionization_Penalty>
1.8848

> <r_epik_Ionization_Penalty_Charging>
1.88479

> <r_epik_Ionization_Penalty_Neutral>
1.42224e-05

> <r_epik_State_Penalty>
1.94551

> <r_epik_Charging_Adjusted_Penalty>
3.8303

> <i_epik_Tot_Q>
2

> <i_epik_Tot_abs_Q>
2

> <r_epik_Metal_State_Penalty>
5.95849

> <b_epik_Metal_Only>
0

> <s_lp_Force_Field>
OPLS_2005

> <r_lp_Energy>
33.2635

> <b_lp_Chiralities_Consistent>
1

> <s_lp_Variant>
AV-unprocessed.smi:1554-21

> <Gold.Version>
5.8.1

> <Gold.Id.Protein>
6NUR|6NUR_protein|mol2

> <Gold.PLP.Fitness>
53.2000

> <Gold.PLP.PLP>
-42.1546

> <Gold.PLP.part.hbond>
-3.0000

> <Gold.PLP.part.metal>
0.0000

> <Gold.PLP.part.buried>
-3.0113

> <Gold.PLP.part.nonpolar>
-35.9998

> <Gold.PLP.part.repulsive>
0.1206

> <Gold.PLP.ligand.clash>
1.0767

> <Gold.PLP.ligand.torsion>
1.4499

> <Gold.PLP.Chemscore.Hbond>
5.0000

> <Gold.PLP.Chemscore.CHOScore>
0.0000

> <Gold.PLP.Chemscore.Metal>
0.0000

> <Gold.Chemscore.Hbonds>
donor molecule, donor type, donor heavy atom, donor atom, acceptor molecule, acceptor atom, score
      L1  H     5    49       P1  8028  2.00
      L1  H    12    48       P1  7948  2.00
      P1  H 10752 10764       L1    10  0.91

> <Gold.PLP.Chemscore.Internal.Correction>
0.0220

> <Gold.Rescore>
     Score         DG    S(hbond)    S(metal)    S(lipo)     H(rot)  DE(clash)    DE(int)     intcor
     20.36     -22.08       2.55        0.00     115.39       2.11       0.42       1.30       ----

> <Gold.Chemscore.Fitness>
20.3572

> <Gold.Chemscore.DG>
-22.0752

> <Gold.Chemscore.ZeroCoef>
-5.4800

> <Gold.Chemscore.Hbond>
2.5455

> <Gold.Chemscore.Metal>
0.0000

> <Gold.Chemscore.Lipo>
115.3872

> <Gold.Chemscore.Internal_Hbond>
0.0000

> <Gold.Chemscore.DEClash>
0.4160

> <Gold.Chemscore.DEInternal>
1.3020

> <Gold.Chemscore.Rot>
2.1122

> <Gold.Chemscore.Internal.Correction>
   9.000000E+99

> <Gold.Chemscore.Hbonds>
donor molecule, donor type, donor heavy atom, donor atom, acceptor molecule, acceptor atom, score
      L1  H     5    49       P1  8028  1.00
      L1  H    12    48       P1  7948  0.97
      P1  H 10752 10764       L1    10  0.34

> <Gold.Chemscore.Hbond.Weighted>
-8.5021

> <Gold.Chemscore.Metal.Weighted>
-0.0000

> <Gold.Chemscore.Lipo.Weighted>
-13.5003

> <Gold.Chemscore.Internal_Hbond.Weighted>
0.0000

> <Gold.Chemscore.DEClash.Weighted>
0.4160

> <Gold.Chemscore.DEInternal.Weighted>
1.3020

> <Gold.Chemscore.Rot.Weighted>
5.4073

> <Gold.Chemscore.Internal.Correction.Weighted>
   9.000000E+99

> <Gold.Protein.RotatedTorsions>
[ 6907 6896 6895 6894 ] final -114.55 input  -60.11 | X-H torsion
[ 7974 7965 7964 7962 ] final   -7.82 input  175.53 | X-H torsion
[ 8008 7997 7996 7995 ] final   81.56 input   59.86 | X-H torsion
[ 10167 10162 10161 10158 ] final -109.32 input  -65.29 | X-H torsion
[ 10718 10713 10712 10709 ] final  122.79 input   66.30 | X-H torsion
[ 10763 10752 10751 10750 ] final  -58.48 input  -60.55 | X-H torsion
[ 11005 11000 10999 10996 ] final -123.53 input  -57.11 | X-H torsion

> <Gold.Protein.ActiveResidues>
 VAL166  LYS551  ARG553  GLY616  TRP617  ASP618  TYR619  PRO620  LYS621  CYS622 
 ASP623  PHE694  ASN695  SER759  ASP760  ASP761  ALA762  ILE779  LEU786  VAL792 
 PHE793  MET794  SER795  GLU796  ALA797  LYS798  CYS799  TRP800  GLU811  SER814 

> <Gold.Protein.RotatedAtoms>
  150.7911  133.8784  159.3278 H   0  0  0  0  0  0  0  0  0  0  0  0  # atno 6907 bound_to 6896
  151.6622  135.0986  160.0191 H   0  0  0  0  0  0  0  0  0  0  0  0  # atno 6908 bound_to 6896
  152.3985  133.6743  159.6331 H   0  0  0  0  0  0  0  0  0  0  0  0  # atno 6909 bound_to 6896
  146.2297  140.2376  142.8342 H   0  0  0  0  0  0  0  0  0  0  0  0  # atno 7974 bound_to 7965
  155.8988  140.3434  155.6011 H   0  0  0  0  0  0  0  0  0  0  0  0  # atno 8008 bound_to 7997
  155.7524  140.0822  157.2213 H   0  0  0  0  0  0  0  0  0  0  0  0  # atno 8009 bound_to 7997
  154.4041  140.1551  156.2727 H   0  0  0  0  0  0  0  0  0  0  0  0  # atno 8010 bound_to 7997
  140.1566  143.4155  152.1456 H   0  0  0  0  0  0  0  0  0  0  0  0  # atno 10167 bound_to 10162
  157.5715  131.1083  150.8358 H   0  0  0  0  0  0  0  0  0  0  0  0  # atno 10718 bound_to 10713
  154.2388  135.6347  153.5200 H   0  0  0  0  0  0  0  0  0  0  0  0  # atno 10763 bound_to 10752
  152.9934  135.5537  154.5933 H   0  0  0  0  0  0  0  0  0  0  0  0  # atno 10764 bound_to 10752
  154.5434  135.2896  155.1049 H   0  0  0  0  0  0  0  0  0  0  0  0  # atno 10765 bound_to 10752
  140.9912  134.0537  157.3652 H   0  0  0  0  0  0  0  0  0  0  0  0  # atno 11005 bound_to 11000
  144.9510  140.8178  143.5572 LP  0  0  0  0  0  0  0  0  0  0  0  0  # atno 17320 bound_to 7965
  145.2336  139.2104  143.5029 LP  0  0  0  0  0  0  0  0  0  0  0  0  # atno 17321 bound_to 7965
  139.5401  144.7248  151.4763 LP  0  0  0  0  0  0  0  0  0  0  0  0  # atno 17342 bound_to 10162
  140.6669  143.8378  150.6953 LP  0  0  0  0  0  0  0  0  0  0  0  0  # atno 17343 bound_to 10162
  156.8828  130.5185  149.5290 LP  0  0  0  0  0  0  0  0  0  0  0  0  # atno 17370 bound_to 10713
  156.0761  130.5782  150.9475 LP  0  0  0  0  0  0  0  0  0  0  0  0  # atno 17371 bound_to 10713
  139.8993  135.0158  156.7189 LP  0  0  0  0  0  0  0  0  0  0  0  0  # atno 17394 bound_to 11000
  140.7038  133.9283  155.8040 LP  0  0  0  0  0  0  0  0  0  0  0  0  # atno 17395 bound_to 11000

$$$$
