AV-unprocessed.smi:3301|AV-procd|sdf|12655|dock4
  -GOLD-   2272018593D 1   1.00000     0.00000
 Structure written by MMmdl.
 36 37  0  0  0  0  0  0  0  0  1 V2000
  146.0175  134.8369  151.7180 C   0  0  0  0  0  0  0  0  0  0  0  0
  146.4659  133.6032  152.5195 C   0  0  1  0  0  0  0  0  0  0  0  0
  146.4023  132.2917  151.7120 C   0  0  0  0  0  0  0  0  0  0  0  0
  145.4182  132.3337  150.6471 N   0  0  0  0  0  0  0  0  0  0  0  0
  144.0965  132.7476  150.7470 C   0  0  0  0  0  0  0  0  0  0  0  0
  143.5458  132.6100  149.4929 C   0  0  0  0  0  0  0  0  0  0  0  0
  144.5038  132.1132  148.6119 N   0  0  0  0  0  0  0  0  0  0  0  0
  145.5854  131.9720  149.3673 C   0  0  0  0  0  0  0  0  0  0  0  0
  147.8319  133.8036  152.9970 N   0  0  0  0  0  0  0  0  0  0  0  0
  148.5133  132.9820  153.8103 C   0  0  0  0  0  0  0  0  0  0  0  0
  148.0405  131.9470  154.2824 O   0  0  0  0  0  0  0  0  0  0  0  0
  149.9443  133.4188  154.1509 C   0  0  0  0  0  0  0  0  0  0  0  0
  150.7023  132.3994  154.8778 N   0  0  0  0  0  0  0  0  0  0  0  0
  150.9483  131.0946  154.2860 C   0  0  0  0  0  0  0  0  0  0  0  0
  151.5937  130.2633  155.4040 C   0  0  0  0  0  0  0  0  0  0  0  0
  151.9847  131.2636  156.4972 C   0  0  0  0  0  0  0  0  0  0  0  0
  151.2595  132.5341  156.0878 C   0  0  0  0  0  0  0  0  0  0  0  0
  151.2145  133.5365  156.7995 O   0  0  0  0  0  0  0  0  0  0  0  0
  144.9748  134.7558  151.4102 H   0  0  0  0  0  0  0  0  0  0  0  0
  146.6214  134.9677  150.8195 H   0  0  0  0  0  0  0  0  0  0  0  0
  146.1073  135.7449  152.3152 H   0  0  0  0  0  0  0  0  0  0  0  0
  145.7870  133.5032  153.3681 H   0  0  0  0  0  0  0  0  0  0  0  0
  147.3766  132.0654  151.2761 H   0  0  0  0  0  0  0  0  0  0  0  0
  146.1529  131.4571  152.3688 H   0  0  0  0  0  0  0  0  0  0  0  0
  143.6702  133.0964  151.6761 H   0  0  0  0  0  0  0  0  0  0  0  0
  142.5415  132.8268  149.1600 H   0  0  0  0  0  0  0  0  0  0  0  0
  146.5223  131.5998  148.9792 H   0  0  0  0  0  0  0  0  0  0  0  0
  148.3051  134.6335  152.6699 H   0  0  0  0  0  0  0  0  0  0  0  0
  150.4762  133.6756  153.2330 H   0  0  0  0  0  0  0  0  0  0  0  0
  149.8954  134.3318  154.7453 H   0  0  0  0  0  0  0  0  0  0  0  0
  150.0248  130.6383  153.9274 H   0  0  0  0  0  0  0  0  0  0  0  0
  151.6267  131.2065  153.4391 H   0  0  0  0  0  0  0  0  0  0  0  0
  150.8744  129.5450  155.7994 H   0  0  0  0  0  0  0  0  0  0  0  0
  152.4536  129.6995  155.0413 H   0  0  0  0  0  0  0  0  0  0  0  0
  151.6786  130.9313  157.4897 H   0  0  0  0  0  0  0  0  0  0  0  0
  153.0596  131.4465  156.5036 H   0  0  0  0  0  0  0  0  0  0  0  0
  1  2  1  0  0  0  0
  1 19  1  0  0  0  0
  1 20  1  0  0  0  0
  1 21  1  0  0  0  0
  2  3  1  0  0  0  0
  2  9  1  0  0  0  0
  2 22  1  0  0  0  0
  3  4  1  0  0  0  0
  3 23  1  0  0  0  0
  3 24  1  0  0  0  0
  4  8  1  0  0  0  0
  4  5  1  0  0  0  0
  5  6  2  0  0  0  0
  5 25  1  0  0  0  0
  6  7  1  0  0  0  0
  6 26  1  0  0  0  0
  7  8  2  0  0  0  0
  8 27  1  0  0  0  0
  9 10  1  0  0  0  0
  9 28  1  0  0  0  0
 10 11  2  0  0  0  0
 10 12  1  0  0  0  0
 12 13  1  0  0  0  0
 12 29  1  0  0  0  0
 12 30  1  0  0  0  0
 13 17  1  0  0  0  0
 13 14  1  0  0  0  0
 14 15  1  0  0  0  0
 14 31  1  0  0  0  0
 14 32  1  0  0  0  0
 15 16  1  0  0  0  0
 15 33  1  0  0  0  0
 15 34  1  0  0  0  0
 16 17  1  0  0  0  0
 16 35  1  0  0  0  0
 16 36  1  0  0  0  0
 17 18  2  0  0  0  0
M  END
> <s_m_source_file>
AV-unprocessed.smi

> <i_m_source_file_index>
3301

> <i_lp_mmshare_version>
43012

> <i_f3d_flags>
0

> <s_epik_input>
W2NIXTFuW2NIXVtjSF1uMVtDSDJdW0NAQEhdKFtDSDNdKVtOSF1DKD1PKVtDSDJdTjJbQ0gyXVtDSDJdW0NIMl1DMj1P

> <s_epik_cmdline>
J2VwaWtfcHl0aG9uJywgJy1waCcsICc3LjAnLCAnLXRuJywgJzgnLCAnLW1hJywgJzIwMCcsICctbWV0YWxfYmluZGluZycsICctaW1hZScsICc8aW5maWxlLm1hZT4nLCAnLW9tYWUnLCAnPG91dGZpbGUubWFlPic=

> <r_lp_tautomer_probability>
1

> <r_epik_Ionization_Penalty>
0.623868

> <r_epik_Ionization_Penalty_Charging>
0.623868

> <r_epik_Ionization_Penalty_Neutral>
4.45089e-08

> <r_epik_State_Penalty>
0.640129

> <r_epik_Charging_Adjusted_Penalty>
1.264

> <i_epik_Tot_Q>
0

> <i_epik_Tot_abs_Q>
0

> <r_epik_Metal_State_Penalty>
0.307431

> <b_epik_Metal_Only>
0

> <s_lp_Force_Field>
OPLS_2005

> <r_lp_Energy>
14.8621

> <b_lp_Chiralities_Consistent>
1

> <s_lp_Variant>
AV-unprocessed.smi:3301-4

> <Gold.Version>
5.8.1

> <Gold.Id.Protein>
6NUR|6NUR_protein|mol2

> <Gold.PLP.Fitness>
45.9629

> <Gold.PLP.PLP>
-36.3011

> <Gold.PLP.part.hbond>
-3.8532

> <Gold.PLP.part.metal>
0.0000

> <Gold.PLP.part.buried>
-4.3392

> <Gold.PLP.part.nonpolar>
-28.1090

> <Gold.PLP.part.repulsive>
0.6323

> <Gold.PLP.ligand.clash>
0.0111

> <Gold.PLP.ligand.torsion>
0.6309

> <Gold.PLP.Chemscore.Hbond>
1.7200

> <Gold.PLP.Chemscore.CHOScore>
1.9097

> <Gold.PLP.Chemscore.Metal>
0.0000

> <Gold.Chemscore.Hbonds>
donor molecule, donor type, donor heavy atom, donor atom, acceptor molecule, acceptor atom, score
      L1  H     9    28       P1  7948  1.00
      P1  H  6896  6908       L1    18  0.01
      P1  H 10785 10796       L1     7  0.01
      L1  C     6    26       P1 10186  1.00
      L1  C     8    27       P1 10747  0.22

> <Gold.PLP.Chemscore.Internal.Correction>
0.0456

> <Gold.Rescore>
     Score         DG    S(hbond)    S(metal)    S(lipo)     H(rot)  DE(clash)    DE(int)     intcor
     11.59     -12.22       1.74        0.00      57.56       2.26       0.05       0.59       ----

> <Gold.Chemscore.Fitness>
11.5875

> <Gold.Chemscore.DG>
-12.2238

> <Gold.Chemscore.ZeroCoef>
-5.4800

> <Gold.Chemscore.Hbond>
1.7386

> <Gold.Chemscore.Metal>
0.0000

> <Gold.Chemscore.Lipo>
57.5583

> <Gold.Chemscore.Internal_Hbond>
0.0000

> <Gold.Chemscore.DEClash>
0.0494

> <Gold.Chemscore.DEInternal>
0.5868

> <Gold.Chemscore.Rot>
2.2647

> <Gold.Chemscore.Internal.Correction>
   9.000000E+99

> <Gold.Chemscore.Hbonds>
donor molecule, donor type, donor heavy atom, donor atom, acceptor molecule, acceptor atom, score
      L1  H     9    28       P1  7948  0.35
      P1  H  6896  6908       L1    18  0.04

> <Gold.Chemscore.Hbond.Weighted>
-5.8070

> <Gold.Chemscore.Metal.Weighted>
-0.0000

> <Gold.Chemscore.Lipo.Weighted>
-6.7343

> <Gold.Chemscore.Internal_Hbond.Weighted>
0.0000

> <Gold.Chemscore.DEClash.Weighted>
0.0494

> <Gold.Chemscore.DEInternal.Weighted>
0.5868

> <Gold.Chemscore.Rot.Weighted>
5.7975

> <Gold.Chemscore.Internal.Correction.Weighted>
   9.000000E+99

> <Gold.Protein.RotatedTorsions>
[ 6907 6896 6895 6894 ] final  108.51 input  -60.11 | X-H torsion
[ 7974 7965 7964 7962 ] final  126.57 input  175.53 | X-H torsion
[ 8008 7997 7996 7995 ] final   39.45 input   59.86 | X-H torsion
[ 10167 10162 10161 10158 ] final  -16.21 input  -65.29 | X-H torsion
[ 10718 10713 10712 10709 ] final -127.12 input   66.30 | X-H torsion
[ 10763 10752 10751 10750 ] final   93.47 input  -60.55 | X-H torsion
[ 11005 11000 10999 10996 ] final   72.38 input  -57.11 | X-H torsion

> <Gold.Protein.ActiveResidues>
 VAL166  LYS551  ARG553  GLY616  TRP617  ASP618  TYR619  PRO620  LYS621  CYS622 
 ASP623  PHE694  ASN695  SER759  ASP760  ASP761  ALA762  ILE779  LEU786  VAL792 
 PHE793  MET794  SER795  GLU796  ALA797  LYS798  CYS799  TRP800  GLU811  SER814 

> <Gold.Protein.RotatedAtoms>
  152.5109  133.9078  159.7472 H   0  0  0  0  0  0  0  0  0  0  0  0  # atno 6907 bound_to 6896
  150.9478  133.6574  159.2784 H   0  0  0  0  0  0  0  0  0  0  0  0  # atno 6908 bound_to 6896
  151.3863  135.0953  159.9565 H   0  0  0  0  0  0  0  0  0  0  0  0  # atno 6909 bound_to 6896
  145.0603  139.3811  143.5009 H   0  0  0  0  0  0  0  0  0  0  0  0  # atno 7974 bound_to 7965
  155.2369  140.3342  155.4297 H   0  0  0  0  0  0  0  0  0  0  0  0  # atno 8008 bound_to 7997
  156.2272  140.1834  156.7379 H   0  0  0  0  0  0  0  0  0  0  0  0  # atno 8009 bound_to 7997
  154.5918  140.0637  156.9234 H   0  0  0  0  0  0  0  0  0  0  0  0  # atno 8010 bound_to 7997
  140.7230  143.5139  150.9716 H   0  0  0  0  0  0  0  0  0  0  0  0  # atno 10167 bound_to 10162
  156.1828  130.6743  151.0326 H   0  0  0  0  0  0  0  0  0  0  0  0  # atno 10718 bound_to 10713
  153.2307  135.4324  155.0592 H   0  0  0  0  0  0  0  0  0  0  0  0  # atno 10763 bound_to 10752
  154.8295  135.3379  154.6792 H   0  0  0  0  0  0  0  0  0  0  0  0  # atno 10764 bound_to 10752
  153.7219  135.7016  153.5067 H   0  0  0  0  0  0  0  0  0  0  0  0  # atno 10765 bound_to 10752
  139.9494  134.7255  156.0900 H   0  0  0  0  0  0  0  0  0  0  0  0  # atno 11005 bound_to 11000
  146.3524  140.0297  142.8651 LP  0  0  0  0  0  0  0  0  0  0  0  0  # atno 17320 bound_to 7965
  145.1417  140.9575  143.4484 LP  0  0  0  0  0  0  0  0  0  0  0  0  # atno 17321 bound_to 7965
  139.8854  143.7020  152.3152 LP  0  0  0  0  0  0  0  0  0  0  0  0  # atno 17342 bound_to 10162
  139.7317  144.7581  151.0792 LP  0  0  0  0  0  0  0  0  0  0  0  0  # atno 17343 bound_to 10162
  157.6879  131.0819  150.7190 LP  0  0  0  0  0  0  0  0  0  0  0  0  # atno 17370 bound_to 10713
  156.7247  130.4691  149.5514 LP  0  0  0  0  0  0  0  0  0  0  0  0  # atno 17371 bound_to 10713
  141.1153  133.6630  156.3078 LP  0  0  0  0  0  0  0  0  0  0  0  0  # atno 17394 bound_to 11000
  140.5756  134.5797  157.5468 LP  0  0  0  0  0  0  0  0  0  0  0  0  # atno 17395 bound_to 11000

$$$$
