AV-unprocessed.smi:1873|AV-procd|sdf|7610|dock5
  -GOLD-   22720 9333D 1   1.00000     0.00000
 Structure written by MMmdl.
 37 39  0  0  0  0  0  0  0  0  2 V2000
  153.3452  139.3022  157.6499 O   0  0  0  0  0  0  0  0  0  0  0  0
  153.2327  140.1776  158.7560 C   0  0  1  0  0  0  0  0  0  0  0  0
  151.7490  140.4600  159.0652 C   0  0  0  0  0  0  0  0  0  0  0  0
  151.2774  141.7333  158.5023 N   0  0  0  0  0  0  0  0  0  0  0  0
  150.6251  141.9768  157.3334 C   0  0  0  0  0  0  0  0  0  0  0  0
  150.4045  143.3184  157.2565 N   0  3  0  0  0  0  0  0  0  0  0  0
  150.9222  143.9423  158.3933 C   0  0  0  0  0  0  0  0  0  0  0  0
  150.9401  145.2822  158.7681 C   0  0  0  0  0  0  0  0  0  0  0  0
  151.5491  145.5859  160.0035 C   0  0  0  0  0  0  0  0  0  0  0  0
  152.1086  144.5769  160.8140 C   0  0  0  0  0  0  0  0  0  0  0  0
  152.0851  143.2217  160.4239 C   0  0  0  0  0  0  0  0  0  0  0  0
  151.4838  142.9294  159.1998 C   0  0  0  0  0  0  0  0  0  0  0  0
  153.9559  139.6507  159.9854 C   0  0  0  0  0  0  0  0  0  0  0  0
  154.0814  140.4633  161.1312 C   0  0  0  0  0  0  0  0  0  0  0  0
  154.7380  139.9771  162.2780 C   0  0  0  0  0  0  0  0  0  0  0  0
  155.2833  138.6777  162.2972 C   0  0  0  0  0  0  0  0  0  0  0  0
  155.8998  138.2568  163.4539 O   0  0  0  0  0  0  0  0  0  0  0  0
  155.1969  138.2436  164.6176 C   0  0  0  0  0  0  0  0  0  0  0  0
  154.2630  137.2630  164.5773 F   0  0  0  0  0  0  0  0  0  0  0  0
  156.0185  137.9826  165.6643 F   0  0  0  0  0  0  0  0  0  0  0  0
  155.1439  137.8580  161.1516 C   0  0  0  0  0  0  0  0  0  0  0  0
  154.4863  138.3429  160.0046 C   0  0  0  0  0  0  0  0  0  0  0  0
  152.5249  138.8440  157.5468 H   0  0  0  0  0  0  0  0  0  0  0  0
  153.7087  141.1127  158.4572 H   0  0  0  0  0  0  0  0  0  0  0  0
  151.1092  139.6509  158.7123 H   0  0  0  0  0  0  0  0  0  0  0  0
  151.6012  140.5148  160.1447 H   0  0  0  0  0  0  0  0  0  0  0  0
  150.3350  141.2391  156.5990 H   0  0  0  0  0  0  0  0  0  0  0  0
  150.5100  146.0567  158.1502 H   0  0  0  0  0  0  0  0  0  0  0  0
  151.5858  146.6127  160.3373 H   0  0  0  0  0  0  0  0  0  0  0  0
  152.5636  144.8468  161.7560 H   0  0  0  0  0  0  0  0  0  0  0  0
  152.5106  142.4569  161.0565 H   0  0  0  0  0  0  0  0  0  0  0  0
  153.6704  141.4622  161.1377 H   0  0  0  0  0  0  0  0  0  0  0  0
  154.8249  140.6077  163.1507 H   0  0  0  0  0  0  0  0  0  0  0  0
  154.6799  139.1884  164.7876 H   0  0  0  0  0  0  0  0  0  0  0  0
  155.5298  136.8495  161.1408 H   0  0  0  0  0  0  0  0  0  0  0  0
  154.3853  137.7021  159.1407 H   0  0  0  0  0  0  0  0  0  0  0  0
  149.9342  143.7723  156.4840 H   0  0  0  0  0  0  0  0  0  0  0  0
  1  2  1  0  0  0  0
  1 23  1  0  0  0  0
  2  3  1  0  0  0  0
  2 13  1  0  0  0  0
  2 24  1  0  0  0  0
  3  4  1  0  0  0  0
  3 25  1  0  0  0  0
  3 26  1  0  0  0  0
  4 12  1  0  0  0  0
  4  5  1  0  0  0  0
  5  6  2  0  0  0  0
  5 27  1  0  0  0  0
  6  7  1  0  0  0  0
  6 37  1  0  0  0  0
  7 12  2  0  0  0  0
  7  8  1  0  0  0  0
  8  9  2  0  0  0  0
  8 28  1  0  0  0  0
  9 10  1  0  0  0  0
  9 29  1  0  0  0  0
 10 11  2  0  0  0  0
 10 30  1  0  0  0  0
 11 12  1  0  0  0  0
 11 31  1  0  0  0  0
 13 22  1  0  0  0  0
 13 14  2  0  0  0  0
 14 15  1  0  0  0  0
 14 32  1  0  0  0  0
 15 16  2  0  0  0  0
 15 33  1  0  0  0  0
 16 17  1  0  0  0  0
 16 21  1  0  0  0  0
 17 18  1  0  0  0  0
 18 19  1  0  0  0  0
 18 20  1  0  0  0  0
 18 34  1  0  0  0  0
 21 22  2  0  0  0  0
 21 35  1  0  0  0  0
 22 36  1  0  0  0  0
M  CHG  1   6   1
M  END
> <s_m_source_file>
AV-unprocessed.smi

> <i_m_source_file_index>
1873

> <i_lp_mmshare_version>
43012

> <i_f3d_flags>
0

> <s_epik_input>
RltDSF0oRilPYyhbY0hdW2NIXTEpW2NIXVtjSF1jMVtDQEhdKFtPSF0pW0NIMl1uKFtjSF1uMiljKGMyMylbY0hdW2NIXVtjSF1bY0hdMw==

> <s_epik_cmdline>
J2VwaWtfcHl0aG9uJywgJy1waCcsICc3LjAnLCAnLXRuJywgJzgnLCAnLW1hJywgJzIwMCcsICctbWV0YWxfYmluZGluZycsICctaW1hZScsICc8aW5maWxlLm1hZT4nLCAnLW9tYWUnLCAnPG91dGZpbGUubWFlPic=

> <r_lp_tautomer_probability>
1

> <r_epik_Ionization_Penalty>
1.3029

> <r_epik_Ionization_Penalty_Charging>
1.3029

> <r_epik_Ionization_Penalty_Neutral>
2.50501e-07

> <r_epik_State_Penalty>
1.377

> <r_epik_Charging_Adjusted_Penalty>
2.6799

> <i_epik_Tot_Q>
1

> <i_epik_Tot_abs_Q>
1

> <r_epik_Metal_State_Penalty>
5.40879

> <b_epik_Metal_Only>
0

> <s_lp_Force_Field>
OPLS_2005

> <r_lp_Energy>
16.5832

> <b_lp_Chiralities_Consistent>
1

> <s_lp_Variant>
AV-unprocessed.smi:1873-4

> <Gold.Version>
5.8.1

> <Gold.Id.Protein>
6NUR|6NUR_protein|mol2

> <Gold.PLP.Fitness>
52.6088

> <Gold.PLP.PLP>
-45.6160

> <Gold.PLP.part.hbond>
-2.0000

> <Gold.PLP.part.metal>
0.0000

> <Gold.PLP.part.buried>
-4.8675

> <Gold.PLP.part.nonpolar>
-38.0384

> <Gold.PLP.part.repulsive>
0.0000

> <Gold.PLP.ligand.clash>
0.0000

> <Gold.PLP.ligand.torsion>
1.0444

> <Gold.PLP.Chemscore.Hbond>
3.0000

> <Gold.PLP.Chemscore.CHOScore>
0.0000

> <Gold.PLP.Chemscore.Metal>
0.0000

> <Gold.Chemscore.Hbonds>
donor molecule, donor type, donor heavy atom, donor atom, acceptor molecule, acceptor atom, score
      L1  H     6    37       P1  8028  2.00
      P1  H  7997  8010       L1     1  1.00

> <Gold.PLP.Chemscore.Internal.Correction>
0.0817

> <Gold.Rescore>
     Score         DG    S(hbond)    S(metal)    S(lipo)     H(rot)  DE(clash)    DE(int)     intcor
     18.67     -19.80       1.78        0.00     125.41       2.47       0.14       0.98       ----

> <Gold.Chemscore.Fitness>
18.6742

> <Gold.Chemscore.DG>
-19.7988

> <Gold.Chemscore.ZeroCoef>
-5.4800

> <Gold.Chemscore.Hbond>
1.7846

> <Gold.Chemscore.Metal>
0.0000

> <Gold.Chemscore.Lipo>
125.4120

> <Gold.Chemscore.Internal_Hbond>
0.0000

> <Gold.Chemscore.DEClash>
0.1405

> <Gold.Chemscore.DEInternal>
0.9841

> <Gold.Chemscore.Rot>
2.4668

> <Gold.Chemscore.Internal.Correction>
   9.000000E+99

> <Gold.Chemscore.Hbonds>
donor molecule, donor type, donor heavy atom, donor atom, acceptor molecule, acceptor atom, score
      L1  H     6    37       P1  8028  0.99
      P1  H  7997  8010       L1     1  0.38

> <Gold.Chemscore.Hbond.Weighted>
-5.9606

> <Gold.Chemscore.Metal.Weighted>
-0.0000

> <Gold.Chemscore.Lipo.Weighted>
-14.6732

> <Gold.Chemscore.Internal_Hbond.Weighted>
0.0000

> <Gold.Chemscore.DEClash.Weighted>
0.1405

> <Gold.Chemscore.DEInternal.Weighted>
0.9841

> <Gold.Chemscore.Rot.Weighted>
6.3151

> <Gold.Chemscore.Internal.Correction.Weighted>
   9.000000E+99

> <Gold.Protein.RotatedTorsions>
[ 6907 6896 6895 6894 ] final -156.33 input  -60.11 | X-H torsion
[ 7974 7965 7964 7962 ] final  127.84 input  175.53 | X-H torsion
[ 8008 7997 7996 7995 ] final   59.24 input   59.86 | X-H torsion
[ 10167 10162 10161 10158 ] final  134.94 input  -65.29 | X-H torsion
[ 10718 10713 10712 10709 ] final   65.11 input   66.30 | X-H torsion
[ 10763 10752 10751 10750 ] final  -32.33 input  -60.55 | X-H torsion
[ 11005 11000 10999 10996 ] final   49.75 input  -57.11 | X-H torsion

> <Gold.Protein.ActiveResidues>
 VAL166  LYS551  ARG553  GLY616  TRP617  ASP618  TYR619  PRO620  LYS621  CYS622 
 ASP623  PHE694  ASN695  SER759  ASP760  ASP761  ALA762  ILE779  LEU786  VAL792 
 PHE793  MET794  SER795  GLU796  ALA797  LYS798  CYS799  TRP800  GLU811  SER814 

> <Gold.Protein.RotatedAtoms>
  151.2860  133.4187  159.2629 H   0  0  0  0  0  0  0  0  0  0  0  0  # atno 6907 bound_to 6896
  151.0319  134.9545  159.8126 H   0  0  0  0  0  0  0  0  0  0  0  0  # atno 6908 bound_to 6896
  152.5347  134.2821  159.9064 H   0  0  0  0  0  0  0  0  0  0  0  0  # atno 6909 bound_to 6896
  145.0461  139.3922  143.5077 H   0  0  0  0  0  0  0  0  0  0  0  0  # atno 7974 bound_to 7965
  155.5629  140.3488  155.4496 H   0  0  0  0  0  0  0  0  0  0  0  0  # atno 8008 bound_to 7997
  156.0501  140.1315  157.0086 H   0  0  0  0  0  0  0  0  0  0  0  0  # atno 8009 bound_to 7997
  154.4430  140.1006  156.6348 H   0  0  0  0  0  0  0  0  0  0  0  0  # atno 8010 bound_to 7997
  139.5236  144.6542  151.5212 H   0  0  0  0  0  0  0  0  0  0  0  0  # atno 10167 bound_to 10162
  157.6084  130.9196  149.9934 H   0  0  0  0  0  0  0  0  0  0  0  0  # atno 10718 bound_to 10713
  153.8120  135.6881  153.4839 H   0  0  0  0  0  0  0  0  0  0  0  0  # atno 10763 bound_to 10752
  153.1622  135.4575  154.9786 H   0  0  0  0  0  0  0  0  0  0  0  0  # atno 10764 bound_to 10752
  154.7963  135.3320  154.7600 H   0  0  0  0  0  0  0  0  0  0  0  0  # atno 10765 bound_to 10752
  140.1076  134.4997  155.8706 H   0  0  0  0  0  0  0  0  0  0  0  0  # atno 11005 bound_to 11000
  146.3514  140.0087  142.8669 LP  0  0  0  0  0  0  0  0  0  0  0  0  # atno 17320 bound_to 7965
  145.1586  140.9661  143.4390 LP  0  0  0  0  0  0  0  0  0  0  0  0  # atno 17321 bound_to 7965
  140.6360  143.8983  150.6648 LP  0  0  0  0  0  0  0  0  0  0  0  0  # atno 17342 bound_to 10162
  140.2302  143.3741  152.1572 LP  0  0  0  0  0  0  0  0  0  0  0  0  # atno 17343 bound_to 10162
  156.1178  130.3647  149.9938 LP  0  0  0  0  0  0  0  0  0  0  0  0  # atno 17370 bound_to 10713
  156.8024  130.9295  151.3645 LP  0  0  0  0  0  0  0  0  0  0  0  0  # atno 17371 bound_to 10713
  141.2122  133.6716  156.6642 LP  0  0  0  0  0  0  0  0  0  0  0  0  # atno 17394 bound_to 11000
  140.3134  134.8067  157.4195 LP  0  0  0  0  0  0  0  0  0  0  0  0  # atno 17395 bound_to 11000

$$$$
