AV-unprocessed.smi:1721|AV-procd|sdf|6935|dock2
  -GOLD-   22720 8143D 1   1.00000     0.00000
 Structure written by MMmdl.
 44 46  0  0  0  0  0  0  0  0  2 V2000
  151.8354  138.6516  153.2244 C   0  0  0  0  0  0  0  0  0  0  0  0
  150.4228  138.4816  153.1816 O   0  0  0  0  0  0  0  0  0  0  0  0
  149.6179  139.5469  153.5395 C   0  0  0  0  0  0  0  0  0  0  0  0
  150.2077  140.6517  154.0609 N   0  0  0  0  0  0  0  0  0  0  0  0
  149.4261  141.6922  154.4129 C   0  0  0  0  0  0  0  0  0  0  0  0
  148.0275  141.6872  154.2666 C   0  0  0  0  0  0  0  0  0  0  0  0
  147.4126  140.5430  153.7258 C   0  0  0  0  0  0  0  0  0  0  0  0
  148.2196  139.4404  153.3482 C   0  0  0  0  0  0  0  0  0  0  0  0
  147.7223  138.2268  152.7914 N   0  0  0  0  0  0  0  0  0  0  0  0
  146.4585  137.7823  152.6805 C   0  0  0  0  0  0  0  0  0  0  0  0
  145.4505  138.3750  153.0620 O   0  0  0  0  0  0  0  0  0  0  0  0
  146.4228  136.5827  152.0834 N   0  0  0  0  0  0  0  0  0  0  0  0
  145.2114  135.8137  151.8116 C   0  0  2  0  0  0  0  0  0  0  0  0
  144.3004  135.6835  153.0264 C   0  0  0  0  0  0  0  0  0  0  0  0
  143.4239  134.4889  152.6461 C   0  0  0  0  0  0  0  0  0  0  0  0
  144.2847  133.5896  151.8433 N   0  3  1  0  0  0  0  0  0  0  0  0
  143.5817  132.8863  150.7425 C   0  0  0  0  0  0  0  0  0  0  0  0
  144.5475  131.9581  149.9821 C   0  0  0  0  0  0  0  0  0  0  0  0
  145.8636  132.6542  149.5767 C   0  0  0  0  0  0  0  0  0  0  0  0
  145.8803  134.1427  149.9575 C   0  0  0  0  0  0  0  0  0  0  0  0
  145.5034  134.3491  151.4426 C   0  0  1  0  0  0  0  0  0  0  0  0
  152.3193  137.7235  152.9206 H   0  0  0  0  0  0  0  0  0  0  0  0
  152.1794  138.8885  154.2323 H   0  0  0  0  0  0  0  0  0  0  0  0
  152.1637  139.4350  152.5399 H   0  0  0  0  0  0  0  0  0  0  0  0
  149.9305  142.5539  154.8244 H   0  0  0  0  0  0  0  0  0  0  0  0
  147.4386  142.5424  154.5633 H   0  0  0  0  0  0  0  0  0  0  0  0
  146.3403  140.5457  153.6194 H   0  0  0  0  0  0  0  0  0  0  0  0
  148.4343  137.6150  152.4192 H   0  0  0  0  0  0  0  0  0  0  0  0
  147.2993  136.1677  151.8025 H   0  0  0  0  0  0  0  0  0  0  0  0
  144.6345  136.2873  151.0140 H   0  0  0  0  0  0  0  0  0  0  0  0
  144.8827  135.4499  153.9192 H   0  0  0  0  0  0  0  0  0  0  0  0
  143.7219  136.5866  153.2240 H   0  0  0  0  0  0  0  0  0  0  0  0
  143.0155  133.9765  153.5175 H   0  0  0  0  0  0  0  0  0  0  0  0
  142.5848  134.8389  152.0425 H   0  0  0  0  0  0  0  0  0  0  0  0
  142.7523  132.3078  151.1507 H   0  0  0  0  0  0  0  0  0  0  0  0
  143.1472  133.6170  150.0584 H   0  0  0  0  0  0  0  0  0  0  0  0
  144.7803  131.0926  150.6037 H   0  0  0  0  0  0  0  0  0  0  0  0
  144.0474  131.5636  149.0969 H   0  0  0  0  0  0  0  0  0  0  0  0
  146.6986  132.1524  150.0672 H   0  0  0  0  0  0  0  0  0  0  0  0
  146.0330  132.5436  148.5050 H   0  0  0  0  0  0  0  0  0  0  0  0
  146.8662  134.5631  149.7577 H   0  0  0  0  0  0  0  0  0  0  0  0
  145.1862  134.6858  149.3146 H   0  0  0  0  0  0  0  0  0  0  0  0
  146.3124  133.9719  152.0706 H   0  0  0  0  0  0  0  0  0  0  0  0
  144.6124  132.8697  152.4715 H   0  0  0  0  0  0  0  0  0  0  0  0
  1  2  1  0  0  0  0
  1 22  1  0  0  0  0
  1 23  1  0  0  0  0
  1 24  1  0  0  0  0
  2  3  1  0  0  0  0
  3  8  1  0  0  0  0
  3  4  2  0  0  0  0
  4  5  1  0  0  0  0
  5  6  2  0  0  0  0
  5 25  1  0  0  0  0
  6  7  1  0  0  0  0
  6 26  1  0  0  0  0
  7  8  2  0  0  0  0
  7 27  1  0  0  0  0
  8  9  1  0  0  0  0
  9 10  1  0  0  0  0
  9 28  1  0  0  0  0
 10 11  2  0  0  0  0
 10 12  1  0  0  0  0
 12 13  1  0  0  0  0
 12 29  1  0  0  0  0
 13 21  1  0  0  0  0
 13 14  1  0  0  0  0
 13 30  1  0  0  0  0
 14 15  1  0  0  0  0
 14 31  1  0  0  0  0
 14 32  1  0  0  0  0
 15 16  1  0  0  0  0
 15 33  1  0  0  0  0
 15 34  1  0  0  0  0
 16 21  1  0  0  0  0
 16 17  1  0  0  0  0
 16 44  1  0  0  0  0
 17 18  1  0  0  0  0
 17 35  1  0  0  0  0
 17 36  1  0  0  0  0
 18 19  1  0  0  0  0
 18 37  1  0  0  0  0
 18 38  1  0  0  0  0
 19 20  1  0  0  0  0
 19 39  1  0  0  0  0
 19 40  1  0  0  0  0
 20 21  1  0  0  0  0
 20 41  1  0  0  0  0
 20 42  1  0  0  0  0
 21 43  1  0  0  0  0
M  CHG  1  16   1
M  END
> <s_m_source_file>
AV-unprocessed.smi

> <i_m_source_file_index>
1721

> <i_lp_mmshare_version>
43012

> <i_f3d_flags>
0

> <s_epik_input>
W0NIM11PYzFuW2NIXVtjSF1bY0hdYzFbTkhdQyg9TylbTkhdW0NASF0oW0NIMl1bQ0gyXTIpW0NAQEhdKE4yMylbQ0gyXVtDSDJdW0NIMl1bQ0gyXTM=

> <s_epik_cmdline>
J2VwaWtfcHl0aG9uJywgJy1waCcsICc3LjAnLCAnLXRuJywgJzgnLCAnLW1hJywgJzIwMCcsICctbWV0YWxfYmluZGluZycsICctaW1hZScsICc8aW5maWxlLm1hZT4nLCAnLW9tYWUnLCAnPG91dGZpbGUubWFlPic=

> <r_lp_tautomer_probability>
1

> <r_epik_Ionization_Penalty>
0.00104793

> <r_epik_Ionization_Penalty_Charging>
0.000974069

> <r_epik_Ionization_Penalty_Neutral>
7.38649e-05

> <r_epik_State_Penalty>
0.000633842

> <r_epik_Charging_Adjusted_Penalty>
0.00160791

> <i_epik_Tot_Q>
1

> <i_epik_Tot_abs_Q>
1

> <r_epik_Metal_State_Penalty>
-0

> <b_epik_Metal_Only>
0

> <s_lp_Force_Field>
OPLS_2005

> <r_lp_Energy>
42.7216

> <b_lp_Chiralities_Consistent>
1

> <s_lp_Variant>
AV-unprocessed.smi:1721-1

> <Gold.Version>
5.8.1

> <Gold.Id.Protein>
6NUR|6NUR_protein|mol2

> <Gold.PLP.Fitness>
45.8622

> <Gold.PLP.PLP>
-35.9604

> <Gold.PLP.part.hbond>
-3.0000

> <Gold.PLP.part.metal>
0.0000

> <Gold.PLP.part.buried>
-3.3793

> <Gold.PLP.part.nonpolar>
-32.1510

> <Gold.PLP.part.repulsive>
3.2136

> <Gold.PLP.ligand.clash>
0.0000

> <Gold.PLP.ligand.torsion>
0.2151

> <Gold.PLP.Chemscore.Hbond>
2.4480

> <Gold.PLP.Chemscore.CHOScore>
0.9907

> <Gold.PLP.Chemscore.Metal>
0.0000

> <Gold.Chemscore.Hbonds>
donor molecule, donor type, donor heavy atom, donor atom, acceptor molecule, acceptor atom, score
      L1  H     9    28       P1  7948  1.00
      L1  H    12    29       P1  7948  0.98
      P1  H  7989  7998       L1     4  0.72
      L1  C     5    25       P1  8028  0.94

> <Gold.PLP.Chemscore.Internal.Correction>
0.0161

> <Gold.Rescore>
     Score         DG    S(hbond)    S(metal)    S(lipo)     H(rot)  DE(clash)    DE(int)     intcor
     14.95     -18.48       1.74        0.00      88.71       1.25       1.64       1.90       ----

> <Gold.Chemscore.Fitness>
14.9452

> <Gold.Chemscore.DG>
-18.4811

> <Gold.Chemscore.ZeroCoef>
-5.4800

> <Gold.Chemscore.Hbond>
1.7413

> <Gold.Chemscore.Metal>
0.0000

> <Gold.Chemscore.Lipo>
88.7058

> <Gold.Chemscore.Internal_Hbond>
0.0000

> <Gold.Chemscore.DEClash>
1.6408

> <Gold.Chemscore.DEInternal>
1.8951

> <Gold.Chemscore.Rot>
1.2474

> <Gold.Chemscore.Internal.Correction>
   9.000000E+99

> <Gold.Chemscore.Hbonds>
donor molecule, donor type, donor heavy atom, donor atom, acceptor molecule, acceptor atom, score
      L1  H     9    28       P1  7948  0.94
      L1  H    12    29       P1  7948  0.93
      P1  H  7989  7998       L1     4  0.54

> <Gold.Chemscore.Hbond.Weighted>
-5.8159

> <Gold.Chemscore.Metal.Weighted>
-0.0000

> <Gold.Chemscore.Lipo.Weighted>
-10.3786

> <Gold.Chemscore.Internal_Hbond.Weighted>
0.0000

> <Gold.Chemscore.DEClash.Weighted>
1.6408

> <Gold.Chemscore.DEInternal.Weighted>
1.8951

> <Gold.Chemscore.Rot.Weighted>
3.1934

> <Gold.Chemscore.Internal.Correction.Weighted>
   9.000000E+99

> <Gold.Protein.RotatedTorsions>
[ 6907 6896 6895 6894 ] final   -9.68 input  -60.11 | X-H torsion
[ 7974 7965 7964 7962 ] final   28.93 input  175.53 | X-H torsion
[ 8008 7997 7996 7995 ] final -134.30 input   59.86 | X-H torsion
[ 10167 10162 10161 10158 ] final -175.49 input  -65.29 | X-H torsion
[ 10718 10713 10712 10709 ] final -155.24 input   66.30 | X-H torsion
[ 10763 10752 10751 10750 ] final  132.84 input  -60.55 | X-H torsion
[ 11005 11000 10999 10996 ] final  -51.17 input  -57.11 | X-H torsion

> <Gold.Protein.ActiveResidues>
 VAL166  LYS551  ARG553  GLY616  TRP617  ASP618  TYR619  PRO620  LYS621  CYS622 
 ASP623  PHE694  ASN695  SER759  ASP760  ASP761  ALA762  ILE779  LEU786  VAL792 
 PHE793  MET794  SER795  GLU796  ALA797  LYS798  CYS799  TRP800  GLU811  SER814 

> <Gold.Protein.RotatedAtoms>
  151.4139  135.0989  159.9593 H   0  0  0  0  0  0  0  0  0  0  0  0  # atno 6907 bound_to 6896
  152.5011  133.8771  159.7338 H   0  0  0  0  0  0  0  0  0  0  0  0  # atno 6908 bound_to 6896
  150.9272  133.6752  159.2847 H   0  0  0  0  0  0  0  0  0  0  0  0  # atno 6909 bound_to 6896
  146.1700  139.6989  142.8974 H   0  0  0  0  0  0  0  0  0  0  0  0  # atno 7974 bound_to 7965
  155.3598  140.0482  157.3046 H   0  0  0  0  0  0  0  0  0  0  0  0  # atno 8008 bound_to 7997
  154.5184  140.2216  155.8986 H   0  0  0  0  0  0  0  0  0  0  0  0  # atno 8009 bound_to 7997
  156.1662  140.3106  155.8899 H   0  0  0  0  0  0  0  0  0  0  0  0  # atno 8010 bound_to 7997
  139.5578  144.1945  152.1189 H   0  0  0  0  0  0  0  0  0  0  0  0  # atno 10167 bound_to 10162
  156.5102  130.8431  151.2643 H   0  0  0  0  0  0  0  0  0  0  0  0  # atno 10718 bound_to 10713
  153.7972  135.3147  155.3386 H   0  0  0  0  0  0  0  0  0  0  0  0  # atno 10763 bound_to 10752
  154.8103  135.4671  154.0501 H   0  0  0  0  0  0  0  0  0  0  0  0  # atno 10764 bound_to 10752
  153.1838  135.6898  153.8530 H   0  0  0  0  0  0  0  0  0  0  0  0  # atno 10765 bound_to 10752
  141.0856  133.6643  156.3838 H   0  0  0  0  0  0  0  0  0  0  0  0  # atno 11005 bound_to 11000
  145.4364  141.0419  143.2882 LP  0  0  0  0  0  0  0  0  0  0  0  0  # atno 17320 bound_to 7965
  144.8149  139.5894  143.7013 LP  0  0  0  0  0  0  0  0  0  0  0  0  # atno 17321 bound_to 7965
  140.1452  144.5165  150.6720 LP  0  0  0  0  0  0  0  0  0  0  0  0  # atno 17342 bound_to 10162
  140.6854  143.2347  151.5275 LP  0  0  0  0  0  0  0  0  0  0  0  0  # atno 17343 bound_to 10162
  157.7451  130.9952  150.2736 LP  0  0  0  0  0  0  0  0  0  0  0  0  # atno 17370 bound_to 10713
  156.3248  130.3791  149.7543 LP  0  0  0  0  0  0  0  0  0  0  0  0  # atno 17371 bound_to 10713
  140.5370  134.6157  157.5368 LP  0  0  0  0  0  0  0  0  0  0  0  0  # atno 17394 bound_to 11000
  139.9674  134.7350  156.0110 LP  0  0  0  0  0  0  0  0  0  0  0  0  # atno 17395 bound_to 11000

$$$$
