AV-unprocessed.smi:2895|AV-procd|sdf|11131|dock6
  -GOLD-   2272016 03D 1   1.00000     0.00000
 Structure written by MMmdl.
 53 56  0  0  0  0  0  0  0  0  2 V2000
  144.5521  137.7317  153.9959 O   0  0  0  0  0  0  0  0  0  0  0  0
  145.6661  137.9627  153.5241 C   0  0  0  0  0  0  0  0  0  0  0  0
  146.1323  137.3100  152.4457 N   0  0  0  0  0  0  0  0  0  0  0  0
  145.4208  136.2610  151.7241 C   0  0  0  0  0  0  0  0  0  0  0  0
  145.7550  134.8648  152.2760 C   0  0  0  0  0  0  0  0  0  0  0  0
  145.2480  133.7553  151.3754 C   0  0  0  0  0  0  0  0  0  0  0  0
  143.8683  133.6093  151.1234 C   0  0  0  0  0  0  0  0  0  0  0  0
  143.4464  132.5631  150.2788 C   0  0  0  0  0  0  0  0  0  0  0  0
  144.2975  131.6909  149.6967 N   0  0  0  0  0  0  0  0  0  0  0  0
  145.6173  131.8374  149.9429 C   0  0  0  0  0  0  0  0  0  0  0  0
  146.1434  132.8488  150.7713 C   0  0  0  0  0  0  0  0  0  0  0  0
  146.5024  138.9074  154.0249 N   0  0  0  0  0  0  0  0  0  0  0  0
  147.7414  139.3936  153.3976 C   0  0  0  0  0  0  0  0  0  0  0  0
  148.9475  138.8672  154.2005 C   0  0  0  0  0  0  0  0  0  0  0  0
  148.8781  139.2615  155.6373 N   0  3  0  0  0  0  0  0  0  0  0  0
  149.2760  140.6755  155.9131 C   0  0  1  0  0  0  0  0  0  0  0  0
  148.9456  141.1530  157.3487 C   0  0  0  0  0  0  0  0  0  0  0  0
  150.2708  141.7744  157.8278 C   0  0  1  0  0  0  0  0  0  0  0  0
  151.2544  140.6421  158.1684 C   0  0  0  0  0  0  0  0  0  0  0  0
  151.6094  140.0798  156.7805 C   0  0  0  0  0  0  0  0  0  0  0  0
  150.7940  140.9766  155.8235 C   0  0  2  0  0  0  0  0  0  0  0  0
  150.8645  142.3231  156.5363 C   0  0  0  0  0  0  0  0  0  0  0  0
  147.5644  138.8907  156.2392 C   0  0  0  0  0  0  0  0  0  0  0  0
  146.3755  139.4029  155.3999 C   0  0  0  0  0  0  0  0  0  0  0  0
  147.0461  137.5608  152.0975 H   0  0  0  0  0  0  0  0  0  0  0  0
  144.3459  136.4451  151.7657 H   0  0  0  0  0  0  0  0  0  0  0  0
  145.7061  136.3216  150.6735 H   0  0  0  0  0  0  0  0  0  0  0  0
  146.8338  134.7625  152.4026 H   0  0  0  0  0  0  0  0  0  0  0  0
  145.3157  134.7314  153.2655 H   0  0  0  0  0  0  0  0  0  0  0  0
  143.1482  134.2830  151.5648 H   0  0  0  0  0  0  0  0  0  0  0  0
  142.3971  132.4239  150.0646 H   0  0  0  0  0  0  0  0  0  0  0  0
  146.2751  131.1264  149.4654 H   0  0  0  0  0  0  0  0  0  0  0  0
  147.2084  132.9220  150.9363 H   0  0  0  0  0  0  0  0  0  0  0  0
  147.8524  139.1055  152.3524 H   0  0  0  0  0  0  0  0  0  0  0  0
  147.7352  140.4841  153.3941 H   0  0  0  0  0  0  0  0  0  0  0  0
  148.9521  137.7773  154.1553 H   0  0  0  0  0  0  0  0  0  0  0  0
  149.8836  139.1757  153.7381 H   0  0  0  0  0  0  0  0  0  0  0  0
  148.7647  141.3258  155.2023 H   0  0  0  0  0  0  0  0  0  0  0  0
  148.1475  141.8960  157.3282 H   0  0  0  0  0  0  0  0  0  0  0  0
  148.6306  140.3475  158.0135 H   0  0  0  0  0  0  0  0  0  0  0  0
  150.1497  142.5033  158.6297 H   0  0  0  0  0  0  0  0  0  0  0  0
  152.1442  141.0361  158.6614 H   0  0  0  0  0  0  0  0  0  0  0  0
  150.8151  139.8899  158.8246 H   0  0  0  0  0  0  0  0  0  0  0  0
  152.6782  140.1882  156.5907 H   0  0  0  0  0  0  0  0  0  0  0  0
  151.3653  139.0217  156.6858 H   0  0  0  0  0  0  0  0  0  0  0  0
  151.1818  141.0016  154.8049 H   0  0  0  0  0  0  0  0  0  0  0  0
  150.2497  143.0958  156.0712 H   0  0  0  0  0  0  0  0  0  0  0  0
  151.8826  142.6992  156.6532 H   0  0  0  0  0  0  0  0  0  0  0  0
  147.5167  137.8023  156.2945 H   0  0  0  0  0  0  0  0  0  0  0  0
  147.4795  139.2427  157.2666 H   0  0  0  0  0  0  0  0  0  0  0  0
  146.3535  140.4930  155.3871 H   0  0  0  0  0  0  0  0  0  0  0  0
  145.4391  139.1032  155.8725 H   0  0  0  0  0  0  0  0  0  0  0  0
  149.5736  138.7024  156.1106 H   0  0  0  0  0  0  0  0  0  0  0  0
  1  2  2  0  0  0  0
  2  3  1  0  0  0  0
  2 12  1  0  0  0  0
  3  4  1  0  0  0  0
  3 25  1  0  0  0  0
  4  5  1  0  0  0  0
  4 26  1  0  0  0  0
  4 27  1  0  0  0  0
  5  6  1  0  0  0  0
  5 28  1  0  0  0  0
  5 29  1  0  0  0  0
  6 11  1  0  0  0  0
  6  7  2  0  0  0  0
  7  8  1  0  0  0  0
  7 30  1  0  0  0  0
  8  9  2  0  0  0  0
  8 31  1  0  0  0  0
  9 10  1  0  0  0  0
 10 11  2  0  0  0  0
 10 32  1  0  0  0  0
 11 33  1  0  0  0  0
 12 24  1  0  0  0  0
 12 13  1  0  0  0  0
 13 14  1  0  0  0  0
 13 34  1  0  0  0  0
 13 35  1  0  0  0  0
 14 15  1  0  0  0  0
 14 36  1  0  0  0  0
 14 37  1  0  0  0  0
 15 16  1  0  0  0  0
 15 23  1  0  0  0  0
 15 53  1  0  0  0  0
 16 21  1  0  0  0  0
 16 17  1  0  0  0  0
 16 38  1  0  0  0  0
 17 18  1  0  0  0  0
 17 39  1  0  0  0  0
 17 40  1  0  0  0  0
 18 22  1  0  0  0  0
 18 19  1  0  0  0  0
 18 41  1  0  0  0  0
 19 20  1  0  0  0  0
 19 42  1  0  0  0  0
 19 43  1  0  0  0  0
 20 21  1  0  0  0  0
 20 44  1  0  0  0  0
 20 45  1  0  0  0  0
 21 22  1  0  0  0  0
 21 46  1  0  0  0  0
 22 47  1  0  0  0  0
 22 48  1  0  0  0  0
 23 24  1  0  0  0  0
 23 49  1  0  0  0  0
 23 50  1  0  0  0  0
 24 51  1  0  0  0  0
 24 52  1  0  0  0  0
M  CHG  1  15   1
M  END
> <s_m_source_file>
AV-unprocessed.smi

> <i_m_source_file_index>
2895

> <i_lp_mmshare_version>
43012

> <i_f3d_flags>
0

> <s_epik_input>
W0NIMl0xW0NIMl1bQ0BASF0oW0NIMl0yKVtDQEBIXShbQ0gyXVtDQEhdMTIpTihbQ0gyXVtDSDJdMylbQ0gyXVtDSDJdTjNDKD1PKVtOSF1bQ0gyXVtDSDJdYzRbY0hdW2NIXW5bY0hdW2NIXTQ=

> <s_epik_cmdline>
J2VwaWtfcHl0aG9uJywgJy1waCcsICc3LjAnLCAnLXRuJywgJzgnLCAnLW1hJywgJzIwMCcsICctbWV0YWxfYmluZGluZycsICctaW1hZScsICc8aW5maWxlLm1hZT4nLCAnLW9tYWUnLCAnPG91dGZpbGUubWFlPic=

> <r_epik_Ionization_Penalty>
0.0566172

> <r_epik_Ionization_Penalty_Charging>
0.00262064

> <r_epik_Ionization_Penalty_Neutral>
0.0539965

> <r_epik_State_Penalty>
0.0463959

> <r_epik_Charging_Adjusted_Penalty>
0.0490165

> <i_epik_Tot_Q>
1

> <i_epik_Tot_abs_Q>
1

> <r_epik_Metal_State_Penalty>
0.0424856

> <b_epik_Metal_Only>
0

> <s_lp_Force_Field>
OPLS_2005

> <r_lp_Energy>
99.8283

> <b_lp_Chiralities_Consistent>
1

> <s_lp_Variant>
AV-unprocessed.smi:2895-4

> <Gold.Version>
5.8.1

> <Gold.Id.Protein>
6NUR|6NUR_protein|mol2

> <Gold.PLP.Fitness>
43.7880

> <Gold.PLP.PLP>
-36.6828

> <Gold.PLP.part.hbond>
-2.0000

> <Gold.PLP.part.metal>
0.0000

> <Gold.PLP.part.buried>
-2.9374

> <Gold.PLP.part.nonpolar>
-33.4068

> <Gold.PLP.part.repulsive>
0.3705

> <Gold.PLP.ligand.clash>
0.0000

> <Gold.PLP.ligand.torsion>
0.6331

> <Gold.PLP.Chemscore.Hbond>
0.8276

> <Gold.PLP.Chemscore.CHOScore>
1.9358

> <Gold.PLP.Chemscore.Metal>
0.0000

> <Gold.Chemscore.Hbonds>
donor molecule, donor type, donor heavy atom, donor atom, acceptor molecule, acceptor atom, score
      L1  H     3    25       P1  7948  0.17
      P1  H 10785 10796       L1     9  0.45
      L1  C     8    31       P1 10186  0.79
      L1  C     8    31       P1 10952  0.72
      L1  C    10    32       P1 10747  0.26

> <Gold.PLP.Chemscore.Internal.Correction>
0.0811

> <Gold.Rescore>
     Score         DG    S(hbond)    S(metal)    S(lipo)     H(rot)  DE(clash)    DE(int)     intcor
     16.43     -18.55       1.29        0.00     104.74       1.37       1.54       0.57       ----

> <Gold.Chemscore.Fitness>
16.4340

> <Gold.Chemscore.DG>
-18.5451

> <Gold.Chemscore.ZeroCoef>
-5.4800

> <Gold.Chemscore.Hbond>
1.2950

> <Gold.Chemscore.Metal>
0.0000

> <Gold.Chemscore.Lipo>
104.7438

> <Gold.Chemscore.Internal_Hbond>
0.0000

> <Gold.Chemscore.DEClash>
1.5394

> <Gold.Chemscore.DEInternal>
0.5716

> <Gold.Chemscore.Rot>
1.3731

> <Gold.Chemscore.Internal.Correction>
   9.000000E+99

> <Gold.Chemscore.Hbonds>
donor molecule, donor type, donor heavy atom, donor atom, acceptor molecule, acceptor atom, score
      L1  H     3    25       P1  7948  0.17
      P1  H 10785 10796       L1     9  0.36

> <Gold.Chemscore.Hbond.Weighted>
-4.3252

> <Gold.Chemscore.Metal.Weighted>
-0.0000

> <Gold.Chemscore.Lipo.Weighted>
-12.2550

> <Gold.Chemscore.Internal_Hbond.Weighted>
0.0000

> <Gold.Chemscore.DEClash.Weighted>
1.5394

> <Gold.Chemscore.DEInternal.Weighted>
0.5716

> <Gold.Chemscore.Rot.Weighted>
3.5152

> <Gold.Chemscore.Internal.Correction.Weighted>
   9.000000E+99

> <Gold.Protein.RotatedTorsions>
[ 6907 6896 6895 6894 ] final  112.18 input  -60.11 | X-H torsion
[ 7974 7965 7964 7962 ] final -113.95 input  175.53 | X-H torsion
[ 8008 7997 7996 7995 ] final -143.64 input   59.86 | X-H torsion
[ 10167 10162 10161 10158 ] final  140.30 input  -65.29 | X-H torsion
[ 10718 10713 10712 10709 ] final  -52.05 input   66.30 | X-H torsion
[ 10763 10752 10751 10750 ] final   91.06 input  -60.55 | X-H torsion
[ 11005 11000 10999 10996 ] final  -92.70 input  -57.11 | X-H torsion

> <Gold.Protein.ActiveResidues>
 VAL166  LYS551  ARG553  GLY616  TRP617  ASP618  TYR619  PRO620  LYS621  CYS622 
 ASP623  PHE694  ASN695  SER759  ASP760  ASP761  ALA762  ILE779  LEU786  VAL792 
 PHE793  MET794  SER795  GLU796  ALA797  LYS798  CYS799  TRP800  GLU811  SER814 

> <Gold.Protein.RotatedAtoms>
  152.4930  133.8552  159.7221 H   0  0  0  0  0  0  0  0  0  0  0  0  # atno 6907 bound_to 6896
  150.9078  133.7026  159.2869 H   0  0  0  0  0  0  0  0  0  0  0  0  # atno 6908 bound_to 6896
  151.4446  135.1028  159.9732 H   0  0  0  0  0  0  0  0  0  0  0  0  # atno 6909 bound_to 6896
  145.1259  140.8696  143.3786 H   0  0  0  0  0  0  0  0  0  0  0  0  # atno 7974 bound_to 7965
  155.5139  140.0585  157.2918 H   0  0  0  0  0  0  0  0  0  0  0  0  # atno 8008 bound_to 7997
  154.4542  140.1964  156.0377 H   0  0  0  0  0  0  0  0  0  0  0  0  # atno 8009 bound_to 7997
  156.0765  140.3253  155.7645 H   0  0  0  0  0  0  0  0  0  0  0  0  # atno 8010 bound_to 7997
  139.5053  144.6242  151.5977 H   0  0  0  0  0  0  0  0  0  0  0  0  # atno 10167 bound_to 10162
  156.1655  130.4149  149.9726 H   0  0  0  0  0  0  0  0  0  0  0  0  # atno 10718 bound_to 10713
  153.2042  135.4411  155.0303 H   0  0  0  0  0  0  0  0  0  0  0  0  # atno 10763 bound_to 10752
  154.8164  135.3317  154.7166 H   0  0  0  0  0  0  0  0  0  0  0  0  # atno 10764 bound_to 10752
  153.7608  135.6991  153.4981 H   0  0  0  0  0  0  0  0  0  0  0  0  # atno 10765 bound_to 10752
  141.1515  133.7838  157.0057 H   0  0  0  0  0  0  0  0  0  0  0  0  # atno 11005 bound_to 11000
  145.0688  139.3047  143.5842 LP  0  0  0  0  0  0  0  0  0  0  0  0  # atno 17320 bound_to 7965
  146.3517  140.0156  142.8663 LP  0  0  0  0  0  0  0  0  0  0  0  0  # atno 17321 bound_to 7965
  140.5954  143.9705  150.6351 LP  0  0  0  0  0  0  0  0  0  0  0  0  # atno 17342 bound_to 10162
  140.2900  143.3331  152.1072 LP  0  0  0  0  0  0  0  0  0  0  0  0  # atno 17343 bound_to 10162
  156.7542  130.9127  151.3639 LP  0  0  0  0  0  0  0  0  0  0  0  0  # atno 17370 bound_to 10713
  157.6765  130.9099  150.0162 LP  0  0  0  0  0  0  0  0  0  0  0  0  # atno 17371 bound_to 10713
  140.0911  134.9592  157.1777 LP  0  0  0  0  0  0  0  0  0  0  0  0  # atno 17394 bound_to 11000
  140.3445  134.2667  155.7207 LP  0  0  0  0  0  0  0  0  0  0  0  0  # atno 17395 bound_to 11000

$$$$
