AV-unprocessed.smi:112|AV-procd|sdf|1083|dock5
  -GOLD-   2262018173D 1   1.00000     0.00000
 Structure written by MMmdl.
 54 57  0  0  0  0  0  0  0  0  3 V2000
  150.7535  136.1246  154.4584 C   0  0  0  0  0  0  0  0  0  0  0  0
  150.1943  137.4156  155.0360 C   0  0  0  0  0  0  0  0  0  0  0  0
  148.8803  137.5662  155.3214 C   0  0  0  0  0  0  0  0  0  0  0  0
  148.3414  138.7263  155.8485 N   0  0  0  0  0  0  0  0  0  0  0  0
  146.8709  138.8500  156.1852 C   0  0  2  0  0  0  0  0  0  0  0  0
  146.4588  137.7723  157.1988 C   0  0  0  0  0  0  0  0  0  0  0  0
  145.1478  137.2628  156.6326 C   0  0  1  0  0  0  0  0  0  0  0  0
  144.0602  138.0180  157.1325 O   0  0  0  0  0  0  0  0  0  0  0  0
  145.3504  137.4620  155.1254 C   0  0  1  0  0  0  0  0  0  0  0  0
  144.0840  137.5292  154.2547 C   0  0  0  0  0  0  0  0  0  0  0  0
  143.3515  138.7008  154.5443 O   0  0  0  0  0  0  0  0  0  0  0  0
  146.1013  138.6686  155.0312 O   0  0  0  0  0  0  0  0  0  0  0  0
  149.1829  139.8218  156.1261 C   0  0  0  0  0  0  0  0  0  0  0  0
  148.7293  140.8540  156.6263 O   0  0  0  0  0  0  0  0  0  0  0  0
  150.5591  139.7008  155.8298 N   0  0  0  0  0  0  0  0  0  0  0  0
  151.4501  140.8436  156.1328 C   0  0  0  0  0  0  0  0  0  0  0  0
  152.2515  140.6757  157.4427 C   0  0  0  0  0  0  0  0  0  0  0  0
  153.0032  139.7071  157.5602 O   0  0  0  0  0  0  0  0  0  0  0  0
  152.0882  141.6121  158.4102 N   0  0  0  0  0  0  0  0  0  0  0  0
  151.2004  142.7797  158.2699 C   0  0  0  0  0  0  0  0  0  0  0  0
  151.3124  143.5715  159.5910 C   0  0  0  0  0  0  0  0  0  0  0  0
  152.2844  142.7575  160.3929 C   0  0  0  0  0  0  0  0  0  0  0  0
  152.7404  143.0359  161.6927 C   0  0  0  0  0  0  0  0  0  0  0  0
  153.6624  142.1471  162.2999 C   0  0  0  0  0  0  0  0  0  0  0  0
  154.1605  142.4055  163.6656 N   0  3  0  0  0  0  0  0  0  0  0  0
  155.0992  141.7326  164.0793 O   0  0  0  0  0  0  0  0  0  0  0  0
  153.6132  143.2815  164.3276 O   0  5  0  0  0  0  0  0  0  0  0  0
  154.0985  141.0050  161.5769 C   0  0  0  0  0  0  0  0  0  0  0  0
  153.6303  140.7412  160.2711 C   0  0  0  0  0  0  0  0  0  0  0  0
  152.7113  141.6392  159.6862 C   0  0  0  0  0  0  0  0  0  0  0  0
  151.1238  138.5186  155.2912 C   0  0  0  0  0  0  0  0  0  0  0  0
  152.3341  138.4456  155.0689 O   0  0  0  0  0  0  0  0  0  0  0  0
  149.9726  135.3822  154.2913 H   0  0  0  0  0  0  0  0  0  0  0  0
  151.4868  135.6896  155.1384 H   0  0  0  0  0  0  0  0  0  0  0  0
  151.2424  136.3138  153.5020 H   0  0  0  0  0  0  0  0  0  0  0  0
  148.2306  136.7270  155.1262 H   0  0  0  0  0  0  0  0  0  0  0  0
  146.7170  139.8707  156.5395 H   0  0  0  0  0  0  0  0  0  0  0  0
  147.1982  136.9695  157.1993 H   0  0  0  0  0  0  0  0  0  0  0  0
  146.3873  138.1810  158.2076 H   0  0  0  0  0  0  0  0  0  0  0  0
  144.9804  136.2145  156.8816 H   0  0  0  0  0  0  0  0  0  0  0  0
  144.0738  137.9729  158.0765 H   0  0  0  0  0  0  0  0  0  0  0  0
  145.9892  136.6573  154.7578 H   0  0  0  0  0  0  0  0  0  0  0  0
  144.3248  137.4979  153.1920 H   0  0  0  0  0  0  0  0  0  0  0  0
  143.4477  136.6684  154.4605 H   0  0  0  0  0  0  0  0  0  0  0  0
  143.3302  139.2412  153.7691 H   0  0  0  0  0  0  0  0  0  0  0  0
  152.1465  141.0155  155.3112 H   0  0  0  0  0  0  0  0  0  0  0  0
  150.8697  141.7657  156.1875 H   0  0  0  0  0  0  0  0  0  0  0  0
  151.5086  143.4016  157.4284 H   0  0  0  0  0  0  0  0  0  0  0  0
  150.1689  142.4655  158.1046 H   0  0  0  0  0  0  0  0  0  0  0  0
  151.6983  144.5786  159.4304 H   0  0  0  0  0  0  0  0  0  0  0  0
  150.3537  143.6386  160.1067 H   0  0  0  0  0  0  0  0  0  0  0  0
  152.3843  143.9158  162.2079 H   0  0  0  0  0  0  0  0  0  0  0  0
  154.8010  140.3144  162.0197 H   0  0  0  0  0  0  0  0  0  0  0  0
  153.9863  139.8620  159.7580 H   0  0  0  0  0  0  0  0  0  0  0  0
  1  2  1  0  0  0  0
  1 33  1  0  0  0  0
  1 34  1  0  0  0  0
  1 35  1  0  0  0  0
  2 31  1  0  0  0  0
  2  3  2  0  0  0  0
  3  4  1  0  0  0  0
  3 36  1  0  0  0  0
  4  5  1  0  0  0  0
  4 13  1  0  0  0  0
  5 12  1  0  0  0  0
  5  6  1  0  0  0  0
  5 37  1  0  0  0  0
  6  7  1  0  0  0  0
  6 38  1  0  0  0  0
  6 39  1  0  0  0  0
  7  8  1  0  0  0  0
  7  9  1  0  0  0  0
  7 40  1  0  0  0  0
  8 41  1  0  0  0  0
  9 10  1  0  0  0  0
  9 12  1  0  0  0  0
  9 42  1  0  0  0  0
 10 11  1  0  0  0  0
 10 43  1  0  0  0  0
 10 44  1  0  0  0  0
 11 45  1  0  0  0  0
 13 14  2  0  0  0  0
 13 15  1  0  0  0  0
 15 16  1  0  0  0  0
 15 31  1  0  0  0  0
 16 17  1  0  0  0  0
 16 46  1  0  0  0  0
 16 47  1  0  0  0  0
 17 18  2  0  0  0  0
 17 19  1  0  0  0  0
 19 30  1  0  0  0  0
 19 20  1  0  0  0  0
 20 21  1  0  0  0  0
 20 48  1  0  0  0  0
 20 49  1  0  0  0  0
 21 22  1  0  0  0  0
 21 50  1  0  0  0  0
 21 51  1  0  0  0  0
 22 30  2  0  0  0  0
 22 23  1  0  0  0  0
 23 24  2  0  0  0  0
 23 52  1  0  0  0  0
 24 25  1  0  0  0  0
 24 28  1  0  0  0  0
 25 26  2  0  0  0  0
 25 27  1  0  0  0  0
 28 29  2  0  0  0  0
 28 53  1  0  0  0  0
 29 30  1  0  0  0  0
 29 54  1  0  0  0  0
 31 32  2  0  0  0  0
M  CHG  1  25   1
M  CHG  1  27  -1
M  END
> <s_m_source_file>
AV-unprocessed.smi

> <i_m_source_file_index>
112

> <i_lp_mmshare_version>
43012

> <i_f3d_flags>
0

> <s_epik_input>
W09IXVtDSDJdW0NAQEhdKE8xKVtDQEhdKFtPSF0pW0NIMl1bQ0BIXTFuKFtjSF1jMltDSDNdKWMoPU8pbihjMj1PKVtDSDJdQyg9TylOKFtDSDJdW0NIMl0zKWMoYzM0KVtjSF1bY0hdYyhbY0hdNClbTitdKD1PKVtPLV0=

> <s_epik_cmdline>
J2VwaWtfcHl0aG9uJywgJy1waCcsICc3LjAnLCAnLXRuJywgJzgnLCAnLW1hJywgJzIwMCcsICctbWV0YWxfYmluZGluZycsICctaW1hZScsICc8aW5maWxlLm1hZT4nLCAnLW9tYWUnLCAnPG91dGZpbGUubWFlPic=

> <r_lp_tautomer_probability>
1

> <r_epik_Ionization_Penalty>
2.5696e-07

> <r_epik_Ionization_Penalty_Charging>
1.04886e-08

> <r_epik_Ionization_Penalty_Neutral>
2.46472e-07

> <r_epik_State_Penalty>
-0

> <r_epik_Charging_Adjusted_Penalty>
1.04886e-08

> <i_epik_Tot_Q>
0

> <i_epik_Tot_abs_Q>
2

> <r_epik_Metal_State_Penalty>
-0

> <b_epik_Metal_Only>
0

> <s_epik_Chemistry_Notes>
This compound contains an acetal/aminal-like group ( X-CH(R)-Y where X, Y are N, S, or O) that may be acid/base labile, releasing an aldehyde.

> <s_lp_Force_Field>
OPLS_2005

> <r_lp_Energy>
59.5699

> <b_lp_Chiralities_Consistent>
1

> <s_lp_Variant>
AV-unprocessed.smi:112-1

> <Gold.Version>
5.8.1

> <Gold.Id.Protein>
6NUR|6NUR_protein|mol2

> <Gold.PLP.Fitness>
52.0553

> <Gold.PLP.PLP>
-46.7173

> <Gold.PLP.part.hbond>
-3.9021

> <Gold.PLP.part.metal>
0.0000

> <Gold.PLP.part.buried>
-4.9465

> <Gold.PLP.part.nonpolar>
-36.7809

> <Gold.PLP.part.repulsive>
0.2603

> <Gold.PLP.ligand.clash>
0.0000

> <Gold.PLP.ligand.torsion>
0.3453

> <Gold.PLP.Chemscore.Hbond>
2.0000

> <Gold.PLP.Chemscore.CHOScore>
0.0000

> <Gold.PLP.Chemscore.Metal>
0.0000

> <Gold.Chemscore.Hbonds>
donor molecule, donor type, donor heavy atom, donor atom, acceptor molecule, acceptor atom, score
      L1  H    11    45       P1 10175  1.00
      P1  H  7997  8010       L1    18  1.00

> <Gold.PLP.Chemscore.Internal.Correction>
0.0286

> <Gold.Rescore>
     Score         DG    S(hbond)    S(metal)    S(lipo)     H(rot)  DE(clash)    DE(int)     intcor
     12.72     -15.49       1.86        0.00     104.37       3.29       0.05       2.72       ----

> <Gold.Chemscore.Fitness>
12.7187

> <Gold.Chemscore.DG>
-15.4880

> <Gold.Chemscore.ZeroCoef>
-5.4800

> <Gold.Chemscore.Hbond>
1.8633

> <Gold.Chemscore.Metal>
0.0000

> <Gold.Chemscore.Lipo>
104.3686

> <Gold.Chemscore.Internal_Hbond>
0.0000

> <Gold.Chemscore.DEClash>
0.0456

> <Gold.Chemscore.DEInternal>
2.7236

> <Gold.Chemscore.Rot>
3.2916

> <Gold.Chemscore.Internal.Correction>
   9.000000E+99

> <Gold.Chemscore.Hbonds>
donor molecule, donor type, donor heavy atom, donor atom, acceptor molecule, acceptor atom, score
      L1  H    11    45       P1 10175  1.00
      P1  H  7997  8010       L1    18  0.81

> <Gold.Chemscore.Hbond.Weighted>
-6.2233

> <Gold.Chemscore.Metal.Weighted>
-0.0000

> <Gold.Chemscore.Lipo.Weighted>
-12.2111

> <Gold.Chemscore.Internal_Hbond.Weighted>
0.0000

> <Gold.Chemscore.DEClash.Weighted>
0.0456

> <Gold.Chemscore.DEInternal.Weighted>
2.7236

> <Gold.Chemscore.Rot.Weighted>
8.4265

> <Gold.Chemscore.Internal.Correction.Weighted>
   9.000000E+99

> <Gold.Protein.RotatedTorsions>
[ 6907 6896 6895 6894 ] final -110.35 input  -60.11 | X-H torsion
[ 7974 7965 7964 7962 ] final  -72.10 input  175.53 | X-H torsion
[ 8008 7997 7996 7995 ] final   31.20 input   59.86 | X-H torsion
[ 10167 10162 10161 10158 ] final   63.87 input  -65.29 | X-H torsion
[ 10718 10713 10712 10709 ] final   58.68 input   66.30 | X-H torsion
[ 10763 10752 10751 10750 ] final -155.40 input  -60.55 | X-H torsion
[ 11005 11000 10999 10996 ] final  100.91 input  -57.11 | X-H torsion

> <Gold.Protein.ActiveResidues>
 VAL166  LYS551  ARG553  GLY616  TRP617  ASP618  TYR619  PRO620  LYS621  CYS622 
 ASP623  PHE694  ASN695  SER759  ASP760  ASP761  ALA762  ILE779  LEU786  VAL792 
 PHE793  MET794  SER795  GLU796  ALA797  LYS798  CYS799  TRP800  GLU811  SER814 

> <Gold.Protein.RotatedAtoms>
  150.7619  133.9395  159.3451 H   0  0  0  0  0  0  0  0  0  0  0  0  # atno 6907 bound_to 6896
  151.7301  135.0874  160.0308 H   0  0  0  0  0  0  0  0  0  0  0  0  # atno 6908 bound_to 6896
  152.3595  133.6241  159.6040 H   0  0  0  0  0  0  0  0  0  0  0  0  # atno 6909 bound_to 6896
  145.6695  140.9226  143.0890 H   0  0  0  0  0  0  0  0  0  0  0  0  # atno 7974 bound_to 7965
  155.1026  140.3231  155.4543 H   0  0  0  0  0  0  0  0  0  0  0  0  # atno 8008 bound_to 7997
  156.2713  140.2058  156.6099 H   0  0  0  0  0  0  0  0  0  0  0  0  # atno 8009 bound_to 7997
  154.6817  140.0525  157.0260 H   0  0  0  0  0  0  0  0  0  0  0  0  # atno 8010 bound_to 7997
  140.1284  144.4666  150.6879 H   0  0  0  0  0  0  0  0  0  0  0  0  # atno 10167 bound_to 10162
  157.5616  130.8839  149.9120 H   0  0  0  0  0  0  0  0  0  0  0  0  # atno 10718 bound_to 10713
  154.7789  135.3168  154.8031 H   0  0  0  0  0  0  0  0  0  0  0  0  # atno 10763 bound_to 10752
  153.8748  135.6841  153.4776 H   0  0  0  0  0  0  0  0  0  0  0  0  # atno 10764 bound_to 10752
  153.1421  135.4735  154.9447 H   0  0  0  0  0  0  0  0  0  0  0  0  # atno 10765 bound_to 10752
  139.8772  134.9161  156.4828 H   0  0  0  0  0  0  0  0  0  0  0  0  # atno 11005 bound_to 11000
  144.7061  139.8554  143.7429 LP  0  0  0  0  0  0  0  0  0  0  0  0  # atno 17320 bound_to 7965
  146.1057  139.4057  143.0319 LP  0  0  0  0  0  0  0  0  0  0  0  0  # atno 17321 bound_to 7965
  140.6831  143.2336  151.5331 LP  0  0  0  0  0  0  0  0  0  0  0  0  # atno 17342 bound_to 10162
  139.5532  144.2341  152.1568 LP  0  0  0  0  0  0  0  0  0  0  0  0  # atno 17343 bound_to 10162
  156.0668  130.3691  150.0862 LP  0  0  0  0  0  0  0  0  0  0  0  0  # atno 17370 bound_to 10713
  156.9025  130.9625  151.3574 LP  0  0  0  0  0  0  0  0  0  0  0  0  # atno 17371 bound_to 10713
  140.8715  133.7985  155.9370 LP  0  0  0  0  0  0  0  0  0  0  0  0  # atno 17394 bound_to 11000
  140.8947  134.2451  157.5075 LP  0  0  0  0  0  0  0  0  0  0  0  0  # atno 17395 bound_to 11000

$$$$
