AV-unprocessed.smi:1522|AV-procd|sdf|6135|dock2
  -GOLD-   22720 6273D 1   1.00000     0.00000
 Structure written by MMmdl.
 35 36  0  0  0  0  0  0  0  0  2 V2000
  146.8065  138.9630  151.7796 C   0  0  0  0  0  0  0  0  0  0  0  0
  146.8634  138.6542  153.2929 C   0  0  1  0  0  0  0  0  0  0  0  0
  145.7586  137.6466  153.6926 C   0  0  0  0  0  0  0  0  0  0  0  0
  144.4200  138.1678  153.4325 N   0  0  0  0  0  0  0  0  0  0  0  0
  143.2799  137.5448  153.7621 C   0  0  0  0  0  0  0  0  0  0  0  0
  143.2452  136.4583  154.3398 O   0  0  0  0  0  0  0  0  0  0  0  0
  142.2057  138.2580  153.3801 N   0  0  0  0  0  0  0  0  0  0  0  0
  140.8326  137.9244  153.5236 C   0  0  0  0  0  0  0  0  0  0  0  0
  139.8377  138.8232  153.4598 N   0  0  0  0  0  0  0  0  0  0  0  0
  138.5927  138.2335  153.6356 N   0  0  0  0  0  0  0  0  0  0  0  0
  138.6973  136.9153  153.8255 C   0  0  0  0  0  0  0  0  0  0  0  0
  140.3274  136.2649  153.8082 S   0  0  0  0  0  0  0  0  0  0  0  0
  148.2136  138.1515  153.6838 N   0  3  0  0  0  0  0  0  0  0  0  0
  149.2743  139.1799  153.7564 C   0  0  0  0  0  0  0  0  0  0  0  0
  150.3967  138.5750  154.6028 C   0  0  0  0  0  0  0  0  0  0  0  0
  149.7423  137.4483  155.4059 C   0  0  0  0  0  0  0  0  0  0  0  0
  148.2723  137.4402  154.9796 C   0  0  0  0  0  0  0  0  0  0  0  0
  145.8248  139.3260  151.4753 H   0  0  0  0  0  0  0  0  0  0  0  0
  147.0254  138.0740  151.1871 H   0  0  0  0  0  0  0  0  0  0  0  0
  147.5165  139.7389  151.4936 H   0  0  0  0  0  0  0  0  0  0  0  0
  146.6849  139.5858  153.8326 H   0  0  0  0  0  0  0  0  0  0  0  0
  145.9165  136.7079  153.1582 H   0  0  0  0  0  0  0  0  0  0  0  0
  145.8032  137.4157  154.7569 H   0  0  0  0  0  0  0  0  0  0  0  0
  144.3580  139.0613  152.9665 H   0  0  0  0  0  0  0  0  0  0  0  0
  142.3901  139.1394  152.9243 H   0  0  0  0  0  0  0  0  0  0  0  0
  137.8078  136.3219  153.9765 H   0  0  0  0  0  0  0  0  0  0  0  0
  149.6297  139.4702  152.7673 H   0  0  0  0  0  0  0  0  0  0  0  0
  148.8845  140.0712  154.2510 H   0  0  0  0  0  0  0  0  0  0  0  0
  151.1769  138.1653  153.9600 H   0  0  0  0  0  0  0  0  0  0  0  0
  150.8608  139.3233  155.2460 H   0  0  0  0  0  0  0  0  0  0  0  0
  150.2143  136.4961  155.1601 H   0  0  0  0  0  0  0  0  0  0  0  0
  149.8446  137.5973  156.4813 H   0  0  0  0  0  0  0  0  0  0  0  0
  147.6755  137.9785  155.7179 H   0  0  0  0  0  0  0  0  0  0  0  0
  147.8822  136.4246  154.9052 H   0  0  0  0  0  0  0  0  0  0  0  0
  148.5067  137.4881  152.9806 H   0  0  0  0  0  0  0  0  0  0  0  0
  1  2  1  0  0  0  0
  1 18  1  0  0  0  0
  1 19  1  0  0  0  0
  1 20  1  0  0  0  0
  2  3  1  0  0  0  0
  2 13  1  0  0  0  0
  2 21  1  0  0  0  0
  3  4  1  0  0  0  0
  3 22  1  0  0  0  0
  3 23  1  0  0  0  0
  4  5  1  0  0  0  0
  4 24  1  0  0  0  0
  5  6  2  0  0  0  0
  5  7  1  0  0  0  0
  7  8  1  0  0  0  0
  7 25  1  0  0  0  0
  8 12  1  0  0  0  0
  8  9  2  0  0  0  0
  9 10  1  0  0  0  0
 10 11  2  0  0  0  0
 11 12  1  0  0  0  0
 11 26  1  0  0  0  0
 13 17  1  0  0  0  0
 13 14  1  0  0  0  0
 13 35  1  0  0  0  0
 14 15  1  0  0  0  0
 14 27  1  0  0  0  0
 14 28  1  0  0  0  0
 15 16  1  0  0  0  0
 15 29  1  0  0  0  0
 15 30  1  0  0  0  0
 16 17  1  0  0  0  0
 16 31  1  0  0  0  0
 16 32  1  0  0  0  0
 17 33  1  0  0  0  0
 17 34  1  0  0  0  0
M  CHG  1  13   1
M  END
> <s_m_source_file>
AV-unprocessed.smi

> <i_m_source_file_index>
1522

> <i_lp_mmshare_version>
43012

> <i_f3d_flags>
0

> <s_epik_input>
W0NIMl0xW0NIMl1bQ0gyXVtDSDJdTjFbQ0BIXShbQ0gzXSlbQ0gyXVtOSF1DKD1PKVtOSF1jMm5uW2NIXXMy

> <s_epik_cmdline>
J2VwaWtfcHl0aG9uJywgJy1waCcsICc3LjAnLCAnLXRuJywgJzgnLCAnLW1hJywgJzIwMCcsICctbWV0YWxfYmluZGluZycsICctaW1hZScsICc8aW5maWxlLm1hZT4nLCAnLW9tYWUnLCAnPG91dGZpbGUubWFlPic=

> <r_lp_tautomer_probability>
1

> <r_epik_Ionization_Penalty>
0.00457064

> <r_epik_Ionization_Penalty_Charging>
0.000848324

> <r_epik_Ionization_Penalty_Neutral>
0.00372231

> <r_epik_State_Penalty>
-0

> <r_epik_Charging_Adjusted_Penalty>
0.000848324

> <i_epik_Tot_Q>
1

> <i_epik_Tot_abs_Q>
1

> <r_epik_Metal_State_Penalty>
0.370178

> <b_epik_Metal_Only>
0

> <s_lp_Force_Field>
OPLS_2005

> <r_lp_Energy>
30.6198

> <b_lp_Chiralities_Consistent>
1

> <s_lp_Variant>
AV-unprocessed.smi:1522-2

> <Gold.Version>
5.8.1

> <Gold.Id.Protein>
6NUR|6NUR_protein|mol2

> <Gold.PLP.Fitness>
36.1030

> <Gold.PLP.PLP>
-24.9412

> <Gold.PLP.part.hbond>
-3.0000

> <Gold.PLP.part.metal>
0.0000

> <Gold.PLP.part.buried>
-0.9068

> <Gold.PLP.part.nonpolar>
-21.6104

> <Gold.PLP.part.repulsive>
0.3392

> <Gold.PLP.ligand.clash>
0.0000

> <Gold.PLP.ligand.torsion>
0.4265

> <Gold.PLP.Chemscore.Hbond>
3.9920

> <Gold.PLP.Chemscore.CHOScore>
0.0000

> <Gold.PLP.Chemscore.Metal>
0.0000

> <Gold.Chemscore.Hbonds>
donor molecule, donor type, donor heavy atom, donor atom, acceptor molecule, acceptor atom, score
      L1  H     4    24       P1 10175  1.00
      L1  H     7    25       P1 10175  0.99
      L1  H    13    35       P1  7948  2.00

> <Gold.PLP.Chemscore.Internal.Correction>
0.0389

> <Gold.Rescore>
     Score         DG    S(hbond)    S(metal)    S(lipo)     H(rot)  DE(clash)    DE(int)     intcor
     14.88     -16.76       2.93        0.00      50.08       1.70       0.29       1.59       ----

> <Gold.Chemscore.Fitness>
14.8757

> <Gold.Chemscore.DG>
-16.7567

> <Gold.Chemscore.ZeroCoef>
-5.4800

> <Gold.Chemscore.Hbond>
2.9271

> <Gold.Chemscore.Metal>
0.0000

> <Gold.Chemscore.Lipo>
50.0802

> <Gold.Chemscore.Internal_Hbond>
0.0000

> <Gold.Chemscore.DEClash>
0.2949

> <Gold.Chemscore.DEInternal>
1.5861

> <Gold.Chemscore.Rot>
1.7028

> <Gold.Chemscore.Internal.Correction>
   9.000000E+99

> <Gold.Chemscore.Hbonds>
donor molecule, donor type, donor heavy atom, donor atom, acceptor molecule, acceptor atom, score
      L1  H     4    24       P1 10175  0.98
      L1  H     7    25       P1 10175  0.93
      L1  H    13    35       P1  7948  1.00

> <Gold.Chemscore.Hbond.Weighted>
-9.7765

> <Gold.Chemscore.Metal.Weighted>
-0.0000

> <Gold.Chemscore.Lipo.Weighted>
-5.8594

> <Gold.Chemscore.Internal_Hbond.Weighted>
0.0000

> <Gold.Chemscore.DEClash.Weighted>
0.2949

> <Gold.Chemscore.DEInternal.Weighted>
1.5861

> <Gold.Chemscore.Rot.Weighted>
4.3592

> <Gold.Chemscore.Internal.Correction.Weighted>
   9.000000E+99

> <Gold.Protein.RotatedTorsions>
[ 6907 6896 6895 6894 ] final   24.24 input  -60.11 | X-H torsion
[ 7974 7965 7964 7962 ] final   35.35 input  175.53 | X-H torsion
[ 8008 7997 7996 7995 ] final   85.35 input   59.86 | X-H torsion
[ 10167 10162 10161 10158 ] final  -88.31 input  -65.29 | X-H torsion
[ 10718 10713 10712 10709 ] final   -8.51 input   66.30 | X-H torsion
[ 10763 10752 10751 10750 ] final  119.25 input  -60.55 | X-H torsion
[ 11005 11000 10999 10996 ] final -143.10 input  -57.11 | X-H torsion

> <Gold.Protein.ActiveResidues>
 VAL166  LYS551  ARG553  GLY616  TRP617  ASP618  TYR619  PRO620  LYS621  CYS622 
 ASP623  PHE694  ASN695  SER759  ASP760  ASP761  ALA762  ILE779  LEU786  VAL792 
 PHE793  MET794  SER795  GLU796  ALA797  LYS798  CYS799  TRP800  GLU811  SER814 

> <Gold.Protein.RotatedAtoms>
  151.9544  135.0153  160.0543 H   0  0  0  0  0  0  0  0  0  0  0  0  # atno 6907 bound_to 6896
  152.1924  133.4778  159.5023 H   0  0  0  0  0  0  0  0  0  0  0  0  # atno 6908 bound_to 6896
  150.6938  134.1613  159.4220 H   0  0  0  0  0  0  0  0  0  0  0  0  # atno 6909 bound_to 6896
  146.1289  139.6153  142.9240 H   0  0  0  0  0  0  0  0  0  0  0  0  # atno 7974 bound_to 7965
  155.9489  140.3402  155.6391 H   0  0  0  0  0  0  0  0  0  0  0  0  # atno 8008 bound_to 7997
  155.6945  140.0753  157.2453 H   0  0  0  0  0  0  0  0  0  0  0  0  # atno 8009 bound_to 7997
  154.4117  140.1651  156.2110 H   0  0  0  0  0  0  0  0  0  0  0  0  # atno 8010 bound_to 7997
  140.3759  143.2772  151.9443 H   0  0  0  0  0  0  0  0  0  0  0  0  # atno 10167 bound_to 10162
  156.7016  130.5095  149.5916 H   0  0  0  0  0  0  0  0  0  0  0  0  # atno 10718 bound_to 10713
  153.5801  135.3485  155.2871 H   0  0  0  0  0  0  0  0  0  0  0  0  # atno 10763 bound_to 10752
  154.8669  135.4180  154.2630 H   0  0  0  0  0  0  0  0  0  0  0  0  # atno 10764 bound_to 10752
  153.3415  135.7050  153.6934 H   0  0  0  0  0  0  0  0  0  0  0  0  # atno 10765 bound_to 10752
  140.8159  134.2689  157.4921 H   0  0  0  0  0  0  0  0  0  0  0  0  # atno 11005 bound_to 11000
  145.5304  141.0427  143.2386 LP  0  0  0  0  0  0  0  0  0  0  0  0  # atno 17320 bound_to 7965
  144.7670  139.6822  143.7210 LP  0  0  0  0  0  0  0  0  0  0  0  0  # atno 17321 bound_to 7965
  139.4799  144.5864  151.7847 LP  0  0  0  0  0  0  0  0  0  0  0  0  # atno 17342 bound_to 10162
  140.4986  144.1203  150.5966 LP  0  0  0  0  0  0  0  0  0  0  0  0  # atno 17343 bound_to 10162
  156.1725  130.6446  151.0854 LP  0  0  0  0  0  0  0  0  0  0  0  0  # atno 17370 bound_to 10713
  157.6971  131.0790  150.6936 LP  0  0  0  0  0  0  0  0  0  0  0  0  # atno 17371 bound_to 10713
  139.8711  134.9508  156.4067 LP  0  0  0  0  0  0  0  0  0  0  0  0  # atno 17394 bound_to 11000
  140.9150  133.7685  155.9837 LP  0  0  0  0  0  0  0  0  0  0  0  0  # atno 17395 bound_to 11000

$$$$
