AV-unprocessed.smi:3032|AV-procd|sdf|11562|dock7
  -GOLD-   2272016533D 1   1.00000     0.00000
 Structure written by MMmdl.
 37 38  0  0  0  0  0  0  0  0  1 V2000
  153.2914  141.4982  160.6938 C   0  0  0  0  0  0  0  0  0  0  0  0
  152.3652  142.3553  159.8196 C   0  0  1  0  0  0  0  0  0  0  0  0
  153.0202  143.7012  159.4554 C   0  0  0  0  0  0  0  0  0  0  0  0
  152.0980  144.5559  158.5718 C   0  0  0  0  0  0  0  0  0  0  0  0
  151.6795  143.7946  157.3043 C   0  0  0  0  0  0  0  0  0  0  0  0
  151.0083  142.4508  157.6560 C   0  0  1  0  0  0  0  0  0  0  0  0
  150.6209  141.6766  156.3897 C   0  0  0  0  0  0  0  0  0  0  0  0
  151.1126  140.5699  156.1659 O   0  0  0  0  0  0  0  0  0  0  0  0
  149.7168  142.2583  155.5850 N   0  0  0  0  0  0  0  0  0  0  0  0
  149.1277  141.6505  154.3934 C   0  0  0  0  0  0  0  0  0  0  0  0
  147.8930  140.7879  154.7241 C   0  0  0  0  0  0  0  0  0  0  0  0
  147.4639  139.8910  153.6058 C   0  0  0  0  0  0  0  0  0  0  0  0
  147.6184  138.5684  153.6858 N   0  0  0  0  0  0  0  0  0  0  0  0
  147.0522  138.1476  152.5343 N   0  0  0  0  0  0  0  0  0  0  0  0
  146.6072  139.2079  151.8622 C   0  0  0  0  0  0  0  0  0  0  0  0
  146.8335  140.3574  152.4832 N   0  0  0  0  0  0  0  0  0  0  0  0
  151.9416  141.6006  158.5448 C   0  0  0  0  0  0  0  0  0  0  0  0
  154.2117  141.2445  160.1665 H   0  0  0  0  0  0  0  0  0  0  0  0
  152.8060  140.5653  160.9823 H   0  0  0  0  0  0  0  0  0  0  0  0
  153.5658  142.0236  161.6088 H   0  0  0  0  0  0  0  0  0  0  0  0
  151.4660  142.5650  160.4009 H   0  0  0  0  0  0  0  0  0  0  0  0
  153.2713  144.2525  160.3621 H   0  0  0  0  0  0  0  0  0  0  0  0
  153.9606  143.5239  158.9317 H   0  0  0  0  0  0  0  0  0  0  0  0
  151.2104  144.8416  159.1376 H   0  0  0  0  0  0  0  0  0  0  0  0
  152.6018  145.4833  158.2983 H   0  0  0  0  0  0  0  0  0  0  0  0
  150.9988  144.4123  156.7168 H   0  0  0  0  0  0  0  0  0  0  0  0
  152.5593  143.6263  156.6810 H   0  0  0  0  0  0  0  0  0  0  0  0
  150.0993  142.6624  158.2221 H   0  0  0  0  0  0  0  0  0  0  0  0
  149.3692  143.1690  155.8486 H   0  0  0  0  0  0  0  0  0  0  0  0
  148.8421  142.4487  153.7083 H   0  0  0  0  0  0  0  0  0  0  0  0
  149.8661  141.0482  153.8619 H   0  0  0  0  0  0  0  0  0  0  0  0
  148.1035  140.1738  155.6008 H   0  0  0  0  0  0  0  0  0  0  0  0
  147.0591  141.4335  155.0018 H   0  0  0  0  0  0  0  0  0  0  0  0
  146.1072  139.1383  150.9073 H   0  0  0  0  0  0  0  0  0  0  0  0
  152.8321  141.3119  157.9834 H   0  0  0  0  0  0  0  0  0  0  0  0
  151.4407  140.6717  158.8213 H   0  0  0  0  0  0  0  0  0  0  0  0
  146.9923  137.1752  152.2679 H   0  0  0  0  0  0  0  0  0  0  0  0
  1  2  1  0  0  0  0
  1 18  1  0  0  0  0
  1 19  1  0  0  0  0
  1 20  1  0  0  0  0
  2 17  1  0  0  0  0
  2  3  1  0  0  0  0
  2 21  1  0  0  0  0
  3  4  1  0  0  0  0
  3 22  1  0  0  0  0
  3 23  1  0  0  0  0
  4  5  1  0  0  0  0
  4 24  1  0  0  0  0
  4 25  1  0  0  0  0
  5  6  1  0  0  0  0
  5 26  1  0  0  0  0
  5 27  1  0  0  0  0
  6  7  1  0  0  0  0
  6 17  1  0  0  0  0
  6 28  1  0  0  0  0
  7  8  2  0  0  0  0
  7  9  1  0  0  0  0
  9 10  1  0  0  0  0
  9 29  1  0  0  0  0
 10 11  1  0  0  0  0
 10 30  1  0  0  0  0
 10 31  1  0  0  0  0
 11 32  1  0  0  0  0
 11 33  1  0  0  0  0
 11 12  1  0  0  0  0
 12 16  1  0  0  0  0
 12 13  2  0  0  0  0
 13 14  1  0  0  0  0
 14 15  1  0  0  0  0
 14 37  1  0  0  0  0
 15 16  2  0  0  0  0
 15 34  1  0  0  0  0
 17 35  1  0  0  0  0
 17 36  1  0  0  0  0
M  END
> <s_m_source_file>
AV-unprocessed.smi

> <i_m_source_file_index>
3032

> <i_lp_mmshare_version>
43012

> <i_f3d_flags>
0

> <s_epik_input>
W0NIM11bQ0BASF0xW0NIMl1bQ0gyXVtDSDJdW0NASF0oW0NIMl0xKUMoPU8pW05IXVtDSDJdW0NIMl1jMm5uW2NIXVtuSF0y

> <s_epik_cmdline>
J2VwaWtfcHl0aG9uJywgJy1waCcsICc3LjAnLCAnLXRuJywgJzgnLCAnLW1hJywgJzIwMCcsICctbWV0YWxfYmluZGluZycsICctaW1hZScsICc8aW5maWxlLm1hZT4nLCAnLW9tYWUnLCAnPG91dGZpbGUubWFlPic=

> <r_epik_Ionization_Penalty>
0.000752022

> <r_epik_Ionization_Penalty_Charging>
0

> <r_epik_Ionization_Penalty_Neutral>
0.000752022

> <r_epik_State_Penalty>
0.639926

> <r_epik_Charging_Adjusted_Penalty>
0.639926

> <i_epik_Tot_Q>
0

> <i_epik_Tot_abs_Q>
0

> <r_epik_Metal_State_Penalty>
0.76532

> <b_epik_Metal_Only>
0

> <s_lp_Force_Field>
OPLS_2005

> <r_lp_Energy>
8.74502

> <b_lp_Chiralities_Consistent>
1

> <s_lp_Variant>
AV-unprocessed.smi:3032-6

> <Gold.Version>
5.8.1

> <Gold.Id.Protein>
6NUR|6NUR_protein|mol2

> <Gold.PLP.Fitness>
44.7820

> <Gold.PLP.PLP>
-38.5743

> <Gold.PLP.part.hbond>
-2.0000

> <Gold.PLP.part.metal>
0.0000

> <Gold.PLP.part.buried>
-3.8826

> <Gold.PLP.part.nonpolar>
-35.1529

> <Gold.PLP.part.repulsive>
0.8507

> <Gold.PLP.ligand.clash>
0.0000

> <Gold.PLP.ligand.torsion>
0.3856

> <Gold.PLP.Chemscore.Hbond>
1.3200

> <Gold.PLP.Chemscore.CHOScore>
1.0000

> <Gold.PLP.Chemscore.Metal>
0.0000

> <Gold.Chemscore.Hbonds>
donor molecule, donor type, donor heavy atom, donor atom, acceptor molecule, acceptor atom, score
      L1  H     9    29       P1  8028  1.00
      L1  H    14    37       P1  7948  0.17
      L1  C    15    34       P1 10171  1.00

> <Gold.PLP.Chemscore.Internal.Correction>
0.0189

> <Gold.Rescore>
     Score         DG    S(hbond)    S(metal)    S(lipo)     H(rot)  DE(clash)    DE(int)     intcor
     14.26     -14.76       1.26        0.00      92.68       2.25       0.20       0.30       ----

> <Gold.Chemscore.Fitness>
14.2576

> <Gold.Chemscore.DG>
-14.7573

> <Gold.Chemscore.ZeroCoef>
-5.4800

> <Gold.Chemscore.Hbond>
1.2556

> <Gold.Chemscore.Metal>
0.0000

> <Gold.Chemscore.Lipo>
92.6817

> <Gold.Chemscore.Internal_Hbond>
0.0000

> <Gold.Chemscore.DEClash>
0.2043

> <Gold.Chemscore.DEInternal>
0.2953

> <Gold.Chemscore.Rot>
2.2501

> <Gold.Chemscore.Internal.Correction>
   9.000000E+99

> <Gold.Chemscore.Hbonds>
donor molecule, donor type, donor heavy atom, donor atom, acceptor molecule, acceptor atom, score
      L1  H     9    29       P1  8028  0.99
      L1  H    14    37       P1  7948  0.16

> <Gold.Chemscore.Hbond.Weighted>
-4.1939

> <Gold.Chemscore.Metal.Weighted>
-0.0000

> <Gold.Chemscore.Lipo.Weighted>
-10.8438

> <Gold.Chemscore.Internal_Hbond.Weighted>
0.0000

> <Gold.Chemscore.DEClash.Weighted>
0.2043

> <Gold.Chemscore.DEInternal.Weighted>
0.2953

> <Gold.Chemscore.Rot.Weighted>
5.7603

> <Gold.Chemscore.Internal.Correction.Weighted>
   9.000000E+99

> <Gold.Protein.RotatedTorsions>
[ 6907 6896 6895 6894 ] final   77.41 input  -60.11 | X-H torsion
[ 7974 7965 7964 7962 ] final  108.23 input  175.53 | X-H torsion
[ 8008 7997 7996 7995 ] final  -21.98 input   59.86 | X-H torsion
[ 10167 10162 10161 10158 ] final  143.63 input  -65.29 | X-H torsion
[ 10718 10713 10712 10709 ] final -128.51 input   66.30 | X-H torsion
[ 10763 10752 10751 10750 ] final   24.87 input  -60.55 | X-H torsion
[ 11005 11000 10999 10996 ] final  -38.64 input  -57.11 | X-H torsion

> <Gold.Protein.ActiveResidues>
 VAL166  LYS551  ARG553  GLY616  TRP617  ASP618  TYR619  PRO620  LYS621  CYS622 
 ASP623  PHE694  ASN695  SER759  ASP760  ASP761  ALA762  ILE779  LEU786  VAL792 
 PHE793  MET794  SER795  GLU796  ALA797  LYS798  CYS799  TRP800  GLU811  SER814 

> <Gold.Protein.RotatedAtoms>
  152.5116  134.3821  159.9354 H   0  0  0  0  0  0  0  0  0  0  0  0  # atno 6907 bound_to 6896
  151.3778  133.3826  159.2714 H   0  0  0  0  0  0  0  0  0  0  0  0  # atno 6908 bound_to 6896
  150.9528  134.8946  159.7741 H   0  0  0  0  0  0  0  0  0  0  0  0  # atno 6909 bound_to 6896
  145.2834  139.2625  143.3903 H   0  0  0  0  0  0  0  0  0  0  0  0  # atno 7974 bound_to 7965
  154.4672  140.2020  156.0088 H   0  0  0  0  0  0  0  0  0  0  0  0  # atno 8008 bound_to 7997
  156.0948  140.3253  155.7834 H   0  0  0  0  0  0  0  0  0  0  0  0  # atno 8009 bound_to 7997
  155.4897  140.0545  157.2946 H   0  0  0  0  0  0  0  0  0  0  0  0  # atno 8010 bound_to 7997
  139.4965  144.6027  151.6445 H   0  0  0  0  0  0  0  0  0  0  0  0  # atno 10167 bound_to 10162
  156.1958  130.6825  151.0479 H   0  0  0  0  0  0  0  0  0  0  0  0  # atno 10718 bound_to 10713
  153.0733  135.6596  154.0201 H   0  0  0  0  0  0  0  0  0  0  0  0  # atno 10763 bound_to 10752
  153.9841  135.2952  155.3419 H   0  0  0  0  0  0  0  0  0  0  0  0  # atno 10764 bound_to 10752
  154.7113  135.5204  153.8741 H   0  0  0  0  0  0  0  0  0  0  0  0  # atno 10765 bound_to 10752
  141.0042  133.6940  156.2080 H   0  0  0  0  0  0  0  0  0  0  0  0  # atno 11005 bound_to 11000
  146.3209  140.3307  142.8640 LP  0  0  0  0  0  0  0  0  0  0  0  0  # atno 17320 bound_to 7965
  144.9234  140.7893  143.5734 LP  0  0  0  0  0  0  0  0  0  0  0  0  # atno 17321 bound_to 7965
  140.5681  144.0155  150.6203 LP  0  0  0  0  0  0  0  0  0  0  0  0  # atno 17342 bound_to 10162
  140.3263  143.3105  152.0733 LP  0  0  0  0  0  0  0  0  0  0  0  0  # atno 17343 bound_to 10162
  157.6956  131.0795  150.6977 LP  0  0  0  0  0  0  0  0  0  0  0  0  # atno 17370 bound_to 10713
  156.7034  130.4630  149.5566 LP  0  0  0  0  0  0  0  0  0  0  0  0  # atno 17371 bound_to 10713
  140.6839  134.4737  157.5589 LP  0  0  0  0  0  0  0  0  0  0  0  0  # atno 17394 bound_to 11000
  139.9055  134.8460  156.1725 LP  0  0  0  0  0  0  0  0  0  0  0  0  # atno 17395 bound_to 11000

$$$$
