AV-unprocessed.smi:2229|AV-procd|sdf|9034|dock10
  -GOLD-   2272012243D 1   1.00000     0.00000
 Structure written by MMmdl.
 43 44  0  0  0  0  0  0  0  0  2 V2000
  153.4202  143.3690  159.1883 C   0  0  0  0  0  0  0  0  0  0  0  0
  152.1168  144.1732  159.0441 C   0  0  0  0  0  0  0  0  0  0  0  0
  151.8125  144.9324  160.3447 C   0  0  0  0  0  0  0  0  0  0  0  0
  150.9190  143.2914  158.6349 C   0  0  0  0  0  0  0  0  0  0  0  0
  151.0611  142.6435  157.2454 C   0  0  0  0  0  0  0  0  0  0  0  0
  149.9845  141.5811  156.9536 C   0  0  1  0  0  0  0  0  0  0  0  0
  148.5546  142.1393  156.9171 C   0  0  0  0  0  0  0  0  0  0  0  0
  147.7910  141.1777  156.0140 C   0  0  0  0  0  0  0  0  0  0  0  0
  148.7971  140.8299  154.9195 C   0  0  0  0  0  0  0  0  0  0  0  0
  150.1803  140.8666  155.5935 C   0  0  2  0  0  0  0  0  0  0  0  0
  150.6774  139.5073  155.7800 N   0  0  0  0  0  0  0  0  0  0  0  0
  151.8907  139.0552  155.4214 C   0  0  0  0  0  0  0  0  0  0  0  0
  152.7224  139.7581  154.8489 O   0  0  0  0  0  0  0  0  0  0  0  0
  152.2458  137.5942  155.7466 C   0  0  0  0  0  0  0  0  0  0  0  0
  152.4785  137.3158  157.1687 N   0  0  0  0  0  0  0  0  0  0  0  0
  152.3038  138.2571  158.1521 C   0  0  0  0  0  0  0  0  0  0  0  0
  152.5864  137.7679  159.3058 N   0  0  0  0  0  0  0  0  0  0  0  0
  152.9748  136.4078  159.0853 N   0  5  0  0  0  0  0  0  0  0  0  0
  152.8855  136.1885  157.7550 C   0  0  0  0  0  0  0  0  0  0  0  0
  153.1313  135.1565  157.1324 O   0  0  0  0  0  0  0  0  0  0  0  0
  153.3142  142.5709  159.9236 H   0  0  0  0  0  0  0  0  0  0  0  0
  154.2410  144.0096  159.5118 H   0  0  0  0  0  0  0  0  0  0  0  0
  153.7233  142.9165  158.2446 H   0  0  0  0  0  0  0  0  0  0  0  0
  152.2691  144.9197  158.2635 H   0  0  0  0  0  0  0  0  0  0  0  0
  151.6487  144.2449  161.1752 H   0  0  0  0  0  0  0  0  0  0  0  0
  150.9194  145.5493  160.2425 H   0  0  0  0  0  0  0  0  0  0  0  0
  152.6361  145.5930  160.6174 H   0  0  0  0  0  0  0  0  0  0  0  0
  150.7596  142.5167  159.3863 H   0  0  0  0  0  0  0  0  0  0  0  0
  150.0178  143.9052  158.6406 H   0  0  0  0  0  0  0  0  0  0  0  0
  151.0376  143.4132  156.4730 H   0  0  0  0  0  0  0  0  0  0  0  0
  152.0384  142.1687  157.1709 H   0  0  0  0  0  0  0  0  0  0  0  0
  150.0175  140.8321  157.7478 H   0  0  0  0  0  0  0  0  0  0  0  0
  148.1099  142.2163  157.9097 H   0  0  0  0  0  0  0  0  0  0  0  0
  148.5479  143.1354  156.4723 H   0  0  0  0  0  0  0  0  0  0  0  0
  147.5265  140.2782  156.5718 H   0  0  0  0  0  0  0  0  0  0  0  0
  146.8719  141.6105  155.6185 H   0  0  0  0  0  0  0  0  0  0  0  0
  148.5712  139.8759  154.4407 H   0  0  0  0  0  0  0  0  0  0  0  0
  148.7574  141.5942  154.1423 H   0  0  0  0  0  0  0  0  0  0  0  0
  150.8633  141.4241  154.9496 H   0  0  0  0  0  0  0  0  0  0  0  0
  150.0607  138.8603  156.2510 H   0  0  0  0  0  0  0  0  0  0  0  0
  151.4507  136.9527  155.3627 H   0  0  0  0  0  0  0  0  0  0  0  0
  153.1433  137.3278  155.1864 H   0  0  0  0  0  0  0  0  0  0  0  0
  151.9692  139.2641  157.8970 H   0  0  0  0  0  0  0  0  0  0  0  0
  1  2  1  0  0  0  0
  1 21  1  0  0  0  0
  1 22  1  0  0  0  0
  1 23  1  0  0  0  0
  2  3  1  0  0  0  0
  2  4  1  0  0  0  0
  2 24  1  0  0  0  0
  3 25  1  0  0  0  0
  3 26  1  0  0  0  0
  3 27  1  0  0  0  0
  4  5  1  0  0  0  0
  4 28  1  0  0  0  0
  4 29  1  0  0  0  0
  5  6  1  0  0  0  0
  5 30  1  0  0  0  0
  5 31  1  0  0  0  0
  6 10  1  0  0  0  0
  6  7  1  0  0  0  0
  6 32  1  0  0  0  0
  7  8  1  0  0  0  0
  7 33  1  0  0  0  0
  7 34  1  0  0  0  0
  8  9  1  0  0  0  0
  8 35  1  0  0  0  0
  8 36  1  0  0  0  0
  9 10  1  0  0  0  0
  9 37  1  0  0  0  0
  9 38  1  0  0  0  0
 10 11  1  0  0  0  0
 10 39  1  0  0  0  0
 11 12  1  0  0  0  0
 11 40  1  0  0  0  0
 12 13  2  0  0  0  0
 12 14  1  0  0  0  0
 14 15  1  0  0  0  0
 14 41  1  0  0  0  0
 14 42  1  0  0  0  0
 15 19  1  0  0  0  0
 15 16  1  0  0  0  0
 16 17  2  0  0  0  0
 16 43  1  0  0  0  0
 17 18  1  0  0  0  0
 18 19  1  0  0  0  0
 19 20  2  0  0  0  0
M  CHG  1  18  -1
M  END
> <s_m_source_file>
AV-unprocessed.smi

> <i_m_source_file_index>
2229

> <i_lp_mmshare_version>
43012

> <i_f3d_flags>
0

> <s_epik_input>
W0NIM11bQ0hdKFtDSDNdKVtDSDJdW0NIMl1bQ0BASF0xW0NIMl1bQ0gyXVtDSDJdW0NASF0xW05IXUMoPU8pW0NIMl1uMltjSF1uW25IXWMyPU8=

> <s_epik_cmdline>
J2VwaWtfcHl0aG9uJywgJy1waCcsICc3LjAnLCAnLXRuJywgJzgnLCAnLW1hJywgJzIwMCcsICctbWV0YWxfYmluZGluZycsICctaW1hZScsICc8aW5maWxlLm1hZT4nLCAnLW9tYWUnLCAnPG91dGZpbGUubWFlPic=

> <r_lp_tautomer_probability>
1

> <r_epik_Ionization_Penalty>
13.6733

> <r_epik_Ionization_Penalty_Charging>
13.6725

> <r_epik_Ionization_Penalty_Neutral>
0.000837689

> <r_epik_State_Penalty>
5.67062

> <r_epik_Charging_Adjusted_Penalty>
19.3431

> <i_epik_Tot_Q>
-1

> <i_epik_Tot_abs_Q>
1

> <r_epik_Metal_State_Penalty>
1.61781

> <b_epik_Metal_Only>
1

> <s_lp_Force_Field>
OPLS_2005

> <r_lp_Energy>
24.9867

> <b_lp_Chiralities_Consistent>
1

> <s_lp_Variant>
AV-unprocessed.smi:2229-8

> <Gold.Version>
5.8.1

> <Gold.Id.Protein>
6NUR|6NUR_protein|mol2

> <Gold.PLP.Fitness>
46.6449

> <Gold.PLP.PLP>
-33.9090

> <Gold.PLP.part.hbond>
-4.0000

> <Gold.PLP.part.metal>
0.0000

> <Gold.PLP.part.buried>
-2.4038

> <Gold.PLP.part.nonpolar>
-28.9732

> <Gold.PLP.part.repulsive>
0.1059

> <Gold.PLP.ligand.clash>
0.0000

> <Gold.PLP.ligand.torsion>
0.2696

> <Gold.PLP.Chemscore.Hbond>
4.4160

> <Gold.PLP.Chemscore.CHOScore>
0.0000

> <Gold.PLP.Chemscore.Metal>
0.0000

> <Gold.Chemscore.Hbonds>
donor molecule, donor type, donor heavy atom, donor atom, acceptor molecule, acceptor atom, score
      P1  H  6896  6907       L1    18  1.82
      P1  H  7989  7998       L1    13  0.51
      P1  H  7997  8009       L1    13  0.93
      P1  H 10752 10764       L1    20  1.00

> <Gold.PLP.Chemscore.Internal.Correction>
0.0271

> <Gold.Rescore>
     Score         DG    S(hbond)    S(metal)    S(lipo)     H(rot)  DE(clash)    DE(int)     intcor
     18.06     -18.42       2.89        0.00      84.70       2.59       0.04       0.32       ----

> <Gold.Chemscore.Fitness>
18.0603

> <Gold.Chemscore.DG>
-18.4175

> <Gold.Chemscore.ZeroCoef>
-5.4800

> <Gold.Chemscore.Hbond>
2.8947

> <Gold.Chemscore.Metal>
0.0000

> <Gold.Chemscore.Lipo>
84.6995

> <Gold.Chemscore.Internal_Hbond>
0.0000

> <Gold.Chemscore.DEClash>
0.0354

> <Gold.Chemscore.DEInternal>
0.3218

> <Gold.Chemscore.Rot>
2.5939

> <Gold.Chemscore.Internal.Correction>
   9.000000E+99

> <Gold.Chemscore.Hbonds>
donor molecule, donor type, donor heavy atom, donor atom, acceptor molecule, acceptor atom, score
      P1  H  6896  6907       L1    18  0.64
      P1  H  7989  7998       L1    13  0.26
      P1  H  7997  8009       L1    13  0.82
      P1  H 10752 10764       L1    20  0.91

> <Gold.Chemscore.Hbond.Weighted>
-9.6681

> <Gold.Chemscore.Metal.Weighted>
-0.0000

> <Gold.Chemscore.Lipo.Weighted>
-9.9098

> <Gold.Chemscore.Internal_Hbond.Weighted>
0.0000

> <Gold.Chemscore.DEClash.Weighted>
0.0354

> <Gold.Chemscore.DEInternal.Weighted>
0.3218

> <Gold.Chemscore.Rot.Weighted>
6.6405

> <Gold.Chemscore.Internal.Correction.Weighted>
   9.000000E+99

> <Gold.Protein.RotatedTorsions>
[ 6907 6896 6895 6894 ] final   31.42 input  -60.11 | X-H torsion
[ 7974 7965 7964 7962 ] final   34.99 input  175.53 | X-H torsion
[ 8008 7997 7996 7995 ] final -137.95 input   59.86 | X-H torsion
[ 10167 10162 10161 10158 ] final  176.53 input  -65.29 | X-H torsion
[ 10718 10713 10712 10709 ] final   22.40 input   66.30 | X-H torsion
[ 10763 10752 10751 10750 ] final   -7.76 input  -60.55 | X-H torsion
[ 11005 11000 10999 10996 ] final   30.35 input  -57.11 | X-H torsion

> <Gold.Protein.ActiveResidues>
 VAL166  LYS551  ARG553  GLY616  TRP617  ASP618  TYR619  PRO620  LYS621  CYS622 
 ASP623  PHE694  ASN695  SER759  ASP760  ASP761  ALA762  ILE779  LEU786  VAL792 
 PHE793  MET794  SER795  GLU796  ALA797  LYS798  CYS799  TRP800  GLU811  SER814 

> <Gold.Protein.RotatedAtoms>
  152.0600  134.9600  160.0574 H   0  0  0  0  0  0  0  0  0  0  0  0  # atno 6907 bound_to 6896
  152.0967  133.4224  159.4577 H   0  0  0  0  0  0  0  0  0  0  0  0  # atno 6908 bound_to 6896
  150.6838  134.2727  159.4638 H   0  0  0  0  0  0  0  0  0  0  0  0  # atno 6909 bound_to 6896
  146.1314  139.6199  142.9224 H   0  0  0  0  0  0  0  0  0  0  0  0  # atno 7974 bound_to 7965
  155.4203  140.0518  157.3026 H   0  0  0  0  0  0  0  0  0  0  0  0  # atno 8008 bound_to 7997
  154.4906  140.2118  155.9517 H   0  0  0  0  0  0  0  0  0  0  0  0  # atno 8009 bound_to 7997
  156.1336  140.3167  155.8392 H   0  0  0  0  0  0  0  0  0  0  0  0  # atno 8010 bound_to 7997
  139.5218  144.2905  152.0468 H   0  0  0  0  0  0  0  0  0  0  0  0  # atno 10167 bound_to 10162
  157.1518  130.6678  149.6014 H   0  0  0  0  0  0  0  0  0  0  0  0  # atno 10718 bound_to 10713
  153.4308  135.7012  153.6232 H   0  0  0  0  0  0  0  0  0  0  0  0  # atno 10763 bound_to 10752
  153.4647  135.3728  155.2358 H   0  0  0  0  0  0  0  0  0  0  0  0  # atno 10764 bound_to 10752
  154.8725  135.4028  154.3692 H   0  0  0  0  0  0  0  0  0  0  0  0  # atno 10765 bound_to 10752
  140.2953  134.2818  155.7766 H   0  0  0  0  0  0  0  0  0  0  0  0  # atno 11005 bound_to 11000
  145.5251  141.0430  143.2414 LP  0  0  0  0  0  0  0  0  0  0  0  0  # atno 17320 bound_to 7965
  144.7695  139.6768  143.7201 LP  0  0  0  0  0  0  0  0  0  0  0  0  # atno 17321 bound_to 7965
  140.2356  144.4323  150.6281 LP  0  0  0  0  0  0  0  0  0  0  0  0  # atno 17342 bound_to 10162
  140.6325  143.2190  151.6464 LP  0  0  0  0  0  0  0  0  0  0  0  0  # atno 17343 bound_to 10162
  155.9769  130.4742  150.6559 LP  0  0  0  0  0  0  0  0  0  0  0  0  # atno 17370 bound_to 10713
  157.4213  131.0837  151.1128 LP  0  0  0  0  0  0  0  0  0  0  0  0  # atno 17371 bound_to 10713
  141.2138  133.7611  156.9686 LP  0  0  0  0  0  0  0  0  0  0  0  0  # atno 17394 bound_to 11000
  140.1158  134.9448  157.2132 LP  0  0  0  0  0  0  0  0  0  0  0  0  # atno 17395 bound_to 11000

$$$$
