AV-unprocessed.smi:1200|AV-procd|sdf|5025|dock2
  -GOLD-   22720 4 43D 1   1.00000     0.00000
 Structure written by MMmdl.
 42 43  0  0  0  0  0  0  0  0  3 V2000
  152.2875  140.7661  158.3545 C   0  0  0  0  0  0  0  0  0  0  0  0
  152.5014  140.1939  157.0306 N   0  5  0  0  0  0  0  0  0  0  0  0
  151.6140  140.3176  156.0076 C   0  0  0  0  0  0  0  0  0  0  0  0
  151.5050  139.6826  154.9533 O   0  0  0  0  0  0  0  0  0  0  0  0
  150.5969  141.4296  156.2890 C   0  0  0  0  0  0  0  0  0  0  0  0
  149.2583  141.0325  155.7867 N   0  3  2  0  0  0  0  0  0  0  0  0
  148.8575  139.6810  156.2527 C   0  0  0  0  0  0  0  0  0  0  0  0
  147.4086  139.3623  155.8473 C   0  0  0  0  0  0  0  0  0  0  0  0
  147.2152  139.4857  154.3272 C   0  0  1  0  0  0  0  0  0  0  0  0
  145.8117  139.2709  153.9862 N   0  0  0  0  0  0  0  0  0  0  0  0
  145.1674  138.0978  154.0673 C   0  0  0  0  0  0  0  0  0  0  0  0
  145.6984  137.0615  154.4648 O   0  0  0  0  0  0  0  0  0  0  0  0
  143.8889  138.2205  153.6700 N   0  0  0  0  0  0  0  0  0  0  0  0
  142.8750  137.2271  153.5763 C   0  0  0  0  0  0  0  0  0  0  0  0
  141.4837  137.4917  153.5295 C   0  0  0  0  0  0  0  0  0  0  0  0
  140.5874  136.4085  153.4487 C   0  0  0  0  0  0  0  0  0  0  0  0
  141.1107  135.1015  153.4231 C   0  0  0  0  0  0  0  0  0  0  0  0
  142.4320  134.8332  153.4763 N   0  0  0  0  0  0  0  0  0  0  0  0
  143.2852  135.8767  153.5531 C   0  0  0  0  0  0  0  0  0  0  0  0
  147.6812  140.8763  153.8591 C   0  0  0  0  0  0  0  0  0  0  0  0
  149.1222  141.1641  154.3109 C   0  0  0  0  0  0  0  0  0  0  0  0
  153.1097  140.5379  159.0323 H   0  0  0  0  0  0  0  0  0  0  0  0
  151.3813  140.3898  158.8299 H   0  0  0  0  0  0  0  0  0  0  0  0
  152.2024  141.8528  158.3279 H   0  0  0  0  0  0  0  0  0  0  0  0
  150.5443  141.7035  157.3452 H   0  0  0  0  0  0  0  0  0  0  0  0
  150.9470  142.3167  155.7593 H   0  0  0  0  0  0  0  0  0  0  0  0
  149.5394  138.9353  155.8405 H   0  0  0  0  0  0  0  0  0  0  0  0
  148.9439  139.6249  157.3386 H   0  0  0  0  0  0  0  0  0  0  0  0
  147.1470  138.3562  156.1777 H   0  0  0  0  0  0  0  0  0  0  0  0
  146.7317  140.0439  156.3652 H   0  0  0  0  0  0  0  0  0  0  0  0
  147.8265  138.7221  153.8419 H   0  0  0  0  0  0  0  0  0  0  0  0
  145.2961  140.0727  153.6539 H   0  0  0  0  0  0  0  0  0  0  0  0
  143.5936  139.1537  153.4230 H   0  0  0  0  0  0  0  0  0  0  0  0
  141.0806  138.4910  153.5633 H   0  0  0  0  0  0  0  0  0  0  0  0
  139.5213  136.5765  153.4108 H   0  0  0  0  0  0  0  0  0  0  0  0
  140.4502  134.2493  153.3628 H   0  0  0  0  0  0  0  0  0  0  0  0
  144.3345  135.6228  153.5965 H   0  0  0  0  0  0  0  0  0  0  0  0
  147.6181  140.9495  152.7726 H   0  0  0  0  0  0  0  0  0  0  0  0
  147.0176  141.6448  154.2590 H   0  0  0  0  0  0  0  0  0  0  0  0
  149.3967  142.1703  153.9932 H   0  0  0  0  0  0  0  0  0  0  0  0
  149.8139  140.4796  153.8178 H   0  0  0  0  0  0  0  0  0  0  0  0
  148.6071  141.6831  156.2026 H   0  0  0  0  0  0  0  0  0  0  0  0
  1  2  1  0  0  0  0
  1 22  1  0  0  0  0
  1 23  1  0  0  0  0
  1 24  1  0  0  0  0
  2  3  1  0  0  0  0
  3  4  2  0  0  0  0
  3  5  1  0  0  0  0
  5  6  1  0  0  0  0
  5 25  1  0  0  0  0
  5 26  1  0  0  0  0
  6 21  1  0  0  0  0
  6  7  1  0  0  0  0
  6 42  1  0  0  0  0
  7  8  1  0  0  0  0
  7 27  1  0  0  0  0
  7 28  1  0  0  0  0
  8  9  1  0  0  0  0
  8 29  1  0  0  0  0
  8 30  1  0  0  0  0
  9 10  1  0  0  0  0
  9 20  1  0  0  0  0
  9 31  1  0  0  0  0
 10 11  1  0  0  0  0
 10 32  1  0  0  0  0
 11 12  2  0  0  0  0
 11 13  1  0  0  0  0
 13 14  1  0  0  0  0
 13 33  1  0  0  0  0
 14 19  1  0  0  0  0
 14 15  2  0  0  0  0
 15 16  1  0  0  0  0
 15 34  1  0  0  0  0
 16 17  2  0  0  0  0
 16 35  1  0  0  0  0
 17 18  1  0  0  0  0
 17 36  1  0  0  0  0
 18 19  2  0  0  0  0
 19 37  1  0  0  0  0
 20 21  1  0  0  0  0
 20 38  1  0  0  0  0
 20 39  1  0  0  0  0
 21 40  1  0  0  0  0
 21 41  1  0  0  0  0
M  CHG  1   2  -1
M  CHG  1   6   1
M  END
> <s_m_source_file>
AV-unprocessed.smi

> <i_m_source_file_index>
1200

> <i_lp_mmshare_version>
43012

> <i_f3d_flags>
0

> <s_epik_input>
W0NIM11bTkhdQyg9TylbQ0gyXU4xW0NIMl1bQ0gyXVtDSF0oW0NIMl1bQ0gyXTEpW05IXUMoPU8pW05IXWMyW2NIXVtjSF1bY0hdbltjSF0y

> <s_epik_cmdline>
J2VwaWtfcHl0aG9uJywgJy1waCcsICc3LjAnLCAnLXRuJywgJzgnLCAnLW1hJywgJzIwMCcsICctbWV0YWxfYmluZGluZycsICctaW1hZScsICc8aW5maWxlLm1hZT4nLCAnLW9tYWUnLCAnPG91dGZpbGUubWFlPic=

> <r_epik_Ionization_Penalty>
6.14345

> <r_epik_Ionization_Penalty_Charging>
6.13946

> <r_epik_Ionization_Penalty_Neutral>
0.00398477

> <r_epik_State_Penalty>
6.94483

> <r_epik_Charging_Adjusted_Penalty>
13.0843

> <i_epik_Tot_Q>
0

> <i_epik_Tot_abs_Q>
2

> <r_epik_Metal_State_Penalty>
2.87819

> <b_epik_Metal_Only>
1

> <s_lp_Force_Field>
OPLS_2005

> <r_lp_Energy>
13.1486

> <b_lp_Chiralities_Consistent>
1

> <s_lp_Variant>
AV-unprocessed.smi:1200-4

> <Gold.Version>
5.8.1

> <Gold.Id.Protein>
6NUR|6NUR_protein|mol2

> <Gold.PLP.Fitness>
43.4576

> <Gold.PLP.PLP>
-30.3271

> <Gold.PLP.part.hbond>
-4.0000

> <Gold.PLP.part.metal>
0.0000

> <Gold.PLP.part.buried>
-3.6769

> <Gold.PLP.part.nonpolar>
-22.7681

> <Gold.PLP.part.repulsive>
0.3480

> <Gold.PLP.ligand.clash>
0.0000

> <Gold.PLP.ligand.torsion>
0.6604

> <Gold.PLP.Chemscore.Hbond>
4.7930

> <Gold.PLP.Chemscore.CHOScore>
0.0000

> <Gold.PLP.Chemscore.Metal>
0.0000

> <Gold.Chemscore.Hbonds>
donor molecule, donor type, donor heavy atom, donor atom, acceptor molecule, acceptor atom, score
      L1  H    10    32       P1 10175  0.76
      L1  H    13    33       P1 10175  1.00
      P1  H  7989  7998       L1     4  1.00
      P1  H  7997  8008       L1     2  2.00

> <Gold.PLP.Chemscore.Internal.Correction>
0.0723

> <Gold.Rescore>
     Score         DG    S(hbond)    S(metal)    S(lipo)     H(rot)  DE(clash)    DE(int)     intcor
     15.28     -19.82       3.39        0.00      61.65       1.63       0.06       4.49       ----

> <Gold.Chemscore.Fitness>
15.2794

> <Gold.Chemscore.DG>
-19.8226

> <Gold.Chemscore.ZeroCoef>
-5.4800

> <Gold.Chemscore.Hbond>
3.3856

> <Gold.Chemscore.Metal>
0.0000

> <Gold.Chemscore.Lipo>
61.6517

> <Gold.Chemscore.Internal_Hbond>
0.0000

> <Gold.Chemscore.DEClash>
0.0572

> <Gold.Chemscore.DEInternal>
4.4861

> <Gold.Chemscore.Rot>
1.6323

> <Gold.Chemscore.Internal.Correction>
   9.000000E+99

> <Gold.Chemscore.Hbonds>
donor molecule, donor type, donor heavy atom, donor atom, acceptor molecule, acceptor atom, score
      L1  H    10    32       P1 10175  0.72
      L1  H    13    33       P1 10175  0.95
      P1  H  7989  7998       L1     4  0.70
      P1  H  7997  8008       L1     2  0.70

> <Gold.Chemscore.Hbond.Weighted>
-11.3080

> <Gold.Chemscore.Metal.Weighted>
-0.0000

> <Gold.Chemscore.Lipo.Weighted>
-7.2133

> <Gold.Chemscore.Internal_Hbond.Weighted>
0.0000

> <Gold.Chemscore.DEClash.Weighted>
0.0572

> <Gold.Chemscore.DEInternal.Weighted>
4.4861

> <Gold.Chemscore.Rot.Weighted>
4.1786

> <Gold.Chemscore.Internal.Correction.Weighted>
   9.000000E+99

> <Gold.Protein.RotatedTorsions>
[ 6907 6896 6895 6894 ] final   81.94 input  -60.11 | X-H torsion
[ 7974 7965 7964 7962 ] final -152.08 input  175.53 | X-H torsion
[ 8008 7997 7996 7995 ] final  -61.09 input   59.86 | X-H torsion
[ 10167 10162 10161 10158 ] final  138.46 input  -65.29 | X-H torsion
[ 10718 10713 10712 10709 ] final  -53.24 input   66.30 | X-H torsion
[ 10763 10752 10751 10750 ] final   90.66 input  -60.55 | X-H torsion
[ 11005 11000 10999 10996 ] final   -2.35 input  -57.11 | X-H torsion

> <Gold.Protein.ActiveResidues>
 VAL166  LYS551  ARG553  GLY616  TRP617  ASP618  TYR619  PRO620  LYS621  CYS622 
 ASP623  PHE694  ASN695  SER759  ASP760  ASP761  ALA762  ILE779  LEU786  VAL792 
 PHE793  MET794  SER795  GLU796  ALA797  LYS798  CYS799  TRP800  GLU811  SER814 

> <Gold.Protein.RotatedAtoms>
  152.5284  134.3126  159.9118 H   0  0  0  0  0  0  0  0  0  0  0  0  # atno 6907 bound_to 6896
  151.3076  133.4088  159.2652 H   0  0  0  0  0  0  0  0  0  0  0  0  # atno 6908 bound_to 6896
  151.0066  134.9380  159.8041 H   0  0  0  0  0  0  0  0  0  0  0  0  # atno 6909 bound_to 6896
  144.7814  140.4711  143.5836 H   0  0  0  0  0  0  0  0  0  0  0  0  # atno 7974 bound_to 7965
  154.4431  140.1025  156.6377 H   0  0  0  0  0  0  0  0  0  0  0  0  # atno 8008 bound_to 7997
  155.5536  140.3486  155.4456 H   0  0  0  0  0  0  0  0  0  0  0  0  # atno 8009 bound_to 7997
  156.0511  140.1304  157.0038 H   0  0  0  0  0  0  0  0  0  0  0  0  # atno 8010 bound_to 7997
  139.5110  144.6352  151.5715 H   0  0  0  0  0  0  0  0  0  0  0  0  # atno 10167 bound_to 10162
  156.1552  130.4150  149.9880 H   0  0  0  0  0  0  0  0  0  0  0  0  # atno 10718 bound_to 10713
  153.1999  135.4426  155.0253 H   0  0  0  0  0  0  0  0  0  0  0  0  # atno 10763 bound_to 10752
  154.8141  135.3307  154.7228 H   0  0  0  0  0  0  0  0  0  0  0  0  # atno 10764 bound_to 10752
  153.7674  135.6987  153.4968 H   0  0  0  0  0  0  0  0  0  0  0  0  # atno 10765 bound_to 10752
  140.6574  133.9350  155.8416 H   0  0  0  0  0  0  0  0  0  0  0  0  # atno 11005 bound_to 11000
  145.6040  139.1506  143.3113 LP  0  0  0  0  0  0  0  0  0  0  0  0  # atno 17320 bound_to 7965
  146.2024  140.6160  142.9096 LP  0  0  0  0  0  0  0  0  0  0  0  0  # atno 17321 bound_to 7965
  140.6098  143.9457  150.6445 LP  0  0  0  0  0  0  0  0  0  0  0  0  # atno 17342 bound_to 10162
  140.2696  143.3466  152.1250 LP  0  0  0  0  0  0  0  0  0  0  0  0  # atno 17343 bound_to 10162
  156.7726  130.9192  151.3644 LP  0  0  0  0  0  0  0  0  0  0  0  0  # atno 17370 bound_to 10713
  157.6689  130.9033  149.9995 LP  0  0  0  0  0  0  0  0  0  0  0  0  # atno 17371 bound_to 10713
  141.0491  134.0511  157.3806 LP  0  0  0  0  0  0  0  0  0  0  0  0  # atno 17394 bound_to 11000
  139.9025  135.0169  156.7333 LP  0  0  0  0  0  0  0  0  0  0  0  0  # atno 17395 bound_to 11000

$$$$
