AV-unprocessed.smi:2282|AV-procd|sdf|9195|dock2
  -GOLD-   2272012413D 1   1.00000     0.00000
 Structure written by MMmdl.
 32 33  0  0  0  0  0  0  0  0  1 V2000
  151.6762  145.0403  159.2253 C   0  0  0  0  0  0  0  0  0  0  0  0
  152.1726  143.6379  159.5242 C   0  0  0  0  0  0  0  0  0  0  0  0
  152.9794  143.5205  160.6014 N   0  0  0  0  0  0  0  0  0  0  0  0
  153.4553  142.2963  160.9072 C   0  0  0  0  0  0  0  0  0  0  0  0
  153.1492  141.1388  160.1667 C   0  0  0  0  0  0  0  0  0  0  0  0
  152.2903  141.2549  159.0477 C   0  0  0  0  0  0  0  0  0  0  0  0
  151.9340  140.1552  158.2186 N   0  0  0  0  0  0  0  0  0  0  0  0
  152.6748  139.0891  157.8650 C   0  0  0  0  0  0  0  0  0  0  0  0
  153.8347  138.8941  158.2298 O   0  0  0  0  0  0  0  0  0  0  0  0
  151.9708  138.0756  156.9472 C   0  0  2  0  0  0  0  0  0  0  0  0
  152.6113  137.9306  155.5514 C   0  0  0  0  0  0  0  0  0  0  0  0
  151.5145  138.3528  154.5876 C   0  0  0  0  0  0  0  0  0  0  0  0
  150.5972  139.2046  155.4581 C   0  0  1  0  0  0  0  0  0  0  0  0
  149.1570  139.3033  154.9446 C   0  0  0  0  0  0  0  0  0  0  0  0
  150.6392  138.5252  156.7046 O   0  0  0  0  0  0  0  0  0  0  0  0
  151.8022  142.5398  158.7126 C   0  0  0  0  0  0  0  0  0  0  0  0
  150.7669  142.7645  157.3420 Cl  0  0  0  0  0  0  0  0  0  0  0  0
  150.5872  145.0734  159.2649 H   0  0  0  0  0  0  0  0  0  0  0  0
  151.9949  145.3513  158.2302 H   0  0  0  0  0  0  0  0  0  0  0  0
  152.0620  145.7646  159.9439 H   0  0  0  0  0  0  0  0  0  0  0  0
  154.1067  142.2376  161.7663 H   0  0  0  0  0  0  0  0  0  0  0  0
  153.5867  140.1976  160.4612 H   0  0  0  0  0  0  0  0  0  0  0  0
  150.9718  140.1419  157.9124 H   0  0  0  0  0  0  0  0  0  0  0  0
  151.9207  137.1042  157.4417 H   0  0  0  0  0  0  0  0  0  0  0  0
  153.4902  138.5646  155.4263 H   0  0  0  0  0  0  0  0  0  0  0  0
  152.9288  136.9051  155.3589 H   0  0  0  0  0  0  0  0  0  0  0  0
  151.8944  138.8912  153.7189 H   0  0  0  0  0  0  0  0  0  0  0  0
  150.9824  137.4697  154.2313 H   0  0  0  0  0  0  0  0  0  0  0  0
  151.0191  140.2035  155.5798 H   0  0  0  0  0  0  0  0  0  0  0  0
  149.1227  139.7902  153.9697 H   0  0  0  0  0  0  0  0  0  0  0  0
  148.5399  139.8848  155.6299 H   0  0  0  0  0  0  0  0  0  0  0  0
  148.7036  138.3169  154.8438 H   0  0  0  0  0  0  0  0  0  0  0  0
  1  2  1  0  0  0  0
  1 18  1  0  0  0  0
  1 19  1  0  0  0  0
  1 20  1  0  0  0  0
  2 16  1  0  0  0  0
  2  3  2  0  0  0  0
  3  4  1  0  0  0  0
  4  5  2  0  0  0  0
  4 21  1  0  0  0  0
  5  6  1  0  0  0  0
  5 22  1  0  0  0  0
  6  7  1  0  0  0  0
  6 16  2  0  0  0  0
  7  8  1  0  0  0  0
  7 23  1  0  0  0  0
  8  9  2  0  0  0  0
  8 10  1  0  0  0  0
 10 15  1  0  0  0  0
 10 11  1  0  0  0  0
 10 24  1  0  0  0  0
 11 12  1  0  0  0  0
 11 25  1  0  0  0  0
 11 26  1  0  0  0  0
 12 13  1  0  0  0  0
 12 27  1  0  0  0  0
 12 28  1  0  0  0  0
 13 14  1  0  0  0  0
 13 15  1  0  0  0  0
 13 29  1  0  0  0  0
 14 30  1  0  0  0  0
 14 31  1  0  0  0  0
 14 32  1  0  0  0  0
 16 17  1  0  0  0  0
M  END
> <s_m_source_file>
AV-unprocessed.smi

> <i_m_source_file_index>
2282

> <i_lp_mmshare_version>
43012

> <i_f3d_flags>
0

> <s_epik_input>
W0NIM11jMW5bY0hdW2NIXWMoYzFDbClbTkhdQyg9TylbQ0BASF0yW0NIMl1bQ0gyXVtDQEhdKE8yKVtDSDNd

> <s_epik_cmdline>
J2VwaWtfcHl0aG9uJywgJy1waCcsICc3LjAnLCAnLXRuJywgJzgnLCAnLW1hJywgJzIwMCcsICctbWV0YWxfYmluZGluZycsICctaW1hZScsICc8aW5maWxlLm1hZT4nLCAnLW9tYWUnLCAnPG91dGZpbGUubWFlPic=

> <r_epik_Ionization_Penalty>
0.00037231

> <r_epik_Ionization_Penalty_Charging>
0

> <r_epik_Ionization_Penalty_Neutral>
0.00037231

> <r_epik_State_Penalty>
0.000225113

> <r_epik_Charging_Adjusted_Penalty>
0.000225113

> <i_epik_Tot_Q>
0

> <i_epik_Tot_abs_Q>
0

> <r_epik_Metal_State_Penalty>
-0

> <b_epik_Metal_Only>
0

> <s_lp_Force_Field>
OPLS_2005

> <r_lp_Energy>
24.6828

> <b_lp_Chiralities_Consistent>
1

> <s_lp_Variant>
AV-unprocessed.smi:2282-1

> <Gold.Version>
5.8.1

> <Gold.Id.Protein>
6NUR|6NUR_protein|mol2

> <Gold.PLP.Fitness>
36.8019

> <Gold.PLP.PLP>
-34.3345

> <Gold.PLP.part.hbond>
-1.0000

> <Gold.PLP.part.metal>
0.0000

> <Gold.PLP.part.buried>
-0.3774

> <Gold.PLP.part.nonpolar>
-32.2005

> <Gold.PLP.part.repulsive>
0.1042

> <Gold.PLP.ligand.clash>
0.0000

> <Gold.PLP.ligand.torsion>
0.2706

> <Gold.PLP.Chemscore.Hbond>
1.0000

> <Gold.PLP.Chemscore.CHOScore>
0.0000

> <Gold.PLP.Chemscore.Metal>
0.0000

> <Gold.Chemscore.Hbonds>
donor molecule, donor type, donor heavy atom, donor atom, acceptor molecule, acceptor atom, score
      P1  H  7997  8008       L1     9  1.00

> <Gold.PLP.Chemscore.Internal.Correction>
0.0086

> <Gold.Rescore>
     Score         DG    S(hbond)    S(metal)    S(lipo)     H(rot)  DE(clash)    DE(int)     intcor
     16.51     -17.97       0.83        0.00     105.10       1.00       0.20       1.27       ----

> <Gold.Chemscore.Fitness>
16.5090

> <Gold.Chemscore.DG>
-17.9732

> <Gold.Chemscore.ZeroCoef>
-5.4800

> <Gold.Chemscore.Hbond>
0.8253

> <Gold.Chemscore.Metal>
0.0000

> <Gold.Chemscore.Lipo>
105.1012

> <Gold.Chemscore.Internal_Hbond>
0.0000

> <Gold.Chemscore.DEClash>
0.1957

> <Gold.Chemscore.DEInternal>
1.2685

> <Gold.Chemscore.Rot>
1.0000

> <Gold.Chemscore.Internal.Correction>
   9.000000E+99

> <Gold.Chemscore.Hbonds>
donor molecule, donor type, donor heavy atom, donor atom, acceptor molecule, acceptor atom, score
      P1  H  7997  8008       L1     9  0.40

> <Gold.Chemscore.Hbond.Weighted>
-2.7564

> <Gold.Chemscore.Metal.Weighted>
-0.0000

> <Gold.Chemscore.Lipo.Weighted>
-12.2968

> <Gold.Chemscore.Internal_Hbond.Weighted>
0.0000

> <Gold.Chemscore.DEClash.Weighted>
0.1957

> <Gold.Chemscore.DEInternal.Weighted>
1.2685

> <Gold.Chemscore.Rot.Weighted>
2.5600

> <Gold.Chemscore.Internal.Correction.Weighted>
   9.000000E+99

> <Gold.Protein.RotatedTorsions>
[ 6907 6896 6895 6894 ] final  -88.02 input  -60.11 | X-H torsion
[ 7974 7965 7964 7962 ] final   40.03 input  175.53 | X-H torsion
[ 8008 7997 7996 7995 ] final  -98.99 input   59.86 | X-H torsion
[ 10167 10162 10161 10158 ] final  168.61 input  -65.29 | X-H torsion
[ 10718 10713 10712 10709 ] final -140.80 input   66.30 | X-H torsion
[ 10763 10752 10751 10750 ] final -146.69 input  -60.55 | X-H torsion
[ 11005 11000 10999 10996 ] final -138.32 input  -57.11 | X-H torsion

> <Gold.Protein.ActiveResidues>
 VAL166  LYS551  ARG553  GLY616  TRP617  ASP618  TYR619  PRO620  LYS621  CYS622 
 ASP623  PHE694  ASN695  SER759  ASP760  ASP761  ALA762  ILE779  LEU786  VAL792 
 PHE793  MET794  SER795  GLU796  ALA797  LYS798  CYS799  TRP800  GLU811  SER814 

> <Gold.Protein.RotatedAtoms>
  150.6867  134.2807  159.4625 H   0  0  0  0  0  0  0  0  0  0  0  0  # atno 6907 bound_to 6896
  152.0721  134.9524  160.0583 H   0  0  0  0  0  0  0  0  0  0  0  0  # atno 6908 bound_to 6896
  152.0910  133.4165  159.4580 H   0  0  0  0  0  0  0  0  0  0  0  0  # atno 6909 bound_to 6896
  146.0938  139.5582  142.9459 H   0  0  0  0  0  0  0  0  0  0  0  0  # atno 7974 bound_to 7965
  154.8087  140.0451  157.1327 H   0  0  0  0  0  0  0  0  0  0  0  0  # atno 8008 bound_to 7997
  154.9393  140.3050  155.5108 H   0  0  0  0  0  0  0  0  0  0  0  0  # atno 8009 bound_to 7997
  156.2969  140.2308  156.4461 H   0  0  0  0  0  0  0  0  0  0  0  0  # atno 8010 bound_to 7997
  139.4972  144.3795  151.9637 H   0  0  0  0  0  0  0  0  0  0  0  0  # atno 10167 bound_to 10162
  156.3266  130.7563  151.1672 H   0  0  0  0  0  0  0  0  0  0  0  0  # atno 10718 bound_to 10713
  154.8323  135.3380  154.6701 H   0  0  0  0  0  0  0  0  0  0  0  0  # atno 10763 bound_to 10752
  153.7319  135.6951  153.4992 H   0  0  0  0  0  0  0  0  0  0  0  0  # atno 10764 bound_to 10752
  153.2306  135.4418  155.0542 H   0  0  0  0  0  0  0  0  0  0  0  0  # atno 10765 bound_to 10752
  140.8627  134.2148  157.4698 H   0  0  0  0  0  0  0  0  0  0  0  0  # atno 11005 bound_to 11000
  145.5988  141.0358  143.2029 LP  0  0  0  0  0  0  0  0  0  0  0  0  # atno 17320 bound_to 7965
  144.7380  139.7531  143.7322 LP  0  0  0  0  0  0  0  0  0  0  0  0  # atno 17321 bound_to 7965
  140.3232  144.3403  150.6004 LP  0  0  0  0  0  0  0  0  0  0  0  0  # atno 17342 bound_to 10162
  140.5706  143.2181  151.7606 LP  0  0  0  0  0  0  0  0  0  0  0  0  # atno 17343 bound_to 10162
  157.7422  131.0493  150.5039 LP  0  0  0  0  0  0  0  0  0  0  0  0  # atno 17370 bound_to 10713
  156.5199  130.4159  149.6256 LP  0  0  0  0  0  0  0  0  0  0  0  0  # atno 17371 bound_to 10713
  139.8708  134.9737  156.4820 LP  0  0  0  0  0  0  0  0  0  0  0  0  # atno 17394 bound_to 11000
  140.8664  133.8021  155.9318 LP  0  0  0  0  0  0  0  0  0  0  0  0  # atno 17395 bound_to 11000

$$$$
