AV-unprocessed.smi:1703|AV-procd|sdf|6871|dock3
  -GOLD-   22720 8 73D 1   1.00000     0.00000
 Structure written by MMmdl.
 49 51  0  0  0  0  0  0  0  0  2 V2000
  147.4939  135.6561  162.5372 C   0  0  0  0  0  0  0  0  0  0  0  0
  147.3157  136.5697  161.3202 C   0  0  1  0  0  0  0  0  0  0  0  0
  148.5698  136.5972  160.4288 C   0  0  0  0  0  0  0  0  0  0  0  0
  148.3691  137.4057  159.2331 N   0  0  0  0  0  0  0  0  0  0  0  0
  149.5854  137.4617  158.4234 C   0  0  0  0  0  0  0  0  0  0  0  0
  149.5676  138.5117  157.2923 C   0  0  2  0  0  0  0  0  0  0  0  0
  149.2756  137.8684  156.0667 O   0  0  0  0  0  0  0  0  0  0  0  0
  150.9180  139.2440  157.1623 C   0  0  0  0  0  0  0  0  0  0  0  0
  150.7617  140.6956  156.9710 N   0  0  0  0  0  0  0  0  0  0  0  0
  149.9838  141.3784  156.0822 C   0  0  0  0  0  0  0  0  0  0  0  0
  149.0743  140.7821  155.0549 C   0  0  0  0  0  0  0  0  0  0  0  0
  149.4665  141.0677  153.7285 O   0  0  0  0  0  0  0  0  0  0  0  0
  150.1934  142.7076  156.3030 N   0  3  0  0  0  0  0  0  0  0  0  0
  151.1112  142.8775  157.3391 C   0  0  0  0  0  0  0  0  0  0  0  0
  151.6310  144.0336  157.9134 C   0  0  0  0  0  0  0  0  0  0  0  0
  152.5592  143.8577  158.9601 C   0  0  0  0  0  0  0  0  0  0  0  0
  152.9382  142.5716  159.3962 C   0  0  0  0  0  0  0  0  0  0  0  0
  152.4036  141.4069  158.8067 C   0  0  0  0  0  0  0  0  0  0  0  0
  151.4836  141.5885  157.7735 C   0  0  0  0  0  0  0  0  0  0  0  0
  147.2246  136.8812  158.4914 C   0  0  0  0  0  0  0  0  0  0  0  0
  145.9462  136.7974  159.3491 C   0  0  2  0  0  0  0  0  0  0  0  0
  145.3023  138.1687  159.6160 C   0  0  0  0  0  0  0  0  0  0  0  0
  146.2073  136.0890  160.5619 O   0  0  0  0  0  0  0  0  0  0  0  0
  148.3266  135.9874  163.1581 H   0  0  0  0  0  0  0  0  0  0  0  0
  147.6910  134.6277  162.2333 H   0  0  0  0  0  0  0  0  0  0  0  0
  146.5974  135.6548  163.1575 H   0  0  0  0  0  0  0  0  0  0  0  0
  147.1007  137.5774  161.6770 H   0  0  0  0  0  0  0  0  0  0  0  0
  149.4079  136.9921  161.0045 H   0  0  0  0  0  0  0  0  0  0  0  0
  148.8398  135.5785  160.1448 H   0  0  0  0  0  0  0  0  0  0  0  0
  150.4101  137.7150  159.0911 H   0  0  0  0  0  0  0  0  0  0  0  0
  149.8296  136.4739  158.0284 H   0  0  0  0  0  0  0  0  0  0  0  0
  148.7898  139.2504  157.4893 H   0  0  0  0  0  0  0  0  0  0  0  0
  150.0893  137.6790  155.6257 H   0  0  0  0  0  0  0  0  0  0  0  0
  151.5028  139.1055  158.0723 H   0  0  0  0  0  0  0  0  0  0  0  0
  151.5197  138.8293  156.3536 H   0  0  0  0  0  0  0  0  0  0  0  0
  149.0454  139.7005  155.1875 H   0  0  0  0  0  0  0  0  0  0  0  0
  148.0623  141.1565  155.2104 H   0  0  0  0  0  0  0  0  0  0  0  0
  149.1835  140.3577  153.1721 H   0  0  0  0  0  0  0  0  0  0  0  0
  151.3434  145.0197  157.5791 H   0  0  0  0  0  0  0  0  0  0  0  0
  152.9902  144.7262  159.4369 H   0  0  0  0  0  0  0  0  0  0  0  0
  153.6550  142.4761  160.1992 H   0  0  0  0  0  0  0  0  0  0  0  0
  152.7067  140.4287  159.1484 H   0  0  0  0  0  0  0  0  0  0  0  0
  147.0225  137.4978  157.6158 H   0  0  0  0  0  0  0  0  0  0  0  0
  147.4634  135.8846  158.1170 H   0  0  0  0  0  0  0  0  0  0  0  0
  145.2134  136.2053  158.8004 H   0  0  0  0  0  0  0  0  0  0  0  0
  145.0055  138.6449  158.6812 H   0  0  0  0  0  0  0  0  0  0  0  0
  145.9832  138.8504  160.1258 H   0  0  0  0  0  0  0  0  0  0  0  0
  144.4090  138.0654  160.2320 H   0  0  0  0  0  0  0  0  0  0  0  0
  149.7371  143.4410  155.7758 H   0  0  0  0  0  0  0  0  0  0  0  0
  1  2  1  0  0  0  0
  1 24  1  0  0  0  0
  1 25  1  0  0  0  0
  1 26  1  0  0  0  0
  2 23  1  0  0  0  0
  2  3  1  0  0  0  0
  2 27  1  0  0  0  0
  3  4  1  0  0  0  0
  3 28  1  0  0  0  0
  3 29  1  0  0  0  0
  4  5  1  0  0  0  0
  4 20  1  0  0  0  0
  5  6  1  0  0  0  0
  5 30  1  0  0  0  0
  5 31  1  0  0  0  0
  6  7  1  0  0  0  0
  6  8  1  0  0  0  0
  6 32  1  0  0  0  0
  7 33  1  0  0  0  0
  8  9  1  0  0  0  0
  8 34  1  0  0  0  0
  8 35  1  0  0  0  0
  9 19  1  0  0  0  0
  9 10  1  0  0  0  0
 10 11  1  0  0  0  0
 10 13  2  0  0  0  0
 11 12  1  0  0  0  0
 11 36  1  0  0  0  0
 11 37  1  0  0  0  0
 12 38  1  0  0  0  0
 13 14  1  0  0  0  0
 13 49  1  0  0  0  0
 14 19  2  0  0  0  0
 14 15  1  0  0  0  0
 15 16  2  0  0  0  0
 15 39  1  0  0  0  0
 16 17  1  0  0  0  0
 16 40  1  0  0  0  0
 17 18  2  0  0  0  0
 17 41  1  0  0  0  0
 18 19  1  0  0  0  0
 18 42  1  0  0  0  0
 20 21  1  0  0  0  0
 20 43  1  0  0  0  0
 20 44  1  0  0  0  0
 21 22  1  0  0  0  0
 21 23  1  0  0  0  0
 21 45  1  0  0  0  0
 22 46  1  0  0  0  0
 22 47  1  0  0  0  0
 22 48  1  0  0  0  0
M  CHG  1  13   1
M  END
> <s_m_source_file>
AV-unprocessed.smi

> <i_m_source_file_index>
1703

> <i_lp_mmshare_version>
43012

> <i_f3d_flags>
0

> <s_epik_input>
W0NIM11bQ0BASF0xW0NIMl1OKFtDSDJdW0NASF0oTzEpW0NIM10pW0NIMl1bQ0BIXShbT0hdKVtDSDJdbihjKG4yKVtDSDJdW09IXSljKGMyMylbY0hdW2NIXVtjSF1bY0hdMw==

> <s_epik_cmdline>
J2VwaWtfcHl0aG9uJywgJy1waCcsICc3LjAnLCAnLXRuJywgJzgnLCAnLW1hJywgJzIwMCcsICctbWV0YWxfYmluZGluZycsICctaW1hZScsICc8aW5maWxlLm1hZT4nLCAnLW9tYWUnLCAnPG91dGZpbGUubWFlPic=

> <r_epik_Ionization_Penalty>
1.7682

> <r_epik_Ionization_Penalty_Charging>
1.55298

> <r_epik_Ionization_Penalty_Neutral>
0.215215

> <r_epik_State_Penalty>
1.83821

> <r_epik_Charging_Adjusted_Penalty>
3.39119

> <i_epik_Tot_Q>
1

> <i_epik_Tot_abs_Q>
1

> <r_epik_Metal_State_Penalty>
5.89206

> <b_epik_Metal_Only>
0

> <s_lp_Force_Field>
OPLS_2005

> <r_lp_Energy>
35.0588

> <b_lp_Chiralities_Consistent>
1

> <s_lp_Variant>
AV-unprocessed.smi:1703-19

> <Gold.Version>
5.8.1

> <Gold.Id.Protein>
6NUR|6NUR_protein|mol2

> <Gold.PLP.Fitness>
51.7873

> <Gold.PLP.PLP>
-42.7472

> <Gold.PLP.part.hbond>
-4.1364

> <Gold.PLP.part.metal>
0.0000

> <Gold.PLP.part.buried>
-4.3942

> <Gold.PLP.part.nonpolar>
-34.7112

> <Gold.PLP.part.repulsive>
0.1012

> <Gold.PLP.ligand.clash>
0.0000

> <Gold.PLP.ligand.torsion>
1.3432

> <Gold.PLP.Chemscore.Hbond>
3.9024

> <Gold.PLP.Chemscore.CHOScore>
0.0000

> <Gold.PLP.Chemscore.Metal>
0.0000

> <Gold.Chemscore.Hbonds>
donor molecule, donor type, donor heavy atom, donor atom, acceptor molecule, acceptor atom, score
      L1  H    12    38       P1  7957  0.49
      L1  H    13    49       P1  8028  2.00
      P1  H  7989  7998       L1    12  0.22
      P1  H  8011  8017       L1    12  0.91

> <Gold.PLP.Chemscore.Internal.Correction>
0.0192

> <Gold.Rescore>
     Score         DG    S(hbond)    S(metal)    S(lipo)     H(rot)  DE(clash)    DE(int)     intcor
     15.23     -16.64       2.05        0.00     101.62       2.96       0.01       1.41       ----

> <Gold.Chemscore.Fitness>
15.2260

> <Gold.Chemscore.DG>
-16.6415

> <Gold.Chemscore.ZeroCoef>
-5.4800

> <Gold.Chemscore.Hbond>
2.0471

> <Gold.Chemscore.Metal>
0.0000

> <Gold.Chemscore.Lipo>
101.6240

> <Gold.Chemscore.Internal_Hbond>
0.0000

> <Gold.Chemscore.DEClash>
0.0060

> <Gold.Chemscore.DEInternal>
1.4095

> <Gold.Chemscore.Rot>
2.9555

> <Gold.Chemscore.Internal.Correction>
   9.000000E+99

> <Gold.Chemscore.Hbonds>
donor molecule, donor type, donor heavy atom, donor atom, acceptor molecule, acceptor atom, score
      L1  H    12    38       P1  7957  0.48
      L1  H    13    49       P1  8028  0.92
      P1  H  7989  7998       L1    12  0.05
      P1  H  8011  8017       L1    12  0.20

> <Gold.Chemscore.Hbond.Weighted>
-6.8375

> <Gold.Chemscore.Metal.Weighted>
-0.0000

> <Gold.Chemscore.Lipo.Weighted>
-11.8900

> <Gold.Chemscore.Internal_Hbond.Weighted>
0.0000

> <Gold.Chemscore.DEClash.Weighted>
0.0060

> <Gold.Chemscore.DEInternal.Weighted>
1.4095

> <Gold.Chemscore.Rot.Weighted>
7.5660

> <Gold.Chemscore.Internal.Correction.Weighted>
   9.000000E+99

> <Gold.Protein.RotatedTorsions>
[ 6907 6896 6895 6894 ] final -143.09 input  -60.11 | X-H torsion
[ 7974 7965 7964 7962 ] final  136.40 input  175.53 | X-H torsion
[ 8008 7997 7996 7995 ] final  -70.62 input   59.86 | X-H torsion
[ 10167 10162 10161 10158 ] final -164.05 input  -65.29 | X-H torsion
[ 10718 10713 10712 10709 ] final  -30.69 input   66.30 | X-H torsion
[ 10763 10752 10751 10750 ] final -110.37 input  -60.55 | X-H torsion
[ 11005 11000 10999 10996 ] final  -53.12 input  -57.11 | X-H torsion

> <Gold.Protein.ActiveResidues>
 VAL166  LYS551  ARG553  GLY616  TRP617  ASP618  TYR619  PRO620  LYS621  CYS622 
 ASP623  PHE694  ASN695  SER759  ASP760  ASP761  ALA762  ILE779  LEU786  VAL792 
 PHE793  MET794  SER795  GLU796  ALA797  LYS798  CYS799  TRP800  GLU811  SER814 

> <Gold.Protein.RotatedAtoms>
  151.0959  133.5280  159.2612 H   0  0  0  0  0  0  0  0  0  0  0  0  # atno 6907 bound_to 6896
  151.2130  135.0488  159.8929 H   0  0  0  0  0  0  0  0  0  0  0  0  # atno 6908 bound_to 6896
  152.5438  134.0771  159.8273 H   0  0  0  0  0  0  0  0  0  0  0  0  # atno 6909 bound_to 6896
  144.9569  139.4755  143.5499 H   0  0  0  0  0  0  0  0  0  0  0  0  # atno 7974 bound_to 7965
  154.5025  140.0831  156.7827 H   0  0  0  0  0  0  0  0  0  0  0  0  # atno 8008 bound_to 7997
  155.3969  140.3435  155.4236 H   0  0  0  0  0  0  0  0  0  0  0  0  # atno 8009 bound_to 7997
  156.1475  140.1548  156.8811 H   0  0  0  0  0  0  0  0  0  0  0  0  # atno 8010 bound_to 7997
  139.6278  144.0499  152.1989 H   0  0  0  0  0  0  0  0  0  0  0  0  # atno 10167 bound_to 10162
  156.3966  130.4382  149.7354 H   0  0  0  0  0  0  0  0  0  0  0  0  # atno 10718 bound_to 10713
  154.8244  135.4566  154.0875 H   0  0  0  0  0  0  0  0  0  0  0  0  # atno 10763 bound_to 10752
  153.2201  135.6893  153.8016 H   0  0  0  0  0  0  0  0  0  0  0  0  # atno 10764 bound_to 10752
  153.7436  135.3308  155.3285 H   0  0  0  0  0  0  0  0  0  0  0  0  # atno 10765 bound_to 10752
  141.0959  133.6625  156.4124 H   0  0  0  0  0  0  0  0  0  0  0  0  # atno 11005 bound_to 11000
  146.3340  139.8692  142.8843 LP  0  0  0  0  0  0  0  0  0  0  0  0  # atno 17320 bound_to 7965
  145.2759  141.0123  143.3745 LP  0  0  0  0  0  0  0  0  0  0  0  0  # atno 17321 bound_to 7965
  140.0157  144.6191  150.7609 LP  0  0  0  0  0  0  0  0  0  0  0  0  # atno 17342 bound_to 10162
  140.7421  143.2827  151.3551 LP  0  0  0  0  0  0  0  0  0  0  0  0  # atno 17343 bound_to 10162
  156.4386  130.7850  151.2871 LP  0  0  0  0  0  0  0  0  0  0  0  0  # atno 17370 bound_to 10713
  157.7502  131.0132  150.3414 LP  0  0  0  0  0  0  0  0  0  0  0  0  # atno 17371 bound_to 10713
  140.5140  134.6368  157.5294 LP  0  0  0  0  0  0  0  0  0  0  0  0  # atno 17394 bound_to 11000
  139.9796  134.7159  155.9884 LP  0  0  0  0  0  0  0  0  0  0  0  0  # atno 17395 bound_to 11000

$$$$
