AV-unprocessed.smi:1965|AV-procd|sdf|7935|dock4
  -GOLD-   2272010103D 1   1.00000     0.00000
 Structure written by MMmdl.
 37 39  0  0  0  0  0  0  0  0  2 V2000
  146.9910  139.1731  154.6646 O   0  0  0  0  0  0  0  0  0  0  0  0
  147.6863  139.2745  153.6556 C   0  0  0  0  0  0  0  0  0  0  0  0
  148.8526  139.9535  153.6762 N   0  0  0  0  0  0  0  0  0  0  0  0
  149.5153  140.6500  154.7284 C   0  0  0  0  0  0  0  0  0  0  0  0
  150.8382  140.6490  154.9397 N   0  0  0  0  0  0  0  0  0  0  0  0
  151.1938  141.4019  156.0617 C   0  0  0  0  0  0  0  0  0  0  0  0
  150.1214  141.9672  156.7048 C   0  0  0  0  0  0  0  0  0  0  0  0
  148.6140  141.5731  155.9229 S   0  0  0  0  0  0  0  0  0  0  0  0
  147.3431  138.7249  152.4785 N   0  0  0  0  0  0  0  0  0  0  0  0
  146.1535  137.9153  152.2267 C   0  0  1  0  0  0  0  0  0  0  0  0
  146.0547  137.4381  150.7645 C   0  0  0  0  0  0  0  0  0  0  0  0
  145.5911  135.9811  150.8611 C   0  0  0  0  0  0  0  0  0  0  0  0
  146.2128  135.5214  152.1081 N   0  3  2  0  0  0  0  0  0  0  0  0
  145.7941  134.2203  152.6681 C   0  0  0  0  0  0  0  0  0  0  0  0
  146.7147  133.8836  153.8611 C   0  0  0  0  0  0  0  0  0  0  0  0
  146.7783  135.0324  154.8932 C   0  0  0  0  0  0  0  0  0  0  0  0
  147.0932  136.3878  154.2241 C   0  0  0  0  0  0  0  0  0  0  0  0
  146.0943  136.6244  153.0768 C   0  0  1  0  0  0  0  0  0  0  0  0
  149.3039  140.0364  152.7767 H   0  0  0  0  0  0  0  0  0  0  0  0
  152.2363  141.4807  156.3330 H   0  0  0  0  0  0  0  0  0  0  0  0
  150.1263  142.5871  157.5894 H   0  0  0  0  0  0  0  0  0  0  0  0
  147.9732  138.8637  151.7008 H   0  0  0  0  0  0  0  0  0  0  0  0
  145.2641  138.5100  152.4443 H   0  0  0  0  0  0  0  0  0  0  0  0
  145.3796  138.0512  150.1667 H   0  0  0  0  0  0  0  0  0  0  0  0
  147.0360  137.4708  150.2881 H   0  0  0  0  0  0  0  0  0  0  0  0
  144.5047  135.9283  150.9488 H   0  0  0  0  0  0  0  0  0  0  0  0
  145.9008  135.3821  150.0042 H   0  0  0  0  0  0  0  0  0  0  0  0
  144.7502  134.2643  152.9819 H   0  0  0  0  0  0  0  0  0  0  0  0
  145.8710  133.4472  151.9030 H   0  0  0  0  0  0  0  0  0  0  0  0
  146.3801  132.9648  154.3437 H   0  0  0  0  0  0  0  0  0  0  0  0
  147.7211  133.6848  153.4897 H   0  0  0  0  0  0  0  0  0  0  0  0
  145.8209  135.1015  155.4113 H   0  0  0  0  0  0  0  0  0  0  0  0
  147.5241  134.8095  155.6569 H   0  0  0  0  0  0  0  0  0  0  0  0
  147.0262  137.1877  154.9621 H   0  0  0  0  0  0  0  0  0  0  0  0
  148.1160  136.3882  153.8446 H   0  0  0  0  0  0  0  0  0  0  0  0
  145.0870  136.5831  153.4975 H   0  0  0  0  0  0  0  0  0  0  0  0
  147.1979  135.4394  151.9008 H   0  0  0  0  0  0  0  0  0  0  0  0
  1  2  2  0  0  0  0
  2  3  1  0  0  0  0
  2  9  1  0  0  0  0
  3  4  1  0  0  0  0
  3 19  1  0  0  0  0
  4  8  1  0  0  0  0
  4  5  2  0  0  0  0
  5  6  1  0  0  0  0
  6  7  2  0  0  0  0
  6 20  1  0  0  0  0
  7  8  1  0  0  0  0
  7 21  1  0  0  0  0
  9 10  1  0  0  0  0
  9 22  1  0  0  0  0
 10 18  1  0  0  0  0
 10 11  1  0  0  0  0
 10 23  1  0  0  0  0
 11 12  1  0  0  0  0
 11 24  1  0  0  0  0
 11 25  1  0  0  0  0
 12 13  1  0  0  0  0
 12 26  1  0  0  0  0
 12 27  1  0  0  0  0
 13 18  1  0  0  0  0
 13 14  1  0  0  0  0
 13 37  1  0  0  0  0
 14 15  1  0  0  0  0
 14 28  1  0  0  0  0
 14 29  1  0  0  0  0
 15 16  1  0  0  0  0
 15 30  1  0  0  0  0
 15 31  1  0  0  0  0
 16 17  1  0  0  0  0
 16 32  1  0  0  0  0
 16 33  1  0  0  0  0
 17 18  1  0  0  0  0
 17 34  1  0  0  0  0
 17 35  1  0  0  0  0
 18 36  1  0  0  0  0
M  CHG  1  13   1
M  END
> <s_m_source_file>
AV-unprocessed.smi

> <i_m_source_file_index>
1965

> <i_lp_mmshare_version>
43012

> <i_f3d_flags>
0

> <s_epik_input>
czFbY0hdW2NIXW5jMVtOSF1DKD1PKVtOSF1bQ0BIXShbQ0gyXVtDSDJdMilbQ0BASF0oTjIzKVtDSDJdW0NIMl1bQ0gyXVtDSDJdMw==

> <s_epik_cmdline>
J2VwaWtfcHl0aG9uJywgJy1waCcsICc3LjAnLCAnLXRuJywgJzgnLCAnLW1hJywgJzIwMCcsICctbWV0YWxfYmluZGluZycsICctaW1hZScsICc8aW5maWxlLm1hZT4nLCAnLW9tYWUnLCAnPG91dGZpbGUubWFlPic=

> <r_lp_tautomer_probability>
1

> <r_epik_Ionization_Penalty>
0.00125962

> <r_epik_Ionization_Penalty_Charging>
0.00107044

> <r_epik_Ionization_Penalty_Neutral>
0.000189176

> <r_epik_State_Penalty>
-0

> <r_epik_Charging_Adjusted_Penalty>
0.00107044

> <i_epik_Tot_Q>
1

> <i_epik_Tot_abs_Q>
1

> <r_epik_Metal_State_Penalty>
0.0179285

> <b_epik_Metal_Only>
0

> <s_lp_Force_Field>
OPLS_2005

> <r_lp_Energy>
42.2865

> <b_lp_Chiralities_Consistent>
1

> <s_lp_Variant>
AV-unprocessed.smi:1965-4

> <Gold.Version>
5.8.1

> <Gold.Id.Protein>
6NUR|6NUR_protein|mol2

> <Gold.PLP.Fitness>
39.0631

> <Gold.PLP.PLP>
-25.0496

> <Gold.PLP.part.hbond>
-5.0000

> <Gold.PLP.part.metal>
0.0000

> <Gold.PLP.part.buried>
3.6807

> <Gold.PLP.part.nonpolar>
-22.8979

> <Gold.PLP.part.repulsive>
0.3526

> <Gold.PLP.ligand.clash>
0.0000

> <Gold.PLP.ligand.torsion>
0.2896

> <Gold.PLP.Chemscore.Hbond>
4.8640

> <Gold.PLP.Chemscore.CHOScore>
0.0000

> <Gold.PLP.Chemscore.Metal>
0.0000

> <Gold.Chemscore.Hbonds>
donor molecule, donor type, donor heavy atom, donor atom, acceptor molecule, acceptor atom, score
      L1  H     3    19       P1  7957  1.00
      L1  H     9    22       P1  7957  0.80
      L1  H    13    37       P1  7948  2.00
      P1  H  7989  7998       L1     5  0.94

> <Gold.PLP.Chemscore.Internal.Correction>
0.0007

> <Gold.Rescore>
     Score         DG    S(hbond)    S(metal)    S(lipo)     H(rot)  DE(clash)    DE(int)     intcor
     15.72     -21.29       3.47        0.00      57.88       1.00       3.19       2.38       ----

> <Gold.Chemscore.Fitness>
15.7231

> <Gold.Chemscore.DG>
-21.2913

> <Gold.Chemscore.ZeroCoef>
-5.4800

> <Gold.Chemscore.Hbond>
3.4729

> <Gold.Chemscore.Metal>
0.0000

> <Gold.Chemscore.Lipo>
57.8777

> <Gold.Chemscore.Internal_Hbond>
0.0000

> <Gold.Chemscore.DEClash>
3.1859

> <Gold.Chemscore.DEInternal>
2.3823

> <Gold.Chemscore.Rot>
1.0000

> <Gold.Chemscore.Internal.Correction>
   9.000000E+99

> <Gold.Chemscore.Hbonds>
donor molecule, donor type, donor heavy atom, donor atom, acceptor molecule, acceptor atom, score
      L1  H     3    19       P1  7957  1.00
      L1  H     9    22       P1  7957  0.65
      L1  H    13    37       P1  7948  0.95
      P1  H  7989  7998       L1     5  0.66

> <Gold.Chemscore.Hbond.Weighted>
-11.5996

> <Gold.Chemscore.Metal.Weighted>
-0.0000

> <Gold.Chemscore.Lipo.Weighted>
-6.7717

> <Gold.Chemscore.Internal_Hbond.Weighted>
0.0000

> <Gold.Chemscore.DEClash.Weighted>
3.1859

> <Gold.Chemscore.DEInternal.Weighted>
2.3823

> <Gold.Chemscore.Rot.Weighted>
2.5600

> <Gold.Chemscore.Internal.Correction.Weighted>
   9.000000E+99

> <Gold.Protein.RotatedTorsions>
[ 6907 6896 6895 6894 ] final  -25.79 input  -60.11 | X-H torsion
[ 7974 7965 7964 7962 ] final  -84.37 input  175.53 | X-H torsion
[ 8008 7997 7996 7995 ] final  -68.76 input   59.86 | X-H torsion
[ 10167 10162 10161 10158 ] final  -17.22 input  -65.29 | X-H torsion
[ 10718 10713 10712 10709 ] final  -19.84 input   66.30 | X-H torsion
[ 10763 10752 10751 10750 ] final  133.90 input  -60.55 | X-H torsion
[ 11005 11000 10999 10996 ] final  113.70 input  -57.11 | X-H torsion

> <Gold.Protein.ActiveResidues>
 VAL166  LYS551  ARG553  GLY616  TRP617  ASP618  TYR619  PRO620  LYS621  CYS622 
 ASP623  PHE694  ASN695  SER759  ASP760  ASP761  ALA762  ILE779  LEU786  VAL792 
 PHE793  MET794  SER795  GLU796  ALA797  LYS798  CYS799  TRP800  GLU811  SER814 

> <Gold.Protein.RotatedAtoms>
  151.1701  135.0314  159.8747 H   0  0  0  0  0  0  0  0  0  0  0  0  # atno 6907 bound_to 6896
  152.5449  134.1180  159.8397 H   0  0  0  0  0  0  0  0  0  0  0  0  # atno 6908 bound_to 6896
  151.1285  133.5007  159.2632 H   0  0  0  0  0  0  0  0  0  0  0  0  # atno 6909 bound_to 6896
  145.5076  140.9542  143.1725 H   0  0  0  0  0  0  0  0  0  0  0  0  # atno 7974 bound_to 7965
  154.4890  140.0866  156.7552 H   0  0  0  0  0  0  0  0  0  0  0  0  # atno 8008 bound_to 7997
  155.4277  140.3448  155.4259 H   0  0  0  0  0  0  0  0  0  0  0  0  # atno 8009 bound_to 7997
  156.1303  140.1499  156.9063 H   0  0  0  0  0  0  0  0  0  0  0  0  # atno 8010 bound_to 7997
  140.7244  143.5037  150.9837 H   0  0  0  0  0  0  0  0  0  0  0  0  # atno 10167 bound_to 10162
  156.5401  130.4676  149.6503 H   0  0  0  0  0  0  0  0  0  0  0  0  # atno 10718 bound_to 10713
  153.8147  135.3124  155.3404 H   0  0  0  0  0  0  0  0  0  0  0  0  # atno 10763 bound_to 10752
  154.8037  135.4711  154.0342 H   0  0  0  0  0  0  0  0  0  0  0  0  # atno 10764 bound_to 10752
  153.1731  135.6881  153.8669 H   0  0  0  0  0  0  0  0  0  0  0  0  # atno 10765 bound_to 10752
  139.8960  134.9555  156.6779 H   0  0  0  0  0  0  0  0  0  0  0  0  # atno 11005 bound_to 11000
  144.7745  139.6660  143.7180 LP  0  0  0  0  0  0  0  0  0  0  0  0  # atno 17320 bound_to 7965
  146.2187  139.5596  142.9633 LP  0  0  0  0  0  0  0  0  0  0  0  0  # atno 17321 bound_to 7965
  139.8748  143.7147  152.3163 LP  0  0  0  0  0  0  0  0  0  0  0  0  # atno 17342 bound_to 10162
  139.7408  144.7560  151.0655 LP  0  0  0  0  0  0  0  0  0  0  0  0  # atno 17343 bound_to 10162
  156.2980  130.7161  151.2026 LP  0  0  0  0  0  0  0  0  0  0  0  0  # atno 17370 bound_to 10713
  157.7407  131.0514  150.5149 LP  0  0  0  0  0  0  0  0  0  0  0  0  # atno 17371 bound_to 10713
  140.7322  133.9049  155.8219 LP  0  0  0  0  0  0  0  0  0  0  0  0  # atno 17394 bound_to 11000
  141.0144  134.0975  157.4187 LP  0  0  0  0  0  0  0  0  0  0  0  0  # atno 17395 bound_to 11000

$$$$
