AV-unprocessed.smi:2265|AV-procd|sdf|9146|dock4
  -GOLD-   2272012353D 1   1.00000     0.00000
 Structure written by MMmdl.
 36 37  0  0  0  0  0  0  0  0  1 V2000
  153.5944  142.5917  162.9341 C   0  0  0  0  0  0  0  0  0  0  0  0
  152.4986  142.6259  161.8636 C   0  0  0  0  0  0  0  0  0  0  0  0
  152.4407  143.9683  161.1216 C   0  0  0  0  0  0  0  0  0  0  0  0
  151.3551  143.9957  160.0644 C   0  0  1  0  0  0  0  0  0  0  0  0
  150.7562  145.3058  159.6294 C   0  0  0  0  0  0  0  0  0  0  0  0
  151.6305  144.5222  158.6717 C   0  0  2  0  0  0  0  0  0  0  0  0
  150.9633  143.9041  157.5655 N   0  0  0  0  0  0  0  0  0  0  0  0
  150.9988  142.6118  157.1935 C   0  0  0  0  0  0  0  0  0  0  0  0
  151.6872  141.8000  157.8117 O   0  0  0  0  0  0  0  0  0  0  0  0
  150.2579  142.3334  156.0978 N   0  0  0  0  0  0  0  0  0  0  0  0
  150.1015  141.1049  155.4436 C   0  0  0  0  0  0  0  0  0  0  0  0
  151.0357  140.1969  155.3936 N   0  0  0  0  0  0  0  0  0  0  0  0
  150.8444  138.9823  154.7348 C   0  0  0  0  0  0  0  0  0  0  0  0
  149.6796  138.7066  154.1212 C   0  0  0  0  0  0  0  0  0  0  0  0
  148.6286  139.6344  154.1301 N   0  0  0  0  0  0  0  0  0  0  0  0
  147.3831  139.2825  153.4477 C   0  0  0  0  0  0  0  0  0  0  0  0
  148.7562  140.8313  154.7650 C   0  0  0  0  0  0  0  0  0  0  0  0
  147.8572  141.6736  154.8101 O   0  0  0  0  0  0  0  0  0  0  0  0
  153.6160  141.6242  163.4363 H   0  0  0  0  0  0  0  0  0  0  0  0
  153.4273  143.3570  163.6927 H   0  0  0  0  0  0  0  0  0  0  0  0
  154.5788  142.7613  162.4966 H   0  0  0  0  0  0  0  0  0  0  0  0
  152.6695  141.8201  161.1489 H   0  0  0  0  0  0  0  0  0  0  0  0
  151.5340  142.4243  162.3312 H   0  0  0  0  0  0  0  0  0  0  0  0
  152.2715  144.7793  161.8314 H   0  0  0  0  0  0  0  0  0  0  0  0
  153.3972  144.1693  160.6380 H   0  0  0  0  0  0  0  0  0  0  0  0
  150.6669  143.1541  160.1272 H   0  0  0  0  0  0  0  0  0  0  0  0
  149.6838  145.3264  159.4450 H   0  0  0  0  0  0  0  0  0  0  0  0
  151.1715  146.2187  160.0519 H   0  0  0  0  0  0  0  0  0  0  0  0
  152.6130  144.9564  158.4924 H   0  0  0  0  0  0  0  0  0  0  0  0
  150.4553  144.5304  156.9575 H   0  0  0  0  0  0  0  0  0  0  0  0
  149.7704  143.1203  155.6946 H   0  0  0  0  0  0  0  0  0  0  0  0
  151.6714  138.2877  154.7460 H   0  0  0  0  0  0  0  0  0  0  0  0
  149.4839  137.7804  153.6003 H   0  0  0  0  0  0  0  0  0  0  0  0
  147.0930  140.0633  152.7429 H   0  0  0  0  0  0  0  0  0  0  0  0
  146.5763  139.1597  154.1714 H   0  0  0  0  0  0  0  0  0  0  0  0
  147.4661  138.3531  152.8830 H   0  0  0  0  0  0  0  0  0  0  0  0
  1  2  1  0  0  0  0
  1 19  1  0  0  0  0
  1 20  1  0  0  0  0
  1 21  1  0  0  0  0
  2  3  1  0  0  0  0
  2 22  1  0  0  0  0
  2 23  1  0  0  0  0
  3  4  1  0  0  0  0
  3 24  1  0  0  0  0
  3 25  1  0  0  0  0
  4  6  1  0  0  0  0
  4  5  1  0  0  0  0
  4 26  1  0  0  0  0
  5  6  1  0  0  0  0
  5 27  1  0  0  0  0
  5 28  1  0  0  0  0
  6  7  1  0  0  0  0
  6 29  1  0  0  0  0
  7  8  1  0  0  0  0
  7 30  1  0  0  0  0
  8  9  2  0  0  0  0
  8 10  1  0  0  0  0
 10 11  1  0  0  0  0
 10 31  1  0  0  0  0
 11 17  1  0  0  0  0
 11 12  2  0  0  0  0
 12 13  1  0  0  0  0
 13 14  2  0  0  0  0
 13 32  1  0  0  0  0
 14 15  1  0  0  0  0
 14 33  1  0  0  0  0
 15 16  1  0  0  0  0
 15 17  1  0  0  0  0
 16 34  1  0  0  0  0
 16 35  1  0  0  0  0
 16 36  1  0  0  0  0
 17 18  2  0  0  0  0
M  END
> <s_m_source_file>
AV-unprocessed.smi

> <i_m_source_file_index>
2265

> <i_lp_mmshare_version>
43012

> <i_f3d_flags>
0

> <s_epik_input>
W0NIM11bQ0gyXVtDSDJdW0NAQEhdMVtDSDJdW0NASF0xW05IXUMoPU8pW05IXWMybltjSF1bY0hdbihbQ0gzXSljMj1P

> <s_epik_cmdline>
J2VwaWtfcHl0aG9uJywgJy1waCcsICc3LjAnLCAnLXRuJywgJzgnLCAnLW1hJywgJzIwMCcsICctbWV0YWxfYmluZGluZycsICctaW1hZScsICc8aW5maWxlLm1hZT4nLCAnLW9tYWUnLCAnPG91dGZpbGUubWFlPic=

> <r_lp_tautomer_probability>
1

> <r_epik_Ionization_Penalty>
0.000728552

> <r_epik_Ionization_Penalty_Charging>
1.67739e-07

> <r_epik_Ionization_Penalty_Neutral>
0.000728385

> <r_epik_State_Penalty>
-0

> <r_epik_Charging_Adjusted_Penalty>
1.67739e-07

> <i_epik_Tot_Q>
0

> <i_epik_Tot_abs_Q>
0

> <r_epik_Metal_State_Penalty>
-0

> <b_epik_Metal_Only>
0

> <s_lp_Force_Field>
OPLS_2005

> <r_lp_Energy>
43.0315

> <b_lp_Chiralities_Consistent>
1

> <s_lp_Variant>
AV-unprocessed.smi:2265-4

> <Gold.Version>
5.8.1

> <Gold.Id.Protein>
6NUR|6NUR_protein|mol2

> <Gold.PLP.Fitness>
52.8106

> <Gold.PLP.PLP>
-44.4926

> <Gold.PLP.part.hbond>
-3.0000

> <Gold.PLP.part.metal>
0.0000

> <Gold.PLP.part.buried>
-5.4343

> <Gold.PLP.part.nonpolar>
-35.9250

> <Gold.PLP.part.repulsive>
0.3048

> <Gold.PLP.ligand.clash>
0.0000

> <Gold.PLP.ligand.torsion>
0.6946

> <Gold.PLP.Chemscore.Hbond>
2.0441

> <Gold.PLP.Chemscore.CHOScore>
1.0000

> <Gold.PLP.Chemscore.Metal>
0.0000

> <Gold.Chemscore.Hbonds>
donor molecule, donor type, donor heavy atom, donor atom, acceptor molecule, acceptor atom, score
      L1  H     7    30       P1  8028  0.94
      L1  H    10    31       P1  8028  1.00
      P1  H  7989  7998       L1    12  0.09
      L1  C    14    33       P1  7948  1.00

> <Gold.PLP.Chemscore.Internal.Correction>
0.5750

> <Gold.Rescore>
     Score         DG    S(hbond)    S(metal)    S(lipo)     H(rot)  DE(clash)    DE(int)     intcor
     16.68     -18.45       1.85        0.00      90.06       1.46       0.02       1.75       ----

> <Gold.Chemscore.Fitness>
16.6810

> <Gold.Chemscore.DG>
-18.4517

> <Gold.Chemscore.ZeroCoef>
-5.4800

> <Gold.Chemscore.Hbond>
1.8483

> <Gold.Chemscore.Metal>
0.0000

> <Gold.Chemscore.Lipo>
90.0621

> <Gold.Chemscore.Internal_Hbond>
0.0000

> <Gold.Chemscore.DEClash>
0.0187

> <Gold.Chemscore.DEInternal>
1.7520

> <Gold.Chemscore.Rot>
1.4604

> <Gold.Chemscore.Internal.Correction>
   9.000000E+99

> <Gold.Chemscore.Hbonds>
donor molecule, donor type, donor heavy atom, donor atom, acceptor molecule, acceptor atom, score
      L1  H     7    30       P1  8028  0.71
      L1  H    10    31       P1  8028  0.99

> <Gold.Chemscore.Hbond.Weighted>
-6.1732

> <Gold.Chemscore.Metal.Weighted>
-0.0000

> <Gold.Chemscore.Lipo.Weighted>
-10.5373

> <Gold.Chemscore.Internal_Hbond.Weighted>
0.0000

> <Gold.Chemscore.DEClash.Weighted>
0.0187

> <Gold.Chemscore.DEInternal.Weighted>
1.7520

> <Gold.Chemscore.Rot.Weighted>
3.7387

> <Gold.Chemscore.Internal.Correction.Weighted>
   9.000000E+99

> <Gold.Protein.RotatedTorsions>
[ 6907 6896 6895 6894 ] final   90.57 input  -60.11 | X-H torsion
[ 7974 7965 7964 7962 ] final  141.65 input  175.53 | X-H torsion
[ 8008 7997 7996 7995 ] final  132.66 input   59.86 | X-H torsion
[ 10167 10162 10161 10158 ] final  -48.17 input  -65.29 | X-H torsion
[ 10718 10713 10712 10709 ] final  102.67 input   66.30 | X-H torsion
[ 10763 10752 10751 10750 ] final   68.35 input  -60.55 | X-H torsion
[ 11005 11000 10999 10996 ] final -122.53 input  -57.11 | X-H torsion

> <Gold.Protein.ActiveResidues>
 VAL166  LYS551  ARG553  GLY616  TRP617  ASP618  TYR619  PRO620  LYS621  CYS622 
 ASP623  PHE694  ASN695  SER759  ASP760  ASP761  ALA762  ILE779  LEU786  VAL792 
 PHE793  MET794  SER795  GLU796  ALA797  LYS798  CYS799  TRP800  GLU811  SER814 

> <Gold.Protein.RotatedAtoms>
  152.5445  134.1791  159.8627 H   0  0  0  0  0  0  0  0  0  0  0  0  # atno 6907 bound_to 6896
  151.1795  133.4727  159.2601 H   0  0  0  0  0  0  0  0  0  0  0  0  # atno 6908 bound_to 6896
  151.1193  135.0082  159.8586 H   0  0  0  0  0  0  0  0  0  0  0  0  # atno 6909 bound_to 6896
  144.9077  139.5335  143.5723 H   0  0  0  0  0  0  0  0  0  0  0  0  # atno 7974 bound_to 7965
  156.2985  140.2541  156.3126 H   0  0  0  0  0  0  0  0  0  0  0  0  # atno 8008 bound_to 7997
  154.9312  140.0398  157.2068 H   0  0  0  0  0  0  0  0  0  0  0  0  # atno 8009 bound_to 7997
  154.8217  140.2861  155.5787 H   0  0  0  0  0  0  0  0  0  0  0  0  # atno 8010 bound_to 7997
  140.6743  143.2752  151.4031 H   0  0  0  0  0  0  0  0  0  0  0  0  # atno 10167 bound_to 10162
  157.6795  131.0759  150.5440 H   0  0  0  0  0  0  0  0  0  0  0  0  # atno 10718 bound_to 10713
  153.0231  135.5250  154.7120 H   0  0  0  0  0  0  0  0  0  0  0  0  # atno 10763 bound_to 10752
  154.6200  135.2888  155.0339 H   0  0  0  0  0  0  0  0  0  0  0  0  # atno 10764 bound_to 10752
  154.1329  135.6590  153.4978 H   0  0  0  0  0  0  0  0  0  0  0  0  # atno 10765 bound_to 10752
  140.9988  134.0433  157.3564 H   0  0  0  0  0  0  0  0  0  0  0  0  # atno 11005 bound_to 11000
  146.3142  139.7858  142.8996 LP  0  0  0  0  0  0  0  0  0  0  0  0  # atno 17320 bound_to 7965
  145.3507  141.0307  143.3340 LP  0  0  0  0  0  0  0  0  0  0  0  0  # atno 17321 bound_to 7965
  139.6027  144.1262  152.2215 LP  0  0  0  0  0  0  0  0  0  0  0  0  # atno 17342 bound_to 10162
  140.0651  144.5825  150.7233 LP  0  0  0  0  0  0  0  0  0  0  0  0  # atno 17343 bound_to 10162
  156.5746  130.4288  149.6004 LP  0  0  0  0  0  0  0  0  0  0  0  0  # atno 17370 bound_to 10713
  156.2712  130.7018  151.1816 LP  0  0  0  0  0  0  0  0  0  0  0  0  # atno 17371 bound_to 10713
  139.9028  135.0170  156.7348 LP  0  0  0  0  0  0  0  0  0  0  0  0  # atno 17394 bound_to 11000
  140.6923  133.9379  155.7973 LP  0  0  0  0  0  0  0  0  0  0  0  0  # atno 17395 bound_to 11000

$$$$
