AV-unprocessed.smi:1908|AV-procd|sdf|7733|dock9
  -GOLD-   22720 9473D 1   1.00000     0.00000
 Structure written by MMmdl.
 28 28  0  0  0  0  0  0  0  0  1 V2000
  151.4382  144.6569  159.2908 C   0  0  0  0  0  0  0  0  0  0  0  0
  151.7782  143.1720  159.1080 C   0  0  0  0  0  0  0  0  0  0  0  0
  153.2938  142.9252  159.1582 C   0  0  0  0  0  0  0  0  0  0  0  0
  151.2303  142.6995  157.8399 N   0  0  0  0  0  0  0  0  0  0  0  0
  150.3871  141.6655  157.6930 C   0  0  0  0  0  0  0  0  0  0  0  0
  149.9852  140.9825  158.6360 O   0  0  0  0  0  0  0  0  0  0  0  0
  149.9582  141.3394  156.2556 C   0  0  0  0  0  0  0  0  0  0  0  0
  150.3230  139.9744  155.8512 N   0  0  0  0  0  0  0  0  0  0  0  0
  149.3736  139.1312  155.2911 C   0  0  0  0  0  0  0  0  0  0  0  0
  149.6448  137.8676  154.8867 C   0  0  0  0  0  0  0  0  0  0  0  0
  150.9898  137.3199  155.0266 C   0  0  0  0  0  0  0  0  0  0  0  0
  151.3330  136.1881  154.6929 O   0  0  0  0  0  0  0  0  0  0  0  0
  151.9170  138.1998  155.5913 N   0  0  0  0  0  0  0  0  0  0  0  0
  151.6449  139.5038  156.0074 C   0  0  0  0  0  0  0  0  0  0  0  0
  152.5392  140.1985  156.4889 O   0  0  0  0  0  0  0  0  0  0  0  0
  152.8628  137.8656  155.7050 H   0  0  0  0  0  0  0  0  0  0  0  0
  151.8114  145.0289  160.2455 H   0  0  0  0  0  0  0  0  0  0  0  0
  150.3596  144.8176  159.2748 H   0  0  0  0  0  0  0  0  0  0  0  0
  151.8788  145.2668  158.5015 H   0  0  0  0  0  0  0  0  0  0  0  0
  151.3100  142.6232  159.9271 H   0  0  0  0  0  0  0  0  0  0  0  0
  153.7156  143.2725  160.1018 H   0  0  0  0  0  0  0  0  0  0  0  0
  153.8085  143.4482  158.3515 H   0  0  0  0  0  0  0  0  0  0  0  0
  153.5252  141.8632  159.0677 H   0  0  0  0  0  0  0  0  0  0  0  0
  151.5121  143.1998  157.0093 H   0  0  0  0  0  0  0  0  0  0  0  0
  148.8834  141.4934  156.1391 H   0  0  0  0  0  0  0  0  0  0  0  0
  150.4256  142.0677  155.5913 H   0  0  0  0  0  0  0  0  0  0  0  0
  148.3643  139.4967  155.1637 H   0  0  0  0  0  0  0  0  0  0  0  0
  148.8628  137.2590  154.4560 H   0  0  0  0  0  0  0  0  0  0  0  0
  1  2  1  0  0  0  0
  1 17  1  0  0  0  0
  1 18  1  0  0  0  0
  1 19  1  0  0  0  0
  2  3  1  0  0  0  0
  2  4  1  0  0  0  0
  2 20  1  0  0  0  0
  3 21  1  0  0  0  0
  3 22  1  0  0  0  0
  3 23  1  0  0  0  0
  4  5  1  0  0  0  0
  4 24  1  0  0  0  0
  5  6  2  0  0  0  0
  5  7  1  0  0  0  0
  7  8  1  0  0  0  0
  7 25  1  0  0  0  0
  7 26  1  0  0  0  0
  8 14  1  0  0  0  0
  8  9  1  0  0  0  0
  9 10  2  0  0  0  0
  9 27  1  0  0  0  0
 10 11  1  0  0  0  0
 10 28  1  0  0  0  0
 11 12  2  0  0  0  0
 11 13  1  0  0  0  0
 13 16  1  0  0  0  0
 13 14  1  0  0  0  0
 14 15  2  0  0  0  0
M  END
> <s_m_source_file>
AV-unprocessed.smi

> <i_m_source_file_index>
1908

> <i_lp_mmshare_version>
43012

> <i_f3d_flags>
0

> <s_epik_input>
W0NIM11bQ0hdKFtDSDNdKVtOSF1DKD1PKVtDSDJdbjFbY0hdW2NIXWMoPU8pW25IXWMxPU8=

> <s_epik_cmdline>
J2VwaWtfcHl0aG9uJywgJy1waCcsICc3LjAnLCAnLXRuJywgJzgnLCAnLW1hJywgJzIwMCcsICctbWV0YWxfYmluZGluZycsICctaW1hZScsICc8aW5maWxlLm1hZT4nLCAnLW9tYWUnLCAnPG91dGZpbGUubWFlPic=

> <r_lp_tautomer_probability>
0.999537

> <r_epik_Ionization_Penalty>
0.00328918

> <r_epik_Ionization_Penalty_Charging>
0.00328916

> <r_epik_Ionization_Penalty_Neutral>
2.06703e-08

> <r_epik_State_Penalty>
0.00232387

> <r_epik_Charging_Adjusted_Penalty>
0.00561303

> <i_epik_Tot_Q>
0

> <i_epik_Tot_abs_Q>
0

> <r_epik_Metal_State_Penalty>
0.365273

> <b_epik_Metal_Only>
0

> <s_lp_Force_Field>
OPLS_2005

> <r_lp_Energy>
1.74707

> <b_lp_Chiralities_Consistent>
1

> <s_lp_Variant>
AV-unprocessed.smi:1908-1

> <Gold.Version>
5.8.1

> <Gold.Id.Protein>
6NUR|6NUR_protein|mol2

> <Gold.PLP.Fitness>
37.3136

> <Gold.PLP.PLP>
-31.5161

> <Gold.PLP.part.hbond>
-2.0000

> <Gold.PLP.part.metal>
0.0000

> <Gold.PLP.part.buried>
-2.0129

> <Gold.PLP.part.nonpolar>
-26.3263

> <Gold.PLP.part.repulsive>
0.3798

> <Gold.PLP.ligand.clash>
0.0000

> <Gold.PLP.ligand.torsion>
0.1049

> <Gold.PLP.Chemscore.Hbond>
2.0000

> <Gold.PLP.Chemscore.CHOScore>
0.0000

> <Gold.PLP.Chemscore.Metal>
0.0000

> <Gold.Chemscore.Hbonds>
donor molecule, donor type, donor heavy atom, donor atom, acceptor molecule, acceptor atom, score
      P1  H  7997  8010       L1    15  1.00
      P1  H 10752 10765       L1    12  1.00

> <Gold.PLP.Chemscore.Internal.Correction>
0.0073

> <Gold.Rescore>
     Score         DG    S(hbond)    S(metal)    S(lipo)     H(rot)  DE(clash)    DE(int)     intcor
     12.44     -14.02       1.95        0.00      55.89       1.76       0.01       1.57       ----

> <Gold.Chemscore.Fitness>
12.4368

> <Gold.Chemscore.DG>
-14.0237

> <Gold.Chemscore.ZeroCoef>
-5.4800

> <Gold.Chemscore.Hbond>
1.9461

> <Gold.Chemscore.Metal>
0.0000

> <Gold.Chemscore.Lipo>
55.8939

> <Gold.Chemscore.Internal_Hbond>
0.0000

> <Gold.Chemscore.DEClash>
0.0135

> <Gold.Chemscore.DEInternal>
1.5733

> <Gold.Chemscore.Rot>
1.7562

> <Gold.Chemscore.Internal.Correction>
   9.000000E+99

> <Gold.Chemscore.Hbonds>
donor molecule, donor type, donor heavy atom, donor atom, acceptor molecule, acceptor atom, score
      P1  H  7997  8010       L1    15  0.98
      P1  H 10752 10765       L1    12  1.00

> <Gold.Chemscore.Hbond.Weighted>
-6.4998

> <Gold.Chemscore.Metal.Weighted>
-0.0000

> <Gold.Chemscore.Lipo.Weighted>
-6.5396

> <Gold.Chemscore.Internal_Hbond.Weighted>
0.0000

> <Gold.Chemscore.DEClash.Weighted>
0.0135

> <Gold.Chemscore.DEInternal.Weighted>
1.5733

> <Gold.Chemscore.Rot.Weighted>
4.4958

> <Gold.Chemscore.Internal.Correction.Weighted>
   9.000000E+99

> <Gold.Protein.RotatedTorsions>
[ 6907 6896 6895 6894 ] final -122.02 input  -60.11 | X-H torsion
[ 7974 7965 7964 7962 ] final   89.12 input  175.53 | X-H torsion
[ 8008 7997 7996 7995 ] final   73.76 input   59.86 | X-H torsion
[ 10167 10162 10161 10158 ] final   10.87 input  -65.29 | X-H torsion
[ 10718 10713 10712 10709 ] final   76.86 input   66.30 | X-H torsion
[ 10763 10752 10751 10750 ] final -175.18 input  -60.55 | X-H torsion
[ 11005 11000 10999 10996 ] final   28.35 input  -57.11 | X-H torsion

> <Gold.Protein.ActiveResidues>
 VAL166  LYS551  ARG553  GLY616  TRP617  ASP618  TYR619  PRO620  LYS621  CYS622 
 ASP623  PHE694  ASN695  SER759  ASP760  ASP761  ALA762  ILE779  LEU786  VAL792 
 PHE793  MET794  SER795  GLU796  ALA797  LYS798  CYS799  TRP800  GLU811  SER814 

> <Gold.Protein.RotatedAtoms>
  150.8537  133.7748  159.3016 H   0  0  0  0  0  0  0  0  0  0  0  0  # atno 6907 bound_to 6896
  151.5412  135.1067  159.9936 H   0  0  0  0  0  0  0  0  0  0  0  0  # atno 6908 bound_to 6896
  152.4573  133.7705  159.6852 H   0  0  0  0  0  0  0  0  0  0  0  0  # atno 6909 bound_to 6896
  145.5366  139.2286  143.2589 H   0  0  0  0  0  0  0  0  0  0  0  0  # atno 7974 bound_to 7965
  155.7883  140.3480  155.5335 H   0  0  0  0  0  0  0  0  0  0  0  0  # atno 8008 bound_to 7997
  155.8659  140.0979  157.1603 H   0  0  0  0  0  0  0  0  0  0  0  0  # atno 8009 bound_to 7997
  154.4014  140.1349  156.4005 H   0  0  0  0  0  0  0  0  0  0  0  0  # atno 8010 bound_to 7997
  140.6167  143.8292  150.7127 H   0  0  0  0  0  0  0  0  0  0  0  0  # atno 10167 bound_to 10162
  157.6689  130.9794  150.1558 H   0  0  0  0  0  0  0  0  0  0  0  0  # atno 10718 bound_to 10713
  154.5875  135.2842  155.0670 H   0  0  0  0  0  0  0  0  0  0  0  0  # atno 10763 bound_to 10752
  154.1983  135.6429  153.5083 H   0  0  0  0  0  0  0  0  0  0  0  0  # atno 10764 bound_to 10752
  153.0109  135.5463  154.6549 H   0  0  0  0  0  0  0  0  0  0  0  0  # atno 10765 bound_to 10752
  140.3165  134.2591  155.7724 H   0  0  0  0  0  0  0  0  0  0  0  0  # atno 11005 bound_to 11000
  146.2009  140.6184  142.9103 LP  0  0  0  0  0  0  0  0  0  0  0  0  # atno 17320 bound_to 7965
  144.7598  140.5396  143.6743 LP  0  0  0  0  0  0  0  0  0  0  0  0  # atno 17321 bound_to 7965
  140.1873  143.4065  152.1889 LP  0  0  0  0  0  0  0  0  0  0  0  0  # atno 17342 bound_to 10162
  139.5404  144.7251  151.4751 LP  0  0  0  0  0  0  0  0  0  0  0  0  # atno 17343 bound_to 10162
  156.2346  130.3685  149.8405 LP  0  0  0  0  0  0  0  0  0  0  0  0  # atno 17370 bound_to 10713
  156.6222  130.8631  151.3478 LP  0  0  0  0  0  0  0  0  0  0  0  0  # atno 17371 bound_to 10713
  141.2096  133.7743  156.9984 LP  0  0  0  0  0  0  0  0  0  0  0  0  # atno 17394 bound_to 11000
  140.0979  134.9553  157.1877 LP  0  0  0  0  0  0  0  0  0  0  0  0  # atno 17395 bound_to 11000

$$$$
