AV-unprocessed.smi:2866|AV-procd|sdf|11019|dock4
  -GOLD-   2272015483D 1   1.00000     0.00000
 Structure written by MMmdl.
 41 43  0  0  0  0  0  0  0  0  1 V2000
  153.0893  142.9221  161.1913 C   0  0  0  0  0  0  0  0  0  0  0  0
  152.3894  142.5326  159.9010 C   0  0  0  0  0  0  0  0  0  0  0  0
  152.2837  141.1646  159.5627 C   0  0  0  0  0  0  0  0  0  0  0  0
  151.6404  140.7607  158.3723 C   0  0  0  0  0  0  0  0  0  0  0  0
  151.4259  139.4964  157.8502 N   0  0  0  0  0  0  0  0  0  0  0  0
  150.7752  139.7778  156.7249 C   0  0  0  0  0  0  0  0  0  0  0  0
  150.5390  141.0769  156.4581 N   0  0  0  0  0  0  0  0  0  0  0  0
  149.8513  141.6257  155.3030 C   0  0  0  0  0  0  0  0  0  0  0  0
  149.0906  140.5499  154.5051 C   0  0  2  0  0  0  0  0  0  0  0  0
  150.0084  139.7823  153.7485 O   0  0  0  0  0  0  0  0  0  0  0  0
  148.0275  141.1665  153.5762 C   0  0  0  0  0  0  0  0  0  0  0  0
  147.0460  141.9555  154.3005 N   0  0  0  0  0  0  0  0  0  0  0  0
  146.1775  142.9032  153.8043 C   0  0  0  0  0  0  0  0  0  0  0  0
  145.4518  143.3790  154.8582 C   0  0  0  0  0  0  0  0  0  0  0  0
  145.9496  142.6523  155.9789 C   0  0  0  0  0  0  0  0  0  0  0  0
  145.5259  142.7526  157.4207 C   0  0  0  0  0  0  0  0  0  0  0  0
  146.5612  143.1054  158.1828 F   0  0  0  0  0  0  0  0  0  0  0  0
  144.5662  143.6685  157.5511 F   0  0  0  0  0  0  0  0  0  0  0  0
  145.0643  141.5757  157.8429 F   0  0  0  0  0  0  0  0  0  0  0  0
  146.9028  141.7970  155.6334 N   0  0  0  0  0  0  0  0  0  0  0  0
  151.1010  141.7710  157.5235 C   0  0  0  0  0  0  0  0  0  0  0  0
  151.2014  143.1352  157.8481 C   0  0  0  0  0  0  0  0  0  0  0  0
  151.8481  143.5215  159.0407 C   0  0  0  0  0  0  0  0  0  0  0  0
  151.9524  144.9974  159.3821 C   0  0  0  0  0  0  0  0  0  0  0  0
  153.4187  142.0435  161.7467 H   0  0  0  0  0  0  0  0  0  0  0  0
  152.4179  143.4909  161.8348 H   0  0  0  0  0  0  0  0  0  0  0  0
  153.9671  143.5328  160.9790 H   0  0  0  0  0  0  0  0  0  0  0  0
  152.6969  140.4113  160.2172 H   0  0  0  0  0  0  0  0  0  0  0  0
  150.4470  138.9941  156.0576 H   0  0  0  0  0  0  0  0  0  0  0  0
  149.1607  142.3935  155.6538 H   0  0  0  0  0  0  0  0  0  0  0  0
  150.5808  142.1284  154.6661 H   0  0  0  0  0  0  0  0  0  0  0  0
  148.5960  139.8745  155.2043 H   0  0  0  0  0  0  0  0  0  0  0  0
  149.6799  139.7074  152.8656 H   0  0  0  0  0  0  0  0  0  0  0  0
  148.5048  141.8179  152.8433 H   0  0  0  0  0  0  0  0  0  0  0  0
  147.5141  140.3865  153.0113 H   0  0  0  0  0  0  0  0  0  0  0  0
  146.1509  143.1593  152.7554 H   0  0  0  0  0  0  0  0  0  0  0  0
  144.6807  144.1348  154.8337 H   0  0  0  0  0  0  0  0  0  0  0  0
  150.7836  143.8773  157.1842 H   0  0  0  0  0  0  0  0  0  0  0  0
  151.4942  145.6174  158.6111 H   0  0  0  0  0  0  0  0  0  0  0  0
  152.9970  145.2955  159.4737 H   0  0  0  0  0  0  0  0  0  0  0  0
  151.4472  145.2082  160.3249 H   0  0  0  0  0  0  0  0  0  0  0  0
  1  2  1  0  0  0  0
  1 25  1  0  0  0  0
  1 26  1  0  0  0  0
  1 27  1  0  0  0  0
  2 23  1  0  0  0  0
  2  3  2  0  0  0  0
  3  4  1  0  0  0  0
  3 28  1  0  0  0  0
  4 21  2  0  0  0  0
  4  5  1  0  0  0  0
  5  6  2  0  0  0  0
  6  7  1  0  0  0  0
  6 29  1  0  0  0  0
  7  8  1  0  0  0  0
  7 21  1  0  0  0  0
  8  9  1  0  0  0  0
  8 30  1  0  0  0  0
  8 31  1  0  0  0  0
  9 10  1  0  0  0  0
  9 11  1  0  0  0  0
  9 32  1  0  0  0  0
 10 33  1  0  0  0  0
 11 12  1  0  0  0  0
 11 34  1  0  0  0  0
 11 35  1  0  0  0  0
 12 20  1  0  0  0  0
 12 13  1  0  0  0  0
 13 14  2  0  0  0  0
 13 36  1  0  0  0  0
 14 15  1  0  0  0  0
 14 37  1  0  0  0  0
 15 16  1  0  0  0  0
 15 20  2  0  0  0  0
 16 17  1  0  0  0  0
 16 18  1  0  0  0  0
 16 19  1  0  0  0  0
 21 22  1  0  0  0  0
 22 23  2  0  0  0  0
 22 38  1  0  0  0  0
 23 24  1  0  0  0  0
 24 39  1  0  0  0  0
 24 40  1  0  0  0  0
 24 41  1  0  0  0  0
M  END
> <s_m_source_file>
AV-unprocessed.smi

> <i_m_source_file_index>
2866

> <i_lp_mmshare_version>
43012

> <i_f3d_flags>
0

> <s_epik_input>
W0NIM11jKFtjSF0xKWMoW0NIM10pW2NIXWMoYzEyKW4oW2NIXW4yKVtDSDJdW0NASF0oW09IXSlbQ0gyXW4zW2NIXVtjSF1jKG4zKUMoRikoRilG

> <s_epik_cmdline>
J2VwaWtfcHl0aG9uJywgJy1waCcsICc3LjAnLCAnLXRuJywgJzgnLCAnLW1hJywgJzIwMCcsICctbWV0YWxfYmluZGluZycsICctaW1hZScsICc8aW5maWxlLm1hZT4nLCAnLW9tYWUnLCAnPG91dGZpbGUubWFlPic=

> <r_lp_tautomer_probability>
1

> <r_epik_Ionization_Penalty>
0.1021

> <r_epik_Ionization_Penalty_Charging>
0

> <r_epik_Ionization_Penalty_Neutral>
0.1021

> <r_epik_State_Penalty>
0.0920694

> <r_epik_Charging_Adjusted_Penalty>
0.0920694

> <i_epik_Tot_Q>
0

> <i_epik_Tot_abs_Q>
0

> <r_epik_Metal_State_Penalty>
0.0784291

> <b_epik_Metal_Only>
0

> <s_lp_Force_Field>
OPLS_2005

> <r_lp_Energy>
11.3604

> <b_lp_Chiralities_Consistent>
1

> <s_lp_Variant>
AV-unprocessed.smi:2866-1

> <Gold.Version>
5.8.1

> <Gold.Id.Protein>
6NUR|6NUR_protein|mol2

> <Gold.PLP.Fitness>
56.6741

> <Gold.PLP.PLP>
-52.0732

> <Gold.PLP.part.hbond>
-2.0000

> <Gold.PLP.part.metal>
0.0000

> <Gold.PLP.part.buried>
-5.6291

> <Gold.PLP.part.nonpolar>
-44.2516

> <Gold.PLP.part.repulsive>
0.1170

> <Gold.PLP.ligand.clash>
0.0000

> <Gold.PLP.ligand.torsion>
0.5402

> <Gold.PLP.Chemscore.Hbond>
1.8640

> <Gold.PLP.Chemscore.CHOScore>
0.0000

> <Gold.PLP.Chemscore.Metal>
0.0000

> <Gold.Chemscore.Hbonds>
donor molecule, donor type, donor heavy atom, donor atom, acceptor molecule, acceptor atom, score
      L1  H    10    33       P1  7957  1.00
      P1  H  7989  7998       L1    10  0.85

> <Gold.PLP.Chemscore.Internal.Correction>
0.0893

> <Gold.Rescore>
     Score         DG    S(hbond)    S(metal)    S(lipo)     H(rot)  DE(clash)    DE(int)     intcor
     15.66     -17.48       1.23        0.00     120.59       2.42       0.17       1.64       ----

> <Gold.Chemscore.Fitness>
15.6634

> <Gold.Chemscore.DG>
-17.4777

> <Gold.Chemscore.ZeroCoef>
-5.4800

> <Gold.Chemscore.Hbond>
1.2260

> <Gold.Chemscore.Metal>
0.0000

> <Gold.Chemscore.Lipo>
120.5894

> <Gold.Chemscore.Internal_Hbond>
0.0000

> <Gold.Chemscore.DEClash>
0.1731

> <Gold.Chemscore.DEInternal>
1.6411

> <Gold.Chemscore.Rot>
2.4243

> <Gold.Chemscore.Internal.Correction>
   9.000000E+99

> <Gold.Chemscore.Hbonds>
donor molecule, donor type, donor heavy atom, donor atom, acceptor molecule, acceptor atom, score
      L1  H    10    33       P1  7957  0.99
      P1  H  7989  7998       L1    10  0.16

> <Gold.Chemscore.Hbond.Weighted>
-4.0950

> <Gold.Chemscore.Metal.Weighted>
-0.0000

> <Gold.Chemscore.Lipo.Weighted>
-14.1090

> <Gold.Chemscore.Internal_Hbond.Weighted>
0.0000

> <Gold.Chemscore.DEClash.Weighted>
0.1731

> <Gold.Chemscore.DEInternal.Weighted>
1.6411

> <Gold.Chemscore.Rot.Weighted>
6.2063

> <Gold.Chemscore.Internal.Correction.Weighted>
   9.000000E+99

> <Gold.Protein.RotatedTorsions>
[ 6907 6896 6895 6894 ] final  -79.29 input  -60.11 | X-H torsion
[ 7974 7965 7964 7962 ] final    3.63 input  175.53 | X-H torsion
[ 8008 7997 7996 7995 ] final   32.65 input   59.86 | X-H torsion
[ 10167 10162 10161 10158 ] final  -25.46 input  -65.29 | X-H torsion
[ 10718 10713 10712 10709 ] final -131.11 input   66.30 | X-H torsion
[ 10763 10752 10751 10750 ] final  -39.89 input  -60.55 | X-H torsion
[ 11005 11000 10999 10996 ] final   56.59 input  -57.11 | X-H torsion

> <Gold.Protein.ActiveResidues>
 VAL166  LYS551  ARG553  GLY616  TRP617  ASP618  TYR619  PRO620  LYS621  CYS622 
 ASP623  PHE694  ASN695  SER759  ASP760  ASP761  ALA762  ILE779  LEU786  VAL792 
 PHE793  MET794  SER795  GLU796  ALA797  LYS798  CYS799  TRP800  GLU811  SER814 

> <Gold.Protein.RotatedAtoms>
  150.6953  134.4143  159.5175 H   0  0  0  0  0  0  0  0  0  0  0  0  # atno 6907 bound_to 6896
  152.1896  134.8680  160.0528 H   0  0  0  0  0  0  0  0  0  0  0  0  # atno 6908 bound_to 6896
  151.9640  133.3669  159.4083 H   0  0  0  0  0  0  0  0  0  0  0  0  # atno 6909 bound_to 6896
  146.2445  140.0656  142.8365 H   0  0  0  0  0  0  0  0  0  0  0  0  # atno 7974 bound_to 7965
  155.1258  140.3252  155.4486 H   0  0  0  0  0  0  0  0  0  0  0  0  # atno 8008 bound_to 7997
  156.2649  140.2019  156.6328 H   0  0  0  0  0  0  0  0  0  0  0  0  # atno 8009 bound_to 7997
  154.6649  140.0543  157.0089 H   0  0  0  0  0  0  0  0  0  0  0  0  # atno 8010 bound_to 7997
  140.7286  143.4263  151.0871 H   0  0  0  0  0  0  0  0  0  0  0  0  # atno 10167 bound_to 10162
  156.2211  130.6979  151.0757 H   0  0  0  0  0  0  0  0  0  0  0  0  # atno 10718 bound_to 10713
  153.9370  135.6765  153.4745 H   0  0  0  0  0  0  0  0  0  0  0  0  # atno 10763 bound_to 10752
  153.0951  135.4855  154.8760 H   0  0  0  0  0  0  0  0  0  0  0  0  # atno 10764 bound_to 10752
  154.7398  135.3158  154.8706 H   0  0  0  0  0  0  0  0  0  0  0  0  # atno 10765 bound_to 10752
  140.0517  134.5727  155.9256 H   0  0  0  0  0  0  0  0  0  0  0  0  # atno 11005 bound_to 11000
  145.0861  140.9254  143.4796 LP  0  0  0  0  0  0  0  0  0  0  0  0  # atno 17320 bound_to 7965
  145.0819  139.2953  143.5779 LP  0  0  0  0  0  0  0  0  0  0  0  0  # atno 17321 bound_to 7965
  139.7915  143.8212  152.3152 LP  0  0  0  0  0  0  0  0  0  0  0  0  # atno 17342 bound_to 10162
  139.8197  144.7301  150.9588 LP  0  0  0  0  0  0  0  0  0  0  0  0  # atno 17343 bound_to 10162
  157.7088  131.0744  150.6575 LP  0  0  0  0  0  0  0  0  0  0  0  0  # atno 17370 bound_to 10713
  156.6638  130.4520  149.5679 LP  0  0  0  0  0  0  0  0  0  0  0  0  # atno 17371 bound_to 10713
  141.1933  133.6578  156.5543 LP  0  0  0  0  0  0  0  0  0  0  0  0  # atno 17394 bound_to 11000
  140.3907  134.7443  157.4720 LP  0  0  0  0  0  0  0  0  0  0  0  0  # atno 17395 bound_to 11000

$$$$
