AV-unprocessed.smi:3181|AV-procd|sdf|12143|dock3
  -GOLD-   2272017583D 1   1.00000     0.00000
 Structure written by MMmdl.
 42 43  0  0  0  0  0  0  0  0  2 V2000
  149.6305  140.8863  156.9719 C   0  0  0  0  0  0  0  0  0  0  0  0
  150.7196  141.5896  156.1448 C   0  0  2  0  0  0  0  0  0  0  0  0
  152.0190  140.7563  156.0570 C   0  0  0  0  0  0  0  0  0  0  0  0
  151.8049  139.4334  155.5005 N   0  0  0  0  0  0  0  0  0  0  0  0
  152.2390  138.2381  155.9044 C   0  0  0  0  0  0  0  0  0  0  0  0
  151.8433  137.2368  155.1314 N   0  0  0  0  0  0  0  0  0  0  0  0
  151.1272  137.9350  154.2005 C   0  0  0  0  0  0  0  0  0  0  0  0
  151.0750  139.2558  154.3745 N   0  0  0  0  0  0  0  0  0  0  0  0
  150.9873  142.9253  156.7276 N   0  3  0  0  0  0  0  0  0  0  0  0
  151.0827  142.9920  158.2046 C   0  0  2  0  0  0  0  0  0  0  0  0
  151.3244  144.4451  158.6408 C   0  0  0  0  0  0  0  0  0  0  0  0
  151.4500  144.5523  160.1665 C   0  0  0  0  0  0  0  0  0  0  0  0
  152.5752  143.6536  160.7179 C   0  0  1  0  0  0  0  0  0  0  0  0
  152.6656  143.8094  162.2464 C   0  0  0  0  0  0  0  0  0  0  0  0
  152.3673  142.1827  160.2696 C   0  0  2  0  0  0  0  0  0  0  0  0
  153.4981  141.2490  160.7372 C   0  0  0  0  0  0  0  0  0  0  0  0
  152.2174  142.0934  158.7361 C   0  0  0  0  0  0  0  0  0  0  0  0
  149.3387  139.9350  156.5262 H   0  0  0  0  0  0  0  0  0  0  0  0
  148.7308  141.4991  157.0364 H   0  0  0  0  0  0  0  0  0  0  0  0
  149.9703  140.6868  157.9890 H   0  0  0  0  0  0  0  0  0  0  0  0
  150.3193  141.7228  155.1399 H   0  0  0  0  0  0  0  0  0  0  0  0
  152.7667  141.2562  155.4411 H   0  0  0  0  0  0  0  0  0  0  0  0
  152.4603  140.6429  157.0483 H   0  0  0  0  0  0  0  0  0  0  0  0
  152.8523  138.0963  156.7824 H   0  0  0  0  0  0  0  0  0  0  0  0
  150.6300  137.4559  153.3700 H   0  0  0  0  0  0  0  0  0  0  0  0
  151.8601  143.2691  156.3530 H   0  0  0  0  0  0  0  0  0  0  0  0
  150.1378  142.6650  158.6388 H   0  0  0  0  0  0  0  0  0  0  0  0
  152.2319  144.8308  158.1738 H   0  0  0  0  0  0  0  0  0  0  0  0
  150.5060  145.0794  158.2977 H   0  0  0  0  0  0  0  0  0  0  0  0
  151.6357  145.5916  160.4403 H   0  0  0  0  0  0  0  0  0  0  0  0
  150.5000  144.2794  160.6285 H   0  0  0  0  0  0  0  0  0  0  0  0
  153.5175  144.0069  160.2964 H   0  0  0  0  0  0  0  0  0  0  0  0
  151.7797  143.4087  162.7397 H   0  0  0  0  0  0  0  0  0  0  0  0
  152.7539  144.8594  162.5270 H   0  0  0  0  0  0  0  0  0  0  0  0
  153.5376  143.3003  162.6559 H   0  0  0  0  0  0  0  0  0  0  0  0
  151.4389  141.8202  160.7140 H   0  0  0  0  0  0  0  0  0  0  0  0
  154.4705  141.5977  160.3880 H   0  0  0  0  0  0  0  0  0  0  0  0
  153.3531  140.2376  160.3566 H   0  0  0  0  0  0  0  0  0  0  0  0
  153.5385  141.1733  161.8235 H   0  0  0  0  0  0  0  0  0  0  0  0
  152.0360  141.0551  158.4583 H   0  0  0  0  0  0  0  0  0  0  0  0
  153.1589  142.3753  158.2618 H   0  0  0  0  0  0  0  0  0  0  0  0
  150.2484  143.5439  156.4250 H   0  0  0  0  0  0  0  0  0  0  0  0
  1  2  1  0  0  0  0
  1 18  1  0  0  0  0
  1 19  1  0  0  0  0
  1 20  1  0  0  0  0
  2  3  1  0  0  0  0
  2  9  1  0  0  0  0
  2 21  1  0  0  0  0
  3  4  1  0  0  0  0
  3 22  1  0  0  0  0
  3 23  1  0  0  0  0
  4  8  1  0  0  0  0
  4  5  1  0  0  0  0
  5  6  2  0  0  0  0
  5 24  1  0  0  0  0
  6  7  1  0  0  0  0
  7  8  2  0  0  0  0
  7 25  1  0  0  0  0
  9 10  1  0  0  0  0
  9 26  1  0  0  0  0
  9 42  1  0  0  0  0
 10 17  1  0  0  0  0
 10 11  1  0  0  0  0
 10 27  1  0  0  0  0
 11 12  1  0  0  0  0
 11 28  1  0  0  0  0
 11 29  1  0  0  0  0
 12 13  1  0  0  0  0
 12 30  1  0  0  0  0
 12 31  1  0  0  0  0
 13 14  1  0  0  0  0
 13 15  1  0  0  0  0
 13 32  1  0  0  0  0
 14 33  1  0  0  0  0
 14 34  1  0  0  0  0
 14 35  1  0  0  0  0
 15 16  1  0  0  0  0
 15 17  1  0  0  0  0
 15 36  1  0  0  0  0
 16 37  1  0  0  0  0
 16 38  1  0  0  0  0
 16 39  1  0  0  0  0
 17 40  1  0  0  0  0
 17 41  1  0  0  0  0
M  CHG  1   9   1
M  END
> <s_m_source_file>
AV-unprocessed.smi

> <i_m_source_file_index>
3181

> <i_lp_mmshare_version>
43012

> <i_f3d_flags>
0

> <s_epik_input>
bjFbY0hdbltjSF1uMVtDSDJdW0NAQEhdKFtDSDNdKVtOSF1bQ0BASF0yW0NIMl1bQ0gyXVtDQEBIXShbQ0gzXSlbQ0BASF0oW0NIM10pW0NIMl0y

> <s_epik_cmdline>
J2VwaWtfcHl0aG9uJywgJy1waCcsICc3LjAnLCAnLXRuJywgJzgnLCAnLW1hJywgJzIwMCcsICctbWV0YWxfYmluZGluZycsICctaW1hZScsICc8aW5maWxlLm1hZT4nLCAnLW9tYWUnLCAnPG91dGZpbGUubWFlPic=

> <r_lp_tautomer_probability>
1

> <r_epik_Ionization_Penalty>
0.000617007

> <r_epik_Ionization_Penalty_Charging>
0.000616215

> <r_epik_Ionization_Penalty_Neutral>
7.92544e-07

> <r_epik_State_Penalty>
0.000388807

> <r_epik_Charging_Adjusted_Penalty>
0.00100502

> <i_epik_Tot_Q>
1

> <i_epik_Tot_abs_Q>
1

> <r_epik_Metal_State_Penalty>
-0

> <b_epik_Metal_Only>
0

> <s_lp_Force_Field>
OPLS_2005

> <r_lp_Energy>
18.1842

> <b_lp_Chiralities_Consistent>
1

> <s_lp_Variant>
AV-unprocessed.smi:3181-9

> <Gold.Version>
5.8.1

> <Gold.Id.Protein>
6NUR|6NUR_protein|mol2

> <Gold.PLP.Fitness>
54.8315

> <Gold.PLP.PLP>
-40.4859

> <Gold.PLP.part.hbond>
-3.0000

> <Gold.PLP.part.metal>
0.0000

> <Gold.PLP.part.buried>
-5.7432

> <Gold.PLP.part.nonpolar>
-33.0838

> <Gold.PLP.part.repulsive>
0.2782

> <Gold.PLP.ligand.clash>
0.0000

> <Gold.PLP.ligand.torsion>
0.3296

> <Gold.PLP.Chemscore.Hbond>
3.8500

> <Gold.PLP.Chemscore.CHOScore>
1.1437

> <Gold.PLP.Chemscore.Metal>
0.0000

> <Gold.Chemscore.Hbonds>
donor molecule, donor type, donor heavy atom, donor atom, acceptor molecule, acceptor atom, score
      L1  H     9    42       P1  8028  2.00
      P1  H  7989  7998       L1     8  0.85
      P1  H 10752 10765       L1     6  0.98
      L1  C     7    25       P1  7948  0.50
      L1  C     7    25       P1  7949  0.65

> <Gold.PLP.Chemscore.Internal.Correction>
0.0238

> <Gold.Rescore>
     Score         DG    S(hbond)    S(metal)    S(lipo)     H(rot)  DE(clash)    DE(int)     intcor
     17.26     -19.66       2.24        0.00     103.49       2.11       0.96       1.43       ----

> <Gold.Chemscore.Fitness>
17.2648

> <Gold.Chemscore.DG>
-19.6592

> <Gold.Chemscore.ZeroCoef>
-5.4800

> <Gold.Chemscore.Hbond>
2.2367

> <Gold.Chemscore.Metal>
0.0000

> <Gold.Chemscore.Lipo>
103.4942

> <Gold.Chemscore.Internal_Hbond>
0.0000

> <Gold.Chemscore.DEClash>
0.9604

> <Gold.Chemscore.DEInternal>
1.4340

> <Gold.Chemscore.Rot>
2.1095

> <Gold.Chemscore.Internal.Correction>
   9.000000E+99

> <Gold.Chemscore.Hbonds>
donor molecule, donor type, donor heavy atom, donor atom, acceptor molecule, acceptor atom, score
      L1  H     9    42       P1  8028  0.99
      P1  H  7989  7998       L1     8  0.15
      P1  H 10752 10765       L1     6  0.85

> <Gold.Chemscore.Hbond.Weighted>
-7.4707

> <Gold.Chemscore.Metal.Weighted>
-0.0000

> <Gold.Chemscore.Lipo.Weighted>
-12.1088

> <Gold.Chemscore.Internal_Hbond.Weighted>
0.0000

> <Gold.Chemscore.DEClash.Weighted>
0.9604

> <Gold.Chemscore.DEInternal.Weighted>
1.4340

> <Gold.Chemscore.Rot.Weighted>
5.4003

> <Gold.Chemscore.Internal.Correction.Weighted>
   9.000000E+99

> <Gold.Protein.RotatedTorsions>
[ 6907 6896 6895 6894 ] final   55.87 input  -60.11 | X-H torsion
[ 7974 7965 7964 7962 ] final -108.96 input  175.53 | X-H torsion
[ 8008 7997 7996 7995 ] final  -61.40 input   59.86 | X-H torsion
[ 10167 10162 10161 10158 ] final  -72.12 input  -65.29 | X-H torsion
[ 10718 10713 10712 10709 ] final   -8.28 input   66.30 | X-H torsion
[ 10763 10752 10751 10750 ] final  179.63 input  -60.55 | X-H torsion
[ 11005 11000 10999 10996 ] final -104.12 input  -57.11 | X-H torsion

> <Gold.Protein.ActiveResidues>
 VAL166  LYS551  ARG553  GLY616  TRP617  ASP618  TYR619  PRO620  LYS621  CYS622 
 ASP623  PHE694  ASN695  SER759  ASP760  ASP761  ALA762  ILE779  LEU786  VAL792 
 PHE793  MET794  SER795  GLU796  ALA797  LYS798  CYS799  TRP800  GLU811  SER814 

> <Gold.Protein.RotatedAtoms>
  152.3581  134.6912  160.0215 H   0  0  0  0  0  0  0  0  0  0  0  0  # atno 6907 bound_to 6896
  151.7244  133.3310  159.3332 H   0  0  0  0  0  0  0  0  0  0  0  0  # atno 6908 bound_to 6896
  150.7585  134.6353  159.6253 H   0  0  0  0  0  0  0  0  0  0  0  0  # atno 6909 bound_to 6896
  145.1864  140.8994  143.3450 H   0  0  0  0  0  0  0  0  0  0  0  0  # atno 7974 bound_to 7965
  154.4446  140.1018  156.6425 H   0  0  0  0  0  0  0  0  0  0  0  0  # atno 8008 bound_to 7997
  155.5486  140.3485  155.4444 H   0  0  0  0  0  0  0  0  0  0  0  0  # atno 8009 bound_to 7997
  156.0545  140.1312  157.0001 H   0  0  0  0  0  0  0  0  0  0  0  0  # atno 8010 bound_to 7997
  140.5218  143.2331  151.7416 H   0  0  0  0  0  0  0  0  0  0  0  0  # atno 10167 bound_to 10162
  156.7049  130.5104  149.5907 H   0  0  0  0  0  0  0  0  0  0  0  0  # atno 10718 bound_to 10713
  154.5232  135.2795  155.1245 H   0  0  0  0  0  0  0  0  0  0  0  0  # atno 10763 bound_to 10752
  154.2794  135.6288  153.5345 H   0  0  0  0  0  0  0  0  0  0  0  0  # atno 10764 bound_to 10752
  152.9941  135.5647  154.5726 H   0  0  0  0  0  0  0  0  0  0  0  0  # atno 10765 bound_to 10752
  141.1115  133.8697  157.1571 H   0  0  0  0  0  0  0  0  0  0  0  0  # atno 11005 bound_to 11000
  145.0085  139.3532  143.6132 LP  0  0  0  0  0  0  0  0  0  0  0  0  # atno 17320 bound_to 7965
  146.3444  139.9338  142.8750 LP  0  0  0  0  0  0  0  0  0  0  0  0  # atno 17321 bound_to 7965
  139.4926  144.4243  151.9943 LP  0  0  0  0  0  0  0  0  0  0  0  0  # atno 17342 bound_to 10162
  140.3340  144.3282  150.5981 LP  0  0  0  0  0  0  0  0  0  0  0  0  # atno 17343 bound_to 10162
  156.1702  130.6432  151.0828 LP  0  0  0  0  0  0  0  0  0  0  0  0  # atno 17370 bound_to 10713
  157.6959  131.0794  150.6971 LP  0  0  0  0  0  0  0  0  0  0  0  0  # atno 17371 bound_to 10713
  140.0011  135.0027  157.0192 LP  0  0  0  0  0  0  0  0  0  0  0  0  # atno 17394 bound_to 11000
  140.4763  134.1335  155.7210 LP  0  0  0  0  0  0  0  0  0  0  0  0  # atno 17395 bound_to 11000

$$$$
