AV-unprocessed.smi:1308|AV-procd|sdf|5439|dock4
  -GOLD-   22720 5 03D 1   1.00000     0.00000
 Structure written by MMmdl.
 45 45  0  0  0  0  0  0  0  0  1 V2000
  153.6862  142.6879  163.8716 C   0  0  0  0  0  0  0  0  0  0  0  0
  153.2420  142.7587  162.4258 C   0  0  0  0  0  0  0  0  0  0  0  0
  152.3535  143.5869  161.9843 N   0  0  0  0  0  0  0  0  0  0  0  0
  152.0220  143.5579  160.6225 C   0  0  0  0  0  0  0  0  0  0  0  0
  150.9695  144.5610  160.1830 C   0  0  0  0  0  0  0  0  0  0  0  0
  152.6124  142.6788  159.7604 C   0  0  0  0  0  0  0  0  0  0  0  0
  152.2687  142.6182  158.2722 C   0  0  0  0  0  0  0  0  0  0  0  0
  151.7960  141.2567  157.7602 C   0  0  0  0  0  0  0  0  0  0  0  0
  152.5687  140.2990  157.7647 O   0  0  0  0  0  0  0  0  0  0  0  0
  150.5260  141.1936  157.3241 N   0  0  0  0  0  0  0  0  0  0  0  0
  149.8377  140.0363  156.7470 C   0  0  1  0  0  0  0  0  0  0  0  0
  148.7873  139.4649  157.7160 C   0  0  0  0  0  0  0  0  0  0  0  0
  149.2537  140.3193  155.3450 C   0  0  0  0  0  0  0  0  0  0  0  0
  147.8892  141.0360  155.3728 C   0  0  0  0  0  0  0  0  0  0  0  0
  147.4517  141.6159  154.0119 C   0  0  0  0  0  0  0  0  0  0  0  0
  146.3630  142.6941  154.1492 C   0  0  0  0  0  0  0  0  0  0  0  0
  146.9771  140.4956  153.0740 C   0  0  0  0  0  0  0  0  0  0  0  0
  153.6233  141.7354  160.2764 C   0  0  0  0  0  0  0  0  0  0  0  0
  154.2048  140.8943  159.5927 O   0  0  0  0  0  0  0  0  0  0  0  0
  153.8834  141.8379  161.5991 N   0  0  0  0  0  0  0  0  0  0  0  0
  154.5687  141.2142  162.0000 H   0  0  0  0  0  0  0  0  0  0  0  0
  152.8399  142.4375  164.5116 H   0  0  0  0  0  0  0  0  0  0  0  0
  154.0828  143.6522  164.1901 H   0  0  0  0  0  0  0  0  0  0  0  0
  154.4610  141.9341  164.0194 H   0  0  0  0  0  0  0  0  0  0  0  0
  151.3766  145.2428  159.4363 H   0  0  0  0  0  0  0  0  0  0  0  0
  150.6174  145.1596  161.0239 H   0  0  0  0  0  0  0  0  0  0  0  0
  150.1068  144.0507  159.7547 H   0  0  0  0  0  0  0  0  0  0  0  0
  151.4917  143.3540  158.0633 H   0  0  0  0  0  0  0  0  0  0  0  0
  153.1170  142.9368  157.6655 H   0  0  0  0  0  0  0  0  0  0  0  0
  149.9824  142.0429  157.3835 H   0  0  0  0  0  0  0  0  0  0  0  0
  150.6068  139.2722  156.6302 H   0  0  0  0  0  0  0  0  0  0  0  0
  148.3845  138.5234  157.3418 H   0  0  0  0  0  0  0  0  0  0  0  0
  147.9479  140.1467  157.8535 H   0  0  0  0  0  0  0  0  0  0  0  0
  149.2221  139.2686  158.6964 H   0  0  0  0  0  0  0  0  0  0  0  0
  149.9692  140.9333  154.7988 H   0  0  0  0  0  0  0  0  0  0  0  0
  149.1675  139.3911  154.7795 H   0  0  0  0  0  0  0  0  0  0  0  0
  147.1285  140.3283  155.7044 H   0  0  0  0  0  0  0  0  0  0  0  0
  147.9076  141.8294  156.1210 H   0  0  0  0  0  0  0  0  0  0  0  0
  148.3233  142.0780  153.5463 H   0  0  0  0  0  0  0  0  0  0  0  0
  145.4814  142.3056  154.6597 H   0  0  0  0  0  0  0  0  0  0  0  0
  146.0462  143.0554  153.1706 H   0  0  0  0  0  0  0  0  0  0  0  0
  146.7191  143.5598  154.7069 H   0  0  0  0  0  0  0  0  0  0  0  0
  146.1047  139.9821  153.4798 H   0  0  0  0  0  0  0  0  0  0  0  0
  147.7593  139.7516  152.9206 H   0  0  0  0  0  0  0  0  0  0  0  0
  146.7057  140.8901  152.0945 H   0  0  0  0  0  0  0  0  0  0  0  0
  1  2  1  0  0  0  0
  1 22  1  0  0  0  0
  1 23  1  0  0  0  0
  1 24  1  0  0  0  0
  2 20  1  0  0  0  0
  2  3  2  0  0  0  0
  3  4  1  0  0  0  0
  4  5  1  0  0  0  0
  4  6  2  0  0  0  0
  5 25  1  0  0  0  0
  5 26  1  0  0  0  0
  5 27  1  0  0  0  0
  6  7  1  0  0  0  0
  6 18  1  0  0  0  0
  7  8  1  0  0  0  0
  7 28  1  0  0  0  0
  7 29  1  0  0  0  0
  8  9  2  0  0  0  0
  8 10  1  0  0  0  0
 10 11  1  0  0  0  0
 10 30  1  0  0  0  0
 11 12  1  0  0  0  0
 11 13  1  0  0  0  0
 11 31  1  0  0  0  0
 12 32  1  0  0  0  0
 12 33  1  0  0  0  0
 12 34  1  0  0  0  0
 13 14  1  0  0  0  0
 13 35  1  0  0  0  0
 13 36  1  0  0  0  0
 14 15  1  0  0  0  0
 14 37  1  0  0  0  0
 14 38  1  0  0  0  0
 15 16  1  0  0  0  0
 15 17  1  0  0  0  0
 15 39  1  0  0  0  0
 16 40  1  0  0  0  0
 16 41  1  0  0  0  0
 16 42  1  0  0  0  0
 17 43  1  0  0  0  0
 17 44  1  0  0  0  0
 17 45  1  0  0  0  0
 18 19  2  0  0  0  0
 18 20  1  0  0  0  0
 20 21  1  0  0  0  0
M  END
> <s_m_source_file>
AV-unprocessed.smi

> <i_m_source_file_index>
1308

> <i_lp_mmshare_version>
43012

> <i_f3d_flags>
0

> <s_epik_input>
W0NIM11jMW5jKFtDSDNdKWMoYyg9TylbbkhdMSlbQ0gyXUMoPU8pW05IXVtDQEhdKFtDSDNdKVtDSDJdW0NIMl1bQ0hdKFtDSDNdKVtDSDNd

> <s_epik_cmdline>
J2VwaWtfcHl0aG9uJywgJy1waCcsICc3LjAnLCAnLXRuJywgJzgnLCAnLW1hJywgJzIwMCcsICctbWV0YWxfYmluZGluZycsICctaW1hZScsICc8aW5maWxlLm1hZT4nLCAnLW9tYWUnLCAnPG91dGZpbGUubWFlPic=

> <r_lp_tautomer_probability>
0.839158

> <r_epik_Ionization_Penalty>
0.000390633

> <r_epik_Ionization_Penalty_Charging>
0.00035831

> <r_epik_Ionization_Penalty_Neutral>
3.23235e-05

> <r_epik_State_Penalty>
0.0470222

> <r_epik_Charging_Adjusted_Penalty>
0.0473805

> <i_epik_Tot_Q>
0

> <i_epik_Tot_abs_Q>
0

> <r_epik_Metal_State_Penalty>
0.223807

> <b_epik_Metal_Only>
0

> <s_lp_Force_Field>
OPLS_2005

> <r_lp_Energy>
7.09032

> <b_lp_Chiralities_Consistent>
1

> <s_lp_Variant>
AV-unprocessed.smi:1308-2

> <Gold.Version>
5.8.1

> <Gold.Id.Protein>
6NUR|6NUR_protein|mol2

> <Gold.PLP.Fitness>
42.9782

> <Gold.PLP.PLP>
-41.1762

> <Gold.PLP.part.hbond>
-1.8082

> <Gold.PLP.part.metal>
0.0000

> <Gold.PLP.part.buried>
-5.6523

> <Gold.PLP.part.nonpolar>
-32.4486

> <Gold.PLP.part.repulsive>
0.1955

> <Gold.PLP.ligand.clash>
0.0000

> <Gold.PLP.ligand.torsion>
0.4571

> <Gold.PLP.Chemscore.Hbond>
0.8596

> <Gold.PLP.Chemscore.CHOScore>
0.0000

> <Gold.PLP.Chemscore.Metal>
0.0000

> <Gold.Chemscore.Hbonds>
donor molecule, donor type, donor heavy atom, donor atom, acceptor molecule, acceptor atom, score
      P1  H  7997  8010       L1     9  0.70

> <Gold.PLP.Chemscore.Internal.Correction>
0.1374

> <Gold.Rescore>
     Score         DG    S(hbond)    S(metal)    S(lipo)     H(rot)  DE(clash)    DE(int)     intcor
     11.03     -14.47       0.91        0.00      94.17       1.98       1.07       2.37       ----

> <Gold.Chemscore.Fitness>
11.0318

> <Gold.Chemscore.DG>
-14.4715

> <Gold.Chemscore.ZeroCoef>
-5.4800

> <Gold.Chemscore.Hbond>
0.9136

> <Gold.Chemscore.Metal>
0.0000

> <Gold.Chemscore.Lipo>
94.1708

> <Gold.Chemscore.Internal_Hbond>
0.0000

> <Gold.Chemscore.DEClash>
1.0665

> <Gold.Chemscore.DEInternal>
2.3732

> <Gold.Chemscore.Rot>
1.9835

> <Gold.Chemscore.Internal.Correction>
   9.000000E+99

> <Gold.Chemscore.Hbonds>
donor molecule, donor type, donor heavy atom, donor atom, acceptor molecule, acceptor atom, score
      P1  H  7997  8010       L1     9  0.67

> <Gold.Chemscore.Hbond.Weighted>
-3.0513

> <Gold.Chemscore.Metal.Weighted>
-0.0000

> <Gold.Chemscore.Lipo.Weighted>
-11.0180

> <Gold.Chemscore.Internal_Hbond.Weighted>
0.0000

> <Gold.Chemscore.DEClash.Weighted>
1.0665

> <Gold.Chemscore.DEInternal.Weighted>
2.3732

> <Gold.Chemscore.Rot.Weighted>
5.0778

> <Gold.Chemscore.Internal.Correction.Weighted>
   9.000000E+99

> <Gold.Protein.RotatedTorsions>
[ 6907 6896 6895 6894 ] final  150.22 input  -60.11 | X-H torsion
[ 7974 7965 7964 7962 ] final -126.77 input  175.53 | X-H torsion
[ 8008 7997 7996 7995 ] final   58.34 input   59.86 | X-H torsion
[ 10167 10162 10161 10158 ] final   24.89 input  -65.29 | X-H torsion
[ 10718 10713 10712 10709 ] final  -86.99 input   66.30 | X-H torsion
[ 10763 10752 10751 10750 ] final  -47.35 input  -60.55 | X-H torsion
[ 11005 11000 10999 10996 ] final  103.32 input  -57.11 | X-H torsion

> <Gold.Protein.ActiveResidues>
 VAL166  LYS551  ARG553  GLY616  TRP617  ASP618  TYR619  PRO620  LYS621  CYS622 
 ASP623  PHE694  ASN695  SER759  ASP760  ASP761  ALA762  ILE779  LEU786  VAL792 
 PHE793  MET794  SER795  GLU796  ALA797  LYS798  CYS799  TRP800  GLU811  SER814 

> <Gold.Protein.RotatedAtoms>
  152.1174  133.4334  159.4659 H   0  0  0  0  0  0  0  0  0  0  0  0  # atno 6907 bound_to 6896
  150.6870  134.2575  159.4545 H   0  0  0  0  0  0  0  0  0  0  0  0  # atno 6908 bound_to 6896
  152.0449  134.9688  160.0625 H   0  0  0  0  0  0  0  0  0  0  0  0  # atno 6909 bound_to 6896
  144.9838  140.7666  143.4596 H   0  0  0  0  0  0  0  0  0  0  0  0  # atno 7974 bound_to 7965
  155.5484  140.3486  155.4463 H   0  0  0  0  0  0  0  0  0  0  0  0  # atno 8008 bound_to 7997
  156.0601  140.1338  156.9977 H   0  0  0  0  0  0  0  0  0  0  0  0  # atno 8009 bound_to 7997
  154.4475  140.0987  156.6489 H   0  0  0  0  0  0  0  0  0  0  0  0  # atno 8010 bound_to 7997
  140.5151  144.0096  150.6390 H   0  0  0  0  0  0  0  0  0  0  0  0  # atno 10167 bound_to 10162
  155.9987  130.4784  150.4799 H   0  0  0  0  0  0  0  0  0  0  0  0  # atno 10718 bound_to 10713
  154.0599  135.6619  153.4810 H   0  0  0  0  0  0  0  0  0  0  0  0  # atno 10763 bound_to 10752
  153.0431  135.5132  154.7669 H   0  0  0  0  0  0  0  0  0  0  0  0  # atno 10764 bound_to 10752
  154.6702  135.3028  154.9719 H   0  0  0  0  0  0  0  0  0  0  0  0  # atno 10765 bound_to 10752
  139.8783  134.9258  156.5192 H   0  0  0  0  0  0  0  0  0  0  0  0  # atno 11005 bound_to 11000
  145.2382  139.2084  143.5006 LP  0  0  0  0  0  0  0  0  0  0  0  0  # atno 17320 bound_to 7965
  146.3415  140.2273  142.8592 LP  0  0  0  0  0  0  0  0  0  0  0  0  # atno 17321 bound_to 7965
  140.3429  143.3009  152.0569 LP  0  0  0  0  0  0  0  0  0  0  0  0  # atno 17342 bound_to 10162
  139.4907  144.6429  151.6839 LP  0  0  0  0  0  0  0  0  0  0  0  0  # atno 17343 bound_to 10162
  157.2805  131.0606  151.2200 LP  0  0  0  0  0  0  0  0  0  0  0  0  # atno 17370 bound_to 10713
  157.3248  130.6955  149.6290 LP  0  0  0  0  0  0  0  0  0  0  0  0  # atno 17371 bound_to 10713
  140.8463  133.8166  155.9124 LP  0  0  0  0  0  0  0  0  0  0  0  0  # atno 17394 bound_to 11000
  140.9188  134.2168  157.4940 LP  0  0  0  0  0  0  0  0  0  0  0  0  # atno 17395 bound_to 11000

$$$$
