AV-unprocessed.smi:1416|AV-procd|sdf|5764|dock5
  -GOLD-   22720 5403D 1   1.00000     0.00000
 Structure written by MMmdl.
 44 45  0  0  0  0  0  0  0  0  1 V2000
  152.1231  145.6215  159.6566 C   0  0  0  0  0  0  0  0  0  0  0  0
  152.4637  144.1321  159.5584 C   0  0  0  0  0  0  0  0  0  0  0  0
  152.4384  143.3343  161.1858 S   0  0  0  0  0  0  0  0  0  0  0  0
  153.4162  141.8506  160.8095 C   0  0  0  0  0  0  0  0  0  0  0  0
  152.7254  140.9387  159.7790 C   0  0  0  0  0  0  0  0  0  0  0  0
  153.4162  139.5827  159.5934 C   0  0  0  0  0  0  0  0  0  0  0  0
  153.9104  139.2743  158.5085 O   0  0  0  0  0  0  0  0  0  0  0  0
  153.4478  138.7817  160.6681 N   0  0  0  0  0  0  0  0  0  0  0  0
  154.0566  137.4573  160.6981 C   0  0  0  0  0  0  0  0  0  0  0  0
  153.8336  136.7268  162.0122 C   0  0  0  0  0  0  0  0  0  0  0  0
  153.4766  137.4182  163.1888 C   0  0  0  0  0  0  0  0  0  0  0  0
  153.3038  136.6782  164.3728 C   0  0  0  0  0  0  0  0  0  0  0  0
  153.4605  135.3397  164.4388 N   0  0  0  0  0  0  0  0  0  0  0  0
  153.8020  134.6626  163.3145 C   0  0  0  0  0  0  0  0  0  0  0  0
  153.9591  133.2617  163.3986 N   0  0  0  0  0  0  0  0  0  0  0  0
  154.4219  132.6038  162.1789 C   0  0  0  0  0  0  0  0  0  0  0  0
  154.8416  131.1541  162.4774 C   0  0  0  0  0  0  0  0  0  0  0  0
  153.7692  130.4603  163.1065 O   0  0  0  0  0  0  0  0  0  0  0  0
  153.4118  131.0552  164.3496 C   0  0  0  0  0  0  0  0  0  0  0  0
  152.9377  132.4994  164.1152 C   0  0  0  0  0  0  0  0  0  0  0  0
  154.0051  135.3288  162.0819 C   0  0  0  0  0  0  0  0  0  0  0  0
  152.1414  146.0894  158.6723 H   0  0  0  0  0  0  0  0  0  0  0  0
  152.8390  146.1476  160.2887 H   0  0  0  0  0  0  0  0  0  0  0  0
  151.1287  145.7704  160.0780 H   0  0  0  0  0  0  0  0  0  0  0  0
  151.7494  143.6282  158.9067 H   0  0  0  0  0  0  0  0  0  0  0  0
  153.4516  144.0026  159.1157 H   0  0  0  0  0  0  0  0  0  0  0  0
  154.4082  142.1491  160.4678 H   0  0  0  0  0  0  0  0  0  0  0  0
  153.5634  141.2991  161.7384 H   0  0  0  0  0  0  0  0  0  0  0  0
  151.7032  140.7421  160.1036 H   0  0  0  0  0  0  0  0  0  0  0  0
  152.6490  141.4559  158.8211 H   0  0  0  0  0  0  0  0  0  0  0  0
  153.0207  139.1083  161.5229 H   0  0  0  0  0  0  0  0  0  0  0  0
  153.6500  136.8674  159.8753 H   0  0  0  0  0  0  0  0  0  0  0  0
  155.1325  137.5365  160.5346 H   0  0  0  0  0  0  0  0  0  0  0  0
  153.3463  138.4903  163.1949 H   0  0  0  0  0  0  0  0  0  0  0  0
  153.0343  137.1749  165.2930 H   0  0  0  0  0  0  0  0  0  0  0  0
  153.6134  132.6141  161.4466 H   0  0  0  0  0  0  0  0  0  0  0  0
  155.2628  133.1297  161.7287 H   0  0  0  0  0  0  0  0  0  0  0  0
  155.1006  130.6410  161.5510 H   0  0  0  0  0  0  0  0  0  0  0  0
  155.7283  131.1294  163.1133 H   0  0  0  0  0  0  0  0  0  0  0  0
  152.6159  130.4688  164.8083 H   0  0  0  0  0  0  0  0  0  0  0  0
  154.2609  131.0307  165.0346 H   0  0  0  0  0  0  0  0  0  0  0  0
  152.7213  132.9682  165.0760 H   0  0  0  0  0  0  0  0  0  0  0  0
  152.0134  132.4990  163.5357 H   0  0  0  0  0  0  0  0  0  0  0  0
  154.3012  134.7839  161.1979 H   0  0  0  0  0  0  0  0  0  0  0  0
  1  2  1  0  0  0  0
  1 22  1  0  0  0  0
  1 23  1  0  0  0  0
  1 24  1  0  0  0  0
  2  3  1  0  0  0  0
  2 25  1  0  0  0  0
  2 26  1  0  0  0  0
  3  4  1  0  0  0  0
  4  5  1  0  0  0  0
  4 27  1  0  0  0  0
  4 28  1  0  0  0  0
  5  6  1  0  0  0  0
  5 29  1  0  0  0  0
  5 30  1  0  0  0  0
  6  7  2  0  0  0  0
  6  8  1  0  0  0  0
  8  9  1  0  0  0  0
  8 31  1  0  0  0  0
  9 10  1  0  0  0  0
  9 32  1  0  0  0  0
  9 33  1  0  0  0  0
 10 21  1  0  0  0  0
 10 11  2  0  0  0  0
 11 12  1  0  0  0  0
 11 34  1  0  0  0  0
 12 13  2  0  0  0  0
 12 35  1  0  0  0  0
 13 14  1  0  0  0  0
 14 15  1  0  0  0  0
 14 21  2  0  0  0  0
 15 20  1  0  0  0  0
 15 16  1  0  0  0  0
 16 17  1  0  0  0  0
 16 36  1  0  0  0  0
 16 37  1  0  0  0  0
 17 18  1  0  0  0  0
 17 38  1  0  0  0  0
 17 39  1  0  0  0  0
 18 19  1  0  0  0  0
 19 20  1  0  0  0  0
 19 40  1  0  0  0  0
 19 41  1  0  0  0  0
 20 42  1  0  0  0  0
 20 43  1  0  0  0  0
 21 44  1  0  0  0  0
M  END
> <s_m_source_file>
AV-unprocessed.smi

> <i_m_source_file_index>
1416

> <i_lp_mmshare_version>
43012

> <i_f3d_flags>
0

> <s_epik_input>
W0NIM11bQ0gyXVNbQ0gyXVtDSDJdQyg9TylbTkhdW0NIMl1jMVtjSF1bY0hdbmMoW2NIXTEpTjJbQ0gyXVtDSDJdT1tDSDJdW0NIMl0y

> <s_epik_cmdline>
J2VwaWtfcHl0aG9uJywgJy1waCcsICc3LjAnLCAnLXRuJywgJzgnLCAnLW1hJywgJzIwMCcsICctbWV0YWxfYmluZGluZycsICctaW1hZScsICc8aW5maWxlLm1hZT4nLCAnLW9tYWUnLCAnPG91dGZpbGUubWFlPic=

> <r_lp_tautomer_probability>
1

> <r_epik_Ionization_Penalty>
0.00571449

> <r_epik_Ionization_Penalty_Charging>
0

> <r_epik_Ionization_Penalty_Neutral>
0.00571449

> <r_epik_State_Penalty>
0.00419227

> <r_epik_Charging_Adjusted_Penalty>
0.00419227

> <i_epik_Tot_Q>
0

> <i_epik_Tot_abs_Q>
0

> <r_epik_Metal_State_Penalty>
-0

> <b_epik_Metal_Only>
0

> <s_lp_Force_Field>
OPLS_2005

> <r_lp_Energy>
16.5768

> <b_lp_Chiralities_Consistent>
1

> <s_lp_Variant>
AV-unprocessed.smi:1416-1

> <Gold.Version>
5.8.1

> <Gold.Id.Protein>
6NUR|6NUR_protein|mol2

> <Gold.PLP.Fitness>
44.4081

> <Gold.PLP.PLP>
-42.1405

> <Gold.PLP.part.hbond>
-1.0000

> <Gold.PLP.part.metal>
0.0000

> <Gold.PLP.part.buried>
-5.1660

> <Gold.PLP.part.nonpolar>
-36.2318

> <Gold.PLP.part.repulsive>
0.1239

> <Gold.PLP.ligand.clash>
0.0000

> <Gold.PLP.ligand.torsion>
0.5913

> <Gold.PLP.Chemscore.Hbond>
1.0000

> <Gold.PLP.Chemscore.CHOScore>
0.0000

> <Gold.PLP.Chemscore.Metal>
0.0000

> <Gold.Chemscore.Hbonds>
donor molecule, donor type, donor heavy atom, donor atom, acceptor molecule, acceptor atom, score
      P1  H  7997  8008       L1     7  1.00

> <Gold.PLP.Chemscore.Internal.Correction>
0.4501

> <Gold.Rescore>
     Score         DG    S(hbond)    S(metal)    S(lipo)     H(rot)  DE(clash)    DE(int)     intcor
     16.78     -17.36       0.99        0.00     114.04       1.87       0.03       0.55       ----

> <Gold.Chemscore.Fitness>
16.7789

> <Gold.Chemscore.DG>
-17.3575

> <Gold.Chemscore.ZeroCoef>
-5.4800

> <Gold.Chemscore.Hbond>
0.9950

> <Gold.Chemscore.Metal>
0.0000

> <Gold.Chemscore.Lipo>
114.0379

> <Gold.Chemscore.Internal_Hbond>
0.0000

> <Gold.Chemscore.DEClash>
0.0305

> <Gold.Chemscore.DEInternal>
0.5481

> <Gold.Chemscore.Rot>
1.8704

> <Gold.Chemscore.Internal.Correction>
   9.000000E+99

> <Gold.Chemscore.Hbonds>
donor molecule, donor type, donor heavy atom, donor atom, acceptor molecule, acceptor atom, score
      P1  H  7997  8008       L1     7  1.00

> <Gold.Chemscore.Hbond.Weighted>
-3.3232

> <Gold.Chemscore.Metal.Weighted>
-0.0000

> <Gold.Chemscore.Lipo.Weighted>
-13.3424

> <Gold.Chemscore.Internal_Hbond.Weighted>
0.0000

> <Gold.Chemscore.DEClash.Weighted>
0.0305

> <Gold.Chemscore.DEInternal.Weighted>
0.5481

> <Gold.Chemscore.Rot.Weighted>
4.7881

> <Gold.Chemscore.Internal.Correction.Weighted>
   9.000000E+99

> <Gold.Protein.RotatedTorsions>
[ 6907 6896 6895 6894 ] final   52.77 input  -60.11 | X-H torsion
[ 7974 7965 7964 7962 ] final  151.09 input  175.53 | X-H torsion
[ 8008 7997 7996 7995 ] final  -91.41 input   59.86 | X-H torsion
[ 10167 10162 10161 10158 ] final -115.23 input  -65.29 | X-H torsion
[ 10718 10713 10712 10709 ] final    3.45 input   66.30 | X-H torsion
[ 10763 10752 10751 10750 ] final  176.27 input  -60.55 | X-H torsion
[ 11005 11000 10999 10996 ] final  -88.70 input  -57.11 | X-H torsion

> <Gold.Protein.ActiveResidues>
 VAL166  LYS551  ARG553  GLY616  TRP617  ASP618  TYR619  PRO620  LYS621  CYS622 
 ASP623  PHE694  ASN695  SER759  ASP760  ASP761  ALA762  ILE779  LEU786  VAL792 
 PHE793  MET794  SER795  GLU796  ALA797  LYS798  CYS799  TRP800  GLU811  SER814 

> <Gold.Protein.RotatedAtoms>
  152.3267  134.7311  160.0299 H   0  0  0  0  0  0  0  0  0  0  0  0  # atno 6907 bound_to 6896
  151.7742  133.3338  159.3461 H   0  0  0  0  0  0  0  0  0  0  0  0  # atno 6908 bound_to 6896
  150.7400  134.5922  159.6038 H   0  0  0  0  0  0  0  0  0  0  0  0  # atno 6909 bound_to 6896
  144.8317  139.6492  143.6056 H   0  0  0  0  0  0  0  0  0  0  0  0  # atno 7974 bound_to 7965
  154.7104  140.0520  157.0544 H   0  0  0  0  0  0  0  0  0  0  0  0  # atno 8008 bound_to 7997
  155.0563  140.3184  155.4656 H   0  0  0  0  0  0  0  0  0  0  0  0  # atno 8009 bound_to 7997
  156.2787  140.2107  156.5689 H   0  0  0  0  0  0  0  0  0  0  0  0  # atno 8010 bound_to 7997
  140.0923  143.4688  152.1862 H   0  0  0  0  0  0  0  0  0  0  0  0  # atno 10167 bound_to 10162
  156.8780  130.5643  149.5654 H   0  0  0  0  0  0  0  0  0  0  0  0  # atno 10718 bound_to 10713
  154.4789  135.2774  155.1586 H   0  0  0  0  0  0  0  0  0  0  0  0  # atno 10763 bound_to 10752
  154.3304  135.6191  153.5552 H   0  0  0  0  0  0  0  0  0  0  0  0  # atno 10764 bound_to 10752
  152.9873  135.5764  154.5185 H   0  0  0  0  0  0  0  0  0  0  0  0  # atno 10765 bound_to 10752
  141.1597  133.7585  156.9489 H   0  0  0  0  0  0  0  0  0  0  0  0  # atno 11005 bound_to 11000
  146.2619  139.6431  142.9356 LP  0  0  0  0  0  0  0  0  0  0  0  0  # atno 17320 bound_to 7965
  145.4881  141.0438  143.2608 LP  0  0  0  0  0  0  0  0  0  0  0  0  # atno 17321 bound_to 7965
  139.5718  144.7466  151.3871 LP  0  0  0  0  0  0  0  0  0  0  0  0  # atno 17342 bound_to 10162
  140.7022  143.7603  150.7422 LP  0  0  0  0  0  0  0  0  0  0  0  0  # atno 17343 bound_to 10162
  156.0692  130.5728  150.9349 LP  0  0  0  0  0  0  0  0  0  0  0  0  # atno 17370 bound_to 10713
  157.6157  131.0933  150.8715 LP  0  0  0  0  0  0  0  0  0  0  0  0  # atno 17371 bound_to 10713
  140.1271  134.9380  157.2285 LP  0  0  0  0  0  0  0  0  0  0  0  0  # atno 17394 bound_to 11000
  140.3000  134.3143  155.7292 LP  0  0  0  0  0  0  0  0  0  0  0  0  # atno 17395 bound_to 11000

$$$$
