AV-unprocessed.smi:101|AV-procd|sdf|916|dock1
  -GOLD-   2262017413D 1   1.00000     0.00000
 Structure written by MMmdl.
 44 46  0  0  0  0  0  0  0  0  1 V2000
  150.5815  133.7598  154.0345 C   0  0  0  0  0  0  0  0  0  0  0  0
  149.4084  134.6906  154.2936 C   0  0  0  0  0  0  0  0  0  0  0  0
  149.5693  135.9387  154.8036 C   0  0  0  0  0  0  0  0  0  0  0  0
  148.5165  136.8107  155.0514 N   0  0  0  0  0  0  0  0  0  0  0  0
  148.7319  138.2009  155.6183 C   0  0  1  0  0  0  0  0  0  0  0  0
  150.0883  138.3800  155.9120 O   0  0  0  0  0  0  0  0  0  0  0  0
  150.6441  139.3648  155.0478 C   0  0  2  0  0  0  0  0  0  0  0  0
  151.8778  140.0101  155.6942 C   0  0  0  0  0  0  0  0  0  0  0  0
  151.5332  140.5764  156.9488 O   0  0  0  0  0  0  0  0  0  0  0  0
  152.3906  140.5026  157.9837 C   0  0  0  0  0  0  0  0  0  0  0  0
  153.1942  139.5811  158.1407 O   0  0  0  0  0  0  0  0  0  0  0  0
  152.2645  141.6550  158.9220 C   0  0  0  0  0  0  0  0  0  0  0  0
  151.5658  142.8131  158.5077 C   0  0  0  0  0  0  0  0  0  0  0  0
  151.4326  143.9176  159.3713 C   0  0  0  0  0  0  0  0  0  0  0  0
  151.9966  143.8780  160.6597 C   0  0  0  0  0  0  0  0  0  0  0  0
  152.6941  142.7320  161.0839 C   0  0  0  0  0  0  0  0  0  0  0  0
  152.8280  141.6260  160.2220 C   0  0  0  0  0  0  0  0  0  0  0  0
  149.4713  140.3042  154.7722 C   0  0  1  0  0  0  0  0  0  0  0  0
  149.6667  141.1134  153.6275 O   0  0  0  0  0  0  0  0  0  0  0  0
  148.3076  139.3269  154.6420 C   0  0  1  0  0  0  0  0  0  0  0  0
  148.1312  138.8804  153.3050 O   0  0  0  0  0  0  0  0  0  0  0  0
  147.2001  136.4062  154.7501 C   0  0  0  0  0  0  0  0  0  0  0  0
  146.2242  137.1360  154.9204 O   0  0  0  0  0  0  0  0  0  0  0  0
  147.0340  135.1243  154.2300 N   0  0  0  0  0  0  0  0  0  0  0  0
  148.0604  134.2117  153.9752 C   0  0  0  0  0  0  0  0  0  0  0  0
  147.7882  133.1046  153.5140 O   0  0  0  0  0  0  0  0  0  0  0  0
  146.0922  134.8306  154.0152 H   0  0  0  0  0  0  0  0  0  0  0  0
  151.5328  134.2263  154.2914 H   0  0  0  0  0  0  0  0  0  0  0  0
  150.6215  133.4790  152.9815 H   0  0  0  0  0  0  0  0  0  0  0  0
  150.4842  132.8505  154.6288 H   0  0  0  0  0  0  0  0  0  0  0  0
  150.5763  136.2599  155.0204 H   0  0  0  0  0  0  0  0  0  0  0  0
  148.1953  138.2292  156.5685 H   0  0  0  0  0  0  0  0  0  0  0  0
  150.9402  138.8731  154.1198 H   0  0  0  0  0  0  0  0  0  0  0  0
  152.6602  139.2624  155.8304 H   0  0  0  0  0  0  0  0  0  0  0  0
  152.2768  140.7857  155.0388 H   0  0  0  0  0  0  0  0  0  0  0  0
  151.1242  142.8672  157.5230 H   0  0  0  0  0  0  0  0  0  0  0  0
  150.8969  144.7963  159.0439 H   0  0  0  0  0  0  0  0  0  0  0  0
  151.8940  144.7255  161.3215 H   0  0  0  0  0  0  0  0  0  0  0  0
  153.1280  142.7006  162.0725 H   0  0  0  0  0  0  0  0  0  0  0  0
  153.3697  140.7623  160.5790 H   0  0  0  0  0  0  0  0  0  0  0  0
  149.2936  140.9484  155.6341 H   0  0  0  0  0  0  0  0  0  0  0  0
  149.5102  140.5876  152.8578 H   0  0  0  0  0  0  0  0  0  0  0  0
  147.3706  139.7700  154.9811 H   0  0  0  0  0  0  0  0  0  0  0  0
  148.6474  139.4314  152.7366 H   0  0  0  0  0  0  0  0  0  0  0  0
  1  2  1  0  0  0  0
  1 28  1  0  0  0  0
  1 29  1  0  0  0  0
  1 30  1  0  0  0  0
  2 25  1  0  0  0  0
  2  3  2  0  0  0  0
  3  4  1  0  0  0  0
  3 31  1  0  0  0  0
  4  5  1  0  0  0  0
  4 22  1  0  0  0  0
  5 20  1  0  0  0  0
  5  6  1  0  0  0  0
  5 32  1  0  0  0  0
  6  7  1  0  0  0  0
  7  8  1  0  0  0  0
  7 18  1  0  0  0  0
  7 33  1  0  0  0  0
  8  9  1  0  0  0  0
  8 34  1  0  0  0  0
  8 35  1  0  0  0  0
  9 10  1  0  0  0  0
 10 11  2  0  0  0  0
 10 12  1  0  0  0  0
 12 17  1  0  0  0  0
 12 13  2  0  0  0  0
 13 14  1  0  0  0  0
 13 36  1  0  0  0  0
 14 15  2  0  0  0  0
 14 37  1  0  0  0  0
 15 16  1  0  0  0  0
 15 38  1  0  0  0  0
 16 17  2  0  0  0  0
 16 39  1  0  0  0  0
 17 40  1  0  0  0  0
 18 19  1  0  0  0  0
 18 20  1  0  0  0  0
 18 41  1  0  0  0  0
 19 42  1  0  0  0  0
 20 21  1  0  0  0  0
 20 43  1  0  0  0  0
 21 44  1  0  0  0  0
 22 23  2  0  0  0  0
 22 24  1  0  0  0  0
 24 27  1  0  0  0  0
 24 25  1  0  0  0  0
 25 26  2  0  0  0  0
M  END
> <s_m_source_file>
AV-unprocessed.smi

> <i_m_source_file_index>
101

> <i_lp_mmshare_version>
43012

> <i_f3d_flags>
0

> <s_epik_input>
Tz1jMVtuSF1jKD1PKW4oW2NIXWMxW0NIM10pW0NAQEhdMk9bQ0BIXShbQ0BASF0oW09IXSlbQ0BIXTJbT0hdKVtDSDJdT0MoPU8pYzNbY0hdW2NIXVtjSF1bY0hdW2NIXTM=

> <s_epik_cmdline>
J2VwaWtfcHl0aG9uJywgJy1waCcsICc3LjAnLCAnLXRuJywgJzgnLCAnLW1hJywgJzIwMCcsICctbWV0YWxfYmluZGluZycsICctaW1hZScsICc8aW5maWxlLm1hZT4nLCAnLW9tYWUnLCAnPG91dGZpbGUubWFlPic=

> <r_lp_tautomer_probability>
0.999537

> <r_epik_Ionization_Penalty>
0.00263537

> <r_epik_Ionization_Penalty_Charging>
0.00263428

> <r_epik_Ionization_Penalty_Neutral>
1.09111e-06

> <r_epik_State_Penalty>
0.00183335

> <r_epik_Charging_Adjusted_Penalty>
0.00446763

> <i_epik_Tot_Q>
0

> <i_epik_Tot_abs_Q>
0

> <r_epik_Metal_State_Penalty>
1.00528

> <b_epik_Metal_Only>
0

> <s_epik_Chemistry_Notes>
This compound has an ester and may undergo hydrolysis at high or low pH. This compound contains an acetal/aminal-like group ( X-CH(R)-Y where X, Y are N, S, or O) that may be acid/base labile, releasing an aldehyde.

> <s_lp_Force_Field>
OPLS_2005

> <r_lp_Energy>
40.9392

> <b_lp_Chiralities_Consistent>
1

> <s_lp_Variant>
AV-unprocessed.smi:101-4

> <Gold.Version>
5.8.1

> <Gold.Id.Protein>
6NUR|6NUR_protein|mol2

> <Gold.PLP.Fitness>
52.4050

> <Gold.PLP.PLP>
-42.0069

> <Gold.PLP.part.hbond>
-4.9892

> <Gold.PLP.part.metal>
0.0000

> <Gold.PLP.part.buried>
-4.2509

> <Gold.PLP.part.nonpolar>
-33.0820

> <Gold.PLP.part.repulsive>
0.1066

> <Gold.PLP.ligand.clash>
0.0000

> <Gold.PLP.ligand.torsion>
0.7722

> <Gold.PLP.Chemscore.Hbond>
3.9387

> <Gold.PLP.Chemscore.CHOScore>
0.0000

> <Gold.PLP.Chemscore.Metal>
0.0000

> <Gold.Chemscore.Hbonds>
donor molecule, donor type, donor heavy atom, donor atom, acceptor molecule, acceptor atom, score
      L1  H    19    42       P1  7957  1.00
      L1  H    21    44       P1  7957  1.00
      P1  H  7989  7998       L1    19  0.15
      P1  H  7997  8008       L1    11  1.00

> <Gold.PLP.Chemscore.Internal.Correction>
0.1264

> <Gold.Rescore>
     Score         DG    S(hbond)    S(metal)    S(lipo)     H(rot)  DE(clash)    DE(int)     intcor
     17.40     -18.72       3.08        0.00      97.83       3.32       0.31       1.01       ----

> <Gold.Chemscore.Fitness>
17.4027

> <Gold.Chemscore.DG>
-18.7171

> <Gold.Chemscore.ZeroCoef>
-5.4800

> <Gold.Chemscore.Hbond>
3.0787

> <Gold.Chemscore.Metal>
0.0000

> <Gold.Chemscore.Lipo>
97.8307

> <Gold.Chemscore.Internal_Hbond>
0.0000

> <Gold.Chemscore.DEClash>
0.3090

> <Gold.Chemscore.DEInternal>
1.0053

> <Gold.Chemscore.Rot>
3.3172

> <Gold.Chemscore.Internal.Correction>
   9.000000E+99

> <Gold.Chemscore.Hbonds>
donor molecule, donor type, donor heavy atom, donor atom, acceptor molecule, acceptor atom, score
      L1  H    19    42       P1  7957  0.99
      L1  H    21    44       P1  7957  0.99
      P1  H  7997  8008       L1    11  0.25

> <Gold.Chemscore.Hbond.Weighted>
-10.2829

> <Gold.Chemscore.Metal.Weighted>
-0.0000

> <Gold.Chemscore.Lipo.Weighted>
-11.4462

> <Gold.Chemscore.Internal_Hbond.Weighted>
0.0000

> <Gold.Chemscore.DEClash.Weighted>
0.3090

> <Gold.Chemscore.DEInternal.Weighted>
1.0053

> <Gold.Chemscore.Rot.Weighted>
8.4920

> <Gold.Chemscore.Internal.Correction.Weighted>
   9.000000E+99

> <Gold.Protein.RotatedTorsions>
[ 6907 6896 6895 6894 ] final  -24.47 input  -60.11 | X-H torsion
[ 7974 7965 7964 7962 ] final  104.34 input  175.53 | X-H torsion
[ 8008 7997 7996 7995 ] final  -74.82 input   59.86 | X-H torsion
[ 10167 10162 10161 10158 ] final -155.91 input  -65.29 | X-H torsion
[ 10718 10713 10712 10709 ] final  -92.18 input   66.30 | X-H torsion
[ 10763 10752 10751 10750 ] final  -61.48 input  -60.55 | X-H torsion
[ 11005 11000 10999 10996 ] final   97.95 input  -57.11 | X-H torsion

> <Gold.Protein.ActiveResidues>
 VAL166  LYS551  ARG553  GLY616  TRP617  ASP618  TYR619  PRO620  LYS621  CYS622 
 ASP623  PHE694  ASN695  SER759  ASP760  ASP761  ALA762  ILE779  LEU786  VAL792 
 PHE793  MET794  SER795  GLU796  ALA797  LYS798  CYS799  TRP800  GLU811  SER814 

> <Gold.Protein.RotatedAtoms>
  151.1891  135.0394  159.8824 H   0  0  0  0  0  0  0  0  0  0  0  0  # atno 6907 bound_to 6896
  152.5440  134.0977  159.8314 H   0  0  0  0  0  0  0  0  0  0  0  0  # atno 6908 bound_to 6896
  151.1103  133.5131  159.2638 H   0  0  0  0  0  0  0  0  0  0  0  0  # atno 6909 bound_to 6896
  145.3341  139.2479  143.3645 H   0  0  0  0  0  0  0  0  0  0  0  0  # atno 7974 bound_to 7965
  154.5363  140.0755  156.8434 H   0  0  0  0  0  0  0  0  0  0  0  0  # atno 8008 bound_to 7997
  155.3271  140.3399  155.4222 H   0  0  0  0  0  0  0  0  0  0  0  0  # atno 8009 bound_to 7997
  156.1831  140.1659  156.8222 H   0  0  0  0  0  0  0  0  0  0  0  0  # atno 8010 bound_to 7997
  139.6893  143.9448  152.2377 H   0  0  0  0  0  0  0  0  0  0  0  0  # atno 10167 bound_to 10162
  156.0000  130.4977  150.5587 H   0  0  0  0  0  0  0  0  0  0  0  0  # atno 10718 bound_to 10713
  154.2853  135.6264  153.5363 H   0  0  0  0  0  0  0  0  0  0  0  0  # atno 10763 bound_to 10752
  152.9860  135.5643  154.5450 H   0  0  0  0  0  0  0  0  0  0  0  0  # atno 10764 bound_to 10752
  154.5049  135.2874  155.1366 H   0  0  0  0  0  0  0  0  0  0  0  0  # atno 10765 bound_to 10752
  139.8774  134.9026  156.4384 H   0  0  0  0  0  0  0  0  0  0  0  0  # atno 11005 bound_to 11000
  146.3034  140.3925  142.8696 LP  0  0  0  0  0  0  0  0  0  0  0  0  # atno 17320 bound_to 7965
  144.8841  140.7439  143.5968 LP  0  0  0  0  0  0  0  0  0  0  0  0  # atno 17321 bound_to 7965
  139.9260  144.6771  150.8412 LP  0  0  0  0  0  0  0  0  0  0  0  0  # atno 17342 bound_to 10162
  140.7677  143.3342  151.2345 LP  0  0  0  0  0  0  0  0  0  0  0  0  # atno 17343 bound_to 10162
  157.3499  131.0732  151.1721 LP  0  0  0  0  0  0  0  0  0  0  0  0  # atno 17370 bound_to 10713
  157.2541  130.6628  149.5944 LP  0  0  0  0  0  0  0  0  0  0  0  0  # atno 17371 bound_to 10713
  140.9017  133.7775  155.9688 LP  0  0  0  0  0  0  0  0  0  0  0  0  # atno 17394 bound_to 11000
  140.8643  134.2802  157.5220 LP  0  0  0  0  0  0  0  0  0  0  0  0  # atno 17395 bound_to 11000

$$$$
