AV-unprocessed.smi:1490|AV-procd|sdf|6031|dock4
  -GOLD-   22720 6133D 1   1.00000     0.00000
 Structure written by MMmdl.
 37 38  0  0  0  0  0  0  0  0  3 V2000
  152.6483  142.3251  160.3484 C   0  0  0  0  0  0  0  0  0  0  0  0
  151.7285  143.1466  161.0442 O   0  0  0  0  0  0  0  0  0  0  0  0
  151.8219  144.5130  160.6765 C   0  0  0  0  0  0  0  0  0  0  0  0
  151.3557  144.6817  159.2234 C   0  0  0  0  0  0  0  0  0  0  0  0
  150.1112  143.9482  158.9532 N   0  0  0  0  0  0  0  0  0  0  0  0
  149.8335  142.9942  158.0208 C   0  0  0  0  0  0  0  0  0  0  0  0
  150.9561  142.3433  156.8283 S   0  0  0  0  0  0  0  0  0  0  0  0
  150.9166  140.5432  157.0596 C   0  0  0  0  0  0  0  0  0  0  0  0
  151.5265  139.7899  155.8782 C   0  0  0  0  0  0  0  0  0  0  0  0
  151.0474  139.9323  154.7542 O   0  0  0  0  0  0  0  0  0  0  0  0
  152.5752  139.0267  156.2572 N   0  5  0  0  0  0  0  0  0  0  0  0
  152.5032  138.3037  157.5114 C   0  0  0  0  0  0  0  0  0  0  0  0
  152.6566  136.8589  157.2816 C   0  0  0  0  0  0  0  0  0  0  0  0
  152.7771  135.7220  157.1002 N   0  0  0  0  0  0  0  0  0  0  0  0
  148.5259  142.6436  158.1655 N   0  3  0  0  0  0  0  0  0  0  0  0
  147.9558  143.3881  159.1995 C   0  0  0  0  0  0  0  0  0  0  0  0
  146.6634  143.3909  159.7146 C   0  0  0  0  0  0  0  0  0  0  0  0
  146.4045  144.2847  160.7747 C   0  0  0  0  0  0  0  0  0  0  0  0
  144.8241  144.3432  161.4632 Cl  0  0  0  0  0  0  0  0  0  0  0  0
  147.4124  145.1321  161.2806 C   0  0  0  0  0  0  0  0  0  0  0  0
  148.7198  145.1212  160.7512 C   0  0  0  0  0  0  0  0  0  0  0  0
  148.9670  144.2316  159.7065 C   0  0  0  0  0  0  0  0  0  0  0  0
  152.5300  141.2906  160.6713 H   0  0  0  0  0  0  0  0  0  0  0  0
  153.6769  142.6257  160.5508 H   0  0  0  0  0  0  0  0  0  0  0  0
  152.4760  142.3645  159.2722 H   0  0  0  0  0  0  0  0  0  0  0  0
  151.2032  145.1227  161.3363 H   0  0  0  0  0  0  0  0  0  0  0  0
  152.8519  144.8571  160.7829 H   0  0  0  0  0  0  0  0  0  0  0  0
  151.1730  145.7352  159.0100 H   0  0  0  0  0  0  0  0  0  0  0  0
  152.1239  144.3549  158.5223 H   0  0  0  0  0  0  0  0  0  0  0  0
  151.4511  140.2928  157.9763 H   0  0  0  0  0  0  0  0  0  0  0  0
  149.8839  140.2199  157.2004 H   0  0  0  0  0  0  0  0  0  0  0  0
  153.2843  138.5989  158.2131 H   0  0  0  0  0  0  0  0  0  0  0  0
  151.5509  138.4497  158.0218 H   0  0  0  0  0  0  0  0  0  0  0  0
  145.8906  142.7446  159.3250 H   0  0  0  0  0  0  0  0  0  0  0  0
  147.1785  145.8060  162.0921 H   0  0  0  0  0  0  0  0  0  0  0  0
  149.4824  145.7770  161.1443 H   0  0  0  0  0  0  0  0  0  0  0  0
  148.0610  141.9525  157.5911 H   0  0  0  0  0  0  0  0  0  0  0  0
  1  2  1  0  0  0  0
  1 23  1  0  0  0  0
  1 24  1  0  0  0  0
  1 25  1  0  0  0  0
  2  3  1  0  0  0  0
  3  4  1  0  0  0  0
  3 26  1  0  0  0  0
  3 27  1  0  0  0  0
  4  5  1  0  0  0  0
  4 28  1  0  0  0  0
  4 29  1  0  0  0  0
  5 22  1  0  0  0  0
  5  6  1  0  0  0  0
  6  7  1  0  0  0  0
  6 15  2  0  0  0  0
  7  8  1  0  0  0  0
  8  9  1  0  0  0  0
  8 30  1  0  0  0  0
  8 31  1  0  0  0  0
  9 10  2  0  0  0  0
  9 11  1  0  0  0  0
 11 12  1  0  0  0  0
 12 13  1  0  0  0  0
 12 32  1  0  0  0  0
 12 33  1  0  0  0  0
 13 14  3  0  0  0  0
 15 16  1  0  0  0  0
 15 37  1  0  0  0  0
 16 22  2  0  0  0  0
 16 17  1  0  0  0  0
 17 18  2  0  0  0  0
 17 34  1  0  0  0  0
 18 19  1  0  0  0  0
 18 20  1  0  0  0  0
 20 21  2  0  0  0  0
 20 35  1  0  0  0  0
 21 22  1  0  0  0  0
 21 36  1  0  0  0  0
M  CHG  1  11  -1
M  CHG  1  15   1
M  END
> <s_m_source_file>
AV-unprocessed.smi

> <i_m_source_file_index>
1490

> <i_lp_mmshare_version>
43012

> <i_f3d_flags>
0

> <s_epik_input>
W2NIXTFjKENsKVtjSF1bY0hdYyhjMTIpbihbQ0gyXVtDSDJdT1tDSDNdKWMobjIpU1tDSDJdQyg9TylbTkhdW0NIMl1DI04=

> <s_epik_cmdline>
J2VwaWtfcHl0aG9uJywgJy1waCcsICc3LjAnLCAnLXRuJywgJzgnLCAnLW1hJywgJzIwMCcsICctbWV0YWxfYmluZGluZycsICctaW1hZScsICc8aW5maWxlLm1hZT4nLCAnLW9tYWUnLCAnPG91dGZpbGUubWFlPic=

> <r_epik_Ionization_Penalty>
9.25224

> <r_epik_Ionization_Penalty_Charging>
9.25224

> <r_epik_Ionization_Penalty_Neutral>
2.90678e-12

> <r_epik_State_Penalty>
9.37242

> <r_epik_Charging_Adjusted_Penalty>
18.6247

> <i_epik_Tot_Q>
0

> <i_epik_Tot_abs_Q>
2

> <r_epik_Metal_State_Penalty>
5.29561

> <b_epik_Metal_Only>
1

> <s_lp_Force_Field>
OPLS_2005

> <r_lp_Energy>
5.70634

> <b_lp_Chiralities_Consistent>
1

> <s_lp_Variant>
AV-unprocessed.smi:1490-3

> <Gold.Version>
5.8.1

> <Gold.Id.Protein>
6NUR|6NUR_protein|mol2

> <Gold.PLP.Fitness>
54.5241

> <Gold.PLP.PLP>
-43.2560

> <Gold.PLP.part.hbond>
-3.3653

> <Gold.PLP.part.metal>
0.0000

> <Gold.PLP.part.buried>
-7.0475

> <Gold.PLP.part.nonpolar>
-33.7562

> <Gold.PLP.part.repulsive>
0.2975

> <Gold.PLP.ligand.clash>
0.0000

> <Gold.PLP.ligand.torsion>
0.4685

> <Gold.PLP.Chemscore.Hbond>
4.0000

> <Gold.PLP.Chemscore.CHOScore>
0.0000

> <Gold.PLP.Chemscore.Metal>
0.0000

> <Gold.Chemscore.Hbonds>
donor molecule, donor type, donor heavy atom, donor atom, acceptor molecule, acceptor atom, score
      P1  H  7989  7998       L1    10  1.00
      P1  H  7997  8010       L1    11  1.69
      P1  H 10752 10764       L1    14  1.00

> <Gold.PLP.Chemscore.Internal.Correction>
0.2051

> <Gold.Rescore>
     Score         DG    S(hbond)    S(metal)    S(lipo)     H(rot)  DE(clash)    DE(int)     intcor
     17.24     -17.87       2.82        0.00      85.42       2.74       0.02       0.61       ----

> <Gold.Chemscore.Fitness>
17.2365

> <Gold.Chemscore.DG>
-17.8665

> <Gold.Chemscore.ZeroCoef>
-5.4800

> <Gold.Chemscore.Hbond>
2.8181

> <Gold.Chemscore.Metal>
0.0000

> <Gold.Chemscore.Lipo>
85.4151

> <Gold.Chemscore.Internal_Hbond>
0.0000

> <Gold.Chemscore.DEClash>
0.0174

> <Gold.Chemscore.DEInternal>
0.6126

> <Gold.Chemscore.Rot>
2.7420

> <Gold.Chemscore.Internal.Correction>
   9.000000E+99

> <Gold.Chemscore.Hbonds>
donor molecule, donor type, donor heavy atom, donor atom, acceptor molecule, acceptor atom, score
      P1  H  6933  6945       L1     2  0.01
      P1  H  7989  7998       L1    10  1.00
      P1  H  7997  8010       L1    11  0.46
      P1  H 10752 10764       L1    14  0.81

> <Gold.Chemscore.Hbond.Weighted>
-9.4124

> <Gold.Chemscore.Metal.Weighted>
-0.0000

> <Gold.Chemscore.Lipo.Weighted>
-9.9936

> <Gold.Chemscore.Internal_Hbond.Weighted>
0.0000

> <Gold.Chemscore.DEClash.Weighted>
0.0174

> <Gold.Chemscore.DEInternal.Weighted>
0.6126

> <Gold.Chemscore.Rot.Weighted>
7.0194

> <Gold.Chemscore.Internal.Correction.Weighted>
   9.000000E+99

> <Gold.Protein.RotatedTorsions>
[ 6907 6896 6895 6894 ] final  166.12 input  -60.11 | X-H torsion
[ 7974 7965 7964 7962 ] final   92.98 input  175.53 | X-H torsion
[ 8008 7997 7996 7995 ] final   84.70 input   59.86 | X-H torsion
[ 10167 10162 10161 10158 ] final  139.39 input  -65.29 | X-H torsion
[ 10718 10713 10712 10709 ] final  -42.44 input   66.30 | X-H torsion
[ 10763 10752 10751 10750 ] final    4.34 input  -60.55 | X-H torsion
[ 11005 11000 10999 10996 ] final  -84.94 input  -57.11 | X-H torsion

> <Gold.Protein.ActiveResidues>
 VAL166  LYS551  ARG553  GLY616  TRP617  ASP618  TYR619  PRO620  LYS621  CYS622 
 ASP623  PHE694  ASN695  SER759  ASP760  ASP761  ALA762  ILE779  LEU786  VAL792 
 PHE793  MET794  SER795  GLU796  ALA797  LYS798  CYS799  TRP800  GLU811  SER814 

> <Gold.Protein.RotatedAtoms>
  151.8839  133.3501  159.3775 H   0  0  0  0  0  0  0  0  0  0  0  0  # atno 6907 bound_to 6896
  150.7120  134.4991  159.5562 H   0  0  0  0  0  0  0  0  0  0  0  0  # atno 6908 bound_to 6896
  152.2548  134.8095  160.0491 H   0  0  0  0  0  0  0  0  0  0  0  0  # atno 6909 bound_to 6896
  145.4850  139.2277  143.2861 H   0  0  0  0  0  0  0  0  0  0  0  0  # atno 7974 bound_to 7965
  155.9405  140.3408  155.6323 H   0  0  0  0  0  0  0  0  0  0  0  0  # atno 8008 bound_to 7997
  155.7046  140.0764  157.2415 H   0  0  0  0  0  0  0  0  0  0  0  0  # atno 8009 bound_to 7997
  154.4101  140.1634  156.2216 H   0  0  0  0  0  0  0  0  0  0  0  0  # atno 8010 bound_to 7997
  139.5080  144.6297  151.5848 H   0  0  0  0  0  0  0  0  0  0  0  0  # atno 10167 bound_to 10162
  156.2596  130.4195  149.8557 H   0  0  0  0  0  0  0  0  0  0  0  0  # atno 10718 bound_to 10713
  153.2724  135.6933  153.7467 H   0  0  0  0  0  0  0  0  0  0  0  0  # atno 10763 bound_to 10752
  153.6486  135.3381  155.3094 H   0  0  0  0  0  0  0  0  0  0  0  0  # atno 10764 bound_to 10752
  154.8468  135.4449  154.1751 H   0  0  0  0  0  0  0  0  0  0  0  0  # atno 10765 bound_to 10752
  141.1646  133.7372  156.8941 H   0  0  0  0  0  0  0  0  0  0  0  0  # atno 11005 bound_to 11000
  146.2318  140.5640  142.8972 LP  0  0  0  0  0  0  0  0  0  0  0  0  # atno 17320 bound_to 7965
  144.7867  140.5950  143.6569 LP  0  0  0  0  0  0  0  0  0  0  0  0  # atno 17321 bound_to 7965
  140.6026  143.9582  150.6396 LP  0  0  0  0  0  0  0  0  0  0  0  0  # atno 17342 bound_to 10162
  140.2799  143.3397  152.1161 LP  0  0  0  0  0  0  0  0  0  0  0  0  # atno 17343 bound_to 10162
  156.6077  130.8573  151.3447 LP  0  0  0  0  0  0  0  0  0  0  0  0  # atno 17370 bound_to 10713
  157.7245  130.9604  150.1578 LP  0  0  0  0  0  0  0  0  0  0  0  0  # atno 17371 bound_to 10713
  140.1628  134.9154  157.2736 LP  0  0  0  0  0  0  0  0  0  0  0  0  # atno 17394 bound_to 11000
  140.2592  134.3591  155.7413 LP  0  0  0  0  0  0  0  0  0  0  0  0  # atno 17395 bound_to 11000

$$$$
