AV-unprocessed.smi:1244|AV-procd|sdf|5235|dock1
  -GOLD-   22720 4343D 1   1.00000     0.00000
 Structure written by MMmdl.
 55 57  0  0  0  0  0  0  0  0  4 V2000
  145.5026  137.1143  151.0037 C   0  0  0  0  0  0  0  0  0  0  0  0
  144.6666  136.2221  151.9384 C   0  0  2  0  0  0  0  0  0  0  0  0
  145.1684  136.2181  153.3957 C   0  0  0  0  0  0  0  0  0  0  0  0
  146.4173  135.4301  153.5301 N   0  3  1  0  0  0  0  0  0  0  0  0
  146.9804  135.4706  154.9059 C   0  0  0  0  0  0  0  0  0  0  0  0
  147.6652  136.8176  155.2147 C   0  0  0  0  0  0  0  0  0  0  0  0
  148.2474  136.7855  156.5560 N   0  5  0  0  0  0  0  0  0  0  0  0
  149.1282  137.6991  157.0450 C   0  0  0  0  0  0  0  0  0  0  0  0
  149.9949  137.5256  157.9092 O   0  0  0  0  0  0  0  0  0  0  0  0
  148.9605  138.9078  156.4809 N   0  0  0  0  0  0  0  0  0  0  0  0
  149.6495  140.1269  156.7378 C   0  0  0  0  0  0  0  0  0  0  0  0
  150.8966  140.1419  157.4133 C   0  0  0  0  0  0  0  0  0  0  0  0
  151.5435  141.3654  157.6687 C   0  0  0  0  0  0  0  0  0  0  0  0
  150.9373  142.5574  157.2381 C   0  0  0  0  0  0  0  0  0  0  0  0
  149.7629  142.5089  156.5761 N   0  3  0  0  0  0  0  0  0  0  0  0
  149.0982  141.3619  156.2868 C   0  0  0  0  0  0  0  0  0  0  0  0
  147.8844  141.4691  155.5690 N   0  0  0  0  0  0  0  0  0  0  0  0
  146.7262  142.1233  156.1668 C   0  0  0  0  0  0  0  0  0  0  0  0
  145.7585  142.3520  155.0088 C   0  0  0  0  0  0  0  0  0  0  0  0
  146.7017  142.6376  153.8441 C   0  0  0  0  0  0  0  0  0  0  0  0
  147.9188  141.7542  154.1379 C   0  0  0  0  0  0  0  0  0  0  0  0
  146.2120  134.0568  153.0022 C   0  0  0  0  0  0  0  0  0  0  0  0
  145.7452  134.1109  151.5374 C   0  0  1  0  0  0  0  0  0  0  0  0
  145.4435  132.7159  150.9787 C   0  0  0  0  0  0  0  0  0  0  0  0
  144.5520  134.8855  151.4495 O   0  0  0  0  0  0  0  0  0  0  0  0
  145.4616  138.1551  151.3255 H   0  0  0  0  0  0  0  0  0  0  0  0
  145.1225  137.0706  149.9829 H   0  0  0  0  0  0  0  0  0  0  0  0
  146.5528  136.8241  150.9830 H   0  0  0  0  0  0  0  0  0  0  0  0
  143.6552  136.6296  151.9384 H   0  0  0  0  0  0  0  0  0  0  0  0
  145.3310  137.2429  153.7327 H   0  0  0  0  0  0  0  0  0  0  0  0
  144.4064  135.7879  154.0478 H   0  0  0  0  0  0  0  0  0  0  0  0
  146.1769  135.3288  155.6309 H   0  0  0  0  0  0  0  0  0  0  0  0
  147.6684  134.6366  155.0536 H   0  0  0  0  0  0  0  0  0  0  0  0
  148.4323  137.0043  154.4635 H   0  0  0  0  0  0  0  0  0  0  0  0
  146.9406  137.6238  155.0914 H   0  0  0  0  0  0  0  0  0  0  0  0
  148.1660  138.9811  155.8631 H   0  0  0  0  0  0  0  0  0  0  0  0
  151.3726  139.2285  157.7361 H   0  0  0  0  0  0  0  0  0  0  0  0
  152.4903  141.3869  158.1882 H   0  0  0  0  0  0  0  0  0  0  0  0
  151.3569  143.5410  157.3917 H   0  0  0  0  0  0  0  0  0  0  0  0
  146.2819  141.5090  156.9506 H   0  0  0  0  0  0  0  0  0  0  0  0
  147.0121  143.0827  156.6001 H   0  0  0  0  0  0  0  0  0  0  0  0
  145.1895  141.4420  154.8122 H   0  0  0  0  0  0  0  0  0  0  0  0
  145.0525  143.1612  155.1972 H   0  0  0  0  0  0  0  0  0  0  0  0
  146.2540  142.4313  152.8715 H   0  0  0  0  0  0  0  0  0  0  0  0
  146.9972  143.6875  153.8619 H   0  0  0  0  0  0  0  0  0  0  0  0
  148.8457  142.2445  153.8369 H   0  0  0  0  0  0  0  0  0  0  0  0
  147.8377  140.8140  153.5911 H   0  0  0  0  0  0  0  0  0  0  0  0
  147.1377  133.4842  153.0676 H   0  0  0  0  0  0  0  0  0  0  0  0
  145.4738  133.5374  153.6157 H   0  0  0  0  0  0  0  0  0  0  0  0
  146.5238  134.5597  150.9204 H   0  0  0  0  0  0  0  0  0  0  0  0
  146.3279  132.0793  151.0131 H   0  0  0  0  0  0  0  0  0  0  0  0
  145.1175  132.7744  149.9400 H   0  0  0  0  0  0  0  0  0  0  0  0
  144.6545  132.2239  151.5483 H   0  0  0  0  0  0  0  0  0  0  0  0
  147.1003  135.8802  152.9371 H   0  0  0  0  0  0  0  0  0  0  0  0
  149.3537  143.3899  156.2655 H   0  0  0  0  0  0  0  0  0  0  0  0
  1  2  1  0  0  0  0
  1 26  1  0  0  0  0
  1 27  1  0  0  0  0
  1 28  1  0  0  0  0
  2 25  1  0  0  0  0
  2  3  1  0  0  0  0
  2 29  1  0  0  0  0
  3  4  1  0  0  0  0
  3 30  1  0  0  0  0
  3 31  1  0  0  0  0
  4  5  1  0  0  0  0
  4 22  1  0  0  0  0
  4 54  1  0  0  0  0
  5  6  1  0  0  0  0
  5 32  1  0  0  0  0
  5 33  1  0  0  0  0
  6  7  1  0  0  0  0
  6 34  1  0  0  0  0
  6 35  1  0  0  0  0
  7  8  1  0  0  0  0
  8  9  2  0  0  0  0
  8 10  1  0  0  0  0
 10 11  1  0  0  0  0
 10 36  1  0  0  0  0
 11 16  1  0  0  0  0
 11 12  2  0  0  0  0
 12 13  1  0  0  0  0
 12 37  1  0  0  0  0
 13 14  2  0  0  0  0
 13 38  1  0  0  0  0
 14 15  1  0  0  0  0
 14 39  1  0  0  0  0
 15 16  2  0  0  0  0
 15 55  1  0  0  0  0
 16 17  1  0  0  0  0
 17 21  1  0  0  0  0
 17 18  1  0  0  0  0
 18 19  1  0  0  0  0
 18 40  1  0  0  0  0
 18 41  1  0  0  0  0
 19 20  1  0  0  0  0
 19 42  1  0  0  0  0
 19 43  1  0  0  0  0
 20 21  1  0  0  0  0
 20 44  1  0  0  0  0
 20 45  1  0  0  0  0
 21 46  1  0  0  0  0
 21 47  1  0  0  0  0
 22 23  1  0  0  0  0
 22 48  1  0  0  0  0
 22 49  1  0  0  0  0
 23 24  1  0  0  0  0
 23 25  1  0  0  0  0
 23 50  1  0  0  0  0
 24 51  1  0  0  0  0
 24 52  1  0  0  0  0
 24 53  1  0  0  0  0
M  CHG  1   4   1
M  CHG  1   7  -1
M  CHG  1  15   1
M  END
> <s_m_source_file>
AV-unprocessed.smi

> <i_m_source_file_index>
1244

> <i_lp_mmshare_version>
43012

> <i_f3d_flags>
0

> <s_epik_input>
W0NIM11bQ0BASF0xW0NIMl1OKFtDSDJdW0NASF0oTzEpW0NIM10pW0NIMl1bQ0gyXVtOSF1DKD1PKVtOSF1jMltjSF1bY0hdW2NIXW5jMk4zW0NIMl1bQ0gyXVtDSDJdW0NIMl0z

> <s_epik_cmdline>
J2VwaWtfcHl0aG9uJywgJy1waCcsICc3LjAnLCAnLXRuJywgJzgnLCAnLW1hJywgJzIwMCcsICctbWV0YWxfYmluZGluZycsICctaW1hZScsICc8aW5maWxlLm1hZT4nLCAnLW9tYWUnLCAnPG91dGZpbGUubWFlPic=

> <r_lp_tautomer_probability>
0.999994

> <r_epik_Ionization_Penalty>
8.60539

> <r_epik_Ionization_Penalty_Charging>
8.60539

> <r_epik_Ionization_Penalty_Neutral>
3.60441e-06

> <r_epik_State_Penalty>
8.59967

> <r_epik_Charging_Adjusted_Penalty>
17.2051

> <i_epik_Tot_Q>
1

> <i_epik_Tot_abs_Q>
3

> <r_epik_Metal_State_Penalty>
4.59489

> <b_epik_Metal_Only>
1

> <s_lp_Force_Field>
OPLS_2005

> <r_lp_Energy>
46.9863

> <b_lp_Chiralities_Consistent>
1

> <s_lp_Variant>
AV-unprocessed.smi:1244-15

> <Gold.Version>
5.8.1

> <Gold.Id.Protein>
6NUR|6NUR_protein|mol2

> <Gold.PLP.Fitness>
44.1278

> <Gold.PLP.PLP>
-33.0188

> <Gold.PLP.part.hbond>
-2.0000

> <Gold.PLP.part.metal>
0.0000

> <Gold.PLP.part.buried>
-2.6051

> <Gold.PLP.part.nonpolar>
-28.4078

> <Gold.PLP.part.repulsive>
0.3414

> <Gold.PLP.ligand.clash>
0.0000

> <Gold.PLP.ligand.torsion>
0.6891

> <Gold.PLP.Chemscore.Hbond>
4.0000

> <Gold.PLP.Chemscore.CHOScore>
0.0000

> <Gold.PLP.Chemscore.Metal>
0.0000

> <Gold.Chemscore.Hbonds>
donor molecule, donor type, donor heavy atom, donor atom, acceptor molecule, acceptor atom, score
      L1  H     4    54       P1  7948  1.33
      L1  H    15    55       P1  8028  2.00

> <Gold.PLP.Chemscore.Internal.Correction>
0.4873

> <Gold.Rescore>
     Score         DG    S(hbond)    S(metal)    S(lipo)     H(rot)  DE(clash)    DE(int)     intcor
     14.69     -17.84       2.00        0.00      83.50       1.60       0.79       2.35       ----

> <Gold.Chemscore.Fitness>
14.6944

> <Gold.Chemscore.DG>
-17.8388

> <Gold.Chemscore.ZeroCoef>
-5.4800

> <Gold.Chemscore.Hbond>
1.9998

> <Gold.Chemscore.Metal>
0.0000

> <Gold.Chemscore.Lipo>
83.5048

> <Gold.Chemscore.Internal_Hbond>
0.0000

> <Gold.Chemscore.DEClash>
0.7931

> <Gold.Chemscore.DEInternal>
2.3514

> <Gold.Chemscore.Rot>
1.5978

> <Gold.Chemscore.Internal.Correction>
   9.000000E+99

> <Gold.Chemscore.Hbonds>
donor molecule, donor type, donor heavy atom, donor atom, acceptor molecule, acceptor atom, score
      L1  H     4    54       P1  7948  0.66
      L1  H    15    55       P1  8028  0.93

> <Gold.Chemscore.Hbond.Weighted>
-6.6793

> <Gold.Chemscore.Metal.Weighted>
-0.0000

> <Gold.Chemscore.Lipo.Weighted>
-9.7701

> <Gold.Chemscore.Internal_Hbond.Weighted>
0.0000

> <Gold.Chemscore.DEClash.Weighted>
0.7931

> <Gold.Chemscore.DEInternal.Weighted>
2.3514

> <Gold.Chemscore.Rot.Weighted>
4.0905

> <Gold.Chemscore.Internal.Correction.Weighted>
   9.000000E+99

> <Gold.Protein.RotatedTorsions>
[ 6907 6896 6895 6894 ] final   22.53 input  -60.11 | X-H torsion
[ 7974 7965 7964 7962 ] final -101.69 input  175.53 | X-H torsion
[ 8008 7997 7996 7995 ] final -150.68 input   59.86 | X-H torsion
[ 10167 10162 10161 10158 ] final -110.68 input  -65.29 | X-H torsion
[ 10718 10713 10712 10709 ] final -106.98 input   66.30 | X-H torsion
[ 10763 10752 10751 10750 ] final  101.69 input  -60.55 | X-H torsion
[ 11005 11000 10999 10996 ] final   35.42 input  -57.11 | X-H torsion

> <Gold.Protein.ActiveResidues>
 VAL166  LYS551  ARG553  GLY616  TRP617  ASP618  TYR619  PRO620  LYS621  CYS622 
 ASP623  PHE694  ASN695  SER759  ASP760  ASP761  ALA762  ILE779  LEU786  VAL792 
 PHE793  MET794  SER795  GLU796  ALA797  LYS798  CYS799  TRP800  GLU811  SER814 

> <Gold.Protein.RotatedAtoms>
  151.9285  135.0267  160.0527 H   0  0  0  0  0  0  0  0  0  0  0  0  # atno 6907 bound_to 6896
  152.2139  133.4927  159.5133 H   0  0  0  0  0  0  0  0  0  0  0  0  # atno 6908 bound_to 6896
  150.6983  134.1348  159.4126 H   0  0  0  0  0  0  0  0  0  0  0  0  # atno 6909 bound_to 6896
  145.2784  140.9319  143.2946 H   0  0  0  0  0  0  0  0  0  0  0  0  # atno 7974 bound_to 7965
  155.6275  140.0688  157.2659 H   0  0  0  0  0  0  0  0  0  0  0  0  # atno 8008 bound_to 7997
  154.4214  140.1773  156.1485 H   0  0  0  0  0  0  0  0  0  0  0  0  # atno 8009 bound_to 7997
  155.9960  140.3340  155.6802 H   0  0  0  0  0  0  0  0  0  0  0  0  # atno 8010 bound_to 7997
  140.1418  143.4273  152.1557 H   0  0  0  0  0  0  0  0  0  0  0  0  # atno 10167 bound_to 10162
  156.0415  130.5640  150.7758 H   0  0  0  0  0  0  0  0  0  0  0  0  # atno 10718 bound_to 10713
  153.3299  135.4036  155.1486 H   0  0  0  0  0  0  0  0  0  0  0  0  # atno 10763 bound_to 10752
  154.8620  135.3608  154.5485 H   0  0  0  0  0  0  0  0  0  0  0  0  # atno 10764 bound_to 10752
  153.5923  135.7073  153.5477 H   0  0  0  0  0  0  0  0  0  0  0  0  # atno 10765 bound_to 10752
  140.2428  134.3395  155.7919 H   0  0  0  0  0  0  0  0  0  0  0  0  # atno 11005 bound_to 11000
  144.9274  139.4338  143.6511 LP  0  0  0  0  0  0  0  0  0  0  0  0  # atno 17320 bound_to 7965
  146.3224  139.8167  142.8935 LP  0  0  0  0  0  0  0  0  0  0  0  0  # atno 17321 bound_to 7965
  139.5468  144.7305  151.4557 LP  0  0  0  0  0  0  0  0  0  0  0  0  # atno 17342 bound_to 10162
  140.6756  143.8197  150.7054 LP  0  0  0  0  0  0  0  0  0  0  0  0  # atno 17343 bound_to 10162
  157.5239  131.0933  151.0043 LP  0  0  0  0  0  0  0  0  0  0  0  0  # atno 17370 bound_to 10713
  157.0367  130.5732  149.5350 LP  0  0  0  0  0  0  0  0  0  0  0  0  # atno 17371 bound_to 10713
  141.2209  133.7308  156.8912 LP  0  0  0  0  0  0  0  0  0  0  0  0  # atno 17394 bound_to 11000
  140.1636  134.9148  157.2746 LP  0  0  0  0  0  0  0  0  0  0  0  0  # atno 17395 bound_to 11000

$$$$
