AV-unprocessed.smi:2845|AV-procd|sdf|10948|dock1
  -GOLD-   2272015393D 1   1.00000     0.00000
 Structure written by MMmdl.
 43 45  0  0  0  0  0  0  0  0  2 V2000
  151.9647  143.6944  160.2892 C   0  0  0  0  0  0  0  0  0  0  0  0
  151.7921  142.6692  159.1813 C   0  0  0  0  0  0  0  0  0  0  0  0
  150.9609  142.9935  158.0848 C   0  0  0  0  0  0  0  0  0  0  0  0
  150.8248  142.0358  157.0867 C   0  0  0  0  0  0  0  0  0  0  0  0
  150.0921  142.0481  155.8972 N   0  3  0  0  0  0  0  0  0  0  0  0
  150.2752  140.8703  155.2374 C   0  0  0  0  0  0  0  0  0  0  0  0
  151.1114  140.1059  155.9908 N   0  0  0  0  0  0  0  0  0  0  0  0
  151.6408  138.7579  155.7522 C   0  0  0  0  0  0  0  0  0  0  0  0
  150.6508  137.8628  154.9758 C   0  0  1  0  0  0  0  0  0  0  0  0
  151.3671  136.8550  154.2917 O   0  0  0  0  0  0  0  0  0  0  0  0
  149.5865  137.1970  155.8724 C   0  0  0  0  0  0  0  0  0  0  0  0
  149.5733  135.7479  155.7598 N   0  0  0  0  0  0  0  0  0  0  0  0
  149.0954  134.9559  154.7949 C   0  0  0  0  0  0  0  0  0  0  0  0
  149.2527  133.6596  155.0327 N   0  0  0  0  0  0  0  0  0  0  0  0
  149.8623  133.7395  156.2507 C   0  0  0  0  0  0  0  0  0  0  0  0
  150.4119  132.2532  157.1455 S   0  0  1  0  0  0  0  0  0  0  0  0
  150.7797  131.2632  155.6213 C   0  0  0  0  0  0  0  0  0  0  0  0
  151.7602  132.6136  157.7734 O   0  0  0  0  0  0  0  0  0  0  0  0
  150.0613  134.9582  156.7463 N   0  0  0  0  0  0  0  0  0  0  0  0
  151.4811  140.7919  157.1524 C   0  0  0  0  0  0  0  0  0  0  0  0
  152.3024  140.4555  158.2257 C   0  0  0  0  0  0  0  0  0  0  0  0
  152.4535  141.4155  159.2510 C   0  0  0  0  0  0  0  0  0  0  0  0
  153.3424  141.0756  160.4352 C   0  0  0  0  0  0  0  0  0  0  0  0
  151.3846  144.5966  160.0926 H   0  0  0  0  0  0  0  0  0  0  0  0
  153.0115  143.9849  160.3814 H   0  0  0  0  0  0  0  0  0  0  0  0
  151.6325  143.2867  161.2443 H   0  0  0  0  0  0  0  0  0  0  0  0
  150.4541  143.9458  158.0257 H   0  0  0  0  0  0  0  0  0  0  0  0
  149.8365  140.5931  154.2895 H   0  0  0  0  0  0  0  0  0  0  0  0
  152.5767  138.8588  155.2009 H   0  0  0  0  0  0  0  0  0  0  0  0
  151.9013  138.3278  156.7198 H   0  0  0  0  0  0  0  0  0  0  0  0
  150.1417  138.4595  154.2178 H   0  0  0  0  0  0  0  0  0  0  0  0
  151.0343  136.7980  153.4092 H   0  0  0  0  0  0  0  0  0  0  0  0
  149.7577  137.4529  156.9188 H   0  0  0  0  0  0  0  0  0  0  0  0
  148.5934  137.5687  155.6151 H   0  0  0  0  0  0  0  0  0  0  0  0
  148.6321  135.3350  153.8958 H   0  0  0  0  0  0  0  0  0  0  0  0
  149.9404  131.3008  154.9265 H   0  0  0  0  0  0  0  0  0  0  0  0
  150.9622  130.2220  155.8858 H   0  0  0  0  0  0  0  0  0  0  0  0
  151.6643  131.6536  155.1186 H   0  0  0  0  0  0  0  0  0  0  0  0
  152.8043  139.5011  158.2802 H   0  0  0  0  0  0  0  0  0  0  0  0
  153.7734  140.0795  160.3369 H   0  0  0  0  0  0  0  0  0  0  0  0
  152.7706  141.0989  161.3631 H   0  0  0  0  0  0  0  0  0  0  0  0
  154.1644  141.7872  160.5148 H   0  0  0  0  0  0  0  0  0  0  0  0
  149.5109  142.8039  155.5575 H   0  0  0  0  0  0  0  0  0  0  0  0
  1  2  1  0  0  0  0
  1 24  1  0  0  0  0
  1 25  1  0  0  0  0
  1 26  1  0  0  0  0
  2 22  1  0  0  0  0
  2  3  2  0  0  0  0
  3  4  1  0  0  0  0
  3 27  1  0  0  0  0
  4 20  2  0  0  0  0
  4  5  1  0  0  0  0
  5  6  2  0  0  0  0
  5 43  1  0  0  0  0
  6  7  1  0  0  0  0
  6 28  1  0  0  0  0
  7  8  1  0  0  0  0
  7 20  1  0  0  0  0
  8  9  1  0  0  0  0
  8 29  1  0  0  0  0
  8 30  1  0  0  0  0
  9 10  1  0  0  0  0
  9 11  1  0  0  0  0
  9 31  1  0  0  0  0
 10 32  1  0  0  0  0
 11 12  1  0  0  0  0
 11 33  1  0  0  0  0
 11 34  1  0  0  0  0
 12 19  1  0  0  0  0
 12 13  1  0  0  0  0
 13 14  2  0  0  0  0
 13 35  1  0  0  0  0
 14 15  1  0  0  0  0
 15 16  1  0  0  0  0
 15 19  2  0  0  0  0
 16 17  1  0  0  0  0
 16 18  2  0  0  0  0
 17 36  1  0  0  0  0
 17 37  1  0  0  0  0
 17 38  1  0  0  0  0
 20 21  1  0  0  0  0
 21 22  2  0  0  0  0
 21 39  1  0  0  0  0
 22 23  1  0  0  0  0
 23 40  1  0  0  0  0
 23 41  1  0  0  0  0
 23 42  1  0  0  0  0
M  CHG  1   5   1
M  END
> <s_m_source_file>
AV-unprocessed.smi

> <i_m_source_file_index>
2845

> <i_lp_mmshare_version>
43012

> <i_f3d_flags>
0

> <s_epik_input>
W0NIM11jKFtjSF0xKWMoW0NIM10pW2NIXWMoYzEyKW4oW2NIXW4yKVtDSDJdW0NASF0oW09IXSlbQ0gyXW4zW2NIXW5jKG4zKVtTQF0oPU8pW0NIM10=

> <s_epik_cmdline>
J2VwaWtfcHl0aG9uJywgJy1waCcsICc3LjAnLCAnLXRuJywgJzgnLCAnLW1hJywgJzIwMCcsICctbWV0YWxfYmluZGluZycsICctaW1hZScsICc8aW5maWxlLm1hZT4nLCAnLW9tYWUnLCAnPG91dGZpbGUubWFlPic=

> <r_lp_tautomer_probability>
1

> <r_epik_Ionization_Penalty>
1.12076

> <r_epik_Ionization_Penalty_Charging>
1.12075

> <r_epik_Ionization_Penalty_Neutral>
1.54566e-06

> <r_epik_State_Penalty>
1.17957

> <r_epik_Charging_Adjusted_Penalty>
2.30033

> <i_epik_Tot_Q>
1

> <i_epik_Tot_abs_Q>
1

> <r_epik_Metal_State_Penalty>
1.26402

> <b_epik_Metal_Only>
0

> <s_lp_Force_Field>
OPLS_2005

> <r_lp_Energy>
13.65

> <b_lp_Chiralities_Consistent>
1

> <s_lp_Variant>
AV-unprocessed.smi:2845-6

> <Gold.Version>
5.8.1

> <Gold.Id.Protein>
6NUR|6NUR_protein|mol2

> <Gold.PLP.Fitness>
57.5515

> <Gold.PLP.PLP>
-42.7735

> <Gold.PLP.part.hbond>
-4.0000

> <Gold.PLP.part.metal>
0.0000

> <Gold.PLP.part.buried>
-4.3289

> <Gold.PLP.part.nonpolar>
-34.6088

> <Gold.PLP.part.repulsive>
0.1994

> <Gold.PLP.ligand.clash>
0.0000

> <Gold.PLP.ligand.torsion>
2.0680

> <Gold.PLP.Chemscore.Hbond>
4.9432

> <Gold.PLP.Chemscore.CHOScore>
1.0000

> <Gold.PLP.Chemscore.Metal>
0.0000

> <Gold.Chemscore.Hbonds>
donor molecule, donor type, donor heavy atom, donor atom, acceptor molecule, acceptor atom, score
      L1  H     5    43       P1  8028  2.00
      L1  H    10    32       P1  7949  0.85
      P1  H  6896  6909       L1    18  0.91
      P1  H 10752 10765       L1    10  1.00
      L1  C    13    35       P1  7948  1.00

> <Gold.PLP.Chemscore.Internal.Correction>
1.0844

> <Gold.Rescore>
     Score         DG    S(hbond)    S(metal)    S(lipo)     H(rot)  DE(clash)    DE(int)     intcor
     15.52     -19.82       3.17        0.00      92.76       2.77       1.19       3.11       ----

> <Gold.Chemscore.Fitness>
15.5220

> <Gold.Chemscore.DG>
-19.8180

> <Gold.Chemscore.ZeroCoef>
-5.4800

> <Gold.Chemscore.Hbond>
3.1650

> <Gold.Chemscore.Metal>
0.0000

> <Gold.Chemscore.Lipo>
92.7608

> <Gold.Chemscore.Internal_Hbond>
0.0000

> <Gold.Chemscore.DEClash>
1.1860

> <Gold.Chemscore.DEInternal>
3.1100

> <Gold.Chemscore.Rot>
2.7681

> <Gold.Chemscore.Internal.Correction>
   9.000000E+99

> <Gold.Chemscore.Hbonds>
donor molecule, donor type, donor heavy atom, donor atom, acceptor molecule, acceptor atom, score
      L1  H     5    43       P1  8028  0.90
      L1  H    10    32       P1  7949  0.24
      P1  H  6896  6909       L1    18  0.88
      P1  H 10752 10765       L1    10  0.49

> <Gold.Chemscore.Hbond.Weighted>
-10.5712

> <Gold.Chemscore.Metal.Weighted>
-0.0000

> <Gold.Chemscore.Lipo.Weighted>
-10.8530

> <Gold.Chemscore.Internal_Hbond.Weighted>
0.0000

> <Gold.Chemscore.DEClash.Weighted>
1.1860

> <Gold.Chemscore.DEInternal.Weighted>
3.1100

> <Gold.Chemscore.Rot.Weighted>
7.0863

> <Gold.Chemscore.Internal.Correction.Weighted>
   9.000000E+99

> <Gold.Protein.RotatedTorsions>
[ 6907 6896 6895 6894 ] final  -72.39 input  -60.11 | X-H torsion
[ 7974 7965 7964 7962 ] final  -24.55 input  175.53 | X-H torsion
[ 8008 7997 7996 7995 ] final  -60.94 input   59.86 | X-H torsion
[ 10167 10162 10161 10158 ] final   57.31 input  -65.29 | X-H torsion
[ 10718 10713 10712 10709 ] final -151.06 input   66.30 | X-H torsion
[ 10763 10752 10751 10750 ] final  163.51 input  -60.55 | X-H torsion
[ 11005 11000 10999 10996 ] final   16.67 input  -57.11 | X-H torsion

> <Gold.Protein.ActiveResidues>
 VAL166  LYS551  ARG553  GLY616  TRP617  ASP618  TYR619  PRO620  LYS621  CYS622 
 ASP623  PHE694  ASN695  SER759  ASP760  ASP761  ALA762  ILE779  LEU786  VAL792 
 PHE793  MET794  SER795  GLU796  ALA797  LYS798  CYS799  TRP800  GLU811  SER814 

> <Gold.Protein.RotatedAtoms>
  150.7172  134.5169  159.5634 H   0  0  0  0  0  0  0  0  0  0  0  0  # atno 6907 bound_to 6896
  152.2733  134.7906  160.0419 H   0  0  0  0  0  0  0  0  0  0  0  0  # atno 6908 bound_to 6896
  151.8578  133.3416  159.3731 H   0  0  0  0  0  0  0  0  0  0  0  0  # atno 6909 bound_to 6896
  146.1547  140.4767  142.8596 H   0  0  0  0  0  0  0  0  0  0  0  0  # atno 7974 bound_to 7965
  154.4423  140.1028  156.6352 H   0  0  0  0  0  0  0  0  0  0  0  0  # atno 8008 bound_to 7997
  155.5561  140.3486  155.4461 H   0  0  0  0  0  0  0  0  0  0  0  0  # atno 8009 bound_to 7997
  156.0494  140.1300  157.0057 H   0  0  0  0  0  0  0  0  0  0  0  0  # atno 8010 bound_to 7997
  140.1994  144.4004  150.6536 H   0  0  0  0  0  0  0  0  0  0  0  0  # atno 10167 bound_to 10162
  156.4543  130.8183  151.2414 H   0  0  0  0  0  0  0  0  0  0  0  0  # atno 10718 bound_to 10713
  154.2949  135.2760  155.2638 H   0  0  0  0  0  0  0  0  0  0  0  0  # atno 10763 bound_to 10752
  154.5101  135.5785  153.6601 H   0  0  0  0  0  0  0  0  0  0  0  0  # atno 10764 bound_to 10752
  152.9909  135.6179  154.3116 H   0  0  0  0  0  0  0  0  0  0  0  0  # atno 10765 bound_to 10752
  140.4445  134.1287  155.7694 H   0  0  0  0  0  0  0  0  0  0  0  0  # atno 11005 bound_to 11000
  144.7949  140.6103  143.6517 LP  0  0  0  0  0  0  0  0  0  0  0  0  # atno 17320 bound_to 7965
  145.4736  139.1501  143.3800 LP  0  0  0  0  0  0  0  0  0  0  0  0  # atno 17321 bound_to 7965
  140.6401  143.2202  151.6309 LP  0  0  0  0  0  0  0  0  0  0  0  0  # atno 17342 bound_to 10162
  139.5223  144.3166  152.0947 LP  0  0  0  0  0  0  0  0  0  0  0  0  # atno 17343 bound_to 10162
  157.7501  131.0127  150.3397 LP  0  0  0  0  0  0  0  0  0  0  0  0  # atno 17370 bound_to 10713
  156.3783  130.3876  149.7122 LP  0  0  0  0  0  0  0  0  0  0  0  0  # atno 17371 bound_to 10713
  141.1691  133.8644  157.1625 LP  0  0  0  0  0  0  0  0  0  0  0  0  # atno 17394 bound_to 11000
  140.0048  135.0013  157.0268 LP  0  0  0  0  0  0  0  0  0  0  0  0  # atno 17395 bound_to 11000

$$$$
