AV-unprocessed.smi:2871|AV-procd|sdf|11030|dock1
  -GOLD-   2272015493D 1   1.00000     0.00000
 Structure written by MMmdl.
 38 40  0  0  0  0  0  0  0  0  1 V2000
  152.0508  144.8635  160.4387 C   0  0  0  0  0  0  0  0  0  0  0  0
  151.9779  144.0531  159.2275 N   0  0  0  0  0  0  0  0  0  0  0  0
  151.6979  144.6810  157.9424 C   0  0  0  0  0  0  0  0  0  0  0  0
  152.2794  142.6747  159.2903 C   0  0  0  0  0  0  0  0  0  0  0  0
  153.3161  142.1682  160.1117 C   0  0  0  0  0  0  0  0  0  0  0  0
  153.5230  140.7704  160.0953 C   0  0  0  0  0  0  0  0  0  0  0  0
  154.6021  140.1030  160.9348 C   0  0  0  0  0  0  0  0  0  0  0  0
  155.8037  140.3869  160.4317 F   0  0  0  0  0  0  0  0  0  0  0  0
  154.5665  140.5179  162.2017 F   0  0  0  0  0  0  0  0  0  0  0  0
  154.4299  138.7811  160.9185 F   0  0  0  0  0  0  0  0  0  0  0  0
  152.7650  139.9527  159.3308 N   0  0  0  0  0  0  0  0  0  0  0  0
  151.8148  140.5231  158.5914 C   0  0  0  0  0  0  0  0  0  0  0  0
  151.0561  139.6579  157.8248 N   0  0  0  0  0  0  0  0  0  0  0  0
  150.0379  140.0767  156.8694 C   0  0  2  0  0  0  0  0  0  0  0  0
  149.4215  138.9057  156.0938 C   0  0  0  0  0  0  0  0  0  0  0  0
  149.6675  139.3258  154.6395 C   0  0  1  0  0  0  0  0  0  0  0  0
  148.8199  140.5387  154.2318 C   0  0  0  0  0  0  0  0  0  0  0  0
  149.5219  141.6748  154.9753 C   0  0  0  0  0  0  0  0  0  0  0  0
  150.6276  140.9236  155.7291 C   0  0  2  0  0  0  0  0  0  0  0  0
  150.9432  139.9280  154.7688 O   0  0  0  0  0  0  0  0  0  0  0  0
  151.5394  141.8297  158.5326 N   0  0  0  0  0  0  0  0  0  0  0  0
  151.3468  144.4970  161.1867 H   0  0  0  0  0  0  0  0  0  0  0  0
  151.8084  145.9065  160.2352 H   0  0  0  0  0  0  0  0  0  0  0  0
  153.0551  144.8297  160.8624 H   0  0  0  0  0  0  0  0  0  0  0  0
  150.8157  144.2351  157.4821 H   0  0  0  0  0  0  0  0  0  0  0  0
  152.5444  144.5624  157.2653 H   0  0  0  0  0  0  0  0  0  0  0  0
  151.5092  145.7486  158.0553 H   0  0  0  0  0  0  0  0  0  0  0  0
  153.9284  142.8082  160.7285 H   0  0  0  0  0  0  0  0  0  0  0  0
  151.1719  138.6692  157.9932 H   0  0  0  0  0  0  0  0  0  0  0  0
  149.2741  140.6474  157.3997 H   0  0  0  0  0  0  0  0  0  0  0  0
  149.9363  137.9671  156.3049 H   0  0  0  0  0  0  0  0  0  0  0  0
  148.3630  138.7666  156.3158 H   0  0  0  0  0  0  0  0  0  0  0  0
  149.6308  138.4998  153.9290 H   0  0  0  0  0  0  0  0  0  0  0  0
  148.8649  140.7017  153.1544 H   0  0  0  0  0  0  0  0  0  0  0  0
  147.7736  140.4265  154.5182 H   0  0  0  0  0  0  0  0  0  0  0  0
  149.9517  142.3851  154.2683 H   0  0  0  0  0  0  0  0  0  0  0  0
  148.8554  142.2204  155.6443 H   0  0  0  0  0  0  0  0  0  0  0  0
  151.4654  141.5584  156.0205 H   0  0  0  0  0  0  0  0  0  0  0  0
  1  2  1  0  0  0  0
  1 22  1  0  0  0  0
  1 23  1  0  0  0  0
  1 24  1  0  0  0  0
  2  3  1  0  0  0  0
  2  4  1  0  0  0  0
  3 25  1  0  0  0  0
  3 26  1  0  0  0  0
  3 27  1  0  0  0  0
  4 21  1  0  0  0  0
  4  5  2  0  0  0  0
  5  6  1  0  0  0  0
  5 28  1  0  0  0  0
  6  7  1  0  0  0  0
  6 11  2  0  0  0  0
  7  8  1  0  0  0  0
  7  9  1  0  0  0  0
  7 10  1  0  0  0  0
 11 12  1  0  0  0  0
 12 13  1  0  0  0  0
 12 21  2  0  0  0  0
 13 14  1  0  0  0  0
 13 29  1  0  0  0  0
 14 19  1  0  0  0  0
 14 15  1  0  0  0  0
 14 30  1  0  0  0  0
 15 16  1  0  0  0  0
 15 31  1  0  0  0  0
 15 32  1  0  0  0  0
 16 20  1  0  0  0  0
 16 17  1  0  0  0  0
 16 33  1  0  0  0  0
 17 18  1  0  0  0  0
 17 34  1  0  0  0  0
 17 35  1  0  0  0  0
 18 19  1  0  0  0  0
 18 36  1  0  0  0  0
 18 37  1  0  0  0  0
 19 20  1  0  0  0  0
 19 38  1  0  0  0  0
M  END
> <s_m_source_file>
AV-unprocessed.smi

> <i_m_source_file_index>
2871

> <i_lp_mmshare_version>
43012

> <i_f3d_flags>
0

> <s_epik_input>
W0NIM11OKFtDSDNdKWMxW2NIXWMoQyhGKShGKUYpbmMobjEpW05IXVtDQEhdKFtDSDJdW0NAQEhdMjMpW0NAQEhdKE8zKVtDSDJdW0NIMl0y

> <s_epik_cmdline>
J2VwaWtfcHl0aG9uJywgJy1waCcsICc3LjAnLCAnLXRuJywgJzgnLCAnLW1hJywgJzIwMCcsICctbWV0YWxfYmluZGluZycsICctaW1hZScsICc8aW5maWxlLm1hZT4nLCAnLW9tYWUnLCAnPG91dGZpbGUubWFlPic=

> <r_lp_tautomer_probability>
1

> <r_epik_Ionization_Penalty>
0.00695968

> <r_epik_Ionization_Penalty_Charging>
0

> <r_epik_Ionization_Penalty_Neutral>
0.00695968

> <r_epik_State_Penalty>
0.0050343

> <r_epik_Charging_Adjusted_Penalty>
0.0050343

> <i_epik_Tot_Q>
0

> <i_epik_Tot_abs_Q>
0

> <r_epik_Metal_State_Penalty>
-0

> <b_epik_Metal_Only>
0

> <s_lp_Force_Field>
OPLS_2005

> <r_lp_Energy>
32.5714

> <b_lp_Chiralities_Consistent>
1

> <s_lp_Variant>
AV-unprocessed.smi:2871-1

> <Gold.Version>
5.8.1

> <Gold.Id.Protein>
6NUR|6NUR_protein|mol2

> <Gold.PLP.Fitness>
46.5617

> <Gold.PLP.PLP>
-45.4791

> <Gold.PLP.part.hbond>
-1.0000

> <Gold.PLP.part.metal>
0.0000

> <Gold.PLP.part.buried>
-3.4512

> <Gold.PLP.part.nonpolar>
-40.7938

> <Gold.PLP.part.repulsive>
0.1402

> <Gold.PLP.ligand.clash>
0.0000

> <Gold.PLP.ligand.torsion>
0.9829

> <Gold.PLP.Chemscore.Hbond>
1.0000

> <Gold.PLP.Chemscore.CHOScore>
0.0000

> <Gold.PLP.Chemscore.Metal>
0.0000

> <Gold.Chemscore.Hbonds>
donor molecule, donor type, donor heavy atom, donor atom, acceptor molecule, acceptor atom, score
      P1  H  7989  7998       L1    20  1.00

> <Gold.PLP.Chemscore.Internal.Correction>
0.0484

> <Gold.Rescore>
     Score         DG    S(hbond)    S(metal)    S(lipo)     H(rot)  DE(clash)    DE(int)     intcor
     15.11     -16.11       0.82        0.00      89.37       1.00       0.28       0.72       ----

> <Gold.Chemscore.Fitness>
15.1117

> <Gold.Chemscore.DG>
-16.1111

> <Gold.Chemscore.ZeroCoef>
-5.4800

> <Gold.Chemscore.Hbond>
0.8188

> <Gold.Chemscore.Metal>
0.0000

> <Gold.Chemscore.Lipo>
89.3704

> <Gold.Chemscore.Internal_Hbond>
0.0000

> <Gold.Chemscore.DEClash>
0.2774

> <Gold.Chemscore.DEInternal>
0.7219

> <Gold.Chemscore.Rot>
1.0000

> <Gold.Chemscore.Internal.Correction>
   9.000000E+99

> <Gold.Chemscore.Hbonds>
donor molecule, donor type, donor heavy atom, donor atom, acceptor molecule, acceptor atom, score
      P1  H  7989  7998       L1    20  0.34

> <Gold.Chemscore.Hbond.Weighted>
-2.7347

> <Gold.Chemscore.Metal.Weighted>
-0.0000

> <Gold.Chemscore.Lipo.Weighted>
-10.4563

> <Gold.Chemscore.Internal_Hbond.Weighted>
0.0000

> <Gold.Chemscore.DEClash.Weighted>
0.2774

> <Gold.Chemscore.DEInternal.Weighted>
0.7219

> <Gold.Chemscore.Rot.Weighted>
2.5600

> <Gold.Chemscore.Internal.Correction.Weighted>
   9.000000E+99

> <Gold.Protein.RotatedTorsions>
[ 6907 6896 6895 6894 ] final   67.10 input  -60.11 | X-H torsion
[ 7974 7965 7964 7962 ] final  -39.53 input  175.53 | X-H torsion
[ 8008 7997 7996 7995 ] final   -9.89 input   59.86 | X-H torsion
[ 10167 10162 10161 10158 ] final -163.58 input  -65.29 | X-H torsion
[ 10718 10713 10712 10709 ] final -133.68 input   66.30 | X-H torsion
[ 10763 10752 10751 10750 ] final   48.71 input  -60.55 | X-H torsion
[ 11005 11000 10999 10996 ] final  167.69 input  -57.11 | X-H torsion

> <Gold.Protein.ActiveResidues>
 VAL166  LYS551  ARG553  GLY616  TRP617  ASP618  TYR619  PRO620  LYS621  CYS622 
 ASP623  PHE694  ASN695  SER759  ASP760  ASP761  ALA762  ILE779  LEU786  VAL792 
 PHE793  MET794  SER795  GLU796  ALA797  LYS798  CYS799  TRP800  GLU811  SER814 

> <Gold.Protein.RotatedAtoms>
  152.4528  134.5356  159.9823 H   0  0  0  0  0  0  0  0  0  0  0  0  # atno 6907 bound_to 6896
  151.5425  133.3424  159.2946 H   0  0  0  0  0  0  0  0  0  0  0  0  # atno 6908 bound_to 6896
  150.8462  134.7803  159.7035 H   0  0  0  0  0  0  0  0  0  0  0  0  # atno 6909 bound_to 6896
  146.0388  140.6636  142.9097 H   0  0  0  0  0  0  0  0  0  0  0  0  # atno 7974 bound_to 7965
  154.5605  140.2343  155.8343 H   0  0  0  0  0  0  0  0  0  0  0  0  # atno 8008 bound_to 7997
  156.2025  140.3048  155.9516 H   0  0  0  0  0  0  0  0  0  0  0  0  # atno 8009 bound_to 7997
  155.2898  140.0426  157.3012 H   0  0  0  0  0  0  0  0  0  0  0  0  # atno 8010 bound_to 7997
  139.6311  144.0439  152.2016 H   0  0  0  0  0  0  0  0  0  0  0  0  # atno 10167 bound_to 10162
  156.2475  130.7133  151.1018 H   0  0  0  0  0  0  0  0  0  0  0  0  # atno 10718 bound_to 10713
  152.9790  135.5935  154.3970 H   0  0  0  0  0  0  0  0  0  0  0  0  # atno 10763 bound_to 10752
  154.3620  135.2767  155.2317 H   0  0  0  0  0  0  0  0  0  0  0  0  # atno 10764 bound_to 10752
  154.4310  135.6036  153.6123 H   0  0  0  0  0  0  0  0  0  0  0  0  # atno 10765 bound_to 10752
  140.2794  134.7762  157.3745 H   0  0  0  0  0  0  0  0  0  0  0  0  # atno 11005 bound_to 11000
  144.7064  140.3870  143.7114 LP  0  0  0  0  0  0  0  0  0  0  0  0  # atno 17320 bound_to 7965
  145.6919  139.1641  143.2642 LP  0  0  0  0  0  0  0  0  0  0  0  0  # atno 17321 bound_to 7965
  140.0104  144.6228  150.7652 LP  0  0  0  0  0  0  0  0  0  0  0  0  # atno 17342 bound_to 10162
  140.7439  143.2853  151.3481 LP  0  0  0  0  0  0  0  0  0  0  0  0  # atno 17343 bound_to 10162
  157.7201  131.0687  150.6171 LP  0  0  0  0  0  0  0  0  0  0  0  0  # atno 17370 bound_to 10713
  156.6249  130.4416  149.5808 LP  0  0  0  0  0  0  0  0  0  0  0  0  # atno 17371 bound_to 10713
  140.1297  134.5111  155.8115 LP  0  0  0  0  0  0  0  0  0  0  0  0  # atno 17394 bound_to 11000
  141.2165  133.6785  156.7018 LP  0  0  0  0  0  0  0  0  0  0  0  0  # atno 17395 bound_to 11000

$$$$
