AV-unprocessed.smi:1828|AV-procd|sdf|7426|dock1
  -GOLD-   22720 9103D 1   1.00000     0.00000
 Structure written by MMmdl.
 40 42  0  0  0  0  0  0  0  0  2 V2000
  151.3907  136.6231  154.2552 O   0  0  0  0  0  0  0  0  0  0  0  0
  151.7214  137.9879  154.3876 C   0  0  0  0  0  0  0  0  0  0  0  0
  150.5279  138.8808  154.2669 C   0  0  0  0  0  0  0  0  0  0  0  0
  149.4462  138.6424  153.4723 N   0  3  0  0  0  0  0  0  0  0  0  0
  148.5104  139.6653  153.6234 C   0  0  0  0  0  0  0  0  0  0  0  0
  147.2659  139.8570  153.0316 C   0  0  0  0  0  0  0  0  0  0  0  0
  146.5554  141.0139  153.4132 C   0  0  0  0  0  0  0  0  0  0  0  0
  147.0857  141.9259  154.3487 C   0  0  0  0  0  0  0  0  0  0  0  0
  148.3490  141.7207  154.9416 C   0  0  0  0  0  0  0  0  0  0  0  0
  149.0459  140.5754  154.5571 C   0  0  0  0  0  0  0  0  0  0  0  0
  150.2918  140.0549  154.9257 N   0  0  0  0  0  0  0  0  0  0  0  0
  151.1011  140.7851  155.9162 C   0  0  0  0  0  0  0  0  0  0  0  0
  151.4243  139.9320  157.1594 C   0  0  2  0  0  0  0  0  0  0  0  0
  150.2593  139.2210  157.5229 O   0  0  0  0  0  0  0  0  0  0  0  0
  151.9760  140.7720  158.3031 C   0  0  0  0  0  0  0  0  0  0  0  0
  152.7712  140.1890  159.3135 C   0  0  0  0  0  0  0  0  0  0  0  0
  153.2425  140.9732  160.3832 C   0  0  0  0  0  0  0  0  0  0  0  0
  152.9183  142.3416  160.4533 C   0  0  0  0  0  0  0  0  0  0  0  0
  152.1201  142.9348  159.4506 C   0  0  0  0  0  0  0  0  0  0  0  0
  151.7369  144.4054  159.5110 C   0  0  0  0  0  0  0  0  0  0  0  0
  152.2853  145.0517  158.4825 F   0  0  0  0  0  0  0  0  0  0  0  0
  150.4108  144.5177  159.4312 F   0  0  0  0  0  0  0  0  0  0  0  0
  152.1442  144.9829  160.6416 F   0  0  0  0  0  0  0  0  0  0  0  0
  151.6583  142.1447  158.3773 C   0  0  0  0  0  0  0  0  0  0  0  0
  151.1041  136.4680  153.3680 H   0  0  0  0  0  0  0  0  0  0  0  0
  152.1847  138.1476  155.3616 H   0  0  0  0  0  0  0  0  0  0  0  0
  152.4676  138.2416  153.6362 H   0  0  0  0  0  0  0  0  0  0  0  0
  146.8570  139.1587  152.3159 H   0  0  0  0  0  0  0  0  0  0  0  0
  145.5838  141.2050  152.9806 H   0  0  0  0  0  0  0  0  0  0  0  0
  146.5118  142.8011  154.6176 H   0  0  0  0  0  0  0  0  0  0  0  0
  148.7450  142.4246  155.6588 H   0  0  0  0  0  0  0  0  0  0  0  0
  152.0160  141.1246  155.4306 H   0  0  0  0  0  0  0  0  0  0  0  0
  150.5608  141.6904  156.1961 H   0  0  0  0  0  0  0  0  0  0  0  0
  152.1691  139.1810  156.8934 H   0  0  0  0  0  0  0  0  0  0  0  0
  149.5415  139.8328  157.5859 H   0  0  0  0  0  0  0  0  0  0  0  0
  153.0151  139.1372  159.2779 H   0  0  0  0  0  0  0  0  0  0  0  0
  153.8494  140.5229  161.1549 H   0  0  0  0  0  0  0  0  0  0  0  0
  153.2835  142.9267  161.2842 H   0  0  0  0  0  0  0  0  0  0  0  0
  151.0395  142.5951  157.6150 H   0  0  0  0  0  0  0  0  0  0  0  0
  149.3597  137.8335  152.8703 H   0  0  0  0  0  0  0  0  0  0  0  0
  1  2  1  0  0  0  0
  1 25  1  0  0  0  0
  2  3  1  0  0  0  0
  2 26  1  0  0  0  0
  2 27  1  0  0  0  0
  3 11  1  0  0  0  0
  3  4  2  0  0  0  0
  4  5  1  0  0  0  0
  4 40  1  0  0  0  0
  5 10  2  0  0  0  0
  5  6  1  0  0  0  0
  6  7  2  0  0  0  0
  6 28  1  0  0  0  0
  7  8  1  0  0  0  0
  7 29  1  0  0  0  0
  8  9  2  0  0  0  0
  8 30  1  0  0  0  0
  9 10  1  0  0  0  0
  9 31  1  0  0  0  0
 10 11  1  0  0  0  0
 11 12  1  0  0  0  0
 12 13  1  0  0  0  0
 12 32  1  0  0  0  0
 12 33  1  0  0  0  0
 13 14  1  0  0  0  0
 13 15  1  0  0  0  0
 13 34  1  0  0  0  0
 14 35  1  0  0  0  0
 15 24  1  0  0  0  0
 15 16  2  0  0  0  0
 16 17  1  0  0  0  0
 16 36  1  0  0  0  0
 17 18  2  0  0  0  0
 17 37  1  0  0  0  0
 18 19  1  0  0  0  0
 18 38  1  0  0  0  0
 19 20  1  0  0  0  0
 19 24  2  0  0  0  0
 20 21  1  0  0  0  0
 20 22  1  0  0  0  0
 20 23  1  0  0  0  0
 24 39  1  0  0  0  0
M  CHG  1   4   1
M  END
> <s_m_source_file>
AV-unprocessed.smi

> <i_m_source_file_index>
1828

> <i_lp_mmshare_version>
43012

> <i_f3d_flags>
0

> <s_epik_input>
W2NIXTFbY0hdW2NIXVtjSF1jKGMxMiluKGMobjIpW0NIMl1bT0hdKVtDSDJdW0NASF0oW09IXSljM1tjSF1bY0hdW2NIXWMoQyhGKShGKUYpW2NIXTM=

> <s_epik_cmdline>
J2VwaWtfcHl0aG9uJywgJy1waCcsICc3LjAnLCAnLXRuJywgJzgnLCAnLW1hJywgJzIwMCcsICctbWV0YWxfYmluZGluZycsICctaW1hZScsICc8aW5maWxlLm1hZT4nLCAnLW9tYWUnLCAnPG91dGZpbGUubWFlPic=

> <r_epik_Ionization_Penalty>
1.35643

> <r_epik_Ionization_Penalty_Charging>
1.35557

> <r_epik_Ionization_Penalty_Neutral>
0.000856502

> <r_epik_State_Penalty>
1.43401

> <r_epik_Charging_Adjusted_Penalty>
2.78958

> <i_epik_Tot_Q>
1

> <i_epik_Tot_abs_Q>
1

> <r_epik_Metal_State_Penalty>
5.47166

> <b_epik_Metal_Only>
0

> <s_lp_Force_Field>
OPLS_2005

> <r_lp_Energy>
16.3516

> <b_lp_Chiralities_Consistent>
1

> <s_lp_Variant>
AV-unprocessed.smi:1828-3

> <Gold.Version>
5.8.1

> <Gold.Id.Protein>
6NUR|6NUR_protein|mol2

> <Gold.PLP.Fitness>
69.5736

> <Gold.PLP.PLP>
-59.9191

> <Gold.PLP.part.hbond>
-4.0000

> <Gold.PLP.part.metal>
0.0000

> <Gold.PLP.part.buried>
0.0049

> <Gold.PLP.part.nonpolar>
-55.7977

> <Gold.PLP.part.repulsive>
0.0815

> <Gold.PLP.ligand.clash>
0.0000

> <Gold.PLP.ligand.torsion>
1.2174

> <Gold.PLP.Chemscore.Hbond>
4.0000

> <Gold.PLP.Chemscore.CHOScore>
0.0000

> <Gold.PLP.Chemscore.Metal>
0.0000

> <Gold.Chemscore.Hbonds>
donor molecule, donor type, donor heavy atom, donor atom, acceptor molecule, acceptor atom, score
      L1  H     1    25       P1  7949  1.00
      L1  H     4    40       P1  7948  2.00
      P1  H 10752 10763       L1     1  1.00

> <Gold.PLP.Chemscore.Internal.Correction>
0.0892

> <Gold.Rescore>
     Score         DG    S(hbond)    S(metal)    S(lipo)     H(rot)  DE(clash)    DE(int)     intcor
     18.46     -20.42       2.59        0.00     118.97       2.98       0.64       1.32       ----

> <Gold.Chemscore.Fitness>
18.4572

> <Gold.Chemscore.DG>
-20.4169

> <Gold.Chemscore.ZeroCoef>
-5.4800

> <Gold.Chemscore.Hbond>
2.5903

> <Gold.Chemscore.Metal>
0.0000

> <Gold.Chemscore.Lipo>
118.9712

> <Gold.Chemscore.Internal_Hbond>
0.0000

> <Gold.Chemscore.DEClash>
0.6392

> <Gold.Chemscore.DEInternal>
1.3205

> <Gold.Chemscore.Rot>
2.9822

> <Gold.Chemscore.Internal.Correction>
   9.000000E+99

> <Gold.Chemscore.Hbonds>
donor molecule, donor type, donor heavy atom, donor atom, acceptor molecule, acceptor atom, score
      L1  H     1    25       P1  7949  0.34
      L1  H     4    40       P1  7948  0.93
      P1  H 10752 10763       L1     1  0.28

> <Gold.Chemscore.Hbond.Weighted>
-8.6516

> <Gold.Chemscore.Metal.Weighted>
-0.0000

> <Gold.Chemscore.Lipo.Weighted>
-13.9196

> <Gold.Chemscore.Internal_Hbond.Weighted>
0.0000

> <Gold.Chemscore.DEClash.Weighted>
0.6392

> <Gold.Chemscore.DEInternal.Weighted>
1.3205

> <Gold.Chemscore.Rot.Weighted>
7.6343

> <Gold.Chemscore.Internal.Correction.Weighted>
   9.000000E+99

> <Gold.Protein.RotatedTorsions>
[ 6907 6896 6895 6894 ] final  141.22 input  -60.11 | X-H torsion
[ 7974 7965 7964 7962 ] final   35.13 input  175.53 | X-H torsion
[ 8008 7997 7996 7995 ] final   -8.04 input   59.86 | X-H torsion
[ 10167 10162 10161 10158 ] final   65.34 input  -65.29 | X-H torsion
[ 10718 10713 10712 10709 ] final -111.03 input   66.30 | X-H torsion
[ 10763 10752 10751 10750 ] final   46.64 input  -60.55 | X-H torsion
[ 11005 11000 10999 10996 ] final -129.06 input  -57.11 | X-H torsion

> <Gold.Protein.ActiveResidues>
 VAL166  LYS551  ARG553  GLY616  TRP617  ASP618  TYR619  PRO620  LYS621  CYS622 
 ASP623  PHE694  ASN695  SER759  ASP760  ASP761  ALA762  ILE779  LEU786  VAL792 
 PHE793  MET794  SER795  GLU796  ALA797  LYS798  CYS799  TRP800  GLU811  SER814 

> <Gold.Protein.RotatedAtoms>
  152.2336  133.5078  159.5229 H   0  0  0  0  0  0  0  0  0  0  0  0  # atno 6907 bound_to 6896
  150.7044  134.1183  159.4034 H   0  0  0  0  0  0  0  0  0  0  0  0  # atno 6908 bound_to 6896
  151.9104  135.0341  160.0564 H   0  0  0  0  0  0  0  0  0  0  0  0  # atno 6909 bound_to 6896
  146.1305  139.6182  142.9230 H   0  0  0  0  0  0  0  0  0  0  0  0  # atno 7974 bound_to 7965
  154.5779  140.2391  155.8096 H   0  0  0  0  0  0  0  0  0  0  0  0  # atno 8008 bound_to 7997
  156.2157  140.3013  155.9791 H   0  0  0  0  0  0  0  0  0  0  0  0  # atno 8009 bound_to 7997
  155.2593  140.0414  157.2986 H   0  0  0  0  0  0  0  0  0  0  0  0  # atno 8010 bound_to 7997
  140.1123  144.4807  150.6970 H   0  0  0  0  0  0  0  0  0  0  0  0  # atno 10167 bound_to 10162
  156.0624  130.5846  150.8318 H   0  0  0  0  0  0  0  0  0  0  0  0  # atno 10718 bound_to 10713
  152.9808  135.6001  154.3633 H   0  0  0  0  0  0  0  0  0  0  0  0  # atno 10763 bound_to 10752
  154.3313  135.2768  155.2472 H   0  0  0  0  0  0  0  0  0  0  0  0  # atno 10764 bound_to 10752
  154.4595  135.5969  153.6301 H   0  0  0  0  0  0  0  0  0  0  0  0  # atno 10765 bound_to 10752
  140.9464  134.1124  157.4103 H   0  0  0  0  0  0  0  0  0  0  0  0  # atno 11005 bound_to 11000
  145.5271  141.0429  143.2403 LP  0  0  0  0  0  0  0  0  0  0  0  0  # atno 17320 bound_to 7965
  144.7685  139.6788  143.7204 LP  0  0  0  0  0  0  0  0  0  0  0  0  # atno 17321 bound_to 7965
  140.6918  143.2381  151.5109 LP  0  0  0  0  0  0  0  0  0  0  0  0  # atno 17342 bound_to 10162
  139.5612  144.2151  152.1695 LP  0  0  0  0  0  0  0  0  0  0  0  0  # atno 17343 bound_to 10162
  157.5642  131.0946  150.9514 LP  0  0  0  0  0  0  0  0  0  0  0  0  # atno 17370 bound_to 10713
  156.9745  130.5503  149.5292 LP  0  0  0  0  0  0  0  0  0  0  0  0  # atno 17371 bound_to 10713
  139.8834  135.0052  156.6301 LP  0  0  0  0  0  0  0  0  0  0  0  0  # atno 17394 bound_to 11000
  140.7663  133.8775  155.8457 LP  0  0  0  0  0  0  0  0  0  0  0  0  # atno 17395 bound_to 11000

$$$$
