AV-unprocessed.smi:2531|AV-procd|sdf|9964|dock7
  -GOLD-   2272014 03D 1   1.00000     0.00000
 Structure written by MMmdl.
 46 48  0  0  0  0  0  0  0  0  1 V2000
  150.0720  142.7968  158.7877 O   0  0  0  0  0  0  0  0  0  0  0  0
  151.1557  142.2125  158.7531 C   0  0  0  0  0  0  0  0  0  0  0  0
  152.4676  142.9350  159.1365 C   0  0  0  0  0  0  0  0  0  0  0  0
  153.0953  142.4276  160.4461 C   0  0  0  0  0  0  0  0  0  0  0  0
  152.4125  143.2157  161.5721 C   0  0  0  0  0  0  0  0  0  0  0  0
  151.8442  144.4866  160.9223 C   0  0  0  0  0  0  0  0  0  0  0  0
  152.2372  144.4235  159.4408 C   0  0  0  0  0  0  0  0  0  0  0  0
  151.2326  140.8511  158.4433 N   0  0  0  0  0  0  0  0  0  0  0  0
  150.4145  140.2483  157.4017 C   0  0  0  0  0  0  0  0  0  0  0  0
  151.5608  139.2429  157.2434 C   0  0  0  0  0  0  0  0  0  0  0  0
  151.9921  138.9267  155.4748 S   0  0  0  0  0  0  0  0  0  0  0  0
  151.0374  139.6565  154.6263 O   0  0  0  0  0  0  0  0  0  0  0  0
  153.4379  139.1045  155.2701 O   0  0  0  0  0  0  0  0  0  0  0  0
  151.6527  137.2458  155.3086 N   0  0  0  0  0  0  0  0  0  0  0  0
  150.2777  136.8034  155.5312 C   0  0  0  0  0  0  0  0  0  0  0  0
  150.2071  135.8748  156.7508 C   0  0  0  0  0  0  0  0  0  0  0  0
  149.9741  134.4283  156.3576 C   0  0  0  0  0  0  0  0  0  0  0  0
  149.6956  134.0808  155.0183 C   0  0  0  0  0  0  0  0  0  0  0  0
  149.4940  132.7222  154.7061 C   0  0  0  0  0  0  0  0  0  0  0  0
  149.5794  131.7688  155.7388 C   0  0  0  0  0  0  0  0  0  0  0  0
  149.8640  132.2180  157.0437 C   0  0  0  0  0  0  0  0  0  0  0  0
  150.0585  133.5180  157.3541 N   0  0  0  0  0  0  0  0  0  0  0  0
  152.4677  140.2567  157.9552 C   0  0  0  0  0  0  0  0  0  0  0  0
  153.1803  142.8116  158.3209 H   0  0  0  0  0  0  0  0  0  0  0  0
  153.0134  141.3489  160.5866 H   0  0  0  0  0  0  0  0  0  0  0  0
  154.1614  142.6593  160.4399 H   0  0  0  0  0  0  0  0  0  0  0  0
  151.6023  142.6286  162.0062 H   0  0  0  0  0  0  0  0  0  0  0  0
  153.1136  143.4465  162.3748 H   0  0  0  0  0  0  0  0  0  0  0  0
  150.7580  144.4940  161.0208 H   0  0  0  0  0  0  0  0  0  0  0  0
  152.2203  145.3934  161.3967 H   0  0  0  0  0  0  0  0  0  0  0  0
  153.1697  144.9680  159.2874 H   0  0  0  0  0  0  0  0  0  0  0  0
  151.4884  144.8928  158.8011 H   0  0  0  0  0  0  0  0  0  0  0  0
  149.4791  139.8183  157.7612 H   0  0  0  0  0  0  0  0  0  0  0  0
  150.2775  140.8885  156.5278 H   0  0  0  0  0  0  0  0  0  0  0  0
  151.3969  138.3159  157.7953 H   0  0  0  0  0  0  0  0  0  0  0  0
  152.0065  136.8938  154.4194 H   0  0  0  0  0  0  0  0  0  0  0  0
  149.6387  137.6748  155.6779 H   0  0  0  0  0  0  0  0  0  0  0  0
  149.9233  136.2859  154.6388 H   0  0  0  0  0  0  0  0  0  0  0  0
  151.1326  135.9387  157.3252 H   0  0  0  0  0  0  0  0  0  0  0  0
  149.4080  136.1978  157.4198 H   0  0  0  0  0  0  0  0  0  0  0  0
  149.6390  134.8348  154.2470 H   0  0  0  0  0  0  0  0  0  0  0  0
  149.2788  132.4173  153.6926 H   0  0  0  0  0  0  0  0  0  0  0  0
  149.4314  130.7184  155.5360 H   0  0  0  0  0  0  0  0  0  0  0  0
  149.9376  131.5146  157.8600 H   0  0  0  0  0  0  0  0  0  0  0  0
  153.0281  140.9151  157.2893 H   0  0  0  0  0  0  0  0  0  0  0  0
  153.0912  139.8311  158.7417 H   0  0  0  0  0  0  0  0  0  0  0  0
  1  2  2  0  0  0  0
  2  3  1  0  0  0  0
  2  8  1  0  0  0  0
  3  7  1  0  0  0  0
  3  4  1  0  0  0  0
  3 24  1  0  0  0  0
  4  5  1  0  0  0  0
  4 25  1  0  0  0  0
  4 26  1  0  0  0  0
  5  6  1  0  0  0  0
  5 27  1  0  0  0  0
  5 28  1  0  0  0  0
  6  7  1  0  0  0  0
  6 29  1  0  0  0  0
  6 30  1  0  0  0  0
  7 31  1  0  0  0  0
  7 32  1  0  0  0  0
  8 23  1  0  0  0  0
  8  9  1  0  0  0  0
  9 10  1  0  0  0  0
  9 33  1  0  0  0  0
  9 34  1  0  0  0  0
 10 11  1  0  0  0  0
 10 23  1  0  0  0  0
 10 35  1  0  0  0  0
 11 12  2  0  0  0  0
 11 13  2  0  0  0  0
 11 14  1  0  0  0  0
 14 15  1  0  0  0  0
 14 36  1  0  0  0  0
 15 16  1  0  0  0  0
 15 37  1  0  0  0  0
 15 38  1  0  0  0  0
 16 17  1  0  0  0  0
 16 39  1  0  0  0  0
 16 40  1  0  0  0  0
 17 22  1  0  0  0  0
 17 18  2  0  0  0  0
 18 19  1  0  0  0  0
 18 41  1  0  0  0  0
 19 20  2  0  0  0  0
 19 42  1  0  0  0  0
 20 21  1  0  0  0  0
 20 43  1  0  0  0  0
 21 22  2  0  0  0  0
 21 44  1  0  0  0  0
 23 45  1  0  0  0  0
 23 46  1  0  0  0  0
M  END
> <s_m_source_file>
AV-unprocessed.smi

> <i_m_source_file_index>
2531

> <i_lp_mmshare_version>
43012

> <i_f3d_flags>
0

> <s_epik_input>
W0NIMl0xW0NIMl1bQ0gyXVtDSDJdW0NIXTFDKD1PKU4yW0NIMl1bQ0hdKFtDSDJdMilTKD1PKSg9TylbTkhdW0NIMl1bQ0gyXWMzW2NIXVtjSF1bY0hdW2NIXW4z

> <s_epik_cmdline>
J2VwaWtfcHl0aG9uJywgJy1waCcsICc3LjAnLCAnLXRuJywgJzgnLCAnLW1hJywgJzIwMCcsICctbWV0YWxfYmluZGluZycsICctaW1hZScsICc8aW5maWxlLm1hZT4nLCAnLW9tYWUnLCAnPG91dGZpbGUubWFlPic=

> <r_epik_Ionization_Penalty>
0.0203172

> <r_epik_Ionization_Penalty_Charging>
0

> <r_epik_Ionization_Penalty_Neutral>
0.0203172

> <r_epik_State_Penalty>
0.0162494

> <r_epik_Charging_Adjusted_Penalty>
0.0162494

> <i_epik_Tot_Q>
0

> <i_epik_Tot_abs_Q>
0

> <r_epik_Metal_State_Penalty>
0.0444853

> <b_epik_Metal_Only>
0

> <s_lp_Force_Field>
OPLS_2005

> <r_lp_Energy>
30.9959

> <b_lp_Chiralities_Consistent>
1

> <s_lp_Variant>
AV-unprocessed.smi:2531-1

> <Gold.Version>
5.8.1

> <Gold.Id.Protein>
6NUR|6NUR_protein|mol2

> <Gold.PLP.Fitness>
55.1263

> <Gold.PLP.PLP>
-48.1224

> <Gold.PLP.part.hbond>
-4.3618

> <Gold.PLP.part.metal>
0.0000

> <Gold.PLP.part.buried>
-6.5910

> <Gold.PLP.part.nonpolar>
-38.0084

> <Gold.PLP.part.repulsive>
0.1721

> <Gold.PLP.ligand.clash>
0.0000

> <Gold.PLP.ligand.torsion>
1.7784

> <Gold.PLP.Chemscore.Hbond>
2.9600

> <Gold.PLP.Chemscore.CHOScore>
0.0000

> <Gold.PLP.Chemscore.Metal>
0.0000

> <Gold.Chemscore.Hbonds>
donor molecule, donor type, donor heavy atom, donor atom, acceptor molecule, acceptor atom, score
      P1  H  6896  6908       L1    22  0.93
      P1  H  7989  7998       L1    12  1.00
      P1  H  7997  8010       L1    13  1.00

> <Gold.PLP.Chemscore.Internal.Correction>
1.6807

> <Gold.Rescore>
     Score         DG    S(hbond)    S(metal)    S(lipo)     H(rot)  DE(clash)    DE(int)     intcor
     20.94     -22.78       2.83        0.00     107.64       1.85       0.14       1.70       ----

> <Gold.Chemscore.Fitness>
20.9385

> <Gold.Chemscore.DG>
-22.7753

> <Gold.Chemscore.ZeroCoef>
-5.4800

> <Gold.Chemscore.Hbond>
2.8251

> <Gold.Chemscore.Metal>
0.0000

> <Gold.Chemscore.Lipo>
107.6422

> <Gold.Chemscore.Internal_Hbond>
0.0000

> <Gold.Chemscore.DEClash>
0.1359

> <Gold.Chemscore.DEInternal>
1.7008

> <Gold.Chemscore.Rot>
1.8494

> <Gold.Chemscore.Internal.Correction>
   9.000000E+99

> <Gold.Chemscore.Hbonds>
donor molecule, donor type, donor heavy atom, donor atom, acceptor molecule, acceptor atom, score
      P1  H  6896  6908       L1    22  0.60
      P1  H  7989  7998       L1    12  0.97
      P1  H  7997  8010       L1    13  0.97

> <Gold.Chemscore.Hbond.Weighted>
-9.4357

> <Gold.Chemscore.Metal.Weighted>
-0.0000

> <Gold.Chemscore.Lipo.Weighted>
-12.5941

> <Gold.Chemscore.Internal_Hbond.Weighted>
0.0000

> <Gold.Chemscore.DEClash.Weighted>
0.1359

> <Gold.Chemscore.DEInternal.Weighted>
1.7008

> <Gold.Chemscore.Rot.Weighted>
4.7346

> <Gold.Chemscore.Internal.Correction.Weighted>
   9.000000E+99

> <Gold.Protein.RotatedTorsions>
[ 6907 6896 6895 6894 ] final  106.17 input  -60.11 | X-H torsion
[ 7974 7965 7964 7962 ] final   89.76 input  175.53 | X-H torsion
[ 8008 7997 7996 7995 ] final   98.25 input   59.86 | X-H torsion
[ 10167 10162 10161 10158 ] final  -25.21 input  -65.29 | X-H torsion
[ 10718 10713 10712 10709 ] final -118.26 input   66.30 | X-H torsion
[ 10763 10752 10751 10750 ] final   59.99 input  -60.55 | X-H torsion
[ 11005 11000 10999 10996 ] final -160.76 input  -57.11 | X-H torsion

> <Gold.Protein.ActiveResidues>
 VAL166  LYS551  ARG553  GLY616  TRP617  ASP618  TYR619  PRO620  LYS621  CYS622 
 ASP623  PHE694  ASN695  SER759  ASP760  ASP761  ALA762  ILE779  LEU786  VAL792 
 PHE793  MET794  SER795  GLU796  ALA797  LYS798  CYS799  TRP800  GLU811  SER814 

> <Gold.Protein.RotatedAtoms>
  152.5203  133.9420  159.7630 H   0  0  0  0  0  0  0  0  0  0  0  0  # atno 6907 bound_to 6896
  150.9748  133.6298  159.2739 H   0  0  0  0  0  0  0  0  0  0  0  0  # atno 6908 bound_to 6896
  151.3497  135.0887  159.9451 H   0  0  0  0  0  0  0  0  0  0  0  0  # atno 6909 bound_to 6896
  145.5281  139.2282  143.2634 H   0  0  0  0  0  0  0  0  0  0  0  0  # atno 7974 bound_to 7965
  156.0985  140.3246  155.7909 H   0  0  0  0  0  0  0  0  0  0  0  0  # atno 8008 bound_to 7997
  155.4878  140.0559  157.2975 H   0  0  0  0  0  0  0  0  0  0  0  0  # atno 8009 bound_to 7997
  154.4681  140.1999  156.0080 H   0  0  0  0  0  0  0  0  0  0  0  0  # atno 8010 bound_to 7997
  140.7287  143.4285  151.0840 H   0  0  0  0  0  0  0  0  0  0  0  0  # atno 10167 bound_to 10162
  156.1094  130.6236  150.9269 H   0  0  0  0  0  0  0  0  0  0  0  0  # atno 10718 bound_to 10713
  152.9909  135.5552  154.5803 H   0  0  0  0  0  0  0  0  0  0  0  0  # atno 10763 bound_to 10752
  154.5185  135.2806  155.1284 H   0  0  0  0  0  0  0  0  0  0  0  0  # atno 10764 bound_to 10752
  154.2647  135.6374  153.5340 H   0  0  0  0  0  0  0  0  0  0  0  0  # atno 10765 bound_to 10752
  140.6280  134.4681  157.5228 H   0  0  0  0  0  0  0  0  0  0  0  0  # atno 11005 bound_to 11000
  146.2062  140.6096  142.9080 LP  0  0  0  0  0  0  0  0  0  0  0  0  # atno 17320 bound_to 7965
  144.7640  140.5488  143.6716 LP  0  0  0  0  0  0  0  0  0  0  0  0  # atno 17321 bound_to 7965
  139.7939  143.8180  152.3155 LP  0  0  0  0  0  0  0  0  0  0  0  0  # atno 17342 bound_to 10162
  139.8173  144.7311  150.9618 LP  0  0  0  0  0  0  0  0  0  0  0  0  # atno 17343 bound_to 10162
  157.6273  131.0924  150.8508 LP  0  0  0  0  0  0  0  0  0  0  0  0  # atno 17370 bound_to 10713
  156.8622  130.5117  149.5303 LP  0  0  0  0  0  0  0  0  0  0  0  0  # atno 17371 bound_to 10713
  139.9127  134.8310  156.1471 LP  0  0  0  0  0  0  0  0  0  0  0  0  # atno 17394 bound_to 11000
  141.0696  133.6803  156.2113 LP  0  0  0  0  0  0  0  0  0  0  0  0  # atno 17395 bound_to 11000

$$$$
