AV-unprocessed.smi:2991|AV-procd|sdf|11398|dock1
  -GOLD-   2272016323D 1   1.00000     0.00000
 Structure written by MMmdl.
 37 38  0  0  0  0  0  0  0  0  1 V2000
  149.7455  130.4599  154.3458 C   0  0  0  0  0  0  0  0  0  0  0  0
  149.9967  131.8039  155.0033 C   0  0  0  0  0  0  0  0  0  0  0  0
  150.6530  131.7639  156.1834 N   0  0  0  0  0  0  0  0  0  0  0  0
  150.9080  132.9318  156.8074 C   0  0  0  0  0  0  0  0  0  0  0  0
  150.5204  134.1849  156.2956 C   0  0  0  0  0  0  0  0  0  0  0  0
  149.8195  134.2301  155.0664 C   0  0  0  0  0  0  0  0  0  0  0  0
  149.4003  135.4401  154.4456 N   0  0  0  0  0  0  0  0  0  0  0  0
  149.0207  136.5957  155.0167 C   0  0  0  0  0  0  0  0  0  0  0  0
  148.9557  136.8074  156.2276 O   0  0  0  0  0  0  0  0  0  0  0  0
  148.6985  137.5073  154.0877 N   0  0  0  0  0  0  0  0  0  0  0  0
  148.2142  138.8636  154.3485 C   0  0  1  0  0  0  0  0  0  0  0  0
  149.3270  139.8920  154.0454 C   0  0  0  0  0  0  0  0  0  0  0  0
  149.1492  141.2366  154.7681 C   0  0  0  0  0  0  0  0  0  0  0  0
  147.8862  142.0176  154.3759 C   0  0  0  0  0  0  0  0  0  0  0  0
  146.5765  141.3160  154.7745 C   0  0  0  0  0  0  0  0  0  0  0  0
  146.2090  140.2492  153.8517 N   0  0  0  0  0  0  0  0  0  0  0  0
  146.8933  139.1230  153.5994 C   0  0  0  0  0  0  0  0  0  0  0  0
  146.4752  138.3109  152.7743 O   0  0  0  0  0  0  0  0  0  0  0  0
  149.5638  133.0083  154.4002 C   0  0  0  0  0  0  0  0  0  0  0  0
  148.7332  132.9849  152.8803 Cl  0  0  0  0  0  0  0  0  0  0  0  0
  148.6753  130.2932  154.2220 H   0  0  0  0  0  0  0  0  0  0  0  0
  150.1470  129.6395  154.9422 H   0  0  0  0  0  0  0  0  0  0  0  0
  150.2175  130.4239  153.3637 H   0  0  0  0  0  0  0  0  0  0  0  0
  151.4448  132.8667  157.7423 H   0  0  0  0  0  0  0  0  0  0  0  0
  150.7788  135.0766  156.8451 H   0  0  0  0  0  0  0  0  0  0  0  0
  149.3206  135.3988  153.4399 H   0  0  0  0  0  0  0  0  0  0  0  0
  148.7711  137.2405  153.1164 H   0  0  0  0  0  0  0  0  0  0  0  0
  147.9760  138.9150  155.4127 H   0  0  0  0  0  0  0  0  0  0  0  0
  150.2924  139.4867  154.3518 H   0  0  0  0  0  0  0  0  0  0  0  0
  149.4055  140.0530  152.9693 H   0  0  0  0  0  0  0  0  0  0  0  0
  149.1568  141.0731  155.8466 H   0  0  0  0  0  0  0  0  0  0  0  0
  150.0196  141.8584  154.5571 H   0  0  0  0  0  0  0  0  0  0  0  0
  147.9214  142.9853  154.8775 H   0  0  0  0  0  0  0  0  0  0  0  0
  147.8907  142.2357  153.3072 H   0  0  0  0  0  0  0  0  0  0  0  0
  146.6260  140.9362  155.7959 H   0  0  0  0  0  0  0  0  0  0  0  0
  145.7643  142.0430  154.7585 H   0  0  0  0  0  0  0  0  0  0  0  0
  145.3484  140.3832  153.3406 H   0  0  0  0  0  0  0  0  0  0  0  0
  1  2  1  0  0  0  0
  1 21  1  0  0  0  0
  1 22  1  0  0  0  0
  1 23  1  0  0  0  0
  2 19  1  0  0  0  0
  2  3  2  0  0  0  0
  3  4  1  0  0  0  0
  4  5  2  0  0  0  0
  4 24  1  0  0  0  0
  5  6  1  0  0  0  0
  5 25  1  0  0  0  0
  6  7  1  0  0  0  0
  6 19  2  0  0  0  0
  7  8  1  0  0  0  0
  7 26  1  0  0  0  0
  8  9  2  0  0  0  0
  8 10  1  0  0  0  0
 10 11  1  0  0  0  0
 10 27  1  0  0  0  0
 11 17  1  0  0  0  0
 11 12  1  0  0  0  0
 11 28  1  0  0  0  0
 12 13  1  0  0  0  0
 12 29  1  0  0  0  0
 12 30  1  0  0  0  0
 13 14  1  0  0  0  0
 13 31  1  0  0  0  0
 13 32  1  0  0  0  0
 14 15  1  0  0  0  0
 14 33  1  0  0  0  0
 14 34  1  0  0  0  0
 15 16  1  0  0  0  0
 15 35  1  0  0  0  0
 15 36  1  0  0  0  0
 16 17  1  0  0  0  0
 16 37  1  0  0  0  0
 17 18  2  0  0  0  0
 19 20  1  0  0  0  0
M  END
> <s_m_source_file>
AV-unprocessed.smi

> <i_m_source_file_index>
2991

> <i_lp_mmshare_version>
43012

> <i_f3d_flags>
0

> <s_epik_input>
W0NIM11jMW5bY0hdW2NIXWMoYzFDbClbTkhdQyg9TylbTkhdW0NAQEhdMltDSDJdW0NIMl1bQ0gyXVtDSDJdW05IXUMyPU8=

> <s_epik_cmdline>
J2VwaWtfcHl0aG9uJywgJy1waCcsICc3LjAnLCAnLXRuJywgJzgnLCAnLW1hJywgJzIwMCcsICctbWV0YWxfYmluZGluZycsICctaW1hZScsICc8aW5maWxlLm1hZT4nLCAnLW9tYWUnLCAnPG91dGZpbGUubWFlPic=

> <r_epik_Ionization_Penalty>
0.00809016

> <r_epik_Ionization_Penalty_Charging>
0

> <r_epik_Ionization_Penalty_Neutral>
0.00809016

> <r_epik_State_Penalty>
0.00605324

> <r_epik_Charging_Adjusted_Penalty>
0.00605324

> <i_epik_Tot_Q>
0

> <i_epik_Tot_abs_Q>
0

> <r_epik_Metal_State_Penalty>
0.00597181

> <b_epik_Metal_Only>
0

> <s_lp_Force_Field>
OPLS_2005

> <r_lp_Energy>
16.2223

> <b_lp_Chiralities_Consistent>
1

> <s_lp_Variant>
AV-unprocessed.smi:2991-2

> <Gold.Version>
5.8.1

> <Gold.Id.Protein>
6NUR|6NUR_protein|mol2

> <Gold.PLP.Fitness>
39.5202

> <Gold.PLP.PLP>
-31.2448

> <Gold.PLP.part.hbond>
-3.0000

> <Gold.PLP.part.metal>
0.0000

> <Gold.PLP.part.buried>
-0.8387

> <Gold.PLP.part.nonpolar>
-27.7248

> <Gold.PLP.part.repulsive>
0.3346

> <Gold.PLP.ligand.clash>
0.0000

> <Gold.PLP.ligand.torsion>
0.3008

> <Gold.PLP.Chemscore.Hbond>
2.9500

> <Gold.PLP.Chemscore.CHOScore>
0.0000

> <Gold.PLP.Chemscore.Metal>
0.0000

> <Gold.Chemscore.Hbonds>
donor molecule, donor type, donor heavy atom, donor atom, acceptor molecule, acceptor atom, score
      L1  H     7    26       P1  7948  0.95
      L1  H    10    27       P1  7948  1.00
      L1  H    16    37       P1 10175  1.00

> <Gold.PLP.Chemscore.Internal.Correction>
0.0270

> <Gold.Rescore>
     Score         DG    S(hbond)    S(metal)    S(lipo)     H(rot)  DE(clash)    DE(int)     intcor
     18.84     -19.36       2.74        0.00      62.34       1.00       0.09       0.43       ----

> <Gold.Chemscore.Fitness>
18.8448

> <Gold.Chemscore.DG>
-19.3569

> <Gold.Chemscore.ZeroCoef>
-5.4800

> <Gold.Chemscore.Hbond>
2.7376

> <Gold.Chemscore.Metal>
0.0000

> <Gold.Chemscore.Lipo>
62.3357

> <Gold.Chemscore.Internal_Hbond>
0.0000

> <Gold.Chemscore.DEClash>
0.0859

> <Gold.Chemscore.DEInternal>
0.4263

> <Gold.Chemscore.Rot>
1.0000

> <Gold.Chemscore.Internal.Correction>
   9.000000E+99

> <Gold.Chemscore.Hbonds>
donor molecule, donor type, donor heavy atom, donor atom, acceptor molecule, acceptor atom, score
      L1  H     7    26       P1  7948  0.21
      L1  H    10    27       P1  7948  0.98
      L1  H    16    37       P1 10175  0.99

> <Gold.Chemscore.Hbond.Weighted>
-9.1437

> <Gold.Chemscore.Metal.Weighted>
-0.0000

> <Gold.Chemscore.Lipo.Weighted>
-7.2933

> <Gold.Chemscore.Internal_Hbond.Weighted>
0.0000

> <Gold.Chemscore.DEClash.Weighted>
0.0859

> <Gold.Chemscore.DEInternal.Weighted>
0.4263

> <Gold.Chemscore.Rot.Weighted>
2.5600

> <Gold.Chemscore.Internal.Correction.Weighted>
   9.000000E+99

> <Gold.Protein.RotatedTorsions>
[ 6907 6896 6895 6894 ] final  129.15 input  -60.11 | X-H torsion
[ 7974 7965 7964 7962 ] final  147.98 input  175.53 | X-H torsion
[ 8008 7997 7996 7995 ] final   12.55 input   59.86 | X-H torsion
[ 10167 10162 10161 10158 ] final  -25.00 input  -65.29 | X-H torsion
[ 10718 10713 10712 10709 ] final -158.84 input   66.30 | X-H torsion
[ 10763 10752 10751 10750 ] final  -17.41 input  -60.55 | X-H torsion
[ 11005 11000 10999 10996 ] final -127.95 input  -57.11 | X-H torsion

> <Gold.Protein.ActiveResidues>
 VAL166  LYS551  ARG553  GLY616  TRP617  ASP618  TYR619  PRO620  LYS621  CYS622 
 ASP623  PHE694  ASN695  SER759  ASP760  ASP761  ALA762  ILE779  LEU786  VAL792 
 PHE793  MET794  SER795  GLU796  ALA797  LYS798  CYS799  TRP800  GLU811  SER814 

> <Gold.Protein.RotatedAtoms>
  152.3651  133.6347  159.6044 H   0  0  0  0  0  0  0  0  0  0  0  0  # atno 6907 bound_to 6896
  150.7628  133.9360  159.3450 H   0  0  0  0  0  0  0  0  0  0  0  0  # atno 6908 bound_to 6896
  151.7192  135.0898  160.0332 H   0  0  0  0  0  0  0  0  0  0  0  0  # atno 6909 bound_to 6896
  144.8549  139.6096  143.5957 H   0  0  0  0  0  0  0  0  0  0  0  0  # atno 7974 bound_to 7965
  154.8222  140.2886  155.5779 H   0  0  0  0  0  0  0  0  0  0  0  0  # atno 8008 bound_to 7997
  156.2998  140.2548  156.3062 H   0  0  0  0  0  0  0  0  0  0  0  0  # atno 8009 bound_to 7997
  154.9326  140.0383  157.2045 H   0  0  0  0  0  0  0  0  0  0  0  0  # atno 8010 bound_to 7997
  140.7287  143.4303  151.0812 H   0  0  0  0  0  0  0  0  0  0  0  0  # atno 10167 bound_to 10162
  156.5597  130.8642  151.2806 H   0  0  0  0  0  0  0  0  0  0  0  0  # atno 10718 bound_to 10713
  153.5735  135.7007  153.5494 H   0  0  0  0  0  0  0  0  0  0  0  0  # atno 10763 bound_to 10752
  153.3323  135.4044  155.1505 H   0  0  0  0  0  0  0  0  0  0  0  0  # atno 10764 bound_to 10752
  154.8629  135.3722  154.5259 H   0  0  0  0  0  0  0  0  0  0  0  0  # atno 10765 bound_to 10752
  140.9557  134.1005  157.4018 H   0  0  0  0  0  0  0  0  0  0  0  0  # atno 11005 bound_to 11000
  146.2815  139.6890  142.9226 LP  0  0  0  0  0  0  0  0  0  0  0  0  # atno 17320 bound_to 7965
  145.4426  141.0423  143.2849 LP  0  0  0  0  0  0  0  0  0  0  0  0  # atno 17321 bound_to 7965
  139.7959  143.8152  152.3157 LP  0  0  0  0  0  0  0  0  0  0  0  0  # atno 17342 bound_to 10162
  139.8152  144.7319  150.9644 LP  0  0  0  0  0  0  0  0  0  0  0  0  # atno 17343 bound_to 10162
  157.7371  130.9790  150.2173 LP  0  0  0  0  0  0  0  0  0  0  0  0  # atno 17370 bound_to 10713
  156.2810  130.3733  149.7936 LP  0  0  0  0  0  0  0  0  0  0  0  0  # atno 17371 bound_to 10713
  139.8861  135.0079  156.6480 LP  0  0  0  0  0  0  0  0  0  0  0  0  # atno 17394 bound_to 11000
  140.7539  133.8874  155.8368 LP  0  0  0  0  0  0  0  0  0  0  0  0  # atno 17395 bound_to 11000

$$$$
