AV-unprocessed.smi:936|AV-procd|sdf|4208|dock7
  -GOLD-   22720 2113D 1   1.00000     0.00000
 Structure written by MMmdl.
 40 41  0  0  0  0  0  0  0  0  1 V2000
  145.8395  141.9676  157.1744 C   0  0  0  0  0  0  0  0  0  0  0  0
  146.3677  142.5750  155.8666 C   0  0  0  0  0  0  0  0  0  0  0  0
  145.2677  142.8029  154.8202 C   0  0  0  0  0  0  0  0  0  0  0  0
  147.5191  141.7984  155.3097 C   0  0  0  0  0  0  0  0  0  0  0  0
  148.6695  141.6060  155.9629 N   0  0  0  0  0  0  0  0  0  0  0  0
  149.5839  140.8399  155.2338 C   0  0  0  0  0  0  0  0  0  0  0  0
  150.9283  140.5244  155.8152 C   0  0  0  0  0  0  0  0  0  0  0  0
  150.8472  140.1724  157.3099 C   0  0  0  0  0  0  0  0  0  0  0  0
  151.6910  141.0497  158.1132 N   0  0  0  0  0  0  0  0  0  0  0  0
  151.5687  142.3861  158.1889 C   0  0  0  0  0  0  0  0  0  0  0  0
  150.7179  143.0024  157.5452 O   0  0  0  0  0  0  0  0  0  0  0  0
  152.4673  142.9949  159.0041 N   0  0  0  0  0  0  0  0  0  0  0  0
  153.3554  142.3213  159.9662 C   0  0  0  0  0  0  0  0  0  0  0  0
  152.7068  142.3552  161.3602 C   0  0  0  0  0  0  0  0  0  0  0  0
  152.5043  144.0678  161.9424 S   0  0  0  0  0  0  0  0  0  0  0  0
  151.6959  144.7929  160.4814 C   0  0  0  0  0  0  0  0  0  0  0  0
  152.4676  144.4503  159.1958 C   0  0  0  0  0  0  0  0  0  0  0  0
  149.1067  140.4507  154.0073 C   0  0  0  0  0  0  0  0  0  0  0  0
  147.4898  141.0339  153.7241 S   0  0  0  0  0  0  0  0  0  0  0  0
  146.6312  141.8934  157.9204 H   0  0  0  0  0  0  0  0  0  0  0  0
  145.4390  140.9663  157.0130 H   0  0  0  0  0  0  0  0  0  0  0  0
  145.0427  142.5792  157.5980 H   0  0  0  0  0  0  0  0  0  0  0  0
  146.7575  143.5611  156.1221 H   0  0  0  0  0  0  0  0  0  0  0  0
  145.6635  143.3122  153.9410 H   0  0  0  0  0  0  0  0  0  0  0  0
  144.4625  143.4176  155.2235 H   0  0  0  0  0  0  0  0  0  0  0  0
  144.8325  141.8590  154.4908 H   0  0  0  0  0  0  0  0  0  0  0  0
  151.3788  139.6960  155.2671 H   0  0  0  0  0  0  0  0  0  0  0  0
  151.6004  141.3724  155.6771 H   0  0  0  0  0  0  0  0  0  0  0  0
  149.8203  140.2768  157.6611 H   0  0  0  0  0  0  0  0  0  0  0  0
  151.1267  139.1303  157.4735 H   0  0  0  0  0  0  0  0  0  0  0  0
  152.4195  140.6101  158.6566 H   0  0  0  0  0  0  0  0  0  0  0  0
  153.5863  141.2928  159.6890 H   0  0  0  0  0  0  0  0  0  0  0  0
  154.3219  142.8262  159.9947 H   0  0  0  0  0  0  0  0  0  0  0  0
  151.7318  141.8668  161.3402 H   0  0  0  0  0  0  0  0  0  0  0  0
  153.3214  141.8132  162.0793 H   0  0  0  0  0  0  0  0  0  0  0  0
  150.6721  144.4219  160.4208 H   0  0  0  0  0  0  0  0  0  0  0  0
  151.6371  145.8733  160.6135 H   0  0  0  0  0  0  0  0  0  0  0  0
  153.4912  144.8218  159.2599 H   0  0  0  0  0  0  0  0  0  0  0  0
  152.0249  144.9721  158.3460 H   0  0  0  0  0  0  0  0  0  0  0  0
  149.6069  139.8577  153.2558 H   0  0  0  0  0  0  0  0  0  0  0  0
  1  2  1  0  0  0  0
  1 20  1  0  0  0  0
  1 21  1  0  0  0  0
  1 22  1  0  0  0  0
  2  3  1  0  0  0  0
  2  4  1  0  0  0  0
  2 23  1  0  0  0  0
  3 24  1  0  0  0  0
  3 25  1  0  0  0  0
  3 26  1  0  0  0  0
  4 19  1  0  0  0  0
  4  5  2  0  0  0  0
  5  6  1  0  0  0  0
  6  7  1  0  0  0  0
  6 18  2  0  0  0  0
  7  8  1  0  0  0  0
  7 27  1  0  0  0  0
  7 28  1  0  0  0  0
  8  9  1  0  0  0  0
  8 29  1  0  0  0  0
  8 30  1  0  0  0  0
  9 10  1  0  0  0  0
  9 31  1  0  0  0  0
 10 11  2  0  0  0  0
 10 12  1  0  0  0  0
 12 17  1  0  0  0  0
 12 13  1  0  0  0  0
 13 14  1  0  0  0  0
 13 32  1  0  0  0  0
 13 33  1  0  0  0  0
 14 15  1  0  0  0  0
 14 34  1  0  0  0  0
 14 35  1  0  0  0  0
 15 16  1  0  0  0  0
 16 17  1  0  0  0  0
 16 36  1  0  0  0  0
 16 37  1  0  0  0  0
 17 38  1  0  0  0  0
 17 39  1  0  0  0  0
 18 19  1  0  0  0  0
 18 40  1  0  0  0  0
M  END
> <s_m_source_file>
AV-unprocessed.smi

> <i_m_source_file_index>
936

> <i_lp_mmshare_version>
43012

> <i_f3d_flags>
0

> <s_epik_input>
W0NIM11bQ0hdKFtDSDNdKWMxbmMoW2NIXXMxKVtDSDJdW0NIMl1bTkhdQyg9TylOMltDSDJdW0NIMl1TW0NIMl1bQ0gyXTI=

> <s_epik_cmdline>
J2VwaWtfcHl0aG9uJywgJy1waCcsICc3LjAnLCAnLXRuJywgJzgnLCAnLW1hJywgJzIwMCcsICctbWV0YWxfYmluZGluZycsICctaW1hZScsICc8aW5maWxlLm1hZT4nLCAnLW9tYWUnLCAnPG91dGZpbGUubWFlPic=

> <r_epik_Ionization_Penalty>
0.00156596

> <r_epik_Ionization_Penalty_Charging>
0

> <r_epik_Ionization_Penalty_Neutral>
0.00156596

> <r_epik_State_Penalty>
0.00101864

> <r_epik_Charging_Adjusted_Penalty>
0.00101864

> <i_epik_Tot_Q>
0

> <i_epik_Tot_abs_Q>
0

> <r_epik_Metal_State_Penalty>
-0

> <b_epik_Metal_Only>
0

> <s_lp_Force_Field>
OPLS_2005

> <r_lp_Energy>
11.6004

> <b_lp_Chiralities_Consistent>
1

> <s_lp_Variant>
AV-unprocessed.smi:936-1

> <Gold.Version>
5.8.1

> <Gold.Id.Protein>
6NUR|6NUR_protein|mol2

> <Gold.PLP.Fitness>
44.7786

> <Gold.PLP.PLP>
-43.2523

> <Gold.PLP.part.hbond>
0.0000

> <Gold.PLP.part.metal>
0.0000

> <Gold.PLP.part.buried>
-1.6512

> <Gold.PLP.part.nonpolar>
-40.9895

> <Gold.PLP.part.repulsive>
0.5637

> <Gold.PLP.ligand.clash>
0.0000

> <Gold.PLP.ligand.torsion>
0.7357

> <Gold.PLP.Chemscore.Hbond>
0.0000

> <Gold.PLP.Chemscore.CHOScore>
0.9607

> <Gold.PLP.Chemscore.Metal>
0.0000

> <Gold.Chemscore.Hbonds>
donor molecule, donor type, donor heavy atom, donor atom, acceptor molecule, acceptor atom, score
      L1  C    18    40       P1  7957  1.00

> <Gold.PLP.Chemscore.Internal.Correction>
0.1154

> <Gold.Rescore>
     Score         DG    S(hbond)    S(metal)    S(lipo)     H(rot)  DE(clash)    DE(int)     intcor
     13.23     -14.08       0.00        0.00     104.32       1.41       0.20       0.65       ----

> <Gold.Chemscore.Fitness>
13.2336

> <Gold.Chemscore.DG>
-14.0841

> <Gold.Chemscore.ZeroCoef>
-5.4800

> <Gold.Chemscore.Hbond>
0.0000

> <Gold.Chemscore.Metal>
0.0000

> <Gold.Chemscore.Lipo>
104.3201

> <Gold.Chemscore.Internal_Hbond>
0.0000

> <Gold.Chemscore.DEClash>
0.1991

> <Gold.Chemscore.DEInternal>
0.6514

> <Gold.Chemscore.Rot>
1.4068

> <Gold.Chemscore.Internal.Correction>
   9.000000E+99

> <Gold.Chemscore.Hbond.Weighted>
-0.0000

> <Gold.Chemscore.Metal.Weighted>
-0.0000

> <Gold.Chemscore.Lipo.Weighted>
-12.2055

> <Gold.Chemscore.Internal_Hbond.Weighted>
0.0000

> <Gold.Chemscore.DEClash.Weighted>
0.1991

> <Gold.Chemscore.DEInternal.Weighted>
0.6514

> <Gold.Chemscore.Rot.Weighted>
3.6014

> <Gold.Chemscore.Internal.Correction.Weighted>
   9.000000E+99

> <Gold.Protein.RotatedTorsions>
[ 6907 6896 6895 6894 ] final   60.36 input  -60.11 | X-H torsion
[ 7974 7965 7964 7962 ] final -132.16 input  175.53 | X-H torsion
[ 8008 7997 7996 7995 ] final   20.46 input   59.86 | X-H torsion
[ 10167 10162 10161 10158 ] final  -18.90 input  -65.29 | X-H torsion
[ 10718 10713 10712 10709 ] final  -64.89 input   66.30 | X-H torsion
[ 10763 10752 10751 10750 ] final -162.30 input  -60.55 | X-H torsion
[ 11005 11000 10999 10996 ] final -150.27 input  -57.11 | X-H torsion

> <Gold.Protein.ActiveResidues>
 VAL166  LYS551  ARG553  GLY616  TRP617  ASP618  TYR619  PRO620  LYS621  CYS622 
 ASP623  PHE694  ASN695  SER759  ASP760  ASP761  ALA762  ILE779  LEU786  VAL792 
 PHE793  MET794  SER795  GLU796  ALA797  LYS798  CYS799  TRP800  GLU811  SER814 

> <Gold.Protein.RotatedAtoms>
  152.3996  134.6308  160.0074 H   0  0  0  0  0  0  0  0  0  0  0  0  # atno 6907 bound_to 6896
  151.6517  133.3315  159.3161 H   0  0  0  0  0  0  0  0  0  0  0  0  # atno 6908 bound_to 6896
  150.7899  134.6956  159.6566 H   0  0  0  0  0  0  0  0  0  0  0  0  # atno 6909 bound_to 6896
  144.9311  140.7129  143.4905 H   0  0  0  0  0  0  0  0  0  0  0  0  # atno 7974 bound_to 7965
  154.9359  140.3046  155.5144 H   0  0  0  0  0  0  0  0  0  0  0  0  # atno 8008 bound_to 7997
  156.3000  140.2345  156.4361 H   0  0  0  0  0  0  0  0  0  0  0  0  # atno 8009 bound_to 7997
  154.8192  140.0424  157.1387 H   0  0  0  0  0  0  0  0  0  0  0  0  # atno 8010 bound_to 7997
  140.7263  143.4871  151.0041 H   0  0  0  0  0  0  0  0  0  0  0  0  # atno 10167 bound_to 10162
  156.0702  130.4239  150.1485 H   0  0  0  0  0  0  0  0  0  0  0  0  # atno 10718 bound_to 10713
  154.7227  135.3029  154.9022 H   0  0  0  0  0  0  0  0  0  0  0  0  # atno 10763 bound_to 10752
  153.9889  135.6721  153.4757 H   0  0  0  0  0  0  0  0  0  0  0  0  # atno 10764 bound_to 10752
  153.0847  135.4990  154.8492 H   0  0  0  0  0  0  0  0  0  0  0  0  # atno 10765 bound_to 10752
  140.7419  134.3504  157.5145 H   0  0  0  0  0  0  0  0  0  0  0  0  # atno 11005 bound_to 11000
  145.3140  139.1809  143.4623 LP  0  0  0  0  0  0  0  0  0  0  0  0  # atno 17320 bound_to 7965
  146.3247  140.3149  142.8629 LP  0  0  0  0  0  0  0  0  0  0  0  0  # atno 17321 bound_to 7965
  139.8573  143.7360  152.3175 LP  0  0  0  0  0  0  0  0  0  0  0  0  # atno 17342 bound_to 10162
  139.7563  144.7519  151.0430 LP  0  0  0  0  0  0  0  0  0  0  0  0  # atno 17343 bound_to 10162
  156.9537  130.9783  151.3493 LP  0  0  0  0  0  0  0  0  0  0  0  0  # atno 17370 bound_to 10713
  157.5768  130.8348  149.8467 LP  0  0  0  0  0  0  0  0  0  0  0  0  # atno 17371 bound_to 10713
  139.8804  134.9086  156.2972 LP  0  0  0  0  0  0  0  0  0  0  0  0  # atno 17394 bound_to 11000
  140.9829  133.7256  156.0698 LP  0  0  0  0  0  0  0  0  0  0  0  0  # atno 17395 bound_to 11000

$$$$
