AV-unprocessed.smi:2577|AV-procd|sdf|10120|dock2
  -GOLD-   2272014143D 1   1.00000     0.00000
 Structure written by MMmdl.
 27 28  0  0  0  0  0  0  0  0  1 V2000
  149.3280  140.2667  154.3604 C   0  0  0  0  0  0  0  0  0  0  0  0
  148.8905  141.3950  155.3044 C   0  0  0  0  0  0  0  0  0  0  0  0
  149.6906  141.4393  156.6185 C   0  0  2  0  0  0  0  0  0  0  0  0
  149.3179  142.5910  157.3515 O   0  0  0  0  0  0  0  0  0  0  0  0
  151.2107  141.4609  156.3655 C   0  0  0  0  0  0  0  0  0  0  0  0
  151.9784  141.1079  157.5471 N   0  0  0  0  0  0  0  0  0  0  0  0
  152.6741  139.9360  157.5663 N   0  0  0  0  0  0  0  0  0  0  0  0
  153.2762  139.8282  158.7130 N   0  0  0  0  0  0  0  0  0  0  0  0
  152.9703  140.9504  159.4650 C   0  0  0  0  0  0  0  0  0  0  0  0
  153.3492  141.3434  160.7680 C   0  0  0  0  0  0  0  0  0  0  0  0
  152.8844  142.5622  161.3094 C   0  0  0  0  0  0  0  0  0  0  0  0
  153.3703  143.0085  162.9064 Cl  0  0  0  0  0  0  0  0  0  0  0  0
  152.0332  143.4024  160.5515 C   0  0  0  0  0  0  0  0  0  0  0  0
  151.4553  144.8964  161.1990 Cl  0  0  0  0  0  0  0  0  0  0  0  0
  151.6471  143.0225  159.2507 C   0  0  0  0  0  0  0  0  0  0  0  0
  152.1220  141.8068  158.7301 C   0  0  0  0  0  0  0  0  0  0  0  0
  148.7611  140.3000  153.4300 H   0  0  0  0  0  0  0  0  0  0  0  0
  149.1673  139.2865  154.8099 H   0  0  0  0  0  0  0  0  0  0  0  0
  150.3855  140.3514  154.1087 H   0  0  0  0  0  0  0  0  0  0  0  0
  149.0117  142.3440  154.7809 H   0  0  0  0  0  0  0  0  0  0  0  0
  147.8249  141.3014  155.5185 H   0  0  0  0  0  0  0  0  0  0  0  0
  149.4419  140.5618  157.2170 H   0  0  0  0  0  0  0  0  0  0  0  0
  149.3963  143.3451  156.7871 H   0  0  0  0  0  0  0  0  0  0  0  0
  151.4705  140.7651  155.5662 H   0  0  0  0  0  0  0  0  0  0  0  0
  151.5269  142.4492  156.0287 H   0  0  0  0  0  0  0  0  0  0  0  0
  153.9972  140.7062  161.3516 H   0  0  0  0  0  0  0  0  0  0  0  0
  150.9964  143.6533  158.6630 H   0  0  0  0  0  0  0  0  0  0  0  0
  1  2  1  0  0  0  0
  1 17  1  0  0  0  0
  1 18  1  0  0  0  0
  1 19  1  0  0  0  0
  2  3  1  0  0  0  0
  2 20  1  0  0  0  0
  2 21  1  0  0  0  0
  3  4  1  0  0  0  0
  3  5  1  0  0  0  0
  3 22  1  0  0  0  0
  4 23  1  0  0  0  0
  5  6  1  0  0  0  0
  5 24  1  0  0  0  0
  5 25  1  0  0  0  0
  6 16  1  0  0  0  0
  6  7  1  0  0  0  0
  7  8  2  0  0  0  0
  8  9  1  0  0  0  0
  9 16  2  0  0  0  0
  9 10  1  0  0  0  0
 10 11  2  0  0  0  0
 10 26  1  0  0  0  0
 11 12  1  0  0  0  0
 11 13  1  0  0  0  0
 13 14  1  0  0  0  0
 13 15  2  0  0  0  0
 15 16  1  0  0  0  0
 15 27  1  0  0  0  0
M  END
> <s_m_source_file>
AV-unprocessed.smi

> <i_m_source_file_index>
2577

> <i_lp_mmshare_version>
43012

> <i_f3d_flags>
0

> <s_epik_input>
W0NIM11bQ0gyXVtDQEhdKFtPSF0pW0NIMl1uKG5uMSljKGMxMilbY0hdYyhDbCljKENsKVtjSF0y

> <s_epik_cmdline>
J2VwaWtfcHl0aG9uJywgJy1waCcsICc3LjAnLCAnLXRuJywgJzgnLCAnLW1hJywgJzIwMCcsICctbWV0YWxfYmluZGluZycsICctaW1hZScsICc8aW5maWxlLm1hZT4nLCAnLW9tYWUnLCAnPG91dGZpbGUubWFlPic=

> <r_lp_tautomer_probability>
1

> <r_epik_Ionization_Penalty>
1.50913e-07

> <r_epik_Ionization_Penalty_Charging>
0

> <r_epik_Ionization_Penalty_Neutral>
1.50913e-07

> <r_epik_State_Penalty>
-0

> <r_epik_Charging_Adjusted_Penalty>
0

> <i_epik_Tot_Q>
0

> <i_epik_Tot_abs_Q>
0

> <r_epik_Metal_State_Penalty>
-0

> <b_epik_Metal_Only>
0

> <s_lp_Force_Field>
OPLS_2005

> <r_lp_Energy>
7.05244

> <b_lp_Chiralities_Consistent>
1

> <s_lp_Variant>
AV-unprocessed.smi:2577-1

> <Gold.Version>
5.8.1

> <Gold.Id.Protein>
6NUR|6NUR_protein|mol2

> <Gold.PLP.Fitness>
40.2572

> <Gold.PLP.PLP>
-35.4644

> <Gold.PLP.part.hbond>
-2.7023

> <Gold.PLP.part.metal>
0.0000

> <Gold.PLP.part.buried>
-1.9538

> <Gold.PLP.part.nonpolar>
-30.4059

> <Gold.PLP.part.repulsive>
0.0000

> <Gold.PLP.ligand.clash>
0.0000

> <Gold.PLP.ligand.torsion>
0.2184

> <Gold.PLP.Chemscore.Hbond>
1.7424

> <Gold.PLP.Chemscore.CHOScore>
0.0000

> <Gold.PLP.Chemscore.Metal>
0.0000

> <Gold.Chemscore.Hbonds>
donor molecule, donor type, donor heavy atom, donor atom, acceptor molecule, acceptor atom, score
      L1  H     4    23       P1  8028  1.00
      P1  H  7997  8008       L1     7  0.70

> <Gold.PLP.Chemscore.Internal.Correction>
0.0023

> <Gold.Rescore>
     Score         DG    S(hbond)    S(metal)    S(lipo)     H(rot)  DE(clash)    DE(int)     intcor
     15.90     -17.39       1.09        0.00     109.90       1.79       1.17       0.32       ----

> <Gold.Chemscore.Fitness>
15.9014

> <Gold.Chemscore.DG>
-17.3920

> <Gold.Chemscore.ZeroCoef>
-5.4800

> <Gold.Chemscore.Hbond>
1.0906

> <Gold.Chemscore.Metal>
0.0000

> <Gold.Chemscore.Lipo>
109.8952

> <Gold.Chemscore.Internal_Hbond>
0.0000

> <Gold.Chemscore.DEClash>
1.1676

> <Gold.Chemscore.DEInternal>
0.3230

> <Gold.Chemscore.Rot>
1.7924

> <Gold.Chemscore.Internal.Correction>
   9.000000E+99

> <Gold.Chemscore.Hbonds>
donor molecule, donor type, donor heavy atom, donor atom, acceptor molecule, acceptor atom, score
      L1  H     4    23       P1  8028  0.98
      P1  H  7997  8008       L1     7  0.06

> <Gold.Chemscore.Hbond.Weighted>
-3.6427

> <Gold.Chemscore.Metal.Weighted>
-0.0000

> <Gold.Chemscore.Lipo.Weighted>
-12.8577

> <Gold.Chemscore.Internal_Hbond.Weighted>
0.0000

> <Gold.Chemscore.DEClash.Weighted>
1.1676

> <Gold.Chemscore.DEInternal.Weighted>
0.3230

> <Gold.Chemscore.Rot.Weighted>
4.5884

> <Gold.Chemscore.Internal.Correction.Weighted>
   9.000000E+99

> <Gold.Protein.RotatedTorsions>
[ 6907 6896 6895 6894 ] final   50.78 input  -60.11 | X-H torsion
[ 7974 7965 7964 7962 ] final    0.45 input  175.53 | X-H torsion
[ 8008 7997 7996 7995 ] final  -50.21 input   59.86 | X-H torsion
[ 10167 10162 10161 10158 ] final  -75.21 input  -65.29 | X-H torsion
[ 10718 10713 10712 10709 ] final  -12.08 input   66.30 | X-H torsion
[ 10763 10752 10751 10750 ] final  -13.43 input  -60.55 | X-H torsion
[ 11005 11000 10999 10996 ] final  -69.29 input  -57.11 | X-H torsion

> <Gold.Protein.ActiveResidues>
 VAL166  LYS551  ARG553  GLY616  TRP617  ASP618  TYR619  PRO620  LYS621  CYS622 
 ASP623  PHE694  ASN695  SER759  ASP760  ASP761  ALA762  ILE779  LEU786  VAL792 
 PHE793  MET794  SER795  GLU796  ALA797  LYS798  CYS799  TRP800  GLU811  SER814 

> <Gold.Protein.RotatedAtoms>
  152.3055  134.7560  160.0348 H   0  0  0  0  0  0  0  0  0  0  0  0  # atno 6907 bound_to 6896
  151.8059  133.3370  159.3549 H   0  0  0  0  0  0  0  0  0  0  0  0  # atno 6908 bound_to 6896
  150.7294  134.5640  159.5901 H   0  0  0  0  0  0  0  0  0  0  0  0  # atno 6909 bound_to 6896
  146.2434  140.1136  142.8343 H   0  0  0  0  0  0  0  0  0  0  0  0  # atno 7974 bound_to 7965
  154.4058  140.1278  156.4629 H   0  0  0  0  0  0  0  0  0  0  0  0  # atno 8008 bound_to 7997
  155.7255  140.3492  155.5015 H   0  0  0  0  0  0  0  0  0  0  0  0  # atno 8009 bound_to 7997
  155.9175  140.1047  157.1222 H   0  0  0  0  0  0  0  0  0  0  0  0  # atno 8010 bound_to 7997
  140.4961  143.2370  151.7828 H   0  0  0  0  0  0  0  0  0  0  0  0  # atno 10167 bound_to 10162
  156.6497  130.4951  149.6066 H   0  0  0  0  0  0  0  0  0  0  0  0  # atno 10718 bound_to 10713
  153.5131  135.7016  153.5770 H   0  0  0  0  0  0  0  0  0  0  0  0  # atno 10763 bound_to 10752
  153.3852  135.3910  155.1884 H   0  0  0  0  0  0  0  0  0  0  0  0  # atno 10764 bound_to 10752
  154.8701  135.3845  154.4613 H   0  0  0  0  0  0  0  0  0  0  0  0  # atno 10765 bound_to 10752
  141.1551  133.6761  156.6577 H   0  0  0  0  0  0  0  0  0  0  0  0  # atno 11005 bound_to 11000
  145.0466  140.8986  143.5020 LP  0  0  0  0  0  0  0  0  0  0  0  0  # atno 17320 bound_to 7965
  145.1226  139.2684  143.5581 LP  0  0  0  0  0  0  0  0  0  0  0  0  # atno 17321 bound_to 7965
  139.4861  144.4584  151.9570 LP  0  0  0  0  0  0  0  0  0  0  0  0  # atno 17342 bound_to 10162
  140.3672  144.2900  150.5925 LP  0  0  0  0  0  0  0  0  0  0  0  0  # atno 17343 bound_to 10162
  156.2094  130.6669  151.1253 LP  0  0  0  0  0  0  0  0  0  0  0  0  # atno 17370 bound_to 10713
  157.7145  131.0717  150.6380 LP  0  0  0  0  0  0  0  0  0  0  0  0  # atno 17371 bound_to 10713
  140.3272  134.7959  157.4298 LP  0  0  0  0  0  0  0  0  0  0  0  0  # atno 17394 bound_to 11000
  140.1047  134.5425  155.8320 LP  0  0  0  0  0  0  0  0  0  0  0  0  # atno 17395 bound_to 11000

$$$$
