AV-unprocessed.smi:3275|AV-procd|sdf|12533|dock9
  -GOLD-   2272018453D 1   1.00000     0.00000
 Structure written by MMmdl.
 34 35  0  0  0  0  0  0  0  0  1 V2000
  152.0689  137.4811  153.7921 O   0  0  0  0  0  0  0  0  0  0  0  0
  151.1951  137.6835  154.8818 C   0  0  0  0  0  0  0  0  0  0  0  0
  150.9539  139.1827  155.0861 C   0  0  0  0  0  0  0  0  0  0  0  0
  151.0454  139.4721  156.4735 O   0  0  0  0  0  0  0  0  0  0  0  0
  151.6330  140.7312  156.7752 C   0  0  1  0  0  0  0  0  0  0  0  0
  150.7965  141.8906  156.1934 C   0  0  0  0  0  0  0  0  0  0  0  0
  151.3537  143.2435  156.6660 C   0  0  0  0  0  0  0  0  0  0  0  0
  151.4558  143.2957  158.1993 C   0  0  0  0  0  0  0  0  0  0  0  0
  152.2234  142.1594  158.7019 N   0  0  0  0  0  0  0  0  0  0  0  0
  152.6449  142.3051  160.0362 C   0  0  0  0  0  0  0  0  0  0  0  0
  152.1399  143.3335  160.8670 C   0  0  0  0  0  0  0  0  0  0  0  0
  152.6125  143.4350  162.1902 C   0  0  0  0  0  0  0  0  0  0  0  0
  153.5291  142.5976  162.7174 N   0  0  0  0  0  0  0  0  0  0  0  0
  154.0090  141.6149  161.9271 C   0  0  0  0  0  0  0  0  0  0  0  0
  153.6058  141.4232  160.5898 C   0  0  0  0  0  0  0  0  0  0  0  0
  154.2716  140.1086  159.6835 Cl  0  0  0  0  0  0  0  0  0  0  0  0
  151.7083  140.8497  158.3083 C   0  0  0  0  0  0  0  0  0  0  0  0
  152.4060  138.3204  153.5178 H   0  0  0  0  0  0  0  0  0  0  0  0
  150.2548  137.1673  154.6864 H   0  0  0  0  0  0  0  0  0  0  0  0
  151.6329  137.2405  155.7769 H   0  0  0  0  0  0  0  0  0  0  0  0
  151.6992  139.7584  154.5347 H   0  0  0  0  0  0  0  0  0  0  0  0
  149.9721  139.4554  154.6984 H   0  0  0  0  0  0  0  0  0  0  0  0
  152.6494  140.7728  156.3789 H   0  0  0  0  0  0  0  0  0  0  0  0
  150.7917  141.8618  155.1043 H   0  0  0  0  0  0  0  0  0  0  0  0
  149.7587  141.7914  156.5139 H   0  0  0  0  0  0  0  0  0  0  0  0
  152.3413  143.4025  156.2309 H   0  0  0  0  0  0  0  0  0  0  0  0
  150.7217  144.0557  156.3060 H   0  0  0  0  0  0  0  0  0  0  0  0
  151.9112  144.2375  158.5062 H   0  0  0  0  0  0  0  0  0  0  0  0
  150.4583  143.2704  158.6401 H   0  0  0  0  0  0  0  0  0  0  0  0
  151.4123  144.0459  160.5081 H   0  0  0  0  0  0  0  0  0  0  0  0
  152.2456  144.2138  162.8421 H   0  0  0  0  0  0  0  0  0  0  0  0
  154.7362  140.9557  162.3782 H   0  0  0  0  0  0  0  0  0  0  0  0
  150.7139  140.7081  158.7333 H   0  0  0  0  0  0  0  0  0  0  0  0
  152.3484  140.0632  158.7105 H   0  0  0  0  0  0  0  0  0  0  0  0
  1  2  1  0  0  0  0
  1 18  1  0  0  0  0
  2  3  1  0  0  0  0
  2 19  1  0  0  0  0
  2 20  1  0  0  0  0
  3  4  1  0  0  0  0
  3 21  1  0  0  0  0
  3 22  1  0  0  0  0
  4  5  1  0  0  0  0
  5 17  1  0  0  0  0
  5  6  1  0  0  0  0
  5 23  1  0  0  0  0
  6  7  1  0  0  0  0
  6 24  1  0  0  0  0
  6 25  1  0  0  0  0
  7  8  1  0  0  0  0
  7 26  1  0  0  0  0
  7 27  1  0  0  0  0
  8  9  1  0  0  0  0
  8 28  1  0  0  0  0
  8 29  1  0  0  0  0
  9 10  1  0  0  0  0
  9 17  1  0  0  0  0
 10 15  1  0  0  0  0
 10 11  2  0  0  0  0
 11 12  1  0  0  0  0
 11 30  1  0  0  0  0
 12 13  2  0  0  0  0
 12 31  1  0  0  0  0
 13 14  1  0  0  0  0
 14 15  2  0  0  0  0
 14 32  1  0  0  0  0
 15 16  1  0  0  0  0
 17 33  1  0  0  0  0
 17 34  1  0  0  0  0
M  END
> <s_m_source_file>
AV-unprocessed.smi

> <i_m_source_file_index>
3275

> <i_lp_mmshare_version>
43012

> <i_f3d_flags>
0

> <s_epik_input>
W09IXVtDSDJdW0NIMl1PW0NAQEhdMVtDSDJdW0NIMl1bQ0gyXU4oW0NIMl0xKWMyW2NIXVtjSF1uW2NIXWMyQ2w=

> <s_epik_cmdline>
J2VwaWtfcHl0aG9uJywgJy1waCcsICc3LjAnLCAnLXRuJywgJzgnLCAnLW1hJywgJzIwMCcsICctbWV0YWxfYmluZGluZycsICctaW1hZScsICc8aW5maWxlLm1hZT4nLCAnLW9tYWUnLCAnPG91dGZpbGUubWFlPic=

> <r_lp_tautomer_probability>
1

> <r_epik_Ionization_Penalty>
1.24095

> <r_epik_Ionization_Penalty_Charging>
0

> <r_epik_Ionization_Penalty_Neutral>
1.24095

> <r_epik_State_Penalty>
1.30987

> <r_epik_Charging_Adjusted_Penalty>
1.30987

> <i_epik_Tot_Q>
0

> <i_epik_Tot_abs_Q>
0

> <r_epik_Metal_State_Penalty>
0.00479332

> <b_epik_Metal_Only>
0

> <s_lp_Force_Field>
OPLS_2005

> <r_lp_Energy>
20.7809

> <b_lp_Chiralities_Consistent>
1

> <s_lp_Variant>
AV-unprocessed.smi:3275-4

> <Gold.Version>
5.8.1

> <Gold.Id.Protein>
6NUR|6NUR_protein|mol2

> <Gold.PLP.Fitness>
40.3602

> <Gold.PLP.PLP>
-38.5332

> <Gold.PLP.part.hbond>
-2.0000

> <Gold.PLP.part.metal>
0.0000

> <Gold.PLP.part.buried>
-2.4331

> <Gold.PLP.part.nonpolar>
-32.5774

> <Gold.PLP.part.repulsive>
0.0593

> <Gold.PLP.ligand.clash>
0.0000

> <Gold.PLP.ligand.torsion>
0.7255

> <Gold.PLP.Chemscore.Hbond>
0.9920

> <Gold.PLP.Chemscore.CHOScore>
0.0000

> <Gold.PLP.Chemscore.Metal>
0.0000

> <Gold.Chemscore.Hbonds>
donor molecule, donor type, donor heavy atom, donor atom, acceptor molecule, acceptor atom, score
      P1  H 10752 10765       L1     1  0.96

> <Gold.PLP.Chemscore.Internal.Correction>
0.3020

> <Gold.Rescore>
     Score         DG    S(hbond)    S(metal)    S(lipo)     H(rot)  DE(clash)    DE(int)     intcor
     15.59     -16.72       0.92        0.00     114.76       2.06       0.33       0.79       ----

> <Gold.Chemscore.Fitness>
15.5919

> <Gold.Chemscore.DG>
-16.7182

> <Gold.Chemscore.ZeroCoef>
-5.4800

> <Gold.Chemscore.Hbond>
0.9215

> <Gold.Chemscore.Metal>
0.0000

> <Gold.Chemscore.Lipo>
114.7554

> <Gold.Chemscore.Internal_Hbond>
0.0000

> <Gold.Chemscore.DEClash>
0.3318

> <Gold.Chemscore.DEInternal>
0.7945

> <Gold.Chemscore.Rot>
2.0570

> <Gold.Chemscore.Internal.Correction>
   9.000000E+99

> <Gold.Chemscore.Hbonds>
donor molecule, donor type, donor heavy atom, donor atom, acceptor molecule, acceptor atom, score
      P1  H 10752 10765       L1     1  0.52

> <Gold.Chemscore.Hbond.Weighted>
-3.0778

> <Gold.Chemscore.Metal.Weighted>
-0.0000

> <Gold.Chemscore.Lipo.Weighted>
-13.4264

> <Gold.Chemscore.Internal_Hbond.Weighted>
0.0000

> <Gold.Chemscore.DEClash.Weighted>
0.3318

> <Gold.Chemscore.DEInternal.Weighted>
0.7945

> <Gold.Chemscore.Rot.Weighted>
5.2660

> <Gold.Chemscore.Internal.Correction.Weighted>
   9.000000E+99

> <Gold.Protein.RotatedTorsions>
[ 6907 6896 6895 6894 ] final  -54.20 input  -60.11 | X-H torsion
[ 7974 7965 7964 7962 ] final  142.08 input  175.53 | X-H torsion
[ 8008 7997 7996 7995 ] final   78.19 input   59.86 | X-H torsion
[ 10167 10162 10161 10158 ] final  -28.48 input  -65.29 | X-H torsion
[ 10718 10713 10712 10709 ] final  -50.07 input   66.30 | X-H torsion
[ 10763 10752 10751 10750 ] final  150.62 input  -60.55 | X-H torsion
[ 11005 11000 10999 10996 ] final   15.86 input  -57.11 | X-H torsion

> <Gold.Protein.ActiveResidues>
 VAL166  LYS551  ARG553  GLY616  TRP617  ASP618  TYR619  PRO620  LYS621  CYS622 
 ASP623  PHE694  ASN695  SER759  ASP760  ASP761  ALA762  ILE779  LEU786  VAL792 
 PHE793  MET794  SER795  GLU796  ALA797  LYS798  CYS799  TRP800  GLU811  SER814 

> <Gold.Protein.RotatedAtoms>
  150.8359  134.7632  159.6891 H   0  0  0  0  0  0  0  0  0  0  0  0  # atno 6907 bound_to 6896
  152.4456  134.5499  159.9873 H   0  0  0  0  0  0  0  0  0  0  0  0  # atno 6908 bound_to 6896
  151.5649  133.3360  159.3014 H   0  0  0  0  0  0  0  0  0  0  0  0  # atno 6909 bound_to 6896
  144.9039  139.5385  143.5740 H   0  0  0  0  0  0  0  0  0  0  0  0  # atno 7974 bound_to 7965
  155.8522  140.3457  155.5701 H   0  0  0  0  0  0  0  0  0  0  0  0  # atno 8008 bound_to 7997
  155.8025  140.0887  157.1969 H   0  0  0  0  0  0  0  0  0  0  0  0  # atno 8009 bound_to 7997
  154.4008  140.1463  156.3278 H   0  0  0  0  0  0  0  0  0  0  0  0  # atno 8010 bound_to 7997
  140.7269  143.4007  151.1270 H   0  0  0  0  0  0  0  0  0  0  0  0  # atno 10167 bound_to 10162
  156.1834  130.4151  149.9473 H   0  0  0  0  0  0  0  0  0  0  0  0  # atno 10718 bound_to 10713
  154.0905  135.2853  155.3272 H   0  0  0  0  0  0  0  0  0  0  0  0  # atno 10763 bound_to 10752
  154.6623  135.5330  153.8037 H   0  0  0  0  0  0  0  0  0  0  0  0  # atno 10764 bound_to 10752
  153.0415  135.6537  154.1074 H   0  0  0  0  0  0  0  0  0  0  0  0  # atno 10765 bound_to 10752
  140.4536  134.1199  155.7706 H   0  0  0  0  0  0  0  0  0  0  0  0  # atno 11005 bound_to 11000
  146.3123  139.7791  142.9010 LP  0  0  0  0  0  0  0  0  0  0  0  0  # atno 17320 bound_to 7965
  145.3569  141.0318  143.3307 LP  0  0  0  0  0  0  0  0  0  0  0  0  # atno 17321 bound_to 7965
  139.7626  143.8613  152.3103 LP  0  0  0  0  0  0  0  0  0  0  0  0  # atno 17342 bound_to 10162
  139.8504  144.7167  150.9221 LP  0  0  0  0  0  0  0  0  0  0  0  0  # atno 17343 bound_to 10162
  156.7236  130.9016  151.3620 LP  0  0  0  0  0  0  0  0  0  0  0  0  # atno 17370 bound_to 10713
  157.6883  130.9208  150.0446 LP  0  0  0  0  0  0  0  0  0  0  0  0  # atno 17371 bound_to 10713
  141.1653  133.8715  157.1733 LP  0  0  0  0  0  0  0  0  0  0  0  0  # atno 17394 bound_to 11000
  139.9990  135.0035  157.0148 LP  0  0  0  0  0  0  0  0  0  0  0  0  # atno 17395 bound_to 11000

$$$$
