AV-unprocessed.smi:662|AV-procd|sdf|3244|dock3
  -GOLD-   22720 0193D 1   1.00000     0.00000
 Structure written by MMmdl.
 34 35  0  0  0  0  0  0  0  0  2 V2000
  151.0111  140.5646  155.3079 O   0  0  0  0  0  0  0  0  0  0  0  0
  150.2190  141.4829  155.5232 C   0  0  0  0  0  0  0  0  0  0  0  0
  150.3461  142.3384  156.5494 N   0  0  0  0  0  0  0  0  0  0  0  0
  151.4187  142.3012  157.5370 C   0  0  0  0  0  0  0  0  0  0  0  0
  151.3095  141.0639  158.4425 C   0  0  0  0  0  0  0  0  0  0  0  0
  152.3802  141.0230  159.4802 C   0  0  0  0  0  0  0  0  0  0  0  0
  153.1487  139.9534  159.6997 N   0  0  0  0  0  0  0  0  0  0  0  0
  154.0584  140.1447  160.7454 C   0  0  0  0  0  0  0  0  0  0  0  0
  155.0093  139.0436  161.1170 C   0  0  0  0  0  0  0  0  0  0  0  0
  155.7636  139.3788  162.1641 F   0  0  0  0  0  0  0  0  0  0  0  0
  154.3525  137.9289  161.4364 F   0  0  0  0  0  0  0  0  0  0  0  0
  155.8302  138.7567  160.1072 F   0  0  0  0  0  0  0  0  0  0  0  0
  153.9524  141.3846  161.3281 C   0  0  0  0  0  0  0  0  0  0  0  0
  152.7089  142.3521  160.5844 S   0  0  0  0  0  0  0  0  0  0  0  0
  149.0233  141.7102  154.5914 C   0  0  1  0  0  0  0  0  0  0  0  0
  148.6150  140.4098  153.8864 C   0  0  0  0  0  0  0  0  0  0  0  0
  147.1378  140.6217  153.5910 C   0  0  0  0  0  0  0  0  0  0  0  0
  146.6456  141.4518  154.7779 C   0  0  0  0  0  0  0  0  0  0  0  0
  147.8229  142.1496  155.3361 N   0  3  0  0  0  0  0  0  0  0  0  0
  149.6560  143.0686  156.6538 H   0  0  0  0  0  0  0  0  0  0  0  0
  152.3712  142.2900  157.0062 H   0  0  0  0  0  0  0  0  0  0  0  0
  151.4085  143.2147  158.1345 H   0  0  0  0  0  0  0  0  0  0  0  0
  150.3410  141.0435  158.9444 H   0  0  0  0  0  0  0  0  0  0  0  0
  151.3694  140.1536  157.8450 H   0  0  0  0  0  0  0  0  0  0  0  0
  154.5281  141.7846  162.1495 H   0  0  0  0  0  0  0  0  0  0  0  0
  149.2592  142.4785  153.8531 H   0  0  0  0  0  0  0  0  0  0  0  0
  149.1968  140.2194  152.9838 H   0  0  0  0  0  0  0  0  0  0  0  0
  148.7321  139.5486  154.5473 H   0  0  0  0  0  0  0  0  0  0  0  0
  147.0292  141.1970  152.6703 H   0  0  0  0  0  0  0  0  0  0  0  0
  146.5886  139.6877  153.4683 H   0  0  0  0  0  0  0  0  0  0  0  0
  145.8694  142.1598  154.4863 H   0  0  0  0  0  0  0  0  0  0  0  0
  146.2338  140.8031  155.5518 H   0  0  0  0  0  0  0  0  0  0  0  0
  147.9298  141.8830  156.3051 H   0  0  0  0  0  0  0  0  0  0  0  0
  147.7196  143.1516  155.2648 H   0  0  0  0  0  0  0  0  0  0  0  0
  1  2  2  0  0  0  0
  2  3  1  0  0  0  0
  2 15  1  0  0  0  0
  3  4  1  0  0  0  0
  3 20  1  0  0  0  0
  4  5  1  0  0  0  0
  4 21  1  0  0  0  0
  4 22  1  0  0  0  0
  5  6  1  0  0  0  0
  5 23  1  0  0  0  0
  5 24  1  0  0  0  0
  6 14  1  0  0  0  0
  6  7  2  0  0  0  0
  7  8  1  0  0  0  0
  8  9  1  0  0  0  0
  8 13  2  0  0  0  0
  9 10  1  0  0  0  0
  9 11  1  0  0  0  0
  9 12  1  0  0  0  0
 13 14  1  0  0  0  0
 13 25  1  0  0  0  0
 15 19  1  0  0  0  0
 15 16  1  0  0  0  0
 15 26  1  0  0  0  0
 16 17  1  0  0  0  0
 16 27  1  0  0  0  0
 16 28  1  0  0  0  0
 17 18  1  0  0  0  0
 17 29  1  0  0  0  0
 17 30  1  0  0  0  0
 18 19  1  0  0  0  0
 18 31  1  0  0  0  0
 18 32  1  0  0  0  0
 19 33  1  0  0  0  0
 19 34  1  0  0  0  0
M  CHG  1  19   1
M  END
> <s_m_source_file>
AV-unprocessed.smi

> <i_m_source_file_index>
662

> <i_lp_mmshare_version>
43012

> <i_f3d_flags>
0

> <s_epik_input>
W05IXTFbQ0gyXVtDSDJdW0NIMl1bQ0BIXTFDKD1PKVtOSF1bQ0gyXVtDSDJdYzJuYyhDKEYpKEYpRilbY0hdczI=

> <s_epik_cmdline>
J2VwaWtfcHl0aG9uJywgJy1waCcsICc3LjAnLCAnLXRuJywgJzgnLCAnLW1hJywgJzIwMCcsICctbWV0YWxfYmluZGluZycsICctaW1hZScsICc8aW5maWxlLm1hZT4nLCAnLW9tYWUnLCAnPG91dGZpbGUubWFlPic=

> <r_epik_Ionization_Penalty>
0.0382401

> <r_epik_Ionization_Penalty_Charging>
0.0382382

> <r_epik_Ionization_Penalty_Neutral>
1.85239e-06

> <r_epik_State_Penalty>
0.0320549

> <r_epik_Charging_Adjusted_Penalty>
0.0702931

> <i_epik_Tot_Q>
1

> <i_epik_Tot_abs_Q>
1

> <r_epik_Metal_State_Penalty>
0.0320549

> <b_epik_Metal_Only>
0

> <s_lp_Force_Field>
OPLS_2005

> <r_lp_Energy>
5.09297

> <b_lp_Chiralities_Consistent>
1

> <s_lp_Variant>
AV-unprocessed.smi:662-2

> <Gold.Version>
5.8.1

> <Gold.Id.Protein>
6NUR|6NUR_protein|mol2

> <Gold.PLP.Fitness>
45.3876

> <Gold.PLP.PLP>
-36.5236

> <Gold.PLP.part.hbond>
-3.0000

> <Gold.PLP.part.metal>
0.0000

> <Gold.PLP.part.buried>
-2.8171

> <Gold.PLP.part.nonpolar>
-30.3594

> <Gold.PLP.part.repulsive>
0.2151

> <Gold.PLP.ligand.clash>
0.0000

> <Gold.PLP.ligand.torsion>
0.7987

> <Gold.PLP.Chemscore.Hbond>
3.4720

> <Gold.PLP.Chemscore.CHOScore>
0.0000

> <Gold.PLP.Chemscore.Metal>
0.0000

> <Gold.Chemscore.Hbonds>
donor molecule, donor type, donor heavy atom, donor atom, acceptor molecule, acceptor atom, score
      L1  H     3    20       P1  8028  0.74
      L1  H    19    34       P1  8028  1.47
      P1  H  7989  7998       L1     1  0.93

> <Gold.PLP.Chemscore.Internal.Correction>
0.0454

> <Gold.Rescore>
     Score         DG    S(hbond)    S(metal)    S(lipo)     H(rot)  DE(clash)    DE(int)     intcor
     14.38     -15.59       1.58        0.00      84.55       1.97       0.33       0.89       ----

> <Gold.Chemscore.Fitness>
14.3757

> <Gold.Chemscore.DG>
-15.5945

> <Gold.Chemscore.ZeroCoef>
-5.4800

> <Gold.Chemscore.Hbond>
1.5762

> <Gold.Chemscore.Metal>
0.0000

> <Gold.Chemscore.Lipo>
84.5514

> <Gold.Chemscore.Internal_Hbond>
0.0000

> <Gold.Chemscore.DEClash>
0.3290

> <Gold.Chemscore.DEInternal>
0.8898

> <Gold.Chemscore.Rot>
1.9697

> <Gold.Chemscore.Internal.Correction>
   9.000000E+99

> <Gold.Chemscore.Hbonds>
donor molecule, donor type, donor heavy atom, donor atom, acceptor molecule, acceptor atom, score
      L1  H     3    20       P1  8028  0.72
      L1  H    19    34       P1  8028  0.36
      P1  H  7989  7998       L1     1  0.40

> <Gold.Chemscore.Hbond.Weighted>
-5.2644

> <Gold.Chemscore.Metal.Weighted>
-0.0000

> <Gold.Chemscore.Lipo.Weighted>
-9.8925

> <Gold.Chemscore.Internal_Hbond.Weighted>
0.0000

> <Gold.Chemscore.DEClash.Weighted>
0.3290

> <Gold.Chemscore.DEInternal.Weighted>
0.8898

> <Gold.Chemscore.Rot.Weighted>
5.0424

> <Gold.Chemscore.Internal.Correction.Weighted>
   9.000000E+99

> <Gold.Protein.RotatedTorsions>
[ 6907 6896 6895 6894 ] final   65.95 input  -60.11 | X-H torsion
[ 7974 7965 7964 7962 ] final   70.15 input  175.53 | X-H torsion
[ 8008 7997 7996 7995 ] final  143.03 input   59.86 | X-H torsion
[ 10167 10162 10161 10158 ] final    5.04 input  -65.29 | X-H torsion
[ 10718 10713 10712 10709 ] final   93.07 input   66.30 | X-H torsion
[ 10763 10752 10751 10750 ] final  170.25 input  -60.55 | X-H torsion
[ 11005 11000 10999 10996 ] final  109.28 input  -57.11 | X-H torsion

> <Gold.Protein.ActiveResidues>
 VAL166  LYS551  ARG553  GLY616  TRP617  ASP618  TYR619  PRO620  LYS621  CYS622 
 ASP623  PHE694  ASN695  SER759  ASP760  ASP761  ALA762  ILE779  LEU786  VAL792 
 PHE793  MET794  SER795  GLU796  ALA797  LYS798  CYS799  TRP800  GLU811  SER814 

> <Gold.Protein.RotatedAtoms>
  152.4445  134.5522  159.9869 H   0  0  0  0  0  0  0  0  0  0  0  0  # atno 6907 bound_to 6896
  151.5611  133.3397  159.2979 H   0  0  0  0  0  0  0  0  0  0  0  0  # atno 6908 bound_to 6896
  150.8358  134.7664  159.6955 H   0  0  0  0  0  0  0  0  0  0  0  0  # atno 6909 bound_to 6896
  145.7817  139.2891  143.1261 H   0  0  0  0  0  0  0  0  0  0  0  0  # atno 7974 bound_to 7965
  156.2938  140.2273  156.4824 H   0  0  0  0  0  0  0  0  0  0  0  0  # atno 8008 bound_to 7997
  154.7841  140.0458  157.1171 H   0  0  0  0  0  0  0  0  0  0  0  0  # atno 8009 bound_to 7997
  154.9723  140.3068  155.4986 H   0  0  0  0  0  0  0  0  0  0  0  0  # atno 8010 bound_to 7997
  140.6503  143.7561  150.7564 H   0  0  0  0  0  0  0  0  0  0  0  0  # atno 10167 bound_to 10162
  157.6956  131.0465  150.3978 H   0  0  0  0  0  0  0  0  0  0  0  0  # atno 10718 bound_to 10713
  154.3948  135.2754  155.2132 H   0  0  0  0  0  0  0  0  0  0  0  0  # atno 10763 bound_to 10752
  154.4183  135.6006  153.5998 H   0  0  0  0  0  0  0  0  0  0  0  0  # atno 10764 bound_to 10752
  152.9831  135.5966  154.4208 H   0  0  0  0  0  0  0  0  0  0  0  0  # atno 10765 bound_to 10752
  139.8859  134.9454  156.6102 H   0  0  0  0  0  0  0  0  0  0  0  0  # atno 11005 bound_to 11000
  146.0067  140.8472  142.9991 LP  0  0  0  0  0  0  0  0  0  0  0  0  # atno 17320 bound_to 7965
  144.6795  140.2430  143.7341 LP  0  0  0  0  0  0  0  0  0  0  0  0  # atno 17321 bound_to 7965
  140.1211  143.4611  152.2313 LP  0  0  0  0  0  0  0  0  0  0  0  0  # atno 17342 bound_to 10162
  139.5717  144.7466  151.3872 LP  0  0  0  0  0  0  0  0  0  0  0  0  # atno 17343 bound_to 10162
  156.4375  130.3984  149.6719 LP  0  0  0  0  0  0  0  0  0  0  0  0  # atno 17370 bound_to 10713
  156.3915  130.7629  151.2630 LP  0  0  0  0  0  0  0  0  0  0  0  0  # atno 17371 bound_to 10713
  140.7817  133.8654  155.8573 LP  0  0  0  0  0  0  0  0  0  0  0  0  # atno 17394 bound_to 11000
  140.9754  134.1476  157.4541 LP  0  0  0  0  0  0  0  0  0  0  0  0  # atno 17395 bound_to 11000

$$$$
