AV-unprocessed.smi:3348|AV-procd|sdf|12921|dock2
  -GOLD-   2272019343D 1   1.00000     0.00000
 Structure written by MMmdl.
 47 48  0  0  0  0  0  0  0  0  2 V2000
  148.2518  140.7003  154.0427 C   0  0  0  0  0  0  0  0  0  0  0  0
  148.6023  139.2094  153.9088 C   0  0  2  0  0  0  0  0  0  0  0  0
  150.1226  138.9902  154.0345 C   0  0  0  0  0  0  0  0  0  0  0  0
  150.6812  139.6512  155.2008 N   0  0  0  0  0  0  0  0  0  0  0  0
  150.4032  139.4173  156.5312 C   0  0  0  0  0  0  0  0  0  0  0  0
  151.1723  140.2752  157.2637 C   0  0  0  0  0  0  0  0  0  0  0  0
  151.8966  141.0048  156.2799 C   0  0  0  0  0  0  0  0  0  0  0  0
  151.6029  140.6269  155.0458 N   0  0  0  0  0  0  0  0  0  0  0  0
  148.1115  138.6709  152.6199 N   0  3  0  0  0  0  0  0  0  0  0  0
  146.6417  138.6038  152.4842 C   0  0  0  0  0  0  0  0  0  0  0  0
  146.2204  137.3357  151.7356 C   0  0  0  0  0  0  0  0  0  0  0  0
  145.2510  136.6543  152.5179 O   0  0  0  0  0  0  0  0  0  0  0  0
  145.1320  135.2652  152.2350 C   0  0  1  0  0  0  0  0  0  0  0  0
  144.6524  135.0686  150.7808 C   0  0  0  0  0  0  0  0  0  0  0  0
  144.6386  133.5846  150.3860 C   0  0  0  0  0  0  0  0  0  0  0  0
  146.0182  132.9460  150.5962 C   0  0  0  0  0  0  0  0  0  0  0  0
  146.4966  133.1312  152.0440 C   0  0  0  0  0  0  0  0  0  0  0  0
  146.5185  134.6176  152.4538 C   0  0  2  0  0  0  0  0  0  0  0  0
  146.9963  134.7710  153.9072 C   0  0  0  0  0  0  0  0  0  0  0  0
  148.6140  141.1030  154.9890 H   0  0  0  0  0  0  0  0  0  0  0  0
  147.1752  140.8673  154.0146 H   0  0  0  0  0  0  0  0  0  0  0  0
  148.7013  141.2867  153.2407 H   0  0  0  0  0  0  0  0  0  0  0  0
  148.1174  138.6658  154.7214 H   0  0  0  0  0  0  0  0  0  0  0  0
  150.3611  137.9260  154.0778 H   0  0  0  0  0  0  0  0  0  0  0  0
  150.6317  139.3856  153.1544 H   0  0  0  0  0  0  0  0  0  0  0  0
  149.6896  138.6685  156.8428 H   0  0  0  0  0  0  0  0  0  0  0  0
  151.2104  140.3690  158.3390 H   0  0  0  0  0  0  0  0  0  0  0  0
  152.6227  141.7910  156.4256 H   0  0  0  0  0  0  0  0  0  0  0  0
  148.4906  139.2277  151.8670 H   0  0  0  0  0  0  0  0  0  0  0  0
  146.1989  138.6014  153.4806 H   0  0  0  0  0  0  0  0  0  0  0  0
  146.2622  139.4838  151.9654 H   0  0  0  0  0  0  0  0  0  0  0  0
  145.8187  137.5892  150.7530 H   0  0  0  0  0  0  0  0  0  0  0  0
  147.0928  136.7015  151.5794 H   0  0  0  0  0  0  0  0  0  0  0  0
  144.4219  134.7997  152.9215 H   0  0  0  0  0  0  0  0  0  0  0  0
  143.6536  135.4822  150.6443 H   0  0  0  0  0  0  0  0  0  0  0  0
  145.3078  135.6172  150.1027 H   0  0  0  0  0  0  0  0  0  0  0  0
  143.8938  133.0541  150.9805 H   0  0  0  0  0  0  0  0  0  0  0  0
  144.3360  133.4796  149.3438 H   0  0  0  0  0  0  0  0  0  0  0  0
  145.9788  131.8846  150.3502 H   0  0  0  0  0  0  0  0  0  0  0  0
  146.7385  133.3958  149.9120 H   0  0  0  0  0  0  0  0  0  0  0  0
  145.8427  132.5729  152.7155 H   0  0  0  0  0  0  0  0  0  0  0  0
  147.4920  132.6992  152.1544 H   0  0  0  0  0  0  0  0  0  0  0  0
  147.2378  135.1296  151.8124 H   0  0  0  0  0  0  0  0  0  0  0  0
  146.3054  134.2950  154.6035 H   0  0  0  0  0  0  0  0  0  0  0  0
  147.0836  135.8204  154.1895 H   0  0  0  0  0  0  0  0  0  0  0  0
  147.9764  134.3142  154.0469 H   0  0  0  0  0  0  0  0  0  0  0  0
  148.4662  137.7288  152.5283 H   0  0  0  0  0  0  0  0  0  0  0  0
  1  2  1  0  0  0  0
  1 20  1  0  0  0  0
  1 21  1  0  0  0  0
  1 22  1  0  0  0  0
  2  3  1  0  0  0  0
  2  9  1  0  0  0  0
  2 23  1  0  0  0  0
  3  4  1  0  0  0  0
  3 24  1  0  0  0  0
  3 25  1  0  0  0  0
  4  8  1  0  0  0  0
  4  5  1  0  0  0  0
  5  6  2  0  0  0  0
  5 26  1  0  0  0  0
  6  7  1  0  0  0  0
  6 27  1  0  0  0  0
  7  8  2  0  0  0  0
  7 28  1  0  0  0  0
  9 10  1  0  0  0  0
  9 29  1  0  0  0  0
  9 47  1  0  0  0  0
 10 11  1  0  0  0  0
 10 30  1  0  0  0  0
 10 31  1  0  0  0  0
 11 12  1  0  0  0  0
 11 32  1  0  0  0  0
 11 33  1  0  0  0  0
 12 13  1  0  0  0  0
 13 18  1  0  0  0  0
 13 14  1  0  0  0  0
 13 34  1  0  0  0  0
 14 15  1  0  0  0  0
 14 35  1  0  0  0  0
 14 36  1  0  0  0  0
 15 16  1  0  0  0  0
 15 37  1  0  0  0  0
 15 38  1  0  0  0  0
 16 17  1  0  0  0  0
 16 39  1  0  0  0  0
 16 40  1  0  0  0  0
 17 18  1  0  0  0  0
 17 41  1  0  0  0  0
 17 42  1  0  0  0  0
 18 19  1  0  0  0  0
 18 43  1  0  0  0  0
 19 44  1  0  0  0  0
 19 45  1  0  0  0  0
 19 46  1  0  0  0  0
M  CHG  1   9   1
M  END
> <s_m_source_file>
AV-unprocessed.smi

> <i_m_source_file_index>
3348

> <i_lp_mmshare_version>
43012

> <i_f3d_flags>
0

> <s_epik_input>
bjFbY0hdW2NIXVtjSF1uMVtDSDJdW0NAQEhdKFtDSDNdKVtOSF1bQ0gyXVtDSDJdT1tDQEBIXTJbQ0gyXVtDSDJdW0NIMl1bQ0gyXVtDQEhdMltDSDNd

> <s_epik_cmdline>
J2VwaWtfcHl0aG9uJywgJy1waCcsICc3LjAnLCAnLXRuJywgJzgnLCAnLW1hJywgJzIwMCcsICctbWV0YWxfYmluZGluZycsICctaW1hZScsICc8aW5maWxlLm1hZT4nLCAnLW9tYWUnLCAnPG91dGZpbGUubWFlPic=

> <r_lp_tautomer_probability>
1

> <r_epik_Ionization_Penalty>
0.00925088

> <r_epik_Ionization_Penalty_Charging>
0.00924645

> <r_epik_Ionization_Penalty_Neutral>
4.42413e-06

> <r_epik_State_Penalty>
0.0070118

> <r_epik_Charging_Adjusted_Penalty>
0.0162583

> <i_epik_Tot_Q>
1

> <i_epik_Tot_abs_Q>
1

> <r_epik_Metal_State_Penalty>
0.00701222

> <b_epik_Metal_Only>
0

> <s_lp_Force_Field>
OPLS_2005

> <r_lp_Energy>
15.6253

> <b_lp_Chiralities_Consistent>
1

> <s_lp_Variant>
AV-unprocessed.smi:3348-7

> <Gold.Version>
5.8.1

> <Gold.Id.Protein>
6NUR|6NUR_protein|mol2

> <Gold.PLP.Fitness>
44.3801

> <Gold.PLP.PLP>
-34.0337

> <Gold.PLP.part.hbond>
-2.9777

> <Gold.PLP.part.metal>
0.0000

> <Gold.PLP.part.buried>
-0.3811

> <Gold.PLP.part.nonpolar>
-30.5319

> <Gold.PLP.part.repulsive>
0.3041

> <Gold.PLP.ligand.clash>
0.0000

> <Gold.PLP.ligand.torsion>
0.8327

> <Gold.PLP.Chemscore.Hbond>
3.9120

> <Gold.PLP.Chemscore.CHOScore>
0.0000

> <Gold.PLP.Chemscore.Metal>
0.0000

> <Gold.Chemscore.Hbonds>
donor molecule, donor type, donor heavy atom, donor atom, acceptor molecule, acceptor atom, score
      L1  H     9    29       P1  7957  0.99
      L1  H     9    47       P1  7948  2.00
      P1  H  7989  7998       L1     8  0.77

> <Gold.PLP.Chemscore.Internal.Correction>
0.2758

> <Gold.Rescore>
     Score         DG    S(hbond)    S(metal)    S(lipo)     H(rot)  DE(clash)    DE(int)     intcor
     19.18     -20.29       2.88        0.00      84.05       1.82       0.11       1.00       ----

> <Gold.Chemscore.Fitness>
19.1834

> <Gold.Chemscore.DG>
-20.2910

> <Gold.Chemscore.ZeroCoef>
-5.4800

> <Gold.Chemscore.Hbond>
2.8822

> <Gold.Chemscore.Metal>
0.0000

> <Gold.Chemscore.Lipo>
84.0516

> <Gold.Chemscore.Internal_Hbond>
0.0000

> <Gold.Chemscore.DEClash>
0.1120

> <Gold.Chemscore.DEInternal>
0.9956

> <Gold.Chemscore.Rot>
1.8163

> <Gold.Chemscore.Internal.Correction>
   9.000000E+99

> <Gold.Chemscore.Hbonds>
donor molecule, donor type, donor heavy atom, donor atom, acceptor molecule, acceptor atom, score
      L1  H     9    29       P1  7957  0.90
      L1  H     9    47       P1  7948  1.00
      P1  H  7989  7998       L1     8  0.37

> <Gold.Chemscore.Hbond.Weighted>
-9.6267

> <Gold.Chemscore.Metal.Weighted>
-0.0000

> <Gold.Chemscore.Lipo.Weighted>
-9.8340

> <Gold.Chemscore.Internal_Hbond.Weighted>
0.0000

> <Gold.Chemscore.DEClash.Weighted>
0.1120

> <Gold.Chemscore.DEInternal.Weighted>
0.9956

> <Gold.Chemscore.Rot.Weighted>
4.6497

> <Gold.Chemscore.Internal.Correction.Weighted>
   9.000000E+99

> <Gold.Protein.RotatedTorsions>
[ 6907 6896 6895 6894 ] final   17.72 input  -60.11 | X-H torsion
[ 7974 7965 7964 7962 ] final  -28.53 input  175.53 | X-H torsion
[ 8008 7997 7996 7995 ] final  124.97 input   59.86 | X-H torsion
[ 10167 10162 10161 10158 ] final  -60.95 input  -65.29 | X-H torsion
[ 10718 10713 10712 10709 ] final   32.32 input   66.30 | X-H torsion
[ 10763 10752 10751 10750 ] final  -10.65 input  -60.55 | X-H torsion
[ 11005 11000 10999 10996 ] final  -45.50 input  -57.11 | X-H torsion

> <Gold.Protein.ActiveResidues>
 VAL166  LYS551  ARG553  GLY616  TRP617  ASP618  TYR619  PRO620  LYS621  CYS622 
 ASP623  PHE694  ASN695  SER759  ASP760  ASP761  ALA762  ILE779  LEU786  VAL792 
 PHE793  MET794  SER795  GLU796  ALA797  LYS798  CYS799  TRP800  GLU811  SER814 

> <Gold.Protein.RotatedAtoms>
  151.8541  135.0547  160.0461 H   0  0  0  0  0  0  0  0  0  0  0  0  # atno 6907 bound_to 6896
  152.2714  133.5381  159.5449 H   0  0  0  0  0  0  0  0  0  0  0  0  # atno 6908 bound_to 6896
  150.7153  134.0609  159.3873 H   0  0  0  0  0  0  0  0  0  0  0  0  # atno 6909 bound_to 6896
  146.1281  140.5295  142.8705 H   0  0  0  0  0  0  0  0  0  0  0  0  # atno 7974 bound_to 7965
  156.2819  140.2727  156.1874 H   0  0  0  0  0  0  0  0  0  0  0  0  # atno 8008 bound_to 7997
  155.0494  140.0386  157.2556 H   0  0  0  0  0  0  0  0  0  0  0  0  # atno 8009 bound_to 7997
  154.7208  140.2687  155.6549 H   0  0  0  0  0  0  0  0  0  0  0  0  # atno 8010 bound_to 7997
  140.6038  143.2368  151.5868 H   0  0  0  0  0  0  0  0  0  0  0  0  # atno 10167 bound_to 10162
  157.2838  130.7268  149.6571 H   0  0  0  0  0  0  0  0  0  0  0  0  # atno 10718 bound_to 10713
  153.4722  135.7017  153.5986 H   0  0  0  0  0  0  0  0  0  0  0  0  # atno 10763 bound_to 10752
  153.4235  135.3819  155.2126 H   0  0  0  0  0  0  0  0  0  0  0  0  # atno 10764 bound_to 10752
  154.8725  135.3933  154.4162 H   0  0  0  0  0  0  0  0  0  0  0  0  # atno 10765 bound_to 10752
  141.0519  133.6740  156.3021 H   0  0  0  0  0  0  0  0  0  0  0  0  # atno 11005 bound_to 11000
  144.7663  140.5537  143.6701 LP  0  0  0  0  0  0  0  0  0  0  0  0  # atno 17320 bound_to 7965
  145.5320  139.1475  143.3494 LP  0  0  0  0  0  0  0  0  0  0  0  0  # atno 17321 bound_to 7965
  139.5310  144.2916  152.1147 LP  0  0  0  0  0  0  0  0  0  0  0  0  # atno 17342 bound_to 10162
  140.2102  144.4570  150.6389 LP  0  0  0  0  0  0  0  0  0  0  0  0  # atno 17343 bound_to 10162
  155.9665  130.4330  150.4987 LP  0  0  0  0  0  0  0  0  0  0  0  0  # atno 17370 bound_to 10713
  157.2936  131.0631  151.2117 LP  0  0  0  0  0  0  0  0  0  0  0  0  # atno 17371 bound_to 10713
  140.6039  134.5527  157.5522 LP  0  0  0  0  0  0  0  0  0  0  0  0  # atno 17394 bound_to 11000
  139.9357  134.7879  156.0808 LP  0  0  0  0  0  0  0  0  0  0  0  0  # atno 17395 bound_to 11000

$$$$
