AV-unprocessed.smi:228|AV-procd|sdf|1743|dock3
  -GOLD-   2262020253D 1   1.00000     0.00000
 Structure written by MMmdl.
 60 63  0  0  0  0  0  0  0  0  2 V2000
  146.4597  140.0454  154.5564 C   0  0  0  0  0  0  0  0  0  0  0  0
  147.6085  139.1483  154.6095 N   0  0  0  0  0  0  0  0  0  0  0  0
  148.7010  139.5024  155.5189 C   0  0  0  0  0  0  0  0  0  0  0  0
  149.3089  140.9065  155.2873 C   0  0  2  0  0  0  0  0  0  0  0  0
  149.6406  140.9833  153.9173 O   0  0  0  0  0  0  0  0  0  0  0  0
  150.5997  141.1811  156.0922 C   0  0  0  0  0  0  0  0  0  0  0  0
  150.5285  142.4120  156.9228 N   0  3  0  0  0  0  0  0  0  0  0  0
  149.7321  142.2093  158.1564 C   0  0  0  0  0  0  0  0  0  0  0  0
  149.6556  143.5079  158.9764 C   0  0  0  0  0  0  0  0  0  0  0  0
  150.9694  143.9544  159.2848 O   0  0  0  0  0  0  0  0  0  0  0  0
  151.7154  144.2519  158.1125 C   0  0  0  0  0  0  0  0  0  0  0  0
  151.8592  142.9861  157.2496 C   0  0  0  0  0  0  0  0  0  0  0  0
  147.3006  137.8438  154.3915 C   0  0  0  0  0  0  0  0  0  0  0  0
  148.0057  136.8619  155.0121 N   0  0  0  0  0  0  0  0  0  0  0  0
  147.7205  135.5770  154.7815 C   0  0  0  0  0  0  0  0  0  0  0  0
  146.7920  135.0614  153.9741 N   0  0  0  0  0  0  0  0  0  0  0  0
  146.0766  136.0411  153.3519 C   0  0  0  0  0  0  0  0  0  0  0  0
  146.2556  137.4438  153.5122 C   0  0  0  0  0  0  0  0  0  0  0  0
  145.3443  138.1305  152.7193 N   0  0  0  0  0  0  0  0  0  0  0  0
  144.6581  137.1882  152.1327 C   0  0  0  0  0  0  0  0  0  0  0  0
  145.0590  135.9038  152.4241 N   0  0  0  0  0  0  0  0  0  0  0  0
  144.4786  134.6884  151.9335 C   0  0  0  0  0  0  0  0  0  0  0  0
  145.0378  133.3276  152.3582 C   0  0  0  0  0  0  0  0  0  0  0  0
  144.7636  132.7594  150.9485 C   0  0  0  0  0  0  0  0  0  0  0  0
  145.9196  131.9563  150.3319 C   0  0  0  0  0  0  0  0  0  0  0  0
  147.1582  132.6130  150.5098 O   0  0  0  0  0  0  0  0  0  0  0  0
  143.4788  131.9204  150.7658 C   0  0  0  0  0  0  0  0  0  0  0  0
  142.9543  131.9780  149.4548 O   0  0  0  0  0  0  0  0  0  0  0  0
  144.6928  134.2323  150.4862 C   0  0  0  0  0  0  0  0  0  0  0  0
  146.3142  140.4129  153.5405 H   0  0  0  0  0  0  0  0  0  0  0  0
  146.6015  140.9104  155.2049 H   0  0  0  0  0  0  0  0  0  0  0  0
  145.5448  139.5430  154.8746 H   0  0  0  0  0  0  0  0  0  0  0  0
  148.3278  139.4468  156.5423 H   0  0  0  0  0  0  0  0  0  0  0  0
  149.4794  138.7417  155.4412 H   0  0  0  0  0  0  0  0  0  0  0  0
  148.5720  141.6886  155.4562 H   0  0  0  0  0  0  0  0  0  0  0  0
  149.2128  140.2734  153.4624 H   0  0  0  0  0  0  0  0  0  0  0  0
  150.8048  140.3163  156.7256 H   0  0  0  0  0  0  0  0  0  0  0  0
  151.4561  141.2717  155.4214 H   0  0  0  0  0  0  0  0  0  0  0  0
  148.7247  141.8827  157.8956 H   0  0  0  0  0  0  0  0  0  0  0  0
  150.1826  141.4164  158.7558 H   0  0  0  0  0  0  0  0  0  0  0  0
  149.1106  144.2823  158.4355 H   0  0  0  0  0  0  0  0  0  0  0  0
  149.1159  143.3319  159.9069 H   0  0  0  0  0  0  0  0  0  0  0  0
  151.2320  145.0547  157.5569 H   0  0  0  0  0  0  0  0  0  0  0  0
  152.6991  144.6201  158.4038 H   0  0  0  0  0  0  0  0  0  0  0  0
  152.4557  142.2446  157.7832 H   0  0  0  0  0  0  0  0  0  0  0  0
  152.4026  143.2385  156.3399 H   0  0  0  0  0  0  0  0  0  0  0  0
  148.3269  134.8595  155.3147 H   0  0  0  0  0  0  0  0  0  0  0  0
  143.8468  137.4086  151.4541 H   0  0  0  0  0  0  0  0  0  0  0  0
  143.4146  134.7552  152.1636 H   0  0  0  0  0  0  0  0  0  0  0  0
  146.1022  133.3737  152.5961 H   0  0  0  0  0  0  0  0  0  0  0  0
  144.4811  132.8451  153.1622 H   0  0  0  0  0  0  0  0  0  0  0  0
  145.9821  130.9580  150.7662 H   0  0  0  0  0  0  0  0  0  0  0  0
  145.7699  131.8175  149.2607 H   0  0  0  0  0  0  0  0  0  0  0  0
  147.8508  132.0250  150.2498 H   0  0  0  0  0  0  0  0  0  0  0  0
  143.6653  130.8720  151.0005 H   0  0  0  0  0  0  0  0  0  0  0  0
  142.6937  132.2562  151.4437 H   0  0  0  0  0  0  0  0  0  0  0  0
  142.0132  132.0441  149.5104 H   0  0  0  0  0  0  0  0  0  0  0  0
  143.8646  134.4641  149.8156 H   0  0  0  0  0  0  0  0  0  0  0  0
  145.6367  134.5907  150.0724 H   0  0  0  0  0  0  0  0  0  0  0  0
  150.0313  143.1017  156.3769 H   0  0  0  0  0  0  0  0  0  0  0  0
  1  2  1  0  0  0  0
  1 30  1  0  0  0  0
  1 31  1  0  0  0  0
  1 32  1  0  0  0  0
  2  3  1  0  0  0  0
  2 13  1  0  0  0  0
  3  4  1  0  0  0  0
  3 33  1  0  0  0  0
  3 34  1  0  0  0  0
  4  5  1  0  0  0  0
  4  6  1  0  0  0  0
  4 35  1  0  0  0  0
  5 36  1  0  0  0  0
  6  7  1  0  0  0  0
  6 37  1  0  0  0  0
  6 38  1  0  0  0  0
  7 12  1  0  0  0  0
  7  8  1  0  0  0  0
  7 60  1  0  0  0  0
  8  9  1  0  0  0  0
  8 39  1  0  0  0  0
  8 40  1  0  0  0  0
  9 10  1  0  0  0  0
  9 41  1  0  0  0  0
  9 42  1  0  0  0  0
 10 11  1  0  0  0  0
 11 12  1  0  0  0  0
 11 43  1  0  0  0  0
 11 44  1  0  0  0  0
 12 45  1  0  0  0  0
 12 46  1  0  0  0  0
 13 18  1  0  0  0  0
 13 14  2  0  0  0  0
 14 15  1  0  0  0  0
 15 16  2  0  0  0  0
 15 47  1  0  0  0  0
 16 17  1  0  0  0  0
 17 21  1  0  0  0  0
 17 18  2  0  0  0  0
 18 19  1  0  0  0  0
 19 20  2  0  0  0  0
 20 21  1  0  0  0  0
 20 48  1  0  0  0  0
 21 22  1  0  0  0  0
 22 29  1  0  0  0  0
 22 23  1  0  0  0  0
 22 49  1  0  0  0  0
 23 24  1  0  0  0  0
 23 50  1  0  0  0  0
 23 51  1  0  0  0  0
 24 25  1  0  0  0  0
 24 27  1  0  0  0  0
 24 29  1  0  0  0  0
 25 26  1  0  0  0  0
 25 52  1  0  0  0  0
 25 53  1  0  0  0  0
 26 54  1  0  0  0  0
 27 28  1  0  0  0  0
 27 55  1  0  0  0  0
 27 56  1  0  0  0  0
 28 57  1  0  0  0  0
 29 58  1  0  0  0  0
 29 59  1  0  0  0  0
M  CHG  1   7   1
M  END
> <s_m_source_file>
AV-unprocessed.smi

> <i_m_source_file_index>
228

> <i_lp_mmshare_version>
43012

> <i_f3d_flags>
0

> <s_epik_input>
W0NIMl0xW0NIMl1PW0NIMl1bQ0gyXU4xW0NIMl1bQ0BASF0oW09IXSlbQ0gyXU4oW0NIM10pYyhuW2NIXW4yKWMoYzIzKW5bY0hdbjNbQ0hdKFtDSDJdNClbQ0gyXUM0KFtDSDJdW09IXSlbQ0gyXVtPSF0=

> <s_epik_cmdline>
J2VwaWtfcHl0aG9uJywgJy1waCcsICc3LjAnLCAnLXRuJywgJzgnLCAnLW1hJywgJzIwMCcsICctbWV0YWxfYmluZGluZycsICctaW1hZScsICc8aW5maWxlLm1hZT4nLCAnLW9tYWUnLCAnPG91dGZpbGUubWFlPic=

> <r_lp_tautomer_probability>
1

> <r_epik_Ionization_Penalty>
0.403032

> <r_epik_Ionization_Penalty_Charging>
0.40072

> <r_epik_Ionization_Penalty_Neutral>
0.00231206

> <r_epik_State_Penalty>
0.387266

> <r_epik_Charging_Adjusted_Penalty>
0.787986

> <i_epik_Tot_Q>
1

> <i_epik_Tot_abs_Q>
1

> <r_epik_Metal_State_Penalty>
0.385845

> <b_epik_Metal_Only>
0

> <s_lp_Force_Field>
OPLS_2005

> <r_lp_Energy>
45.878

> <b_lp_Chiralities_Consistent>
1

> <s_lp_Variant>
AV-unprocessed.smi:228-1

> <Gold.Version>
5.8.1

> <Gold.Id.Protein>
6NUR|6NUR_protein|mol2

> <Gold.PLP.Fitness>
56.1874

> <Gold.PLP.PLP>
-38.4069

> <Gold.PLP.part.hbond>
-7.9546

> <Gold.PLP.part.metal>
0.0000

> <Gold.PLP.part.buried>
-4.6354

> <Gold.PLP.part.nonpolar>
-29.1237

> <Gold.PLP.part.repulsive>
2.6878

> <Gold.PLP.ligand.clash>
0.0000

> <Gold.PLP.ligand.torsion>
1.8235

> <Gold.PLP.Chemscore.Hbond>
5.8239

> <Gold.PLP.Chemscore.CHOScore>
0.8869

> <Gold.PLP.Chemscore.Metal>
0.0000

> <Gold.Chemscore.Hbonds>
donor molecule, donor type, donor heavy atom, donor atom, acceptor molecule, acceptor atom, score
      L1  H     5    36       P1  7957  0.07
      L1  H     7    60       P1  8028  1.62
      L1  H    26    54       P1 10747  1.00
      L1  H    28    57       P1 10952  0.41
      P1  H  7989  7998       L1     5  0.42
      P1  H  8011  8017       L1     5  0.67
      P1  H 10785 10796       L1    28  1.00
      L1  C    20    48       P1 10171  0.94

> <Gold.PLP.Chemscore.Internal.Correction>
1.2951

> <Gold.Rescore>
     Score         DG    S(hbond)    S(metal)    S(lipo)     H(rot)  DE(clash)    DE(int)     intcor
     11.02     -18.84       4.13        0.00     100.81       4.77       3.63       4.19       ----

> <Gold.Chemscore.Fitness>
11.0216

> <Gold.Chemscore.DG>
-18.8440

> <Gold.Chemscore.ZeroCoef>
-5.4800

> <Gold.Chemscore.Hbond>
4.1289

> <Gold.Chemscore.Metal>
0.0000

> <Gold.Chemscore.Lipo>
100.8074

> <Gold.Chemscore.Internal_Hbond>
0.0000

> <Gold.Chemscore.DEClash>
3.6282

> <Gold.Chemscore.DEInternal>
4.1942

> <Gold.Chemscore.Rot>
4.7738

> <Gold.Chemscore.Internal.Correction>
   9.000000E+99

> <Gold.Chemscore.Hbonds>
donor molecule, donor type, donor heavy atom, donor atom, acceptor molecule, acceptor atom, score
      L1  H     5    36       P1  7957  0.08
      L1  H     7    60       P1  8028  0.80
      L1  H    26    54       P1 10747  0.99
      L1  H    28    57       P1 10952  0.39
      P1  H  7989  7998       L1     5  0.24
      P1  H  8011  8017       L1     5  0.19
      P1  H 10785 10796       L1    28  0.17

> <Gold.Chemscore.Hbond.Weighted>
-13.7904

> <Gold.Chemscore.Metal.Weighted>
-0.0000

> <Gold.Chemscore.Lipo.Weighted>
-11.7945

> <Gold.Chemscore.Internal_Hbond.Weighted>
0.0000

> <Gold.Chemscore.DEClash.Weighted>
3.6282

> <Gold.Chemscore.DEInternal.Weighted>
4.1942

> <Gold.Chemscore.Rot.Weighted>
12.2208

> <Gold.Chemscore.Internal.Correction.Weighted>
   9.000000E+99

> <Gold.Protein.RotatedTorsions>
[ 6907 6896 6895 6894 ] final   18.22 input  -60.11 | X-H torsion
[ 7974 7965 7964 7962 ] final -148.10 input  175.53 | X-H torsion
[ 8008 7997 7996 7995 ] final   58.86 input   59.86 | X-H torsion
[ 10167 10162 10161 10158 ] final  167.77 input  -65.29 | X-H torsion
[ 10718 10713 10712 10709 ] final   31.32 input   66.30 | X-H torsion
[ 10763 10752 10751 10750 ] final   65.49 input  -60.55 | X-H torsion
[ 11005 11000 10999 10996 ] final -165.37 input  -57.11 | X-H torsion

> <Gold.Protein.ActiveResidues>
 VAL166  LYS551  ARG553  GLY616  TRP617  ASP618  TYR619  PRO620  LYS621  CYS622 
 ASP623  PHE694  ASN695  SER759  ASP760  ASP761  ALA762  ILE779  LEU786  VAL792 
 PHE793  MET794  SER795  GLU796  ALA797  LYS798  CYS799  TRP800  GLU811  SER814 

> <Gold.Protein.RotatedAtoms>
  151.8619  135.0521  160.0469 H   0  0  0  0  0  0  0  0  0  0  0  0  # atno 6907 bound_to 6896
  152.2656  133.5331  159.5416 H   0  0  0  0  0  0  0  0  0  0  0  0  # atno 6908 bound_to 6896
  150.7132  134.0686  159.3898 H   0  0  0  0  0  0  0  0  0  0  0  0  # atno 6909 bound_to 6896
  144.8051  140.5240  143.5681 H   0  0  0  0  0  0  0  0  0  0  0  0  # atno 7974 bound_to 7965
  155.5568  140.3487  155.4481 H   0  0  0  0  0  0  0  0  0  0  0  0  # atno 8008 bound_to 7997
  156.0543  140.1325  157.0040 H   0  0  0  0  0  0  0  0  0  0  0  0  # atno 8009 bound_to 7997
  154.4449  140.0998  156.6408 H   0  0  0  0  0  0  0  0  0  0  0  0  # atno 8010 bound_to 7997
  139.4953  144.3886  151.9542 H   0  0  0  0  0  0  0  0  0  0  0  0  # atno 10167 bound_to 10162
  157.2710  130.7208  149.6504 H   0  0  0  0  0  0  0  0  0  0  0  0  # atno 10718 bound_to 10713
  153.0099  135.5355  154.6676 H   0  0  0  0  0  0  0  0  0  0  0  0  # atno 10763 bound_to 10752
  154.5868  135.2855  155.0678 H   0  0  0  0  0  0  0  0  0  0  0  0  # atno 10764 bound_to 10752
  154.1786  135.6520  153.5080 H   0  0  0  0  0  0  0  0  0  0  0  0  # atno 10765 bound_to 10752
  140.5765  134.5185  157.5171 H   0  0  0  0  0  0  0  0  0  0  0  0  # atno 11005 bound_to 11000
  145.5459  139.1476  143.3421 LP  0  0  0  0  0  0  0  0  0  0  0  0  # atno 17320 bound_to 7965
  146.2340  140.5598  142.8963 LP  0  0  0  0  0  0  0  0  0  0  0  0  # atno 17321 bound_to 7965
  140.3323  144.3301  150.5984 LP  0  0  0  0  0  0  0  0  0  0  0  0  # atno 17342 bound_to 10162
  140.5634  143.2189  151.7725 LP  0  0  0  0  0  0  0  0  0  0  0  0  # atno 17343 bound_to 10162
  155.9663  130.4367  150.5147 LP  0  0  0  0  0  0  0  0  0  0  0  0  # atno 17370 bound_to 10713
  157.3071  131.0656  151.2027 LP  0  0  0  0  0  0  0  0  0  0  0  0  # atno 17371 bound_to 10713
  139.9337  134.7915  156.0860 LP  0  0  0  0  0  0  0  0  0  0  0  0  # atno 17394 bound_to 11000
  141.1023  133.6672  156.2784 LP  0  0  0  0  0  0  0  0  0  0  0  0  # atno 17395 bound_to 11000

$$$$
