AV-unprocessed.smi:283|AV-procd|sdf|2139|dock4
  -GOLD-   2262021463D 1   1.00000     0.00000
 Structure written by MMmdl.
 48 51  0  0  0  0  0  0  0  0  1 V2000
  148.6823  132.8462  153.9777 C   0  0  0  0  0  0  0  0  0  0  0  0
  147.4989  133.0152  153.0076 C   0  0  2  0  0  0  0  0  0  0  0  0
  146.4586  133.8652  153.5859 N   0  0  0  0  0  0  0  0  0  0  0  0
  146.3692  135.1815  153.2926 C   0  0  0  0  0  0  0  0  0  0  0  0
  145.8031  135.6123  152.1350 N   0  0  0  0  0  0  0  0  0  0  0  0
  145.7221  136.9206  151.8761 C   0  0  0  0  0  0  0  0  0  0  0  0
  146.1340  137.9457  152.6249 N   0  0  0  0  0  0  0  0  0  0  0  0
  146.7004  137.5193  153.7917 C   0  0  0  0  0  0  0  0  0  0  0  0
  146.8523  136.1636  154.1955 C   0  0  0  0  0  0  0  0  0  0  0  0
  147.4659  136.1088  155.4404 N   0  0  0  0  0  0  0  0  0  0  0  0
  147.6612  137.3621  155.7518 C   0  0  0  0  0  0  0  0  0  0  0  0
  147.2284  138.2775  154.8186 N   0  0  0  0  0  0  0  0  0  0  0  0
  147.3139  139.7696  154.9004 C   0  0  1  0  0  0  0  0  0  0  0  0
  147.7776  140.1344  156.1585 O   0  0  0  0  0  0  0  0  0  0  0  0
  148.4441  141.3891  156.0667 C   0  0  1  0  0  0  0  0  0  0  0  0
  149.6915  141.3586  156.9681 C   0  0  0  0  0  0  0  0  0  0  0  0
  150.3914  142.5851  156.9389 O   0  0  0  0  0  0  0  0  0  0  0  0
  148.7010  141.6676  154.5697 C   0  0  2  0  0  0  0  0  0  0  0  0
  147.8767  142.7353  154.1420 O   0  0  0  0  0  0  0  0  0  0  0  0
  148.2761  140.3811  153.8721 C   0  0  1  0  0  0  0  0  0  0  0  0
  149.3958  139.5628  153.5869 O   0  0  0  0  0  0  0  0  0  0  0  0
  146.9702  131.6449  152.5860 C   0  0  0  0  0  0  0  0  0  0  0  0
  147.5713  130.4686  153.0936 C   0  0  0  0  0  0  0  0  0  0  0  0
  147.1002  129.1983  152.7120 C   0  0  0  0  0  0  0  0  0  0  0  0
  146.0254  129.0885  151.8117 C   0  0  0  0  0  0  0  0  0  0  0  0
  145.4280  130.2505  151.2899 C   0  0  0  0  0  0  0  0  0  0  0  0
  145.8957  131.5252  151.6678 C   0  0  0  0  0  0  0  0  0  0  0  0
  145.1324  132.9159  150.9792 Cl  0  0  0  0  0  0  0  0  0  0  0  0
  146.2893  140.1239  154.7775 H   0  0  0  0  0  0  0  0  0  0  0  0
  147.7574  142.1334  156.4741 H   0  0  0  0  0  0  0  0  0  0  0  0
  149.7361  141.9361  154.3537 H   0  0  0  0  0  0  0  0  0  0  0  0
  147.7450  140.5588  152.9359 H   0  0  0  0  0  0  0  0  0  0  0  0
  149.4762  132.2517  153.5247 H   0  0  0  0  0  0  0  0  0  0  0  0
  148.3729  132.3423  154.8940 H   0  0  0  0  0  0  0  0  0  0  0  0
  149.1175  133.8050  154.2594 H   0  0  0  0  0  0  0  0  0  0  0  0
  147.8541  133.5190  152.1094 H   0  0  0  0  0  0  0  0  0  0  0  0
  145.8582  133.4167  154.2627 H   0  0  0  0  0  0  0  0  0  0  0  0
  145.2604  137.1838  150.9360 H   0  0  0  0  0  0  0  0  0  0  0  0
  148.1280  137.6562  156.6807 H   0  0  0  0  0  0  0  0  0  0  0  0
  149.3962  141.1676  158.0001 H   0  0  0  0  0  0  0  0  0  0  0  0
  150.3604  140.5499  156.6724 H   0  0  0  0  0  0  0  0  0  0  0  0
  149.9831  143.1467  156.2967 H   0  0  0  0  0  0  0  0  0  0  0  0
  148.2726  143.5481  154.4172 H   0  0  0  0  0  0  0  0  0  0  0  0
  149.4559  139.4547  152.6498 H   0  0  0  0  0  0  0  0  0  0  0  0
  148.4039  130.5301  153.7788 H   0  0  0  0  0  0  0  0  0  0  0  0
  147.5655  128.3079  153.1087 H   0  0  0  0  0  0  0  0  0  0  0  0
  145.6631  128.1145  151.5175 H   0  0  0  0  0  0  0  0  0  0  0  0
  144.6071  130.1622  150.5933 H   0  0  0  0  0  0  0  0  0  0  0  0
  1  2  1  0  0  0  0
  1 33  1  0  0  0  0
  1 34  1  0  0  0  0
  1 35  1  0  0  0  0
  2  3  1  0  0  0  0
  2 22  1  0  0  0  0
  2 36  1  0  0  0  0
  3  4  1  0  0  0  0
  3 37  1  0  0  0  0
  4  9  1  0  0  0  0
  4  5  2  0  0  0  0
  5  6  1  0  0  0  0
  6  7  2  0  0  0  0
  6 38  1  0  0  0  0
  7  8  1  0  0  0  0
  8 12  1  0  0  0  0
  8  9  2  0  0  0  0
  9 10  1  0  0  0  0
 10 11  2  0  0  0  0
 11 12  1  0  0  0  0
 11 39  1  0  0  0  0
 12 13  1  0  0  0  0
 13 29  1  0  0  0  0
 13 20  1  0  0  0  0
 13 14  1  0  0  0  0
 14 15  1  0  0  0  0
 15 30  1  0  0  0  0
 15 16  1  0  0  0  0
 15 18  1  0  0  0  0
 16 17  1  0  0  0  0
 16 40  1  0  0  0  0
 16 41  1  0  0  0  0
 17 42  1  0  0  0  0
 18 31  1  0  0  0  0
 18 19  1  0  0  0  0
 18 20  1  0  0  0  0
 19 43  1  0  0  0  0
 20 32  1  0  0  0  0
 20 21  1  0  0  0  0
 21 44  1  0  0  0  0
 22 27  1  0  0  0  0
 22 23  2  0  0  0  0
 23 24  1  0  0  0  0
 23 45  1  0  0  0  0
 24 25  2  0  0  0  0
 24 46  1  0  0  0  0
 25 26  1  0  0  0  0
 25 47  1  0  0  0  0
 26 27  2  0  0  0  0
 26 48  1  0  0  0  0
 27 28  1  0  0  0  0
M  END
> <s_m_source_file>
AV-unprocessed.smi

> <i_m_source_file_index>
283

> <i_lp_mmshare_version>
43012

> <i_f3d_flags>
0

> <s_epik_input>
Q2xjMVtjSF1bY0hdW2NIXVtjSF1jMVtDQEhdKFtDSDNdKVtOSF1jKG5bY0hdbjIpYyhjMjMpbltjSF1uM1tDQEBIXTRPW0NASF0oW0NIMl1bT0hdKVtDQEBIXShbT0hdKVtDQEhdNFtPSF0=

> <s_epik_cmdline>
J2VwaWtfcHl0aG9uJywgJy1waCcsICc3LjAnLCAnLXRuJywgJzgnLCAnLW1hJywgJzIwMCcsICctbWV0YWxfYmluZGluZycsICctaW1hZScsICc8aW5maWxlLm1hZT4nLCAnLW9tYWUnLCAnPG91dGZpbGUubWFlPic=

> <r_lp_tautomer_probability>
1

> <r_epik_Ionization_Penalty>
0.000266407

> <r_epik_Ionization_Penalty_Charging>
0

> <r_epik_Ionization_Penalty_Neutral>
0.000266407

> <r_epik_State_Penalty>
-0

> <r_epik_Charging_Adjusted_Penalty>
0

> <i_epik_Tot_Q>
0

> <i_epik_Tot_abs_Q>
0

> <r_epik_Metal_State_Penalty>
-0

> <b_epik_Metal_Only>
0

> <s_epik_Chemistry_Notes>
This compound contains an acetal/aminal-like group ( X-CH(R)-Y where X, Y are N, S, or O) that may be acid/base labile, releasing an aldehyde.

> <s_lp_Force_Field>
OPLS_2005

> <r_lp_Energy>
48.6958

> <b_lp_Chiralities_Consistent>
1

> <s_lp_Variant>
AV-unprocessed.smi:283-15

> <Gold.Version>
5.8.1

> <Gold.Id.Protein>
6NUR|6NUR_protein|mol2

> <Gold.PLP.Fitness>
47.4546

> <Gold.PLP.PLP>
-37.5709

> <Gold.PLP.part.hbond>
-4.5089

> <Gold.PLP.part.metal>
0.0000

> <Gold.PLP.part.buried>
-2.3389

> <Gold.PLP.part.nonpolar>
-30.1144

> <Gold.PLP.part.repulsive>
0.4710

> <Gold.PLP.ligand.clash>
0.0000

> <Gold.PLP.ligand.torsion>
1.1216

> <Gold.PLP.Chemscore.Hbond>
3.0000

> <Gold.PLP.Chemscore.CHOScore>
1.0000

> <Gold.PLP.Chemscore.Metal>
0.0000

> <Gold.Chemscore.Hbonds>
donor molecule, donor type, donor heavy atom, donor atom, acceptor molecule, acceptor atom, score
      L1  H    17    42       P1  8028  1.00
      L1  H    19    43       P1  8028  1.00
      L1  H    21    44       P1  7957  1.00
      L1  C     6    38       P1 10171  1.00

> <Gold.PLP.Chemscore.Internal.Correction>
0.1270

> <Gold.Rescore>
     Score         DG    S(hbond)    S(metal)    S(lipo)     H(rot)  DE(clash)    DE(int)     intcor
     13.57     -14.87       2.83        0.00      88.99       4.10       0.05       1.25       ----

> <Gold.Chemscore.Fitness>
13.5703

> <Gold.Chemscore.DG>
-14.8675

> <Gold.Chemscore.ZeroCoef>
-5.4800

> <Gold.Chemscore.Hbond>
2.8333

> <Gold.Chemscore.Metal>
0.0000

> <Gold.Chemscore.Lipo>
88.9938

> <Gold.Chemscore.Internal_Hbond>
0.0000

> <Gold.Chemscore.DEClash>
0.0486

> <Gold.Chemscore.DEInternal>
1.2487

> <Gold.Chemscore.Rot>
4.0968

> <Gold.Chemscore.Internal.Correction>
   9.000000E+99

> <Gold.Chemscore.Hbonds>
donor molecule, donor type, donor heavy atom, donor atom, acceptor molecule, acceptor atom, score
      L1  H    17    42       P1  8028  0.93
      L1  H    19    43       P1  8028  0.94
      L1  H    21    44       P1  7957  0.96

> <Gold.Chemscore.Hbond.Weighted>
-9.4632

> <Gold.Chemscore.Metal.Weighted>
-0.0000

> <Gold.Chemscore.Lipo.Weighted>
-10.4123

> <Gold.Chemscore.Internal_Hbond.Weighted>
0.0000

> <Gold.Chemscore.DEClash.Weighted>
0.0486

> <Gold.Chemscore.DEInternal.Weighted>
1.2487

> <Gold.Chemscore.Rot.Weighted>
10.4879

> <Gold.Chemscore.Internal.Correction.Weighted>
   9.000000E+99

> <Gold.Protein.RotatedTorsions>
[ 6907 6896 6895 6894 ] final -179.50 input  -60.11 | X-H torsion
[ 7974 7965 7964 7962 ] final   73.30 input  175.53 | X-H torsion
[ 8008 7997 7996 7995 ] final  121.31 input   59.86 | X-H torsion
[ 10167 10162 10161 10158 ] final   55.84 input  -65.29 | X-H torsion
[ 10718 10713 10712 10709 ] final    6.56 input   66.30 | X-H torsion
[ 10763 10752 10751 10750 ] final   20.46 input  -60.55 | X-H torsion
[ 11005 11000 10999 10996 ] final -143.74 input  -57.11 | X-H torsion

> <Gold.Protein.ActiveResidues>
 VAL166  LYS551  ARG553  GLY616  TRP617  ASP618  TYR619  PRO620  LYS621  CYS622 
 ASP623  PHE694  ASN695  SER759  ASP760  ASP761  ALA762  ILE779  LEU786  VAL792 
 PHE793  MET794  SER795  GLU796  ALA797  LYS798  CYS799  TRP800  GLU811  SER814 

> <Gold.Protein.RotatedAtoms>
  151.6544  133.3319  159.3159 H   0  0  0  0  0  0  0  0  0  0  0  0  # atno 6907 bound_to 6896
  150.7944  134.6997  159.6552 H   0  0  0  0  0  0  0  0  0  0  0  0  # atno 6908 bound_to 6896
  152.4029  134.6260  160.0114 H   0  0  0  0  0  0  0  0  0  0  0  0  # atno 6909 bound_to 6896
  145.7425  139.2727  143.1478 H   0  0  0  0  0  0  0  0  0  0  0  0  # atno 7974 bound_to 7965
  156.2681  140.2811  156.1289 H   0  0  0  0  0  0  0  0  0  0  0  0  # atno 8008 bound_to 7997
  155.1076  140.0390  157.2732 H   0  0  0  0  0  0  0  0  0  0  0  0  # atno 8009 bound_to 7997
  154.6767  140.2600  155.6956 H   0  0  0  0  0  0  0  0  0  0  0  0  # atno 8010 bound_to 7997
  140.2151  144.3848  150.6473 H   0  0  0  0  0  0  0  0  0  0  0  0  # atno 10167 bound_to 10162
  156.9240  130.5801  149.5648 H   0  0  0  0  0  0  0  0  0  0  0  0  # atno 10718 bound_to 10713
  153.1075  135.6688  153.9559 H   0  0  0  0  0  0  0  0  0  0  0  0  # atno 10763 bound_to 10752
  153.9112  135.3025  155.3450 H   0  0  0  0  0  0  0  0  0  0  0  0  # atno 10764 bound_to 10752
  154.7496  135.5041  153.9342 H   0  0  0  0  0  0  0  0  0  0  0  0  # atno 10765 bound_to 10752
  140.8094  134.2762  157.4947 H   0  0  0  0  0  0  0  0  0  0  0  0  # atno 11005 bound_to 11000
  146.0434  140.8142  142.9817 LP  0  0  0  0  0  0  0  0  0  0  0  0  # atno 17320 bound_to 7965
  144.6867  140.2944  143.7273 LP  0  0  0  0  0  0  0  0  0  0  0  0  # atno 17321 bound_to 7965
  140.6295  143.2185  151.6525 LP  0  0  0  0  0  0  0  0  0  0  0  0  # atno 17342 bound_to 10162
  139.5165  144.3345  152.0797 LP  0  0  0  0  0  0  0  0  0  0  0  0  # atno 17343 bound_to 10162
  156.0478  130.5552  150.8920 LP  0  0  0  0  0  0  0  0  0  0  0  0  # atno 17370 bound_to 10713
  157.5890  131.0945  150.9150 LP  0  0  0  0  0  0  0  0  0  0  0  0  # atno 17371 bound_to 10713
  139.8715  134.9474  156.3968 LP  0  0  0  0  0  0  0  0  0  0  0  0  # atno 17394 bound_to 11000
  140.9213  133.7643  155.9910 LP  0  0  0  0  0  0  0  0  0  0  0  0  # atno 17395 bound_to 11000

$$$$
