AV-unprocessed.smi:3068|AV-procd|sdf|11699|dock10
  -GOLD-   2272017103D 1   1.00000     0.00000
 Structure written by MMmdl.
 40 42  0  0  0  0  0  0  0  0  2 V2000
  153.4845  139.0075  155.1139 N   0  0  0  0  0  0  0  0  0  0  0  0
  152.3426  139.0093  154.9261 C   0  0  0  0  0  0  0  0  0  0  0  0
  150.9047  139.0098  154.6894 C   0  0  0  0  0  0  0  0  0  0  0  0
  150.3605  140.1688  154.2520 N   0  0  0  0  0  0  0  0  0  0  0  0
  149.0297  140.1804  154.0251 C   0  0  0  0  0  0  0  0  0  0  0  0
  148.2359  139.0357  154.2334 C   0  0  0  0  0  0  0  0  0  0  0  0
  148.7699  137.8749  154.6700 N   0  0  0  0  0  0  0  0  0  0  0  0
  150.1063  137.8501  154.9013 C   0  0  0  0  0  0  0  0  0  0  0  0
  150.6754  136.6465  155.3539 N   0  0  0  0  0  0  0  0  0  0  0  0
  150.3919  135.3836  154.6872 C   0  0  0  0  0  0  0  0  0  0  0  0
  149.2262  134.6360  155.3643 C   0  0  1  0  0  0  0  0  0  0  0  0
  147.8487  135.2435  155.0385 C   0  0  0  0  0  0  0  0  0  0  0  0
  147.4567  134.9724  153.6352 N   0  3  2  0  0  0  0  0  0  0  0  0
  146.1470  135.5830  153.2918 C   0  0  0  0  0  0  0  0  0  0  0  0
  145.8023  135.3634  151.8103 C   0  0  0  0  0  0  0  0  0  0  0  0
  145.8190  133.8697  151.4631 C   0  0  0  0  0  0  0  0  0  0  0  0
  147.1726  133.2585  151.8481 C   0  0  0  0  0  0  0  0  0  0  0  0
  147.5055  133.5164  153.3316 C   0  0  1  0  0  0  0  0  0  0  0  0
  148.8903  132.9467  153.6939 C   0  0  0  0  0  0  0  0  0  0  0  0
  149.2121  133.2435  155.0485 O   0  0  0  0  0  0  0  0  0  0  0  0
  148.5972  141.1060  153.6752 H   0  0  0  0  0  0  0  0  0  0  0  0
  147.1720  139.0510  154.0488 H   0  0  0  0  0  0  0  0  0  0  0  0
  151.3779  136.6671  156.0799 H   0  0  0  0  0  0  0  0  0  0  0  0
  150.1304  135.5975  153.6501 H   0  0  0  0  0  0  0  0  0  0  0  0
  151.2898  134.7662  154.6597 H   0  0  0  0  0  0  0  0  0  0  0  0
  149.3719  134.7098  156.4428 H   0  0  0  0  0  0  0  0  0  0  0  0
  147.0969  134.8191  155.7056 H   0  0  0  0  0  0  0  0  0  0  0  0
  147.8604  136.3188  155.2211 H   0  0  0  0  0  0  0  0  0  0  0  0
  145.3671  135.1555  153.9244 H   0  0  0  0  0  0  0  0  0  0  0  0
  146.1762  136.6524  153.5038 H   0  0  0  0  0  0  0  0  0  0  0  0
  144.8219  135.7860  151.5891 H   0  0  0  0  0  0  0  0  0  0  0  0
  146.5187  135.8957  151.1829 H   0  0  0  0  0  0  0  0  0  0  0  0
  145.0165  133.3566  151.9946 H   0  0  0  0  0  0  0  0  0  0  0  0
  145.6301  133.7277  150.3985 H   0  0  0  0  0  0  0  0  0  0  0  0
  147.1612  132.1865  151.6479 H   0  0  0  0  0  0  0  0  0  0  0  0
  147.9536  133.6822  151.2149 H   0  0  0  0  0  0  0  0  0  0  0  0
  146.7566  133.0176  153.9499 H   0  0  0  0  0  0  0  0  0  0  0  0
  148.8899  131.8631  153.5734 H   0  0  0  0  0  0  0  0  0  0  0  0
  149.6625  133.3269  153.0249 H   0  0  0  0  0  0  0  0  0  0  0  0
  148.1482  135.4158  153.0473 H   0  0  0  0  0  0  0  0  0  0  0  0
  1  2  3  0  0  0  0
  2  3  1  0  0  0  0
  3  8  1  0  0  0  0
  3  4  2  0  0  0  0
  4  5  1  0  0  0  0
  5  6  2  0  0  0  0
  5 21  1  0  0  0  0
  6  7  1  0  0  0  0
  6 22  1  0  0  0  0
  7  8  2  0  0  0  0
  8  9  1  0  0  0  0
  9 10  1  0  0  0  0
  9 23  1  0  0  0  0
 10 11  1  0  0  0  0
 10 24  1  0  0  0  0
 10 25  1  0  0  0  0
 11 20  1  0  0  0  0
 11 12  1  0  0  0  0
 11 26  1  0  0  0  0
 12 13  1  0  0  0  0
 12 27  1  0  0  0  0
 12 28  1  0  0  0  0
 13 18  1  0  0  0  0
 13 14  1  0  0  0  0
 13 40  1  0  0  0  0
 14 15  1  0  0  0  0
 14 29  1  0  0  0  0
 14 30  1  0  0  0  0
 15 16  1  0  0  0  0
 15 31  1  0  0  0  0
 15 32  1  0  0  0  0
 16 17  1  0  0  0  0
 16 33  1  0  0  0  0
 16 34  1  0  0  0  0
 17 18  1  0  0  0  0
 17 35  1  0  0  0  0
 17 36  1  0  0  0  0
 18 19  1  0  0  0  0
 18 37  1  0  0  0  0
 19 20  1  0  0  0  0
 19 38  1  0  0  0  0
 19 39  1  0  0  0  0
M  CHG  1  13   1
M  END
> <s_m_source_file>
AV-unprocessed.smi

> <i_m_source_file_index>
3068

> <i_lp_mmshare_version>
43012

> <i_f3d_flags>
0

> <s_epik_input>
TiNDYzFuW2NIXVtjSF1uYzFbTkhdW0NIMl1bQ0BIXShbQ0gyXTIpT1tDSDJdW0NAQEhdKE4yMylbQ0gyXVtDSDJdW0NIMl1bQ0gyXTM=

> <s_epik_cmdline>
J2VwaWtfcHl0aG9uJywgJy1waCcsICc3LjAnLCAnLXRuJywgJzgnLCAnLW1hJywgJzIwMCcsICctbWV0YWxfYmluZGluZycsICctaW1hZScsICc8aW5maWxlLm1hZT4nLCAnLW9tYWUnLCAnPG91dGZpbGUubWFlPic=

> <r_epik_Ionization_Penalty>
0.0804321

> <r_epik_Ionization_Penalty_Charging>
0.0803403

> <r_epik_Ionization_Penalty_Neutral>
9.17277e-05

> <r_epik_State_Penalty>
0.0711481

> <r_epik_Charging_Adjusted_Penalty>
0.151488

> <i_epik_Tot_Q>
1

> <i_epik_Tot_abs_Q>
1

> <r_epik_Metal_State_Penalty>
0.0711481

> <b_epik_Metal_Only>
0

> <s_lp_Force_Field>
OPLS_2005

> <r_lp_Energy>
40.024

> <b_lp_Chiralities_Consistent>
1

> <s_lp_Variant>
AV-unprocessed.smi:3068-2

> <Gold.Version>
5.8.1

> <Gold.Id.Protein>
6NUR|6NUR_protein|mol2

> <Gold.PLP.Fitness>
42.3879

> <Gold.PLP.PLP>
-31.8956

> <Gold.PLP.part.hbond>
-3.0000

> <Gold.PLP.part.metal>
0.0000

> <Gold.PLP.part.buried>
-3.4513

> <Gold.PLP.part.nonpolar>
-26.0299

> <Gold.PLP.part.repulsive>
0.3786

> <Gold.PLP.ligand.clash>
0.0000

> <Gold.PLP.ligand.torsion>
0.7570

> <Gold.PLP.Chemscore.Hbond>
4.0000

> <Gold.PLP.Chemscore.CHOScore>
0.0000

> <Gold.PLP.Chemscore.Metal>
0.0000

> <Gold.Chemscore.Hbonds>
donor molecule, donor type, donor heavy atom, donor atom, acceptor molecule, acceptor atom, score
      L1  H    13    40       P1  7948  2.00
      P1  H  7989  7998       L1     4  1.00
      P1  H  7997  8008       L1     1  1.00

> <Gold.PLP.Chemscore.Internal.Correction>
0.0063

> <Gold.Rescore>
     Score         DG    S(hbond)    S(metal)    S(lipo)     H(rot)  DE(clash)    DE(int)     intcor
     15.45     -17.76       2.55        0.00      61.08       1.32       0.31       2.00       ----

> <Gold.Chemscore.Fitness>
15.4534

> <Gold.Chemscore.DG>
-17.7623

> <Gold.Chemscore.ZeroCoef>
-5.4800

> <Gold.Chemscore.Hbond>
2.5490

> <Gold.Chemscore.Metal>
0.0000

> <Gold.Chemscore.Lipo>
61.0782

> <Gold.Chemscore.Internal_Hbond>
0.0000

> <Gold.Chemscore.DEClash>
0.3063

> <Gold.Chemscore.DEInternal>
2.0027

> <Gold.Chemscore.Rot>
1.3193

> <Gold.Chemscore.Internal.Correction>
   9.000000E+99

> <Gold.Chemscore.Hbonds>
donor molecule, donor type, donor heavy atom, donor atom, acceptor molecule, acceptor atom, score
      L1  H    13    40       P1  7948  0.99
      P1  H  7989  7998       L1     4  0.34
      P1  H  7997  8008       L1     1  0.96

> <Gold.Chemscore.Hbond.Weighted>
-8.5136

> <Gold.Chemscore.Metal.Weighted>
-0.0000

> <Gold.Chemscore.Lipo.Weighted>
-7.1462

> <Gold.Chemscore.Internal_Hbond.Weighted>
0.0000

> <Gold.Chemscore.DEClash.Weighted>
0.3063

> <Gold.Chemscore.DEInternal.Weighted>
2.0027

> <Gold.Chemscore.Rot.Weighted>
3.3774

> <Gold.Chemscore.Internal.Correction.Weighted>
   9.000000E+99

> <Gold.Protein.RotatedTorsions>
[ 6907 6896 6895 6894 ] final  -81.60 input  -60.11 | X-H torsion
[ 7974 7965 7964 7962 ] final -101.42 input  175.53 | X-H torsion
[ 8008 7997 7996 7995 ] final  -23.62 input   59.86 | X-H torsion
[ 10167 10162 10161 10158 ] final -111.38 input  -65.29 | X-H torsion
[ 10718 10713 10712 10709 ] final -110.21 input   66.30 | X-H torsion
[ 10763 10752 10751 10750 ] final    5.22 input  -60.55 | X-H torsion
[ 11005 11000 10999 10996 ] final  112.94 input  -57.11 | X-H torsion

> <Gold.Protein.ActiveResidues>
 VAL166  LYS551  ARG553  GLY616  TRP617  ASP618  TYR619  PRO620  LYS621  CYS622 
 ASP623  PHE694  ASN695  SER759  ASP760  ASP761  ALA762  ILE779  LEU786  VAL792 
 PHE793  MET794  SER795  GLU796  ALA797  LYS798  CYS799  TRP800  GLU811  SER814 

> <Gold.Protein.RotatedAtoms>
  150.6909  134.3793  159.5026 H   0  0  0  0  0  0  0  0  0  0  0  0  # atno 6907 bound_to 6896
  152.1597  134.8919  160.0551 H   0  0  0  0  0  0  0  0  0  0  0  0  # atno 6908 bound_to 6896
  151.9985  133.3782  159.4209 H   0  0  0  0  0  0  0  0  0  0  0  0  # atno 6909 bound_to 6896
  145.2819  140.9329  143.2927 H   0  0  0  0  0  0  0  0  0  0  0  0  # atno 7974 bound_to 7965
  154.4575  140.1975  156.0339 H   0  0  0  0  0  0  0  0  0  0  0  0  # atno 8008 bound_to 7997
  156.0774  140.3276  155.7623 H   0  0  0  0  0  0  0  0  0  0  0  0  # atno 8009 bound_to 7997
  155.5166  140.0566  157.2905 H   0  0  0  0  0  0  0  0  0  0  0  0  # atno 8010 bound_to 7997
  140.1342  143.4334  152.1606 H   0  0  0  0  0  0  0  0  0  0  0  0  # atno 10167 bound_to 10162
  156.0578  130.5804  150.8206 H   0  0  0  0  0  0  0  0  0  0  0  0  # atno 10718 bound_to 10713
  153.2620  135.6924  153.7569 H   0  0  0  0  0  0  0  0  0  0  0  0  # atno 10763 bound_to 10752
  153.6624  135.3358  155.3132 H   0  0  0  0  0  0  0  0  0  0  0  0  # atno 10764 bound_to 10752
  154.8433  135.4480  154.1613 H   0  0  0  0  0  0  0  0  0  0  0  0  # atno 10765 bound_to 10752
  139.8940  134.9540  156.6662 H   0  0  0  0  0  0  0  0  0  0  0  0  # atno 11005 bound_to 11000
  144.9246  139.4370  143.6524 LP  0  0  0  0  0  0  0  0  0  0  0  0  # atno 17320 bound_to 7965
  146.3213  139.8125  142.8943 LP  0  0  0  0  0  0  0  0  0  0  0  0  # atno 17321 bound_to 7965
  139.5504  144.7333  151.4453 LP  0  0  0  0  0  0  0  0  0  0  0  0  # atno 17342 bound_to 10162
  140.6799  143.8106  150.7107 LP  0  0  0  0  0  0  0  0  0  0  0  0  # atno 17343 bound_to 10162
  157.5563  131.0945  150.9623 LP  0  0  0  0  0  0  0  0  0  0  0  0  # atno 17370 bound_to 10713
  156.9871  130.5549  149.5300 LP  0  0  0  0  0  0  0  0  0  0  0  0  # atno 17371 bound_to 10713
  140.7408  133.8979  155.8277 LP  0  0  0  0  0  0  0  0  0  0  0  0  # atno 17394 bound_to 11000
  141.0079  134.1061  157.4252 LP  0  0  0  0  0  0  0  0  0  0  0  0  # atno 17395 bound_to 11000

$$$$
