AV-unprocessed.smi:3028|AV-procd|sdf|11520|dock8
  -GOLD-   2272016463D 1   1.00000     0.00000
 Structure written by MMmdl.
 48 49  0  0  0  0  0  0  0  0  2 V2000
  151.8909  141.1898  158.0611 C   0  0  0  0  0  0  0  0  0  0  0  0
  151.1290  140.8559  156.8110 C   0  0  0  0  0  0  0  0  0  0  0  0
  150.5467  141.7570  155.8752 C   0  0  0  0  0  0  0  0  0  0  0  0
  149.9415  141.1384  154.8748 N   0  0  0  0  0  0  0  0  0  0  0  0
  150.1148  139.8230  155.1331 N   0  0  0  0  0  0  0  0  0  0  0  0
  149.5676  138.8188  154.2295 C   0  0  1  0  0  0  0  0  0  0  0  0
  150.0051  137.4114  154.6807 C   0  0  0  0  0  0  0  0  0  0  0  0
  148.0280  138.9397  154.0736 C   0  0  1  0  0  0  0  0  0  0  0  0
  147.5983  140.1999  153.2935 C   0  0  0  0  0  0  0  0  0  0  0  0
  147.4982  137.7280  153.4082 N   0  3  0  0  0  0  0  0  0  0  0  0
  146.1160  137.8385  152.8934 C   0  0  0  0  0  0  0  0  0  0  0  0
  145.5917  136.4999  152.3551 C   0  0  0  0  0  0  0  0  0  0  0  0
  144.4572  136.1223  152.6440 O   0  0  0  0  0  0  0  0  0  0  0  0
  146.3841  135.7524  151.5684 N   0  0  0  0  0  0  0  0  0  0  0  0
  146.0775  134.4596  150.9590 C   0  0  0  0  0  0  0  0  0  0  0  0
  144.6398  134.4749  150.4176 C   0  0  0  0  0  0  0  0  0  0  0  0
  144.2353  133.0827  149.9060 C   0  0  0  0  0  0  0  0  0  0  0  0
  144.3833  132.1220  150.9458 O   0  0  0  0  0  0  0  0  0  0  0  0
  145.7278  131.9914  151.3941 C   0  0  0  0  0  0  0  0  0  0  0  0
  146.2177  133.3231  151.9865 C   0  0  0  0  0  0  0  0  0  0  0  0
  150.8269  139.6263  156.2983 C   0  0  0  0  0  0  0  0  0  0  0  0
  151.7017  142.2118  158.3900 H   0  0  0  0  0  0  0  0  0  0  0  0
  152.9667  141.0938  157.9130 H   0  0  0  0  0  0  0  0  0  0  0  0
  151.6196  140.5322  158.8871 H   0  0  0  0  0  0  0  0  0  0  0  0
  150.5461  142.8369  155.8942 H   0  0  0  0  0  0  0  0  0  0  0  0
  150.0176  139.0048  153.2528 H   0  0  0  0  0  0  0  0  0  0  0  0
  149.7197  136.6495  153.9553 H   0  0  0  0  0  0  0  0  0  0  0  0
  149.5587  137.1398  155.6381 H   0  0  0  0  0  0  0  0  0  0  0  0
  151.0882  137.3580  154.7949 H   0  0  0  0  0  0  0  0  0  0  0  0
  147.5951  138.9951  155.0741 H   0  0  0  0  0  0  0  0  0  0  0  0
  147.9122  141.1149  153.7956 H   0  0  0  0  0  0  0  0  0  0  0  0
  146.5154  140.2608  153.1888 H   0  0  0  0  0  0  0  0  0  0  0  0
  148.0281  140.2086  152.2913 H   0  0  0  0  0  0  0  0  0  0  0  0
  148.1162  137.4681  152.6528 H   0  0  0  0  0  0  0  0  0  0  0  0
  145.4679  138.1771  153.7024 H   0  0  0  0  0  0  0  0  0  0  0  0
  146.0767  138.5835  152.0997 H   0  0  0  0  0  0  0  0  0  0  0  0
  147.3027  136.1228  151.3696 H   0  0  0  0  0  0  0  0  0  0  0  0
  146.7457  134.2665  150.1191 H   0  0  0  0  0  0  0  0  0  0  0  0
  143.9485  134.7788  151.2052 H   0  0  0  0  0  0  0  0  0  0  0  0
  144.5433  135.2090  149.6169 H   0  0  0  0  0  0  0  0  0  0  0  0
  143.1951  133.0916  149.5801 H   0  0  0  0  0  0  0  0  0  0  0  0
  144.8365  132.7958  149.0418 H   0  0  0  0  0  0  0  0  0  0  0  0
  145.7716  131.2071  152.1500 H   0  0  0  0  0  0  0  0  0  0  0  0
  146.3677  131.6737  150.5693 H   0  0  0  0  0  0  0  0  0  0  0  0
  147.2524  133.2232  152.3141 H   0  0  0  0  0  0  0  0  0  0  0  0
  145.6311  133.5539  152.8772 H   0  0  0  0  0  0  0  0  0  0  0  0
  151.0589  138.6367  156.6639 H   0  0  0  0  0  0  0  0  0  0  0  0
  147.4975  136.9796  154.0866 H   0  0  0  0  0  0  0  0  0  0  0  0
  1  2  1  0  0  0  0
  1 22  1  0  0  0  0
  1 23  1  0  0  0  0
  1 24  1  0  0  0  0
  2 21  2  0  0  0  0
  2  3  1  0  0  0  0
  3  4  2  0  0  0  0
  3 25  1  0  0  0  0
  4  5  1  0  0  0  0
  5  6  1  0  0  0  0
  5 21  1  0  0  0  0
  6  7  1  0  0  0  0
  6  8  1  0  0  0  0
  6 26  1  0  0  0  0
  7 27  1  0  0  0  0
  7 28  1  0  0  0  0
  7 29  1  0  0  0  0
  8  9  1  0  0  0  0
  8 10  1  0  0  0  0
  8 30  1  0  0  0  0
  9 31  1  0  0  0  0
  9 32  1  0  0  0  0
  9 33  1  0  0  0  0
 10 11  1  0  0  0  0
 10 34  1  0  0  0  0
 10 48  1  0  0  0  0
 11 12  1  0  0  0  0
 11 35  1  0  0  0  0
 11 36  1  0  0  0  0
 12 13  2  0  0  0  0
 12 14  1  0  0  0  0
 14 15  1  0  0  0  0
 14 37  1  0  0  0  0
 15 20  1  0  0  0  0
 15 16  1  0  0  0  0
 15 38  1  0  0  0  0
 16 17  1  0  0  0  0
 16 39  1  0  0  0  0
 16 40  1  0  0  0  0
 17 18  1  0  0  0  0
 17 41  1  0  0  0  0
 17 42  1  0  0  0  0
 18 19  1  0  0  0  0
 19 20  1  0  0  0  0
 19 43  1  0  0  0  0
 19 44  1  0  0  0  0
 20 45  1  0  0  0  0
 20 46  1  0  0  0  0
 21 47  1  0  0  0  0
M  CHG  1  10   1
M  END
> <s_m_source_file>
AV-unprocessed.smi

> <i_m_source_file_index>
3028

> <i_lp_mmshare_version>
43012

> <i_f3d_flags>
0

> <s_epik_input>
W0NIM11jMVtjSF1ubihbY0hdMSlbQ0BIXShbQ0gzXSlbQ0BIXShbQ0gzXSlbTkhdW0NIMl1DKD1PKVtOSF1bQ0hdMltDSDJdW0NIMl1PW0NIMl1bQ0gyXTI=

> <s_epik_cmdline>
J2VwaWtfcHl0aG9uJywgJy1waCcsICc3LjAnLCAnLXRuJywgJzgnLCAnLW1hJywgJzIwMCcsICctbWV0YWxfYmluZGluZycsICctaW1hZScsICc8aW5maWxlLm1hZT4nLCAnLW9tYWUnLCAnPG91dGZpbGUubWFlPic=

> <r_lp_tautomer_probability>
1

> <r_epik_Ionization_Penalty>
0.151514

> <r_epik_Ionization_Penalty_Charging>
0.151494

> <r_epik_Ionization_Penalty_Neutral>
1.95502e-05

> <r_epik_State_Penalty>
0.141395

> <r_epik_Charging_Adjusted_Penalty>
0.292889

> <i_epik_Tot_Q>
1

> <i_epik_Tot_abs_Q>
1

> <r_epik_Metal_State_Penalty>
0.141632

> <b_epik_Metal_Only>
0

> <s_lp_Force_Field>
OPLS_2005

> <r_lp_Energy>
16.118

> <b_lp_Chiralities_Consistent>
1

> <s_lp_Variant>
AV-unprocessed.smi:3028-4

> <Gold.Version>
5.8.1

> <Gold.Id.Protein>
6NUR|6NUR_protein|mol2

> <Gold.PLP.Fitness>
45.4547

> <Gold.PLP.PLP>
-34.4239

> <Gold.PLP.part.hbond>
-3.0000

> <Gold.PLP.part.metal>
0.0000

> <Gold.PLP.part.buried>
-3.8071

> <Gold.PLP.part.nonpolar>
-28.9779

> <Gold.PLP.part.repulsive>
0.4917

> <Gold.PLP.ligand.clash>
0.0000

> <Gold.PLP.ligand.torsion>
0.8148

> <Gold.PLP.Chemscore.Hbond>
3.1522

> <Gold.PLP.Chemscore.CHOScore>
0.9991

> <Gold.PLP.Chemscore.Metal>
0.0000

> <Gold.Chemscore.Hbonds>
donor molecule, donor type, donor heavy atom, donor atom, acceptor molecule, acceptor atom, score
      L1  H    10    34       P1  7948  1.95
      L1  H    14    37       P1  7948  0.96
      P1  H  7989  7998       L1     4  0.12
      L1  C     3    25       P1  8028  1.00

> <Gold.PLP.Chemscore.Internal.Correction>
0.2065

> <Gold.Rescore>
     Score         DG    S(hbond)    S(metal)    S(lipo)     H(rot)  DE(clash)    DE(int)     intcor
     14.70     -17.14       1.96        0.00      87.33       1.99       0.23       2.22       ----

> <Gold.Chemscore.Fitness>
14.6951

> <Gold.Chemscore.DG>
-17.1435

> <Gold.Chemscore.ZeroCoef>
-5.4800

> <Gold.Chemscore.Hbond>
1.9580

> <Gold.Chemscore.Metal>
0.0000

> <Gold.Chemscore.Lipo>
87.3287

> <Gold.Chemscore.Internal_Hbond>
0.0000

> <Gold.Chemscore.DEClash>
0.2274

> <Gold.Chemscore.DEInternal>
2.2209

> <Gold.Chemscore.Rot>
1.9897

> <Gold.Chemscore.Internal.Correction>
   9.000000E+99

> <Gold.Chemscore.Hbonds>
donor molecule, donor type, donor heavy atom, donor atom, acceptor molecule, acceptor atom, score
      L1  H    10    34       P1  7948  0.93
      L1  H    14    37       P1  7948  0.92

> <Gold.Chemscore.Hbond.Weighted>
-6.5396

> <Gold.Chemscore.Metal.Weighted>
-0.0000

> <Gold.Chemscore.Lipo.Weighted>
-10.2175

> <Gold.Chemscore.Internal_Hbond.Weighted>
0.0000

> <Gold.Chemscore.DEClash.Weighted>
0.2274

> <Gold.Chemscore.DEInternal.Weighted>
2.2209

> <Gold.Chemscore.Rot.Weighted>
5.0936

> <Gold.Chemscore.Internal.Correction.Weighted>
   9.000000E+99

> <Gold.Protein.RotatedTorsions>
[ 6907 6896 6895 6894 ] final  -72.27 input  -60.11 | X-H torsion
[ 7974 7965 7964 7962 ] final  134.95 input  175.53 | X-H torsion
[ 8008 7997 7996 7995 ] final  162.43 input   59.86 | X-H torsion
[ 10167 10162 10161 10158 ] final  139.81 input  -65.29 | X-H torsion
[ 10718 10713 10712 10709 ] final  155.53 input   66.30 | X-H torsion
[ 10763 10752 10751 10750 ] final -164.82 input  -60.55 | X-H torsion
[ 11005 11000 10999 10996 ] final   35.33 input  -57.11 | X-H torsion

> <Gold.Protein.ActiveResidues>
 VAL166  LYS551  ARG553  GLY616  TRP617  ASP618  TYR619  PRO620  LYS621  CYS622 
 ASP623  PHE694  ASN695  SER759  ASP760  ASP761  ALA762  ILE779  LEU786  VAL792 
 PHE793  MET794  SER795  GLU796  ALA797  LYS798  CYS799  TRP800  GLU811  SER814 

> <Gold.Protein.RotatedAtoms>
  150.7177  134.5188  159.5642 H   0  0  0  0  0  0  0  0  0  0  0  0  # atno 6907 bound_to 6896
  152.2748  134.7891  160.0417 H   0  0  0  0  0  0  0  0  0  0  0  0  # atno 6908 bound_to 6896
  151.8558  133.3413  159.3724 H   0  0  0  0  0  0  0  0  0  0  0  0  # atno 6909 bound_to 6896
  144.9712  139.4604  143.5432 H   0  0  0  0  0  0  0  0  0  0  0  0  # atno 7974 bound_to 7965
  156.2032  140.1750  156.7856 H   0  0  0  0  0  0  0  0  0  0  0  0  # atno 8008 bound_to 7997
  154.5619  140.0698  156.8863 H   0  0  0  0  0  0  0  0  0  0  0  0  # atno 8009 bound_to 7997
  155.2832  140.3350  155.4259 H   0  0  0  0  0  0  0  0  0  0  0  0  # atno 8010 bound_to 7997
  139.5067  144.6272  151.5908 H   0  0  0  0  0  0  0  0  0  0  0  0  # atno 10167 bound_to 10162
  157.2170  131.0710  151.1935 H   0  0  0  0  0  0  0  0  0  0  0  0  # atno 10718 bound_to 10713
  154.6991  135.2984  154.9367 H   0  0  0  0  0  0  0  0  0  0  0  0  # atno 10763 bound_to 10752
  154.0305  135.6671  153.4784 H   0  0  0  0  0  0  0  0  0  0  0  0  # atno 10764 bound_to 10752
  153.0668  135.5083  154.8126 H   0  0  0  0  0  0  0  0  0  0  0  0  # atno 10765 bound_to 10752
  140.2438  134.3384  155.7915 H   0  0  0  0  0  0  0  0  0  0  0  0  # atno 11005 bound_to 11000
  146.3382  139.8925  142.8807 LP  0  0  0  0  0  0  0  0  0  0  0  0  # atno 17320 bound_to 7965
  145.2556  141.0059  143.3856 LP  0  0  0  0  0  0  0  0  0  0  0  0  # atno 17321 bound_to 7965
  140.5993  143.9639  150.6375 LP  0  0  0  0  0  0  0  0  0  0  0  0  # atno 17342 bound_to 10162
  140.2845  143.3366  152.1120 LP  0  0  0  0  0  0  0  0  0  0  0  0  # atno 17343 bound_to 10162
  157.3614  130.7133  149.6504 LP  0  0  0  0  0  0  0  0  0  0  0  0  # atno 17370 bound_to 10713
  155.9685  130.4224  150.4516 LP  0  0  0  0  0  0  0  0  0  0  0  0  # atno 17371 bound_to 10713
  141.2208  133.7314  156.8928 LP  0  0  0  0  0  0  0  0  0  0  0  0  # atno 17394 bound_to 11000
  140.1627  134.9155  157.2734 LP  0  0  0  0  0  0  0  0  0  0  0  0  # atno 17395 bound_to 11000

$$$$
