AV-unprocessed.smi:3013|AV-procd|sdf|11464|dock5
  -GOLD-   2272016403D 1   1.00000     0.00000
 Structure written by MMmdl.
 45 46  0  0  0  0  0  0  0  0  2 V2000
  148.6537  130.7018  155.3113 C   0  0  0  0  0  0  0  0  0  0  0  0
  149.0020  130.8301  153.8129 C   0  0  2  0  0  0  0  0  0  0  0  0
  149.2778  132.2890  153.3877 C   0  0  0  0  0  0  0  0  0  0  0  0
  149.3124  133.2839  154.5639 C   0  0  0  0  0  0  0  0  0  0  0  0
  149.6317  134.6362  154.1192 N   0  0  0  0  0  0  0  0  0  0  0  0
  150.6094  135.3996  154.6292 C   0  0  0  0  0  0  0  0  0  0  0  0
  151.3636  135.0228  155.5267 O   0  0  0  0  0  0  0  0  0  0  0  0
  150.6492  136.6063  154.0386 N   0  0  0  0  0  0  0  0  0  0  0  0
  151.5477  137.6747  154.3046 C   0  0  0  0  0  0  0  0  0  0  0  0
  152.8640  137.5703  154.4588 N   0  0  0  0  0  0  0  0  0  0  0  0
  153.1727  138.8826  154.6787 C   0  0  0  0  0  0  0  0  0  0  0  0
  152.1475  139.7348  154.6631 N   0  0  0  0  0  0  0  0  0  0  0  0
  151.0907  138.9254  154.4168 N   0  0  0  0  0  0  0  0  0  0  0  0
  149.7474  139.4626  154.3165 C   0  0  0  0  0  0  0  0  0  0  0  0
  147.9789  130.2066  152.9224 N   0  3  0  0  0  0  0  0  0  0  0  0
  146.6711  130.9164  152.8614 C   0  0  0  0  0  0  0  0  0  0  0  0
  145.7843  130.3347  151.7480 C   0  0  0  0  0  0  0  0  0  0  0  0
  145.5778  128.8265  151.9434 C   0  0  0  0  0  0  0  0  0  0  0  0
  146.9359  128.1192  152.0430 C   0  0  0  0  0  0  0  0  0  0  0  0
  147.8057  128.7459  153.1463 C   0  0  0  0  0  0  0  0  0  0  0  0
  149.4858  131.0224  155.9376 H   0  0  0  0  0  0  0  0  0  0  0  0
  148.4336  129.6710  155.5882 H   0  0  0  0  0  0  0  0  0  0  0  0
  147.7922  131.3125  155.5819 H   0  0  0  0  0  0  0  0  0  0  0  0
  149.9313  130.2836  153.6455 H   0  0  0  0  0  0  0  0  0  0  0  0
  150.2393  132.3236  152.8734 H   0  0  0  0  0  0  0  0  0  0  0  0
  148.5346  132.6196  152.6616 H   0  0  0  0  0  0  0  0  0  0  0  0
  148.3427  133.3213  155.0595 H   0  0  0  0  0  0  0  0  0  0  0  0
  150.0342  132.9636  155.3171 H   0  0  0  0  0  0  0  0  0  0  0  0
  149.0577  135.0222  153.3838 H   0  0  0  0  0  0  0  0  0  0  0  0
  149.9598  136.7849  153.3233 H   0  0  0  0  0  0  0  0  0  0  0  0
  154.1834  139.2203  154.8539 H   0  0  0  0  0  0  0  0  0  0  0  0
  149.0840  138.9227  154.9925 H   0  0  0  0  0  0  0  0  0  0  0  0
  149.3844  139.3510  153.2947 H   0  0  0  0  0  0  0  0  0  0  0  0
  149.7367  140.5203  154.5829 H   0  0  0  0  0  0  0  0  0  0  0  0
  146.1546  130.8319  153.8185 H   0  0  0  0  0  0  0  0  0  0  0  0
  146.8224  131.9790  152.6743 H   0  0  0  0  0  0  0  0  0  0  0  0
  144.8201  130.8436  151.7352 H   0  0  0  0  0  0  0  0  0  0  0  0
  146.2454  130.5202  150.7770 H   0  0  0  0  0  0  0  0  0  0  0  0
  145.0012  128.6477  152.8519 H   0  0  0  0  0  0  0  0  0  0  0  0
  144.9968  128.4146  151.1178 H   0  0  0  0  0  0  0  0  0  0  0  0
  146.7890  127.0572  152.2412 H   0  0  0  0  0  0  0  0  0  0  0  0
  147.4545  128.1861  151.0855 H   0  0  0  0  0  0  0  0  0  0  0  0
  148.7779  128.2518  153.1542 H   0  0  0  0  0  0  0  0  0  0  0  0
  147.3516  128.5693  154.1219 H   0  0  0  0  0  0  0  0  0  0  0  0
  148.3700  130.2790  151.9938 H   0  0  0  0  0  0  0  0  0  0  0  0
  1  2  1  0  0  0  0
  1 21  1  0  0  0  0
  1 22  1  0  0  0  0
  1 23  1  0  0  0  0
  2  3  1  0  0  0  0
  2 15  1  0  0  0  0
  2 24  1  0  0  0  0
  3  4  1  0  0  0  0
  3 25  1  0  0  0  0
  3 26  1  0  0  0  0
  4  5  1  0  0  0  0
  4 27  1  0  0  0  0
  4 28  1  0  0  0  0
  5  6  1  0  0  0  0
  5 29  1  0  0  0  0
  6  7  2  0  0  0  0
  6  8  1  0  0  0  0
  8  9  1  0  0  0  0
  8 30  1  0  0  0  0
  9 13  1  0  0  0  0
  9 10  2  0  0  0  0
 10 11  1  0  0  0  0
 11 12  2  0  0  0  0
 11 31  1  0  0  0  0
 12 13  1  0  0  0  0
 13 14  1  0  0  0  0
 14 32  1  0  0  0  0
 14 33  1  0  0  0  0
 14 34  1  0  0  0  0
 15 20  1  0  0  0  0
 15 16  1  0  0  0  0
 15 45  1  0  0  0  0
 16 17  1  0  0  0  0
 16 35  1  0  0  0  0
 16 36  1  0  0  0  0
 17 18  1  0  0  0  0
 17 37  1  0  0  0  0
 17 38  1  0  0  0  0
 18 19  1  0  0  0  0
 18 39  1  0  0  0  0
 18 40  1  0  0  0  0
 19 20  1  0  0  0  0
 19 41  1  0  0  0  0
 19 42  1  0  0  0  0
 20 43  1  0  0  0  0
 20 44  1  0  0  0  0
M  CHG  1  15   1
M  END
> <s_m_source_file>
AV-unprocessed.smi

> <i_m_source_file_index>
3013

> <i_lp_mmshare_version>
43012

> <i_f3d_flags>
0

> <s_epik_input>
W0NIMl0xW0NIMl1bQ0gyXVtDSDJdW0NIMl1OMVtDQEhdKFtDSDNdKVtDSDJdW0NIMl1bTkhdQyg9TylbTkhdYzJuW2NIXW5uMltDSDNd

> <s_epik_cmdline>
J2VwaWtfcHl0aG9uJywgJy1waCcsICc3LjAnLCAnLXRuJywgJzgnLCAnLW1hJywgJzIwMCcsICctbWV0YWxfYmluZGluZycsICctaW1hZScsICc8aW5maWxlLm1hZT4nLCAnLW9tYWUnLCAnPG91dGZpbGUubWFlPic=

> <r_lp_tautomer_probability>
1

> <r_epik_Ionization_Penalty>
0.000375855

> <r_epik_Ionization_Penalty_Charging>
0.000355659

> <r_epik_Ionization_Penalty_Neutral>
2.01955e-05

> <r_epik_State_Penalty>
0.000216264

> <r_epik_Charging_Adjusted_Penalty>
0.000571923

> <i_epik_Tot_Q>
1

> <i_epik_Tot_abs_Q>
1

> <r_epik_Metal_State_Penalty>
-0

> <b_epik_Metal_Only>
0

> <s_lp_Force_Field>
OPLS_2005

> <r_lp_Energy>
21.7492

> <b_lp_Chiralities_Consistent>
1

> <s_lp_Variant>
AV-unprocessed.smi:3013-1

> <Gold.Version>
5.8.1

> <Gold.Id.Protein>
6NUR|6NUR_protein|mol2

> <Gold.PLP.Fitness>
53.4033

> <Gold.PLP.PLP>
-41.4187

> <Gold.PLP.part.hbond>
-7.0000

> <Gold.PLP.part.metal>
0.0000

> <Gold.PLP.part.buried>
-2.7226

> <Gold.PLP.part.nonpolar>
-31.0183

> <Gold.PLP.part.repulsive>
0.3069

> <Gold.PLP.ligand.clash>
0.0000

> <Gold.PLP.ligand.torsion>
1.1327

> <Gold.PLP.Chemscore.Hbond>
4.6955

> <Gold.PLP.Chemscore.CHOScore>
0.0000

> <Gold.PLP.Chemscore.Metal>
0.0000

> <Gold.Chemscore.Hbonds>
donor molecule, donor type, donor heavy atom, donor atom, acceptor molecule, acceptor atom, score
      L1  H     5    29       P1  7948  0.91
      L1  H     8    30       P1  7948  0.89
      L1  H    15    45       P1 10747  1.00
      P1  H  7989  7998       L1    12  0.52
      P1  H 10752 10763       L1     7  0.90

> <Gold.PLP.Chemscore.Internal.Correction>
0.1637

> <Gold.Rescore>
     Score         DG    S(hbond)    S(metal)    S(lipo)     H(rot)  DE(clash)    DE(int)     intcor
     17.37     -19.02       3.20        0.00      68.51       2.01       0.56       1.09       ----

> <Gold.Chemscore.Fitness>
17.3726

> <Gold.Chemscore.DG>
-19.0208

> <Gold.Chemscore.ZeroCoef>
-5.4800

> <Gold.Chemscore.Hbond>
3.1986

> <Gold.Chemscore.Metal>
0.0000

> <Gold.Chemscore.Lipo>
68.5086

> <Gold.Chemscore.Internal_Hbond>
0.0000

> <Gold.Chemscore.DEClash>
0.5594

> <Gold.Chemscore.DEInternal>
1.0889

> <Gold.Chemscore.Rot>
2.0148

> <Gold.Chemscore.Internal.Correction>
   9.000000E+99

> <Gold.Chemscore.Hbonds>
donor molecule, donor type, donor heavy atom, donor atom, acceptor molecule, acceptor atom, score
      L1  H     5    29       P1  7948  0.23
      L1  H     8    30       P1  7948  0.17
      L1  H    15    45       P1 10747  0.85
      P1  H  7989  7998       L1    12  0.04
      P1  H 10752 10763       L1     7  0.23

> <Gold.Chemscore.Hbond.Weighted>
-10.6832

> <Gold.Chemscore.Metal.Weighted>
-0.0000

> <Gold.Chemscore.Lipo.Weighted>
-8.0155

> <Gold.Chemscore.Internal_Hbond.Weighted>
0.0000

> <Gold.Chemscore.DEClash.Weighted>
0.5594

> <Gold.Chemscore.DEInternal.Weighted>
1.0889

> <Gold.Chemscore.Rot.Weighted>
5.1579

> <Gold.Chemscore.Internal.Correction.Weighted>
   9.000000E+99

> <Gold.Protein.RotatedTorsions>
[ 6907 6896 6895 6894 ] final   48.27 input  -60.11 | X-H torsion
[ 7974 7965 7964 7962 ] final -113.94 input  175.53 | X-H torsion
[ 8008 7997 7996 7995 ] final -173.77 input   59.86 | X-H torsion
[ 10167 10162 10161 10158 ] final  171.51 input  -65.29 | X-H torsion
[ 10718 10713 10712 10709 ] final   14.23 input   66.30 | X-H torsion
[ 10763 10752 10751 10750 ] final   72.28 input  -60.55 | X-H torsion
[ 11005 11000 10999 10996 ] final   95.15 input  -57.11 | X-H torsion

> <Gold.Protein.ActiveResidues>
 VAL166  LYS551  ARG553  GLY616  TRP617  ASP618  TYR619  PRO620  LYS621  CYS622 
 ASP623  PHE694  ASN695  SER759  ASP760  ASP761  ALA762  ILE779  LEU786  VAL792 
 PHE793  MET794  SER795  GLU796  ALA797  LYS798  CYS799  TRP800  GLU811  SER814 

> <Gold.Protein.RotatedAtoms>
  152.2776  134.7864  160.0402 H   0  0  0  0  0  0  0  0  0  0  0  0  # atno 6907 bound_to 6896
  151.8455  133.3425  159.3664 H   0  0  0  0  0  0  0  0  0  0  0  0  # atno 6908 bound_to 6896
  150.7176  134.5278  159.5729 H   0  0  0  0  0  0  0  0  0  0  0  0  # atno 6909 bound_to 6896
  145.1260  140.8697  143.3786 H   0  0  0  0  0  0  0  0  0  0  0  0  # atno 7974 bound_to 7965
  155.9617  140.1146  157.0890 H   0  0  0  0  0  0  0  0  0  0  0  0  # atno 8008 bound_to 7997
  154.4133  140.1180  156.5255 H   0  0  0  0  0  0  0  0  0  0  0  0  # atno 8009 bound_to 7997
  155.6712  140.3473  155.4821 H   0  0  0  0  0  0  0  0  0  0  0  0  # atno 8010 bound_to 7997
  139.5049  144.3478  151.9954 H   0  0  0  0  0  0  0  0  0  0  0  0  # atno 10167 bound_to 10162
  157.0361  130.6212  149.5743 H   0  0  0  0  0  0  0  0  0  0  0  0  # atno 10718 bound_to 10713
  153.0449  135.5105  154.7721 H   0  0  0  0  0  0  0  0  0  0  0  0  # atno 10763 bound_to 10752
  154.6628  135.2941  154.9846 H   0  0  0  0  0  0  0  0  0  0  0  0  # atno 10764 bound_to 10752
  154.0691  135.6680  153.4874 H   0  0  0  0  0  0  0  0  0  0  0  0  # atno 10765 bound_to 10752
  139.8792  134.8883  156.3968 H   0  0  0  0  0  0  0  0  0  0  0  0  # atno 11005 bound_to 11000
  145.0687  139.3048  143.5843 LP  0  0  0  0  0  0  0  0  0  0  0  0  # atno 17320 bound_to 7965
  146.3517  140.0154  142.8663 LP  0  0  0  0  0  0  0  0  0  0  0  0  # atno 17321 bound_to 7965
  140.2915  144.3749  150.6087 LP  0  0  0  0  0  0  0  0  0  0  0  0  # atno 17342 bound_to 10162
  140.5943  143.2167  151.7194 LP  0  0  0  0  0  0  0  0  0  0  0  0  # atno 17343 bound_to 10162
  156.0053  130.5139  150.7808 LP  0  0  0  0  0  0  0  0  0  0  0  0  # atno 17370 bound_to 10713
  157.5140  131.0927  151.0162 LP  0  0  0  0  0  0  0  0  0  0  0  0  # atno 17371 bound_to 10713
  140.9294  133.7589  156.0006 LP  0  0  0  0  0  0  0  0  0  0  0  0  # atno 17394 bound_to 11000
  140.8347  134.3136  157.5336 LP  0  0  0  0  0  0  0  0  0  0  0  0  # atno 17395 bound_to 11000

$$$$
