AV-unprocessed.smi:1163|AV-procd|sdf|4922|dock4
  -GOLD-   22720 3503D 1   1.00000     0.00000
 Structure written by MMmdl.
 40 41  0  0  0  0  0  0  0  0  2 V2000
  151.9452  138.7638  154.6315 C   0  0  0  0  0  0  0  0  0  0  0  0
  151.1356  139.9231  154.4678 O   0  0  0  0  0  0  0  0  0  0  0  0
  149.7766  139.7542  154.2990 C   0  0  0  0  0  0  0  0  0  0  0  0
  148.9881  140.8840  154.0034 C   0  0  0  0  0  0  0  0  0  0  0  0
  147.6012  140.7198  153.8253 C   0  0  0  0  0  0  0  0  0  0  0  0
  147.0456  139.4236  153.9419 C   0  0  0  0  0  0  0  0  0  0  0  0
  145.6621  139.1324  153.8012 N   0  0  0  0  0  0  0  0  0  0  0  0
  144.9770  138.0866  154.2943 C   0  0  0  0  0  0  0  0  0  0  0  0
  145.4514  137.1845  154.9841 O   0  0  0  0  0  0  0  0  0  0  0  0
  143.6804  138.1519  153.9609 N   0  0  0  0  0  0  0  0  0  0  0  0
  142.6710  137.1738  154.3534 C   0  0  2  0  0  0  0  0  0  0  0  0
  142.6001  135.9626  153.4246 C   0  0  0  0  0  0  0  0  0  0  0  0
  141.1377  135.4925  153.5139 C   0  0  0  0  0  0  0  0  0  0  0  0
  140.3950  136.5290  154.2723 N   0  3  2  0  0  0  0  0  0  0  0  0
  139.0046  136.7790  153.8212 C   0  0  0  0  0  0  0  0  0  0  0  0
  138.1639  137.5277  154.8702 C   0  0  0  0  0  0  0  0  0  0  0  0
  138.3451  136.9574  156.0604 F   0  0  0  0  0  0  0  0  0  0  0  0
  138.5274  138.8069  154.9558 F   0  0  0  0  0  0  0  0  0  0  0  0
  136.8706  137.4584  154.5548 F   0  0  0  0  0  0  0  0  0  0  0  0
  141.2489  137.7297  154.2831 C   0  0  0  0  0  0  0  0  0  0  0  0
  147.9182  138.3619  154.2580 C   0  0  0  0  0  0  0  0  0  0  0  0
  149.2487  138.5119  154.4276 N   0  0  0  0  0  0  0  0  0  0  0  0
  152.9858  139.0647  154.7523 H   0  0  0  0  0  0  0  0  0  0  0  0
  151.8891  138.1117  153.7586 H   0  0  0  0  0  0  0  0  0  0  0  0
  151.6595  138.1983  155.5197 H   0  0  0  0  0  0  0  0  0  0  0  0
  149.4388  141.8617  153.9178 H   0  0  0  0  0  0  0  0  0  0  0  0
  146.9944  141.5876  153.6180 H   0  0  0  0  0  0  0  0  0  0  0  0
  145.1192  139.8363  153.3226 H   0  0  0  0  0  0  0  0  0  0  0  0
  143.3714  138.9282  153.3938 H   0  0  0  0  0  0  0  0  0  0  0  0
  142.8730  136.8256  155.3686 H   0  0  0  0  0  0  0  0  0  0  0  0
  142.8246  136.2556  152.3977 H   0  0  0  0  0  0  0  0  0  0  0  0
  143.3077  135.1826  153.7080 H   0  0  0  0  0  0  0  0  0  0  0  0
  140.7285  135.3593  152.5112 H   0  0  0  0  0  0  0  0  0  0  0  0
  141.0574  134.5380  154.0350 H   0  0  0  0  0  0  0  0  0  0  0  0
  139.0471  137.3882  152.9172 H   0  0  0  0  0  0  0  0  0  0  0  0
  138.5250  135.8407  153.5390 H   0  0  0  0  0  0  0  0  0  0  0  0
  141.0090  138.3808  155.1247 H   0  0  0  0  0  0  0  0  0  0  0  0
  141.1036  138.2956  153.3606 H   0  0  0  0  0  0  0  0  0  0  0  0
  147.5399  137.3564  154.3722 H   0  0  0  0  0  0  0  0  0  0  0  0
  140.3500  136.2119  155.2305 H   0  0  0  0  0  0  0  0  0  0  0  0
  1  2  1  0  0  0  0
  1 23  1  0  0  0  0
  1 24  1  0  0  0  0
  1 25  1  0  0  0  0
  2  3  1  0  0  0  0
  3 22  1  0  0  0  0
  3  4  2  0  0  0  0
  4  5  1  0  0  0  0
  4 26  1  0  0  0  0
  5  6  2  0  0  0  0
  5 27  1  0  0  0  0
  6  7  1  0  0  0  0
  6 21  1  0  0  0  0
  7  8  1  0  0  0  0
  7 28  1  0  0  0  0
  8  9  2  0  0  0  0
  8 10  1  0  0  0  0
 10 11  1  0  0  0  0
 10 29  1  0  0  0  0
 11 20  1  0  0  0  0
 11 12  1  0  0  0  0
 11 30  1  0  0  0  0
 12 13  1  0  0  0  0
 12 31  1  0  0  0  0
 12 32  1  0  0  0  0
 13 14  1  0  0  0  0
 13 33  1  0  0  0  0
 13 34  1  0  0  0  0
 14 15  1  0  0  0  0
 14 20  1  0  0  0  0
 14 40  1  0  0  0  0
 15 16  1  0  0  0  0
 15 35  1  0  0  0  0
 15 36  1  0  0  0  0
 16 17  1  0  0  0  0
 16 18  1  0  0  0  0
 16 19  1  0  0  0  0
 20 37  1  0  0  0  0
 20 38  1  0  0  0  0
 21 22  2  0  0  0  0
 21 39  1  0  0  0  0
M  CHG  1  14   1
M  END
> <s_m_source_file>
AV-unprocessed.smi

> <i_m_source_file_index>
1163

> <i_lp_mmshare_version>
43012

> <i_f3d_flags>
0

> <s_epik_input>
W0NIM11PYzFbY0hdW2NIXWMoW2NIXW4xKVtOSF1DKD1PKVtOSF1bQ0BASF0yW0NIMl1bQ0gyXU4oW0NIMl0yKVtDSDJdQyhGKShGKUY=

> <s_epik_cmdline>
J2VwaWtfcHl0aG9uJywgJy1waCcsICc3LjAnLCAnLXRuJywgJzgnLCAnLW1hJywgJzIwMCcsICctbWV0YWxfYmluZGluZycsICctaW1hZScsICc8aW5maWxlLm1hZT4nLCAnLW9tYWUnLCAnPG91dGZpbGUubWFlPic=

> <r_lp_tautomer_probability>
1

> <r_epik_Ionization_Penalty>
1.12054

> <r_epik_Ionization_Penalty_Charging>
1.12047

> <r_epik_Ionization_Penalty_Neutral>
7.20346e-05

> <r_epik_State_Penalty>
1.17927

> <r_epik_Charging_Adjusted_Penalty>
2.29974

> <i_epik_Tot_Q>
1

> <i_epik_Tot_abs_Q>
1

> <r_epik_Metal_State_Penalty>
1.17928

> <b_epik_Metal_Only>
0

> <s_lp_Force_Field>
OPLS_2005

> <r_lp_Energy>
30.0061

> <b_lp_Chiralities_Consistent>
1

> <s_lp_Variant>
AV-unprocessed.smi:1163-3

> <Gold.Version>
5.8.1

> <Gold.Id.Protein>
6NUR|6NUR_protein|mol2

> <Gold.PLP.Fitness>
43.7514

> <Gold.PLP.PLP>
-35.6664

> <Gold.PLP.part.hbond>
-3.0000

> <Gold.PLP.part.metal>
0.0000

> <Gold.PLP.part.buried>
-6.5693

> <Gold.PLP.part.nonpolar>
-27.2289

> <Gold.PLP.part.repulsive>
0.3276

> <Gold.PLP.ligand.clash>
0.0000

> <Gold.PLP.ligand.torsion>
0.7189

> <Gold.PLP.Chemscore.Hbond>
3.0000

> <Gold.PLP.Chemscore.CHOScore>
0.0000

> <Gold.PLP.Chemscore.Metal>
0.0000

> <Gold.Chemscore.Hbonds>
donor molecule, donor type, donor heavy atom, donor atom, acceptor molecule, acceptor atom, score
      L1  H     7    28       P1 10175  1.00
      L1  H    10    29       P1 10175  1.00
      P1  H  7989  7998       L1     2  0.78

> <Gold.PLP.Chemscore.Internal.Correction>
0.5228

> <Gold.Rescore>
     Score         DG    S(hbond)    S(metal)    S(lipo)     H(rot)  DE(clash)    DE(int)     intcor
     15.46     -17.76       2.71        0.00      64.36       1.68       0.19       2.10       ----

> <Gold.Chemscore.Fitness>
15.4645

> <Gold.Chemscore.DG>
-17.7567

> <Gold.Chemscore.ZeroCoef>
-5.4800

> <Gold.Chemscore.Hbond>
2.7073

> <Gold.Chemscore.Metal>
0.0000

> <Gold.Chemscore.Lipo>
64.3555

> <Gold.Chemscore.Internal_Hbond>
0.0000

> <Gold.Chemscore.DEClash>
0.1898

> <Gold.Chemscore.DEInternal>
2.1024

> <Gold.Chemscore.Rot>
1.6778

> <Gold.Chemscore.Internal.Correction>
   9.000000E+99

> <Gold.Chemscore.Hbonds>
donor molecule, donor type, donor heavy atom, donor atom, acceptor molecule, acceptor atom, score
      L1  H     7    28       P1 10175  0.98
      L1  H    10    29       P1 10175  0.98
      P1  H  7989  7998       L1     2  0.50

> <Gold.Chemscore.Hbond.Weighted>
-9.0422

> <Gold.Chemscore.Metal.Weighted>
-0.0000

> <Gold.Chemscore.Lipo.Weighted>
-7.5296

> <Gold.Chemscore.Internal_Hbond.Weighted>
0.0000

> <Gold.Chemscore.DEClash.Weighted>
0.1898

> <Gold.Chemscore.DEInternal.Weighted>
2.1024

> <Gold.Chemscore.Rot.Weighted>
4.2951

> <Gold.Chemscore.Internal.Correction.Weighted>
   9.000000E+99

> <Gold.Protein.RotatedTorsions>
[ 6907 6896 6895 6894 ] final -157.09 input  -60.11 | X-H torsion
[ 7974 7965 7964 7962 ] final  -22.61 input  175.53 | X-H torsion
[ 8008 7997 7996 7995 ] final  153.44 input   59.86 | X-H torsion
[ 10167 10162 10161 10158 ] final   -9.04 input  -65.29 | X-H torsion
[ 10718 10713 10712 10709 ] final  158.03 input   66.30 | X-H torsion
[ 10763 10752 10751 10750 ] final -124.54 input  -60.55 | X-H torsion
[ 11005 11000 10999 10996 ] final   24.01 input  -57.11 | X-H torsion

> <Gold.Protein.ActiveResidues>
 VAL166  LYS551  ARG553  GLY616  TRP617  ASP618  TYR619  PRO620  LYS621  CYS622 
 ASP623  PHE694  ASN695  SER759  ASP760  ASP761  ALA762  ILE779  LEU786  VAL792 
 PHE793  MET794  SER795  GLU796  ALA797  LYS798  CYS799  TRP800  GLU811  SER814 

> <Gold.Protein.RotatedAtoms>
  151.2976  133.4137  159.2637 H   0  0  0  0  0  0  0  0  0  0  0  0  # atno 6907 bound_to 6896
  151.0223  134.9479  159.8076 H   0  0  0  0  0  0  0  0  0  0  0  0  # atno 6908 bound_to 6896
  152.5327  134.2939  159.9106 H   0  0  0  0  0  0  0  0  0  0  0  0  # atno 6909 bound_to 6896
  146.1665  140.4502  142.8550 H   0  0  0  0  0  0  0  0  0  0  0  0  # atno 7974 bound_to 7965
  156.2581  140.1993  156.6490 H   0  0  0  0  0  0  0  0  0  0  0  0  # atno 8008 bound_to 7997
  154.6551  140.0567  157.0024 H   0  0  0  0  0  0  0  0  0  0  0  0  # atno 8009 bound_to 7997
  155.1360  140.3238  155.4466 H   0  0  0  0  0  0  0  0  0  0  0  0  # atno 8010 bound_to 7997
  140.7076  143.5901  150.8902 H   0  0  0  0  0  0  0  0  0  0  0  0  # atno 10167 bound_to 10162
  157.1835  131.0638  151.2119 H   0  0  0  0  0  0  0  0  0  0  0  0  # atno 10718 bound_to 10713
  154.8724  135.4060  154.3122 H   0  0  0  0  0  0  0  0  0  0  0  0  # atno 10763 bound_to 10752
  153.3964  135.7016  153.6463 H   0  0  0  0  0  0  0  0  0  0  0  0  # atno 10764 bound_to 10752
  153.5224  135.3684  155.2609 H   0  0  0  0  0  0  0  0  0  0  0  0  # atno 10765 bound_to 10752
  140.3634  134.2101  155.7671 H   0  0  0  0  0  0  0  0  0  0  0  0  # atno 11005 bound_to 11000
  144.8101  140.6369  143.6421 LP  0  0  0  0  0  0  0  0  0  0  0  0  # atno 17320 bound_to 7965
  145.4452  139.1530  143.3948 LP  0  0  0  0  0  0  0  0  0  0  0  0  # atno 17321 bound_to 7965
  139.9627  143.6146  152.2997 LP  0  0  0  0  0  0  0  0  0  0  0  0  # atno 17342 bound_to 10162
  139.6704  144.7661  151.1794 LP  0  0  0  0  0  0  0  0  0  0  0  0  # atno 17343 bound_to 10162
  157.3930  130.7292  149.6711 LP  0  0  0  0  0  0  0  0  0  0  0  0  # atno 17370 bound_to 10713
  155.9721  130.4141  150.4117 LP  0  0  0  0  0  0  0  0  0  0  0  0  # atno 17371 bound_to 10713
  141.1977  133.8052  157.0615 LP  0  0  0  0  0  0  0  0  0  0  0  0  # atno 17394 bound_to 11000
  140.0609  134.9755  157.1302 LP  0  0  0  0  0  0  0  0  0  0  0  0  # atno 17395 bound_to 11000

$$$$
