AV-unprocessed.smi:48|AV-procd|sdf|454|dock5
  -GOLD-   2262016323D 1   1.00000     0.00000
 Structure written by MMmdl.
 30 32  0  0  0  0  0  0  0  0  1 V2000
  145.2351  138.6659  152.6067 O   0  0  0  0  0  0  0  0  0  0  0  0
  146.5745  138.6278  153.0505 C   0  0  0  0  0  0  0  0  0  0  0  0
  147.1246  140.0577  153.1965 C   0  0  2  0  0  0  0  0  0  0  0  0
  148.4267  140.0475  153.7629 O   0  0  0  0  0  0  0  0  0  0  0  0
  148.7132  141.3154  154.2606 C   0  0  2  0  0  0  0  0  0  0  0  0
  149.5446  141.1560  155.4910 N   0  0  0  0  0  0  0  0  0  0  0  0
  149.3185  141.7008  156.7036 C   0  0  0  0  0  0  0  0  0  0  0  0
  150.1884  141.4229  157.6738 N   0  0  0  0  0  0  0  0  0  0  0  0
  151.0868  140.6022  157.0120 C   0  0  0  0  0  0  0  0  0  0  0  0
  152.2657  139.9379  157.4292 C   0  0  0  0  0  0  0  0  0  0  0  0
  152.8344  140.0735  159.0528 Cl  0  0  0  0  0  0  0  0  0  0  0  0
  152.9406  139.1904  156.5236 N   0  0  0  0  0  0  0  0  0  0  0  0
  152.4771  139.1030  155.2707 C   0  0  0  0  0  0  0  0  0  0  0  0
  151.3892  139.6687  154.7361 N   0  0  0  0  0  0  0  0  0  0  0  0
  150.7088  140.4212  155.6507 C   0  0  0  0  0  0  0  0  0  0  0  0
  147.3782  142.0088  154.5838 C   0  0  1  0  0  0  0  0  0  0  0  0
  147.2257  143.1907  153.8240 O   0  0  0  0  0  0  0  0  0  0  0  0
  146.3392  140.9812  154.1406 C   0  0  2  0  0  0  0  0  0  0  0  0
  145.8332  140.2779  155.2598 O   0  0  0  0  0  0  0  0  0  0  0  0
  147.1794  140.5416  152.2190 H   0  0  0  0  0  0  0  0  0  0  0  0
  149.3407  141.8701  153.5609 H   0  0  0  0  0  0  0  0  0  0  0  0
  147.3013  142.2531  155.6450 H   0  0  0  0  0  0  0  0  0  0  0  0
  145.4887  141.4365  153.6308 H   0  0  0  0  0  0  0  0  0  0  0  0
  144.9354  139.5617  152.6310 H   0  0  0  0  0  0  0  0  0  0  0  0
  146.5816  138.1215  154.0161 H   0  0  0  0  0  0  0  0  0  0  0  0
  147.1835  138.0361  152.3660 H   0  0  0  0  0  0  0  0  0  0  0  0
  148.4637  142.3356  156.8858 H   0  0  0  0  0  0  0  0  0  0  0  0
  153.0618  138.4923  154.5989 H   0  0  0  0  0  0  0  0  0  0  0  0
  147.7290  143.8771  154.2347 H   0  0  0  0  0  0  0  0  0  0  0  0
  145.2579  139.5946  154.9514 H   0  0  0  0  0  0  0  0  0  0  0  0
  1  2  1  0  0  0  0
  1 24  1  0  0  0  0
  2  3  1  0  0  0  0
  2 25  1  0  0  0  0
  2 26  1  0  0  0  0
  3 20  1  0  0  0  0
  3 18  1  0  0  0  0
  3  4  1  0  0  0  0
  4  5  1  0  0  0  0
  5 21  1  0  0  0  0
  5  6  1  0  0  0  0
  5 16  1  0  0  0  0
  6 15  1  0  0  0  0
  6  7  1  0  0  0  0
  7  8  2  0  0  0  0
  7 27  1  0  0  0  0
  8  9  1  0  0  0  0
  9 15  2  0  0  0  0
  9 10  1  0  0  0  0
 10 11  1  0  0  0  0
 10 12  2  0  0  0  0
 12 13  1  0  0  0  0
 13 14  2  0  0  0  0
 13 28  1  0  0  0  0
 14 15  1  0  0  0  0
 16 22  1  0  0  0  0
 16 17  1  0  0  0  0
 16 18  1  0  0  0  0
 17 29  1  0  0  0  0
 18 23  1  0  0  0  0
 18 19  1  0  0  0  0
 19 30  1  0  0  0  0
M  END
> <s_m_source_file>
AV-unprocessed.smi

> <i_m_source_file_index>
48

> <i_lp_mmshare_version>
43012

> <i_f3d_flags>
0

> <s_epik_input>
W09IXVtDSDJdW0NASF0xT1tDQEhdKFtDQEhdKFtPSF0pW0NAQEhdMVtPSF0pbihbY0hdbjIpYyhjMjMpbltjSF1uYzNDbA==

> <s_epik_cmdline>
J2VwaWtfcHl0aG9uJywgJy1waCcsICc3LjAnLCAnLXRuJywgJzgnLCAnLW1hJywgJzIwMCcsICctbWV0YWxfYmluZGluZycsICctaW1hZScsICc8aW5maWxlLm1hZT4nLCAnLW9tYWUnLCAnPG91dGZpbGUubWFlPic=

> <r_lp_tautomer_probability>
1

> <r_epik_Ionization_Penalty>
3.45505e-06

> <r_epik_Ionization_Penalty_Charging>
0

> <r_epik_Ionization_Penalty_Neutral>
3.45505e-06

> <r_epik_State_Penalty>
-0

> <r_epik_Charging_Adjusted_Penalty>
0

> <i_epik_Tot_Q>
0

> <i_epik_Tot_abs_Q>
0

> <r_epik_Metal_State_Penalty>
-0

> <b_epik_Metal_Only>
0

> <s_epik_Chemistry_Notes>
This compound contains an acetal/aminal-like group ( X-CH(R)-Y where X, Y are N, S, or O) that may be acid/base labile, releasing an aldehyde.

> <s_lp_Force_Field>
OPLS_2005

> <r_lp_Energy>
33.2989

> <b_lp_Chiralities_Consistent>
1

> <s_lp_Variant>
AV-unprocessed.smi:48-8

> <Gold.Version>
5.8.1

> <Gold.Id.Protein>
6NUR|6NUR_protein|mol2

> <Gold.PLP.Fitness>
42.7458

> <Gold.PLP.PLP>
-30.4372

> <Gold.PLP.part.hbond>
-5.6341

> <Gold.PLP.part.metal>
0.0000

> <Gold.PLP.part.buried>
-0.4702

> <Gold.PLP.part.nonpolar>
-25.1766

> <Gold.PLP.part.repulsive>
1.9099

> <Gold.PLP.ligand.clash>
0.0000

> <Gold.PLP.ligand.torsion>
0.1678

> <Gold.PLP.Chemscore.Hbond>
3.8640

> <Gold.PLP.Chemscore.CHOScore>
0.3488

> <Gold.PLP.Chemscore.Metal>
0.0000

> <Gold.Chemscore.Hbonds>
donor molecule, donor type, donor heavy atom, donor atom, acceptor molecule, acceptor atom, score
      L1  H     1    24       P1 10175  0.86
      L1  H    17    29       P1  8028  1.00
      P1  H  7989  7998       L1    14  1.00
      P1  H  7997  8008       L1    12  0.90
      L1  C     7    27       P1  8028  0.33

> <Gold.PLP.Chemscore.Internal.Correction>
0.0056

> <Gold.Rescore>
     Score         DG    S(hbond)    S(metal)    S(lipo)     H(rot)  DE(clash)    DE(int)     intcor
      7.07      -7.51       2.13        0.00      39.71       3.80       0.33       0.11       ----

> <Gold.Chemscore.Fitness>
7.0658

> <Gold.Chemscore.DG>
-7.5082

> <Gold.Chemscore.ZeroCoef>
-5.4800

> <Gold.Chemscore.Hbond>
2.1300

> <Gold.Chemscore.Metal>
0.0000

> <Gold.Chemscore.Lipo>
39.7133

> <Gold.Chemscore.Internal_Hbond>
0.0000

> <Gold.Chemscore.DEClash>
0.3348

> <Gold.Chemscore.DEInternal>
0.1076

> <Gold.Chemscore.Rot>
3.8017

> <Gold.Chemscore.Internal.Correction>
   9.000000E+99

> <Gold.Chemscore.Hbonds>
donor molecule, donor type, donor heavy atom, donor atom, acceptor molecule, acceptor atom, score
      L1  H     1    24       P1 10175  0.81
      L1  H    17    29       P1  8028  0.25
      P1  H  7989  7998       L1    14  0.24
      P1  H  7997  8008       L1    12  0.11

> <Gold.Chemscore.Hbond.Weighted>
-7.1142

> <Gold.Chemscore.Metal.Weighted>
-0.0000

> <Gold.Chemscore.Lipo.Weighted>
-4.6465

> <Gold.Chemscore.Internal_Hbond.Weighted>
0.0000

> <Gold.Chemscore.DEClash.Weighted>
0.3348

> <Gold.Chemscore.DEInternal.Weighted>
0.1076

> <Gold.Chemscore.Rot.Weighted>
9.7324

> <Gold.Chemscore.Internal.Correction.Weighted>
   9.000000E+99

> <Gold.Protein.RotatedTorsions>
[ 6907 6896 6895 6894 ] final   53.62 input  -60.11 | X-H torsion
[ 7974 7965 7964 7962 ] final  -27.12 input  175.53 | X-H torsion
[ 8008 7997 7996 7995 ] final  -49.97 input   59.86 | X-H torsion
[ 10167 10162 10161 10158 ] final   95.31 input  -65.29 | X-H torsion
[ 10718 10713 10712 10709 ] final  -94.73 input   66.30 | X-H torsion
[ 10763 10752 10751 10750 ] final  167.17 input  -60.55 | X-H torsion
[ 11005 11000 10999 10996 ] final  -44.84 input  -57.11 | X-H torsion

> <Gold.Protein.ActiveResidues>
 VAL166  LYS551  ARG553  GLY616  TRP617  ASP618  TYR619  PRO620  LYS621  CYS622 
 ASP623  PHE694  ASN695  SER759  ASP760  ASP761  ALA762  ILE779  LEU786  VAL792 
 PHE793  MET794  SER795  GLU796  ALA797  LYS798  CYS799  TRP800  GLU811  SER814 

> <Gold.Protein.RotatedAtoms>
  152.3355  134.7203  160.0277 H   0  0  0  0  0  0  0  0  0  0  0  0  # atno 6907 bound_to 6896
  151.7606  133.3328  159.3424 H   0  0  0  0  0  0  0  0  0  0  0  0  # atno 6908 bound_to 6896
  150.7448  134.6042  159.6097 H   0  0  0  0  0  0  0  0  0  0  0  0  # atno 6909 bound_to 6896
  146.1379  140.5110  142.8665 H   0  0  0  0  0  0  0  0  0  0  0  0  # atno 7974 bound_to 7965
  154.4053  140.1284  156.4589 H   0  0  0  0  0  0  0  0  0  0  0  0  # atno 8008 bound_to 7997
  155.7292  140.3491  155.5032 H   0  0  0  0  0  0  0  0  0  0  0  0  # atno 8009 bound_to 7997
  155.9143  140.1041  157.1246 H   0  0  0  0  0  0  0  0  0  0  0  0  # atno 8010 bound_to 7997
  139.8000  144.6817  150.9777 H   0  0  0  0  0  0  0  0  0  0  0  0  # atno 10167 bound_to 10162
  156.0031  130.5080  150.5971 H   0  0  0  0  0  0  0  0  0  0  0  0  # atno 10718 bound_to 10713
  154.3498  135.2753  155.2378 H   0  0  0  0  0  0  0  0  0  0  0  0  # atno 10763 bound_to 10752
  154.4612  135.5906  153.6260 H   0  0  0  0  0  0  0  0  0  0  0  0  # atno 10764 bound_to 10752
  152.9851  135.6065  154.3708 H   0  0  0  0  0  0  0  0  0  0  0  0  # atno 10765 bound_to 10752
  141.0476  133.6755  156.2928 H   0  0  0  0  0  0  0  0  0  0  0  0  # atno 11005 bound_to 11000
  144.7760  140.5740  143.6638 LP  0  0  0  0  0  0  0  0  0  0  0  0  # atno 17320 bound_to 7965
  145.5114  139.1479  143.3603 LP  0  0  0  0  0  0  0  0  0  0  0  0  # atno 17321 bound_to 7965
  140.7820  143.4291  151.0722 LP  0  0  0  0  0  0  0  0  0  0  0  0  # atno 17342 bound_to 10162
  139.7964  143.8146  152.3158 LP  0  0  0  0  0  0  0  0  0  0  0  0  # atno 17343 bound_to 10162
  157.3826  131.0783  151.1464 LP  0  0  0  0  0  0  0  0  0  0  0  0  # atno 17370 bound_to 10713
  157.2181  130.6469  149.5800 LP  0  0  0  0  0  0  0  0  0  0  0  0  # atno 17371 bound_to 10713
  140.6116  134.5452  157.5534 LP  0  0  0  0  0  0  0  0  0  0  0  0  # atno 17394 bound_to 11000
  139.9324  134.7938  156.0893 LP  0  0  0  0  0  0  0  0  0  0  0  0  # atno 17395 bound_to 11000

$$$$
