AV-unprocessed.smi:713|AV-procd|sdf|3475|dock2
  -GOLD-   22720 0463D 1   1.00000     0.00000
 Structure written by MMmdl.
 41 42  0  0  0  0  0  0  0  0  1 V2000
  153.4204  141.2940  160.5402 C   0  0  0  0  0  0  0  0  0  0  0  0
  153.1554  142.0173  159.2040 C   0  0  1  0  0  0  0  0  0  0  0  0
  152.2344  141.2238  158.2602 C   0  0  0  0  0  0  0  0  0  0  0  0
  152.5991  140.1524  157.7739 O   0  0  0  0  0  0  0  0  0  0  0  0
  151.0343  141.7701  158.0037 N   0  0  0  0  0  0  0  0  0  0  0  0
  150.0047  141.1863  157.1504 C   0  0  2  0  0  0  0  0  0  0  0  0
  150.3954  141.3878  155.6744 C   0  0  0  0  0  0  0  0  0  0  0  0
  149.3026  140.8861  154.7174 C   0  0  0  0  0  0  0  0  0  0  0  0
  147.9516  141.5575  155.0143 C   0  0  0  0  0  0  0  0  0  0  0  0
  147.5097  141.3806  156.4805 C   0  0  1  0  0  0  0  0  0  0  0  0
  146.8959  139.6519  156.7991 S   0  0  0  0  0  0  0  0  0  0  0  0
  145.5049  139.4890  155.6047 C   0  0  0  0  0  0  0  0  0  0  0  0
  147.9562  138.7159  156.3957 O   0  0  0  0  0  0  0  0  0  0  0  0
  146.3336  139.5563  158.1541 O   0  0  0  0  0  0  0  0  0  0  0  0
  148.6291  141.8265  157.4478 C   0  0  0  0  0  0  0  0  0  0  0  0
  152.6435  143.3680  159.4119 N   0  0  0  0  0  0  0  0  0  0  0  0
  152.3393  143.9857  160.6083 C   0  0  0  0  0  0  0  0  0  0  0  0
  151.9253  145.2549  160.3217 C   0  0  0  0  0  0  0  0  0  0  0  0
  152.0184  145.3289  158.9044 C   0  0  0  0  0  0  0  0  0  0  0  0
  152.4547  144.2033  158.3636 N   0  0  0  0  0  0  0  0  0  0  0  0
  153.8753  140.3166  160.3764 H   0  0  0  0  0  0  0  0  0  0  0  0
  152.5033  141.1411  161.1107 H   0  0  0  0  0  0  0  0  0  0  0  0
  154.1044  141.8700  161.1641 H   0  0  0  0  0  0  0  0  0  0  0  0
  154.1154  142.1132  158.6943 H   0  0  0  0  0  0  0  0  0  0  0  0
  150.8138  142.6525  158.4420 H   0  0  0  0  0  0  0  0  0  0  0  0
  149.9713  140.1168  157.3537 H   0  0  0  0  0  0  0  0  0  0  0  0
  150.5766  142.4466  155.4826 H   0  0  0  0  0  0  0  0  0  0  0  0
  151.3327  140.8719  155.4626 H   0  0  0  0  0  0  0  0  0  0  0  0
  149.5951  141.0924  153.6876 H   0  0  0  0  0  0  0  0  0  0  0  0
  149.2119  139.8031  154.7928 H   0  0  0  0  0  0  0  0  0  0  0  0
  148.0338  142.6229  154.7955 H   0  0  0  0  0  0  0  0  0  0  0  0
  147.1866  141.1713  154.3403 H   0  0  0  0  0  0  0  0  0  0  0  0
  146.6451  142.0235  156.6475 H   0  0  0  0  0  0  0  0  0  0  0  0
  145.1528  138.4577  155.6043 H   0  0  0  0  0  0  0  0  0  0  0  0
  145.8468  139.7533  154.6044 H   0  0  0  0  0  0  0  0  0  0  0  0
  144.6826  140.1409  155.8973 H   0  0  0  0  0  0  0  0  0  0  0  0
  148.3356  141.6386  158.4792 H   0  0  0  0  0  0  0  0  0  0  0  0
  148.7300  142.9101  157.3698 H   0  0  0  0  0  0  0  0  0  0  0  0
  152.4425  143.4761  161.5549 H   0  0  0  0  0  0  0  0  0  0  0  0
  151.6072  146.0159  161.0188 H   0  0  0  0  0  0  0  0  0  0  0  0
  151.7876  146.1623  158.2574 H   0  0  0  0  0  0  0  0  0  0  0  0
  1  2  1  0  0  0  0
  1 21  1  0  0  0  0
  1 22  1  0  0  0  0
  1 23  1  0  0  0  0
  2  3  1  0  0  0  0
  2 16  1  0  0  0  0
  2 24  1  0  0  0  0
  3  4  2  0  0  0  0
  3  5  1  0  0  0  0
  5  6  1  0  0  0  0
  5 25  1  0  0  0  0
  6 15  1  0  0  0  0
  6  7  1  0  0  0  0
  6 26  1  0  0  0  0
  7  8  1  0  0  0  0
  7 27  1  0  0  0  0
  7 28  1  0  0  0  0
  8  9  1  0  0  0  0
  8 29  1  0  0  0  0
  8 30  1  0  0  0  0
  9 10  1  0  0  0  0
  9 31  1  0  0  0  0
  9 32  1  0  0  0  0
 10 11  1  0  0  0  0
 10 15  1  0  0  0  0
 10 33  1  0  0  0  0
 11 12  1  0  0  0  0
 11 13  2  0  0  0  0
 11 14  2  0  0  0  0
 12 34  1  0  0  0  0
 12 35  1  0  0  0  0
 12 36  1  0  0  0  0
 15 37  1  0  0  0  0
 15 38  1  0  0  0  0
 16 20  1  0  0  0  0
 16 17  1  0  0  0  0
 17 18  2  0  0  0  0
 17 39  1  0  0  0  0
 18 19  1  0  0  0  0
 18 40  1  0  0  0  0
 19 20  2  0  0  0  0
 19 41  1  0  0  0  0
M  END
> <s_m_source_file>
AV-unprocessed.smi

> <i_m_source_file_index>
713

> <i_lp_mmshare_version>
43012

> <i_f3d_flags>
0

> <s_epik_input>
bjFbY0hdW2NIXVtjSF1uMVtDQEhdKFtDSDNdKUMoPU8pW05IXVtDQEBIXTJbQ0gyXVtDSDJdW0NIMl1bQ0BIXShbQ0gyXTIpUyg9TykoPU8pW0NIM10=

> <s_epik_cmdline>
J2VwaWtfcHl0aG9uJywgJy1waCcsICc3LjAnLCAnLXRuJywgJzgnLCAnLW1hJywgJzIwMCcsICctbWV0YWxfYmluZGluZycsICctaW1hZScsICc8aW5maWxlLm1hZT4nLCAnLW9tYWUnLCAnPG91dGZpbGUubWFlPic=

> <r_lp_tautomer_probability>
1

> <r_epik_Ionization_Penalty>
4.07816e-05

> <r_epik_Ionization_Penalty_Charging>
0

> <r_epik_Ionization_Penalty_Neutral>
4.07816e-05

> <r_epik_State_Penalty>
-0

> <r_epik_Charging_Adjusted_Penalty>
0

> <i_epik_Tot_Q>
0

> <i_epik_Tot_abs_Q>
0

> <r_epik_Metal_State_Penalty>
-0

> <b_epik_Metal_Only>
0

> <s_lp_Force_Field>
OPLS_2005

> <r_lp_Energy>
4.9413

> <b_lp_Chiralities_Consistent>
1

> <s_lp_Variant>
AV-unprocessed.smi:713-2

> <Gold.Version>
5.8.1

> <Gold.Id.Protein>
6NUR|6NUR_protein|mol2

> <Gold.PLP.Fitness>
42.1343

> <Gold.PLP.PLP>
-39.9383

> <Gold.PLP.part.hbond>
-1.6368

> <Gold.PLP.part.metal>
0.0000

> <Gold.PLP.part.buried>
-6.3024

> <Gold.PLP.part.nonpolar>
-31.8313

> <Gold.PLP.part.repulsive>
0.0818

> <Gold.PLP.ligand.clash>
0.0000

> <Gold.PLP.ligand.torsion>
0.5348

> <Gold.PLP.Chemscore.Hbond>
0.9913

> <Gold.PLP.Chemscore.CHOScore>
0.0000

> <Gold.PLP.Chemscore.Metal>
0.0000

> <Gold.Chemscore.Hbonds>
donor molecule, donor type, donor heavy atom, donor atom, acceptor molecule, acceptor atom, score
      P1  H  7997  8009       L1     4  0.89

> <Gold.PLP.Chemscore.Internal.Correction>
0.2919

> <Gold.Rescore>
     Score         DG    S(hbond)    S(metal)    S(lipo)     H(rot)  DE(clash)    DE(int)     intcor
     12.73     -14.62       0.91        0.00      89.92       1.72       0.02       1.87       ----

> <Gold.Chemscore.Fitness>
12.7345

> <Gold.Chemscore.DG>
-14.6196

> <Gold.Chemscore.ZeroCoef>
-5.4800

> <Gold.Chemscore.Hbond>
0.9088

> <Gold.Chemscore.Metal>
0.0000

> <Gold.Chemscore.Lipo>
89.9153

> <Gold.Chemscore.Internal_Hbond>
0.0000

> <Gold.Chemscore.DEClash>
0.0165

> <Gold.Chemscore.DEInternal>
1.8686

> <Gold.Chemscore.Rot>
1.7249

> <Gold.Chemscore.Internal.Correction>
   9.000000E+99

> <Gold.Chemscore.Hbonds>
donor molecule, donor type, donor heavy atom, donor atom, acceptor molecule, acceptor atom, score
      P1  H  7997  8009       L1     4  0.79

> <Gold.Chemscore.Hbond.Weighted>
-3.0352

> <Gold.Chemscore.Metal.Weighted>
-0.0000

> <Gold.Chemscore.Lipo.Weighted>
-10.5201

> <Gold.Chemscore.Internal_Hbond.Weighted>
0.0000

> <Gold.Chemscore.DEClash.Weighted>
0.0165

> <Gold.Chemscore.DEInternal.Weighted>
1.8686

> <Gold.Chemscore.Rot.Weighted>
4.4157

> <Gold.Chemscore.Internal.Correction.Weighted>
   9.000000E+99

> <Gold.Protein.RotatedTorsions>
[ 6907 6896 6895 6894 ] final    7.46 input  -60.11 | X-H torsion
[ 7974 7965 7964 7962 ] final  143.90 input  175.53 | X-H torsion
[ 8008 7997 7996 7995 ] final  168.89 input   59.86 | X-H torsion
[ 10167 10162 10161 10158 ] final  138.43 input  -65.29 | X-H torsion
[ 10718 10713 10712 10709 ] final -131.77 input   66.30 | X-H torsion
[ 10763 10752 10751 10750 ] final  121.12 input  -60.55 | X-H torsion
[ 11005 11000 10999 10996 ] final  139.77 input  -57.11 | X-H torsion

> <Gold.Protein.ActiveResidues>
 VAL166  LYS551  ARG553  GLY616  TRP617  ASP618  TYR619  PRO620  LYS621  CYS622 
 ASP623  PHE694  ASN695  SER759  ASP760  ASP761  ALA762  ILE779  LEU786  VAL792 
 PHE793  MET794  SER795  GLU796  ALA797  LYS798  CYS799  TRP800  GLU811  SER814 

> <Gold.Protein.RotatedAtoms>
  151.6902  135.0947  160.0231 H   0  0  0  0  0  0  0  0  0  0  0  0  # atno 6907 bound_to 6896
  152.3783  133.6507  159.6149 H   0  0  0  0  0  0  0  0  0  0  0  0  # atno 6908 bound_to 6896
  150.7726  133.9073  159.3400 H   0  0  0  0  0  0  0  0  0  0  0  0  # atno 6909 bound_to 6896
  144.8881  139.5598  143.5811 H   0  0  0  0  0  0  0  0  0  0  0  0  # atno 7974 bound_to 7965
  156.1506  140.1578  156.8775 H   0  0  0  0  0  0  0  0  0  0  0  0  # atno 8008 bound_to 7997
  154.5068  140.0811  156.7947 H   0  0  0  0  0  0  0  0  0  0  0  0  # atno 8009 bound_to 7997
  155.3903  140.3409  155.4253 H   0  0  0  0  0  0  0  0  0  0  0  0  # atno 8010 bound_to 7997
  139.5111  144.6353  151.5711 H   0  0  0  0  0  0  0  0  0  0  0  0  # atno 10167 bound_to 10162
  156.2278  130.7018  151.0825 H   0  0  0  0  0  0  0  0  0  0  0  0  # atno 10718 bound_to 10713
  153.6092  135.3433  155.2973 H   0  0  0  0  0  0  0  0  0  0  0  0  # atno 10763 bound_to 10752
  154.8622  135.4246  154.2328 H   0  0  0  0  0  0  0  0  0  0  0  0  # atno 10764 bound_to 10752
  153.3175  135.7036  153.7132 H   0  0  0  0  0  0  0  0  0  0  0  0  # atno 10765 bound_to 10752
  140.0279  134.9366  157.0604 H   0  0  0  0  0  0  0  0  0  0  0  0  # atno 11005 bound_to 11000
  146.3037  139.7509  142.9072 LP  0  0  0  0  0  0  0  0  0  0  0  0  # atno 17320 bound_to 7965
  145.3832  141.0361  143.3166 LP  0  0  0  0  0  0  0  0  0  0  0  0  # atno 17321 bound_to 7965
  140.6100  143.9453  150.6446 LP  0  0  0  0  0  0  0  0  0  0  0  0  # atno 17342 bound_to 10162
  140.2692  143.3468  152.1253 LP  0  0  0  0  0  0  0  0  0  0  0  0  # atno 17343 bound_to 10162
  157.7118  131.0730  150.6471 LP  0  0  0  0  0  0  0  0  0  0  0  0  # atno 17370 bound_to 10713
  156.6537  130.4492  149.5710 LP  0  0  0  0  0  0  0  0  0  0  0  0  # atno 17371 bound_to 10713
  140.4276  134.1815  155.7166 LP  0  0  0  0  0  0  0  0  0  0  0  0  # atno 17394 bound_to 11000
  141.1813  133.8407  157.1246 LP  0  0  0  0  0  0  0  0  0  0  0  0  # atno 17395 bound_to 11000

$$$$
