AV-unprocessed.smi:2970|AV-procd|sdf|11331|dock1
  -GOLD-   2272016243D 1   1.00000     0.00000
 Structure written by MMmdl.
 38 39  0  0  0  0  0  0  0  0  1 V2000
  147.4284  139.4727  155.8086 C   0  0  0  0  0  0  0  0  0  0  0  0
  148.7373  138.8210  155.3971 C   0  0  0  0  0  0  0  0  0  0  0  0
  148.9165  137.5177  155.1584 C   0  0  0  0  0  0  0  0  0  0  0  0
  150.5679  137.1276  154.7442 S   0  0  0  0  0  0  0  0  0  0  0  0
  151.0296  138.8589  154.9175 C   0  0  0  0  0  0  0  0  0  0  0  0
  152.1772  139.2641  154.7398 O   0  0  0  0  0  0  0  0  0  0  0  0
  149.8983  139.5961  155.2664 N   0  0  0  0  0  0  0  0  0  0  0  0
  149.9299  141.0502  155.4730 C   0  0  0  0  0  0  0  0  0  0  0  0
  150.9513  141.4929  156.5293 C   0  0  0  0  0  0  0  0  0  0  0  0
  151.8356  140.7288  156.9192 O   0  0  0  0  0  0  0  0  0  0  0  0
  150.8038  142.7433  156.9934 N   0  0  0  0  0  0  0  0  0  0  0  0
  151.6498  143.3819  157.9992 C   0  0  0  0  0  0  0  0  0  0  0  0
  151.9167  142.3875  159.1489 C   0  0  0  0  0  0  0  0  0  0  0  0
  152.7676  142.9360  160.3073 C   0  0  0  0  0  0  0  0  0  0  0  0
  151.9903  143.9082  161.2088 C   0  0  0  0  0  0  0  0  0  0  0  0
  151.9876  145.3767  160.7490 C   0  0  0  0  0  0  0  0  0  0  0  0
  151.9237  145.6237  159.2317 C   0  0  0  0  0  0  0  0  0  0  0  0
  150.9794  144.6978  158.4463 C   0  0  0  0  0  0  0  0  0  0  0  0
  146.7276  138.7193  156.1694 H   0  0  0  0  0  0  0  0  0  0  0  0
  146.9729  139.9790  154.9574 H   0  0  0  0  0  0  0  0  0  0  0  0
  147.5718  140.1950  156.6122 H   0  0  0  0  0  0  0  0  0  0  0  0
  148.1618  136.7472  155.2131 H   0  0  0  0  0  0  0  0  0  0  0  0
  150.1763  141.5448  154.5320 H   0  0  0  0  0  0  0  0  0  0  0  0
  148.9422  141.4237  155.7435 H   0  0  0  0  0  0  0  0  0  0  0  0
  150.0487  143.2992  156.6184 H   0  0  0  0  0  0  0  0  0  0  0  0
  152.6023  143.6350  157.5295 H   0  0  0  0  0  0  0  0  0  0  0  0
  150.9714  142.0087  159.5400 H   0  0  0  0  0  0  0  0  0  0  0  0
  152.4318  141.5172  158.7401 H   0  0  0  0  0  0  0  0  0  0  0  0
  153.0747  142.0869  160.9190 H   0  0  0  0  0  0  0  0  0  0  0  0
  153.6909  143.3869  159.9415 H   0  0  0  0  0  0  0  0  0  0  0  0
  150.9633  143.5575  161.3173 H   0  0  0  0  0  0  0  0  0  0  0  0
  152.4111  143.8731  162.2143 H   0  0  0  0  0  0  0  0  0  0  0  0
  151.1487  145.8814  161.2297 H   0  0  0  0  0  0  0  0  0  0  0  0
  152.8816  145.8703  161.1316 H   0  0  0  0  0  0  0  0  0  0  0  0
  151.6124  146.6573  159.0770 H   0  0  0  0  0  0  0  0  0  0  0  0
  152.9269  145.5632  158.8081 H   0  0  0  0  0  0  0  0  0  0  0  0
  150.6652  145.2382  157.5520 H   0  0  0  0  0  0  0  0  0  0  0  0
  150.0669  144.5040  159.0120 H   0  0  0  0  0  0  0  0  0  0  0  0
  1  2  1  0  0  0  0
  1 19  1  0  0  0  0
  1 20  1  0  0  0  0
  1 21  1  0  0  0  0
  2  7  1  0  0  0  0
  2  3  2  0  0  0  0
  3  4  1  0  0  0  0
  3 22  1  0  0  0  0
  4  5  1  0  0  0  0
  5  6  2  0  0  0  0
  5  7  1  0  0  0  0
  7  8  1  0  0  0  0
  8  9  1  0  0  0  0
  8 23  1  0  0  0  0
  8 24  1  0  0  0  0
  9 10  2  0  0  0  0
  9 11  1  0  0  0  0
 11 12  1  0  0  0  0
 11 25  1  0  0  0  0
 12 18  1  0  0  0  0
 12 13  1  0  0  0  0
 12 26  1  0  0  0  0
 13 14  1  0  0  0  0
 13 27  1  0  0  0  0
 13 28  1  0  0  0  0
 14 15  1  0  0  0  0
 14 29  1  0  0  0  0
 14 30  1  0  0  0  0
 15 16  1  0  0  0  0
 15 31  1  0  0  0  0
 15 32  1  0  0  0  0
 16 17  1  0  0  0  0
 16 33  1  0  0  0  0
 16 34  1  0  0  0  0
 17 18  1  0  0  0  0
 17 35  1  0  0  0  0
 17 36  1  0  0  0  0
 18 37  1  0  0  0  0
 18 38  1  0  0  0  0
M  END
> <s_m_source_file>
AV-unprocessed.smi

> <i_m_source_file_index>
2970

> <i_lp_mmshare_version>
43012

> <i_f3d_flags>
0

> <s_epik_input>
W0NIM11jMVtjSF1zYyg9TyluMVtDSDJdQyg9TylbTkhdW0NIXTJbQ0gyXVtDSDJdW0NIMl1bQ0gyXVtDSDJdW0NIMl0y

> <s_epik_cmdline>
J2VwaWtfcHl0aG9uJywgJy1waCcsICc3LjAnLCAnLXRuJywgJzgnLCAnLW1hJywgJzIwMCcsICctbWV0YWxfYmluZGluZycsICctaW1hZScsICc8aW5maWxlLm1hZT4nLCAnLW9tYWUnLCAnPG91dGZpbGUubWFlPic=

> <r_lp_tautomer_probability>
1

> <r_epik_Ionization_Penalty>
1.32564e-06

> <r_epik_Ionization_Penalty_Charging>
1.22505e-06

> <r_epik_Ionization_Penalty_Neutral>
1.00582e-07

> <r_epik_State_Penalty>
-0

> <r_epik_Charging_Adjusted_Penalty>
1.22505e-06

> <i_epik_Tot_Q>
0

> <i_epik_Tot_abs_Q>
0

> <r_epik_Metal_State_Penalty>
-0

> <b_epik_Metal_Only>
0

> <s_lp_Force_Field>
OPLS_2005

> <r_lp_Energy>
18.3304

> <b_lp_Chiralities_Consistent>
1

> <s_lp_Variant>
AV-unprocessed.smi:2970-1

> <Gold.Version>
5.8.1

> <Gold.Id.Protein>
6NUR|6NUR_protein|mol2

> <Gold.PLP.Fitness>
42.2439

> <Gold.PLP.PLP>
-38.3207

> <Gold.PLP.part.hbond>
-1.9226

> <Gold.PLP.part.metal>
0.0000

> <Gold.PLP.part.buried>
-2.9504

> <Gold.PLP.part.nonpolar>
-34.2860

> <Gold.PLP.part.repulsive>
0.0817

> <Gold.PLP.ligand.clash>
0.0000

> <Gold.PLP.ligand.torsion>
0.3720

> <Gold.PLP.Chemscore.Hbond>
1.5500

> <Gold.PLP.Chemscore.CHOScore>
0.0000

> <Gold.PLP.Chemscore.Metal>
0.0000

> <Gold.Chemscore.Hbonds>
donor molecule, donor type, donor heavy atom, donor atom, acceptor molecule, acceptor atom, score
      L1  H    11    25       P1  8028  0.91
      P1  H  7989  7998       L1     6  0.62

> <Gold.PLP.Chemscore.Internal.Correction>
0.0172

> <Gold.Rescore>
     Score         DG    S(hbond)    S(metal)    S(lipo)     H(rot)  DE(clash)    DE(int)     intcor
     13.33     -19.92       1.88        0.00     100.35       1.40       1.97       4.61       ----

> <Gold.Chemscore.Fitness>
13.3345

> <Gold.Chemscore.DG>
-19.9160

> <Gold.Chemscore.ZeroCoef>
-5.4800

> <Gold.Chemscore.Hbond>
1.8776

> <Gold.Chemscore.Metal>
0.0000

> <Gold.Chemscore.Lipo>
100.3494

> <Gold.Chemscore.Internal_Hbond>
0.0000

> <Gold.Chemscore.DEClash>
1.9730

> <Gold.Chemscore.DEInternal>
4.6086

> <Gold.Chemscore.Rot>
1.3969

> <Gold.Chemscore.Internal.Correction>
   9.000000E+99

> <Gold.Chemscore.Hbonds>
donor molecule, donor type, donor heavy atom, donor atom, acceptor molecule, acceptor atom, score
      L1  H    11    25       P1  8028  0.87
      P1  H  7989  7998       L1     6  0.10

> <Gold.Chemscore.Hbond.Weighted>
-6.2712

> <Gold.Chemscore.Metal.Weighted>
-0.0000

> <Gold.Chemscore.Lipo.Weighted>
-11.7409

> <Gold.Chemscore.Internal_Hbond.Weighted>
0.0000

> <Gold.Chemscore.DEClash.Weighted>
1.9730

> <Gold.Chemscore.DEInternal.Weighted>
4.6086

> <Gold.Chemscore.Rot.Weighted>
3.5761

> <Gold.Chemscore.Internal.Correction.Weighted>
   9.000000E+99

> <Gold.Protein.RotatedTorsions>
[ 6907 6896 6895 6894 ] final  115.42 input  -60.11 | X-H torsion
[ 7974 7965 7964 7962 ] final   49.46 input  175.53 | X-H torsion
[ 8008 7997 7996 7995 ] final  -19.79 input   59.86 | X-H torsion
[ 10167 10162 10161 10158 ] final   13.68 input  -65.29 | X-H torsion
[ 10718 10713 10712 10709 ] final   55.61 input   66.30 | X-H torsion
[ 10763 10752 10751 10750 ] final  169.64 input  -60.55 | X-H torsion
[ 11005 11000 10999 10996 ] final -131.65 input  -57.11 | X-H torsion

> <Gold.Protein.ActiveResidues>
 VAL166  LYS551  ARG553  GLY616  TRP617  ASP618  TYR619  PRO620  LYS621  CYS622 
 ASP623  PHE694  ASN695  SER759  ASP760  ASP761  ALA762  ILE779  LEU786  VAL792 
 PHE793  MET794  SER795  GLU796  ALA797  LYS798  CYS799  TRP800  GLU811  SER814 

> <Gold.Protein.RotatedAtoms>
  152.4743  133.8101  159.6998 H   0  0  0  0  0  0  0  0  0  0  0  0  # atno 6907 bound_to 6896
  150.8750  133.7442  159.2956 H   0  0  0  0  0  0  0  0  0  0  0  0  # atno 6908 bound_to 6896
  151.4965  135.1063  159.9869 H   0  0  0  0  0  0  0  0  0  0  0  0  # atno 6909 bound_to 6896
  146.0107  139.4540  142.9958 H   0  0  0  0  0  0  0  0  0  0  0  0  # atno 7974 bound_to 7965
  154.4813  140.2079  155.9758 H   0  0  0  0  0  0  0  0  0  0  0  0  # atno 8008 bound_to 7997
  156.1169  140.3220  155.8121 H   0  0  0  0  0  0  0  0  0  0  0  0  # atno 8009 bound_to 7997
  155.4537  140.0519  157.2989 H   0  0  0  0  0  0  0  0  0  0  0  0  # atno 8010 bound_to 7997
  140.5986  143.8651  150.6942 H   0  0  0  0  0  0  0  0  0  0  0  0  # atno 10167 bound_to 10162
  157.5360  130.8664  149.8754 H   0  0  0  0  0  0  0  0  0  0  0  0  # atno 10718 bound_to 10713
  154.3861  135.2753  155.2182 H   0  0  0  0  0  0  0  0  0  0  0  0  # atno 10763 bound_to 10752
  154.4268  135.5987  153.6047 H   0  0  0  0  0  0  0  0  0  0  0  0  # atno 10764 bound_to 10752
  152.9833  135.5986  154.4110 H   0  0  0  0  0  0  0  0  0  0  0  0  # atno 10765 bound_to 10752
  140.9240  134.1407  157.4290 H   0  0  0  0  0  0  0  0  0  0  0  0  # atno 11005 bound_to 11000
  145.7347  141.0030  143.1333 LP  0  0  0  0  0  0  0  0  0  0  0  0  # atno 17320 bound_to 7965
  144.6952  139.9026  143.7459 LP  0  0  0  0  0  0  0  0  0  0  0  0  # atno 17321 bound_to 7965
  140.2191  143.3823  152.1657 LP  0  0  0  0  0  0  0  0  0  0  0  0  # atno 17342 bound_to 10162
  139.5275  144.7120  151.5175 LP  0  0  0  0  0  0  0  0  0  0  0  0  # atno 17343 bound_to 10162
  156.0459  130.3728  150.1319 LP  0  0  0  0  0  0  0  0  0  0  0  0  # atno 17370 bound_to 10713
  156.9501  130.9772  151.3500 LP  0  0  0  0  0  0  0  0  0  0  0  0  # atno 17371 bound_to 10713
  139.8781  134.9982  156.5885 LP  0  0  0  0  0  0  0  0  0  0  0  0  # atno 17394 bound_to 11000
  140.7950  133.8551  155.8678 LP  0  0  0  0  0  0  0  0  0  0  0  0  # atno 17395 bound_to 11000

$$$$
