AV-unprocessed.smi:1973|AV-procd|sdf|7978|dock6
  -GOLD-   2272010153D 1   1.00000     0.00000
 Structure written by MMmdl.
 48 50  0  0  0  0  0  0  0  0  2 V2000
  151.5594  140.5162  155.8975 C   0  0  0  0  0  0  0  0  0  0  0  0
  151.7614  139.7988  154.6931 O   0  0  0  0  0  0  0  0  0  0  0  0
  151.7160  138.3942  154.8813 C   0  0  0  0  0  0  0  0  0  0  0  0
  150.4437  138.0115  155.6548 C   0  0  0  0  0  0  0  0  0  0  0  0
  150.2079  136.5633  155.6328 N   0  0  0  0  0  0  0  0  0  0  0  0
  148.9862  136.2021  155.0886 N   0  0  0  0  0  0  0  0  0  0  0  0
  148.6466  134.9552  155.0220 C   0  0  0  0  0  0  0  0  0  0  0  0
  147.3411  134.5272  154.4467 C   0  0  0  0  0  0  0  0  0  0  0  0
  146.4960  133.9326  155.1175 O   0  0  0  0  0  0  0  0  0  0  0  0
  147.1548  134.8340  153.1513 N   0  0  0  0  0  0  0  0  0  0  0  0
  145.9586  134.5080  152.3864 C   0  0  0  0  0  0  0  0  0  0  0  0
  146.2118  133.3125  151.4537 C   0  0  2  0  0  0  0  0  0  0  0  0
  145.0196  132.9483  150.5713 C   0  0  0  0  0  0  0  0  0  0  0  0
  145.2706  131.4859  150.1831 C   0  0  0  0  0  0  0  0  0  0  0  0
  146.2325  130.9398  151.1691 N   0  3  2  0  0  0  0  0  0  0  0  0
  145.8348  129.6398  151.7499 C   0  0  0  0  0  0  0  0  0  0  0  0
  146.7980  129.1236  152.7919 C   0  0  0  0  0  0  0  0  0  0  0  0
  146.7785  128.5118  151.4079 C   0  0  0  0  0  0  0  0  0  0  0  0
  146.4902  131.9917  152.1738 C   0  0  0  0  0  0  0  0  0  0  0  0
  149.5355  133.9147  155.5096 C   0  0  0  0  0  0  0  0  0  0  0  0
  150.7225  134.2822  156.0399 C   0  0  0  0  0  0  0  0  0  0  0  0
  151.1294  135.6849  156.1327 C   0  0  0  0  0  0  0  0  0  0  0  0
  152.2025  136.0413  156.6178 O   0  0  0  0  0  0  0  0  0  0  0  0
  151.6070  141.5866  155.6976 H   0  0  0  0  0  0  0  0  0  0  0  0
  152.3286  140.2767  156.6329 H   0  0  0  0  0  0  0  0  0  0  0  0
  150.5818  140.2966  156.3285 H   0  0  0  0  0  0  0  0  0  0  0  0
  151.7468  137.8784  153.9201 H   0  0  0  0  0  0  0  0  0  0  0  0
  152.5935  138.0775  155.4466 H   0  0  0  0  0  0  0  0  0  0  0  0
  150.5489  138.3357  156.6916 H   0  0  0  0  0  0  0  0  0  0  0  0
  149.5868  138.5660  155.2687 H   0  0  0  0  0  0  0  0  0  0  0  0
  147.8919  135.3306  152.6716 H   0  0  0  0  0  0  0  0  0  0  0  0
  145.1348  134.2852  153.0669 H   0  0  0  0  0  0  0  0  0  0  0  0
  145.6633  135.3809  151.8026 H   0  0  0  0  0  0  0  0  0  0  0  0
  147.0597  133.5389  150.8043 H   0  0  0  0  0  0  0  0  0  0  0  0
  144.0946  133.0172  151.1459 H   0  0  0  0  0  0  0  0  0  0  0  0
  144.9204  133.6026  149.7046 H   0  0  0  0  0  0  0  0  0  0  0  0
  144.3365  130.9227  150.1569 H   0  0  0  0  0  0  0  0  0  0  0  0
  145.7220  131.4210  149.1928 H   0  0  0  0  0  0  0  0  0  0  0  0
  144.7659  129.4572  151.8463 H   0  0  0  0  0  0  0  0  0  0  0  0
  147.6530  129.7435  153.0558 H   0  0  0  0  0  0  0  0  0  0  0  0
  146.3873  128.5282  153.6047 H   0  0  0  0  0  0  0  0  0  0  0  0
  146.3545  127.5144  151.3109 H   0  0  0  0  0  0  0  0  0  0  0  0
  147.6207  128.7247  150.7516 H   0  0  0  0  0  0  0  0  0  0  0  0
  147.5075  131.9293  152.5618 H   0  0  0  0  0  0  0  0  0  0  0  0
  145.8024  131.8739  153.0134 H   0  0  0  0  0  0  0  0  0  0  0  0
  149.2615  132.8711  155.4540 H   0  0  0  0  0  0  0  0  0  0  0  0
  151.3931  133.5189  156.4071 H   0  0  0  0  0  0  0  0  0  0  0  0
  147.0989  130.7978  150.6698 H   0  0  0  0  0  0  0  0  0  0  0  0
  1  2  1  0  0  0  0
  1 24  1  0  0  0  0
  1 25  1  0  0  0  0
  1 26  1  0  0  0  0
  2  3  1  0  0  0  0
  3  4  1  0  0  0  0
  3 27  1  0  0  0  0
  3 28  1  0  0  0  0
  4  5  1  0  0  0  0
  4 29  1  0  0  0  0
  4 30  1  0  0  0  0
  5 22  1  0  0  0  0
  5  6  1  0  0  0  0
  6  7  2  0  0  0  0
  7  8  1  0  0  0  0
  7 20  1  0  0  0  0
  8  9  2  0  0  0  0
  8 10  1  0  0  0  0
 10 11  1  0  0  0  0
 10 31  1  0  0  0  0
 11 12  1  0  0  0  0
 11 32  1  0  0  0  0
 11 33  1  0  0  0  0
 12 19  1  0  0  0  0
 12 13  1  0  0  0  0
 12 34  1  0  0  0  0
 13 14  1  0  0  0  0
 13 35  1  0  0  0  0
 13 36  1  0  0  0  0
 14 15  1  0  0  0  0
 14 37  1  0  0  0  0
 14 38  1  0  0  0  0
 15 16  1  0  0  0  0
 15 19  1  0  0  0  0
 15 48  1  0  0  0  0
 16 18  1  0  0  0  0
 16 17  1  0  0  0  0
 16 39  1  0  0  0  0
 17 18  1  0  0  0  0
 17 40  1  0  0  0  0
 17 41  1  0  0  0  0
 18 42  1  0  0  0  0
 18 43  1  0  0  0  0
 19 44  1  0  0  0  0
 19 45  1  0  0  0  0
 20 21  2  0  0  0  0
 20 46  1  0  0  0  0
 21 22  1  0  0  0  0
 21 47  1  0  0  0  0
 22 23  2  0  0  0  0
M  CHG  1  15   1
M  END
> <s_m_source_file>
AV-unprocessed.smi

> <i_m_source_file_index>
1973

> <i_lp_mmshare_version>
43012

> <i_f3d_flags>
0

> <s_epik_input>
W0NIM11PW0NIMl1bQ0gyXW4xbmMoW2NIXVtjSF1jMT1PKUMoPU8pW05IXVtDSDJdW0NAQEhdMltDSDJdW0NIMl1OKFtDSDJdMilbQ0hdM1tDSDJdW0NIMl0z

> <s_epik_cmdline>
J2VwaWtfcHl0aG9uJywgJy1waCcsICc3LjAnLCAnLXRuJywgJzgnLCAnLW1hJywgJzIwMCcsICctbWV0YWxfYmluZGluZycsICctaW1hZScsICc8aW5maWxlLm1hZT4nLCAnLW9tYWUnLCAnPG91dGZpbGUubWFlPic=

> <r_lp_tautomer_probability>
1

> <r_epik_Ionization_Penalty>
0.000225706

> <r_epik_Ionization_Penalty_Charging>
0.000223776

> <r_epik_Ionization_Penalty_Neutral>
1.93004e-06

> <r_epik_State_Penalty>
-0

> <r_epik_Charging_Adjusted_Penalty>
0.000223776

> <i_epik_Tot_Q>
1

> <i_epik_Tot_abs_Q>
1

> <r_epik_Metal_State_Penalty>
-0

> <b_epik_Metal_Only>
0

> <s_lp_Force_Field>
OPLS_2005

> <r_lp_Energy>
60.0274

> <b_lp_Chiralities_Consistent>
1

> <s_lp_Variant>
AV-unprocessed.smi:1973-3

> <Gold.Version>
5.8.1

> <Gold.Id.Protein>
6NUR|6NUR_protein|mol2

> <Gold.PLP.Fitness>
47.8596

> <Gold.PLP.PLP>
-38.7183

> <Gold.PLP.part.hbond>
-4.0000

> <Gold.PLP.part.metal>
0.0000

> <Gold.PLP.part.buried>
-6.3084

> <Gold.PLP.part.nonpolar>
-28.8214

> <Gold.PLP.part.repulsive>
0.2844

> <Gold.PLP.ligand.clash>
0.0000

> <Gold.PLP.ligand.torsion>
2.1047

> <Gold.PLP.Chemscore.Hbond>
4.0000

> <Gold.PLP.Chemscore.CHOScore>
0.0000

> <Gold.PLP.Chemscore.Metal>
0.0000

> <Gold.Chemscore.Hbonds>
donor molecule, donor type, donor heavy atom, donor atom, acceptor molecule, acceptor atom, score
      L1  H    10    31       P1  7948  1.00
      L1  H    15    48       P1 10747  1.00
      P1  H  7989  7998       L1     2  1.00
      P1  H 10752 10763       L1    23  1.00

> <Gold.PLP.Chemscore.Internal.Correction>
1.3507

> <Gold.Rescore>
     Score         DG    S(hbond)    S(metal)    S(lipo)     H(rot)  DE(clash)    DE(int)     intcor
     20.91     -23.06       3.39        0.00      96.71       1.97       0.00       2.15       ----

> <Gold.Chemscore.Fitness>
20.9098

> <Gold.Chemscore.DG>
-23.0607

> <Gold.Chemscore.ZeroCoef>
-5.4800

> <Gold.Chemscore.Hbond>
3.3866

> <Gold.Chemscore.Metal>
0.0000

> <Gold.Chemscore.Lipo>
96.7137

> <Gold.Chemscore.Internal_Hbond>
0.0000

> <Gold.Chemscore.DEClash>
0.0009

> <Gold.Chemscore.DEInternal>
2.1500

> <Gold.Chemscore.Rot>
1.9711

> <Gold.Chemscore.Internal.Correction>
   9.000000E+99

> <Gold.Chemscore.Hbonds>
donor molecule, donor type, donor heavy atom, donor atom, acceptor molecule, acceptor atom, score
      L1  H    10    31       P1  7948  0.98
      L1  H    15    48       P1 10747  0.99
      P1  H  7989  7998       L1     2  0.57
      P1  H 10752 10763       L1    23  0.38

> <Gold.Chemscore.Hbond.Weighted>
-11.3112

> <Gold.Chemscore.Metal.Weighted>
-0.0000

> <Gold.Chemscore.Lipo.Weighted>
-11.3155

> <Gold.Chemscore.Internal_Hbond.Weighted>
0.0000

> <Gold.Chemscore.DEClash.Weighted>
0.0009

> <Gold.Chemscore.DEInternal.Weighted>
2.1500

> <Gold.Chemscore.Rot.Weighted>
5.0460

> <Gold.Chemscore.Internal.Correction.Weighted>
   9.000000E+99

> <Gold.Protein.RotatedTorsions>
[ 6907 6896 6895 6894 ] final  171.55 input  -60.11 | X-H torsion
[ 7974 7965 7964 7962 ] final  129.96 input  175.53 | X-H torsion
[ 8008 7997 7996 7995 ] final  -65.92 input   59.86 | X-H torsion
[ 10167 10162 10161 10158 ] final -115.03 input  -65.29 | X-H torsion
[ 10718 10713 10712 10709 ] final -159.48 input   66.30 | X-H torsion
[ 10763 10752 10751 10750 ] final  116.99 input  -60.55 | X-H torsion
[ 11005 11000 10999 10996 ] final  -64.62 input  -57.11 | X-H torsion

> <Gold.Protein.ActiveResidues>
 VAL166  LYS551  ARG553  GLY616  TRP617  ASP618  TYR619  PRO620  LYS621  CYS622 
 ASP623  PHE694  ASN695  SER759  ASP760  ASP761  ALA762  ILE779  LEU786  VAL792 
 PHE793  MET794  SER795  GLU796  ALA797  LYS798  CYS799  TRP800  GLU811  SER814 

> <Gold.Protein.RotatedAtoms>
  151.7984  133.3367  159.3519 H   0  0  0  0  0  0  0  0  0  0  0  0  # atno 6907 bound_to 6896
  150.7367  134.5777  159.5932 H   0  0  0  0  0  0  0  0  0  0  0  0  # atno 6908 bound_to 6896
  152.3160  134.7440  160.0376 H   0  0  0  0  0  0  0  0  0  0  0  0  # atno 6909 bound_to 6896
  145.0230  139.4114  143.5188 H   0  0  0  0  0  0  0  0  0  0  0  0  # atno 7974 bound_to 7965
  154.4702  140.0923  156.7124 H   0  0  0  0  0  0  0  0  0  0  0  0  # atno 8008 bound_to 7997
  155.4746  140.3465  155.4312 H   0  0  0  0  0  0  0  0  0  0  0  0  # atno 8009 bound_to 7997
  156.1025  140.1426  156.9436 H   0  0  0  0  0  0  0  0  0  0  0  0  # atno 8010 bound_to 7997
  140.0945  143.4669  152.1850 H   0  0  0  0  0  0  0  0  0  0  0  0  # atno 10167 bound_to 10162
  156.5687  130.8679  151.2831 H   0  0  0  0  0  0  0  0  0  0  0  0  # atno 10718 bound_to 10713
  153.5456  135.3550  155.2737 H   0  0  0  0  0  0  0  0  0  0  0  0  # atno 10763 bound_to 10752
  154.8712  135.4101  154.2995 H   0  0  0  0  0  0  0  0  0  0  0  0  # atno 10764 bound_to 10752
  153.3710  135.7064  153.6706 H   0  0  0  0  0  0  0  0  0  0  0  0  # atno 10765 bound_to 10752
  141.1430  133.6668  156.5860 H   0  0  0  0  0  0  0  0  0  0  0  0  # atno 11005 bound_to 11000
  146.3488  139.9738  142.8703 LP  0  0  0  0  0  0  0  0  0  0  0  0  # atno 17320 bound_to 7965
  145.1870  140.9794  143.4233 LP  0  0  0  0  0  0  0  0  0  0  0  0  # atno 17321 bound_to 7965
  139.5706  144.7460  151.3901 LP  0  0  0  0  0  0  0  0  0  0  0  0  # atno 17342 bound_to 10162
  140.7011  143.7629  150.7405 LP  0  0  0  0  0  0  0  0  0  0  0  0  # atno 17343 bound_to 10162
  157.7353  130.9760  150.2073 LP  0  0  0  0  0  0  0  0  0  0  0  0  # atno 17370 bound_to 10713
  156.2734  130.3724  149.8009 LP  0  0  0  0  0  0  0  0  0  0  0  0  # atno 17371 bound_to 10713
  140.3800  134.7531  157.4655 LP  0  0  0  0  0  0  0  0  0  0  0  0  # atno 17394 bound_to 11000
  140.0645  134.5949  155.8711 LP  0  0  0  0  0  0  0  0  0  0  0  0  # atno 17395 bound_to 11000

$$$$
