AV-unprocessed.smi:1600|AV-procd|sdf|6430|dock1
  -GOLD-   22720 7 73D 1   1.00000     0.00000
 Structure written by MMmdl.
 46 47  0  0  0  0  0  0  0  0  2 V2000
  150.8145  142.0613  156.4810 C   0  0  0  0  0  0  0  0  0  0  0  0
  150.4826  140.8476  155.6641 C   0  0  0  0  0  0  0  0  0  0  0  0
  149.2376  140.5138  155.0556 C   0  0  0  0  0  0  0  0  0  0  0  0
  149.5100  139.3176  154.4498 C   0  0  0  0  0  0  0  0  0  0  0  0
  148.6878  138.5270  153.7098 N   0  0  0  0  0  0  0  0  0  0  0  0
  147.3553  138.6145  153.5534 C   0  0  0  0  0  0  0  0  0  0  0  0
  146.6289  139.4592  154.0771 O   0  0  0  0  0  0  0  0  0  0  0  0
  146.8994  137.6524  152.7379 N   0  0  0  0  0  0  0  0  0  0  0  0
  145.5027  137.4459  152.3653 C   0  0  0  0  0  0  0  0  0  0  0  0
  145.1919  135.9630  152.0853 C   0  0  1  0  0  0  0  0  0  0  0  0
  143.8113  135.7243  151.4831 C   0  0  0  0  0  0  0  0  0  0  0  0
  143.9579  134.3380  150.8658 C   0  0  0  0  0  0  0  0  0  0  0  0
  145.3269  134.3057  150.3042 N   0  3  2  0  0  0  0  0  0  0  0  0
  145.9261  132.9512  150.1389 C   0  0  0  0  0  0  0  0  0  0  0  0
  145.2616  132.1892  148.9764 C   0  0  0  0  0  0  0  0  0  0  0  0
  145.8123  132.1150  151.4285 C   0  0  0  0  0  0  0  0  0  0  0  0
  146.1394  135.2690  151.0907 C   0  0  0  0  0  0  0  0  0  0  0  0
  150.8240  138.9845  154.6933 N   0  0  0  0  0  0  0  0  0  0  0  0
  151.5753  137.8217  154.2618 C   0  0  0  0  0  0  0  0  0  0  0  0
  151.4216  139.9339  155.4451 N   0  0  0  0  0  0  0  0  0  0  0  0
  150.0353  142.8190  156.3943 H   0  0  0  0  0  0  0  0  0  0  0  0
  151.7524  142.5127  156.1556 H   0  0  0  0  0  0  0  0  0  0  0  0
  150.9141  141.8067  157.5364 H   0  0  0  0  0  0  0  0  0  0  0  0
  148.3148  141.0735  155.0732 H   0  0  0  0  0  0  0  0  0  0  0  0
  149.1452  137.7714  153.2213 H   0  0  0  0  0  0  0  0  0  0  0  0
  147.5696  137.0008  152.3557 H   0  0  0  0  0  0  0  0  0  0  0  0
  144.8885  137.7939  153.1961 H   0  0  0  0  0  0  0  0  0  0  0  0
  145.2316  138.0649  151.5085 H   0  0  0  0  0  0  0  0  0  0  0  0
  145.2338  135.4142  153.0278 H   0  0  0  0  0  0  0  0  0  0  0  0
  143.0110  135.7745  152.2221 H   0  0  0  0  0  0  0  0  0  0  0  0
  143.6009  136.4588  150.7040 H   0  0  0  0  0  0  0  0  0  0  0  0
  143.8598  133.5811  151.6461 H   0  0  0  0  0  0  0  0  0  0  0  0
  143.2018  134.1435  150.1044 H   0  0  0  0  0  0  0  0  0  0  0  0
  146.9856  133.0755  149.9093 H   0  0  0  0  0  0  0  0  0  0  0  0
  145.6885  131.1912  148.8705 H   0  0  0  0  0  0  0  0  0  0  0  0
  145.3962  132.6926  148.0194 H   0  0  0  0  0  0  0  0  0  0  0  0
  144.1899  132.0725  149.1419 H   0  0  0  0  0  0  0  0  0  0  0  0
  146.2069  131.1097  151.2772 H   0  0  0  0  0  0  0  0  0  0  0  0
  144.7739  132.0163  151.7469 H   0  0  0  0  0  0  0  0  0  0  0  0
  146.3762  132.5518  152.2526 H   0  0  0  0  0  0  0  0  0  0  0  0
  146.5758  135.9804  150.3896 H   0  0  0  0  0  0  0  0  0  0  0  0
  146.9577  134.7900  151.6298 H   0  0  0  0  0  0  0  0  0  0  0  0
  151.7304  137.8669  153.1836 H   0  0  0  0  0  0  0  0  0  0  0  0
  151.0213  136.9147  154.5049 H   0  0  0  0  0  0  0  0  0  0  0  0
  152.5454  137.7847  154.7590 H   0  0  0  0  0  0  0  0  0  0  0  0
  145.2510  134.7046  149.3793 H   0  0  0  0  0  0  0  0  0  0  0  0
  1  2  1  0  0  0  0
  1 21  1  0  0  0  0
  1 22  1  0  0  0  0
  1 23  1  0  0  0  0
  2 20  2  0  0  0  0
  2  3  1  0  0  0  0
  3  4  2  0  0  0  0
  3 24  1  0  0  0  0
  4  5  1  0  0  0  0
  4 18  1  0  0  0  0
  5  6  1  0  0  0  0
  5 25  1  0  0  0  0
  6  7  2  0  0  0  0
  6  8  1  0  0  0  0
  8  9  1  0  0  0  0
  8 26  1  0  0  0  0
  9 10  1  0  0  0  0
  9 27  1  0  0  0  0
  9 28  1  0  0  0  0
 10 17  1  0  0  0  0
 10 11  1  0  0  0  0
 10 29  1  0  0  0  0
 11 12  1  0  0  0  0
 11 30  1  0  0  0  0
 11 31  1  0  0  0  0
 12 13  1  0  0  0  0
 12 32  1  0  0  0  0
 12 33  1  0  0  0  0
 13 14  1  0  0  0  0
 13 17  1  0  0  0  0
 13 46  1  0  0  0  0
 14 15  1  0  0  0  0
 14 16  1  0  0  0  0
 14 34  1  0  0  0  0
 15 35  1  0  0  0  0
 15 36  1  0  0  0  0
 15 37  1  0  0  0  0
 16 38  1  0  0  0  0
 16 39  1  0  0  0  0
 16 40  1  0  0  0  0
 17 41  1  0  0  0  0
 17 42  1  0  0  0  0
 18 19  1  0  0  0  0
 18 20  1  0  0  0  0
 19 43  1  0  0  0  0
 19 44  1  0  0  0  0
 19 45  1  0  0  0  0
M  CHG  1  13   1
M  END
> <s_m_source_file>
AV-unprocessed.smi

> <i_m_source_file_index>
1600

> <i_lp_mmshare_version>
43012

> <i_f3d_flags>
0

> <s_epik_input>
W0NIM11jMVtjSF1jKG4objEpW0NIM10pW05IXUMoPU8pW05IXVtDSDJdW0NAQEhdMltDSDJdW0NIMl1OKFtDSDJdMilbQ0hdKFtDSDNdKVtDSDNd

> <s_epik_cmdline>
J2VwaWtfcHl0aG9uJywgJy1waCcsICc3LjAnLCAnLXRuJywgJzgnLCAnLW1hJywgJzIwMCcsICctbWV0YWxfYmluZGluZycsICctaW1hZScsICc8aW5maWxlLm1hZT4nLCAnLW9tYWUnLCAnPG91dGZpbGUubWFlPic=

> <r_lp_tautomer_probability>
1

> <r_epik_Ionization_Penalty>
0.000297652

> <r_epik_Ionization_Penalty_Charging>
0.000213653

> <r_epik_Ionization_Penalty_Neutral>
8.3999e-05

> <r_epik_State_Penalty>
-0

> <r_epik_Charging_Adjusted_Penalty>
0.000213653

> <i_epik_Tot_Q>
1

> <i_epik_Tot_abs_Q>
1

> <r_epik_Metal_State_Penalty>
-0

> <b_epik_Metal_Only>
0

> <s_lp_Force_Field>
OPLS_2005

> <r_lp_Energy>
32.7515

> <b_lp_Chiralities_Consistent>
1

> <s_lp_Variant>
AV-unprocessed.smi:1600-4

> <Gold.Version>
5.8.1

> <Gold.Id.Protein>
6NUR|6NUR_protein|mol2

> <Gold.PLP.Fitness>
46.1846

> <Gold.PLP.PLP>
-38.3203

> <Gold.PLP.part.hbond>
-5.0000

> <Gold.PLP.part.metal>
0.0000

> <Gold.PLP.part.buried>
-1.9178

> <Gold.PLP.part.nonpolar>
-31.9092

> <Gold.PLP.part.repulsive>
0.3332

> <Gold.PLP.ligand.clash>
0.0000

> <Gold.PLP.ligand.torsion>
0.4482

> <Gold.PLP.Chemscore.Hbond>
2.9044

> <Gold.PLP.Chemscore.CHOScore>
0.0000

> <Gold.PLP.Chemscore.Metal>
0.0000

> <Gold.Chemscore.Hbonds>
donor molecule, donor type, donor heavy atom, donor atom, acceptor molecule, acceptor atom, score
      L1  H     5    25       P1  7948  0.95
      L1  H     8    26       P1  7948  1.00
      L1  H    13    46       P1  7921  0.86
      P1  H  7989  7998       L1    20  0.02

> <Gold.PLP.Chemscore.Internal.Correction>
0.0477

> <Gold.Rescore>
     Score         DG    S(hbond)    S(metal)    S(lipo)     H(rot)  DE(clash)    DE(int)     intcor
     19.69     -21.26       2.71        0.00      88.95       1.44       0.03       1.54       ----

> <Gold.Chemscore.Fitness>
19.6903

> <Gold.Chemscore.DG>
-21.2640

> <Gold.Chemscore.ZeroCoef>
-5.4800

> <Gold.Chemscore.Hbond>
2.7110

> <Gold.Chemscore.Metal>
0.0000

> <Gold.Chemscore.Lipo>
88.9543

> <Gold.Chemscore.Internal_Hbond>
0.0000

> <Gold.Chemscore.DEClash>
0.0293

> <Gold.Chemscore.DEInternal>
1.5444

> <Gold.Chemscore.Rot>
1.4369

> <Gold.Chemscore.Internal.Correction>
   9.000000E+99

> <Gold.Chemscore.Hbonds>
donor molecule, donor type, donor heavy atom, donor atom, acceptor molecule, acceptor atom, score
      L1  H     5    25       P1  7948  0.85
      L1  H     8    26       P1  7948  1.00
      L1  H    13    46       P1  7921  0.85

> <Gold.Chemscore.Hbond.Weighted>
-9.0548

> <Gold.Chemscore.Metal.Weighted>
-0.0000

> <Gold.Chemscore.Lipo.Weighted>
-10.4077

> <Gold.Chemscore.Internal_Hbond.Weighted>
0.0000

> <Gold.Chemscore.DEClash.Weighted>
0.0293

> <Gold.Chemscore.DEInternal.Weighted>
1.5444

> <Gold.Chemscore.Rot.Weighted>
3.6785

> <Gold.Chemscore.Internal.Correction.Weighted>
   9.000000E+99

> <Gold.Protein.RotatedTorsions>
[ 6907 6896 6895 6894 ] final  127.15 input  -60.11 | X-H torsion
[ 7974 7965 7964 7962 ] final   24.57 input  175.53 | X-H torsion
[ 8008 7997 7996 7995 ] final   12.40 input   59.86 | X-H torsion
[ 10167 10162 10161 10158 ] final -116.37 input  -65.29 | X-H torsion
[ 10718 10713 10712 10709 ] final  132.44 input   66.30 | X-H torsion
[ 10763 10752 10751 10750 ] final   -9.62 input  -60.55 | X-H torsion
[ 11005 11000 10999 10996 ] final -163.90 input  -57.11 | X-H torsion

> <Gold.Protein.ActiveResidues>
 VAL166  LYS551  ARG553  GLY616  TRP617  ASP618  TYR619  PRO620  LYS621  CYS622 
 ASP623  PHE694  ASN695  SER759  ASP760  ASP761  ALA762  ILE779  LEU786  VAL792 
 PHE793  MET794  SER795  GLU796  ALA797  LYS798  CYS799  TRP800  GLU811  SER814 

> <Gold.Protein.RotatedAtoms>
  152.3839  133.6583  159.6182 H   0  0  0  0  0  0  0  0  0  0  0  0  # atno 6907 bound_to 6896
  150.7763  133.9068  159.3366 H   0  0  0  0  0  0  0  0  0  0  0  0  # atno 6908 bound_to 6896
  151.6869  135.0954  160.0277 H   0  0  0  0  0  0  0  0  0  0  0  0  # atno 6909 bound_to 6896
  146.1931  139.7586  142.8817 H   0  0  0  0  0  0  0  0  0  0  0  0  # atno 7974 bound_to 7965
  154.8200  140.2882  155.5793 H   0  0  0  0  0  0  0  0  0  0  0  0  # atno 8008 bound_to 7997
  156.2997  140.2552  156.3036 H   0  0  0  0  0  0  0  0  0  0  0  0  # atno 8009 bound_to 7997
  154.9349  140.0382  157.2056 H   0  0  0  0  0  0  0  0  0  0  0  0  # atno 8010 bound_to 7997
  140.0800  143.4797  152.1931 H   0  0  0  0  0  0  0  0  0  0  0  0  # atno 10167 bound_to 10162
  157.4870  131.1089  150.9607 H   0  0  0  0  0  0  0  0  0  0  0  0  # atno 10718 bound_to 10713
  153.4573  135.7015  153.6072 H   0  0  0  0  0  0  0  0  0  0  0  0  # atno 10763 bound_to 10752
  153.4381  135.3786  155.2211 H   0  0  0  0  0  0  0  0  0  0  0  0  # atno 10764 bound_to 10752
  154.8728  135.3967  154.3994 H   0  0  0  0  0  0  0  0  0  0  0  0  # atno 10765 bound_to 10752
  140.5930  134.5026  157.5195 H   0  0  0  0  0  0  0  0  0  0  0  0  # atno 11005 bound_to 11000
  145.3730  141.0346  143.3220 LP  0  0  0  0  0  0  0  0  0  0  0  0  # atno 17320 bound_to 7965
  144.8526  139.5299  143.6849 LP  0  0  0  0  0  0  0  0  0  0  0  0  # atno 17321 bound_to 7965
  139.5785  144.7499  151.3701 LP  0  0  0  0  0  0  0  0  0  0  0  0  # atno 17342 bound_to 10162
  140.7083  143.7458  150.7520 LP  0  0  0  0  0  0  0  0  0  0  0  0  # atno 17343 bound_to 10162
  157.0321  130.5715  149.5344 LP  0  0  0  0  0  0  0  0  0  0  0  0  # atno 17370 bound_to 10713
  156.0152  130.5246  150.8113 LP  0  0  0  0  0  0  0  0  0  0  0  0  # atno 17371 bound_to 10713
  139.9266  134.8044  156.1052 LP  0  0  0  0  0  0  0  0  0  0  0  0  # atno 17394 bound_to 11000
  141.0923  133.6709  156.2567 LP  0  0  0  0  0  0  0  0  0  0  0  0  # atno 17395 bound_to 11000

$$$$
