AV-unprocessed.smi:1207|AV-procd|sdf|5054|dock1
  -GOLD-   22720 4 83D 1   1.00000     0.00000
 Structure written by MMmdl.
 52 54  0  0  0  0  0  0  0  0  2 V2000
  153.2337  142.7465  161.8050 C   0  0  0  0  0  0  0  0  0  0  0  0
  152.6666  142.4557  160.4266 C   0  0  0  0  0  0  0  0  0  0  0  0
  152.9946  141.2365  159.7920 C   0  0  0  0  0  0  0  0  0  0  0  0
  152.4861  140.9265  158.5118 C   0  0  0  0  0  0  0  0  0  0  0  0
  152.6701  139.8074  157.7179 N   0  0  0  0  0  0  0  0  0  0  0  0
  151.9377  140.1118  156.6508 C   0  0  0  0  0  0  0  0  0  0  0  0
  151.2987  141.2973  156.6592 N   0  0  0  0  0  0  0  0  0  0  0  0
  150.4425  141.8352  155.6174 C   0  0  0  0  0  0  0  0  0  0  0  0
  149.1167  141.0611  155.4867 C   0  0  1  0  0  0  0  0  0  0  0  0
  148.1209  141.9125  154.9504 O   0  0  0  0  0  0  0  0  0  0  0  0
  149.2566  139.8345  154.5677 C   0  0  0  0  0  0  0  0  0  0  0  0
  149.6888  138.6303  155.3264 N   0  3  2  0  0  0  0  0  0  0  0  0
  150.8105  137.9168  154.6739 C   0  0  0  0  0  0  0  0  0  0  0  0
  148.5772  137.7143  155.6847 C   0  0  0  0  0  0  0  0  0  0  0  0
  149.0455  136.6171  156.6074 C   0  0  0  0  0  0  0  0  0  0  0  0
  149.2264  136.6738  158.0196 C   0  0  0  0  0  0  0  0  0  0  0  0
  148.9851  137.8302  158.9476 C   0  0  0  0  0  0  0  0  0  0  0  0
  149.6694  135.5273  158.5061 N   0  0  0  0  0  0  0  0  0  0  0  0
  149.7875  134.6654  157.4119 O   0  0  0  0  0  0  0  0  0  0  0  0
  149.4075  135.3352  156.2950 C   0  0  0  0  0  0  0  0  0  0  0  0
  149.4748  134.5802  155.0110 C   0  0  0  0  0  0  0  0  0  0  0  0
  151.6352  141.8783  157.8776 C   0  0  0  0  0  0  0  0  0  0  0  0
  151.3033  143.0958  158.4978 C   0  0  0  0  0  0  0  0  0  0  0  0
  151.8178  143.3884  159.7782 C   0  0  0  0  0  0  0  0  0  0  0  0
  151.4499  144.7037  160.4414 C   0  0  0  0  0  0  0  0  0  0  0  0
  153.8901  141.9440  162.1428 H   0  0  0  0  0  0  0  0  0  0  0  0
  152.4299  142.8505  162.5342 H   0  0  0  0  0  0  0  0  0  0  0  0
  153.8136  143.6697  161.7936 H   0  0  0  0  0  0  0  0  0  0  0  0
  153.6410  140.5257  160.2857 H   0  0  0  0  0  0  0  0  0  0  0  0
  151.8580  139.4323  155.8149 H   0  0  0  0  0  0  0  0  0  0  0  0
  150.2545  142.8883  155.8308 H   0  0  0  0  0  0  0  0  0  0  0  0
  150.9909  141.8032  154.6749 H   0  0  0  0  0  0  0  0  0  0  0  0
  148.7940  140.7478  156.4799 H   0  0  0  0  0  0  0  0  0  0  0  0
  148.3384  142.8076  155.1633 H   0  0  0  0  0  0  0  0  0  0  0  0
  148.2991  139.6664  154.0749 H   0  0  0  0  0  0  0  0  0  0  0  0
  149.9684  140.0332  153.7650 H   0  0  0  0  0  0  0  0  0  0  0  0
  150.4964  137.4799  153.7250 H   0  0  0  0  0  0  0  0  0  0  0  0
  151.1804  137.1140  155.3125 H   0  0  0  0  0  0  0  0  0  0  0  0
  151.6457  138.5895  154.4793 H   0  0  0  0  0  0  0  0  0  0  0  0
  147.7651  138.2941  156.1254 H   0  0  0  0  0  0  0  0  0  0  0  0
  148.1702  137.2749  154.7731 H   0  0  0  0  0  0  0  0  0  0  0  0
  149.5626  138.7031  158.6437 H   0  0  0  0  0  0  0  0  0  0  0  0
  149.2649  137.5915  159.9746 H   0  0  0  0  0  0  0  0  0  0  0  0
  147.9324  138.1130  158.9500 H   0  0  0  0  0  0  0  0  0  0  0  0
  148.8923  135.0753  154.2341 H   0  0  0  0  0  0  0  0  0  0  0  0
  149.0825  133.5703  155.1335 H   0  0  0  0  0  0  0  0  0  0  0  0
  150.5054  134.5034  154.6640 H   0  0  0  0  0  0  0  0  0  0  0  0
  150.6554  143.7974  157.9937 H   0  0  0  0  0  0  0  0  0  0  0  0
  150.7664  145.2846  159.8214 H   0  0  0  0  0  0  0  0  0  0  0  0
  152.3418  145.3065  160.6125 H   0  0  0  0  0  0  0  0  0  0  0  0
  150.9617  144.5257  161.3998 H   0  0  0  0  0  0  0  0  0  0  0  0
  150.0459  138.9752  156.2064 H   0  0  0  0  0  0  0  0  0  0  0  0
  1  2  1  0  0  0  0
  1 26  1  0  0  0  0
  1 27  1  0  0  0  0
  1 28  1  0  0  0  0
  2 24  1  0  0  0  0
  2  3  2  0  0  0  0
  3  4  1  0  0  0  0
  3 29  1  0  0  0  0
  4 22  2  0  0  0  0
  4  5  1  0  0  0  0
  5  6  2  0  0  0  0
  6  7  1  0  0  0  0
  6 30  1  0  0  0  0
  7  8  1  0  0  0  0
  7 22  1  0  0  0  0
  8  9  1  0  0  0  0
  8 31  1  0  0  0  0
  8 32  1  0  0  0  0
  9 10  1  0  0  0  0
  9 11  1  0  0  0  0
  9 33  1  0  0  0  0
 10 34  1  0  0  0  0
 11 12  1  0  0  0  0
 11 35  1  0  0  0  0
 11 36  1  0  0  0  0
 12 13  1  0  0  0  0
 12 14  1  0  0  0  0
 12 52  1  0  0  0  0
 13 37  1  0  0  0  0
 13 38  1  0  0  0  0
 13 39  1  0  0  0  0
 14 15  1  0  0  0  0
 14 40  1  0  0  0  0
 14 41  1  0  0  0  0
 15 20  2  0  0  0  0
 15 16  1  0  0  0  0
 16 17  1  0  0  0  0
 16 18  2  0  0  0  0
 17 42  1  0  0  0  0
 17 43  1  0  0  0  0
 17 44  1  0  0  0  0
 18 19  1  0  0  0  0
 19 20  1  0  0  0  0
 20 21  1  0  0  0  0
 21 45  1  0  0  0  0
 21 46  1  0  0  0  0
 21 47  1  0  0  0  0
 22 23  1  0  0  0  0
 23 24  2  0  0  0  0
 23 48  1  0  0  0  0
 24 25  1  0  0  0  0
 25 49  1  0  0  0  0
 25 50  1  0  0  0  0
 25 51  1  0  0  0  0
M  CHG  1  12   1
M  END
> <s_m_source_file>
AV-unprocessed.smi

> <i_m_source_file_index>
1207

> <i_lp_mmshare_version>
43012

> <i_f3d_flags>
0

> <s_epik_input>
W0NIM11jKFtjSF0xKWMoW0NIM10pW2NIXWMoYzEyKW4oW2NIXW4yKVtDSDJdW0NASF0oW09IXSlbQ0gyXU4oW0NIM10pW0NIMl1jM2MoW0NIM10pbm9jM1tDSDNd

> <s_epik_cmdline>
J2VwaWtfcHl0aG9uJywgJy1waCcsICc3LjAnLCAnLXRuJywgJzgnLCAnLW1hJywgJzIwMCcsICctbWV0YWxfYmluZGluZycsICctaW1hZScsICc8aW5maWxlLm1hZT4nLCAnLW9tYWUnLCAnPG91dGZpbGUubWFlPic=

> <r_epik_Ionization_Penalty>
0.646518

> <r_epik_Ionization_Penalty_Charging>
0.559419

> <r_epik_Ionization_Penalty_Neutral>
0.0870981

> <r_epik_State_Penalty>
0.661677

> <r_epik_Charging_Adjusted_Penalty>
1.2211

> <i_epik_Tot_Q>
1

> <i_epik_Tot_abs_Q>
1

> <r_epik_Metal_State_Penalty>
0.649158

> <b_epik_Metal_Only>
0

> <s_lp_Force_Field>
OPLS_2005

> <r_lp_Energy>
8.09598

> <b_lp_Chiralities_Consistent>
1

> <s_lp_Variant>
AV-unprocessed.smi:1207-6

> <Gold.Version>
5.8.1

> <Gold.Id.Protein>
6NUR|6NUR_protein|mol2

> <Gold.PLP.Fitness>
51.4259

> <Gold.PLP.PLP>
-45.2831

> <Gold.PLP.part.hbond>
-3.2701

> <Gold.PLP.part.metal>
0.0000

> <Gold.PLP.part.buried>
-6.5662

> <Gold.PLP.part.nonpolar>
-35.1659

> <Gold.PLP.part.repulsive>
0.0302

> <Gold.PLP.ligand.clash>
0.0000

> <Gold.PLP.ligand.torsion>
1.6670

> <Gold.PLP.Chemscore.Hbond>
3.0000

> <Gold.PLP.Chemscore.CHOScore>
0.0000

> <Gold.PLP.Chemscore.Metal>
0.0000

> <Gold.Chemscore.Hbonds>
donor molecule, donor type, donor heavy atom, donor atom, acceptor molecule, acceptor atom, score
      L1  H    10    34       P1  8028  0.99
      P1  H  6896  6908       L1    18  0.50
      P1  H  7997  8010       L1     5  0.80

> <Gold.PLP.Chemscore.Internal.Correction>
0.4768

> <Gold.Rescore>
     Score         DG    S(hbond)    S(metal)    S(lipo)     H(rot)  DE(clash)    DE(int)     intcor
     18.33     -20.22       2.04        0.00     121.49       2.46       0.25       1.65       ----

> <Gold.Chemscore.Fitness>
18.3270

> <Gold.Chemscore.DG>
-20.2206

> <Gold.Chemscore.ZeroCoef>
-5.4800

> <Gold.Chemscore.Hbond>
2.0406

> <Gold.Chemscore.Metal>
0.0000

> <Gold.Chemscore.Lipo>
121.4855

> <Gold.Chemscore.Internal_Hbond>
0.0000

> <Gold.Chemscore.DEClash>
0.2479

> <Gold.Chemscore.DEInternal>
1.6457

> <Gold.Chemscore.Rot>
2.4565

> <Gold.Chemscore.Internal.Correction>
   9.000000E+99

> <Gold.Chemscore.Hbonds>
donor molecule, donor type, donor heavy atom, donor atom, acceptor molecule, acceptor atom, score
      L1  H    10    34       P1  8028  0.93
      P1  H  6896  6908       L1    18  0.02
      P1  H  7997  8010       L1     5  0.06

> <Gold.Chemscore.Hbond.Weighted>
-6.8154

> <Gold.Chemscore.Metal.Weighted>
-0.0000

> <Gold.Chemscore.Lipo.Weighted>
-14.2138

> <Gold.Chemscore.Internal_Hbond.Weighted>
0.0000

> <Gold.Chemscore.DEClash.Weighted>
0.2479

> <Gold.Chemscore.DEInternal.Weighted>
1.6457

> <Gold.Chemscore.Rot.Weighted>
6.2887

> <Gold.Chemscore.Internal.Correction.Weighted>
   9.000000E+99

> <Gold.Protein.RotatedTorsions>
[ 6907 6896 6895 6894 ] final  158.75 input  -60.11 | X-H torsion
[ 7974 7965 7964 7962 ] final  179.91 input  175.53 | X-H torsion
[ 8008 7997 7996 7995 ] final   47.42 input   59.86 | X-H torsion
[ 10167 10162 10161 10158 ] final  -65.49 input  -65.29 | X-H torsion
[ 10718 10713 10712 10709 ] final   94.22 input   66.30 | X-H torsion
[ 10763 10752 10751 10750 ] final  -81.43 input  -60.55 | X-H torsion
[ 11005 11000 10999 10996 ] final   31.92 input  -57.11 | X-H torsion

> <Gold.Protein.ActiveResidues>
 VAL166  LYS551  ARG553  GLY616  TRP617  ASP618  TYR619  PRO620  LYS621  CYS622 
 ASP623  PHE694  ASN695  SER759  ASP760  ASP761  ALA762  ILE779  LEU786  VAL792 
 PHE793  MET794  SER795  GLU796  ALA797  LYS798  CYS799  TRP800  GLU811  SER814 

> <Gold.Protein.RotatedAtoms>
  151.9958  133.3807  159.4161 H   0  0  0  0  0  0  0  0  0  0  0  0  # atno 6907 bound_to 6896
  150.6916  134.3888  159.5076 H   0  0  0  0  0  0  0  0  0  0  0  0  # atno 6908 bound_to 6896
  152.1628  134.8898  160.0591 H   0  0  0  0  0  0  0  0  0  0  0  0  # atno 6909 bound_to 6896
  144.7141  140.0619  143.6432 H   0  0  0  0  0  0  0  0  0  0  0  0  # atno 7974 bound_to 7965
  155.3688  140.3422  155.4242 H   0  0  0  0  0  0  0  0  0  0  0  0  # atno 8008 bound_to 7997
  156.1674  140.1620  156.8542 H   0  0  0  0  0  0  0  0  0  0  0  0  # atno 8009 bound_to 7997
  154.5198  140.0769  156.8133 H   0  0  0  0  0  0  0  0  0  0  0  0  # atno 8010 bound_to 7997
  140.5725  143.2319  151.6508 H   0  0  0  0  0  0  0  0  0  0  0  0  # atno 10167 bound_to 10162
  157.6949  131.0505  150.4153 H   0  0  0  0  0  0  0  0  0  0  0  0  # atno 10718 bound_to 10713
  154.5635  135.5626  153.7029 H   0  0  0  0  0  0  0  0  0  0  0  0  # atno 10763 bound_to 10752
  153.0025  135.6279  154.2213 H   0  0  0  0  0  0  0  0  0  0  0  0  # atno 10764 bound_to 10752
  154.2151  135.2872  155.2924 H   0  0  0  0  0  0  0  0  0  0  0  0  # atno 10765 bound_to 10752
  140.2789  134.2996  155.7806 H   0  0  0  0  0  0  0  0  0  0  0  0  # atno 11005 bound_to 11000
  145.9857  139.2975  143.1015 LP  0  0  0  0  0  0  0  0  0  0  0  0  # atno 17320 bound_to 7965
  145.8960  140.9273  143.0527 LP  0  0  0  0  0  0  0  0  0  0  0  0  # atno 17321 bound_to 7965
  139.5125  144.3473  152.0685 LP  0  0  0  0  0  0  0  0  0  0  0  0  # atno 17342 bound_to 10162
  140.2612  144.4065  150.6185 LP  0  0  0  0  0  0  0  0  0  0  0  0  # atno 17343 bound_to 10162
  156.4533  130.4016  149.6622 LP  0  0  0  0  0  0  0  0  0  0  0  0  # atno 17370 bound_to 10713
  156.3763  130.7556  151.2545 LP  0  0  0  0  0  0  0  0  0  0  0  0  # atno 17371 bound_to 10713
  141.2166  133.7513  156.9449 LP  0  0  0  0  0  0  0  0  0  0  0  0  # atno 17394 bound_to 11000
  140.1302  134.9360  157.2327 LP  0  0  0  0  0  0  0  0  0  0  0  0  # atno 17395 bound_to 11000

$$$$
