AV-unprocessed.smi:1244|AV-procd|sdf|5238|dock2
  -GOLD-   22720 4343D 1   1.00000     0.00000
 Structure written by MMmdl.
 55 57  0  0  0  0  0  0  0  0  4 V2000
  149.9028  141.6443  155.6859 C   0  0  0  0  0  0  0  0  0  0  0  0
  150.3589  140.1835  155.7700 C   0  0  1  0  0  0  0  0  0  0  0  0
  149.2168  139.2045  155.4441 C   0  0  0  0  0  0  0  0  0  0  0  0
  149.7143  137.8088  155.4434 N   0  3  1  0  0  0  0  0  0  0  0  0
  148.6298  136.8083  155.2565 C   0  0  0  0  0  0  0  0  0  0  0  0
  149.1779  135.3723  155.1279 C   0  0  0  0  0  0  0  0  0  0  0  0
  148.2430  134.5499  154.3611 N   0  5  0  0  0  0  0  0  0  0  0  0
  148.2416  133.1904  154.3345 C   0  0  0  0  0  0  0  0  0  0  0  0
  148.8503  132.4195  155.0847 O   0  0  0  0  0  0  0  0  0  0  0  0
  147.4769  132.7114  153.3383 N   0  0  0  0  0  0  0  0  0  0  0  0
  147.2310  131.3629  152.9530 C   0  0  0  0  0  0  0  0  0  0  0  0
  148.0091  130.2944  153.4679 C   0  0  0  0  0  0  0  0  0  0  0  0
  147.7541  128.9740  153.0537 C   0  0  0  0  0  0  0  0  0  0  0  0
  146.7176  128.7386  152.1351 C   0  0  0  0  0  0  0  0  0  0  0  0
  145.9785  129.7721  151.6828 N   0  3  0  0  0  0  0  0  0  0  0  0
  146.1649  131.0640  152.0541 C   0  0  0  0  0  0  0  0  0  0  0  0
  145.2950  132.0336  151.5018 N   0  0  0  0  0  0  0  0  0  0  0  0
  145.8306  133.2363  150.8749 C   0  0  0  0  0  0  0  0  0  0  0  0
  144.6493  133.8585  150.1353 C   0  0  0  0  0  0  0  0  0  0  0  0
  143.8696  132.6321  149.6716 C   0  0  0  0  0  0  0  0  0  0  0  0
  144.0861  131.6164  150.7980 C   0  0  0  0  0  0  0  0  0  0  0  0
  150.8375  137.6696  154.4795 C   0  0  0  0  0  0  0  0  0  0  0  0
  151.9582  138.6808  154.7871 C   0  0  2  0  0  0  0  0  0  0  0  0
  152.7751  138.3288  156.0434 C   0  0  0  0  0  0  0  0  0  0  0  0
  151.4240  140.0038  154.8398 O   0  0  0  0  0  0  0  0  0  0  0  0
  149.0940  141.8446  156.3888 H   0  0  0  0  0  0  0  0  0  0  0  0
  149.5449  141.8893  154.6855 H   0  0  0  0  0  0  0  0  0  0  0  0
  150.7229  142.3229  155.9214 H   0  0  0  0  0  0  0  0  0  0  0  0
  150.7200  140.0007  156.7822 H   0  0  0  0  0  0  0  0  0  0  0  0
  148.4249  139.3132  156.1866 H   0  0  0  0  0  0  0  0  0  0  0  0
  148.7796  139.4352  154.4711 H   0  0  0  0  0  0  0  0  0  0  0  0
  147.9597  136.8349  156.1175 H   0  0  0  0  0  0  0  0  0  0  0  0
  148.0188  137.0749  154.3926 H   0  0  0  0  0  0  0  0  0  0  0  0
  150.1525  135.4081  154.6410 H   0  0  0  0  0  0  0  0  0  0  0  0
  149.3694  134.9725  156.1249 H   0  0  0  0  0  0  0  0  0  0  0  0
  147.1022  133.4133  152.7174 H   0  0  0  0  0  0  0  0  0  0  0  0
  148.7987  130.4661  154.1834 H   0  0  0  0  0  0  0  0  0  0  0  0
  148.3464  128.1554  153.4357 H   0  0  0  0  0  0  0  0  0  0  0  0
  146.4514  127.7621  151.7581 H   0  0  0  0  0  0  0  0  0  0  0  0
  146.2518  133.9192  151.6131 H   0  0  0  0  0  0  0  0  0  0  0  0
  146.6124  132.9731  150.1614 H   0  0  0  0  0  0  0  0  0  0  0  0
  144.0427  134.4456  150.8261 H   0  0  0  0  0  0  0  0  0  0  0  0
  144.9550  134.5074  149.3142 H   0  0  0  0  0  0  0  0  0  0  0  0
  142.8157  132.8415  149.4873 H   0  0  0  0  0  0  0  0  0  0  0  0
  144.3033  132.2512  148.7461 H   0  0  0  0  0  0  0  0  0  0  0  0
  144.1666  130.6018  150.4056 H   0  0  0  0  0  0  0  0  0  0  0  0
  143.2477  131.6487  151.4942 H   0  0  0  0  0  0  0  0  0  0  0  0
  151.2403  136.6564  154.4965 H   0  0  0  0  0  0  0  0  0  0  0  0
  150.4612  137.8384  153.4692 H   0  0  0  0  0  0  0  0  0  0  0  0
  152.6535  138.6705  153.9472 H   0  0  0  0  0  0  0  0  0  0  0  0
  153.2791  137.3699  155.9199 H   0  0  0  0  0  0  0  0  0  0  0  0
  152.1534  138.2531  156.9353 H   0  0  0  0  0  0  0  0  0  0  0  0
  153.5415  139.0809  156.2320 H   0  0  0  0  0  0  0  0  0  0  0  0
  150.0891  137.6423  156.3665 H   0  0  0  0  0  0  0  0  0  0  0  0
  145.2255  129.5681  151.0260 H   0  0  0  0  0  0  0  0  0  0  0  0
  1  2  1  0  0  0  0
  1 26  1  0  0  0  0
  1 27  1  0  0  0  0
  1 28  1  0  0  0  0
  2 25  1  0  0  0  0
  2  3  1  0  0  0  0
  2 29  1  0  0  0  0
  3  4  1  0  0  0  0
  3 30  1  0  0  0  0
  3 31  1  0  0  0  0
  4  5  1  0  0  0  0
  4 22  1  0  0  0  0
  4 54  1  0  0  0  0
  5  6  1  0  0  0  0
  5 32  1  0  0  0  0
  5 33  1  0  0  0  0
  6  7  1  0  0  0  0
  6 34  1  0  0  0  0
  6 35  1  0  0  0  0
  7  8  1  0  0  0  0
  8  9  2  0  0  0  0
  8 10  1  0  0  0  0
 10 11  1  0  0  0  0
 10 36  1  0  0  0  0
 11 16  1  0  0  0  0
 11 12  2  0  0  0  0
 12 13  1  0  0  0  0
 12 37  1  0  0  0  0
 13 14  2  0  0  0  0
 13 38  1  0  0  0  0
 14 15  1  0  0  0  0
 14 39  1  0  0  0  0
 15 16  2  0  0  0  0
 15 55  1  0  0  0  0
 16 17  1  0  0  0  0
 17 21  1  0  0  0  0
 17 18  1  0  0  0  0
 18 19  1  0  0  0  0
 18 40  1  0  0  0  0
 18 41  1  0  0  0  0
 19 20  1  0  0  0  0
 19 42  1  0  0  0  0
 19 43  1  0  0  0  0
 20 21  1  0  0  0  0
 20 44  1  0  0  0  0
 20 45  1  0  0  0  0
 21 46  1  0  0  0  0
 21 47  1  0  0  0  0
 22 23  1  0  0  0  0
 22 48  1  0  0  0  0
 22 49  1  0  0  0  0
 23 24  1  0  0  0  0
 23 25  1  0  0  0  0
 23 50  1  0  0  0  0
 24 51  1  0  0  0  0
 24 52  1  0  0  0  0
 24 53  1  0  0  0  0
M  CHG  1   4   1
M  CHG  1   7  -1
M  CHG  1  15   1
M  END
> <s_m_source_file>
AV-unprocessed.smi

> <i_m_source_file_index>
1244

> <i_lp_mmshare_version>
43012

> <i_f3d_flags>
0

> <s_epik_input>
W0NIM11bQ0BASF0xW0NIMl1OKFtDSDJdW0NASF0oTzEpW0NIM10pW0NIMl1bQ0gyXVtOSF1DKD1PKVtOSF1jMltjSF1bY0hdW2NIXW5jMk4zW0NIMl1bQ0gyXVtDSDJdW0NIMl0z

> <s_epik_cmdline>
J2VwaWtfcHl0aG9uJywgJy1waCcsICc3LjAnLCAnLXRuJywgJzgnLCAnLW1hJywgJzIwMCcsICctbWV0YWxfYmluZGluZycsICctaW1hZScsICc8aW5maWxlLm1hZT4nLCAnLW9tYWUnLCAnPG91dGZpbGUubWFlPic=

> <r_lp_tautomer_probability>
0.999994

> <r_epik_Ionization_Penalty>
8.60539

> <r_epik_Ionization_Penalty_Charging>
8.60539

> <r_epik_Ionization_Penalty_Neutral>
3.60441e-06

> <r_epik_State_Penalty>
8.59967

> <r_epik_Charging_Adjusted_Penalty>
17.2051

> <i_epik_Tot_Q>
1

> <i_epik_Tot_abs_Q>
3

> <r_epik_Metal_State_Penalty>
4.59489

> <b_epik_Metal_Only>
1

> <s_lp_Force_Field>
OPLS_2005

> <r_lp_Energy>
46.9431

> <b_lp_Chiralities_Consistent>
1

> <s_lp_Variant>
AV-unprocessed.smi:1244-18

> <Gold.Version>
5.8.1

> <Gold.Id.Protein>
6NUR|6NUR_protein|mol2

> <Gold.PLP.Fitness>
46.1071

> <Gold.PLP.PLP>
-43.7131

> <Gold.PLP.part.hbond>
-1.0000

> <Gold.PLP.part.metal>
0.0000

> <Gold.PLP.part.buried>
-5.3717

> <Gold.PLP.part.nonpolar>
-37.3190

> <Gold.PLP.part.repulsive>
0.7853

> <Gold.PLP.ligand.clash>
0.0000

> <Gold.PLP.ligand.torsion>
0.8533

> <Gold.PLP.Chemscore.Hbond>
1.0000

> <Gold.PLP.Chemscore.CHOScore>
0.0000

> <Gold.PLP.Chemscore.Metal>
0.0000

> <Gold.Chemscore.Hbonds>
donor molecule, donor type, donor heavy atom, donor atom, acceptor molecule, acceptor atom, score
      P1  H  7989  7998       L1    25  1.00

> <Gold.PLP.Chemscore.Internal.Correction>
1.1006

> <Gold.Rescore>
     Score         DG    S(hbond)    S(metal)    S(lipo)     H(rot)  DE(clash)    DE(int)     intcor
     14.06     -17.47       0.92        0.00     107.33       1.42       0.40       3.02       ----

> <Gold.Chemscore.Fitness>
14.0578

> <Gold.Chemscore.DG>
-17.4743

> <Gold.Chemscore.ZeroCoef>
-5.4800

> <Gold.Chemscore.Hbond>
0.9187

> <Gold.Chemscore.Metal>
0.0000

> <Gold.Chemscore.Lipo>
107.3256

> <Gold.Chemscore.Internal_Hbond>
0.0000

> <Gold.Chemscore.DEClash>
0.3977

> <Gold.Chemscore.DEInternal>
3.0189

> <Gold.Chemscore.Rot>
1.4185

> <Gold.Chemscore.Internal.Correction>
   9.000000E+99

> <Gold.Chemscore.Hbonds>
donor molecule, donor type, donor heavy atom, donor atom, acceptor molecule, acceptor atom, score
      P1  H  7989  7998       L1    25  0.86

> <Gold.Chemscore.Hbond.Weighted>
-3.0685

> <Gold.Chemscore.Metal.Weighted>
-0.0000

> <Gold.Chemscore.Lipo.Weighted>
-12.5571

> <Gold.Chemscore.Internal_Hbond.Weighted>
0.0000

> <Gold.Chemscore.DEClash.Weighted>
0.3977

> <Gold.Chemscore.DEInternal.Weighted>
3.0189

> <Gold.Chemscore.Rot.Weighted>
3.6313

> <Gold.Chemscore.Internal.Correction.Weighted>
   9.000000E+99

> <Gold.Protein.RotatedTorsions>
[ 6907 6896 6895 6894 ] final -123.57 input  -60.11 | X-H torsion
[ 7974 7965 7964 7962 ] final -146.95 input  175.53 | X-H torsion
[ 8008 7997 7996 7995 ] final  170.92 input   59.86 | X-H torsion
[ 10167 10162 10161 10158 ] final   28.69 input  -65.29 | X-H torsion
[ 10718 10713 10712 10709 ] final   14.92 input   66.30 | X-H torsion
[ 10763 10752 10751 10750 ] final   25.73 input  -60.55 | X-H torsion
[ 11005 11000 10999 10996 ] final -113.34 input  -57.11 | X-H torsion

> <Gold.Protein.ActiveResidues>
 VAL166  LYS551  ARG553  GLY616  TRP617  ASP618  TYR619  PRO620  LYS621  CYS622 
 ASP623  PHE694  ASN695  SER759  ASP760  ASP761  ALA762  ILE779  LEU786  VAL792 
 PHE793  MET794  SER795  GLU796  ALA797  LYS798  CYS799  TRP800  GLU811  SER814 

> <Gold.Protein.RotatedAtoms>
  150.8684  133.7541  159.2969 H   0  0  0  0  0  0  0  0  0  0  0  0  # atno 6907 bound_to 6896
  151.5161  135.1064  159.9876 H   0  0  0  0  0  0  0  0  0  0  0  0  # atno 6908 bound_to 6896
  152.4677  133.7915  159.6960 H   0  0  0  0  0  0  0  0  0  0  0  0  # atno 6909 bound_to 6896
  144.8125  140.5390  143.5632 H   0  0  0  0  0  0  0  0  0  0  0  0  # atno 7974 bound_to 7965
  156.1320  140.1525  156.9051 H   0  0  0  0  0  0  0  0  0  0  0  0  # atno 8008 bound_to 7997
  154.4917  140.0849  156.7648 H   0  0  0  0  0  0  0  0  0  0  0  0  # atno 8009 bound_to 7997
  155.4238  140.3424  155.4276 H   0  0  0  0  0  0  0  0  0  0  0  0  # atno 8010 bound_to 7997
  140.4831  144.0585  150.6271 H   0  0  0  0  0  0  0  0  0  0  0  0  # atno 10167 bound_to 10162
  157.0461  130.6251  149.5759 H   0  0  0  0  0  0  0  0  0  0  0  0  # atno 10718 bound_to 10713
  153.0671  135.6576  154.0330 H   0  0  0  0  0  0  0  0  0  0  0  0  # atno 10763 bound_to 10752
  153.9984  135.2939  155.3406 H   0  0  0  0  0  0  0  0  0  0  0  0  # atno 10764 bound_to 10752
  154.7033  135.5236  153.8627 H   0  0  0  0  0  0  0  0  0  0  0  0  # atno 10765 bound_to 10752
  141.0620  133.9520  157.2649 H   0  0  0  0  0  0  0  0  0  0  0  0  # atno 11005 bound_to 11000
  145.5290  139.1475  143.3510 LP  0  0  0  0  0  0  0  0  0  0  0  0  # atno 17320 bound_to 7965
  146.2425  140.5431  142.8928 LP  0  0  0  0  0  0  0  0  0  0  0  0  # atno 17321 bound_to 7965
  140.3833  143.2791  152.0145 LP  0  0  0  0  0  0  0  0  0  0  0  0  # atno 17342 bound_to 10162
  139.4837  144.6137  151.7386 LP  0  0  0  0  0  0  0  0  0  0  0  0  # atno 17343 bound_to 10162
  156.0022  130.5104  150.7705 LP  0  0  0  0  0  0  0  0  0  0  0  0  # atno 17370 bound_to 10713
  157.5067  131.0922  151.0248 LP  0  0  0  0  0  0  0  0  0  0  0  0  # atno 17371 bound_to 10713
  139.9441  135.0187  156.8800 LP  0  0  0  0  0  0  0  0  0  0  0  0  # atno 17394 bound_to 11000
  140.5849  134.0317  155.7478 LP  0  0  0  0  0  0  0  0  0  0  0  0  # atno 17395 bound_to 11000

$$$$
