AV-unprocessed.smi:2630|AV-procd|sdf|10246|dock4
  -GOLD-   2272014253D 1   1.00000     0.00000
 Structure written by MMmdl.
 35 36  0  0  0  0  0  0  0  0  1 V2000
  146.4613  142.4537  154.6441 C   0  0  0  0  0  0  0  0  0  0  0  0
  146.6143  141.1367  155.1418 O   0  0  0  0  0  0  0  0  0  0  0  0
  147.6492  141.0362  156.1066 C   0  0  0  0  0  0  0  0  0  0  0  0
  148.9964  141.3910  155.4554 C   0  0  0  0  0  0  0  0  0  0  0  0
  150.1346  140.8779  156.1920 N   0  0  0  0  0  0  0  0  0  0  0  0
  150.4329  141.2354  157.5096 C   0  0  0  0  0  0  0  0  0  0  0  0
  149.6003  142.1203  158.1735 N   0  0  0  0  0  0  0  0  0  0  0  0
  151.5332  140.7425  158.1355 C   0  0  0  0  0  0  0  0  0  0  0  0
  152.0373  141.1391  159.7929 S   0  0  0  0  0  0  0  0  0  0  0  0
  152.0396  142.9014  159.7329 C   0  0  0  0  0  0  0  0  0  0  0  0
  152.2350  143.5635  158.5041 C   0  0  0  0  0  0  0  0  0  0  0  0
  152.2456  144.9711  158.4592 C   0  0  0  0  0  0  0  0  0  0  0  0
  152.0585  145.7152  159.6407 C   0  0  0  0  0  0  0  0  0  0  0  0
  151.8615  145.0522  160.8683 C   0  0  0  0  0  0  0  0  0  0  0  0
  151.8515  143.6444  160.9153 C   0  0  0  0  0  0  0  0  0  0  0  0
  152.4582  139.8154  157.4800 C   0  0  0  0  0  0  0  0  0  0  0  0
  153.4664  139.3102  157.9732 O   0  0  0  0  0  0  0  0  0  0  0  0
  152.1107  139.5133  156.1636 N   0  0  0  0  0  0  0  0  0  0  0  0
  150.9989  140.0062  155.4822 C   0  0  0  0  0  0  0  0  0  0  0  0
  150.8144  139.6752  154.3105 O   0  0  0  0  0  0  0  0  0  0  0  0
  152.7200  138.8866  155.6583 H   0  0  0  0  0  0  0  0  0  0  0  0
  145.6563  142.4768  153.9096 H   0  0  0  0  0  0  0  0  0  0  0  0
  147.3732  142.7999  154.1557 H   0  0  0  0  0  0  0  0  0  0  0  0
  146.2059  143.1494  155.4447 H   0  0  0  0  0  0  0  0  0  0  0  0
  147.4490  141.7269  156.9267 H   0  0  0  0  0  0  0  0  0  0  0  0
  147.6791  140.0314  156.5308 H   0  0  0  0  0  0  0  0  0  0  0  0
  149.0628  141.0070  154.4383 H   0  0  0  0  0  0  0  0  0  0  0  0
  149.1267  142.4702  155.3609 H   0  0  0  0  0  0  0  0  0  0  0  0
  148.7830  142.5138  157.7296 H   0  0  0  0  0  0  0  0  0  0  0  0
  149.7193  142.3259  159.1550 H   0  0  0  0  0  0  0  0  0  0  0  0
  152.3806  142.9964  157.5965 H   0  0  0  0  0  0  0  0  0  0  0  0
  152.3977  145.4799  157.5188 H   0  0  0  0  0  0  0  0  0  0  0  0
  152.0665  146.7947  159.6051 H   0  0  0  0  0  0  0  0  0  0  0  0
  151.7190  145.6232  161.7738 H   0  0  0  0  0  0  0  0  0  0  0  0
  151.7040  143.1378  161.8580 H   0  0  0  0  0  0  0  0  0  0  0  0
  1  2  1  0  0  0  0
  1 22  1  0  0  0  0
  1 23  1  0  0  0  0
  1 24  1  0  0  0  0
  2  3  1  0  0  0  0
  3  4  1  0  0  0  0
  3 25  1  0  0  0  0
  3 26  1  0  0  0  0
  4  5  1  0  0  0  0
  4 27  1  0  0  0  0
  4 28  1  0  0  0  0
  5 19  1  0  0  0  0
  5  6  1  0  0  0  0
  6  7  1  0  0  0  0
  6  8  2  0  0  0  0
  7 29  1  0  0  0  0
  7 30  1  0  0  0  0
  8  9  1  0  0  0  0
  8 16  1  0  0  0  0
  9 10  1  0  0  0  0
 10 15  1  0  0  0  0
 10 11  2  0  0  0  0
 11 12  1  0  0  0  0
 11 31  1  0  0  0  0
 12 13  2  0  0  0  0
 12 32  1  0  0  0  0
 13 14  1  0  0  0  0
 13 33  1  0  0  0  0
 14 15  2  0  0  0  0
 14 34  1  0  0  0  0
 15 35  1  0  0  0  0
 16 17  2  0  0  0  0
 16 18  1  0  0  0  0
 18 21  1  0  0  0  0
 18 19  1  0  0  0  0
 19 20  2  0  0  0  0
M  END
> <s_m_source_file>
AV-unprocessed.smi

> <i_m_source_file_index>
2630

> <i_lp_mmshare_version>
43012

> <i_f3d_flags>
0

> <s_epik_input>
W0NIM11PW0NIMl1bQ0gyXW4xYyhbTkgyXSljKGMoPU8pW25IXWMxPU8pU2MyW2NIXVtjSF1bY0hdW2NIXVtjSF0y

> <s_epik_cmdline>
J2VwaWtfcHl0aG9uJywgJy1waCcsICc3LjAnLCAnLXRuJywgJzgnLCAnLW1hJywgJzIwMCcsICctbWV0YWxfYmluZGluZycsICctaW1hZScsICc8aW5maWxlLm1hZT4nLCAnLW9tYWUnLCAnPG91dGZpbGUubWFlPic=

> <r_lp_tautomer_probability>
1

> <r_epik_Ionization_Penalty>
1.3786e-05

> <r_epik_Ionization_Penalty_Charging>
1.17844e-05

> <r_epik_Ionization_Penalty_Neutral>
2.00164e-06

> <r_epik_State_Penalty>
-0

> <r_epik_Charging_Adjusted_Penalty>
1.17844e-05

> <i_epik_Tot_Q>
0

> <i_epik_Tot_abs_Q>
0

> <r_epik_Metal_State_Penalty>
0.0115847

> <b_epik_Metal_Only>
0

> <s_epik_Chemistry_Notes>
This compound has an imine and may undergo hydrolysis.

> <s_lp_Force_Field>
OPLS_2005

> <r_lp_Energy>
18.8348

> <b_lp_Chiralities_Consistent>
1

> <s_lp_Variant>
AV-unprocessed.smi:2630-1

> <Gold.Version>
5.8.1

> <Gold.Id.Protein>
6NUR|6NUR_protein|mol2

> <Gold.PLP.Fitness>
44.8925

> <Gold.PLP.PLP>
-39.9135

> <Gold.PLP.part.hbond>
-2.0000

> <Gold.PLP.part.metal>
0.0000

> <Gold.PLP.part.buried>
-2.1926

> <Gold.PLP.part.nonpolar>
-36.1086

> <Gold.PLP.part.repulsive>
0.5044

> <Gold.PLP.ligand.clash>
0.0429

> <Gold.PLP.ligand.torsion>
0.5086

> <Gold.PLP.Chemscore.Hbond>
2.0000

> <Gold.PLP.Chemscore.CHOScore>
0.0000

> <Gold.PLP.Chemscore.Metal>
0.0000

> <Gold.Chemscore.Hbonds>
donor molecule, donor type, donor heavy atom, donor atom, acceptor molecule, acceptor atom, score
      P1  H  7989  7998       L1    20  1.00
      P1  H  7997  8009       L1    17  0.99

> <Gold.PLP.Chemscore.Internal.Correction>
0.0391

> <Gold.Rescore>
     Score         DG    S(hbond)    S(metal)    S(lipo)     H(rot)  DE(clash)    DE(int)     intcor
     14.96     -16.83       1.30        0.00     105.26       2.07       0.57       1.30       ----

> <Gold.Chemscore.Fitness>
14.9644

> <Gold.Chemscore.DG>
-16.8318

> <Gold.Chemscore.ZeroCoef>
-5.4800

> <Gold.Chemscore.Hbond>
1.2964

> <Gold.Chemscore.Metal>
0.0000

> <Gold.Chemscore.Lipo>
105.2642

> <Gold.Chemscore.Internal_Hbond>
0.0000

> <Gold.Chemscore.DEClash>
0.5710

> <Gold.Chemscore.DEInternal>
1.2965

> <Gold.Chemscore.Rot>
2.0680

> <Gold.Chemscore.Internal.Correction>
   9.000000E+99

> <Gold.Chemscore.Hbonds>
donor molecule, donor type, donor heavy atom, donor atom, acceptor molecule, acceptor atom, score
      P1  H  7989  7998       L1    20  0.35
      P1  H  7997  8009       L1    17  0.65

> <Gold.Chemscore.Hbond.Weighted>
-4.3300

> <Gold.Chemscore.Metal.Weighted>
-0.0000

> <Gold.Chemscore.Lipo.Weighted>
-12.3159

> <Gold.Chemscore.Internal_Hbond.Weighted>
0.0000

> <Gold.Chemscore.DEClash.Weighted>
0.5710

> <Gold.Chemscore.DEInternal.Weighted>
1.2965

> <Gold.Chemscore.Rot.Weighted>
5.2941

> <Gold.Chemscore.Internal.Correction.Weighted>
   9.000000E+99

> <Gold.Protein.RotatedTorsions>
[ 6907 6896 6895 6894 ] final  132.36 input  -60.11 | X-H torsion
[ 7974 7965 7964 7962 ] final   11.62 input  175.53 | X-H torsion
[ 8008 7997 7996 7995 ] final  133.63 input   59.86 | X-H torsion
[ 10167 10162 10161 10158 ] final   -5.62 input  -65.29 | X-H torsion
[ 10718 10713 10712 10709 ] final   90.88 input   66.30 | X-H torsion
[ 10763 10752 10751 10750 ] final   12.38 input  -60.55 | X-H torsion
[ 11005 11000 10999 10996 ] final  116.72 input  -57.11 | X-H torsion

> <Gold.Protein.ActiveResidues>
 VAL166  LYS551  ARG553  GLY616  TRP617  ASP618  TYR619  PRO620  LYS621  CYS622 
 ASP623  PHE694  ASN695  SER759  ASP760  ASP761  ALA762  ILE779  LEU786  VAL792 
 PHE793  MET794  SER795  GLU796  ALA797  LYS798  CYS799  TRP800  GLU811  SER814 

> <Gold.Protein.RotatedAtoms>
  152.3332  133.5982  159.5824 H   0  0  0  0  0  0  0  0  0  0  0  0  # atno 6907 bound_to 6896
  150.7435  133.9836  159.3593 H   0  0  0  0  0  0  0  0  0  0  0  0  # atno 6908 bound_to 6896
  151.7708  135.0787  160.0410 H   0  0  0  0  0  0  0  0  0  0  0  0  # atno 6909 bound_to 6896
  146.2367  139.9458  142.8477 H   0  0  0  0  0  0  0  0  0  0  0  0  # atno 7974 bound_to 7965
  156.2993  140.2516  156.3285 H   0  0  0  0  0  0  0  0  0  0  0  0  # atno 8008 bound_to 7997
  154.9168  140.0402  157.1995 H   0  0  0  0  0  0  0  0  0  0  0  0  # atno 8009 bound_to 7997
  154.8351  140.2882  155.5701 H   0  0  0  0  0  0  0  0  0  0  0  0  # atno 8010 bound_to 7997
  140.6969  143.6287  150.8543 H   0  0  0  0  0  0  0  0  0  0  0  0  # atno 10167 bound_to 10162
  157.6960  131.0387  150.3645 H   0  0  0  0  0  0  0  0  0  0  0  0  # atno 10718 bound_to 10713
  153.1829  135.6830  153.8454 H   0  0  0  0  0  0  0  0  0  0  0  0  # atno 10763 bound_to 10752
  153.7780  135.3186  155.3363 H   0  0  0  0  0  0  0  0  0  0  0  0  # atno 10764 bound_to 10752
  154.8070  135.4742  154.0515 H   0  0  0  0  0  0  0  0  0  0  0  0  # atno 10765 bound_to 10752
  139.9050  134.9601  156.7241 H   0  0  0  0  0  0  0  0  0  0  0  0  # atno 11005 bound_to 11000
  145.1908  140.9811  143.4212 LP  0  0  0  0  0  0  0  0  0  0  0  0  # atno 17320 bound_to 7965
  144.9858  139.3737  143.6239 LP  0  0  0  0  0  0  0  0  0  0  0  0  # atno 17321 bound_to 7965
  140.0006  143.5748  152.2877 LP  0  0  0  0  0  0  0  0  0  0  0  0  # atno 17342 bound_to 10162
  139.6436  144.7656  151.2289 LP  0  0  0  0  0  0  0  0  0  0  0  0  # atno 17343 bound_to 10162
  156.4077  130.3928  149.6914 LP  0  0  0  0  0  0  0  0  0  0  0  0  # atno 17370 bound_to 10713
  156.4209  130.7768  151.2785 LP  0  0  0  0  0  0  0  0  0  0  0  0  # atno 17371 bound_to 10713
  140.6977  133.9334  155.8005 LP  0  0  0  0  0  0  0  0  0  0  0  0  # atno 17394 bound_to 11000
  141.0395  134.0642  157.3919 LP  0  0  0  0  0  0  0  0  0  0  0  0  # atno 17395 bound_to 11000

$$$$
