AV-unprocessed.smi:2472|AV-procd|sdf|9742|dock10
  -GOLD-   2272013383D 1   1.00000     0.00000
 Structure written by MMmdl.
 48 50  0  0  0  0  0  0  0  0  2 V2000
  151.4476  144.7351  159.2906 C   0  0  0  0  0  0  0  0  0  0  0  0
  152.2699  143.4678  159.4454 C   0  0  0  0  0  0  0  0  0  0  0  0
  153.2218  143.3779  160.4845 C   0  0  0  0  0  0  0  0  0  0  0  0
  153.9606  142.2579  160.6325 N   0  3  0  0  0  0  0  0  0  0  0  0
  153.8404  141.1908  159.8158 C   0  0  0  0  0  0  0  0  0  0  0  0
  152.9085  141.2165  158.7593 C   0  0  0  0  0  0  0  0  0  0  0  0
  152.0961  142.3635  158.5722 C   0  0  0  0  0  0  0  0  0  0  0  0
  151.1483  142.4659  157.5160 N   0  0  0  0  0  0  0  0  0  0  0  0
  150.3372  141.5065  157.0398 C   0  0  0  0  0  0  0  0  0  0  0  0
  150.2977  140.3470  157.4509 O   0  0  0  0  0  0  0  0  0  0  0  0
  149.5361  141.9831  156.0701 N   0  0  0  0  0  0  0  0  0  0  0  0
  148.4865  141.2600  155.3273 C   0  0  0  0  0  0  0  0  0  0  0  0
  148.9120  139.8196  154.9203 C   0  0  0  0  0  0  0  0  0  0  0  0
  148.3051  138.8476  155.3722 O   0  0  0  0  0  0  0  0  0  0  0  0
  149.9572  139.6792  154.0883 N   0  0  0  0  0  0  0  0  0  0  0  0
  150.4751  138.4108  153.6001 C   0  0  0  0  0  0  0  0  0  0  0  0
  151.9543  138.2183  153.8602 C   0  0  0  0  0  0  0  0  0  0  0  0
  152.4720  138.0522  155.2697 C   0  0  0  0  0  0  0  0  0  0  0  0
  152.7820  139.3109  154.4952 C   0  0  0  0  0  0  0  0  0  0  0  0
  147.2320  141.1687  156.2291 C   0  0  0  0  0  0  0  0  0  0  0  0
  146.0251  141.3100  155.3040 C   0  0  0  0  0  0  0  0  0  0  0  0
  146.4843  142.3141  154.2554 C   0  0  0  0  0  0  0  0  0  0  0  0
  147.9934  142.0869  154.0978 C   0  0  0  0  0  0  0  0  0  0  0  0
  151.6833  145.4581  160.0720 H   0  0  0  0  0  0  0  0  0  0  0  0
  150.3826  144.5092  159.3525 H   0  0  0  0  0  0  0  0  0  0  0  0
  151.6475  145.2032  158.3263 H   0  0  0  0  0  0  0  0  0  0  0  0
  153.4164  144.1647  161.1990 H   0  0  0  0  0  0  0  0  0  0  0  0
  154.4927  140.3560  160.0260 H   0  0  0  0  0  0  0  0  0  0  0  0
  152.8404  140.3617  158.1035 H   0  0  0  0  0  0  0  0  0  0  0  0
  151.0012  143.3956  157.1509 H   0  0  0  0  0  0  0  0  0  0  0  0
  149.6516  142.9534  155.8170 H   0  0  0  0  0  0  0  0  0  0  0  0
  150.4146  140.5164  153.7592 H   0  0  0  0  0  0  0  0  0  0  0  0
  149.9153  137.5941  154.0584 H   0  0  0  0  0  0  0  0  0  0  0  0
  150.3084  138.3452  152.5237 H   0  0  0  0  0  0  0  0  0  0  0  0
  152.4548  137.6135  153.1058 H   0  0  0  0  0  0  0  0  0  0  0  0
  151.7567  138.1290  156.0863 H   0  0  0  0  0  0  0  0  0  0  0  0
  153.2847  137.3458  155.4265 H   0  0  0  0  0  0  0  0  0  0  0  0
  153.8001  139.4429  154.1340 H   0  0  0  0  0  0  0  0  0  0  0  0
  152.2726  140.2240  154.7970 H   0  0  0  0  0  0  0  0  0  0  0  0
  147.1831  140.2483  156.8139 H   0  0  0  0  0  0  0  0  0  0  0  0
  147.2176  141.9915  156.9459 H   0  0  0  0  0  0  0  0  0  0  0  0
  145.8040  140.3526  154.8306 H   0  0  0  0  0  0  0  0  0  0  0  0
  145.1276  141.6354  155.8306 H   0  0  0  0  0  0  0  0  0  0  0  0
  145.9457  142.2064  153.3134 H   0  0  0  0  0  0  0  0  0  0  0  0
  146.3057  143.3260  154.6216 H   0  0  0  0  0  0  0  0  0  0  0  0
  148.4891  143.0544  154.0126 H   0  0  0  0  0  0  0  0  0  0  0  0
  148.1921  141.5733  153.1560 H   0  0  0  0  0  0  0  0  0  0  0  0
  154.6423  142.2184  161.3908 H   0  0  0  0  0  0  0  0  0  0  0  0
  1  2  1  0  0  0  0
  1 24  1  0  0  0  0
  1 25  1  0  0  0  0
  1 26  1  0  0  0  0
  2  7  1  0  0  0  0
  2  3  2  0  0  0  0
  3  4  1  0  0  0  0
  3 27  1  0  0  0  0
  4  5  2  0  0  0  0
  4 48  1  0  0  0  0
  5  6  1  0  0  0  0
  5 28  1  0  0  0  0
  6  7  2  0  0  0  0
  6 29  1  0  0  0  0
  7  8  1  0  0  0  0
  8  9  1  0  0  0  0
  8 30  1  0  0  0  0
  9 10  2  0  0  0  0
  9 11  1  0  0  0  0
 11 12  1  0  0  0  0
 11 31  1  0  0  0  0
 12 23  1  0  0  0  0
 12 13  1  0  0  0  0
 12 20  1  0  0  0  0
 13 14  2  0  0  0  0
 13 15  1  0  0  0  0
 15 16  1  0  0  0  0
 15 32  1  0  0  0  0
 16 17  1  0  0  0  0
 16 33  1  0  0  0  0
 16 34  1  0  0  0  0
 17 19  1  0  0  0  0
 17 18  1  0  0  0  0
 17 35  1  0  0  0  0
 18 19  1  0  0  0  0
 18 36  1  0  0  0  0
 18 37  1  0  0  0  0
 19 38  1  0  0  0  0
 19 39  1  0  0  0  0
 20 21  1  0  0  0  0
 20 40  1  0  0  0  0
 20 41  1  0  0  0  0
 21 22  1  0  0  0  0
 21 42  1  0  0  0  0
 21 43  1  0  0  0  0
 22 23  1  0  0  0  0
 22 44  1  0  0  0  0
 22 45  1  0  0  0  0
 23 46  1  0  0  0  0
 23 47  1  0  0  0  0
M  CHG  1   4   1
M  END
> <s_m_source_file>
AV-unprocessed.smi

> <i_m_source_file_index>
2472

> <i_lp_mmshare_version>
43012

> <i_f3d_flags>
0

> <s_epik_input>
W0NIM11jMVtjSF1uW2NIXVtjSF1jMVtOSF1DKD1PKVtOSF1DMihbQ0gyXVtDSDJdW0NIMl1bQ0gyXTIpQyg9TylbTkhdW0NIMl1bQ0hdM1tDSDJdW0NIMl0z

> <s_epik_cmdline>
J2VwaWtfcHl0aG9uJywgJy1waCcsICc3LjAnLCAnLXRuJywgJzgnLCAnLW1hJywgJzIwMCcsICctbWV0YWxfYmluZGluZycsICctaW1hZScsICc8aW5maWxlLm1hZT4nLCAnLW9tYWUnLCAnPG91dGZpbGUubWFlPic=

> <r_epik_Ionization_Penalty>
0.772167

> <r_epik_Ionization_Penalty_Charging>
0.772149

> <r_epik_Ionization_Penalty_Neutral>
1.87678e-05

> <r_epik_State_Penalty>
0.800952

> <r_epik_Charging_Adjusted_Penalty>
1.5731

> <i_epik_Tot_Q>
1

> <i_epik_Tot_abs_Q>
1

> <r_epik_Metal_State_Penalty>
0.9454

> <b_epik_Metal_Only>
0

> <s_lp_Force_Field>
OPLS_2005

> <r_lp_Energy>
39.076

> <b_lp_Chiralities_Consistent>
1

> <s_lp_Variant>
AV-unprocessed.smi:2472-2

> <Gold.Version>
5.8.1

> <Gold.Id.Protein>
6NUR|6NUR_protein|mol2

> <Gold.PLP.Fitness>
44.8939

> <Gold.PLP.PLP>
-43.3490

> <Gold.PLP.part.hbond>
-1.1035

> <Gold.PLP.part.metal>
0.0000

> <Gold.PLP.part.buried>
-5.9132

> <Gold.PLP.part.nonpolar>
-36.9895

> <Gold.PLP.part.repulsive>
0.2758

> <Gold.PLP.ligand.clash>
0.0000

> <Gold.PLP.ligand.torsion>
1.0354

> <Gold.PLP.Chemscore.Hbond>
0.9920

> <Gold.PLP.Chemscore.CHOScore>
0.0000

> <Gold.PLP.Chemscore.Metal>
0.0000

> <Gold.Chemscore.Hbonds>
donor molecule, donor type, donor heavy atom, donor atom, acceptor molecule, acceptor atom, score
      L1  H    11    31       P1  8028  0.98

> <Gold.PLP.Chemscore.Internal.Correction>
0.6397

> <Gold.Rescore>
     Score         DG    S(hbond)    S(metal)    S(lipo)     H(rot)  DE(clash)    DE(int)     intcor
     14.87     -18.70       0.98        0.00     120.55       1.63       0.13       3.70       ----

> <Gold.Chemscore.Fitness>
14.8681

> <Gold.Chemscore.DG>
-18.6992

> <Gold.Chemscore.ZeroCoef>
-5.4800

> <Gold.Chemscore.Hbond>
0.9831

> <Gold.Chemscore.Metal>
0.0000

> <Gold.Chemscore.Lipo>
120.5536

> <Gold.Chemscore.Internal_Hbond>
0.0000

> <Gold.Chemscore.DEClash>
0.1321

> <Gold.Chemscore.DEInternal>
3.6990

> <Gold.Chemscore.Rot>
1.6286

> <Gold.Chemscore.Internal.Correction>
   9.000000E+99

> <Gold.Chemscore.Hbonds>
donor molecule, donor type, donor heavy atom, donor atom, acceptor molecule, acceptor atom, score
      L1  H    11    31       P1  8028  0.93

> <Gold.Chemscore.Hbond.Weighted>
-3.2836

> <Gold.Chemscore.Metal.Weighted>
-0.0000

> <Gold.Chemscore.Lipo.Weighted>
-14.1048

> <Gold.Chemscore.Internal_Hbond.Weighted>
0.0000

> <Gold.Chemscore.DEClash.Weighted>
0.1321

> <Gold.Chemscore.DEInternal.Weighted>
3.6990

> <Gold.Chemscore.Rot.Weighted>
4.1692

> <Gold.Chemscore.Internal.Correction.Weighted>
   9.000000E+99

> <Gold.Protein.RotatedTorsions>
[ 6907 6896 6895 6894 ] final -164.18 input  -60.11 | X-H torsion
[ 7974 7965 7964 7962 ] final   19.34 input  175.53 | X-H torsion
[ 8008 7997 7996 7995 ] final -166.48 input   59.86 | X-H torsion
[ 10167 10162 10161 10158 ] final   17.22 input  -65.29 | X-H torsion
[ 10718 10713 10712 10709 ] final   -7.58 input   66.30 | X-H torsion
[ 10763 10752 10751 10750 ] final  173.04 input  -60.55 | X-H torsion
[ 11005 11000 10999 10996 ] final   67.39 input  -57.11 | X-H torsion

> <Gold.Protein.ActiveResidues>
 VAL166  LYS551  ARG553  GLY616  TRP617  ASP618  TYR619  PRO620  LYS621  CYS622 
 ASP623  PHE694  ASN695  SER759  ASP760  ASP761  ALA762  ILE779  LEU786  VAL792 
 PHE793  MET794  SER795  GLU796  ALA797  LYS798  CYS799  TRP800  GLU811  SER814 

> <Gold.Protein.RotatedAtoms>
  151.4078  133.3737  159.2739 H   0  0  0  0  0  0  0  0  0  0  0  0  # atno 6907 bound_to 6896
  150.9385  134.8797  159.7608 H   0  0  0  0  0  0  0  0  0  0  0  0  # atno 6908 bound_to 6896
  152.5061  134.4027  159.9474 H   0  0  0  0  0  0  0  0  0  0  0  0  # atno 6909 bound_to 6896
  146.2153  139.8328  142.8657 H   0  0  0  0  0  0  0  0  0  0  0  0  # atno 7974 bound_to 7965
  155.8644  140.0983  157.1592 H   0  0  0  0  0  0  0  0  0  0  0  0  # atno 8008 bound_to 7997
  154.3992  140.1359  156.4063 H   0  0  0  0  0  0  0  0  0  0  0  0  # atno 8009 bound_to 7997
  155.7820  140.3458  155.5305 H   0  0  0  0  0  0  0  0  0  0  0  0  # atno 8010 bound_to 7997
  140.5742  143.9104  150.6736 H   0  0  0  0  0  0  0  0  0  0  0  0  # atno 10167 bound_to 10162
  156.7152  130.5134  149.5882 H   0  0  0  0  0  0  0  0  0  0  0  0  # atno 10718 bound_to 10713
  154.4345  135.2760  155.1890 H   0  0  0  0  0  0  0  0  0  0  0  0  # atno 10763 bound_to 10752
  154.3782  135.6093  153.5780 H   0  0  0  0  0  0  0  0  0  0  0  0  # atno 10764 bound_to 10752
  152.9837  135.5874  154.4662 H   0  0  0  0  0  0  0  0  0  0  0  0  # atno 10765 bound_to 10752
  139.9773  134.6801  156.0329 H   0  0  0  0  0  0  0  0  0  0  0  0  # atno 11005 bound_to 11000
  145.2980  141.0186  143.3625 LP  0  0  0  0  0  0  0  0  0  0  0  0  # atno 17320 bound_to 7965
  144.9027  139.4628  143.6624 LP  0  0  0  0  0  0  0  0  0  0  0  0  # atno 17321 bound_to 7965
  140.2587  143.3539  152.1342 LP  0  0  0  0  0  0  0  0  0  0  0  0  # atno 17342 bound_to 10162
  139.5133  144.6931  151.5705 LP  0  0  0  0  0  0  0  0  0  0  0  0  # atno 17343 bound_to 10162
  156.1633  130.6388  151.0746 LP  0  0  0  0  0  0  0  0  0  0  0  0  # atno 17370 bound_to 10713
  157.6920  131.0807  150.7079 LP  0  0  0  0  0  0  0  0  0  0  0  0  # atno 17371 bound_to 10713
  141.1449  133.6558  156.3838 LP  0  0  0  0  0  0  0  0  0  0  0  0  # atno 17394 bound_to 11000
  140.5168  134.6343  157.5304 LP  0  0  0  0  0  0  0  0  0  0  0  0  # atno 17395 bound_to 11000

$$$$
