AV-unprocessed.smi:287|AV-procd|sdf|2192|dock1
  -GOLD-   2262021583D 1   1.00000     0.00000
 Structure written by MMmdl.
 55 58  0  0  0  0  0  0  0  0  1 V2000
  151.9074  143.4350  157.9111 C   0  0  0  0  0  0  0  0  0  0  0  0
  151.1847  142.3212  157.2344 C   0  0  0  0  0  0  0  0  0  0  0  0
  150.8566  142.0594  155.9362 C   0  0  0  0  0  0  0  0  0  0  0  0
  150.1618  140.8131  155.9149 C   0  0  0  0  0  0  0  0  0  0  0  0
  149.6054  140.1192  154.6788 C   0  0  2  0  0  0  0  0  0  0  0  0
  150.3025  138.7624  154.4862 C   0  0  0  0  0  0  0  0  0  0  0  0
  149.8502  140.8404  153.4869 O   0  0  0  0  0  0  0  0  0  0  0  0
  148.0733  139.9259  154.7503 C   0  0  0  0  0  0  0  0  0  0  0  0
  147.5010  139.4704  153.4874 N   0  0  0  0  0  0  0  0  0  0  0  0
  146.4895  138.5780  153.4831 C   0  0  0  0  0  0  0  0  0  0  0  0
  145.6496  138.4667  154.5450 N   0  0  0  0  0  0  0  0  0  0  0  0
  144.6515  137.5788  154.5143 C   0  0  0  0  0  0  0  0  0  0  0  0
  144.3238  136.7259  153.5417 N   0  0  0  0  0  0  0  0  0  0  0  0
  145.1664  136.8332  152.4731 C   0  0  0  0  0  0  0  0  0  0  0  0
  146.2659  137.7293  152.3688 C   0  0  0  0  0  0  0  0  0  0  0  0
  146.8950  137.5637  151.1417 N   0  0  0  0  0  0  0  0  0  0  0  0
  146.2020  136.6240  150.5564 C   0  0  0  0  0  0  0  0  0  0  0  0
  145.1418  136.1310  151.2839 N   0  0  0  0  0  0  0  0  0  0  0  0
  144.1721  135.0683  150.8721 C   0  0  1  0  0  0  0  0  0  0  0  0
  144.6403  134.4330  149.7284 O   0  0  0  0  0  0  0  0  0  0  0  0
  144.1295  133.1048  149.6878 C   0  0  1  0  0  0  0  0  0  0  0  0
  145.2212  132.1571  149.1577 C   0  0  0  0  0  0  0  0  0  0  0  0
  146.3984  132.2154  149.9368 O   0  0  0  0  0  0  0  0  0  0  0  0
  143.5765  132.7794  151.0924 C   0  0  2  0  0  0  0  0  0  0  0  0
  142.1659  132.6818  151.0301 O   0  0  0  0  0  0  0  0  0  0  0  0
  143.9742  133.9829  151.9396 C   0  0  1  0  0  0  0  0  0  0  0  0
  145.1416  133.7121  152.6935 O   0  0  0  0  0  0  0  0  0  0  0  0
  150.1091  140.4191  157.2305 C   0  0  0  0  0  0  0  0  0  0  0  0
  149.5269  139.2401  157.9379 C   0  0  0  0  0  0  0  0  0  0  0  0
  150.7311  141.3251  158.0357 O   0  0  0  0  0  0  0  0  0  0  0  0
  143.2480  135.5985  150.6371 H   0  0  0  0  0  0  0  0  0  0  0  0
  143.3165  133.1137  148.9597 H   0  0  0  0  0  0  0  0  0  0  0  0
  143.9586  131.8418  151.4984 H   0  0  0  0  0  0  0  0  0  0  0  0
  143.1924  134.2931  152.6344 H   0  0  0  0  0  0  0  0  0  0  0  0
  152.3127  144.1360  157.1813 H   0  0  0  0  0  0  0  0  0  0  0  0
  152.7355  143.0527  158.5079 H   0  0  0  0  0  0  0  0  0  0  0  0
  151.2375  143.9845  158.5724 H   0  0  0  0  0  0  0  0  0  0  0  0
  151.0947  142.6888  155.0915 H   0  0  0  0  0  0  0  0  0  0  0  0
  150.1409  138.1098  155.3449 H   0  0  0  0  0  0  0  0  0  0  0  0
  151.3798  138.8843  154.3655 H   0  0  0  0  0  0  0  0  0  0  0  0
  149.9279  138.2413  153.6044 H   0  0  0  0  0  0  0  0  0  0  0  0
  149.6655  140.2760  152.7519 H   0  0  0  0  0  0  0  0  0  0  0  0
  147.8017  139.2451  155.5585 H   0  0  0  0  0  0  0  0  0  0  0  0
  147.6133  140.8872  154.9846 H   0  0  0  0  0  0  0  0  0  0  0  0
  147.8622  139.9097  152.6525 H   0  0  0  0  0  0  0  0  0  0  0  0
  144.0249  137.5476  155.3933 H   0  0  0  0  0  0  0  0  0  0  0  0
  146.4449  136.2648  149.5670 H   0  0  0  0  0  0  0  0  0  0  0  0
  144.8576  131.1296  149.1809 H   0  0  0  0  0  0  0  0  0  0  0  0
  145.4594  132.3881  148.1192 H   0  0  0  0  0  0  0  0  0  0  0  0
  147.0103  131.5752  149.6072 H   0  0  0  0  0  0  0  0  0  0  0  0
  141.8445  133.3426  150.4363 H   0  0  0  0  0  0  0  0  0  0  0  0
  145.6093  134.5231  152.8226 H   0  0  0  0  0  0  0  0  0  0  0  0
  148.4766  139.1118  157.6754 H   0  0  0  0  0  0  0  0  0  0  0  0
  149.5890  139.3581  159.0200 H   0  0  0  0  0  0  0  0  0  0  0  0
  150.0585  138.3273  157.6685 H   0  0  0  0  0  0  0  0  0  0  0  0
  1  2  1  0  0  0  0
  1 35  1  0  0  0  0
  1 36  1  0  0  0  0
  1 37  1  0  0  0  0
  2 30  1  0  0  0  0
  2  3  2  0  0  0  0
  3  4  1  0  0  0  0
  3 38  1  0  0  0  0
  4  5  1  0  0  0  0
  4 28  2  0  0  0  0
  5  6  1  0  0  0  0
  5  7  1  0  0  0  0
  5  8  1  0  0  0  0
  6 39  1  0  0  0  0
  6 40  1  0  0  0  0
  6 41  1  0  0  0  0
  7 42  1  0  0  0  0
  8  9  1  0  0  0  0
  8 43  1  0  0  0  0
  8 44  1  0  0  0  0
  9 10  1  0  0  0  0
  9 45  1  0  0  0  0
 10 15  1  0  0  0  0
 10 11  2  0  0  0  0
 11 12  1  0  0  0  0
 12 13  2  0  0  0  0
 12 46  1  0  0  0  0
 13 14  1  0  0  0  0
 14 18  1  0  0  0  0
 14 15  2  0  0  0  0
 15 16  1  0  0  0  0
 16 17  2  0  0  0  0
 17 18  1  0  0  0  0
 17 47  1  0  0  0  0
 18 19  1  0  0  0  0
 19 31  1  0  0  0  0
 19 26  1  0  0  0  0
 19 20  1  0  0  0  0
 20 21  1  0  0  0  0
 21 32  1  0  0  0  0
 21 22  1  0  0  0  0
 21 24  1  0  0  0  0
 22 23  1  0  0  0  0
 22 48  1  0  0  0  0
 22 49  1  0  0  0  0
 23 50  1  0  0  0  0
 24 33  1  0  0  0  0
 24 25  1  0  0  0  0
 24 26  1  0  0  0  0
 25 51  1  0  0  0  0
 26 34  1  0  0  0  0
 26 27  1  0  0  0  0
 27 52  1  0  0  0  0
 28 29  1  0  0  0  0
 28 30  1  0  0  0  0
 29 53  1  0  0  0  0
 29 54  1  0  0  0  0
 29 55  1  0  0  0  0
M  END
> <s_m_source_file>
AV-unprocessed.smi

> <i_m_source_file_index>
287

> <i_lp_mmshare_version>
43012

> <i_f3d_flags>
0

> <s_epik_input>
W0NIM11jMVtjSF1jKGMobzEpW0NIM10pW0NAQF0oW0NIM10pKFtPSF0pW0NIMl1bTkhdYyhuW2NIXW4yKWMoYzIzKW5bY0hdbjNbQ0BASF00T1tDQEhdKFtDSDJdW09IXSlbQ0BASF0oW09IXSlbQ0BIXTRbT0hd

> <s_epik_cmdline>
J2VwaWtfcHl0aG9uJywgJy1waCcsICc3LjAnLCAnLXRuJywgJzgnLCAnLW1hJywgJzIwMCcsICctbWV0YWxfYmluZGluZycsICctaW1hZScsICc8aW5maWxlLm1hZT4nLCAnLW9tYWUnLCAnPG91dGZpbGUubWFlPic=

> <r_lp_tautomer_probability>
1

> <r_epik_Ionization_Penalty>
0.000992612

> <r_epik_Ionization_Penalty_Charging>
0

> <r_epik_Ionization_Penalty_Neutral>
0.000992612

> <r_epik_State_Penalty>
-0

> <r_epik_Charging_Adjusted_Penalty>
0

> <i_epik_Tot_Q>
0

> <i_epik_Tot_abs_Q>
0

> <r_epik_Metal_State_Penalty>
-0

> <b_epik_Metal_Only>
0

> <s_epik_Chemistry_Notes>
This compound contains an acetal/aminal-like group ( X-CH(R)-Y where X, Y are N, S, or O) that may be acid/base labile, releasing an aldehyde.

> <s_lp_Force_Field>
OPLS_2005

> <r_lp_Energy>
44.6889

> <b_lp_Chiralities_Consistent>
1

> <s_lp_Variant>
AV-unprocessed.smi:287-16

> <Gold.Version>
5.8.1

> <Gold.Id.Protein>
6NUR|6NUR_protein|mol2

> <Gold.PLP.Fitness>
57.4760

> <Gold.PLP.PLP>
-40.4639

> <Gold.PLP.part.hbond>
-6.7361

> <Gold.PLP.part.metal>
0.0000

> <Gold.PLP.part.buried>
-3.2596

> <Gold.PLP.part.nonpolar>
-37.4214

> <Gold.PLP.part.repulsive>
7.7895

> <Gold.PLP.ligand.clash>
0.0000

> <Gold.PLP.ligand.torsion>
0.6297

> <Gold.PLP.Chemscore.Hbond>
4.9935

> <Gold.PLP.Chemscore.CHOScore>
1.0000

> <Gold.PLP.Chemscore.Metal>
0.0000

> <Gold.Chemscore.Hbonds>
donor molecule, donor type, donor heavy atom, donor atom, acceptor molecule, acceptor atom, score
      L1  H     7    42       P1  7957  0.98
      L1  H     9    45       P1  7957  0.34
      L1  H    23    50       P1 10747  0.45
      L1  H    25    51       P1 10186  1.00
      P1  H  7954  7966       L1    16  1.00
      P1  H  7989  7998       L1     7  0.32
      P1  H  8011  8017       L1     7  0.55
      L1  C    17    47       P1  7921  1.00

> <Gold.PLP.Chemscore.Internal.Correction>
0.2909

> <Gold.Rescore>
     Score         DG    S(hbond)    S(metal)    S(lipo)     H(rot)  DE(clash)    DE(int)     intcor
     11.79     -16.88       4.05        0.00      97.00       5.27       4.66       0.43       ----

> <Gold.Chemscore.Fitness>
11.7920

> <Gold.Chemscore.DG>
-16.8802

> <Gold.Chemscore.ZeroCoef>
-5.4800

> <Gold.Chemscore.Hbond>
4.0523

> <Gold.Chemscore.Metal>
0.0000

> <Gold.Chemscore.Lipo>
97.0027

> <Gold.Chemscore.Internal_Hbond>
0.0000

> <Gold.Chemscore.DEClash>
4.6615

> <Gold.Chemscore.DEInternal>
0.4267

> <Gold.Chemscore.Rot>
5.2672

> <Gold.Chemscore.Internal.Correction>
   9.000000E+99

> <Gold.Chemscore.Hbonds>
donor molecule, donor type, donor heavy atom, donor atom, acceptor molecule, acceptor atom, score
      L1  H     7    42       P1  7957  0.92
      L1  H     9    45       P1  7957  0.32
      L1  H    23    50       P1 10747  0.44
      L1  H    25    51       P1 10186  0.98
      P1  H  7954  7966       L1    16  0.26
      P1  H  7989  7998       L1     7  0.03
      P1  H  8011  8017       L1     7  0.03

> <Gold.Chemscore.Hbond.Weighted>
-13.5348

> <Gold.Chemscore.Metal.Weighted>
-0.0000

> <Gold.Chemscore.Lipo.Weighted>
-11.3493

> <Gold.Chemscore.Internal_Hbond.Weighted>
0.0000

> <Gold.Chemscore.DEClash.Weighted>
4.6615

> <Gold.Chemscore.DEInternal.Weighted>
0.4267

> <Gold.Chemscore.Rot.Weighted>
13.4839

> <Gold.Chemscore.Internal.Correction.Weighted>
   9.000000E+99

> <Gold.Protein.RotatedTorsions>
[ 6907 6896 6895 6894 ] final   11.01 input  -60.11 | X-H torsion
[ 7974 7965 7964 7962 ] final -105.64 input  175.53 | X-H torsion
[ 8008 7997 7996 7995 ] final  -86.92 input   59.86 | X-H torsion
[ 10167 10162 10161 10158 ] final  -30.61 input  -65.29 | X-H torsion
[ 10718 10713 10712 10709 ] final   88.82 input   66.30 | X-H torsion
[ 10763 10752 10751 10750 ] final -172.07 input  -60.55 | X-H torsion
[ 11005 11000 10999 10996 ] final  -84.74 input  -57.11 | X-H torsion

> <Gold.Protein.ActiveResidues>
 VAL166  LYS551  ARG553  GLY616  TRP617  ASP618  TYR619  PRO620  LYS621  CYS622 
 ASP623  PHE694  ASN695  SER759  ASP760  ASP761  ALA762  ILE779  LEU786  VAL792 
 PHE793  MET794  SER795  GLU796  ALA797  LYS798  CYS799  TRP800  GLU811  SER814 

> <Gold.Protein.RotatedAtoms>
  151.7475  135.0840  160.0325 H   0  0  0  0  0  0  0  0  0  0  0  0  # atno 6907 bound_to 6896
  152.3438  133.6094  159.5904 H   0  0  0  0  0  0  0  0  0  0  0  0  # atno 6908 bound_to 6896
  150.7496  133.9596  159.3553 H   0  0  0  0  0  0  0  0  0  0  0  0  # atno 6909 bound_to 6896
  145.2279  140.9159  143.3221 H   0  0  0  0  0  0  0  0  0  0  0  0  # atno 7974 bound_to 7965
  154.6574  140.0572  157.0024 H   0  0  0  0  0  0  0  0  0  0  0  0  # atno 8008 bound_to 7997
  155.1280  140.3254  155.4462 H   0  0  0  0  0  0  0  0  0  0  0  0  # atno 8009 bound_to 7997
  156.2603  140.1986  156.6400 H   0  0  0  0  0  0  0  0  0  0  0  0  # atno 8010 bound_to 7997
  140.7247  143.3835  151.1558 H   0  0  0  0  0  0  0  0  0  0  0  0  # atno 10167 bound_to 10162
  157.6951  131.0309  150.3333 H   0  0  0  0  0  0  0  0  0  0  0  0  # atno 10718 bound_to 10713
  154.6234  135.2878  155.0300 H   0  0  0  0  0  0  0  0  0  0  0  0  # atno 10763 bound_to 10752
  154.1487  135.6507  153.4962 H   0  0  0  0  0  0  0  0  0  0  0  0  # atno 10764 bound_to 10752
  153.0246  135.5350  154.7033 H   0  0  0  0  0  0  0  0  0  0  0  0  # atno 10765 bound_to 10752
  141.1648  133.7362  156.8912 H   0  0  0  0  0  0  0  0  0  0  0  0  # atno 11005 bound_to 11000
  144.9704  139.3886  143.6312 LP  0  0  0  0  0  0  0  0  0  0  0  0  # atno 17320 bound_to 7965
  146.3360  139.8798  142.8826 LP  0  0  0  0  0  0  0  0  0  0  0  0  # atno 17321 bound_to 7965
  139.7428  143.8898  152.3055 LP  0  0  0  0  0  0  0  0  0  0  0  0  # atno 17342 bound_to 10162
  139.8725  144.7060  150.8971 LP  0  0  0  0  0  0  0  0  0  0  0  0  # atno 17343 bound_to 10162
  156.3804  130.3879  149.7106 LP  0  0  0  0  0  0  0  0  0  0  0  0  # atno 17370 bound_to 10713
  156.4491  130.7898  151.2919 LP  0  0  0  0  0  0  0  0  0  0  0  0  # atno 17371 bound_to 10713
  140.1647  134.9141  157.2759 LP  0  0  0  0  0  0  0  0  0  0  0  0  # atno 17394 bound_to 11000
  140.2570  134.3616  155.7420 LP  0  0  0  0  0  0  0  0  0  0  0  0  # atno 17395 bound_to 11000

$$$$
