AV-unprocessed.smi:1965|AV-procd|sdf|7937|dock8
  -GOLD-   2272010103D 1   1.00000     0.00000
 Structure written by MMmdl.
 37 39  0  0  0  0  0  0  0  0  2 V2000
  152.7287  139.8785  157.2040 O   0  0  0  0  0  0  0  0  0  0  0  0
  151.8386  140.6777  157.4891 C   0  0  0  0  0  0  0  0  0  0  0  0
  151.8518  141.3453  158.6625 N   0  0  0  0  0  0  0  0  0  0  0  0
  152.7662  141.3206  159.7562 C   0  0  0  0  0  0  0  0  0  0  0  0
  153.8555  140.5456  159.8379 N   0  0  0  0  0  0  0  0  0  0  0  0
  154.5534  140.7386  161.0329 C   0  0  0  0  0  0  0  0  0  0  0  0
  153.9770  141.6697  161.8595 C   0  0  0  0  0  0  0  0  0  0  0  0
  152.5277  142.3448  161.1653 S   0  0  0  0  0  0  0  0  0  0  0  0
  150.8107  140.9398  156.6656 N   0  0  0  0  0  0  0  0  0  0  0  0
  150.6037  140.3474  155.3483 C   0  0  1  0  0  0  0  0  0  0  0  0
  150.9414  138.8464  155.3092 C   0  0  0  0  0  0  0  0  0  0  0  0
  149.8772  138.2115  154.3924 C   0  0  0  0  0  0  0  0  0  0  0  0
  149.0779  139.3411  153.8811 N   0  3  1  0  0  0  0  0  0  0  0  0
  147.6983  139.0442  153.4376 C   0  0  0  0  0  0  0  0  0  0  0  0
  147.0623  140.3258  152.8629 C   0  0  0  0  0  0  0  0  0  0  0  0
  147.1512  141.5028  153.8555 C   0  0  0  0  0  0  0  0  0  0  0  0
  148.5954  141.7035  154.3537 C   0  0  0  0  0  0  0  0  0  0  0  0
  149.1341  140.3790  154.9214 C   0  0  2  0  0  0  0  0  0  0  0  0
  151.0619  141.9592  158.7994 H   0  0  0  0  0  0  0  0  0  0  0  0
  155.4533  140.1694  161.2143 H   0  0  0  0  0  0  0  0  0  0  0  0
  154.3155  141.9979  162.8311 H   0  0  0  0  0  0  0  0  0  0  0  0
  150.1216  141.6090  156.9796 H   0  0  0  0  0  0  0  0  0  0  0  0
  151.2130  140.8558  154.5978 H   0  0  0  0  0  0  0  0  0  0  0  0
  151.9517  138.6821  154.9329 H   0  0  0  0  0  0  0  0  0  0  0  0
  150.8859  138.3981  156.3025 H   0  0  0  0  0  0  0  0  0  0  0  0
  150.3184  137.6470  153.5705 H   0  0  0  0  0  0  0  0  0  0  0  0
  149.2445  137.5340  154.9679 H   0  0  0  0  0  0  0  0  0  0  0  0
  147.7175  138.2606  152.6795 H   0  0  0  0  0  0  0  0  0  0  0  0
  147.1106  138.6687  154.2768 H   0  0  0  0  0  0  0  0  0  0  0  0
  147.5730  140.5978  151.9381 H   0  0  0  0  0  0  0  0  0  0  0  0
  146.0218  140.1396  152.5957 H   0  0  0  0  0  0  0  0  0  0  0  0
  146.7843  142.4172  153.3883 H   0  0  0  0  0  0  0  0  0  0  0  0
  146.4983  141.3078  154.7072 H   0  0  0  0  0  0  0  0  0  0  0  0
  149.2278  142.0473  153.5341 H   0  0  0  0  0  0  0  0  0  0  0  0
  148.6187  142.4823  155.1161 H   0  0  0  0  0  0  0  0  0  0  0  0
  148.5103  140.0635  155.7614 H   0  0  0  0  0  0  0  0  0  0  0  0
  149.5781  139.7096  153.0848 H   0  0  0  0  0  0  0  0  0  0  0  0
  1  2  2  0  0  0  0
  2  3  1  0  0  0  0
  2  9  1  0  0  0  0
  3  4  1  0  0  0  0
  3 19  1  0  0  0  0
  4  8  1  0  0  0  0
  4  5  2  0  0  0  0
  5  6  1  0  0  0  0
  6  7  2  0  0  0  0
  6 20  1  0  0  0  0
  7  8  1  0  0  0  0
  7 21  1  0  0  0  0
  9 10  1  0  0  0  0
  9 22  1  0  0  0  0
 10 18  1  0  0  0  0
 10 11  1  0  0  0  0
 10 23  1  0  0  0  0
 11 12  1  0  0  0  0
 11 24  1  0  0  0  0
 11 25  1  0  0  0  0
 12 13  1  0  0  0  0
 12 26  1  0  0  0  0
 12 27  1  0  0  0  0
 13 18  1  0  0  0  0
 13 14  1  0  0  0  0
 13 37  1  0  0  0  0
 14 15  1  0  0  0  0
 14 28  1  0  0  0  0
 14 29  1  0  0  0  0
 15 16  1  0  0  0  0
 15 30  1  0  0  0  0
 15 31  1  0  0  0  0
 16 17  1  0  0  0  0
 16 32  1  0  0  0  0
 16 33  1  0  0  0  0
 17 18  1  0  0  0  0
 17 34  1  0  0  0  0
 17 35  1  0  0  0  0
 18 36  1  0  0  0  0
M  CHG  1  13   1
M  END
> <s_m_source_file>
AV-unprocessed.smi

> <i_m_source_file_index>
1965

> <i_lp_mmshare_version>
43012

> <i_f3d_flags>
0

> <s_epik_input>
czFbY0hdW2NIXW5jMVtOSF1DKD1PKVtOSF1bQ0BIXShbQ0gyXVtDSDJdMilbQ0BASF0oTjIzKVtDSDJdW0NIMl1bQ0gyXVtDSDJdMw==

> <s_epik_cmdline>
J2VwaWtfcHl0aG9uJywgJy1waCcsICc3LjAnLCAnLXRuJywgJzgnLCAnLW1hJywgJzIwMCcsICctbWV0YWxfYmluZGluZycsICctaW1hZScsICc8aW5maWxlLm1hZT4nLCAnLW9tYWUnLCAnPG91dGZpbGUubWFlPic=

> <r_lp_tautomer_probability>
1

> <r_epik_Ionization_Penalty>
0.00125962

> <r_epik_Ionization_Penalty_Charging>
0.00107044

> <r_epik_Ionization_Penalty_Neutral>
0.000189176

> <r_epik_State_Penalty>
-0

> <r_epik_Charging_Adjusted_Penalty>
0.00107044

> <i_epik_Tot_Q>
1

> <i_epik_Tot_abs_Q>
1

> <r_epik_Metal_State_Penalty>
0.0179285

> <b_epik_Metal_Only>
0

> <s_lp_Force_Field>
OPLS_2005

> <r_lp_Energy>
35.2761

> <b_lp_Chiralities_Consistent>
1

> <s_lp_Variant>
AV-unprocessed.smi:1965-6

> <Gold.Version>
5.8.1

> <Gold.Id.Protein>
6NUR|6NUR_protein|mol2

> <Gold.PLP.Fitness>
41.0485

> <Gold.PLP.PLP>
-35.7167

> <Gold.PLP.part.hbond>
-2.0000

> <Gold.PLP.part.metal>
0.0000

> <Gold.PLP.part.buried>
0.1277

> <Gold.PLP.part.nonpolar>
-32.6915

> <Gold.PLP.part.repulsive>
0.2686

> <Gold.PLP.ligand.clash>
0.0000

> <Gold.PLP.ligand.torsion>
0.3028

> <Gold.PLP.Chemscore.Hbond>
1.9760

> <Gold.PLP.Chemscore.CHOScore>
0.0000

> <Gold.PLP.Chemscore.Metal>
0.0000

> <Gold.Chemscore.Hbonds>
donor molecule, donor type, donor heavy atom, donor atom, acceptor molecule, acceptor atom, score
      L1  H    13    37       P1  7957  0.96
      P1  H  7997  8008       L1     1  1.00

> <Gold.PLP.Chemscore.Internal.Correction>
0.0093

> <Gold.Rescore>
     Score         DG    S(hbond)    S(metal)    S(lipo)     H(rot)  DE(clash)    DE(int)     intcor
     16.35     -19.57       1.96        0.00      86.37       1.00       0.38       2.84       ----

> <Gold.Chemscore.Fitness>
16.3530

> <Gold.Chemscore.DG>
-19.5718

> <Gold.Chemscore.ZeroCoef>
-5.4800

> <Gold.Chemscore.Hbond>
1.9600

> <Gold.Chemscore.Metal>
0.0000

> <Gold.Chemscore.Lipo>
86.3714

> <Gold.Chemscore.Internal_Hbond>
0.0000

> <Gold.Chemscore.DEClash>
0.3798

> <Gold.Chemscore.DEInternal>
2.8389

> <Gold.Chemscore.Rot>
1.0000

> <Gold.Chemscore.Internal.Correction>
   9.000000E+99

> <Gold.Chemscore.Hbonds>
donor molecule, donor type, donor heavy atom, donor atom, acceptor molecule, acceptor atom, score
      L1  H    13    37       P1  7957  0.91
      P1  H  7997  8008       L1     1  0.99

> <Gold.Chemscore.Hbond.Weighted>
-6.5463

> <Gold.Chemscore.Metal.Weighted>
-0.0000

> <Gold.Chemscore.Lipo.Weighted>
-10.1054

> <Gold.Chemscore.Internal_Hbond.Weighted>
0.0000

> <Gold.Chemscore.DEClash.Weighted>
0.3798

> <Gold.Chemscore.DEInternal.Weighted>
2.8389

> <Gold.Chemscore.Rot.Weighted>
2.5600

> <Gold.Chemscore.Internal.Correction.Weighted>
   9.000000E+99

> <Gold.Protein.RotatedTorsions>
[ 6907 6896 6895 6894 ] final  -38.24 input  -60.11 | X-H torsion
[ 7974 7965 7964 7962 ] final  135.99 input  175.53 | X-H torsion
[ 8008 7997 7996 7995 ] final  -69.63 input   59.86 | X-H torsion
[ 10167 10162 10161 10158 ] final   10.69 input  -65.29 | X-H torsion
[ 10718 10713 10712 10709 ] final -108.20 input   66.30 | X-H torsion
[ 10763 10752 10751 10750 ] final   76.81 input  -60.55 | X-H torsion
[ 11005 11000 10999 10996 ] final  -42.06 input  -57.11 | X-H torsion

> <Gold.Protein.ActiveResidues>
 VAL166  LYS551  ARG553  GLY616  TRP617  ASP618  TYR619  PRO620  LYS621  CYS622 
 ASP623  PHE694  ASN695  SER759  ASP760  ASP761  ALA762  ILE779  LEU786  VAL792 
 PHE793  MET794  SER795  GLU796  ALA797  LYS798  CYS799  TRP800  GLU811  SER814 

> <Gold.Protein.RotatedAtoms>
  151.0048  134.9351  159.7973 H   0  0  0  0  0  0  0  0  0  0  0  0  # atno 6907 bound_to 6896
  152.5287  134.3106  159.9122 H   0  0  0  0  0  0  0  0  0  0  0  0  # atno 6908 bound_to 6896
  151.3112  133.4038  159.2681 H   0  0  0  0  0  0  0  0  0  0  0  0  # atno 6909 bound_to 6896
  144.9609  139.4711  143.5480 H   0  0  0  0  0  0  0  0  0  0  0  0  # atno 7974 bound_to 7965
  154.4953  140.0850  156.7682 H   0  0  0  0  0  0  0  0  0  0  0  0  # atno 8008 bound_to 7997
  155.4132  140.3442  155.4247 H   0  0  0  0  0  0  0  0  0  0  0  0  # atno 8009 bound_to 7997
  156.1385  140.1522  156.8945 H   0  0  0  0  0  0  0  0  0  0  0  0  # atno 8010 bound_to 7997
  140.6178  143.8269  150.7139 H   0  0  0  0  0  0  0  0  0  0  0  0  # atno 10167 bound_to 10162
  156.0474  130.5701  150.7928 H   0  0  0  0  0  0  0  0  0  0  0  0  # atno 10718 bound_to 10713
  153.0753  135.4937  154.8390 H   0  0  0  0  0  0  0  0  0  0  0  0  # atno 10763 bound_to 10752
  154.7078  135.3014  154.9246 H   0  0  0  0  0  0  0  0  0  0  0  0  # atno 10764 bound_to 10752
  153.9949  135.6773  153.4809 H   0  0  0  0  0  0  0  0  0  0  0  0  # atno 10765 bound_to 10752
  141.0290  133.6828  156.2543 H   0  0  0  0  0  0  0  0  0  0  0  0  # atno 11005 bound_to 11000
  146.3353  139.8758  142.8832 LP  0  0  0  0  0  0  0  0  0  0  0  0  # atno 17320 bound_to 7965
  145.2701  141.0106  143.3777 LP  0  0  0  0  0  0  0  0  0  0  0  0  # atno 17321 bound_to 7965
  140.1852  143.4081  152.1903 LP  0  0  0  0  0  0  0  0  0  0  0  0  # atno 17342 bound_to 10162
  139.5413  144.7259  151.4724 LP  0  0  0  0  0  0  0  0  0  0  0  0  # atno 17343 bound_to 10162
  157.5364  131.0939  150.9887 LP  0  0  0  0  0  0  0  0  0  0  0  0  # atno 17370 bound_to 10713
  157.0180  130.5663  149.5328 LP  0  0  0  0  0  0  0  0  0  0  0  0  # atno 17371 bound_to 10713
  140.6441  134.5135  157.5572 LP  0  0  0  0  0  0  0  0  0  0  0  0  # atno 17394 bound_to 11000
  139.9195  134.8178  156.1258 LP  0  0  0  0  0  0  0  0  0  0  0  0  # atno 17395 bound_to 11000

$$$$
