AV-unprocessed.smi:1843|AV-procd|sdf|7501|dock9
  -GOLD-   22720 9203D 1   1.00000     0.00000
 Structure written by MMmdl.
 37 39  0  0  0  0  0  0  0  0  1 V2000
  144.6521  136.3936  153.3787 O   0  0  0  0  0  0  0  0  0  0  0  0
  145.7826  136.3109  152.8979 C   0  0  0  0  0  0  0  0  0  0  0  0
  146.7215  137.2722  152.9491 N   0  0  0  0  0  0  0  0  0  0  0  0
  146.6362  138.5538  153.5548 C   0  0  0  0  0  0  0  0  0  0  0  0
  146.2321  138.7557  154.8165 N   0  0  0  0  0  0  0  0  0  0  0  0
  146.2402  140.1018  155.1540 N   0  0  0  0  0  0  0  0  0  0  0  0
  146.6506  140.8768  154.1430 C   0  0  0  0  0  0  0  0  0  0  0  0
  146.7409  142.3616  154.2648 C   0  0  0  0  0  0  0  0  0  0  0  0
  145.6176  143.1777  154.8666 C   0  0  0  0  0  0  0  0  0  0  0  0
  145.9008  143.2617  153.3882 C   0  0  0  0  0  0  0  0  0  0  0  0
  147.0679  140.0069  152.6701 S   0  0  0  0  0  0  0  0  0  0  0  0
  146.2318  135.2282  152.2466 N   0  0  0  0  0  0  0  0  0  0  0  0
  145.4703  134.0005  152.0237 C   0  0  1  0  0  0  0  0  0  0  0  0
  144.6657  134.0539  150.7080 C   0  0  0  0  0  0  0  0  0  0  0  0
  143.8605  132.7598  150.5037 C   0  0  0  0  0  0  0  0  0  0  0  0
  144.7667  131.5186  150.5502 C   0  0  0  0  0  0  0  0  0  0  0  0
  145.5922  131.4679  151.8496 C   0  0  0  0  0  0  0  0  0  0  0  0
  146.3951  132.7634  152.0791 C   0  0  1  0  0  0  0  0  0  0  0  0
  147.4184  132.8475  151.1036 O   0  0  0  0  0  0  0  0  0  0  0  0
  147.6023  137.0626  152.5031 H   0  0  0  0  0  0  0  0  0  0  0  0
  147.7633  142.6680  154.4772 H   0  0  0  0  0  0  0  0  0  0  0  0
  144.7089  142.6611  155.1686 H   0  0  0  0  0  0  0  0  0  0  0  0
  145.8926  144.0328  155.4802 H   0  0  0  0  0  0  0  0  0  0  0  0
  146.3641  144.1727  153.0153 H   0  0  0  0  0  0  0  0  0  0  0  0
  145.1895  142.7893  152.7134 H   0  0  0  0  0  0  0  0  0  0  0  0
  147.1723  135.2504  151.8815 H   0  0  0  0  0  0  0  0  0  0  0  0
  144.7570  133.8977  152.8443 H   0  0  0  0  0  0  0  0  0  0  0  0
  143.9841  134.9051  150.7172 H   0  0  0  0  0  0  0  0  0  0  0  0
  145.3371  134.2069  149.8620 H   0  0  0  0  0  0  0  0  0  0  0  0
  143.0966  132.6815  151.2783 H   0  0  0  0  0  0  0  0  0  0  0  0
  143.3307  132.7974  149.5514 H   0  0  0  0  0  0  0  0  0  0  0  0
  144.1621  130.6155  150.4612 H   0  0  0  0  0  0  0  0  0  0  0  0
  145.4359  131.5243  149.6890 H   0  0  0  0  0  0  0  0  0  0  0  0
  144.9168  131.3137  152.6922 H   0  0  0  0  0  0  0  0  0  0  0  0
  146.2603  130.6060  151.8353 H   0  0  0  0  0  0  0  0  0  0  0  0
  146.8780  132.7138  153.0559 H   0  0  0  0  0  0  0  0  0  0  0  0
  147.8812  132.0245  151.0818 H   0  0  0  0  0  0  0  0  0  0  0  0
  1  2  2  0  0  0  0
  2  3  1  0  0  0  0
  2 12  1  0  0  0  0
  3  4  1  0  0  0  0
  3 20  1  0  0  0  0
  4 11  1  0  0  0  0
  4  5  2  0  0  0  0
  5  6  1  0  0  0  0
  6  7  2  0  0  0  0
  7  8  1  0  0  0  0
  7 11  1  0  0  0  0
  8 10  1  0  0  0  0
  8  9  1  0  0  0  0
  8 21  1  0  0  0  0
  9 10  1  0  0  0  0
  9 22  1  0  0  0  0
  9 23  1  0  0  0  0
 10 24  1  0  0  0  0
 10 25  1  0  0  0  0
 12 13  1  0  0  0  0
 12 26  1  0  0  0  0
 13 18  1  0  0  0  0
 13 14  1  0  0  0  0
 13 27  1  0  0  0  0
 14 15  1  0  0  0  0
 14 28  1  0  0  0  0
 14 29  1  0  0  0  0
 15 16  1  0  0  0  0
 15 30  1  0  0  0  0
 15 31  1  0  0  0  0
 16 17  1  0  0  0  0
 16 32  1  0  0  0  0
 16 33  1  0  0  0  0
 17 18  1  0  0  0  0
 17 34  1  0  0  0  0
 17 35  1  0  0  0  0
 18 19  1  0  0  0  0
 18 36  1  0  0  0  0
 19 37  1  0  0  0  0
M  END
> <s_m_source_file>
AV-unprocessed.smi

> <i_m_source_file_index>
1843

> <i_lp_mmshare_version>
43012

> <i_f3d_flags>
0

> <s_epik_input>
W09IXVtDQEBIXTFbQ0gyXVtDSDJdW0NIMl1bQ0gyXVtDQEhdMVtOSF1DKD1PKVtOSF1jMm5uYyhzMilbQ0hdM1tDSDJdW0NIMl0z

> <s_epik_cmdline>
J2VwaWtfcHl0aG9uJywgJy1waCcsICc3LjAnLCAnLXRuJywgJzgnLCAnLW1hJywgJzIwMCcsICctbWV0YWxfYmluZGluZycsICctaW1hZScsICc8aW5maWxlLm1hZT4nLCAnLW9tYWUnLCAnPG91dGZpbGUubWFlPic=

> <r_lp_tautomer_probability>
1

> <r_epik_Ionization_Penalty>
0.000257313

> <r_epik_Ionization_Penalty_Charging>
0

> <r_epik_Ionization_Penalty_Neutral>
0.000257313

> <r_epik_State_Penalty>
-0

> <r_epik_Charging_Adjusted_Penalty>
0

> <i_epik_Tot_Q>
0

> <i_epik_Tot_abs_Q>
0

> <r_epik_Metal_State_Penalty>
0.147479

> <b_epik_Metal_Only>
0

> <s_lp_Force_Field>
OPLS_2005

> <r_lp_Energy>
11.0621

> <b_lp_Chiralities_Consistent>
1

> <s_lp_Variant>
AV-unprocessed.smi:1843-2

> <Gold.Version>
5.8.1

> <Gold.Id.Protein>
6NUR|6NUR_protein|mol2

> <Gold.PLP.Fitness>
39.5964

> <Gold.PLP.PLP>
-32.5168

> <Gold.PLP.part.hbond>
-3.0000

> <Gold.PLP.part.metal>
0.0000

> <Gold.PLP.part.buried>
-4.3016

> <Gold.PLP.part.nonpolar>
-25.6817

> <Gold.PLP.part.repulsive>
0.2529

> <Gold.PLP.ligand.clash>
0.0000

> <Gold.PLP.ligand.torsion>
0.9711

> <Gold.PLP.Chemscore.Hbond>
2.9600

> <Gold.PLP.Chemscore.CHOScore>
0.0000

> <Gold.PLP.Chemscore.Metal>
0.0000

> <Gold.Chemscore.Hbonds>
donor molecule, donor type, donor heavy atom, donor atom, acceptor molecule, acceptor atom, score
      L1  H     3    20       P1  7948  1.00
      L1  H    12    26       P1  7948  0.96
      L1  H    19    37       P1 10747  1.00

> <Gold.PLP.Chemscore.Internal.Correction>
0.1419

> <Gold.Rescore>
     Score         DG    S(hbond)    S(metal)    S(lipo)     H(rot)  DE(clash)    DE(int)     intcor
     18.08     -19.18       2.95        0.00      71.03       1.74       0.12       0.98       ----

> <Gold.Chemscore.Fitness>
18.0808

> <Gold.Chemscore.DG>
-19.1810

> <Gold.Chemscore.ZeroCoef>
-5.4800

> <Gold.Chemscore.Hbond>
2.9478

> <Gold.Chemscore.Metal>
0.0000

> <Gold.Chemscore.Lipo>
71.0328

> <Gold.Chemscore.Internal_Hbond>
0.0000

> <Gold.Chemscore.DEClash>
0.1247

> <Gold.Chemscore.DEInternal>
0.9755

> <Gold.Chemscore.Rot>
1.7404

> <Gold.Chemscore.Internal.Correction>
   9.000000E+99

> <Gold.Chemscore.Hbonds>
donor molecule, donor type, donor heavy atom, donor atom, acceptor molecule, acceptor atom, score
      L1  H     3    20       P1  7948  1.00
      L1  H    12    26       P1  7948  0.88
      L1  H    19    37       P1 10747  0.95

> <Gold.Chemscore.Hbond.Weighted>
-9.8456

> <Gold.Chemscore.Metal.Weighted>
-0.0000

> <Gold.Chemscore.Lipo.Weighted>
-8.3108

> <Gold.Chemscore.Internal_Hbond.Weighted>
0.0000

> <Gold.Chemscore.DEClash.Weighted>
0.1247

> <Gold.Chemscore.DEInternal.Weighted>
0.9755

> <Gold.Chemscore.Rot.Weighted>
4.4555

> <Gold.Chemscore.Internal.Correction.Weighted>
   9.000000E+99

> <Gold.Protein.RotatedTorsions>
[ 6907 6896 6895 6894 ] final   86.74 input  -60.11 | X-H torsion
[ 7974 7965 7964 7962 ] final   95.91 input  175.53 | X-H torsion
[ 8008 7997 7996 7995 ] final -158.26 input   59.86 | X-H torsion
[ 10167 10162 10161 10158 ] final  134.59 input  -65.29 | X-H torsion
[ 10718 10713 10712 10709 ] final   22.33 input   66.30 | X-H torsion
[ 10763 10752 10751 10750 ] final  -38.44 input  -60.55 | X-H torsion
[ 11005 11000 10999 10996 ] final  103.82 input  -57.11 | X-H torsion

> <Gold.Protein.ActiveResidues>
 VAL166  LYS551  ARG553  GLY616  TRP617  ASP618  TYR619  PRO620  LYS621  CYS622 
 ASP623  PHE694  ASN695  SER759  ASP760  ASP761  ALA762  ILE779  LEU786  VAL792 
 PHE793  MET794  SER795  GLU796  ALA797  LYS798  CYS799  TRP800  GLU811  SER814 

> <Gold.Protein.RotatedAtoms>
  152.5399  134.2384  159.8852 H   0  0  0  0  0  0  0  0  0  0  0  0  # atno 6907 bound_to 6896
  151.2353  133.4422  159.2613 H   0  0  0  0  0  0  0  0  0  0  0  0  # atno 6908 bound_to 6896
  151.0677  134.9792  159.8349 H   0  0  0  0  0  0  0  0  0  0  0  0  # atno 6909 bound_to 6896
  145.4458  139.2297  143.3067 H   0  0  0  0  0  0  0  0  0  0  0  0  # atno 7974 bound_to 7965
  155.7448  140.0819  157.2229 H   0  0  0  0  0  0  0  0  0  0  0  0  # atno 8008 bound_to 7997
  154.4018  140.1571  156.2713 H   0  0  0  0  0  0  0  0  0  0  0  0  # atno 8009 bound_to 7997
  155.8986  140.3411  155.6012 H   0  0  0  0  0  0  0  0  0  0  0  0  # atno 8010 bound_to 7997
  139.5250  144.6560  151.5161 H   0  0  0  0  0  0  0  0  0  0  0  0  # atno 10167 bound_to 10162
  157.1508  130.6674  149.6011 H   0  0  0  0  0  0  0  0  0  0  0  0  # atno 10718 bound_to 10713
  153.9130  135.6790  153.4750 H   0  0  0  0  0  0  0  0  0  0  0  0  # atno 10763 bound_to 10752
  153.1069  135.4801  154.8963 H   0  0  0  0  0  0  0  0  0  0  0  0  # atno 10764 bound_to 10752
  154.7517  135.3186  154.8500 H   0  0  0  0  0  0  0  0  0  0  0  0  # atno 10765 bound_to 10752
  139.8787  134.9277  156.5268 H   0  0  0  0  0  0  0  0  0  0  0  0  # atno 11005 bound_to 11000
  146.2531  140.5212  142.8885 LP  0  0  0  0  0  0  0  0  0  0  0  0  # atno 17320 bound_to 7965
  144.8092  140.6355  143.6426 LP  0  0  0  0  0  0  0  0  0  0  0  0  # atno 17321 bound_to 7965
  140.6385  143.8936  150.6670 LP  0  0  0  0  0  0  0  0  0  0  0  0  # atno 17342 bound_to 10162
  140.2263  143.3770  152.1602 LP  0  0  0  0  0  0  0  0  0  0  0  0  # atno 17343 bound_to 10162
  155.9771  130.4745  150.6570 LP  0  0  0  0  0  0  0  0  0  0  0  0  # atno 17370 bound_to 10713
  157.4222  131.0838  151.1120 LP  0  0  0  0  0  0  0  0  0  0  0  0  # atno 17371 bound_to 10713
  140.8410  133.8205  155.9075 LP  0  0  0  0  0  0  0  0  0  0  0  0  # atno 17394 bound_to 11000
  140.9237  134.2109  157.4910 LP  0  0  0  0  0  0  0  0  0  0  0  0  # atno 17395 bound_to 11000

$$$$
