AV-unprocessed.smi:20|AV-procd|sdf|118|dock7
  -GOLD-   2262015283D 1   1.00000     0.00000
 Structure written by MMmdl.
 57 61  0  0  0  0  0  0  0  0  1 V2000
  144.4763  131.8836  148.6904 O   0  0  0  0  0  0  0  0  0  0  0  0
  144.2289  132.7367  149.5396 C   0  0  0  0  0  0  0  0  0  0  0  0
  143.4748  132.4520  150.8280 C   0  0  0  0  0  0  0  0  0  0  0  0
  143.7564  133.7011  151.6911 C   0  0  1  0  0  0  0  0  0  0  0  0
  142.5345  134.0921  152.5530 C   0  0  0  0  0  0  0  0  0  0  0  0
  142.8567  135.2682  153.4882 C   0  0  0  0  0  0  0  0  0  0  0  0
  144.0811  134.9580  154.3606 C   0  0  0  0  0  0  0  0  0  0  0  0
  145.2167  134.5507  153.5333 N   0  0  0  0  0  0  0  0  0  0  0  0
  146.4453  134.6827  154.0975 C   0  0  0  0  0  0  0  0  0  0  0  0
  147.2008  133.5589  154.2094 N   0  0  0  0  0  0  0  0  0  0  0  0
  148.4164  133.6080  154.7604 C   0  0  0  0  0  0  0  0  0  0  0  0
  149.0634  134.6618  155.2588 N   0  0  0  0  0  0  0  0  0  0  0  0
  148.3154  135.7962  155.1484 C   0  0  0  0  0  0  0  0  0  0  0  0
  147.0091  135.8999  154.5881 C   0  0  0  0  0  0  0  0  0  0  0  0
  146.5855  137.2247  154.6456 N   0  0  0  0  0  0  0  0  0  0  0  0
  147.5748  137.8600  155.2112 C   0  0  0  0  0  0  0  0  0  0  0  0
  148.6527  137.0758  155.5496 N   0  0  0  0  0  0  0  0  0  0  0  0
  149.8850  137.5109  156.1830 C   0  0  0  0  0  0  0  0  0  0  0  0
  150.5810  138.6711  155.4290 C   0  0  2  0  0  0  0  0  0  0  0  0
  151.1249  138.2400  154.0455 C   0  0  0  0  0  0  0  0  0  0  0  0
  151.5601  136.8956  154.0574 O   0  0  0  0  0  0  0  0  0  0  0  0
  151.6626  139.3510  156.3059 C   0  0  1  0  0  0  0  0  0  0  0  0
  151.1786  139.8316  157.6626 C   0  0  0  0  0  0  0  0  0  0  0  0
  152.4849  139.9910  158.4317 C   0  0  0  0  0  0  0  0  0  0  0  0
  153.3482  138.9774  157.9308 O   0  0  0  0  0  0  0  0  0  0  0  0
  152.8097  138.4274  156.7323 C   0  0  0  0  0  0  0  0  0  0  0  0
  144.9735  133.4376  152.6162 C   0  0  0  0  0  0  0  0  0  0  0  0
  144.1073  134.7749  150.6303 C   0  0  0  0  0  0  0  0  0  0  0  0
  144.5661  134.0228  149.4784 N   0  0  0  0  0  0  0  0  0  0  0  0
  142.4143  132.3531  150.5933 H   0  0  0  0  0  0  0  0  0  0  0  0
  143.8086  131.5246  151.2949 H   0  0  0  0  0  0  0  0  0  0  0  0
  141.6832  134.3441  151.9195 H   0  0  0  0  0  0  0  0  0  0  0  0
  142.2247  133.2354  153.1529 H   0  0  0  0  0  0  0  0  0  0  0  0
  143.0451  136.1675  152.9006 H   0  0  0  0  0  0  0  0  0  0  0  0
  141.9970  135.4887  154.1213 H   0  0  0  0  0  0  0  0  0  0  0  0
  144.3155  135.8325  154.9681 H   0  0  0  0  0  0  0  0  0  0  0  0
  143.8493  134.1484  155.0537 H   0  0  0  0  0  0  0  0  0  0  0  0
  148.9464  132.6680  154.8092 H   0  0  0  0  0  0  0  0  0  0  0  0
  147.5440  138.9230  155.4015 H   0  0  0  0  0  0  0  0  0  0  0  0
  149.6419  137.8054  157.2039 H   0  0  0  0  0  0  0  0  0  0  0  0
  150.5552  136.6540  156.2620 H   0  0  0  0  0  0  0  0  0  0  0  0
  149.8153  139.4229  155.2321 H   0  0  0  0  0  0  0  0  0  0  0  0
  150.3641  138.3553  153.2733 H   0  0  0  0  0  0  0  0  0  0  0  0
  151.9565  138.8745  153.7401 H   0  0  0  0  0  0  0  0  0  0  0  0
  151.2789  136.4812  153.2558 H   0  0  0  0  0  0  0  0  0  0  0  0
  152.0872  140.2018  155.7702 H   0  0  0  0  0  0  0  0  0  0  0  0
  150.6099  140.7605  157.6142 H   0  0  0  0  0  0  0  0  0  0  0  0
  150.5557  139.0721  158.1377 H   0  0  0  0  0  0  0  0  0  0  0  0
  152.9327  140.9633  158.2227 H   0  0  0  0  0  0  0  0  0  0  0  0
  152.3491  139.9046  159.5101 H   0  0  0  0  0  0  0  0  0  0  0  0
  152.4391  137.4256  156.9549 H   0  0  0  0  0  0  0  0  0  0  0  0
  153.5788  138.3380  155.9647 H   0  0  0  0  0  0  0  0  0  0  0  0
  144.7977  132.5390  153.2091 H   0  0  0  0  0  0  0  0  0  0  0  0
  145.8609  133.2536  152.0091 H   0  0  0  0  0  0  0  0  0  0  0  0
  143.2290  135.3509  150.3355 H   0  0  0  0  0  0  0  0  0  0  0  0
  144.8684  135.4793  150.9674 H   0  0  0  0  0  0  0  0  0  0  0  0
  145.0735  134.4441  148.7138 H   0  0  0  0  0  0  0  0  0  0  0  0
  1  2  2  0  0  0  0
  2 29  1  0  0  0  0
  2  3  1  0  0  0  0
  3  4  1  0  0  0  0
  3 30  1  0  0  0  0
  3 31  1  0  0  0  0
  4 27  1  0  0  0  0
  4  5  1  0  0  0  0
  4 28  1  0  0  0  0
  5  6  1  0  0  0  0
  5 32  1  0  0  0  0
  5 33  1  0  0  0  0
  6  7  1  0  0  0  0
  6 34  1  0  0  0  0
  6 35  1  0  0  0  0
  7  8  1  0  0  0  0
  7 36  1  0  0  0  0
  7 37  1  0  0  0  0
  8  9  1  0  0  0  0
  8 27  1  0  0  0  0
  9 14  1  0  0  0  0
  9 10  2  0  0  0  0
 10 11  1  0  0  0  0
 11 12  2  0  0  0  0
 11 38  1  0  0  0  0
 12 13  1  0  0  0  0
 13 17  1  0  0  0  0
 13 14  2  0  0  0  0
 14 15  1  0  0  0  0
 15 16  2  0  0  0  0
 16 17  1  0  0  0  0
 16 39  1  0  0  0  0
 17 18  1  0  0  0  0
 18 19  1  0  0  0  0
 18 40  1  0  0  0  0
 18 41  1  0  0  0  0
 19 20  1  0  0  0  0
 19 22  1  0  0  0  0
 19 42  1  0  0  0  0
 20 21  1  0  0  0  0
 20 43  1  0  0  0  0
 20 44  1  0  0  0  0
 21 45  1  0  0  0  0
 22 26  1  0  0  0  0
 22 23  1  0  0  0  0
 22 46  1  0  0  0  0
 23 24  1  0  0  0  0
 23 47  1  0  0  0  0
 23 48  1  0  0  0  0
 24 25  1  0  0  0  0
 24 49  1  0  0  0  0
 24 50  1  0  0  0  0
 25 26  1  0  0  0  0
 26 51  1  0  0  0  0
 26 52  1  0  0  0  0
 27 53  1  0  0  0  0
 27 54  1  0  0  0  0
 28 29  1  0  0  0  0
 28 55  1  0  0  0  0
 28 56  1  0  0  0  0
 29 57  1  0  0  0  0
M  END
> <s_m_source_file>
AV-unprocessed.smi

> <i_m_source_file_index>
20

> <i_lp_mmshare_version>
43012

> <i_f3d_flags>
0

> <s_epik_input>
W0NIMl0xW05IXUMoPU8pW0NIMl1bQ0BAXTEyW0NIMl1bQ0gyXVtDSDJdTihbQ0gyXTIpYyhuW2NIXW4zKWMoYzM0KW5bY0hdbjRbQ0gyXVtDQEhdKFtDSDJdW09IXSlbQ0BASF01W0NIMl1bQ0gyXU9bQ0gyXTU=

> <s_epik_cmdline>
J2VwaWtfcHl0aG9uJywgJy1waCcsICc3LjAnLCAnLXRuJywgJzgnLCAnLW1hJywgJzIwMCcsICctbWV0YWxfYmluZGluZycsICctaW1hZScsICc8aW5maWxlLm1hZT4nLCAnLW9tYWUnLCAnPG91dGZpbGUubWFlPic=

> <r_lp_tautomer_probability>
1

> <r_epik_Ionization_Penalty>
0.0019697

> <r_epik_Ionization_Penalty_Charging>
0

> <r_epik_Ionization_Penalty_Neutral>
0.0019697

> <r_epik_State_Penalty>
0.00113613

> <r_epik_Charging_Adjusted_Penalty>
0.00113613

> <i_epik_Tot_Q>
0

> <i_epik_Tot_abs_Q>
0

> <r_epik_Metal_State_Penalty>
-0

> <b_epik_Metal_Only>
0

> <s_lp_Force_Field>
OPLS_2005

> <r_lp_Energy>
59.1367

> <b_lp_Chiralities_Consistent>
1

> <s_lp_Variant>
AV-unprocessed.smi:20-6

> <Gold.Version>
5.8.1

> <Gold.Id.Protein>
6NUR|6NUR_protein|mol2

> <Gold.PLP.Fitness>
47.7636

> <Gold.PLP.PLP>
-37.4501

> <Gold.PLP.part.hbond>
-5.3926

> <Gold.PLP.part.metal>
0.0000

> <Gold.PLP.part.buried>
-6.5520

> <Gold.PLP.part.nonpolar>
-27.1154

> <Gold.PLP.part.repulsive>
0.5925

> <Gold.PLP.ligand.clash>
0.0000

> <Gold.PLP.ligand.torsion>
1.1765

> <Gold.PLP.Chemscore.Hbond>
4.0883

> <Gold.PLP.Chemscore.CHOScore>
0.0000

> <Gold.PLP.Chemscore.Metal>
0.0000

> <Gold.Chemscore.Hbonds>
donor molecule, donor type, donor heavy atom, donor atom, acceptor molecule, acceptor atom, score
      L1  H    21    45       P1  7949  1.00
      L1  H    29    57       P1  7921  1.00
      P1  H  7997  8010       L1    25  0.95
      P1  H 10752 10764       L1    21  0.80
      P1  H 10785 10796       L1     1  0.25

> <Gold.PLP.Chemscore.Internal.Correction>
0.4015

> <Gold.Rescore>
     Score         DG    S(hbond)    S(metal)    S(lipo)     H(rot)  DE(clash)    DE(int)     intcor
     17.19     -18.31       3.01        0.00      77.05       2.43       0.04       1.08       ----

> <Gold.Chemscore.Fitness>
17.1904

> <Gold.Chemscore.DG>
-18.3097

> <Gold.Chemscore.ZeroCoef>
-5.4800

> <Gold.Chemscore.Hbond>
3.0053

> <Gold.Chemscore.Metal>
0.0000

> <Gold.Chemscore.Lipo>
77.0517

> <Gold.Chemscore.Internal_Hbond>
0.0000

> <Gold.Chemscore.DEClash>
0.0375

> <Gold.Chemscore.DEInternal>
1.0818

> <Gold.Chemscore.Rot>
2.4309

> <Gold.Chemscore.Internal.Correction>
   9.000000E+99

> <Gold.Chemscore.Hbonds>
donor molecule, donor type, donor heavy atom, donor atom, acceptor molecule, acceptor atom, score
      L1  H    21    45       P1  7949  0.65
      L1  H    29    57       P1  7921  0.96
      P1  H  7997  8010       L1    25  0.07
      P1  H 10752 10764       L1    21  0.11
      P1  H 10785 10796       L1     1  0.24

> <Gold.Chemscore.Hbond.Weighted>
-10.0377

> <Gold.Chemscore.Metal.Weighted>
-0.0000

> <Gold.Chemscore.Lipo.Weighted>
-9.0151

> <Gold.Chemscore.Internal_Hbond.Weighted>
0.0000

> <Gold.Chemscore.DEClash.Weighted>
0.0375

> <Gold.Chemscore.DEInternal.Weighted>
1.0818

> <Gold.Chemscore.Rot.Weighted>
6.2231

> <Gold.Chemscore.Internal.Correction.Weighted>
   9.000000E+99

> <Gold.Protein.RotatedTorsions>
[ 6907 6896 6895 6894 ] final   14.34 input  -60.11 | X-H torsion
[ 7974 7965 7964 7962 ] final -161.46 input  175.53 | X-H torsion
[ 8008 7997 7996 7995 ] final   18.99 input   59.86 | X-H torsion
[ 10167 10162 10161 10158 ] final  -93.91 input  -65.29 | X-H torsion
[ 10718 10713 10712 10709 ] final -173.88 input   66.30 | X-H torsion
[ 10763 10752 10751 10750 ] final  -64.72 input  -60.55 | X-H torsion
[ 11005 11000 10999 10996 ] final  159.83 input  -57.11 | X-H torsion

> <Gold.Protein.ActiveResidues>
 VAL166  LYS551  ARG553  GLY616  TRP617  ASP618  TYR619  PRO620  LYS621  CYS622 
 ASP623  PHE694  ASN695  SER759  ASP760  ASP761  ALA762  ILE779  LEU786  VAL792 
 PHE793  MET794  SER795  GLU796  ALA797  LYS798  CYS799  TRP800  GLU811  SER814 

> <Gold.Protein.RotatedAtoms>
  151.8006  135.0710  160.0399 H   0  0  0  0  0  0  0  0  0  0  0  0  # atno 6907 bound_to 6896
  152.3091  133.5730  159.5677 H   0  0  0  0  0  0  0  0  0  0  0  0  # atno 6908 bound_to 6896
  150.7311  134.0094  159.3706 H   0  0  0  0  0  0  0  0  0  0  0  0  # atno 6909 bound_to 6896
  144.7390  140.3395  143.6137 H   0  0  0  0  0  0  0  0  0  0  0  0  # atno 7974 bound_to 7965
  154.9142  140.3018  155.5250 H   0  0  0  0  0  0  0  0  0  0  0  0  # atno 8008 bound_to 7997
  156.3013  140.2383  156.4120 H   0  0  0  0  0  0  0  0  0  0  0  0  # atno 8009 bound_to 7997
  154.8395  140.0414  157.1521 H   0  0  0  0  0  0  0  0  0  0  0  0  # atno 8010 bound_to 7997
  140.3199  143.3055  152.0058 H   0  0  0  0  0  0  0  0  0  0  0  0  # atno 10167 bound_to 10162
  156.7768  130.9469  151.3120 H   0  0  0  0  0  0  0  0  0  0  0  0  # atno 10718 bound_to 10713
  154.3343  135.6170  153.5566 H   0  0  0  0  0  0  0  0  0  0  0  0  # atno 10763 bound_to 10752
  152.9809  135.5754  154.4925 H   0  0  0  0  0  0  0  0  0  0  0  0  # atno 10764 bound_to 10752
  154.4618  135.2856  155.1684 H   0  0  0  0  0  0  0  0  0  0  0  0  # atno 10765 bound_to 10752
  140.2000  134.8344  157.3008 H   0  0  0  0  0  0  0  0  0  0  0  0  # atno 11005 bound_to 11000
  145.7389  139.1758  143.2387 LP  0  0  0  0  0  0  0  0  0  0  0  0  # atno 17320 bound_to 7965
  146.1149  140.7382  142.9485 LP  0  0  0  0  0  0  0  0  0  0  0  0  # atno 17321 bound_to 7965
  139.4876  144.6319  151.7052 LP  0  0  0  0  0  0  0  0  0  0  0  0  # atno 17342 bound_to 10162
  140.5493  144.0451  150.6120 LP  0  0  0  0  0  0  0  0  0  0  0  0  # atno 17343 bound_to 10162
  157.6665  130.9012  149.9944 LP  0  0  0  0  0  0  0  0  0  0  0  0  # atno 17370 bound_to 10713
  156.1243  130.3645  149.9836 LP  0  0  0  0  0  0  0  0  0  0  0  0  # atno 17371 bound_to 10713
  140.2064  134.4191  155.7635 LP  0  0  0  0  0  0  0  0  0  0  0  0  # atno 17394 bound_to 11000
  141.2227  133.7097  156.8267 LP  0  0  0  0  0  0  0  0  0  0  0  0  # atno 17395 bound_to 11000

$$$$
