AV-unprocessed.smi:236|AV-procd|sdf|1813|dock2
  -GOLD-   2262020403D 1   1.00000     0.00000
 Structure written by MMmdl.
 58 62  0  0  0  0  0  0  0  0  1 V2000
  147.9353  133.4115  162.1423 C   0  0  0  0  0  0  0  0  0  0  0  0
  147.1867  134.6702  162.6052 C   0  0  2  0  0  0  0  0  0  0  0  0
  145.8060  134.3885  162.8189 O   0  0  0  0  0  0  0  0  0  0  0  0
  145.0126  135.5186  162.4660 C   0  0  0  0  0  0  0  0  0  0  0  0
  146.0021  136.6422  162.1725 C   0  0  0  0  0  0  0  0  0  0  0  0
  147.2187  135.8835  161.6561 C   0  0  1  0  0  0  0  0  0  0  0  0
  148.3788  136.6599  161.8905 O   0  0  0  0  0  0  0  0  0  0  0  0
  147.1383  135.5133  160.1499 C   0  0  0  0  0  0  0  0  0  0  0  0
  147.4514  136.6177  159.2567 N   0  0  0  0  0  0  0  0  0  0  0  0
  148.7031  137.0908  158.9350 C   0  0  0  0  0  0  0  0  0  0  0  0
  148.7201  138.1024  158.1108 N   0  0  0  0  0  0  0  0  0  0  0  0
  147.3788  138.3371  157.8284 C   0  0  0  0  0  0  0  0  0  0  0  0
  146.6832  139.2810  157.0189 C   0  0  0  0  0  0  0  0  0  0  0  0
  147.3150  140.2290  156.2781 N   0  0  0  0  0  0  0  0  0  0  0  0
  146.8717  140.4359  154.9011 C   0  0  0  0  0  0  0  0  0  0  0  0
  147.4874  141.7251  154.3353 C   0  0  0  0  0  0  0  0  0  0  0  0
  148.9041  141.6709  154.4645 O   0  0  0  0  0  0  0  0  0  0  0  0
  149.3189  141.5875  155.8260 C   0  0  2  0  0  0  0  0  0  0  0  0
  150.8515  141.6311  155.8672 C   0  0  0  0  0  0  0  0  0  0  0  0
  151.2717  141.8530  157.2032 O   0  0  0  0  0  0  0  0  0  0  0  0
  150.9432  143.1496  157.6707 C   0  0  0  0  0  0  0  0  0  0  0  0
  151.6064  143.3737  159.0129 C   0  0  0  0  0  0  0  0  0  0  0  0
  151.8643  144.7767  159.5143 C   0  0  0  0  0  0  0  0  0  0  0  0
  153.0201  143.9037  159.0959 C   0  0  0  0  0  0  0  0  0  0  0  0
  148.7668  140.2791  156.4249 C   0  0  0  0  0  0  0  0  0  0  0  0
  145.3243  139.2125  157.0131 N   0  0  0  0  0  0  0  0  0  0  0  0
  144.6885  138.2850  157.7347 C   0  0  0  0  0  0  0  0  0  0  0  0
  145.2066  137.3439  158.5251 N   0  0  0  0  0  0  0  0  0  0  0  0
  146.5683  137.4105  158.5445 C   0  0  0  0  0  0  0  0  0  0  0  0
  148.9839  133.6306  161.9408 H   0  0  0  0  0  0  0  0  0  0  0  0
  147.4970  132.9897  161.2378 H   0  0  0  0  0  0  0  0  0  0  0  0
  147.9000  132.6391  162.9107 H   0  0  0  0  0  0  0  0  0  0  0  0
  147.5863  134.9734  163.5752 H   0  0  0  0  0  0  0  0  0  0  0  0
  144.4330  135.2746  161.5752 H   0  0  0  0  0  0  0  0  0  0  0  0
  144.3149  135.7793  163.2617 H   0  0  0  0  0  0  0  0  0  0  0  0
  145.6074  137.3954  161.4917 H   0  0  0  0  0  0  0  0  0  0  0  0
  146.2444  137.1504  163.1076 H   0  0  0  0  0  0  0  0  0  0  0  0
  148.9891  136.1424  162.3934 H   0  0  0  0  0  0  0  0  0  0  0  0
  147.8216  134.6945  159.9218 H   0  0  0  0  0  0  0  0  0  0  0  0
  146.1401  135.1505  159.9022 H   0  0  0  0  0  0  0  0  0  0  0  0
  149.6093  136.6640  159.3397 H   0  0  0  0  0  0  0  0  0  0  0  0
  147.1716  139.5827  154.2910 H   0  0  0  0  0  0  0  0  0  0  0  0
  145.7838  140.5023  154.8596 H   0  0  0  0  0  0  0  0  0  0  0  0
  147.2300  141.8349  153.2819 H   0  0  0  0  0  0  0  0  0  0  0  0
  147.0968  142.6028  154.8528 H   0  0  0  0  0  0  0  0  0  0  0  0
  148.9248  142.4375  156.3866 H   0  0  0  0  0  0  0  0  0  0  0  0
  151.2554  140.6789  155.5198 H   0  0  0  0  0  0  0  0  0  0  0  0
  151.2317  142.4109  155.2054 H   0  0  0  0  0  0  0  0  0  0  0  0
  151.2795  143.9069  156.9606 H   0  0  0  0  0  0  0  0  0  0  0  0
  149.8635  143.2527  157.7877 H   0  0  0  0  0  0  0  0  0  0  0  0
  151.3263  142.6421  159.7685 H   0  0  0  0  0  0  0  0  0  0  0  0
  151.6006  145.6062  158.8609 H   0  0  0  0  0  0  0  0  0  0  0  0
  151.7331  144.9614  160.5785 H   0  0  0  0  0  0  0  0  0  0  0  0
  153.6596  143.5048  159.8808 H   0  0  0  0  0  0  0  0  0  0  0  0
  153.5246  144.1491  158.1635 H   0  0  0  0  0  0  0  0  0  0  0  0
  149.0677  140.2055  157.4687 H   0  0  0  0  0  0  0  0  0  0  0  0
  149.2014  139.4202  155.9117 H   0  0  0  0  0  0  0  0  0  0  0  0
  143.6105  138.2998  157.6702 H   0  0  0  0  0  0  0  0  0  0  0  0
  1  2  1  0  0  0  0
  1 30  1  0  0  0  0
  1 31  1  0  0  0  0
  1 32  1  0  0  0  0
  2  6  1  0  0  0  0
  2  3  1  0  0  0  0
  2 33  1  0  0  0  0
  3  4  1  0  0  0  0
  4  5  1  0  0  0  0
  4 34  1  0  0  0  0
  4 35  1  0  0  0  0
  5  6  1  0  0  0  0
  5 36  1  0  0  0  0
  5 37  1  0  0  0  0
  6  7  1  0  0  0  0
  6  8  1  0  0  0  0
  7 38  1  0  0  0  0
  8  9  1  0  0  0  0
  8 39  1  0  0  0  0
  8 40  1  0  0  0  0
  9 29  1  0  0  0  0
  9 10  1  0  0  0  0
 10 11  2  0  0  0  0
 10 41  1  0  0  0  0
 11 12  1  0  0  0  0
 12 29  2  0  0  0  0
 12 13  1  0  0  0  0
 13 14  1  0  0  0  0
 13 26  2  0  0  0  0
 14 25  1  0  0  0  0
 14 15  1  0  0  0  0
 15 16  1  0  0  0  0
 15 42  1  0  0  0  0
 15 43  1  0  0  0  0
 16 17  1  0  0  0  0
 16 44  1  0  0  0  0
 16 45  1  0  0  0  0
 17 18  1  0  0  0  0
 18 19  1  0  0  0  0
 18 25  1  0  0  0  0
 18 46  1  0  0  0  0
 19 20  1  0  0  0  0
 19 47  1  0  0  0  0
 19 48  1  0  0  0  0
 20 21  1  0  0  0  0
 21 22  1  0  0  0  0
 21 49  1  0  0  0  0
 21 50  1  0  0  0  0
 22 24  1  0  0  0  0
 22 23  1  0  0  0  0
 22 51  1  0  0  0  0
 23 24  1  0  0  0  0
 23 52  1  0  0  0  0
 23 53  1  0  0  0  0
 24 54  1  0  0  0  0
 24 55  1  0  0  0  0
 25 56  1  0  0  0  0
 25 57  1  0  0  0  0
 26 27  1  0  0  0  0
 27 28  2  0  0  0  0
 27 58  1  0  0  0  0
 28 29  1  0  0  0  0
M  END
> <s_m_source_file>
AV-unprocessed.smi

> <i_m_source_file_index>
236

> <i_lp_mmshare_version>
43012

> <i_f3d_flags>
0

> <s_epik_input>
W0NIMl0xW0NIMl1PW0NAQEhdKFtDSDNdKVtDQEBdMShbT0hdKVtDSDJdbihbY0hdbjIpYyhjMjMpbltjSF1uYzNONFtDSDJdW0NIMl1PW0NASF0oW0NIMl00KVtDSDJdT1tDSDJdW0NIXTVbQ0gyXVtDSDJdNQ==

> <s_epik_cmdline>
J2VwaWtfcHl0aG9uJywgJy1waCcsICc3LjAnLCAnLXRuJywgJzgnLCAnLW1hJywgJzIwMCcsICctbWV0YWxfYmluZGluZycsICctaW1hZScsICc8aW5maWxlLm1hZT4nLCAnLW9tYWUnLCAnPG91dGZpbGUubWFlPic=

> <r_lp_tautomer_probability>
1

> <r_epik_Ionization_Penalty>
7.21838e-05

> <r_epik_Ionization_Penalty_Charging>
0

> <r_epik_Ionization_Penalty_Neutral>
7.21838e-05

> <r_epik_State_Penalty>
-0

> <r_epik_Charging_Adjusted_Penalty>
0

> <i_epik_Tot_Q>
0

> <i_epik_Tot_abs_Q>
0

> <r_epik_Metal_State_Penalty>
-0

> <b_epik_Metal_Only>
0

> <s_lp_Force_Field>
OPLS_2005

> <r_lp_Energy>
47.7421

> <b_lp_Chiralities_Consistent>
1

> <s_lp_Variant>
AV-unprocessed.smi:236-5

> <Gold.Version>
5.8.1

> <Gold.Id.Protein>
6NUR|6NUR_protein|mol2

> <Gold.PLP.Fitness>
46.9648

> <Gold.PLP.PLP>
-44.7816

> <Gold.PLP.part.hbond>
-1.8533

> <Gold.PLP.part.metal>
0.0000

> <Gold.PLP.part.buried>
-7.6867

> <Gold.PLP.part.nonpolar>
-35.3255

> <Gold.PLP.part.repulsive>
0.2437

> <Gold.PLP.ligand.clash>
0.0000

> <Gold.PLP.ligand.torsion>
1.0284

> <Gold.PLP.Chemscore.Hbond>
1.0000

> <Gold.PLP.Chemscore.CHOScore>
0.0000

> <Gold.PLP.Chemscore.Metal>
0.0000

> <Gold.Chemscore.Hbonds>
donor molecule, donor type, donor heavy atom, donor atom, acceptor molecule, acceptor atom, score
      P1  H  6931  6943       L1     7  1.00
      P1  H  8011  8017       L1    17  0.01

> <Gold.PLP.Chemscore.Internal.Correction>
1.2399

> <Gold.Rescore>
     Score         DG    S(hbond)    S(metal)    S(lipo)     H(rot)  DE(clash)    DE(int)     intcor
     13.15     -15.61       1.02        0.00     120.07       2.87       0.13       2.33       ----

> <Gold.Chemscore.Fitness>
13.1469

> <Gold.Chemscore.DG>
-15.6069

> <Gold.Chemscore.ZeroCoef>
-5.4800

> <Gold.Chemscore.Hbond>
1.0222

> <Gold.Chemscore.Metal>
0.0000

> <Gold.Chemscore.Lipo>
120.0713

> <Gold.Chemscore.Internal_Hbond>
0.0000

> <Gold.Chemscore.DEClash>
0.1346

> <Gold.Chemscore.DEInternal>
2.3254

> <Gold.Chemscore.Rot>
2.8655

> <Gold.Chemscore.Internal.Correction>
   9.000000E+99

> <Gold.Chemscore.Hbonds>
donor molecule, donor type, donor heavy atom, donor atom, acceptor molecule, acceptor atom, score
      P1  H  6931  6943       L1     7  0.45
      P1  H  8011  8017       L1    17  0.02

> <Gold.Chemscore.Hbond.Weighted>
-3.4143

> <Gold.Chemscore.Metal.Weighted>
-0.0000

> <Gold.Chemscore.Lipo.Weighted>
-14.0483

> <Gold.Chemscore.Internal_Hbond.Weighted>
0.0000

> <Gold.Chemscore.DEClash.Weighted>
0.1346

> <Gold.Chemscore.DEInternal.Weighted>
2.3254

> <Gold.Chemscore.Rot.Weighted>
7.3358

> <Gold.Chemscore.Internal.Correction.Weighted>
   9.000000E+99

> <Gold.Protein.RotatedTorsions>
[ 6907 6896 6895 6894 ] final  164.51 input  -60.11 | X-H torsion
[ 7974 7965 7964 7962 ] final -135.46 input  175.53 | X-H torsion
[ 8008 7997 7996 7995 ] final  114.65 input   59.86 | X-H torsion
[ 10167 10162 10161 10158 ] final -126.40 input  -65.29 | X-H torsion
[ 10718 10713 10712 10709 ] final  -75.67 input   66.30 | X-H torsion
[ 10763 10752 10751 10750 ] final   26.08 input  -60.55 | X-H torsion
[ 11005 11000 10999 10996 ] final -144.12 input  -57.11 | X-H torsion

> <Gold.Protein.ActiveResidues>
 VAL166  LYS551  ARG553  GLY616  TRP617  ASP618  TYR619  PRO620  LYS621  CYS622 
 ASP623  PHE694  ASN695  SER759  ASP760  ASP761  ALA762  ILE779  LEU786  VAL792 
 PHE793  MET794  SER795  GLU796  ALA797  LYS798  CYS799  TRP800  GLU811  SER814 

> <Gold.Protein.RotatedAtoms>
  151.9087  133.3556  159.3855 H   0  0  0  0  0  0  0  0  0  0  0  0  # atno 6907 bound_to 6896
  150.7063  134.4754  159.5454 H   0  0  0  0  0  0  0  0  0  0  0  0  # atno 6908 bound_to 6896
  152.2356  134.8279  160.0518 H   0  0  0  0  0  0  0  0  0  0  0  0  # atno 6909 bound_to 6896
  144.9012  140.6773  143.5084 H   0  0  0  0  0  0  0  0  0  0  0  0  # atno 7974 bound_to 7965
  156.2334  140.2955  156.0247 H   0  0  0  0  0  0  0  0  0  0  0  0  # atno 8008 bound_to 7997
  155.2161  140.0414  157.2958 H   0  0  0  0  0  0  0  0  0  0  0  0  # atno 8009 bound_to 7997
  154.6035  140.2433  155.7769 H   0  0  0  0  0  0  0  0  0  0  0  0  # atno 8010 bound_to 7997
  139.9718  143.5837  152.2410 H   0  0  0  0  0  0  0  0  0  0  0  0  # atno 10167 bound_to 10162
  156.0200  130.4446  150.3078 H   0  0  0  0  0  0  0  0  0  0  0  0  # atno 10718 bound_to 10713
  153.0647  135.6568  154.0381 H   0  0  0  0  0  0  0  0  0  0  0  0  # atno 10763 bound_to 10752
  154.0041  135.2934  155.3401 H   0  0  0  0  0  0  0  0  0  0  0  0  # atno 10764 bound_to 10752
  154.7000  135.5248  153.8582 H   0  0  0  0  0  0  0  0  0  0  0  0  # atno 10765 bound_to 10752
  140.8056  134.2805  157.4961 H   0  0  0  0  0  0  0  0  0  0  0  0  # atno 11005 bound_to 11000
  145.3614  139.1681  143.4381 LP  0  0  0  0  0  0  0  0  0  0  0  0  # atno 17320 bound_to 7965
  146.3109  140.3676  142.8671 LP  0  0  0  0  0  0  0  0  0  0  0  0  # atno 17321 bound_to 7965
  139.6475  144.7659  151.2214 LP  0  0  0  0  0  0  0  0  0  0  0  0  # atno 17342 bound_to 10162
  140.7519  143.6215  150.8509 LP  0  0  0  0  0  0  0  0  0  0  0  0  # atno 17343 bound_to 10162
  157.1180  131.0239  151.3021 LP  0  0  0  0  0  0  0  0  0  0  0  0  # atno 17370 bound_to 10713
  157.4651  130.7676  149.7271 LP  0  0  0  0  0  0  0  0  0  0  0  0  # atno 17371 bound_to 10713
  139.8718  134.9454  156.3909 LP  0  0  0  0  0  0  0  0  0  0  0  0  # atno 17394 bound_to 11000
  140.9250  133.7618  155.9953 LP  0  0  0  0  0  0  0  0  0  0  0  0  # atno 17395 bound_to 11000

$$$$
