AV-unprocessed.smi:1047|AV-procd|sdf|4561|dock6
  -GOLD-   22720 3 03D 1   1.00000     0.00000
 Structure written by MMmdl.
 57 59  0  0  0  0  0  0  0  0  3 V2000
  145.9158  132.5024  150.6361 C   0  0  0  0  0  0  0  0  0  0  0  0
  146.3896  133.7530  151.3903 C   0  0  0  0  0  0  0  0  0  0  0  0
  145.4746  134.1264  152.5019 N   0  3  2  0  0  0  0  0  0  0  0  0
  144.0445  134.1527  152.1090 C   0  0  0  0  0  0  0  0  0  0  0  0
  143.7042  135.4380  151.3342 C   0  0  0  0  0  0  0  0  0  0  0  0
  144.0451  136.5709  152.1246 O   0  0  0  0  0  0  0  0  0  0  0  0
  145.4380  136.6363  152.4152 C   0  0  1  0  0  0  0  0  0  0  0  0
  145.6978  137.9251  153.2108 C   0  0  0  0  0  0  0  0  0  0  0  0
  145.7706  139.1013  152.3203 N   0  3  0  0  0  0  0  0  0  0  0  0
  147.0060  139.8968  152.4688 C   0  0  0  0  0  0  0  0  0  0  0  0
  147.0392  140.6291  153.8203 C   0  0  2  0  0  0  0  0  0  0  0  0
  145.8798  141.4332  153.9276 O   0  0  0  0  0  0  0  0  0  0  0  0
  148.2905  141.5166  153.9640 C   0  0  0  0  0  0  0  0  0  0  0  0
  149.3784  140.8350  154.6423 N   0  0  0  0  0  0  0  0  0  0  0  0
  149.9327  139.6528  154.3100 C   0  0  0  0  0  0  0  0  0  0  0  0
  150.9298  139.2128  155.0715 N   0  0  0  0  0  0  0  0  0  0  0  0
  151.0293  140.2228  156.0130 C   0  0  0  0  0  0  0  0  0  0  0  0
  151.8998  140.3665  157.1153 C   0  0  0  0  0  0  0  0  0  0  0  0
  151.8201  141.4972  157.9591 C   0  0  0  0  0  0  0  0  0  0  0  0
  152.7744  141.6094  159.1351 C   0  0  0  0  0  0  0  0  0  0  0  0
  150.8588  142.5082  157.7040 C   0  0  0  0  0  0  0  0  0  0  0  0
  150.7538  143.7299  158.5995 C   0  0  0  0  0  0  0  0  0  0  0  0
  149.9836  142.3823  156.6045 C   0  0  0  0  0  0  0  0  0  0  0  0
  150.0716  141.2515  155.7734 C   0  0  0  0  0  0  0  0  0  0  0  0
  145.8376  135.3771  153.2180 C   0  0  0  0  0  0  0  0  0  0  0  0
  146.5515  132.3136  149.7707 H   0  0  0  0  0  0  0  0  0  0  0  0
  144.8945  132.6239  150.2733 H   0  0  0  0  0  0  0  0  0  0  0  0
  145.9481  131.6092  151.2592 H   0  0  0  0  0  0  0  0  0  0  0  0
  147.4091  133.6163  151.7509 H   0  0  0  0  0  0  0  0  0  0  0  0
  146.4288  134.5739  150.6734 H   0  0  0  0  0  0  0  0  0  0  0  0
  143.7861  133.2676  151.5267 H   0  0  0  0  0  0  0  0  0  0  0  0
  143.4390  134.1086  153.0155 H   0  0  0  0  0  0  0  0  0  0  0  0
  144.2241  135.4741  150.3757 H   0  0  0  0  0  0  0  0  0  0  0  0
  142.6366  135.4714  151.1159 H   0  0  0  0  0  0  0  0  0  0  0  0
  146.0049  136.6807  151.4839 H   0  0  0  0  0  0  0  0  0  0  0  0
  144.9165  138.0762  153.9573 H   0  0  0  0  0  0  0  0  0  0  0  0
  146.6433  137.8396  153.7480 H   0  0  0  0  0  0  0  0  0  0  0  0
  145.7169  138.7878  151.3612 H   0  0  0  0  0  0  0  0  0  0  0  0
  147.8612  139.2238  152.3935 H   0  0  0  0  0  0  0  0  0  0  0  0
  147.0873  140.6103  151.6472 H   0  0  0  0  0  0  0  0  0  0  0  0
  147.0256  139.8976  154.6297 H   0  0  0  0  0  0  0  0  0  0  0  0
  145.2770  141.1839  153.2427 H   0  0  0  0  0  0  0  0  0  0  0  0
  148.6468  141.8290  152.9814 H   0  0  0  0  0  0  0  0  0  0  0  0
  148.0531  142.4291  154.5132 H   0  0  0  0  0  0  0  0  0  0  0  0
  149.5885  139.0860  153.4570 H   0  0  0  0  0  0  0  0  0  0  0  0
  152.6320  139.5964  157.3096 H   0  0  0  0  0  0  0  0  0  0  0  0
  152.2214  141.6903  160.0710 H   0  0  0  0  0  0  0  0  0  0  0  0
  153.4079  142.4902  159.0292 H   0  0  0  0  0  0  0  0  0  0  0  0
  153.4238  140.7364  159.2061 H   0  0  0  0  0  0  0  0  0  0  0  0
  149.9830  144.4166  158.2484 H   0  0  0  0  0  0  0  0  0  0  0  0
  151.6996  144.2715  158.6204 H   0  0  0  0  0  0  0  0  0  0  0  0
  150.5004  143.4355  159.6183 H   0  0  0  0  0  0  0  0  0  0  0  0
  149.2471  143.1449  156.3993 H   0  0  0  0  0  0  0  0  0  0  0  0
  145.3117  135.3785  154.1739 H   0  0  0  0  0  0  0  0  0  0  0  0
  146.8996  135.3944  153.4604 H   0  0  0  0  0  0  0  0  0  0  0  0
  144.9790  139.7001  152.5082 H   0  0  0  0  0  0  0  0  0  0  0  0
  145.5601  133.3748  153.1720 H   0  0  0  0  0  0  0  0  0  0  0  0
  1  2  1  0  0  0  0
  1 26  1  0  0  0  0
  1 27  1  0  0  0  0
  1 28  1  0  0  0  0
  2  3  1  0  0  0  0
  2 29  1  0  0  0  0
  2 30  1  0  0  0  0
  3 25  1  0  0  0  0
  3  4  1  0  0  0  0
  3 57  1  0  0  0  0
  4  5  1  0  0  0  0
  4 31  1  0  0  0  0
  4 32  1  0  0  0  0
  5  6  1  0  0  0  0
  5 33  1  0  0  0  0
  5 34  1  0  0  0  0
  6  7  1  0  0  0  0
  7  8  1  0  0  0  0
  7 25  1  0  0  0  0
  7 35  1  0  0  0  0
  8  9  1  0  0  0  0
  8 36  1  0  0  0  0
  8 37  1  0  0  0  0
  9 10  1  0  0  0  0
  9 38  1  0  0  0  0
  9 56  1  0  0  0  0
 10 11  1  0  0  0  0
 10 39  1  0  0  0  0
 10 40  1  0  0  0  0
 11 12  1  0  0  0  0
 11 13  1  0  0  0  0
 11 41  1  0  0  0  0
 12 42  1  0  0  0  0
 13 14  1  0  0  0  0
 13 43  1  0  0  0  0
 13 44  1  0  0  0  0
 14 24  1  0  0  0  0
 14 15  1  0  0  0  0
 15 16  2  0  0  0  0
 15 45  1  0  0  0  0
 16 17  1  0  0  0  0
 17 24  2  0  0  0  0
 17 18  1  0  0  0  0
 18 19  2  0  0  0  0
 18 46  1  0  0  0  0
 19 20  1  0  0  0  0
 19 21  1  0  0  0  0
 20 47  1  0  0  0  0
 20 48  1  0  0  0  0
 20 49  1  0  0  0  0
 21 22  1  0  0  0  0
 21 23  2  0  0  0  0
 22 50  1  0  0  0  0
 22 51  1  0  0  0  0
 22 52  1  0  0  0  0
 23 24  1  0  0  0  0
 23 53  1  0  0  0  0
 25 54  1  0  0  0  0
 25 55  1  0  0  0  0
M  CHG  1   3   1
M  CHG  1   9   1
M  END
> <s_m_source_file>
AV-unprocessed.smi

> <i_m_source_file_index>
1047

> <i_lp_mmshare_version>
43012

> <i_f3d_flags>
0

> <s_epik_input>
W0NIM11bQ0gyXU4xW0NIMl1bQ0gyXU9bQ0BIXShbQ0gyXTEpW0NIMl1bTkhdW0NIMl1bQ0BIXShbT0hdKVtDSDJdbihbY0hdbjIpYyhjMjMpW2NIXWMoW0NIM10pYyhbY0hdMylbQ0gzXQ==

> <s_epik_cmdline>
J2VwaWtfcHl0aG9uJywgJy1waCcsICc3LjAnLCAnLXRuJywgJzgnLCAnLW1hJywgJzIwMCcsICctbWV0YWxfYmluZGluZycsICctaW1hZScsICc8aW5maWxlLm1hZT4nLCAnLW9tYWUnLCAnPG91dGZpbGUubWFlPic=

> <r_epik_Ionization_Penalty>
0.528991

> <r_epik_Ionization_Penalty_Charging>
0.438567

> <r_epik_Ionization_Penalty_Neutral>
0.0904237

> <r_epik_State_Penalty>
0.533036

> <r_epik_Charging_Adjusted_Penalty>
0.971603

> <i_epik_Tot_Q>
2

> <i_epik_Tot_abs_Q>
2

> <r_epik_Metal_State_Penalty>
0.448985

> <b_epik_Metal_Only>
0

> <s_lp_Force_Field>
OPLS_2005

> <r_lp_Energy>
30.8403

> <b_lp_Chiralities_Consistent>
1

> <s_lp_Variant>
AV-unprocessed.smi:1047-2

> <Gold.Version>
5.8.1

> <Gold.Id.Protein>
6NUR|6NUR_protein|mol2

> <Gold.PLP.Fitness>
53.3266

> <Gold.PLP.PLP>
-43.8556

> <Gold.PLP.part.hbond>
-2.2779

> <Gold.PLP.part.metal>
0.0000

> <Gold.PLP.part.buried>
-2.7765

> <Gold.PLP.part.nonpolar>
-39.4518

> <Gold.PLP.part.repulsive>
0.8831

> <Gold.PLP.ligand.clash>
0.0000

> <Gold.PLP.ligand.torsion>
1.1061

> <Gold.PLP.Chemscore.Hbond>
3.0000

> <Gold.PLP.Chemscore.CHOScore>
0.8651

> <Gold.PLP.Chemscore.Metal>
0.0000

> <Gold.Chemscore.Hbonds>
donor molecule, donor type, donor heavy atom, donor atom, acceptor molecule, acceptor atom, score
      L1  H     9    38       P1 10171  0.04
      L1  H     9    56       P1 10175  1.89
      L1  H    12    42       P1 10175  1.00
      L1  C    15    45       P1  7957  0.84

> <Gold.PLP.Chemscore.Internal.Correction>
0.0879

> <Gold.Rescore>
     Score         DG    S(hbond)    S(metal)    S(lipo)     H(rot)  DE(clash)    DE(int)     intcor
     16.80     -18.24       1.98        0.00     111.64       2.70       0.13       1.31       ----

> <Gold.Chemscore.Fitness>
16.7971

> <Gold.Chemscore.DG>
-18.2361

> <Gold.Chemscore.ZeroCoef>
-5.4800

> <Gold.Chemscore.Hbond>
1.9767

> <Gold.Chemscore.Metal>
0.0000

> <Gold.Chemscore.Lipo>
111.6422

> <Gold.Chemscore.Internal_Hbond>
0.0000

> <Gold.Chemscore.DEClash>
0.1338

> <Gold.Chemscore.DEInternal>
1.3052

> <Gold.Chemscore.Rot>
2.6985

> <Gold.Chemscore.Internal.Correction>
   9.000000E+99

> <Gold.Chemscore.Hbonds>
donor molecule, donor type, donor heavy atom, donor atom, acceptor molecule, acceptor atom, score
      L1  H     9    38       P1 10171  0.07
      L1  H     9    56       P1 10175  0.90
      L1  H    12    42       P1 10175  0.25

> <Gold.Chemscore.Hbond.Weighted>
-6.6021

> <Gold.Chemscore.Metal.Weighted>
-0.0000

> <Gold.Chemscore.Lipo.Weighted>
-13.0621

> <Gold.Chemscore.Internal_Hbond.Weighted>
0.0000

> <Gold.Chemscore.DEClash.Weighted>
0.1338

> <Gold.Chemscore.DEInternal.Weighted>
1.3052

> <Gold.Chemscore.Rot.Weighted>
6.9081

> <Gold.Chemscore.Internal.Correction.Weighted>
   9.000000E+99

> <Gold.Protein.RotatedTorsions>
[ 6907 6896 6895 6894 ] final  139.48 input  -60.11 | X-H torsion
[ 7974 7965 7964 7962 ] final   75.57 input  175.53 | X-H torsion
[ 8008 7997 7996 7995 ] final  -48.22 input   59.86 | X-H torsion
[ 10167 10162 10161 10158 ] final   43.91 input  -65.29 | X-H torsion
[ 10718 10713 10712 10709 ] final  104.11 input   66.30 | X-H torsion
[ 10763 10752 10751 10750 ] final   -2.25 input  -60.55 | X-H torsion
[ 11005 11000 10999 10996 ] final -153.05 input  -57.11 | X-H torsion

> <Gold.Protein.ActiveResidues>
 VAL166  LYS551  ARG553  GLY616  TRP617  ASP618  TYR619  PRO620  LYS621  CYS622 
 ASP623  PHE694  ASN695  SER759  ASP760  ASP761  ALA762  ILE779  LEU786  VAL792 
 PHE793  MET794  SER795  GLU796  ALA797  LYS798  CYS799  TRP800  GLU811  SER814 

> <Gold.Protein.RotatedAtoms>
  152.2544  133.5243  159.5344 H   0  0  0  0  0  0  0  0  0  0  0  0  # atno 6907 bound_to 6896
  150.7104  134.0915  159.3942 H   0  0  0  0  0  0  0  0  0  0  0  0  # atno 6908 bound_to 6896
  151.8834  135.0444  160.0542 H   0  0  0  0  0  0  0  0  0  0  0  0  # atno 6909 bound_to 6896
  145.7139  139.2624  143.1635 H   0  0  0  0  0  0  0  0  0  0  0  0  # atno 7974 bound_to 7965
  154.4026  140.1327  156.4303 H   0  0  0  0  0  0  0  0  0  0  0  0  # atno 8008 bound_to 7997
  155.7557  140.3487  155.5152 H   0  0  0  0  0  0  0  0  0  0  0  0  # atno 8009 bound_to 7997
  155.8907  140.1003  157.1411 H   0  0  0  0  0  0  0  0  0  0  0  0  # atno 8010 bound_to 7997
  140.3397  144.2486  150.6157 H   0  0  0  0  0  0  0  0  0  0  0  0  # atno 10167 bound_to 10162
  157.6751  131.0795  150.5657 H   0  0  0  0  0  0  0  0  0  0  0  0  # atno 10718 bound_to 10713
  153.3556  135.6988  153.6753 H   0  0  0  0  0  0  0  0  0  0  0  0  # atno 10763 bound_to 10752
  153.5463  135.3563  155.2740 H   0  0  0  0  0  0  0  0  0  0  0  0  # atno 10764 bound_to 10752
  154.8660  135.4215  154.2801 H   0  0  0  0  0  0  0  0  0  0  0  0  # atno 10765 bound_to 10752
  140.7123  134.3819  157.5196 H   0  0  0  0  0  0  0  0  0  0  0  0  # atno 11005 bound_to 11000
  146.0688  140.7892  142.9698 LP  0  0  0  0  0  0  0  0  0  0  0  0  # atno 17320 bound_to 7965
  144.6934  140.3309  143.7216 LP  0  0  0  0  0  0  0  0  0  0  0  0  # atno 17321 bound_to 7965
  140.5321  143.2241  151.8222 LP  0  0  0  0  0  0  0  0  0  0  0  0  # atno 17342 bound_to 10162
  139.4842  144.4707  151.9428 LP  0  0  0  0  0  0  0  0  0  0  0  0  # atno 17343 bound_to 10162
  156.5959  130.4341  149.5917 LP  0  0  0  0  0  0  0  0  0  0  0  0  # atno 17370 bound_to 10713
  156.2546  130.6927  151.1676 LP  0  0  0  0  0  0  0  0  0  0  0  0  # atno 17371 bound_to 10713
  139.8868  134.8898  156.2561 LP  0  0  0  0  0  0  0  0  0  0  0  0  # atno 17394 bound_to 11000
  141.0074  133.7115  156.1056 LP  0  0  0  0  0  0  0  0  0  0  0  0  # atno 17395 bound_to 11000

$$$$
