AV-unprocessed.smi:196|AV-procd|sdf|1535|dock1
  -GOLD-   2262019393D 1   1.00000     0.00000
 Structure written by MMmdl.
 47 50  0  0  0  0  0  0  0  0  1 V2000
  151.0308  141.5578  156.7267 C   0  0  0  0  0  0  0  0  0  0  0  0
  151.3839  140.5954  155.5832 C   0  0  1  0  0  0  0  0  0  0  0  0
  152.3269  139.6186  156.0173 O   0  0  0  0  0  0  0  0  0  0  0  0
  152.0933  138.3794  155.3534 C   0  0  0  0  0  0  0  0  0  0  0  0
  151.0087  138.6633  154.3182 C   0  0  0  0  0  0  0  0  0  0  0  0
  150.2209  139.7963  154.9645 C   0  0  2  0  0  0  0  0  0  0  0  0
  149.5863  140.5518  153.9494 O   0  0  0  0  0  0  0  0  0  0  0  0
  149.1613  139.3211  155.9957 C   0  0  0  0  0  0  0  0  0  0  0  0
  148.2864  138.2697  155.5011 N   0  0  0  0  0  0  0  0  0  0  0  0
  148.0241  137.0604  156.1048 C   0  0  0  0  0  0  0  0  0  0  0  0
  147.1998  136.2824  155.4576 N   0  0  0  0  0  0  0  0  0  0  0  0
  146.8750  137.0070  154.3179 C   0  0  0  0  0  0  0  0  0  0  0  0
  146.0387  136.7640  153.1957 C   0  0  0  0  0  0  0  0  0  0  0  0
  145.3045  135.6313  153.0725 N   0  0  0  0  0  0  0  0  0  0  0  0
  145.6933  134.7231  151.9954 C   0  0  0  0  0  0  0  0  0  0  0  0
  144.5788  134.8179  150.9616 C   0  0  1  0  0  0  0  0  0  0  0  0
  144.5031  133.7377  150.1848 F   0  0  0  0  0  0  0  0  0  0  0  0
  143.3490  134.9966  151.8396 C   0  0  0  0  0  0  0  0  0  0  0  0
  143.8532  135.8734  153.0028 C   0  0  1  0  0  0  0  0  0  0  0  0
  143.1001  135.5615  154.3085 C   0  0  0  0  0  0  0  0  0  0  0  0
  142.1350  134.6368  154.2915 N   0  0  0  0  0  0  0  0  0  0  0  0
  143.3989  136.1598  155.3394 O   0  0  0  0  0  0  0  0  0  0  0  0
  145.9605  137.7317  152.2432 N   0  0  0  0  0  0  0  0  0  0  0  0
  146.6633  138.8605  152.3757 C   0  0  0  0  0  0  0  0  0  0  0  0
  147.4833  139.2215  153.3648 N   0  0  0  0  0  0  0  0  0  0  0  0
  147.5574  138.2554  154.3249 C   0  0  0  0  0  0  0  0  0  0  0  0
  144.7213  135.6867  150.3178 H   0  0  0  0  0  0  0  0  0  0  0  0
  143.6602  136.9192  152.7521 H   0  0  0  0  0  0  0  0  0  0  0  0
  150.2871  142.2881  156.4075 H   0  0  0  0  0  0  0  0  0  0  0  0
  151.9143  142.1063  157.0536 H   0  0  0  0  0  0  0  0  0  0  0  0
  150.6367  141.0292  157.5946 H   0  0  0  0  0  0  0  0  0  0  0  0
  151.8792  141.1644  154.7938 H   0  0  0  0  0  0  0  0  0  0  0  0
  153.0063  137.9933  154.8997 H   0  0  0  0  0  0  0  0  0  0  0  0
  151.7459  137.6500  156.0860 H   0  0  0  0  0  0  0  0  0  0  0  0
  151.4845  139.0122  153.3996 H   0  0  0  0  0  0  0  0  0  0  0  0
  150.4204  137.7838  154.0596 H   0  0  0  0  0  0  0  0  0  0  0  0
  149.6899  140.0957  153.1284 H   0  0  0  0  0  0  0  0  0  0  0  0
  149.6499  138.9568  156.9001 H   0  0  0  0  0  0  0  0  0  0  0  0
  148.5334  140.1568  156.3076 H   0  0  0  0  0  0  0  0  0  0  0  0
  148.4648  136.7733  157.0486 H   0  0  0  0  0  0  0  0  0  0  0  0
  146.6726  134.9344  151.5627 H   0  0  0  0  0  0  0  0  0  0  0  0
  145.7397  133.7159  152.4114 H   0  0  0  0  0  0  0  0  0  0  0  0
  142.5167  135.4515  151.3016 H   0  0  0  0  0  0  0  0  0  0  0  0
  143.0166  134.0213  152.2011 H   0  0  0  0  0  0  0  0  0  0  0  0
  141.6269  134.4250  155.1383 H   0  0  0  0  0  0  0  0  0  0  0  0
  141.9132  134.1583  153.4306 H   0  0  0  0  0  0  0  0  0  0  0  0
  146.5494  139.5785  151.5768 H   0  0  0  0  0  0  0  0  0  0  0  0
  1  2  1  0  0  0  0
  1 29  1  0  0  0  0
  1 30  1  0  0  0  0
  1 31  1  0  0  0  0
  2  6  1  0  0  0  0
  2  3  1  0  0  0  0
  2 32  1  0  0  0  0
  3  4  1  0  0  0  0
  4  5  1  0  0  0  0
  4 33  1  0  0  0  0
  4 34  1  0  0  0  0
  5  6  1  0  0  0  0
  5 35  1  0  0  0  0
  5 36  1  0  0  0  0
  6  7  1  0  0  0  0
  6  8  1  0  0  0  0
  7 37  1  0  0  0  0
  8  9  1  0  0  0  0
  8 38  1  0  0  0  0
  8 39  1  0  0  0  0
  9 26  1  0  0  0  0
  9 10  1  0  0  0  0
 10 11  2  0  0  0  0
 10 40  1  0  0  0  0
 11 12  1  0  0  0  0
 12 26  2  0  0  0  0
 12 13  1  0  0  0  0
 13 14  1  0  0  0  0
 13 23  2  0  0  0  0
 14 19  1  0  0  0  0
 14 15  1  0  0  0  0
 15 16  1  0  0  0  0
 15 41  1  0  0  0  0
 15 42  1  0  0  0  0
 16 27  1  0  0  0  0
 16 17  1  0  0  0  0
 16 18  1  0  0  0  0
 18 19  1  0  0  0  0
 18 43  1  0  0  0  0
 18 44  1  0  0  0  0
 19 28  1  0  0  0  0
 19 20  1  0  0  0  0
 20 21  1  0  0  0  0
 20 22  2  0  0  0  0
 21 45  1  0  0  0  0
 21 46  1  0  0  0  0
 23 24  1  0  0  0  0
 24 25  2  0  0  0  0
 24 47  1  0  0  0  0
 25 26  1  0  0  0  0
M  END
> <s_m_source_file>
AV-unprocessed.smi

> <i_m_source_file_index>
196

> <i_lp_mmshare_version>
43012

> <i_f3d_flags>
0

> <s_epik_input>
W0NIMl0xW0NIMl1PW0NAQEhdKFtDSDNdKVtDQEBdMShbT0hdKVtDSDJdbihbY0hdbjIpYyhjMjMpbltjSF1uYzNONFtDSDJdW0NASF0oRilbQ0gyXVtDQEhdNEMoPU8pW05IMl0=

> <s_epik_cmdline>
J2VwaWtfcHl0aG9uJywgJy1waCcsICc3LjAnLCAnLXRuJywgJzgnLCAnLW1hJywgJzIwMCcsICctbWV0YWxfYmluZGluZycsICctaW1hZScsICc8aW5maWxlLm1hZT4nLCAnLW9tYWUnLCAnPG91dGZpbGUubWFlPic=

> <r_lp_tautomer_probability>
1

> <r_epik_Ionization_Penalty>
0.000857933

> <r_epik_Ionization_Penalty_Charging>
0

> <r_epik_Ionization_Penalty_Neutral>
0.000857933

> <r_epik_State_Penalty>
0.000462053

> <r_epik_Charging_Adjusted_Penalty>
0.000462053

> <i_epik_Tot_Q>
0

> <i_epik_Tot_abs_Q>
0

> <r_epik_Metal_State_Penalty>
-0

> <b_epik_Metal_Only>
0

> <s_lp_Force_Field>
OPLS_2005

> <r_lp_Energy>
46.5275

> <b_lp_Chiralities_Consistent>
1

> <s_lp_Variant>
AV-unprocessed.smi:196-8

> <Gold.Version>
5.8.1

> <Gold.Id.Protein>
6NUR|6NUR_protein|mol2

> <Gold.PLP.Fitness>
43.3440

> <Gold.PLP.PLP>
-34.7781

> <Gold.PLP.part.hbond>
-5.0000

> <Gold.PLP.part.metal>
0.0000

> <Gold.PLP.part.buried>
-4.4055

> <Gold.PLP.part.nonpolar>
-25.5439

> <Gold.PLP.part.repulsive>
0.7736

> <Gold.PLP.ligand.clash>
0.0000

> <Gold.PLP.ligand.torsion>
0.2565

> <Gold.PLP.Chemscore.Hbond>
2.9760

> <Gold.PLP.Chemscore.CHOScore>
0.0000

> <Gold.PLP.Chemscore.Metal>
0.0000

> <Gold.Chemscore.Hbonds>
donor molecule, donor type, donor heavy atom, donor atom, acceptor molecule, acceptor atom, score
      L1  H     7    37       P1  7957  1.00
      L1  H    21    45       P1 11000  1.00
      P1  H  7997  8010       L1     3  0.84

> <Gold.PLP.Chemscore.Internal.Correction>
0.1510

> <Gold.Rescore>
     Score         DG    S(hbond)    S(metal)    S(lipo)     H(rot)  DE(clash)    DE(int)     intcor
     10.61     -13.45       2.66        0.00      58.64       3.04       0.93       1.91       ----

> <Gold.Chemscore.Fitness>
10.6065

> <Gold.Chemscore.DG>
-13.4506

> <Gold.Chemscore.ZeroCoef>
-5.4800

> <Gold.Chemscore.Hbond>
2.6632

> <Gold.Chemscore.Metal>
0.0000

> <Gold.Chemscore.Lipo>
58.6435

> <Gold.Chemscore.Internal_Hbond>
0.0000

> <Gold.Chemscore.DEClash>
0.9298

> <Gold.Chemscore.DEInternal>
1.9143

> <Gold.Chemscore.Rot>
3.0413

> <Gold.Chemscore.Internal.Correction>
   9.000000E+99

> <Gold.Chemscore.Hbonds>
donor molecule, donor type, donor heavy atom, donor atom, acceptor molecule, acceptor atom, score
      L1  H     7    37       P1  7957  0.94
      L1  H    21    45       P1 11000  0.58
      P1  H  7997  8010       L1     3  0.74

> <Gold.Chemscore.Hbond.Weighted>
-8.8949

> <Gold.Chemscore.Metal.Weighted>
-0.0000

> <Gold.Chemscore.Lipo.Weighted>
-6.8613

> <Gold.Chemscore.Internal_Hbond.Weighted>
0.0000

> <Gold.Chemscore.DEClash.Weighted>
0.9298

> <Gold.Chemscore.DEInternal.Weighted>
1.9143

> <Gold.Chemscore.Rot.Weighted>
7.7856

> <Gold.Chemscore.Internal.Correction.Weighted>
   9.000000E+99

> <Gold.Protein.RotatedTorsions>
[ 6907 6896 6895 6894 ] final  139.15 input  -60.11 | X-H torsion
[ 7974 7965 7964 7962 ] final   -4.37 input  175.53 | X-H torsion
[ 8008 7997 7996 7995 ] final   80.38 input   59.86 | X-H torsion
[ 10167 10162 10161 10158 ] final   -2.74 input  -65.29 | X-H torsion
[ 10718 10713 10712 10709 ] final -104.80 input   66.30 | X-H torsion
[ 10763 10752 10751 10750 ] final -128.99 input  -60.55 | X-H torsion
[ 11005 11000 10999 10996 ] final  132.55 input  -57.11 | X-H torsion

> <Gold.Protein.ActiveResidues>
 VAL166  LYS551  ARG553  GLY616  TRP617  ASP618  TYR619  PRO620  LYS621  CYS622 
 ASP623  PHE694  ASN695  SER759  ASP760  ASP761  ALA762  ILE779  LEU786  VAL792 
 PHE793  MET794  SER795  GLU796  ALA797  LYS798  CYS799  TRP800  GLU811  SER814 

> <Gold.Protein.RotatedAtoms>
  152.2583  133.5275  159.5365 H   0  0  0  0  0  0  0  0  0  0  0  0  # atno 6907 bound_to 6896
  150.7116  134.0865  159.3925 H   0  0  0  0  0  0  0  0  0  0  0  0  # atno 6908 bound_to 6896
  151.8783  135.0463  160.0537 H   0  0  0  0  0  0  0  0  0  0  0  0  # atno 6909 bound_to 6896
  146.2373  140.1861  142.8332 H   0  0  0  0  0  0  0  0  0  0  0  0  # atno 7974 bound_to 7965
  155.8827  140.3443  155.5899 H   0  0  0  0  0  0  0  0  0  0  0  0  # atno 8008 bound_to 7997
  155.7702  140.0844  157.2131 H   0  0  0  0  0  0  0  0  0  0  0  0  # atno 8009 bound_to 7997
  154.4026  140.1520  156.2920 H   0  0  0  0  0  0  0  0  0  0  0  0  # atno 8010 bound_to 7997
  140.6863  143.6621  150.8257 H   0  0  0  0  0  0  0  0  0  0  0  0  # atno 10167 bound_to 10162
  156.0319  130.5533  150.7449 H   0  0  0  0  0  0  0  0  0  0  0  0  # atno 10718 bound_to 10713
  154.8757  135.3910  154.3847 H   0  0  0  0  0  0  0  0  0  0  0  0  # atno 10763 bound_to 10752
  153.4590  135.7029  153.6067 H   0  0  0  0  0  0  0  0  0  0  0  0  # atno 10764 bound_to 10752
  153.4574  135.3820  155.2287 H   0  0  0  0  0  0  0  0  0  0  0  0  # atno 10765 bound_to 10752
  139.9797  134.9552  156.9598 H   0  0  0  0  0  0  0  0  0  0  0  0  # atno 11005 bound_to 11000
  144.9895  140.8534  143.5348 LP  0  0  0  0  0  0  0  0  0  0  0  0  # atno 17320 bound_to 7965
  145.1865  139.2323  143.5265 LP  0  0  0  0  0  0  0  0  0  0  0  0  # atno 17321 bound_to 7965
  140.0328  143.5425  152.2752 LP  0  0  0  0  0  0  0  0  0  0  0  0  # atno 17342 bound_to 10162
  139.6224  144.7631  151.2711 LP  0  0  0  0  0  0  0  0  0  0  0  0  # atno 17343 bound_to 10162
  157.5008  131.0918  151.0316 LP  0  0  0  0  0  0  0  0  0  0  0  0  # atno 17370 bound_to 10713
  157.0698  130.5859  149.5400 LP  0  0  0  0  0  0  0  0  0  0  0  0  # atno 17371 bound_to 10713
  140.5122  134.0991  155.7273 LP  0  0  0  0  0  0  0  0  0  0  0  0  # atno 17394 bound_to 11000
  141.1470  133.9036  157.2190 LP  0  0  0  0  0  0  0  0  0  0  0  0  # atno 17395 bound_to 11000

$$$$
