AV-unprocessed.smi:34|AV-procd|sdf|218|dock9
  -GOLD-   2262015533D 1   1.00000     0.00000
 Structure written by MMmdl.
 55 59  0  0  0  0  0  0  0  0  1 V2000
  150.0862  128.4678  154.9333 O   0  0  0  0  0  0  0  0  0  0  0  0
  149.4006  129.2115  154.2310 C   0  0  0  0  0  0  0  0  0  0  0  0
  149.3288  130.6438  154.4595 N   0  0  0  0  0  0  0  0  0  0  0  0
  150.0021  131.3803  155.3742 C   0  0  0  0  0  0  0  0  0  0  0  0
  150.6291  130.8213  156.4421 N   0  0  0  0  0  0  0  0  0  0  0  0
  151.2800  131.5917  157.3181 C   0  0  0  0  0  0  0  0  0  0  0  0
  151.4257  132.9178  157.3133 N   0  0  0  0  0  0  0  0  0  0  0  0
  150.8018  133.4897  156.2430 C   0  0  0  0  0  0  0  0  0  0  0  0
  150.0775  132.7910  155.2365 C   0  0  0  0  0  0  0  0  0  0  0  0
  149.5832  133.6905  154.3015 N   0  0  0  0  0  0  0  0  0  0  0  0
  149.9920  134.8521  154.7345 C   0  0  0  0  0  0  0  0  0  0  0  0
  150.7329  134.8260  155.8953 N   0  0  0  0  0  0  0  0  0  0  0  0
  151.3285  136.0033  156.6101 C   0  0  1  0  0  0  0  0  0  0  0  0
  151.6220  137.0156  155.6887 O   0  0  0  0  0  0  0  0  0  0  0  0
  150.8747  138.1904  155.9977 C   0  0  2  0  0  0  0  0  0  0  0  0
  151.6400  139.4402  155.5495 C   0  0  0  0  0  0  0  0  0  0  0  0
  151.8818  140.2702  156.6737 O   0  0  0  0  0  0  0  0  0  0  0  0
  151.2868  141.4750  156.7658 C   0  0  0  0  0  0  0  0  0  0  0  0
  150.4578  141.8901  155.9534 O   0  0  0  0  0  0  0  0  0  0  0  0
  151.7342  142.2528  157.9574 C   0  0  0  0  0  0  0  0  0  0  0  0
  152.2878  141.5683  159.0646 C   0  0  0  0  0  0  0  0  0  0  0  0
  152.7229  142.2768  160.2017 C   0  0  0  0  0  0  0  0  0  0  0  0
  152.6088  143.6784  160.2460 C   0  0  0  0  0  0  0  0  0  0  0  0
  152.0579  144.3709  159.1519 C   0  0  0  0  0  0  0  0  0  0  0  0
  151.6225  143.6642  158.0138 C   0  0  0  0  0  0  0  0  0  0  0  0
  150.6657  138.0802  157.5051 C   0  0  1  0  0  0  0  0  0  0  0  0
  149.6911  138.8570  157.9815 F   0  0  0  0  0  0  0  0  0  0  0  0
  150.3916  136.5979  157.6823 C   0  0  1  0  0  0  0  0  0  0  0  0
  149.0229  136.2885  157.4763 O   0  0  0  0  0  0  0  0  0  0  0  0
  148.5184  128.6765  153.1416 C   0  0  0  0  0  0  0  0  0  0  0  0
  148.8528  127.4678  152.4906 C   0  0  0  0  0  0  0  0  0  0  0  0
  148.0348  126.9629  151.4612 C   0  0  0  0  0  0  0  0  0  0  0  0
  146.8813  127.6672  151.0677 C   0  0  0  0  0  0  0  0  0  0  0  0
  146.5486  128.8795  151.7013 C   0  0  0  0  0  0  0  0  0  0  0  0
  147.3654  129.3850  152.7314 C   0  0  0  0  0  0  0  0  0  0  0  0
  148.6964  131.1543  153.8607 H   0  0  0  0  0  0  0  0  0  0  0  0
  151.7508  131.0715  158.1389 H   0  0  0  0  0  0  0  0  0  0  0  0
  149.7639  135.7697  154.2118 H   0  0  0  0  0  0  0  0  0  0  0  0
  152.2632  135.6269  157.0274 H   0  0  0  0  0  0  0  0  0  0  0  0
  149.9143  138.1357  155.4836 H   0  0  0  0  0  0  0  0  0  0  0  0
  152.5788  139.1637  155.0676 H   0  0  0  0  0  0  0  0  0  0  0  0
  151.0464  139.9929  154.8201 H   0  0  0  0  0  0  0  0  0  0  0  0
  152.3865  140.4924  159.0535 H   0  0  0  0  0  0  0  0  0  0  0  0
  153.1451  141.7432  161.0404 H   0  0  0  0  0  0  0  0  0  0  0  0
  152.9431  144.2214  161.1177 H   0  0  0  0  0  0  0  0  0  0  0  0
  151.9682  145.4467  159.1844 H   0  0  0  0  0  0  0  0  0  0  0  0
  151.2038  144.2269  157.1921 H   0  0  0  0  0  0  0  0  0  0  0  0
  151.5813  138.3531  158.0316 H   0  0  0  0  0  0  0  0  0  0  0  0
  150.6863  136.2419  158.6698 H   0  0  0  0  0  0  0  0  0  0  0  0
  148.8838  135.3805  157.6986 H   0  0  0  0  0  0  0  0  0  0  0  0
  149.7346  126.9154  152.7820 H   0  0  0  0  0  0  0  0  0  0  0  0
  148.2932  126.0348  150.9731 H   0  0  0  0  0  0  0  0  0  0  0  0
  146.2540  127.2797  150.2785 H   0  0  0  0  0  0  0  0  0  0  0  0
  145.6672  129.4235  151.3955 H   0  0  0  0  0  0  0  0  0  0  0  0
  147.0978  130.3218  153.1989 H   0  0  0  0  0  0  0  0  0  0  0  0
  1  2  2  0  0  0  0
  2  3  1  0  0  0  0
  2 30  1  0  0  0  0
  3  4  1  0  0  0  0
  3 36  1  0  0  0  0
  4  9  1  0  0  0  0
  4  5  2  0  0  0  0
  5  6  1  0  0  0  0
  6  7  2  0  0  0  0
  6 37  1  0  0  0  0
  7  8  1  0  0  0  0
  8 12  1  0  0  0  0
  8  9  2  0  0  0  0
  9 10  1  0  0  0  0
 10 11  2  0  0  0  0
 11 12  1  0  0  0  0
 11 38  1  0  0  0  0
 12 13  1  0  0  0  0
 13 28  1  0  0  0  0
 13 14  1  0  0  0  0
 13 39  1  0  0  0  0
 14 15  1  0  0  0  0
 15 16  1  0  0  0  0
 15 26  1  0  0  0  0
 15 40  1  0  0  0  0
 16 17  1  0  0  0  0
 16 41  1  0  0  0  0
 16 42  1  0  0  0  0
 17 18  1  0  0  0  0
 18 19  2  0  0  0  0
 18 20  1  0  0  0  0
 20 25  1  0  0  0  0
 20 21  2  0  0  0  0
 21 22  1  0  0  0  0
 21 43  1  0  0  0  0
 22 23  2  0  0  0  0
 22 44  1  0  0  0  0
 23 24  1  0  0  0  0
 23 45  1  0  0  0  0
 24 25  2  0  0  0  0
 24 46  1  0  0  0  0
 25 47  1  0  0  0  0
 26 27  1  0  0  0  0
 26 28  1  0  0  0  0
 26 48  1  0  0  0  0
 28 29  1  0  0  0  0
 28 49  1  0  0  0  0
 29 50  1  0  0  0  0
 30 35  1  0  0  0  0
 30 31  2  0  0  0  0
 31 32  1  0  0  0  0
 31 51  1  0  0  0  0
 32 33  2  0  0  0  0
 32 52  1  0  0  0  0
 33 34  1  0  0  0  0
 33 53  1  0  0  0  0
 34 35  2  0  0  0  0
 34 54  1  0  0  0  0
 35 55  1  0  0  0  0
M  END
> <s_m_source_file>
AV-unprocessed.smi

> <i_m_source_file_index>
34

> <i_lp_mmshare_version>
43012

> <i_f3d_flags>
0

> <s_epik_input>
W2NIXTFbY0hdW2NIXVtjSF1bY0hdYzFDKD1PKVtOSF1jKG5bY0hdbjIpYyhjMjMpbltjSF1uM1tDQEBIXTRPW0NASF0oW0NAQEhdKEYpW0NASF00W09IXSlbQ0gyXU9DKD1PKWM1W2NIXVtjSF1bY0hdW2NIXVtjSF01

> <s_epik_cmdline>
J2VwaWtfcHl0aG9uJywgJy1waCcsICc3LjAnLCAnLXRuJywgJzgnLCAnLW1hJywgJzIwMCcsICctbWV0YWxfYmluZGluZycsICctaW1hZScsICc8aW5maWxlLm1hZT4nLCAnLW9tYWUnLCAnPG91dGZpbGUubWFlPic=

> <r_lp_tautomer_probability>
1

> <r_epik_Ionization_Penalty>
0.00257489

> <r_epik_Ionization_Penalty_Charging>
0

> <r_epik_Ionization_Penalty_Neutral>
0.00257489

> <r_epik_State_Penalty>
0.00519398

> <r_epik_Charging_Adjusted_Penalty>
0.00519398

> <i_epik_Tot_Q>
0

> <i_epik_Tot_abs_Q>
0

> <r_epik_Metal_State_Penalty>
0.335891

> <b_epik_Metal_Only>
0

> <s_epik_Chemistry_Notes>
This compound has an ester and may undergo hydrolysis at high or low pH. This compound contains an acetal/aminal-like group ( X-CH(R)-Y where X, Y are N, S, or O) that may be acid/base labile, releasing an aldehyde.

> <s_lp_Force_Field>
OPLS_2005

> <r_lp_Energy>
55.7216

> <b_lp_Chiralities_Consistent>
1

> <s_lp_Variant>
AV-unprocessed.smi:34-4

> <Gold.Version>
5.8.1

> <Gold.Id.Protein>
6NUR|6NUR_protein|mol2

> <Gold.PLP.Fitness>
61.5418

> <Gold.PLP.PLP>
-59.9480

> <Gold.PLP.part.hbond>
-1.6026

> <Gold.PLP.part.metal>
0.0000

> <Gold.PLP.part.buried>
-9.5004

> <Gold.PLP.part.nonpolar>
-50.1437

> <Gold.PLP.part.repulsive>
0.3585

> <Gold.PLP.ligand.clash>
0.0000

> <Gold.PLP.ligand.torsion>
2.4347

> <Gold.PLP.Chemscore.Hbond>
1.0734

> <Gold.PLP.Chemscore.CHOScore>
1.0000

> <Gold.PLP.Chemscore.Metal>
0.0000

> <Gold.Chemscore.Hbonds>
donor molecule, donor type, donor heavy atom, donor atom, acceptor molecule, acceptor atom, score
      P1  H  6896  6908       L1     7  0.91
      P1  H 10752 10764       L1    14  0.24
      L1  C    11    38       P1  7948  1.00

> <Gold.PLP.Chemscore.Internal.Correction>
0.2428

> <Gold.Rescore>
     Score         DG    S(hbond)    S(metal)    S(lipo)     H(rot)  DE(clash)    DE(int)     intcor
     13.73     -18.81       1.35        0.00     134.99       2.72       0.01       5.07       ----

> <Gold.Chemscore.Fitness>
13.7298

> <Gold.Chemscore.DG>
-18.8128

> <Gold.Chemscore.ZeroCoef>
-5.4800

> <Gold.Chemscore.Hbond>
1.3490

> <Gold.Chemscore.Metal>
0.0000

> <Gold.Chemscore.Lipo>
134.9939

> <Gold.Chemscore.Internal_Hbond>
0.0000

> <Gold.Chemscore.DEClash>
0.0120

> <Gold.Chemscore.DEInternal>
5.0711

> <Gold.Chemscore.Rot>
2.7215

> <Gold.Chemscore.Internal.Correction>
   9.000000E+99

> <Gold.Chemscore.Hbonds>
donor molecule, donor type, donor heavy atom, donor atom, acceptor molecule, acceptor atom, score
      P1  H  6896  6908       L1     7  0.35
      P1  H 10752 10764       L1    14  0.01

> <Gold.Chemscore.Hbond.Weighted>
-4.5056

> <Gold.Chemscore.Metal.Weighted>
-0.0000

> <Gold.Chemscore.Lipo.Weighted>
-15.7943

> <Gold.Chemscore.Internal_Hbond.Weighted>
0.0000

> <Gold.Chemscore.DEClash.Weighted>
0.0120

> <Gold.Chemscore.DEInternal.Weighted>
5.0711

> <Gold.Chemscore.Rot.Weighted>
6.9670

> <Gold.Chemscore.Internal.Correction.Weighted>
   9.000000E+99

> <Gold.Protein.RotatedTorsions>
[ 6907 6896 6895 6894 ] final   72.89 input  -60.11 | X-H torsion
[ 7974 7965 7964 7962 ] final -129.59 input  175.53 | X-H torsion
[ 8008 7997 7996 7995 ] final  170.07 input   59.86 | X-H torsion
[ 10167 10162 10161 10158 ] final    6.72 input  -65.29 | X-H torsion
[ 10718 10713 10712 10709 ] final   81.86 input   66.30 | X-H torsion
[ 10763 10752 10751 10750 ] final  -65.09 input  -60.55 | X-H torsion
[ 11005 11000 10999 10996 ] final  127.53 input  -57.11 | X-H torsion

> <Gold.Protein.ActiveResidues>
 VAL166  LYS551  ARG553  GLY616  TRP617  ASP618  TYR619  PRO620  LYS621  CYS622 
 ASP623  PHE694  ASN695  SER759  ASP760  ASP761  ALA762  ILE779  LEU786  VAL792 
 PHE793  MET794  SER795  GLU796  ALA797  LYS798  CYS799  TRP800  GLU811  SER814 

> <Gold.Protein.RotatedAtoms>
  152.4893  134.4503  159.9572 H   0  0  0  0  0  0  0  0  0  0  0  0  # atno 6907 bound_to 6896
  151.4494  133.3615  159.2801 H   0  0  0  0  0  0  0  0  0  0  0  0  # atno 6908 bound_to 6896
  150.9032  134.8470  159.7435 H   0  0  0  0  0  0  0  0  0  0  0  0  # atno 6909 bound_to 6896
  144.9557  140.7393  143.4760 H   0  0  0  0  0  0  0  0  0  0  0  0  # atno 7974 bound_to 7965
  156.1399  140.1547  156.8936 H   0  0  0  0  0  0  0  0  0  0  0  0  # atno 8008 bound_to 7997
  154.4979  140.0833  156.7774 H   0  0  0  0  0  0  0  0  0  0  0  0  # atno 8009 bound_to 7997
  155.4098  140.3418  155.4265 H   0  0  0  0  0  0  0  0  0  0  0  0  # atno 8010 bound_to 7997
  140.6412  143.7770  150.7431 H   0  0  0  0  0  0  0  0  0  0  0  0  # atno 10167 bound_to 10162
  157.6843  131.0022  150.2289 H   0  0  0  0  0  0  0  0  0  0  0  0  # atno 10718 bound_to 10713
  154.3398  135.6159  153.5591 H   0  0  0  0  0  0  0  0  0  0  0  0  # atno 10763 bound_to 10752
  152.9805  135.5767  154.4866 H   0  0  0  0  0  0  0  0  0  0  0  0  # atno 10764 bound_to 10752
  154.4568  135.2854  155.1719 H   0  0  0  0  0  0  0  0  0  0  0  0  # atno 10765 bound_to 10752
  139.9512  134.9621  156.8868 H   0  0  0  0  0  0  0  0  0  0  0  0  # atno 11005 bound_to 11000
  145.2776  139.1930  143.4808 LP  0  0  0  0  0  0  0  0  0  0  0  0  # atno 17320 bound_to 7965
  146.3336  140.2733  142.8607 LP  0  0  0  0  0  0  0  0  0  0  0  0  # atno 17321 bound_to 7965
  140.1402  143.4448  152.2199 LP  0  0  0  0  0  0  0  0  0  0  0  0  # atno 17342 bound_to 10162
  139.5621  144.7412  151.4125 LP  0  0  0  0  0  0  0  0  0  0  0  0  # atno 17343 bound_to 10162
  156.2926  130.3747  149.7827 LP  0  0  0  0  0  0  0  0  0  0  0  0  # atno 17370 bound_to 10713
  156.5482  130.8330  151.3291 LP  0  0  0  0  0  0  0  0  0  0  0  0  # atno 17371 bound_to 10713
  140.5714  134.0439  155.7432 LP  0  0  0  0  0  0  0  0  0  0  0  0  # atno 17394 bound_to 11000
  141.1175  133.9516  157.2794 LP  0  0  0  0  0  0  0  0  0  0  0  0  # atno 17395 bound_to 11000

$$$$
