AV-unprocessed.smi:823|AV-procd|sdf|3845|dock1
  -GOLD-   22720 1293D 1   1.00000     0.00000
 Structure written by MMmdl.
 46 47  0  0  0  0  0  0  0  0  1 V2000
  152.7313  142.2126  161.7122 C   0  0  0  0  0  0  0  0  0  0  0  0
  152.6346  142.5673  160.2245 C   0  0  1  0  0  0  0  0  0  0  0  0
  152.2321  141.3533  159.3654 C   0  0  0  0  0  0  0  0  0  0  0  0
  152.0396  141.7510  157.9718 N   0  0  0  0  0  0  0  0  0  0  0  0
  151.9154  140.7308  157.0036 C   0  0  0  0  0  0  0  0  0  0  0  0
  150.8154  140.7246  156.1129 C   0  0  0  0  0  0  0  0  0  0  0  0
  150.7070  139.6929  155.1615 C   0  0  0  0  0  0  0  0  0  0  0  0
  151.6987  138.6911  155.1216 C   0  0  0  0  0  0  0  0  0  0  0  0
  151.6428  137.5480  154.1189 C   0  0  0  0  0  0  0  0  0  0  0  0
  150.5420  136.6185  154.3480 N   0  0  0  0  0  0  0  0  0  0  0  0
  150.4709  135.7517  155.3695 C   0  0  0  0  0  0  0  0  0  0  0  0
  151.3515  135.6433  156.2246 O   0  0  0  0  0  0  0  0  0  0  0  0
  149.1952  134.8984  155.4469 C   0  0  2  0  0  0  0  0  0  0  0  0
  149.6160  133.4196  155.4878 C   0  0  0  0  0  0  0  0  0  0  0  0
  148.3673  135.1021  154.2593 N   0  0  0  0  0  0  0  0  0  0  0  0
  147.0542  134.8404  154.1834 C   0  0  0  0  0  0  0  0  0  0  0  0
  146.5459  135.1370  152.9870 N   0  0  0  0  0  0  0  0  0  0  0  0
  146.3806  134.3798  155.1031 O   0  0  0  0  0  0  0  0  0  0  0  0
  152.7655  138.7857  156.0372 C   0  0  0  0  0  0  0  0  0  0  0  0
  152.8746  139.7731  156.9508 N   0  0  0  0  0  0  0  0  0  0  0  0
  151.1305  142.8836  157.8156 C   0  0  0  0  0  0  0  0  0  0  0  0
  151.5618  144.0460  158.7252 C   0  0  0  0  0  0  0  0  0  0  0  0
  151.6585  143.5940  160.0717 O   0  0  0  0  0  0  0  0  0  0  0  0
  153.4778  141.4365  161.8825 H   0  0  0  0  0  0  0  0  0  0  0  0
  151.7768  141.8485  162.0939 H   0  0  0  0  0  0  0  0  0  0  0  0
  153.0166  143.0834  162.3028 H   0  0  0  0  0  0  0  0  0  0  0  0
  153.6044  142.9446  159.8947 H   0  0  0  0  0  0  0  0  0  0  0  0
  153.0090  140.5903  159.4332 H   0  0  0  0  0  0  0  0  0  0  0  0
  151.3083  140.9132  159.7439 H   0  0  0  0  0  0  0  0  0  0  0  0
  150.0654  141.5008  156.1380 H   0  0  0  0  0  0  0  0  0  0  0  0
  149.8742  139.6787  154.4738 H   0  0  0  0  0  0  0  0  0  0  0  0
  151.5277  137.9730  153.1217 H   0  0  0  0  0  0  0  0  0  0  0  0
  152.5900  137.0056  154.1159 H   0  0  0  0  0  0  0  0  0  0  0  0
  149.7765  136.6425  153.6898 H   0  0  0  0  0  0  0  0  0  0  0  0
  148.6266  135.1434  156.3463 H   0  0  0  0  0  0  0  0  0  0  0  0
  150.2399  133.2088  156.3576 H   0  0  0  0  0  0  0  0  0  0  0  0
  150.1786  133.1315  154.5982 H   0  0  0  0  0  0  0  0  0  0  0  0
  148.7436  132.7684  155.5505 H   0  0  0  0  0  0  0  0  0  0  0  0
  148.8259  135.4873  153.4469 H   0  0  0  0  0  0  0  0  0  0  0  0
  145.5663  134.9842  152.7976 H   0  0  0  0  0  0  0  0  0  0  0  0
  147.1494  135.5136  152.2704 H   0  0  0  0  0  0  0  0  0  0  0  0
  153.5543  138.0478  156.0413 H   0  0  0  0  0  0  0  0  0  0  0  0
  151.0939  143.2365  156.7861 H   0  0  0  0  0  0  0  0  0  0  0  0
  150.1216  142.5617  158.0766 H   0  0  0  0  0  0  0  0  0  0  0  0
  152.5167  144.4616  158.3990 H   0  0  0  0  0  0  0  0  0  0  0  0
  150.8305  144.8527  158.6739 H   0  0  0  0  0  0  0  0  0  0  0  0
  1  2  1  0  0  0  0
  1 24  1  0  0  0  0
  1 25  1  0  0  0  0
  1 26  1  0  0  0  0
  2 23  1  0  0  0  0
  2  3  1  0  0  0  0
  2 27  1  0  0  0  0
  3  4  1  0  0  0  0
  3 28  1  0  0  0  0
  3 29  1  0  0  0  0
  4  5  1  0  0  0  0
  4 21  1  0  0  0  0
  5 20  1  0  0  0  0
  5  6  2  0  0  0  0
  6  7  1  0  0  0  0
  6 30  1  0  0  0  0
  7  8  2  0  0  0  0
  7 31  1  0  0  0  0
  8  9  1  0  0  0  0
  8 19  1  0  0  0  0
  9 10  1  0  0  0  0
  9 32  1  0  0  0  0
  9 33  1  0  0  0  0
 10 11  1  0  0  0  0
 10 34  1  0  0  0  0
 11 12  2  0  0  0  0
 11 13  1  0  0  0  0
 13 14  1  0  0  0  0
 13 15  1  0  0  0  0
 13 35  1  0  0  0  0
 14 36  1  0  0  0  0
 14 37  1  0  0  0  0
 14 38  1  0  0  0  0
 15 16  1  0  0  0  0
 15 39  1  0  0  0  0
 16 17  1  0  0  0  0
 16 18  2  0  0  0  0
 17 40  1  0  0  0  0
 17 41  1  0  0  0  0
 19 20  2  0  0  0  0
 19 42  1  0  0  0  0
 21 22  1  0  0  0  0
 21 43  1  0  0  0  0
 21 44  1  0  0  0  0
 22 23  1  0  0  0  0
 22 45  1  0  0  0  0
 22 46  1  0  0  0  0
M  END
> <s_m_source_file>
AV-unprocessed.smi

> <i_m_source_file_index>
823

> <i_lp_mmshare_version>
43012

> <i_f3d_flags>
0

> <s_epik_input>
W0NIM11bQ0BASF0xW0NIMl1OKFtDSDJdW0NIMl1PMSljMltjSF1bY0hdYyhbY0hdbjIpW0NIMl1bTkhdQyg9TylbQ0BIXShbQ0gzXSlbTkhdQyg9TylbTkgyXQ==

> <s_epik_cmdline>
J2VwaWtfcHl0aG9uJywgJy1waCcsICc3LjAnLCAnLXRuJywgJzgnLCAnLW1hJywgJzIwMCcsICctbWV0YWxfYmluZGluZycsICctaW1hZScsICc8aW5maWxlLm1hZT4nLCAnLW9tYWUnLCAnPG91dGZpbGUubWFlPic=

> <r_lp_tautomer_probability>
1

> <r_epik_Ionization_Penalty>
0.00555043

> <r_epik_Ionization_Penalty_Charging>
0

> <r_epik_Ionization_Penalty_Neutral>
0.00555043

> <r_epik_State_Penalty>
0.00402575

> <r_epik_Charging_Adjusted_Penalty>
0.00402575

> <i_epik_Tot_Q>
0

> <i_epik_Tot_abs_Q>
0

> <r_epik_Metal_State_Penalty>
-0

> <b_epik_Metal_Only>
0

> <s_lp_Force_Field>
OPLS_2005

> <r_lp_Energy>
8.16045

> <b_lp_Chiralities_Consistent>
1

> <s_lp_Variant>
AV-unprocessed.smi:823-2

> <Gold.Version>
5.8.1

> <Gold.Id.Protein>
6NUR|6NUR_protein|mol2

> <Gold.PLP.Fitness>
53.1653

> <Gold.PLP.PLP>
-39.2686

> <Gold.PLP.part.hbond>
-5.8650

> <Gold.PLP.part.metal>
0.0000

> <Gold.PLP.part.buried>
0.3427

> <Gold.PLP.part.nonpolar>
-33.5752

> <Gold.PLP.part.repulsive>
0.1787

> <Gold.PLP.ligand.clash>
0.0000

> <Gold.PLP.ligand.torsion>
0.6475

> <Gold.PLP.Chemscore.Hbond>
4.9280

> <Gold.PLP.Chemscore.CHOScore>
0.0000

> <Gold.PLP.Chemscore.Metal>
0.0000

> <Gold.Chemscore.Hbonds>
donor molecule, donor type, donor heavy atom, donor atom, acceptor molecule, acceptor atom, score
      L1  H    10    34       P1  7948  1.00
      L1  H    15    39       P1  7948  1.00
      L1  H    17    41       P1  7948  0.93
      P1  H  7997  8010       L1    20  0.95
      P1  H 10752 10764       L1    12  0.73

> <Gold.PLP.Chemscore.Internal.Correction>
0.4076

> <Gold.Rescore>
     Score         DG    S(hbond)    S(metal)    S(lipo)     H(rot)  DE(clash)    DE(int)     intcor
     20.80     -22.54       3.67        0.00      98.37       2.62       0.89       0.85       ----

> <Gold.Chemscore.Fitness>
20.8003

> <Gold.Chemscore.DG>
-22.5437

> <Gold.Chemscore.ZeroCoef>
-5.4800

> <Gold.Chemscore.Hbond>
3.6685

> <Gold.Chemscore.Metal>
0.0000

> <Gold.Chemscore.Lipo>
98.3663

> <Gold.Chemscore.Internal_Hbond>
0.0000

> <Gold.Chemscore.DEClash>
0.8943

> <Gold.Chemscore.DEInternal>
0.8492

> <Gold.Chemscore.Rot>
2.6163

> <Gold.Chemscore.Internal.Correction>
   9.000000E+99

> <Gold.Chemscore.Hbonds>
donor molecule, donor type, donor heavy atom, donor atom, acceptor molecule, acceptor atom, score
      L1  H    10    34       P1  7948  0.45
      L1  H    15    39       P1  7948  0.85
      L1  H    17    41       P1  7948  0.90
      P1  H  7997  8010       L1    20  0.21
      P1  H 10752 10764       L1    12  0.29

> <Gold.Chemscore.Hbond.Weighted>
-12.2526

> <Gold.Chemscore.Metal.Weighted>
-0.0000

> <Gold.Chemscore.Lipo.Weighted>
-11.5089

> <Gold.Chemscore.Internal_Hbond.Weighted>
0.0000

> <Gold.Chemscore.DEClash.Weighted>
0.8943

> <Gold.Chemscore.DEInternal.Weighted>
0.8492

> <Gold.Chemscore.Rot.Weighted>
6.6978

> <Gold.Chemscore.Internal.Correction.Weighted>
   9.000000E+99

> <Gold.Protein.RotatedTorsions>
[ 6907 6896 6895 6894 ] final  127.40 input  -60.11 | X-H torsion
[ 7974 7965 7964 7962 ] final  -19.50 input  175.53 | X-H torsion
[ 8008 7997 7996 7995 ] final   45.82 input   59.86 | X-H torsion
[ 10167 10162 10161 10158 ] final   81.21 input  -65.29 | X-H torsion
[ 10718 10713 10712 10709 ] final  107.30 input   66.30 | X-H torsion
[ 10763 10752 10751 10750 ] final  -29.62 input  -60.55 | X-H torsion
[ 11005 11000 10999 10996 ] final    8.23 input  -57.11 | X-H torsion

> <Gold.Protein.ActiveResidues>
 VAL166  LYS551  ARG553  GLY616  TRP617  ASP618  TYR619  PRO620  LYS621  CYS622 
 ASP623  PHE694  ASN695  SER759  ASP760  ASP761  ALA762  ILE779  LEU786  VAL792 
 PHE793  MET794  SER795  GLU796  ALA797  LYS798  CYS799  TRP800  GLU811  SER814 

> <Gold.Protein.RotatedAtoms>
  152.3816  133.6554  159.6165 H   0  0  0  0  0  0  0  0  0  0  0  0  # atno 6907 bound_to 6896
  150.7745  133.9104  159.3376 H   0  0  0  0  0  0  0  0  0  0  0  0  # atno 6908 bound_to 6896
  151.6909  135.0948  160.0284 H   0  0  0  0  0  0  0  0  0  0  0  0  # atno 6909 bound_to 6896
  146.1838  140.4070  142.8484 H   0  0  0  0  0  0  0  0  0  0  0  0  # atno 7974 bound_to 7965
  155.3422  140.3409  155.4239 H   0  0  0  0  0  0  0  0  0  0  0  0  # atno 8008 bound_to 7997
  156.1807  140.1663  156.8315 H   0  0  0  0  0  0  0  0  0  0  0  0  # atno 8009 bound_to 7997
  154.5331  140.0741  156.8362 H   0  0  0  0  0  0  0  0  0  0  0  0  # atno 8010 bound_to 7997
  139.9416  144.6086  150.8246 H   0  0  0  0  0  0  0  0  0  0  0  0  # atno 10167 bound_to 10162
  157.6634  131.0869  150.6135 H   0  0  0  0  0  0  0  0  0  0  0  0  # atno 10718 bound_to 10713
  153.7676  135.6914  153.4913 H   0  0  0  0  0  0  0  0  0  0  0  0  # atno 10763 bound_to 10752
  153.1896  135.4476  155.0131 H   0  0  0  0  0  0  0  0  0  0  0  0  # atno 10764 bound_to 10752
  154.8130  135.3386  154.7187 H   0  0  0  0  0  0  0  0  0  0  0  0  # atno 10765 bound_to 10752
  140.5394  134.0389  155.7899 H   0  0  0  0  0  0  0  0  0  0  0  0  # atno 11005 bound_to 11000
  144.8361  140.6784  143.6259 LP  0  0  0  0  0  0  0  0  0  0  0  0  # atno 17320 bound_to 7965
  145.3999  139.1600  143.4183 LP  0  0  0  0  0  0  0  0  0  0  0  0  # atno 17321 bound_to 7965
  140.7609  143.3162  151.2728 LP  0  0  0  0  0  0  0  0  0  0  0  0  # atno 17342 bound_to 10162
  139.6700  144.0037  152.2747 LP  0  0  0  0  0  0  0  0  0  0  0  0  # atno 17343 bound_to 10162
  156.6437  130.4465  149.5743 LP  0  0  0  0  0  0  0  0  0  0  0  0  # atno 17370 bound_to 10713
  156.2190  130.6725  151.1348 LP  0  0  0  0  0  0  0  0  0  0  0  0  # atno 17371 bound_to 10713
  141.1236  133.9420  157.2680 LP  0  0  0  0  0  0  0  0  0  0  0  0  # atno 17394 bound_to 11000
  139.9512  135.0175  156.8999 LP  0  0  0  0  0  0  0  0  0  0  0  0  # atno 17395 bound_to 11000

$$$$
