AV-unprocessed.smi:1049|AV-procd|sdf|4609|dock3
  -GOLD-   22720 3103D 1   1.00000     0.00000
 Structure written by MMmdl.
 40 41  0  0  0  0  0  0  0  0  1 V2000
  153.7428  142.2852  161.9109 C   0  0  0  0  0  0  0  0  0  0  0  0
  152.7370  142.7529  160.8499 C   0  0  1  0  0  0  0  0  0  0  0  0
  152.2671  144.2004  161.1131 C   0  0  0  0  0  0  0  0  0  0  0  0
  151.3534  144.7238  159.9890 C   0  0  0  0  0  0  0  0  0  0  0  0
  151.9981  144.5011  158.6093 C   0  0  0  0  0  0  0  0  0  0  0  0
  152.3004  143.0673  158.4558 N   0  0  0  0  0  0  0  0  0  0  0  0
  151.6066  142.1787  157.6999 C   0  0  0  0  0  0  0  0  0  0  0  0
  152.0769  141.1084  157.3109 O   0  0  0  0  0  0  0  0  0  0  0  0
  150.3568  142.5615  157.3898 N   0  0  0  0  0  0  0  0  0  0  0  0
  149.3845  141.7574  156.6565 C   0  0  0  0  0  0  0  0  0  0  0  0
  149.8719  141.3752  155.2440 C   0  0  0  0  0  0  0  0  0  0  0  0
  148.9074  140.5211  154.4759 C   0  0  0  0  0  0  0  0  0  0  0  0
  147.6905  140.9199  154.1159 N   0  0  0  0  0  0  0  0  0  0  0  0
  147.1541  139.8422  153.4213 C   0  0  0  0  0  0  0  0  0  0  0  0
  148.0731  138.8218  153.3849 C   0  0  0  0  0  0  0  0  0  0  0  0
  149.2047  139.2781  154.0510 N   0  0  0  0  0  0  0  0  0  0  0  0
  150.4308  138.5324  154.2764 C   0  0  0  0  0  0  0  0  0  0  0  0
  151.4661  139.2032  153.7725 F   0  0  0  0  0  0  0  0  0  0  0  0
  150.6187  138.3269  155.5804 F   0  0  0  0  0  0  0  0  0  0  0  0
  153.3161  142.6330  159.4239 C   0  0  0  0  0  0  0  0  0  0  0  0
  154.6440  142.8993  161.9017 H   0  0  0  0  0  0  0  0  0  0  0  0
  154.0424  141.2512  161.7376 H   0  0  0  0  0  0  0  0  0  0  0  0
  153.3115  142.3404  162.9108 H   0  0  0  0  0  0  0  0  0  0  0  0
  151.8652  142.0996  160.9133 H   0  0  0  0  0  0  0  0  0  0  0  0
  151.7498  144.2624  162.0711 H   0  0  0  0  0  0  0  0  0  0  0  0
  153.1378  144.8528  161.1911 H   0  0  0  0  0  0  0  0  0  0  0  0
  150.3923  144.2100  160.0297 H   0  0  0  0  0  0  0  0  0  0  0  0
  151.1443  145.7829  160.1411 H   0  0  0  0  0  0  0  0  0  0  0  0
  151.3518  144.9056  157.8305 H   0  0  0  0  0  0  0  0  0  0  0  0
  152.9256  145.0710  158.5369 H   0  0  0  0  0  0  0  0  0  0  0  0
  150.0415  143.4567  157.7337 H   0  0  0  0  0  0  0  0  0  0  0  0
  149.2100  140.8532  157.2392 H   0  0  0  0  0  0  0  0  0  0  0  0
  148.4267  142.2767  156.6017 H   0  0  0  0  0  0  0  0  0  0  0  0
  150.0952  142.2752  154.6707 H   0  0  0  0  0  0  0  0  0  0  0  0
  150.8156  140.8337  155.3204 H   0  0  0  0  0  0  0  0  0  0  0  0
  146.1559  139.8822  153.0107 H   0  0  0  0  0  0  0  0  0  0  0  0
  148.0177  137.8360  152.9469 H   0  0  0  0  0  0  0  0  0  0  0  0
  150.3821  137.5568  153.7931 H   0  0  0  0  0  0  0  0  0  0  0  0
  154.2037  143.2596  159.3221 H   0  0  0  0  0  0  0  0  0  0  0  0
  153.6564  141.6129  159.2391 H   0  0  0  0  0  0  0  0  0  0  0  0
  1  2  1  0  0  0  0
  1 21  1  0  0  0  0
  1 22  1  0  0  0  0
  1 23  1  0  0  0  0
  2 20  1  0  0  0  0
  2  3  1  0  0  0  0
  2 24  1  0  0  0  0
  3  4  1  0  0  0  0
  3 25  1  0  0  0  0
  3 26  1  0  0  0  0
  4  5  1  0  0  0  0
  4 27  1  0  0  0  0
  4 28  1  0  0  0  0
  5  6  1  0  0  0  0
  5 29  1  0  0  0  0
  5 30  1  0  0  0  0
  6  7  1  0  0  0  0
  6 20  1  0  0  0  0
  7  8  2  0  0  0  0
  7  9  1  0  0  0  0
  9 10  1  0  0  0  0
  9 31  1  0  0  0  0
 10 11  1  0  0  0  0
 10 32  1  0  0  0  0
 10 33  1  0  0  0  0
 11 12  1  0  0  0  0
 11 34  1  0  0  0  0
 11 35  1  0  0  0  0
 12 16  1  0  0  0  0
 12 13  2  0  0  0  0
 13 14  1  0  0  0  0
 14 15  2  0  0  0  0
 14 36  1  0  0  0  0
 15 16  1  0  0  0  0
 15 37  1  0  0  0  0
 16 17  1  0  0  0  0
 17 18  1  0  0  0  0
 17 19  1  0  0  0  0
 17 38  1  0  0  0  0
 20 39  1  0  0  0  0
 20 40  1  0  0  0  0
M  END
> <s_m_source_file>
AV-unprocessed.smi

> <i_m_source_file_index>
1049

> <i_lp_mmshare_version>
43012

> <i_f3d_flags>
0

> <s_epik_input>
W0NIM11bQ0BASF0xW0NIMl1bQ0gyXVtDSDJdTihbQ0gyXTEpQyg9TylbTkhdW0NIMl1bQ0gyXWMybltjSF1bY0hdbjJbQ0hdKEYpRg==

> <s_epik_cmdline>
J2VwaWtfcHl0aG9uJywgJy1waCcsICc3LjAnLCAnLXRuJywgJzgnLCAnLW1hJywgJzIwMCcsICctbWV0YWxfYmluZGluZycsICctaW1hZScsICc8aW5maWxlLm1hZT4nLCAnLW9tYWUnLCAnPG91dGZpbGUubWFlPic=

> <r_lp_tautomer_probability>
1

> <r_epik_Ionization_Penalty>
0.101141

> <r_epik_Ionization_Penalty_Charging>
0.101077

> <r_epik_Ionization_Penalty_Neutral>
6.38597e-05

> <r_epik_State_Penalty>
0.091079

> <r_epik_Charging_Adjusted_Penalty>
0.192156

> <i_epik_Tot_Q>
0

> <i_epik_Tot_abs_Q>
0

> <r_epik_Metal_State_Penalty>
0.0777008

> <b_epik_Metal_Only>
0

> <s_lp_Force_Field>
OPLS_2005

> <r_lp_Energy>
32.9855

> <b_lp_Chiralities_Consistent>
1

> <s_lp_Variant>
AV-unprocessed.smi:1049-2

> <Gold.Version>
5.8.1

> <Gold.Id.Protein>
6NUR|6NUR_protein|mol2

> <Gold.PLP.Fitness>
53.2421

> <Gold.PLP.PLP>
-47.5836

> <Gold.PLP.part.hbond>
-1.0000

> <Gold.PLP.part.metal>
0.0000

> <Gold.PLP.part.buried>
-2.1428

> <Gold.PLP.part.nonpolar>
-44.2631

> <Gold.PLP.part.repulsive>
0.1728

> <Gold.PLP.ligand.clash>
0.0000

> <Gold.PLP.ligand.torsion>
0.3185

> <Gold.PLP.Chemscore.Hbond>
0.0832

> <Gold.PLP.Chemscore.CHOScore>
1.9998

> <Gold.PLP.Chemscore.Metal>
0.0000

> <Gold.Chemscore.Hbonds>
donor molecule, donor type, donor heavy atom, donor atom, acceptor molecule, acceptor atom, score
      L1  C    14    36       P1 10175  0.83
      L1  C    15    37       P1  7948  1.00

> <Gold.PLP.Chemscore.Internal.Correction>
0.0465

> <Gold.Rescore>
     Score         DG    S(hbond)    S(metal)    S(lipo)     H(rot)  DE(clash)    DE(int)     intcor
     12.24     -14.89       0.34        0.00     104.84       1.56       1.34       1.31       ----

> <Gold.Chemscore.Fitness>
12.2365

> <Gold.Chemscore.DG>
-14.8886

> <Gold.Chemscore.ZeroCoef>
-5.4800

> <Gold.Chemscore.Hbond>
0.3420

> <Gold.Chemscore.Metal>
0.0000

> <Gold.Chemscore.Lipo>
104.8438

> <Gold.Chemscore.Internal_Hbond>
0.0000

> <Gold.Chemscore.DEClash>
1.3389

> <Gold.Chemscore.DEInternal>
1.3132

> <Gold.Chemscore.Rot>
1.5626

> <Gold.Chemscore.Internal.Correction>
   9.000000E+99

> <Gold.Chemscore.Hbond.Weighted>
-1.1422

> <Gold.Chemscore.Metal.Weighted>
-0.0000

> <Gold.Chemscore.Lipo.Weighted>
-12.2667

> <Gold.Chemscore.Internal_Hbond.Weighted>
0.0000

> <Gold.Chemscore.DEClash.Weighted>
1.3389

> <Gold.Chemscore.DEInternal.Weighted>
1.3132

> <Gold.Chemscore.Rot.Weighted>
4.0004

> <Gold.Chemscore.Internal.Correction.Weighted>
   9.000000E+99

> <Gold.Protein.RotatedTorsions>
[ 6907 6896 6895 6894 ] final  144.45 input  -60.11 | X-H torsion
[ 7974 7965 7964 7962 ] final -109.56 input  175.53 | X-H torsion
[ 8008 7997 7996 7995 ] final  151.11 input   59.86 | X-H torsion
[ 10167 10162 10161 10158 ] final   37.62 input  -65.29 | X-H torsion
[ 10718 10713 10712 10709 ] final -152.20 input   66.30 | X-H torsion
[ 10763 10752 10751 10750 ] final -123.48 input  -60.55 | X-H torsion
[ 11005 11000 10999 10996 ] final   48.73 input  -57.11 | X-H torsion

> <Gold.Protein.ActiveResidues>
 VAL166  LYS551  ARG553  GLY616  TRP617  ASP618  TYR619  PRO620  LYS621  CYS622 
 ASP623  PHE694  ASN695  SER759  ASP760  ASP761  ALA762  ILE779  LEU786  VAL792 
 PHE793  MET794  SER795  GLU796  ALA797  LYS798  CYS799  TRP800  GLU811  SER814 

> <Gold.Protein.RotatedAtoms>
  152.1935  133.4790  159.5020 H   0  0  0  0  0  0  0  0  0  0  0  0  # atno 6907 bound_to 6896
  150.6955  134.1682  159.4211 H   0  0  0  0  0  0  0  0  0  0  0  0  # atno 6908 bound_to 6896
  151.9597  135.0129  160.0597 H   0  0  0  0  0  0  0  0  0  0  0  0  # atno 6909 bound_to 6896
  145.1790  140.8962  143.3491 H   0  0  0  0  0  0  0  0  0  0  0  0  # atno 7974 bound_to 7965
  156.2688  140.2056  156.6123 H   0  0  0  0  0  0  0  0  0  0  0  0  # atno 8008 bound_to 7997
  154.6821  140.0539  157.0301 H   0  0  0  0  0  0  0  0  0  0  0  0  # atno 8009 bound_to 7997
  155.0985  140.3203  155.4556 H   0  0  0  0  0  0  0  0  0  0  0  0  # atno 8010 bound_to 7997
  140.4015  144.1716  150.6134 H   0  0  0  0  0  0  0  0  0  0  0  0  # atno 10167 bound_to 10162
  156.4693  130.8251  151.2480 H   0  0  0  0  0  0  0  0  0  0  0  0  # atno 10718 bound_to 10713
  154.8708  135.4096  154.2951 H   0  0  0  0  0  0  0  0  0  0  0  0  # atno 10763 bound_to 10752
  153.3820  135.7012  153.6564 H   0  0  0  0  0  0  0  0  0  0  0  0  # atno 10764 bound_to 10752
  153.5382  135.3653  155.2678 H   0  0  0  0  0  0  0  0  0  0  0  0  # atno 10765 bound_to 10752
  140.1165  134.4885  155.8633 H   0  0  0  0  0  0  0  0  0  0  0  0  # atno 11005 bound_to 11000
  145.0155  139.3471  143.6098 LP  0  0  0  0  0  0  0  0  0  0  0  0  # atno 17320 bound_to 7965
  146.3456  139.9435  142.8738 LP  0  0  0  0  0  0  0  0  0  0  0  0  # atno 17321 bound_to 7965
  140.4734  143.2404  151.9057 LP  0  0  0  0  0  0  0  0  0  0  0  0  # atno 17342 bound_to 10162
  139.4784  144.5345  151.8618 LP  0  0  0  0  0  0  0  0  0  0  0  0  # atno 17343 bound_to 10162
  157.7492  131.0081  150.3217 LP  0  0  0  0  0  0  0  0  0  0  0  0  # atno 17370 bound_to 10713
  156.3635  130.3851  149.7232 LP  0  0  0  0  0  0  0  0  0  0  0  0  # atno 17371 bound_to 10713
  141.2142  133.6745  156.6806 LP  0  0  0  0  0  0  0  0  0  0  0  0  # atno 17394 bound_to 11000
  140.3021  134.8155  157.4106 LP  0  0  0  0  0  0  0  0  0  0  0  0  # atno 17395 bound_to 11000

$$$$
