AV-unprocessed.smi:1100|AV-procd|sdf|4764|dock10
  -GOLD-   22720 3303D 1   1.00000     0.00000
 Structure written by MMmdl.
 43 44  0  0  0  0  0  0  0  0  3 V2000
  148.3732  141.1420  153.6579 C   0  0  0  0  0  0  0  0  0  0  0  0
  148.9705  139.7505  153.3272 C   0  0  1  0  0  0  0  0  0  0  0  0
  150.0323  139.2536  154.3439 C   0  0  0  0  0  0  0  0  0  0  0  0
  150.7290  140.3856  154.9541 N   0  5  0  0  0  0  0  0  0  0  0  0
  151.5759  140.2917  156.0150 C   0  0  0  0  0  0  0  0  0  0  0  0
  152.5219  139.5074  156.1494 O   0  0  0  0  0  0  0  0  0  0  0  0
  151.2629  141.1750  156.9839 N   0  0  0  0  0  0  0  0  0  0  0  0
  151.9095  141.4521  158.1989 C   0  0  0  0  0  0  0  0  0  0  0  0
  152.7078  140.3992  158.7899 C   0  0  0  0  0  0  0  0  0  0  0  0
  153.3328  140.5745  159.9704 C   0  0  0  0  0  0  0  0  0  0  0  0
  153.2339  141.8353  160.7094 C   0  0  0  0  0  0  0  0  0  0  0  0
  153.7963  142.0086  161.7913 O   0  0  0  0  0  0  0  0  0  0  0  0
  152.4757  142.8051  160.1207 N   0  0  0  0  0  0  0  0  0  0  0  0
  152.3083  144.1008  160.7842 C   0  0  0  0  0  0  0  0  0  0  0  0
  151.8172  142.6089  158.8914 C   0  0  0  0  0  0  0  0  0  0  0  0
  147.9222  138.7046  153.1111 N   0  3  0  0  0  0  0  0  0  0  0  0
  147.2807  138.1388  154.3310 C   0  0  0  0  0  0  0  0  0  0  0  0
  146.3588  136.9708  153.9471 C   0  0  0  0  0  0  0  0  0  0  0  0
  145.3770  137.4270  153.0244 O   0  0  0  0  0  0  0  0  0  0  0  0
  145.9604  137.9080  151.8195 C   0  0  0  0  0  0  0  0  0  0  0  0
  146.8858  139.0982  152.1243 C   0  0  0  0  0  0  0  0  0  0  0  0
  149.1363  141.9223  153.6555 H   0  0  0  0  0  0  0  0  0  0  0  0
  147.8852  141.1710  154.6337 H   0  0  0  0  0  0  0  0  0  0  0  0
  147.6328  141.4335  152.9129 H   0  0  0  0  0  0  0  0  0  0  0  0
  149.5010  139.8562  152.3792 H   0  0  0  0  0  0  0  0  0  0  0  0
  149.5473  138.6242  155.0908 H   0  0  0  0  0  0  0  0  0  0  0  0
  150.7299  138.5997  153.8177 H   0  0  0  0  0  0  0  0  0  0  0  0
  150.4322  141.7228  156.8152 H   0  0  0  0  0  0  0  0  0  0  0  0
  152.8078  139.4535  158.2774 H   0  0  0  0  0  0  0  0  0  0  0  0
  153.9205  139.7679  160.3828 H   0  0  0  0  0  0  0  0  0  0  0  0
  151.7925  144.8306  160.1592 H   0  0  0  0  0  0  0  0  0  0  0  0
  153.2759  144.5322  161.0454 H   0  0  0  0  0  0  0  0  0  0  0  0
  151.7287  143.9843  161.7008 H   0  0  0  0  0  0  0  0  0  0  0  0
  151.2269  143.4557  158.5795 H   0  0  0  0  0  0  0  0  0  0  0  0
  148.0345  137.7892  155.0370 H   0  0  0  0  0  0  0  0  0  0  0  0
  146.6939  138.9047  154.8397 H   0  0  0  0  0  0  0  0  0  0  0  0
  146.9300  136.1468  153.5162 H   0  0  0  0  0  0  0  0  0  0  0  0
  145.8565  136.5819  154.8329 H   0  0  0  0  0  0  0  0  0  0  0  0
  146.5097  137.1059  151.3239 H   0  0  0  0  0  0  0  0  0  0  0  0
  145.1650  138.2154  151.1402 H   0  0  0  0  0  0  0  0  0  0  0  0
  146.3063  139.9366  152.5133 H   0  0  0  0  0  0  0  0  0  0  0  0
  147.3552  139.4328  151.1985 H   0  0  0  0  0  0  0  0  0  0  0  0
  148.4195  137.9390  152.6782 H   0  0  0  0  0  0  0  0  0  0  0  0
  1  2  1  0  0  0  0
  1 22  1  0  0  0  0
  1 23  1  0  0  0  0
  1 24  1  0  0  0  0
  2  3  1  0  0  0  0
  2 16  1  0  0  0  0
  2 25  1  0  0  0  0
  3  4  1  0  0  0  0
  3 26  1  0  0  0  0
  3 27  1  0  0  0  0
  4  5  1  0  0  0  0
  5  6  2  0  0  0  0
  5  7  1  0  0  0  0
  7  8  1  0  0  0  0
  7 28  1  0  0  0  0
  8 15  2  0  0  0  0
  8  9  1  0  0  0  0
  9 10  2  0  0  0  0
  9 29  1  0  0  0  0
 10 11  1  0  0  0  0
 10 30  1  0  0  0  0
 11 12  2  0  0  0  0
 11 13  1  0  0  0  0
 13 14  1  0  0  0  0
 13 15  1  0  0  0  0
 14 31  1  0  0  0  0
 14 32  1  0  0  0  0
 14 33  1  0  0  0  0
 15 34  1  0  0  0  0
 16 21  1  0  0  0  0
 16 17  1  0  0  0  0
 16 43  1  0  0  0  0
 17 18  1  0  0  0  0
 17 35  1  0  0  0  0
 17 36  1  0  0  0  0
 18 19  1  0  0  0  0
 18 37  1  0  0  0  0
 18 38  1  0  0  0  0
 19 20  1  0  0  0  0
 20 21  1  0  0  0  0
 20 39  1  0  0  0  0
 20 40  1  0  0  0  0
 21 41  1  0  0  0  0
 21 42  1  0  0  0  0
M  CHG  1   4  -1
M  CHG  1  16   1
M  END
> <s_m_source_file>
AV-unprocessed.smi

> <i_m_source_file_index>
1100

> <i_lp_mmshare_version>
43012

> <i_f3d_flags>
0

> <s_epik_input>
W0NIMl0xW0NIMl1PW0NIMl1bQ0gyXU4xW0NASF0oW0NIM10pW0NIMl1bTkhdQyg9TylbTkhdYzJbY0hdW2NIXWMoPU8pbihbQ0gzXSlbY0hdMg==

> <s_epik_cmdline>
J2VwaWtfcHl0aG9uJywgJy1waCcsICc3LjAnLCAnLXRuJywgJzgnLCAnLW1hJywgJzIwMCcsICctbWV0YWxfYmluZGluZycsICctaW1hZScsICc8aW5maWxlLm1hZT4nLCAnLW9tYWUnLCAnPG91dGZpbGUubWFlPic=

> <r_lp_tautomer_probability>
1

> <r_epik_Ionization_Penalty>
6.79272

> <r_epik_Ionization_Penalty_Charging>
6.79272

> <r_epik_Ionization_Penalty_Neutral>
3.37009e-06

> <r_epik_State_Penalty>
7.34577

> <r_epik_Charging_Adjusted_Penalty>
14.1385

> <i_epik_Tot_Q>
0

> <i_epik_Tot_abs_Q>
2

> <r_epik_Metal_State_Penalty>
3.26257

> <b_epik_Metal_Only>
1

> <s_lp_Force_Field>
OPLS_2005

> <r_lp_Energy>
32.2868

> <b_lp_Chiralities_Consistent>
1

> <s_lp_Variant>
AV-unprocessed.smi:1100-6

> <Gold.Version>
5.8.1

> <Gold.Id.Protein>
6NUR|6NUR_protein|mol2

> <Gold.PLP.Fitness>
49.8621

> <Gold.PLP.PLP>
-40.2295

> <Gold.PLP.part.hbond>
-4.6168

> <Gold.PLP.part.metal>
0.0000

> <Gold.PLP.part.buried>
0.9879

> <Gold.PLP.part.nonpolar>
-37.3411

> <Gold.PLP.part.repulsive>
0.3544

> <Gold.PLP.ligand.clash>
0.0000

> <Gold.PLP.ligand.torsion>
1.0373

> <Gold.PLP.Chemscore.Hbond>
3.8500

> <Gold.PLP.Chemscore.CHOScore>
0.0000

> <Gold.PLP.Chemscore.Metal>
0.0000

> <Gold.Chemscore.Hbonds>
donor molecule, donor type, donor heavy atom, donor atom, acceptor molecule, acceptor atom, score
      L1  H    16    43       P1  7948  2.00
      P1  H  7989  7998       L1     4  0.85
      P1  H  7997  8008       L1     6  1.00

> <Gold.PLP.Chemscore.Internal.Correction>
0.1573

> <Gold.Rescore>
     Score         DG    S(hbond)    S(metal)    S(lipo)     H(rot)  DE(clash)    DE(int)     intcor
     14.91     -19.13       2.16        0.00      88.07       1.51       1.85       2.36       ----

> <Gold.Chemscore.Fitness>
14.9131

> <Gold.Chemscore.DG>
-19.1264

> <Gold.Chemscore.ZeroCoef>
-5.4800

> <Gold.Chemscore.Hbond>
2.1601

> <Gold.Chemscore.Metal>
0.0000

> <Gold.Chemscore.Lipo>
88.0703

> <Gold.Chemscore.Internal_Hbond>
0.0000

> <Gold.Chemscore.DEClash>
1.8533

> <Gold.Chemscore.DEInternal>
2.3600

> <Gold.Chemscore.Rot>
1.5128

> <Gold.Chemscore.Internal.Correction>
   9.000000E+99

> <Gold.Chemscore.Hbonds>
donor molecule, donor type, donor heavy atom, donor atom, acceptor molecule, acceptor atom, score
      L1  H    16    43       P1  7948  0.99
      P1  H  7989  7998       L1     4  0.11
      P1  H  7997  8008       L1     6  0.89

> <Gold.Chemscore.Hbond.Weighted>
-7.2148

> <Gold.Chemscore.Metal.Weighted>
-0.0000

> <Gold.Chemscore.Lipo.Weighted>
-10.3042

> <Gold.Chemscore.Internal_Hbond.Weighted>
0.0000

> <Gold.Chemscore.DEClash.Weighted>
1.8533

> <Gold.Chemscore.DEInternal.Weighted>
2.3600

> <Gold.Chemscore.Rot.Weighted>
3.8726

> <Gold.Chemscore.Internal.Correction.Weighted>
   9.000000E+99

> <Gold.Protein.RotatedTorsions>
[ 6907 6896 6895 6894 ] final  -33.60 input  -60.11 | X-H torsion
[ 7974 7965 7964 7962 ] final -148.26 input  175.53 | X-H torsion
[ 8008 7997 7996 7995 ] final  -21.24 input   59.86 | X-H torsion
[ 10167 10162 10161 10158 ] final   55.42 input  -65.29 | X-H torsion
[ 10718 10713 10712 10709 ] final  163.83 input   66.30 | X-H torsion
[ 10763 10752 10751 10750 ] final  128.46 input  -60.55 | X-H torsion
[ 11005 11000 10999 10996 ] final  145.42 input  -57.11 | X-H torsion

> <Gold.Protein.ActiveResidues>
 VAL166  LYS551  ARG553  GLY616  TRP617  ASP618  TYR619  PRO620  LYS621  CYS622 
 ASP623  PHE694  ASN695  SER759  ASP760  ASP761  ALA762  ILE779  LEU786  VAL792 
 PHE793  MET794  SER795  GLU796  ALA797  LYS798  CYS799  TRP800  GLU811  SER814 

> <Gold.Protein.RotatedAtoms>
  151.0635  134.9752  159.8272 H   0  0  0  0  0  0  0  0  0  0  0  0  # atno 6907 bound_to 6896
  152.5399  134.2388  159.8864 H   0  0  0  0  0  0  0  0  0  0  0  0  # atno 6908 bound_to 6896
  151.2409  133.4357  159.2641 H   0  0  0  0  0  0  0  0  0  0  0  0  # atno 6909 bound_to 6896
  144.8041  140.5220  143.5687 H   0  0  0  0  0  0  0  0  0  0  0  0  # atno 7974 bound_to 7965
  154.4718  140.2040  155.9976 H   0  0  0  0  0  0  0  0  0  0  0  0  # atno 8008 bound_to 7997
  156.1023  140.3242  155.7929 H   0  0  0  0  0  0  0  0  0  0  0  0  # atno 8009 bound_to 7997
  155.4776  140.0536  157.2962 H   0  0  0  0  0  0  0  0  0  0  0  0  # atno 8010 bound_to 7997
  140.2196  144.3802  150.6456 H   0  0  0  0  0  0  0  0  0  0  0  0  # atno 10167 bound_to 10162
  157.1030  131.0448  151.2490 H   0  0  0  0  0  0  0  0  0  0  0  0  # atno 10718 bound_to 10713
  153.7260  135.3246  155.3276 H   0  0  0  0  0  0  0  0  0  0  0  0  # atno 10763 bound_to 10752
  154.8341  135.4510  154.1170 H   0  0  0  0  0  0  0  0  0  0  0  0  # atno 10764 bound_to 10752
  153.2304  135.6959  153.7977 H   0  0  0  0  0  0  0  0  0  0  0  0  # atno 10765 bound_to 10752
  140.0711  134.9151  157.1346 H   0  0  0  0  0  0  0  0  0  0  0  0  # atno 11005 bound_to 11000
  145.5482  139.1476  143.3409 LP  0  0  0  0  0  0  0  0  0  0  0  0  # atno 17320 bound_to 7965
  146.2328  140.5620  142.8968 LP  0  0  0  0  0  0  0  0  0  0  0  0  # atno 17321 bound_to 7965
  140.6264  143.2182  151.6587 LP  0  0  0  0  0  0  0  0  0  0  0  0  # atno 17342 bound_to 10162
  139.5149  144.3396  152.0752 LP  0  0  0  0  0  0  0  0  0  0  0  0  # atno 17343 bound_to 10162
  157.4624  130.7661  149.7248 LP  0  0  0  0  0  0  0  0  0  0  0  0  # atno 17370 bound_to 10713
  155.9869  130.3971  150.3191 LP  0  0  0  0  0  0  0  0  0  0  0  0  # atno 17371 bound_to 10713
  140.3626  134.2478  155.7185 LP  0  0  0  0  0  0  0  0  0  0  0  0  # atno 17394 bound_to 11000
  141.2012  133.7968  157.0452 LP  0  0  0  0  0  0  0  0  0  0  0  0  # atno 17395 bound_to 11000

$$$$
