AV-unprocessed.smi:895|AV-procd|sdf|4074|dock5
  -GOLD-   22720 1563D 1   1.00000     0.00000
 Structure written by MMmdl.
 44 45  0  0  0  0  0  0  0  0  1 V2000
  143.7329  136.9162  152.4897 C   0  0  0  0  0  0  0  0  0  0  0  0
  144.8683  136.0015  151.9907 C   0  0  0  0  0  0  0  0  0  0  0  0
  144.2912  134.7060  151.3960 C   0  0  0  0  0  0  0  0  0  0  0  0
  145.5372  136.6602  150.9331 O   0  0  0  0  0  0  0  0  0  0  0  0
  145.9122  135.6673  153.0804 C   0  0  0  0  0  0  0  0  0  0  0  0
  146.9062  136.7219  153.2406 N   0  0  0  0  0  0  0  0  0  0  0  0
  146.7612  137.7824  154.0436 C   0  0  0  0  0  0  0  0  0  0  0  0
  145.7679  137.9878  154.7413 O   0  0  0  0  0  0  0  0  0  0  0  0
  147.8287  138.5901  153.9930 N   0  0  0  0  0  0  0  0  0  0  0  0
  147.9945  139.8320  154.7464 C   0  0  1  0  0  0  0  0  0  0  0  0
  147.6973  139.6078  156.2447 C   0  0  0  0  0  0  0  0  0  0  0  0
  147.8951  140.8997  157.0524 C   0  0  0  0  0  0  0  0  0  0  0  0
  149.3055  141.4772  156.8603 C   0  0  0  0  0  0  0  0  0  0  0  0
  149.6234  141.7024  155.3701 C   0  0  0  0  0  0  0  0  0  0  0  0
  149.3948  140.4522  154.4885 C   0  0  1  0  0  0  0  0  0  0  0  0
  150.4989  139.4929  154.5710 N   0  0  0  0  0  0  0  0  0  0  0  0
  151.6430  139.6001  155.3366 C   0  0  0  0  0  0  0  0  0  0  0  0
  152.4062  138.4928  155.1014 C   0  0  0  0  0  0  0  0  0  0  0  0
  151.6388  137.7499  154.1635 C   0  0  0  0  0  0  0  0  0  0  0  0
  150.5033  138.3495  153.8487 N   0  0  0  0  0  0  0  0  0  0  0  0
  143.2103  136.4665  153.3345 H   0  0  0  0  0  0  0  0  0  0  0  0
  142.9966  137.0943  151.7053 H   0  0  0  0  0  0  0  0  0  0  0  0
  144.1023  137.8911  152.8091 H   0  0  0  0  0  0  0  0  0  0  0  0
  143.7464  134.1363  152.1495 H   0  0  0  0  0  0  0  0  0  0  0  0
  145.0787  134.0616  151.0033 H   0  0  0  0  0  0  0  0  0  0  0  0
  143.5986  134.9151  150.5797 H   0  0  0  0  0  0  0  0  0  0  0  0
  144.8956  137.1143  150.4083 H   0  0  0  0  0  0  0  0  0  0  0  0
  145.4059  135.5383  154.0386 H   0  0  0  0  0  0  0  0  0  0  0  0
  146.4088  134.7203  152.8608 H   0  0  0  0  0  0  0  0  0  0  0  0
  147.7590  136.6314  152.7082 H   0  0  0  0  0  0  0  0  0  0  0  0
  148.5945  138.3244  153.3912 H   0  0  0  0  0  0  0  0  0  0  0  0
  147.2637  140.5551  154.3784 H   0  0  0  0  0  0  0  0  0  0  0  0
  146.6713  139.2607  156.3707 H   0  0  0  0  0  0  0  0  0  0  0  0
  148.3308  138.8192  156.6501 H   0  0  0  0  0  0  0  0  0  0  0  0
  147.1551  141.6383  156.7422 H   0  0  0  0  0  0  0  0  0  0  0  0
  147.7137  140.7070  158.1101 H   0  0  0  0  0  0  0  0  0  0  0  0
  149.3895  142.4223  157.3974 H   0  0  0  0  0  0  0  0  0  0  0  0
  150.0409  140.8126  157.3122 H   0  0  0  0  0  0  0  0  0  0  0  0
  148.9832  142.5054  155.0029 H   0  0  0  0  0  0  0  0  0  0  0  0
  150.6466  142.0622  155.2561 H   0  0  0  0  0  0  0  0  0  0  0  0
  149.3934  140.8029  153.4551 H   0  0  0  0  0  0  0  0  0  0  0  0
  151.8198  140.4503  155.9789 H   0  0  0  0  0  0  0  0  0  0  0  0
  153.3661  138.2514  155.5329 H   0  0  0  0  0  0  0  0  0  0  0  0
  151.8716  136.8005  153.7043 H   0  0  0  0  0  0  0  0  0  0  0  0
  1  2  1  0  0  0  0
  1 21  1  0  0  0  0
  1 22  1  0  0  0  0
  1 23  1  0  0  0  0
  2  3  1  0  0  0  0
  2  4  1  0  0  0  0
  2  5  1  0  0  0  0
  3 24  1  0  0  0  0
  3 25  1  0  0  0  0
  3 26  1  0  0  0  0
  4 27  1  0  0  0  0
  5  6  1  0  0  0  0
  5 28  1  0  0  0  0
  5 29  1  0  0  0  0
  6  7  1  0  0  0  0
  6 30  1  0  0  0  0
  7  8  2  0  0  0  0
  7  9  1  0  0  0  0
  9 10  1  0  0  0  0
  9 31  1  0  0  0  0
 10 15  1  0  0  0  0
 10 11  1  0  0  0  0
 10 32  1  0  0  0  0
 11 12  1  0  0  0  0
 11 33  1  0  0  0  0
 11 34  1  0  0  0  0
 12 13  1  0  0  0  0
 12 35  1  0  0  0  0
 12 36  1  0  0  0  0
 13 14  1  0  0  0  0
 13 37  1  0  0  0  0
 13 38  1  0  0  0  0
 14 15  1  0  0  0  0
 14 39  1  0  0  0  0
 14 40  1  0  0  0  0
 15 16  1  0  0  0  0
 15 41  1  0  0  0  0
 16 20  1  0  0  0  0
 16 17  1  0  0  0  0
 17 18  2  0  0  0  0
 17 42  1  0  0  0  0
 18 19  1  0  0  0  0
 18 43  1  0  0  0  0
 19 20  2  0  0  0  0
 19 44  1  0  0  0  0
M  END
> <s_m_source_file>
AV-unprocessed.smi

> <i_m_source_file_index>
895

> <i_lp_mmshare_version>
43012

> <i_f3d_flags>
0

> <s_epik_input>
W0NIM11DKFtDSDNdKShbT0hdKVtDSDJdW05IXUMoPU8pW05IXVtDQEBIXTFbQ0gyXVtDSDJdW0NIMl1bQ0gyXVtDQEhdMW4yW2NIXVtjSF1bY0hdbjI=

> <s_epik_cmdline>
J2VwaWtfcHl0aG9uJywgJy1waCcsICc3LjAnLCAnLXRuJywgJzgnLCAnLW1hJywgJzIwMCcsICctbWV0YWxfYmluZGluZycsICctaW1hZScsICc8aW5maWxlLm1hZT4nLCAnLW9tYWUnLCAnPG91dGZpbGUubWFlPic=

> <r_lp_tautomer_probability>
1

> <r_epik_Ionization_Penalty>
0.000440451

> <r_epik_Ionization_Penalty_Charging>
0

> <r_epik_Ionization_Penalty_Neutral>
0.000440451

> <r_epik_State_Penalty>
-0

> <r_epik_Charging_Adjusted_Penalty>
0

> <i_epik_Tot_Q>
0

> <i_epik_Tot_abs_Q>
0

> <r_epik_Metal_State_Penalty>
-0

> <b_epik_Metal_Only>
0

> <s_lp_Force_Field>
OPLS_2005

> <r_lp_Energy>
15.0391

> <b_lp_Chiralities_Consistent>
1

> <s_lp_Variant>
AV-unprocessed.smi:895-2

> <Gold.Version>
5.8.1

> <Gold.Id.Protein>
6NUR|6NUR_protein|mol2

> <Gold.PLP.Fitness>
37.9261

> <Gold.PLP.PLP>
-30.1468

> <Gold.PLP.part.hbond>
-2.0000

> <Gold.PLP.part.metal>
0.0000

> <Gold.PLP.part.buried>
-0.9234

> <Gold.PLP.part.nonpolar>
-26.3946

> <Gold.PLP.part.repulsive>
0.3471

> <Gold.PLP.ligand.clash>
0.0000

> <Gold.PLP.ligand.torsion>
0.6601

> <Gold.PLP.Chemscore.Hbond>
2.0000

> <Gold.PLP.Chemscore.CHOScore>
1.0000

> <Gold.PLP.Chemscore.Metal>
0.0000

> <Gold.Chemscore.Hbonds>
donor molecule, donor type, donor heavy atom, donor atom, acceptor molecule, acceptor atom, score
      L1  H     4    27       P1 10171  1.00
      L1  H     6    30       P1  7948  0.96
      L1  C    19    44       P1  7949  0.96

> <Gold.PLP.Chemscore.Internal.Correction>
0.0995

> <Gold.Rescore>
     Score         DG    S(hbond)    S(metal)    S(lipo)     H(rot)  DE(clash)    DE(int)     intcor
     10.77     -14.23       2.00        0.00      65.80       2.19       0.14       3.32       ----

> <Gold.Chemscore.Fitness>
10.7727

> <Gold.Chemscore.DG>
-14.2323

> <Gold.Chemscore.ZeroCoef>
-5.4800

> <Gold.Chemscore.Hbond>
1.9954

> <Gold.Chemscore.Metal>
0.0000

> <Gold.Chemscore.Lipo>
65.8032

> <Gold.Chemscore.Internal_Hbond>
0.0000

> <Gold.Chemscore.DEClash>
0.1386

> <Gold.Chemscore.DEInternal>
3.3210

> <Gold.Chemscore.Rot>
2.1919

> <Gold.Chemscore.Internal.Correction>
   9.000000E+99

> <Gold.Chemscore.Hbonds>
donor molecule, donor type, donor heavy atom, donor atom, acceptor molecule, acceptor atom, score
      L1  H     4    27       P1 10171  0.99
      L1  H     6    30       P1  7948  0.91

> <Gold.Chemscore.Hbond.Weighted>
-6.6646

> <Gold.Chemscore.Metal.Weighted>
-0.0000

> <Gold.Chemscore.Lipo.Weighted>
-7.6990

> <Gold.Chemscore.Internal_Hbond.Weighted>
0.0000

> <Gold.Chemscore.DEClash.Weighted>
0.1386

> <Gold.Chemscore.DEInternal.Weighted>
3.3210

> <Gold.Chemscore.Rot.Weighted>
5.6113

> <Gold.Chemscore.Internal.Correction.Weighted>
   9.000000E+99

> <Gold.Protein.RotatedTorsions>
[ 6907 6896 6895 6894 ] final  102.13 input  -60.11 | X-H torsion
[ 7974 7965 7964 7962 ] final   51.15 input  175.53 | X-H torsion
[ 8008 7997 7996 7995 ] final -108.17 input   59.86 | X-H torsion
[ 10167 10162 10161 10158 ] final -115.60 input  -65.29 | X-H torsion
[ 10718 10713 10712 10709 ] final -130.25 input   66.30 | X-H torsion
[ 10763 10752 10751 10750 ] final   26.65 input  -60.55 | X-H torsion
[ 11005 11000 10999 10996 ] final -105.63 input  -57.11 | X-H torsion

> <Gold.Protein.ActiveResidues>
 VAL166  LYS551  ARG553  GLY616  TRP617  ASP618  TYR619  PRO620  LYS621  CYS622 
 ASP623  PHE694  ASN695  SER759  ASP760  ASP761  ALA762  ILE779  LEU786  VAL792 
 PHE793  MET794  SER795  GLU796  ALA797  LYS798  CYS799  TRP800  GLU811  SER814 

> <Gold.Protein.RotatedAtoms>
  152.5332  134.0021  159.7899 H   0  0  0  0  0  0  0  0  0  0  0  0  # atno 6907 bound_to 6896
  151.0238  133.5844  159.2675 H   0  0  0  0  0  0  0  0  0  0  0  0  # atno 6908 bound_to 6896
  151.2874  135.0739  159.9245 H   0  0  0  0  0  0  0  0  0  0  0  0  # atno 6909 bound_to 6896
  145.9942  139.4370  143.0055 H   0  0  0  0  0  0  0  0  0  0  0  0  # atno 7974 bound_to 7965
  154.9402  140.0403  157.2093 H   0  0  0  0  0  0  0  0  0  0  0  0  # atno 8008 bound_to 7997
  154.8076  140.2862  155.5854 H   0  0  0  0  0  0  0  0  0  0  0  0  # atno 8009 bound_to 7997
  156.2968  140.2543  156.2957 H   0  0  0  0  0  0  0  0  0  0  0  0  # atno 8010 bound_to 7997
  140.0883  143.4723  152.1885 H   0  0  0  0  0  0  0  0  0  0  0  0  # atno 10167 bound_to 10162
  156.2125  130.6928  151.0666 H   0  0  0  0  0  0  0  0  0  0  0  0  # atno 10718 bound_to 10713
  153.0608  135.6555  154.0468 H   0  0  0  0  0  0  0  0  0  0  0  0  # atno 10763 bound_to 10752
  154.0136  135.2926  155.3391 H   0  0  0  0  0  0  0  0  0  0  0  0  # atno 10764 bound_to 10752
  154.6945  135.5269  153.8507 H   0  0  0  0  0  0  0  0  0  0  0  0  # atno 10765 bound_to 10752
  141.1044  133.8824  157.1757 H   0  0  0  0  0  0  0  0  0  0  0  0  # atno 11005 bound_to 11000
  145.7585  140.9944  143.1212 LP  0  0  0  0  0  0  0  0  0  0  0  0  # atno 17320 bound_to 7965
  144.6898  139.9301  143.7471 LP  0  0  0  0  0  0  0  0  0  0  0  0  # atno 17321 bound_to 7965
  139.5739  144.7477  151.3817 LP  0  0  0  0  0  0  0  0  0  0  0  0  # atno 17342 bound_to 10162
  140.7042  143.7557  150.7453 LP  0  0  0  0  0  0  0  0  0  0  0  0  # atno 17343 bound_to 10162
  157.7046  131.0762  150.6709 LP  0  0  0  0  0  0  0  0  0  0  0  0  # atno 17370 bound_to 10713
  156.6769  130.4556  149.5640 LP  0  0  0  0  0  0  0  0  0  0  0  0  # atno 17371 bound_to 10713
  139.9908  135.0065  156.9971 LP  0  0  0  0  0  0  0  0  0  0  0  0  # atno 17394 bound_to 11000
  140.4940  134.1165  155.7238 LP  0  0  0  0  0  0  0  0  0  0  0  0  # atno 17395 bound_to 11000

$$$$
