AV-unprocessed.smi:101|AV-procd|sdf|928|dock2
  -GOLD-   2262017443D 1   1.00000     0.00000
 Structure written by MMmdl.
 44 46  0  0  0  0  0  0  0  0  1 V2000
  144.6641  145.7737  152.9472 C   0  0  0  0  0  0  0  0  0  0  0  0
  145.1209  144.5546  153.7319 C   0  0  0  0  0  0  0  0  0  0  0  0
  145.9754  143.6342  153.2148 C   0  0  0  0  0  0  0  0  0  0  0  0
  146.4116  142.5094  153.9078 N   0  0  0  0  0  0  0  0  0  0  0  0
  147.3529  141.4787  153.3067 C   0  0  1  0  0  0  0  0  0  0  0  0
  148.5923  141.5477  153.9508 O   0  0  0  0  0  0  0  0  0  0  0  0
  148.6784  140.5085  154.9171 C   0  0  2  0  0  0  0  0  0  0  0  0
  150.1142  140.3043  155.4332 C   0  0  0  0  0  0  0  0  0  0  0  0
  150.4361  141.2393  156.4509 O   0  0  0  0  0  0  0  0  0  0  0  0
  151.5588  141.0909  157.1786 C   0  0  0  0  0  0  0  0  0  0  0  0
  152.2695  140.0845  157.1397 O   0  0  0  0  0  0  0  0  0  0  0  0
  151.8505  142.2741  158.0385 C   0  0  0  0  0  0  0  0  0  0  0  0
  151.4495  143.5602  157.6076 C   0  0  0  0  0  0  0  0  0  0  0  0
  151.7130  144.6960  158.3976 C   0  0  0  0  0  0  0  0  0  0  0  0
  152.3794  144.5593  159.6292 C   0  0  0  0  0  0  0  0  0  0  0  0
  152.7821  143.2850  160.0699 C   0  0  0  0  0  0  0  0  0  0  0  0
  152.5205  142.1481  159.2807 C   0  0  0  0  0  0  0  0  0  0  0  0
  147.9607  139.3324  154.2469 C   0  0  2  0  0  0  0  0  0  0  0  0
  148.8149  138.6342  153.3556 O   0  0  0  0  0  0  0  0  0  0  0  0
  146.8118  140.0437  153.5276 C   0  0  2  0  0  0  0  0  0  0  0  0
  146.4302  139.3945  152.3286 O   0  0  0  0  0  0  0  0  0  0  0  0
  145.9232  142.2773  155.2110 C   0  0  0  0  0  0  0  0  0  0  0  0
  146.2387  141.2902  155.8741 O   0  0  0  0  0  0  0  0  0  0  0  0
  145.0492  143.2229  155.7427 N   0  0  0  0  0  0  0  0  0  0  0  0
  144.6033  144.3739  155.0907 C   0  0  0  0  0  0  0  0  0  0  0  0
  143.8307  145.1379  155.6673 O   0  0  0  0  0  0  0  0  0  0  0  0
  144.7052  143.0604  156.6779 H   0  0  0  0  0  0  0  0  0  0  0  0
  145.1260  145.8184  151.9605 H   0  0  0  0  0  0  0  0  0  0  0  0
  144.9246  146.6896  153.4789 H   0  0  0  0  0  0  0  0  0  0  0  0
  143.5825  145.7532  152.8091 H   0  0  0  0  0  0  0  0  0  0  0  0
  146.3190  143.8034  152.2061 H   0  0  0  0  0  0  0  0  0  0  0  0
  147.4734  141.7671  152.2605 H   0  0  0  0  0  0  0  0  0  0  0  0
  148.0713  140.8078  155.7729 H   0  0  0  0  0  0  0  0  0  0  0  0
  150.2124  139.2950  155.8353 H   0  0  0  0  0  0  0  0  0  0  0  0
  150.8230  140.3943  154.6090 H   0  0  0  0  0  0  0  0  0  0  0  0
  150.9368  143.6901  156.6652 H   0  0  0  0  0  0  0  0  0  0  0  0
  151.4033  145.6732  158.0577 H   0  0  0  0  0  0  0  0  0  0  0  0
  152.5809  145.4305  160.2348 H   0  0  0  0  0  0  0  0  0  0  0  0
  153.2933  143.1781  161.0152 H   0  0  0  0  0  0  0  0  0  0  0  0
  152.8433  141.1851  159.6493 H   0  0  0  0  0  0  0  0  0  0  0  0
  147.5897  138.6186  154.9831 H   0  0  0  0  0  0  0  0  0  0  0  0
  148.9382  139.1601  152.5803 H   0  0  0  0  0  0  0  0  0  0  0  0
  145.9504  140.0841  154.1963 H   0  0  0  0  0  0  0  0  0  0  0  0
  145.5673  139.6963  152.0882 H   0  0  0  0  0  0  0  0  0  0  0  0
  1  2  1  0  0  0  0
  1 28  1  0  0  0  0
  1 29  1  0  0  0  0
  1 30  1  0  0  0  0
  2 25  1  0  0  0  0
  2  3  2  0  0  0  0
  3  4  1  0  0  0  0
  3 31  1  0  0  0  0
  4  5  1  0  0  0  0
  4 22  1  0  0  0  0
  5 20  1  0  0  0  0
  5  6  1  0  0  0  0
  5 32  1  0  0  0  0
  6  7  1  0  0  0  0
  7  8  1  0  0  0  0
  7 18  1  0  0  0  0
  7 33  1  0  0  0  0
  8  9  1  0  0  0  0
  8 34  1  0  0  0  0
  8 35  1  0  0  0  0
  9 10  1  0  0  0  0
 10 11  2  0  0  0  0
 10 12  1  0  0  0  0
 12 17  1  0  0  0  0
 12 13  2  0  0  0  0
 13 14  1  0  0  0  0
 13 36  1  0  0  0  0
 14 15  2  0  0  0  0
 14 37  1  0  0  0  0
 15 16  1  0  0  0  0
 15 38  1  0  0  0  0
 16 17  2  0  0  0  0
 16 39  1  0  0  0  0
 17 40  1  0  0  0  0
 18 19  1  0  0  0  0
 18 20  1  0  0  0  0
 18 41  1  0  0  0  0
 19 42  1  0  0  0  0
 20 21  1  0  0  0  0
 20 43  1  0  0  0  0
 21 44  1  0  0  0  0
 22 23  2  0  0  0  0
 22 24  1  0  0  0  0
 24 27  1  0  0  0  0
 24 25  1  0  0  0  0
 25 26  2  0  0  0  0
M  END
> <s_m_source_file>
AV-unprocessed.smi

> <i_m_source_file_index>
101

> <i_lp_mmshare_version>
43012

> <i_f3d_flags>
0

> <s_epik_input>
Tz1jMVtuSF1jKD1PKW4oW2NIXWMxW0NIM10pW0NAQEhdMk9bQ0BIXShbQ0BASF0oW09IXSlbQ0BIXTJbT0hdKVtDSDJdT0MoPU8pYzNbY0hdW2NIXVtjSF1bY0hdW2NIXTM=

> <s_epik_cmdline>
J2VwaWtfcHl0aG9uJywgJy1waCcsICc3LjAnLCAnLXRuJywgJzgnLCAnLW1hJywgJzIwMCcsICctbWV0YWxfYmluZGluZycsICctaW1hZScsICc8aW5maWxlLm1hZT4nLCAnLW9tYWUnLCAnPG91dGZpbGUubWFlPic=

> <r_lp_tautomer_probability>
0.999537

> <r_epik_Ionization_Penalty>
0.00263537

> <r_epik_Ionization_Penalty_Charging>
0.00263428

> <r_epik_Ionization_Penalty_Neutral>
1.09111e-06

> <r_epik_State_Penalty>
0.00183335

> <r_epik_Charging_Adjusted_Penalty>
0.00446763

> <i_epik_Tot_Q>
0

> <i_epik_Tot_abs_Q>
0

> <r_epik_Metal_State_Penalty>
1.00528

> <b_epik_Metal_Only>
0

> <s_epik_Chemistry_Notes>
This compound has an ester and may undergo hydrolysis at high or low pH. This compound contains an acetal/aminal-like group ( X-CH(R)-Y where X, Y are N, S, or O) that may be acid/base labile, releasing an aldehyde.

> <s_lp_Force_Field>
OPLS_2005

> <r_lp_Energy>
40.8637

> <b_lp_Chiralities_Consistent>
1

> <s_lp_Variant>
AV-unprocessed.smi:101-16

> <Gold.Version>
5.8.1

> <Gold.Id.Protein>
6NUR|6NUR_protein|mol2

> <Gold.PLP.Fitness>
60.1930

> <Gold.PLP.PLP>
-53.9855

> <Gold.PLP.part.hbond>
-4.8618

> <Gold.PLP.part.metal>
0.0000

> <Gold.PLP.part.buried>
-9.1245

> <Gold.PLP.part.nonpolar>
-40.6407

> <Gold.PLP.part.repulsive>
0.3153

> <Gold.PLP.ligand.clash>
1.7067

> <Gold.PLP.ligand.torsion>
0.9721

> <Gold.PLP.Chemscore.Hbond>
3.2281

> <Gold.PLP.Chemscore.CHOScore>
0.0000

> <Gold.PLP.Chemscore.Metal>
0.0000

> <Gold.Chemscore.Hbonds>
donor molecule, donor type, donor heavy atom, donor atom, acceptor molecule, acceptor atom, score
      L1  H    19    42       P1  7957  1.00
      L1  H    21    44       P1 10175  0.93
      P1  H  7997  8008       L1    11  0.62
      P1  H  8011  8017       L1     6  0.37

> <Gold.PLP.Chemscore.Internal.Correction>
0.1740

> <Gold.Rescore>
     Score         DG    S(hbond)    S(metal)    S(lipo)     H(rot)  DE(clash)    DE(int)     intcor
     14.43     -20.41       2.96        0.00     115.80       3.32       0.44       5.54       ----

> <Gold.Chemscore.Fitness>
14.4325

> <Gold.Chemscore.DG>
-20.4116

> <Gold.Chemscore.ZeroCoef>
-5.4800

> <Gold.Chemscore.Hbond>
2.9565

> <Gold.Chemscore.Metal>
0.0000

> <Gold.Chemscore.Lipo>
115.8015

> <Gold.Chemscore.Internal_Hbond>
0.0000

> <Gold.Chemscore.DEClash>
0.4406

> <Gold.Chemscore.DEInternal>
5.5385

> <Gold.Chemscore.Rot>
3.3172

> <Gold.Chemscore.Internal.Correction>
   9.000000E+99

> <Gold.Chemscore.Hbonds>
donor molecule, donor type, donor heavy atom, donor atom, acceptor molecule, acceptor atom, score
      L1  H    19    42       P1  7957  1.00
      L1  H    21    44       P1 10175  0.79
      P1  H  7997  8008       L1    11  0.60
      P1  H  8011  8017       L1     6  0.08

> <Gold.Chemscore.Hbond.Weighted>
-9.8749

> <Gold.Chemscore.Metal.Weighted>
-0.0000

> <Gold.Chemscore.Lipo.Weighted>
-13.5488

> <Gold.Chemscore.Internal_Hbond.Weighted>
0.0000

> <Gold.Chemscore.DEClash.Weighted>
0.4406

> <Gold.Chemscore.DEInternal.Weighted>
5.5385

> <Gold.Chemscore.Rot.Weighted>
8.4920

> <Gold.Chemscore.Internal.Correction.Weighted>
   9.000000E+99

> <Gold.Protein.RotatedTorsions>
[ 6907 6896 6895 6894 ] final    8.12 input  -60.11 | X-H torsion
[ 7974 7965 7964 7962 ] final -113.86 input  175.53 | X-H torsion
[ 8008 7997 7996 7995 ] final  -47.53 input   59.86 | X-H torsion
[ 10167 10162 10161 10158 ] final  -47.50 input  -65.29 | X-H torsion
[ 10718 10713 10712 10709 ] final  168.35 input   66.30 | X-H torsion
[ 10763 10752 10751 10750 ] final  -64.32 input  -60.55 | X-H torsion
[ 11005 11000 10999 10996 ] final   98.17 input  -57.11 | X-H torsion

> <Gold.Protein.ActiveResidues>
 VAL166  LYS551  ARG553  GLY616  TRP617  ASP618  TYR619  PRO620  LYS621  CYS622 
 ASP623  PHE694  ASN695  SER759  ASP760  ASP761  ALA762  ILE779  LEU786  VAL792 
 PHE793  MET794  SER795  GLU796  ALA797  LYS798  CYS799  TRP800  GLU811  SER814 

> <Gold.Protein.RotatedAtoms>
  151.7009  135.0930  160.0250 H   0  0  0  0  0  0  0  0  0  0  0  0  # atno 6907 bound_to 6896
  152.3721  133.6428  159.6103 H   0  0  0  0  0  0  0  0  0  0  0  0  # atno 6908 bound_to 6896
  150.7681  133.9170  159.3428 H   0  0  0  0  0  0  0  0  0  0  0  0  # atno 6909 bound_to 6896
  145.1270  140.8702  143.3780 H   0  0  0  0  0  0  0  0  0  0  0  0  # atno 7974 bound_to 7965
  154.4018  140.1344  156.4191 H   0  0  0  0  0  0  0  0  0  0  0  0  # atno 8008 bound_to 7997
  155.7660  140.3485  155.5202 H   0  0  0  0  0  0  0  0  0  0  0  0  # atno 8009 bound_to 7997
  155.8813  140.0988  157.1474 H   0  0  0  0  0  0  0  0  0  0  0  0  # atno 8010 bound_to 7997
  140.6772  143.2782  151.3935 H   0  0  0  0  0  0  0  0  0  0  0  0  # atno 10167 bound_to 10162
  157.0384  131.0279  151.2721 H   0  0  0  0  0  0  0  0  0  0  0  0  # atno 10718 bound_to 10713
  154.3283  135.6182  153.5539 H   0  0  0  0  0  0  0  0  0  0  0  0  # atno 10763 bound_to 10752
  152.9813  135.5740  154.4991 H   0  0  0  0  0  0  0  0  0  0  0  0  # atno 10764 bound_to 10752
  154.4673  135.2858  155.1646 H   0  0  0  0  0  0  0  0  0  0  0  0  # atno 10765 bound_to 10752
  139.8773  134.9036  156.4416 H   0  0  0  0  0  0  0  0  0  0  0  0  # atno 11005 bound_to 11000
  145.0677  139.3055  143.5848 LP  0  0  0  0  0  0  0  0  0  0  0  0  # atno 17320 bound_to 7965
  146.3517  140.0141  142.8664 LP  0  0  0  0  0  0  0  0  0  0  0  0  # atno 17321 bound_to 7965
  139.6072  144.1173  152.2261 LP  0  0  0  0  0  0  0  0  0  0  0  0  # atno 17342 bound_to 10162
  140.0575  144.5883  150.7288 LP  0  0  0  0  0  0  0  0  0  0  0  0  # atno 17343 bound_to 10162
  157.5123  130.7946  149.7719 LP  0  0  0  0  0  0  0  0  0  0  0  0  # atno 17370 bound_to 10713
  156.0046  130.3862  150.2478 LP  0  0  0  0  0  0  0  0  0  0  0  0  # atno 17371 bound_to 10713
  140.8995  133.7790  155.9664 LP  0  0  0  0  0  0  0  0  0  0  0  0  # atno 17394 bound_to 11000
  140.8666  134.2776  157.5210 LP  0  0  0  0  0  0  0  0  0  0  0  0  # atno 17395 bound_to 11000

$$$$
