AV-unprocessed.smi:576|AV-procd|sdf|2979|dock9
  -GOLD-   2262023493D 1   1.00000     0.00000
 Structure written by MMmdl.
 35 36  0  0  0  0  0  0  0  0  1 V2000
  147.3685  141.1651  153.5127 C   0  0  0  0  0  0  0  0  0  0  0  0
  147.5537  141.1736  155.0366 C   0  0  1  0  0  0  0  0  0  0  0  0
  148.7873  141.8858  155.3530 N   0  0  0  0  0  0  0  0  0  0  0  0
  149.8919  141.3344  155.8785 C   0  0  0  0  0  0  0  0  0  0  0  0
  149.9949  140.1327  156.1289 O   0  0  0  0  0  0  0  0  0  0  0  0
  151.0620  142.2926  156.1414 C   0  0  0  0  0  0  0  0  0  0  0  0
  151.6140  142.1714  157.5013 N   0  0  0  0  0  0  0  0  0  0  0  0
  151.4456  143.2721  158.3644 C   0  0  0  0  0  0  0  0  0  0  0  0
  151.9195  143.2943  159.6250 C   0  0  0  0  0  0  0  0  0  0  0  0
  151.6776  144.4782  160.5485 C   0  0  0  0  0  0  0  0  0  0  0  0
  152.1832  145.6001  160.0353 F   0  0  0  0  0  0  0  0  0  0  0  0
  150.3691  144.6549  160.7252 F   0  0  0  0  0  0  0  0  0  0  0  0
  152.2341  144.2767  161.7434 F   0  0  0  0  0  0  0  0  0  0  0  0
  152.5969  142.0962  160.0809 C   0  0  0  0  0  0  0  0  0  0  0  0
  152.7611  141.0323  159.2703 C   0  0  0  0  0  0  0  0  0  0  0  0
  152.2621  141.0334  157.8932 C   0  0  0  0  0  0  0  0  0  0  0  0
  152.4153  140.0715  157.1399 O   0  0  0  0  0  0  0  0  0  0  0  0
  146.3297  141.7519  155.7274 C   0  0  0  0  0  0  0  0  0  0  0  0
  144.9405  141.2367  155.4324 C   0  0  0  0  0  0  0  0  0  0  0  0
  145.3486  142.6176  154.9730 C   0  0  0  0  0  0  0  0  0  0  0  0
  146.4836  140.5953  153.2281 H   0  0  0  0  0  0  0  0  0  0  0  0
  148.2248  140.7100  153.0136 H   0  0  0  0  0  0  0  0  0  0  0  0
  147.2519  142.1764  153.1211 H   0  0  0  0  0  0  0  0  0  0  0  0
  147.6619  140.1347  155.3549 H   0  0  0  0  0  0  0  0  0  0  0  0
  148.7956  142.8795  155.1733 H   0  0  0  0  0  0  0  0  0  0  0  0
  151.8322  142.0987  155.3938 H   0  0  0  0  0  0  0  0  0  0  0  0
  150.7410  143.3202  155.9595 H   0  0  0  0  0  0  0  0  0  0  0  0
  150.9088  144.1042  157.9327 H   0  0  0  0  0  0  0  0  0  0  0  0
  152.9842  142.0517  161.0881 H   0  0  0  0  0  0  0  0  0  0  0  0
  153.2732  140.1571  159.6425 H   0  0  0  0  0  0  0  0  0  0  0  0
  146.5148  142.0488  156.7584 H   0  0  0  0  0  0  0  0  0  0  0  0
  144.8324  140.4682  154.6697 H   0  0  0  0  0  0  0  0  0  0  0  0
  144.2450  141.1667  156.2664 H   0  0  0  0  0  0  0  0  0  0  0  0
  144.9236  143.4700  155.4992 H   0  0  0  0  0  0  0  0  0  0  0  0
  145.5137  142.7620  153.9070 H   0  0  0  0  0  0  0  0  0  0  0  0
  1  2  1  0  0  0  0
  1 21  1  0  0  0  0
  1 22  1  0  0  0  0
  1 23  1  0  0  0  0
  2  3  1  0  0  0  0
  2 18  1  0  0  0  0
  2 24  1  0  0  0  0
  3  4  1  0  0  0  0
  3 25  1  0  0  0  0
  4  5  2  0  0  0  0
  4  6  1  0  0  0  0
  6  7  1  0  0  0  0
  6 26  1  0  0  0  0
  6 27  1  0  0  0  0
  7 16  1  0  0  0  0
  7  8  1  0  0  0  0
  8  9  2  0  0  0  0
  8 28  1  0  0  0  0
  9 10  1  0  0  0  0
  9 14  1  0  0  0  0
 10 11  1  0  0  0  0
 10 12  1  0  0  0  0
 10 13  1  0  0  0  0
 14 15  2  0  0  0  0
 14 29  1  0  0  0  0
 15 16  1  0  0  0  0
 15 30  1  0  0  0  0
 16 17  2  0  0  0  0
 18 20  1  0  0  0  0
 18 19  1  0  0  0  0
 18 31  1  0  0  0  0
 19 20  1  0  0  0  0
 19 32  1  0  0  0  0
 19 33  1  0  0  0  0
 20 34  1  0  0  0  0
 20 35  1  0  0  0  0
M  END
> <s_m_source_file>
AV-unprocessed.smi

> <i_m_source_file_index>
576

> <i_lp_mmshare_version>
43012

> <i_f3d_flags>
0

> <s_epik_input>
W0NIMl0xW0NIMl1bQ0hdMVtDQEhdKFtDSDNdKVtOSF1DKD1PKVtDSDJdbjJbY0hdYyhDKEYpKEYpRilbY0hdW2NIXWMyPU8=

> <s_epik_cmdline>
J2VwaWtfcHl0aG9uJywgJy1waCcsICc3LjAnLCAnLXRuJywgJzgnLCAnLW1hJywgJzIwMCcsICctbWV0YWxfYmluZGluZycsICctaW1hZScsICc8aW5maWxlLm1hZT4nLCAnLW9tYWUnLCAnPG91dGZpbGUubWFlPic=

> <r_lp_tautomer_probability>
1

> <r_epik_Ionization_Penalty>
3.84201e-08

> <r_epik_Ionization_Penalty_Charging>
1.91184e-08

> <r_epik_Ionization_Penalty_Neutral>
1.93017e-08

> <r_epik_State_Penalty>
-0

> <r_epik_Charging_Adjusted_Penalty>
1.91184e-08

> <i_epik_Tot_Q>
0

> <i_epik_Tot_abs_Q>
0

> <r_epik_Metal_State_Penalty>
-0

> <b_epik_Metal_Only>
0

> <s_lp_Force_Field>
OPLS_2005

> <r_lp_Energy>
24.3329

> <b_lp_Chiralities_Consistent>
1

> <s_lp_Variant>
AV-unprocessed.smi:576-2

> <Gold.Version>
5.8.1

> <Gold.Id.Protein>
6NUR|6NUR_protein|mol2

> <Gold.PLP.Fitness>
44.2165

> <Gold.PLP.PLP>
-38.7191

> <Gold.PLP.part.hbond>
-2.0000

> <Gold.PLP.part.metal>
0.0000

> <Gold.PLP.part.buried>
-4.9983

> <Gold.PLP.part.nonpolar>
-30.6046

> <Gold.PLP.part.repulsive>
0.1520

> <Gold.PLP.ligand.clash>
0.0000

> <Gold.PLP.ligand.torsion>
0.8000

> <Gold.PLP.Chemscore.Hbond>
1.9913

> <Gold.PLP.Chemscore.CHOScore>
0.0000

> <Gold.PLP.Chemscore.Metal>
0.0000

> <Gold.Chemscore.Hbonds>
donor molecule, donor type, donor heavy atom, donor atom, acceptor molecule, acceptor atom, score
      L1  H     3    25       P1  8028  1.00
      P1  H  7997  8009       L1    17  1.00

> <Gold.PLP.Chemscore.Internal.Correction>
1.1237

> <Gold.Rescore>
     Score         DG    S(hbond)    S(metal)    S(lipo)     H(rot)  DE(clash)    DE(int)     intcor
     13.23     -16.83       1.87        0.00      82.07       1.77       0.39       3.21       ----

> <Gold.Chemscore.Fitness>
13.2323

> <Gold.Chemscore.DG>
-16.8251

> <Gold.Chemscore.ZeroCoef>
-5.4800

> <Gold.Chemscore.Hbond>
1.8749

> <Gold.Chemscore.Metal>
0.0000

> <Gold.Chemscore.Lipo>
82.0695

> <Gold.Chemscore.Internal_Hbond>
0.0000

> <Gold.Chemscore.DEClash>
0.3855

> <Gold.Chemscore.DEInternal>
3.2072

> <Gold.Chemscore.Rot>
1.7653

> <Gold.Chemscore.Internal.Correction>
   9.000000E+99

> <Gold.Chemscore.Hbonds>
donor molecule, donor type, donor heavy atom, donor atom, acceptor molecule, acceptor atom, score
      L1  H     3    25       P1  8028  0.98
      P1  H  7997  8009       L1    17  0.47

> <Gold.Chemscore.Hbond.Weighted>
-6.2621

> <Gold.Chemscore.Metal.Weighted>
-0.0000

> <Gold.Chemscore.Lipo.Weighted>
-9.6021

> <Gold.Chemscore.Internal_Hbond.Weighted>
0.0000

> <Gold.Chemscore.DEClash.Weighted>
0.3855

> <Gold.Chemscore.DEInternal.Weighted>
3.2072

> <Gold.Chemscore.Rot.Weighted>
4.5191

> <Gold.Chemscore.Internal.Correction.Weighted>
   9.000000E+99

> <Gold.Protein.RotatedTorsions>
[ 6907 6896 6895 6894 ] final    6.70 input  -60.11 | X-H torsion
[ 7974 7965 7964 7962 ] final  -15.40 input  175.53 | X-H torsion
[ 8008 7997 7996 7995 ] final -179.55 input   59.86 | X-H torsion
[ 10167 10162 10161 10158 ] final   39.55 input  -65.29 | X-H torsion
[ 10718 10713 10712 10709 ] final  -99.27 input   66.30 | X-H torsion
[ 10763 10752 10751 10750 ] final  139.66 input  -60.55 | X-H torsion
[ 11005 11000 10999 10996 ] final   96.46 input  -57.11 | X-H torsion

> <Gold.Protein.ActiveResidues>
 VAL166  LYS551  ARG553  GLY616  TRP617  ASP618  TYR619  PRO620  LYS621  CYS622 
 ASP623  PHE694  ASN695  SER759  ASP760  ASP761  ALA762  ILE779  LEU786  VAL792 
 PHE793  MET794  SER795  GLU796  ALA797  LYS798  CYS799  TRP800  GLU811  SER814 

> <Gold.Protein.RotatedAtoms>
  151.6780  135.0966  160.0210 H   0  0  0  0  0  0  0  0  0  0  0  0  # atno 6907 bound_to 6896
  152.3852  133.6597  159.6202 H   0  0  0  0  0  0  0  0  0  0  0  0  # atno 6908 bound_to 6896
  150.7780  133.8963  159.3369 H   0  0  0  0  0  0  0  0  0  0  0  0  # atno 6909 bound_to 6896
  146.2033  140.3488  142.8415 H   0  0  0  0  0  0  0  0  0  0  0  0  # atno 7974 bound_to 7965
  156.0318  140.1284  157.0250 H   0  0  0  0  0  0  0  0  0  0  0  0  # atno 8008 bound_to 7997
  154.4353  140.1048  156.6181 H   0  0  0  0  0  0  0  0  0  0  0  0  # atno 8009 bound_to 7997
  155.5796  140.3468  155.4539 H   0  0  0  0  0  0  0  0  0  0  0  0  # atno 8010 bound_to 7997
  140.3829  144.1956  150.6130 H   0  0  0  0  0  0  0  0  0  0  0  0  # atno 10167 bound_to 10162
  156.0129  130.5275  150.6646 H   0  0  0  0  0  0  0  0  0  0  0  0  # atno 10718 bound_to 10713
  153.9098  135.3012  155.3448 H   0  0  0  0  0  0  0  0  0  0  0  0  # atno 10763 bound_to 10752
  154.7629  135.4925  153.9502 H   0  0  0  0  0  0  0  0  0  0  0  0  # atno 10764 bound_to 10752
  153.1199  135.6780  153.9455 H   0  0  0  0  0  0  0  0  0  0  0  0  # atno 10765 bound_to 10752
  139.8781  134.8952  156.4162 H   0  0  0  0  0  0  0  0  0  0  0  0  # atno 11005 bound_to 11000
  144.8734  140.7303  143.6032 LP  0  0  0  0  0  0  0  0  0  0  0  0  # atno 17320 bound_to 7965
  145.3407  139.1733  143.4487 LP  0  0  0  0  0  0  0  0  0  0  0  0  # atno 17321 bound_to 7965
  140.4919  143.2344  151.8806 LP  0  0  0  0  0  0  0  0  0  0  0  0  # atno 17342 bound_to 10162
  139.4794  144.5156  151.8872 LP  0  0  0  0  0  0  0  0  0  0  0  0  # atno 17343 bound_to 10162
  157.4381  131.0858  151.0971 LP  0  0  0  0  0  0  0  0  0  0  0  0  # atno 17370 bound_to 10713
  157.1523  130.6189  149.5586 LP  0  0  0  0  0  0  0  0  0  0  0  0  # atno 17371 bound_to 10713
  140.9166  133.7674  155.9855 LP  0  0  0  0  0  0  0  0  0  0  0  0  # atno 17394 bound_to 11000
  140.8487  134.2980  157.5284 LP  0  0  0  0  0  0  0  0  0  0  0  0  # atno 17395 bound_to 11000

$$$$
