AV-unprocessed.smi:261|AV-procd|sdf|1990|dock5
  -GOLD-   2262021173D 1   1.00000     0.00000
 Structure written by MMmdl.
 51 54  0  0  0  0  0  0  0  0  1 V2000
  153.0232  130.8710  161.1350 C   0  0  0  0  0  0  0  0  0  0  0  0
  153.5311  131.2716  162.3973 O   0  0  0  0  0  0  0  0  0  0  0  0
  154.7735  131.9613  162.3290 C   0  0  2  0  0  0  0  0  0  0  0  0
  155.3441  132.2679  163.7203 C   0  0  0  0  0  0  0  0  0  0  0  0
  154.6294  133.5529  164.1692 C   0  0  2  0  0  0  0  0  0  0  0  0
  153.3543  133.2393  164.9812 C   0  0  0  0  0  0  0  0  0  0  0  0
  153.1890  133.8200  166.1745 N   0  0  0  0  0  0  0  0  0  0  0  0
  152.5219  132.4574  164.5273 O   0  0  0  0  0  0  0  0  0  0  0  0
  154.3825  134.2472  162.9045 N   0  0  0  0  0  0  0  0  0  0  0  0
  154.1693  135.5861  162.7696 C   0  0  0  0  0  0  0  0  0  0  0  0
  154.1322  136.3380  163.9020 N   0  0  0  0  0  0  0  0  0  0  0  0
  153.9305  137.6567  163.8428 C   0  0  0  0  0  0  0  0  0  0  0  0
  153.7456  138.4231  162.7685 N   0  0  0  0  0  0  0  0  0  0  0  0
  153.7814  137.6828  161.6250 C   0  0  0  0  0  0  0  0  0  0  0  0
  153.9857  136.2746  161.5309 C   0  0  0  0  0  0  0  0  0  0  0  0
  153.9577  135.8969  160.1919 N   0  0  0  0  0  0  0  0  0  0  0  0
  153.7486  137.0062  159.5393 C   0  0  0  0  0  0  0  0  0  0  0  0
  153.6230  138.1274  160.3248 N   0  0  0  0  0  0  0  0  0  0  0  0
  153.3756  139.4840  159.8719 C   0  0  0  0  0  0  0  0  0  0  0  0
  154.4317  140.4923  160.3726 C   0  0  1  0  0  0  0  0  0  0  0  0
  155.6048  140.2826  159.6124 O   0  0  0  0  0  0  0  0  0  0  0  0
  154.0088  141.9737  160.2528 C   0  0  2  0  0  0  0  0  0  0  0  0
  152.8691  142.3863  161.1870 C   0  0  0  0  0  0  0  0  0  0  0  0
  152.2482  143.5883  160.4928 C   0  0  0  0  0  0  0  0  0  0  0  0
  152.7832  143.5060  159.0618 C   0  0  0  0  0  0  0  0  0  0  0  0
  153.4310  142.2451  158.9844 O   0  0  0  0  0  0  0  0  0  0  0  0
  154.5119  133.3570  161.7543 C   0  0  0  0  0  0  0  0  0  0  0  0
  155.4775  131.4102  161.7030 H   0  0  0  0  0  0  0  0  0  0  0  0
  155.3132  134.1228  164.7981 H   0  0  0  0  0  0  0  0  0  0  0  0
  152.0657  130.3690  161.2733 H   0  0  0  0  0  0  0  0  0  0  0  0
  153.6920  130.1753  160.6286 H   0  0  0  0  0  0  0  0  0  0  0  0
  152.8578  131.7321  160.4863 H   0  0  0  0  0  0  0  0  0  0  0  0
  155.2480  131.4428  164.4261 H   0  0  0  0  0  0  0  0  0  0  0  0
  156.4114  132.4734  163.6266 H   0  0  0  0  0  0  0  0  0  0  0  0
  152.3654  133.6159  166.7218 H   0  0  0  0  0  0  0  0  0  0  0  0
  153.8933  134.4510  166.5276 H   0  0  0  0  0  0  0  0  0  0  0  0
  153.9153  138.1707  164.7925 H   0  0  0  0  0  0  0  0  0  0  0  0
  153.6702  137.0340  158.4622 H   0  0  0  0  0  0  0  0  0  0  0  0
  153.3481  139.4764  158.7814 H   0  0  0  0  0  0  0  0  0  0  0  0
  152.3809  139.7817  160.2067 H   0  0  0  0  0  0  0  0  0  0  0  0
  154.6757  140.2740  161.4131 H   0  0  0  0  0  0  0  0  0  0  0  0
  156.3416  140.6229  160.0963 H   0  0  0  0  0  0  0  0  0  0  0  0
  154.8685  142.6299  160.4034 H   0  0  0  0  0  0  0  0  0  0  0  0
  152.1318  141.5851  161.2557 H   0  0  0  0  0  0  0  0  0  0  0  0
  153.2126  142.6131  162.1965 H   0  0  0  0  0  0  0  0  0  0  0  0
  151.1595  143.5372  160.5231 H   0  0  0  0  0  0  0  0  0  0  0  0
  152.5551  144.5230  160.9630 H   0  0  0  0  0  0  0  0  0  0  0  0
  151.9951  143.5867  158.3131 H   0  0  0  0  0  0  0  0  0  0  0  0
  153.5119  144.2963  158.8770 H   0  0  0  0  0  0  0  0  0  0  0  0
  155.3646  133.6789  161.1546 H   0  0  0  0  0  0  0  0  0  0  0  0
  153.6250  133.3755  161.1191 H   0  0  0  0  0  0  0  0  0  0  0  0
  1  2  1  0  0  0  0
  1 30  1  0  0  0  0
  1 31  1  0  0  0  0
  1 32  1  0  0  0  0
  2  3  1  0  0  0  0
  3 28  1  0  0  0  0
  3 27  1  0  0  0  0
  3  4  1  0  0  0  0
  4  5  1  0  0  0  0
  4 33  1  0  0  0  0
  4 34  1  0  0  0  0
  5 29  1  0  0  0  0
  5  6  1  0  0  0  0
  5  9  1  0  0  0  0
  6  7  1  0  0  0  0
  6  8  2  0  0  0  0
  7 35  1  0  0  0  0
  7 36  1  0  0  0  0
  9 10  1  0  0  0  0
  9 27  1  0  0  0  0
 10 15  1  0  0  0  0
 10 11  2  0  0  0  0
 11 12  1  0  0  0  0
 12 13  2  0  0  0  0
 12 37  1  0  0  0  0
 13 14  1  0  0  0  0
 14 18  1  0  0  0  0
 14 15  2  0  0  0  0
 15 16  1  0  0  0  0
 16 17  2  0  0  0  0
 17 18  1  0  0  0  0
 17 38  1  0  0  0  0
 18 19  1  0  0  0  0
 19 20  1  0  0  0  0
 19 39  1  0  0  0  0
 19 40  1  0  0  0  0
 20 21  1  0  0  0  0
 20 22  1  0  0  0  0
 20 41  1  0  0  0  0
 21 42  1  0  0  0  0
 22 26  1  0  0  0  0
 22 23  1  0  0  0  0
 22 43  1  0  0  0  0
 23 24  1  0  0  0  0
 23 44  1  0  0  0  0
 23 45  1  0  0  0  0
 24 25  1  0  0  0  0
 24 46  1  0  0  0  0
 24 47  1  0  0  0  0
 25 26  1  0  0  0  0
 25 48  1  0  0  0  0
 25 49  1  0  0  0  0
 27 50  1  0  0  0  0
 27 51  1  0  0  0  0
M  END
> <s_m_source_file>
AV-unprocessed.smi

> <i_m_source_file_index>
261

> <i_lp_mmshare_version>
43012

> <i_f3d_flags>
0

> <s_epik_input>
W0NIM11PW0NASF0xW0NIMl1bQ0BASF0oQyg9TylbTkgyXSlOKFtDSDJdMSljKG5bY0hdbjIpYyhjMjMpbltjSF1uM1tDSDJdW0NASF0oW09IXSlbQ0BASF00W0NIMl1bQ0gyXVtDSDJdTzQ=

> <s_epik_cmdline>
J2VwaWtfcHl0aG9uJywgJy1waCcsICc3LjAnLCAnLXRuJywgJzgnLCAnLW1hJywgJzIwMCcsICctbWV0YWxfYmluZGluZycsICctaW1hZScsICc8aW5maWxlLm1hZT4nLCAnLW9tYWUnLCAnPG91dGZpbGUubWFlPic=

> <r_lp_tautomer_probability>
1

> <r_epik_Ionization_Penalty>
0.000713824

> <r_epik_Ionization_Penalty_Charging>
0

> <r_epik_Ionization_Penalty_Neutral>
0.000713824

> <r_epik_State_Penalty>
0.000402132

> <r_epik_Charging_Adjusted_Penalty>
0.000402132

> <i_epik_Tot_Q>
0

> <i_epik_Tot_abs_Q>
0

> <r_epik_Metal_State_Penalty>
-0

> <b_epik_Metal_Only>
0

> <s_lp_Force_Field>
OPLS_2005

> <r_lp_Energy>
44.1373

> <b_lp_Chiralities_Consistent>
1

> <s_lp_Variant>
AV-unprocessed.smi:261-8

> <Gold.Version>
5.8.1

> <Gold.Id.Protein>
6NUR|6NUR_protein|mol2

> <Gold.PLP.Fitness>
47.9289

> <Gold.PLP.PLP>
-43.0157

> <Gold.PLP.part.hbond>
-3.0000

> <Gold.PLP.part.metal>
0.0000

> <Gold.PLP.part.buried>
-5.2762

> <Gold.PLP.part.nonpolar>
-34.1476

> <Gold.PLP.part.repulsive>
0.1375

> <Gold.PLP.ligand.clash>
0.0000

> <Gold.PLP.ligand.torsion>
0.4146

> <Gold.PLP.Chemscore.Hbond>
1.8640

> <Gold.PLP.Chemscore.CHOScore>
0.0000

> <Gold.PLP.Chemscore.Metal>
0.0000

> <Gold.Chemscore.Hbonds>
donor molecule, donor type, donor heavy atom, donor atom, acceptor molecule, acceptor atom, score
      P1  H  6896  6909       L1    16  1.00
      P1  H  7997  8008       L1    21  0.39

> <Gold.PLP.Chemscore.Internal.Correction>
0.1504

> <Gold.Rescore>
     Score         DG    S(hbond)    S(metal)    S(lipo)     H(rot)  DE(clash)    DE(int)     intcor
      8.22     -10.82       1.18        0.00      81.73       3.18       0.01       2.59       ----

> <Gold.Chemscore.Fitness>
8.2229

> <Gold.Chemscore.DG>
-10.8187

> <Gold.Chemscore.ZeroCoef>
-5.4800

> <Gold.Chemscore.Hbond>
1.1750

> <Gold.Chemscore.Metal>
0.0000

> <Gold.Chemscore.Lipo>
81.7329

> <Gold.Chemscore.Internal_Hbond>
0.0000

> <Gold.Chemscore.DEClash>
0.0063

> <Gold.Chemscore.DEInternal>
2.5895

> <Gold.Chemscore.Rot>
3.1831

> <Gold.Chemscore.Internal.Correction>
   9.000000E+99

> <Gold.Chemscore.Hbonds>
donor molecule, donor type, donor heavy atom, donor atom, acceptor molecule, acceptor atom, score
      P1  H  6896  6909       L1    16  0.57
      P1  H  7997  8008       L1    21  0.36

> <Gold.Chemscore.Hbond.Weighted>
-3.9246

> <Gold.Chemscore.Metal.Weighted>
-0.0000

> <Gold.Chemscore.Lipo.Weighted>
-9.5628

> <Gold.Chemscore.Internal_Hbond.Weighted>
0.0000

> <Gold.Chemscore.DEClash.Weighted>
0.0063

> <Gold.Chemscore.DEInternal.Weighted>
2.5895

> <Gold.Chemscore.Rot.Weighted>
8.1486

> <Gold.Chemscore.Internal.Correction.Weighted>
   9.000000E+99

> <Gold.Protein.RotatedTorsions>
[ 6907 6896 6895 6894 ] final -169.65 input  -60.11 | X-H torsion
[ 7974 7965 7964 7962 ] final   29.40 input  175.53 | X-H torsion
[ 8008 7997 7996 7995 ] final -144.02 input   59.86 | X-H torsion
[ 10167 10162 10161 10158 ] final  101.78 input  -65.29 | X-H torsion
[ 10718 10713 10712 10709 ] final   32.40 input   66.30 | X-H torsion
[ 10763 10752 10751 10750 ] final   98.45 input  -60.55 | X-H torsion
[ 11005 11000 10999 10996 ] final -172.09 input  -57.11 | X-H torsion

> <Gold.Protein.ActiveResidues>
 VAL166  LYS551  ARG553  GLY616  TRP617  ASP618  TYR619  PRO620  LYS621  CYS622 
 ASP623  PHE694  ASN695  SER759  ASP760  ASP761  ALA762  ILE779  LEU786  VAL792 
 PHE793  MET794  SER795  GLU796  ALA797  LYS798  CYS799  TRP800  GLU811  SER814 

> <Gold.Protein.RotatedAtoms>
  151.4950  133.3516  159.2859 H   0  0  0  0  0  0  0  0  0  0  0  0  # atno 6907 bound_to 6896
  150.8810  134.8203  159.7235 H   0  0  0  0  0  0  0  0  0  0  0  0  # atno 6908 bound_to 6896
  152.4762  134.4848  159.9728 H   0  0  0  0  0  0  0  0  0  0  0  0  # atno 6909 bound_to 6896
  146.1674  139.6927  142.8992 H   0  0  0  0  0  0  0  0  0  0  0  0  # atno 7974 bound_to 7965
  155.5201  140.0590  157.2908 H   0  0  0  0  0  0  0  0  0  0  0  0  # atno 8008 bound_to 7997
  154.4521  140.1954  156.0435 H   0  0  0  0  0  0  0  0  0  0  0  0  # atno 8009 bound_to 7997
  156.0725  140.3258  155.7597 H   0  0  0  0  0  0  0  0  0  0  0  0  # atno 8010 bound_to 7997
  139.7408  144.7012  151.0578 H   0  0  0  0  0  0  0  0  0  0  0  0  # atno 10167 bound_to 10162
  157.2847  130.7273  149.6576 H   0  0  0  0  0  0  0  0  0  0  0  0  # atno 10718 bound_to 10713
  153.2892  135.4148  155.1151 H   0  0  0  0  0  0  0  0  0  0  0  0  # atno 10763 bound_to 10752
  154.8515  135.3514  154.6005 H   0  0  0  0  0  0  0  0  0  0  0  0  # atno 10764 bound_to 10752
  153.6427  135.7056  153.5294 H   0  0  0  0  0  0  0  0  0  0  0  0  # atno 10765 bound_to 10752
  140.5009  134.5894  157.4987 H   0  0  0  0  0  0  0  0  0  0  0  0  # atno 11005 bound_to 11000
  145.4432  141.0424  143.2846 LP  0  0  0  0  0  0  0  0  0  0  0  0  # atno 17320 bound_to 7965
  144.8112  139.5959  143.7028 LP  0  0  0  0  0  0  0  0  0  0  0  0  # atno 17321 bound_to 7965
  140.7785  143.4927  150.9872 LP  0  0  0  0  0  0  0  0  0  0  0  0  # atno 17342 bound_to 10162
  139.8615  143.7308  152.3173 LP  0  0  0  0  0  0  0  0  0  0  0  0  # atno 17343 bound_to 10162
  155.9665  130.4327  150.4975 LP  0  0  0  0  0  0  0  0  0  0  0  0  # atno 17370 bound_to 10713
  157.2926  131.0629  151.2123 LP  0  0  0  0  0  0  0  0  0  0  0  0  # atno 17371 bound_to 10713
  139.9714  134.7287  156.0034 LP  0  0  0  0  0  0  0  0  0  0  0  0  # atno 17394 bound_to 11000
  141.1436  133.6560  156.3801 LP  0  0  0  0  0  0  0  0  0  0  0  0  # atno 17395 bound_to 11000

$$$$
