AV-unprocessed.smi:1881|AV-procd|sdf|7639|dock4
  -GOLD-   22720 9363D 1   1.00000     0.00000
 Structure written by MMmdl.
 50 51  0  0  0  0  0  0  0  0  1 V2000
  149.7810  141.4270  158.2362 C   0  0  0  0  0  0  0  0  0  0  0  0
  151.2291  141.5561  157.7100 C   0  0  0  0  0  0  0  0  0  0  0  0
  151.3082  142.9430  157.0159 C   0  0  0  0  0  0  0  0  0  0  0  0
  152.2749  141.5989  158.8532 C   0  0  0  0  0  0  0  0  0  0  0  0
  151.5436  140.4394  156.6611 C   0  0  0  0  0  0  0  0  0  0  0  0
  152.4672  139.6632  156.9178 O   0  0  0  0  0  0  0  0  0  0  0  0
  150.8428  140.2952  155.5001 N   0  0  0  0  0  0  0  0  0  0  0  0
  151.0889  139.1710  154.5806 C   0  0  0  0  0  0  0  0  0  0  0  0
  149.8844  138.2129  154.6304 C   0  0  0  0  0  0  0  0  0  0  0  0
  148.5756  138.9477  154.2590 C   0  0  0  0  0  0  0  0  0  0  0  0
  147.3534  138.0384  154.4446 C   0  0  0  0  0  0  0  0  0  0  0  0
  146.4615  138.3484  155.2350 O   0  0  0  0  0  0  0  0  0  0  0  0
  147.3253  136.9178  153.7071 N   0  0  0  0  0  0  0  0  0  0  0  0
  146.2571  135.9255  153.7268 C   0  0  0  0  0  0  0  0  0  0  0  0
  145.3600  136.0353  152.4830 C   0  0  0  0  0  0  0  0  0  0  0  0
  145.3756  134.7675  151.6500 C   0  0  0  0  0  0  0  0  0  0  0  0
  144.4623  134.5918  150.5885 C   0  0  0  0  0  0  0  0  0  0  0  0
  144.5223  133.3993  149.8417 C   0  0  0  0  0  0  0  0  0  0  0  0
  145.4885  132.4333  150.1827 C   0  0  0  0  0  0  0  0  0  0  0  0
  146.3564  132.7050  151.2592 C   0  0  0  0  0  0  0  0  0  0  0  0
  146.3074  133.8452  151.9816 N   0  0  0  0  0  0  0  0  0  0  0  0
  148.4281  140.2500  155.0783 C   0  0  0  0  0  0  0  0  0  0  0  0
  149.7131  141.0951  155.0075 C   0  0  0  0  0  0  0  0  0  0  0  0
  149.5331  142.2573  158.8984 H   0  0  0  0  0  0  0  0  0  0  0  0
  149.5950  140.5158  158.7983 H   0  0  0  0  0  0  0  0  0  0  0  0
  149.0618  141.4448  157.4161 H   0  0  0  0  0  0  0  0  0  0  0  0
  150.5893  143.0347  156.2000 H   0  0  0  0  0  0  0  0  0  0  0  0
  152.3017  143.1350  156.6069 H   0  0  0  0  0  0  0  0  0  0  0  0
  151.0895  143.7524  157.7137 H   0  0  0  0  0  0  0  0  0  0  0  0
  152.3357  142.5922  159.2989 H   0  0  0  0  0  0  0  0  0  0  0  0
  153.2757  141.3551  158.4941 H   0  0  0  0  0  0  0  0  0  0  0  0
  152.0417  140.9317  159.6794 H   0  0  0  0  0  0  0  0  0  0  0  0
  151.2243  139.5501  153.5666 H   0  0  0  0  0  0  0  0  0  0  0  0
  152.0025  138.6178  154.8008 H   0  0  0  0  0  0  0  0  0  0  0  0
  150.0502  137.3782  153.9484 H   0  0  0  0  0  0  0  0  0  0  0  0
  149.8119  137.7845  155.6314 H   0  0  0  0  0  0  0  0  0  0  0  0
  148.6421  139.2260  153.2055 H   0  0  0  0  0  0  0  0  0  0  0  0
  148.1006  136.7403  153.0849 H   0  0  0  0  0  0  0  0  0  0  0  0
  146.6767  134.9214  153.8088 H   0  0  0  0  0  0  0  0  0  0  0  0
  145.6653  136.0883  154.6280 H   0  0  0  0  0  0  0  0  0  0  0  0
  144.3323  136.2503  152.7799 H   0  0  0  0  0  0  0  0  0  0  0  0
  145.6799  136.8729  151.8615 H   0  0  0  0  0  0  0  0  0  0  0  0
  143.7333  135.3526  150.3503 H   0  0  0  0  0  0  0  0  0  0  0  0
  143.8400  133.2292  149.0221 H   0  0  0  0  0  0  0  0  0  0  0  0
  145.5633  131.5068  149.6326 H   0  0  0  0  0  0  0  0  0  0  0  0
  147.1100  131.9873  151.5475 H   0  0  0  0  0  0  0  0  0  0  0  0
  147.5857  140.8325  154.7035 H   0  0  0  0  0  0  0  0  0  0  0  0
  148.2031  140.0198  156.1206 H   0  0  0  0  0  0  0  0  0  0  0  0
  149.5675  142.0349  155.5229 H   0  0  0  0  0  0  0  0  0  0  0  0
  149.9049  141.3828  153.9728 H   0  0  0  0  0  0  0  0  0  0  0  0
  1  2  1  0  0  0  0
  1 24  1  0  0  0  0
  1 25  1  0  0  0  0
  1 26  1  0  0  0  0
  2  3  1  0  0  0  0
  2  4  1  0  0  0  0
  2  5  1  0  0  0  0
  3 27  1  0  0  0  0
  3 28  1  0  0  0  0
  3 29  1  0  0  0  0
  4 30  1  0  0  0  0
  4 31  1  0  0  0  0
  4 32  1  0  0  0  0
  5  6  2  0  0  0  0
  5  7  1  0  0  0  0
  7 23  1  0  0  0  0
  7  8  1  0  0  0  0
  8  9  1  0  0  0  0
  8 33  1  0  0  0  0
  8 34  1  0  0  0  0
  9 10  1  0  0  0  0
  9 35  1  0  0  0  0
  9 36  1  0  0  0  0
 10 11  1  0  0  0  0
 10 22  1  0  0  0  0
 10 37  1  0  0  0  0
 11 12  2  0  0  0  0
 11 13  1  0  0  0  0
 13 14  1  0  0  0  0
 13 38  1  0  0  0  0
 14 15  1  0  0  0  0
 14 39  1  0  0  0  0
 14 40  1  0  0  0  0
 15 16  1  0  0  0  0
 15 41  1  0  0  0  0
 15 42  1  0  0  0  0
 16 21  1  0  0  0  0
 16 17  2  0  0  0  0
 17 18  1  0  0  0  0
 17 43  1  0  0  0  0
 18 19  2  0  0  0  0
 18 44  1  0  0  0  0
 19 20  1  0  0  0  0
 19 45  1  0  0  0  0
 20 21  2  0  0  0  0
 20 46  1  0  0  0  0
 22 23  1  0  0  0  0
 22 47  1  0  0  0  0
 22 48  1  0  0  0  0
 23 49  1  0  0  0  0
 23 50  1  0  0  0  0
M  END
> <s_m_source_file>
AV-unprocessed.smi

> <i_m_source_file_index>
1881

> <i_lp_mmshare_version>
43012

> <i_f3d_flags>
0

> <s_epik_input>
W0NIM11DKFtDSDNdKShbQ0gzXSlDKD1PKU4xW0NIMl1bQ0gyXVtDSF0oW0NIMl1bQ0gyXTEpQyg9TylbTkhdW0NIMl1bQ0gyXWMyW2NIXVtjSF1bY0hdW2NIXW4y

> <s_epik_cmdline>
J2VwaWtfcHl0aG9uJywgJy1waCcsICc3LjAnLCAnLXRuJywgJzgnLCAnLW1hJywgJzIwMCcsICctbWV0YWxfYmluZGluZycsICctaW1hZScsICc8aW5maWxlLm1hZT4nLCAnLW9tYWUnLCAnPG91dGZpbGUubWFlPic=

> <r_epik_Ionization_Penalty>
0.0268423

> <r_epik_Ionization_Penalty_Charging>
0

> <r_epik_Ionization_Penalty_Neutral>
0.0268423

> <r_epik_State_Penalty>
0.0219354

> <r_epik_Charging_Adjusted_Penalty>
0.0219354

> <i_epik_Tot_Q>
0

> <i_epik_Tot_abs_Q>
0

> <r_epik_Metal_State_Penalty>
0.0209813

> <b_epik_Metal_Only>
0

> <s_lp_Force_Field>
OPLS_2005

> <r_lp_Energy>
36.1076

> <b_lp_Chiralities_Consistent>
1

> <s_lp_Variant>
AV-unprocessed.smi:1881-1

> <Gold.Version>
5.8.1

> <Gold.Id.Protein>
6NUR|6NUR_protein|mol2

> <Gold.PLP.Fitness>
45.5737

> <Gold.PLP.PLP>
-37.7811

> <Gold.PLP.part.hbond>
-2.0000

> <Gold.PLP.part.metal>
0.0000

> <Gold.PLP.part.buried>
-2.9993

> <Gold.PLP.part.nonpolar>
-32.8651

> <Gold.PLP.part.repulsive>
0.1730

> <Gold.PLP.ligand.clash>
0.0000

> <Gold.PLP.ligand.torsion>
0.6613

> <Gold.PLP.Chemscore.Hbond>
2.0000

> <Gold.PLP.Chemscore.CHOScore>
1.0000

> <Gold.PLP.Chemscore.Metal>
0.0000

> <Gold.Chemscore.Hbonds>
donor molecule, donor type, donor heavy atom, donor atom, acceptor molecule, acceptor atom, score
      L1  H    13    38       P1  7948  1.00
      P1  H  7997  8010       L1     6  1.00
      L1  C    20    46       P1 10747  1.00

> <Gold.PLP.Chemscore.Internal.Correction>
0.1151

> <Gold.Rescore>
     Score         DG    S(hbond)    S(metal)    S(lipo)     H(rot)  DE(clash)    DE(int)     intcor
     18.98     -19.87       1.87        0.00     103.65       1.55       0.32       0.58       ----

> <Gold.Chemscore.Fitness>
18.9768

> <Gold.Chemscore.DG>
-19.8744

> <Gold.Chemscore.ZeroCoef>
-5.4800

> <Gold.Chemscore.Hbond>
1.8672

> <Gold.Chemscore.Metal>
0.0000

> <Gold.Chemscore.Lipo>
103.6466

> <Gold.Chemscore.Internal_Hbond>
0.0000

> <Gold.Chemscore.DEClash>
0.3221

> <Gold.Chemscore.DEInternal>
0.5755

> <Gold.Chemscore.Rot>
1.5503

> <Gold.Chemscore.Internal.Correction>
   9.000000E+99

> <Gold.Chemscore.Hbonds>
donor molecule, donor type, donor heavy atom, donor atom, acceptor molecule, acceptor atom, score
      L1  H    13    38       P1  7948  0.97
      P1  H  7997  8010       L1     6  0.97

> <Gold.Chemscore.Hbond.Weighted>
-6.2365

> <Gold.Chemscore.Metal.Weighted>
-0.0000

> <Gold.Chemscore.Lipo.Weighted>
-12.1266

> <Gold.Chemscore.Internal_Hbond.Weighted>
0.0000

> <Gold.Chemscore.DEClash.Weighted>
0.3221

> <Gold.Chemscore.DEInternal.Weighted>
0.5755

> <Gold.Chemscore.Rot.Weighted>
3.9687

> <Gold.Chemscore.Internal.Correction.Weighted>
   9.000000E+99

> <Gold.Protein.RotatedTorsions>
[ 6907 6896 6895 6894 ] final  130.75 input  -60.11 | X-H torsion
[ 7974 7965 7964 7962 ] final  -35.53 input  175.53 | X-H torsion
[ 8008 7997 7996 7995 ] final   69.59 input   59.86 | X-H torsion
[ 10167 10162 10161 10158 ] final  -62.47 input  -65.29 | X-H torsion
[ 10718 10713 10712 10709 ] final -124.99 input   66.30 | X-H torsion
[ 10763 10752 10751 10750 ] final   -6.69 input  -60.55 | X-H torsion
[ 11005 11000 10999 10996 ] final   -4.02 input  -57.11 | X-H torsion

> <Gold.Protein.ActiveResidues>
 VAL166  LYS551  ARG553  GLY616  TRP617  ASP618  TYR619  PRO620  LYS621  CYS622 
 ASP623  PHE694  ASN695  SER759  ASP760  ASP761  ALA762  ILE779  LEU786  VAL792 
 PHE793  MET794  SER795  GLU796  ALA797  LYS798  CYS799  TRP800  GLU811  SER814 

> <Gold.Protein.RotatedAtoms>
  152.3495  133.6163  159.5934 H   0  0  0  0  0  0  0  0  0  0  0  0  # atno 6907 bound_to 6896
  150.7529  133.9596  159.3520 H   0  0  0  0  0  0  0  0  0  0  0  0  # atno 6908 bound_to 6896
  151.7450  135.0846  160.0373 H   0  0  0  0  0  0  0  0  0  0  0  0  # atno 6909 bound_to 6896
  146.0739  140.6170  142.8940 H   0  0  0  0  0  0  0  0  0  0  0  0  # atno 7974 bound_to 7965
  155.7260  140.3492  155.5037 H   0  0  0  0  0  0  0  0  0  0  0  0  # atno 8008 bound_to 7997
  155.9226  140.1070  157.1216 H   0  0  0  0  0  0  0  0  0  0  0  0  # atno 8009 bound_to 7997
  154.4072  140.1246  156.4686 H   0  0  0  0  0  0  0  0  0  0  0  0  # atno 8010 bound_to 7997
  140.5937  143.2346  151.6084 H   0  0  0  0  0  0  0  0  0  0  0  0  # atno 10167 bound_to 10162
  156.1636  130.6619  151.0084 H   0  0  0  0  0  0  0  0  0  0  0  0  # atno 10718 bound_to 10713
  153.4159  135.7009  153.6327 H   0  0  0  0  0  0  0  0  0  0  0  0  # atno 10763 bound_to 10752
  153.4802  135.3695  155.2438 H   0  0  0  0  0  0  0  0  0  0  0  0  # atno 10764 bound_to 10752
  154.8719  135.4064  154.3519 H   0  0  0  0  0  0  0  0  0  0  0  0  # atno 10765 bound_to 10752
  140.6757  133.9198  155.8522 H   0  0  0  0  0  0  0  0  0  0  0  0  # atno 11005 bound_to 11000
  144.7249  140.4492  143.6980 LP  0  0  0  0  0  0  0  0  0  0  0  0  # atno 17320 bound_to 7965
  145.6342  139.1540  143.2952 LP  0  0  0  0  0  0  0  0  0  0  0  0  # atno 17321 bound_to 7965
  139.5244  144.3105  152.0997 LP  0  0  0  0  0  0  0  0  0  0  0  0  # atno 17342 bound_to 10162
  140.2274  144.4404  150.6315 LP  0  0  0  0  0  0  0  0  0  0  0  0  # atno 17343 bound_to 10162
  157.6751  131.0852  150.7515 LP  0  0  0  0  0  0  0  0  0  0  0  0  # atno 17370 bound_to 10713
  156.7577  130.4788  149.5443 LP  0  0  0  0  0  0  0  0  0  0  0  0  # atno 17371 bound_to 10713
  141.0357  134.0692  157.3961 LP  0  0  0  0  0  0  0  0  0  0  0  0  # atno 17394 bound_to 11000
  139.8967  135.0147  156.7067 LP  0  0  0  0  0  0  0  0  0  0  0  0  # atno 17395 bound_to 11000

$$$$
