AV-unprocessed.smi:1287|AV-procd|sdf|5380|dock6
  -GOLD-   22720 4523D 1   1.00000     0.00000
 Structure written by MMmdl.
 44 45  0  0  0  0  0  0  0  0  1 V2000
  151.1225  131.2727  155.7418 C   0  0  0  0  0  0  0  0  0  0  0  0
  150.7569  132.7045  156.1171 C   0  0  0  0  0  0  0  0  0  0  0  0
  151.1405  133.1815  157.1849 O   0  0  0  0  0  0  0  0  0  0  0  0
  150.0123  133.3795  155.2272 N   0  0  0  0  0  0  0  0  0  0  0  0
  149.5360  134.7521  155.3938 C   0  0  1  0  0  0  0  0  0  0  0  0
  148.9263  134.8777  156.8000 C   0  0  0  0  0  0  0  0  0  0  0  0
  150.7014  135.7496  155.2942 C   0  0  0  0  0  0  0  0  0  0  0  0
  151.6177  135.7310  156.1178 O   0  0  0  0  0  0  0  0  0  0  0  0
  150.6370  136.6350  154.2882 N   0  0  0  0  0  0  0  0  0  0  0  0
  151.6214  137.6812  154.0328 C   0  0  0  0  0  0  0  0  0  0  0  0
  151.7230  138.7246  155.1363 C   0  0  0  0  0  0  0  0  0  0  0  0
  150.7728  139.7573  155.2784 C   0  0  0  0  0  0  0  0  0  0  0  0
  150.9282  140.6907  156.3208 C   0  0  0  0  0  0  0  0  0  0  0  0
  152.0351  140.5730  157.1947 C   0  0  0  0  0  0  0  0  0  0  0  0
  152.2101  141.4962  158.2486 N   0  0  0  0  0  0  0  0  0  0  0  0
  152.3959  140.9162  159.5765 C   0  0  0  0  0  0  0  0  0  0  0  0
  152.8811  141.9891  160.5669 C   0  0  0  0  0  0  0  0  0  0  0  0
  151.9796  143.0911  160.5657 O   0  0  0  0  0  0  0  0  0  0  0  0
  151.9020  143.7096  159.2858 C   0  0  0  0  0  0  0  0  0  0  0  0
  151.3779  142.6980  158.2528 C   0  0  0  0  0  0  0  0  0  0  0  0
  152.9469  139.5791  157.0528 N   0  0  0  0  0  0  0  0  0  0  0  0
  152.7935  138.6875  156.0516 C   0  0  0  0  0  0  0  0  0  0  0  0
  150.2283  130.7046  155.4834 H   0  0  0  0  0  0  0  0  0  0  0  0
  151.6176  130.7685  156.5724 H   0  0  0  0  0  0  0  0  0  0  0  0
  151.7972  131.2648  154.8852 H   0  0  0  0  0  0  0  0  0  0  0  0
  149.7370  132.9026  154.3807 H   0  0  0  0  0  0  0  0  0  0  0  0
  148.7768  134.9795  154.6428 H   0  0  0  0  0  0  0  0  0  0  0  0
  148.5497  135.8856  156.9800 H   0  0  0  0  0  0  0  0  0  0  0  0
  149.6536  134.6502  157.5812 H   0  0  0  0  0  0  0  0  0  0  0  0
  148.0868  134.1924  156.9222 H   0  0  0  0  0  0  0  0  0  0  0  0
  149.8505  136.5817  153.6572 H   0  0  0  0  0  0  0  0  0  0  0  0
  152.5990  137.2284  153.8575 H   0  0  0  0  0  0  0  0  0  0  0  0
  151.3466  138.1884  153.1079 H   0  0  0  0  0  0  0  0  0  0  0  0
  149.9324  139.8378  154.6047 H   0  0  0  0  0  0  0  0  0  0  0  0
  150.1924  141.4709  156.4453 H   0  0  0  0  0  0  0  0  0  0  0  0
  151.4455  140.5006  159.9138 H   0  0  0  0  0  0  0  0  0  0  0  0
  153.1133  140.0970  159.5644 H   0  0  0  0  0  0  0  0  0  0  0  0
  152.9320  141.5740  161.5736 H   0  0  0  0  0  0  0  0  0  0  0  0
  153.8866  142.3273  160.3113 H   0  0  0  0  0  0  0  0  0  0  0  0
  151.2311  144.5665  159.3452 H   0  0  0  0  0  0  0  0  0  0  0  0
  152.8816  144.0916  158.9940 H   0  0  0  0  0  0  0  0  0  0  0  0
  151.3752  143.1600  157.2648 H   0  0  0  0  0  0  0  0  0  0  0  0
  150.3486  142.4239  158.4883 H   0  0  0  0  0  0  0  0  0  0  0  0
  153.5491  137.9187  155.9830 H   0  0  0  0  0  0  0  0  0  0  0  0
  1  2  1  0  0  0  0
  1 23  1  0  0  0  0
  1 24  1  0  0  0  0
  1 25  1  0  0  0  0
  2  3  2  0  0  0  0
  2  4  1  0  0  0  0
  4  5  1  0  0  0  0
  4 26  1  0  0  0  0
  5  6  1  0  0  0  0
  5  7  1  0  0  0  0
  5 27  1  0  0  0  0
  6 28  1  0  0  0  0
  6 29  1  0  0  0  0
  6 30  1  0  0  0  0
  7  8  2  0  0  0  0
  7  9  1  0  0  0  0
  9 10  1  0  0  0  0
  9 31  1  0  0  0  0
 10 11  1  0  0  0  0
 10 32  1  0  0  0  0
 10 33  1  0  0  0  0
 11 22  1  0  0  0  0
 11 12  2  0  0  0  0
 12 13  1  0  0  0  0
 12 34  1  0  0  0  0
 13 14  2  0  0  0  0
 13 35  1  0  0  0  0
 14 15  1  0  0  0  0
 14 21  1  0  0  0  0
 15 20  1  0  0  0  0
 15 16  1  0  0  0  0
 16 17  1  0  0  0  0
 16 36  1  0  0  0  0
 16 37  1  0  0  0  0
 17 18  1  0  0  0  0
 17 38  1  0  0  0  0
 17 39  1  0  0  0  0
 18 19  1  0  0  0  0
 19 20  1  0  0  0  0
 19 40  1  0  0  0  0
 19 41  1  0  0  0  0
 20 42  1  0  0  0  0
 20 43  1  0  0  0  0
 21 22  2  0  0  0  0
 22 44  1  0  0  0  0
M  END
> <s_m_source_file>
AV-unprocessed.smi

> <i_m_source_file_index>
1287

> <i_lp_mmshare_version>
43012

> <i_f3d_flags>
0

> <s_epik_input>
W0NIM11DKD1PKVtOSF1bQ0BIXShbQ0gzXSlDKD1PKVtOSF1bQ0gyXWMxW2NIXVtjSF1jKG5bY0hdMSlOMltDSDJdW0NIMl1PW0NIMl1bQ0gyXTI=

> <s_epik_cmdline>
J2VwaWtfcHl0aG9uJywgJy1waCcsICc3LjAnLCAnLXRuJywgJzgnLCAnLW1hJywgJzIwMCcsICctbWV0YWxfYmluZGluZycsICctaW1hZScsICc8aW5maWxlLm1hZT4nLCAnLW9tYWUnLCAnPG91dGZpbGUubWFlPic=

> <r_lp_tautomer_probability>
1

> <r_epik_Ionization_Penalty>
0.00481935

> <r_epik_Ionization_Penalty_Charging>
0

> <r_epik_Ionization_Penalty_Neutral>
0.00481935

> <r_epik_State_Penalty>
0.00349439

> <r_epik_Charging_Adjusted_Penalty>
0.00349439

> <i_epik_Tot_Q>
0

> <i_epik_Tot_abs_Q>
0

> <r_epik_Metal_State_Penalty>
-0

> <b_epik_Metal_Only>
0

> <s_lp_Force_Field>
OPLS_2005

> <r_lp_Energy>
13.9902

> <b_lp_Chiralities_Consistent>
1

> <s_lp_Variant>
AV-unprocessed.smi:1287-2

> <Gold.Version>
5.8.1

> <Gold.Id.Protein>
6NUR|6NUR_protein|mol2

> <Gold.PLP.Fitness>
49.0741

> <Gold.PLP.PLP>
-38.3826

> <Gold.PLP.part.hbond>
-5.0000

> <Gold.PLP.part.metal>
0.0000

> <Gold.PLP.part.buried>
-3.1378

> <Gold.PLP.part.nonpolar>
-30.8230

> <Gold.PLP.part.repulsive>
0.1850

> <Gold.PLP.ligand.clash>
0.0000

> <Gold.PLP.ligand.torsion>
0.5655

> <Gold.PLP.Chemscore.Hbond>
3.8160

> <Gold.PLP.Chemscore.CHOScore>
0.0000

> <Gold.PLP.Chemscore.Metal>
0.0000

> <Gold.Chemscore.Hbonds>
donor molecule, donor type, donor heavy atom, donor atom, acceptor molecule, acceptor atom, score
      L1  H     9    31       P1  7948  1.00
      P1  H  6896  6909       L1     3  0.83
      P1  H  7997  8009       L1    21  0.95
      P1  H 10752 10764       L1     8  1.00

> <Gold.PLP.Chemscore.Internal.Correction>
0.3745

> <Gold.Rescore>
     Score         DG    S(hbond)    S(metal)    S(lipo)     H(rot)  DE(clash)    DE(int)     intcor
     17.14     -20.71       3.14        0.00      87.87       2.16       0.28       3.29       ----

> <Gold.Chemscore.Fitness>
17.1438

> <Gold.Chemscore.DG>
-20.7137

> <Gold.Chemscore.ZeroCoef>
-5.4800

> <Gold.Chemscore.Hbond>
3.1398

> <Gold.Chemscore.Metal>
0.0000

> <Gold.Chemscore.Lipo>
87.8680

> <Gold.Chemscore.Internal_Hbond>
0.0000

> <Gold.Chemscore.DEClash>
0.2811

> <Gold.Chemscore.DEInternal>
3.2888

> <Gold.Chemscore.Rot>
2.1616

> <Gold.Chemscore.Internal.Correction>
   9.000000E+99

> <Gold.Chemscore.Hbonds>
donor molecule, donor type, donor heavy atom, donor atom, acceptor molecule, acceptor atom, score
      L1  H     9    31       P1  7948  0.32
      P1  H  6896  6909       L1     3  0.76
      P1  H  7997  8009       L1    21  0.19
      P1  H 10752 10764       L1     8  0.35

> <Gold.Chemscore.Hbond.Weighted>
-10.4868

> <Gold.Chemscore.Metal.Weighted>
-0.0000

> <Gold.Chemscore.Lipo.Weighted>
-10.2806

> <Gold.Chemscore.Internal_Hbond.Weighted>
0.0000

> <Gold.Chemscore.DEClash.Weighted>
0.2811

> <Gold.Chemscore.DEInternal.Weighted>
3.2888

> <Gold.Chemscore.Rot.Weighted>
5.5336

> <Gold.Chemscore.Internal.Correction.Weighted>
   9.000000E+99

> <Gold.Protein.RotatedTorsions>
[ 6907 6896 6895 6894 ] final  -35.00 input  -60.11 | X-H torsion
[ 7974 7965 7964 7962 ] final  -32.04 input  175.53 | X-H torsion
[ 8008 7997 7996 7995 ] final  173.56 input   59.86 | X-H torsion
[ 10167 10162 10161 10158 ] final  -17.40 input  -65.29 | X-H torsion
[ 10718 10713 10712 10709 ] final  151.57 input   66.30 | X-H torsion
[ 10763 10752 10751 10750 ] final  -31.44 input  -60.55 | X-H torsion
[ 11005 11000 10999 10996 ] final -113.82 input  -57.11 | X-H torsion

> <Gold.Protein.ActiveResidues>
 VAL166  LYS551  ARG553  GLY616  TRP617  ASP618  TYR619  PRO620  LYS621  CYS622 
 ASP623  PHE694  ASN695  SER759  ASP760  ASP761  ALA762  ILE779  LEU786  VAL792 
 PHE793  MET794  SER795  GLU796  ALA797  LYS798  CYS799  TRP800  GLU811  SER814 

> <Gold.Protein.RotatedAtoms>
  151.0454  134.9636  159.8183 H   0  0  0  0  0  0  0  0  0  0  0  0  # atno 6907 bound_to 6896
  152.5371  134.2605  159.8943 H   0  0  0  0  0  0  0  0  0  0  0  0  # atno 6908 bound_to 6896
  151.2619  133.4255  159.2650 H   0  0  0  0  0  0  0  0  0  0  0  0  # atno 6909 bound_to 6896
  146.1021  140.5742  142.8816 H   0  0  0  0  0  0  0  0  0  0  0  0  # atno 7974 bound_to 7965
  156.1063  140.1457  156.9399 H   0  0  0  0  0  0  0  0  0  0  0  0  # atno 8008 bound_to 7997
  154.4736  140.0901  156.7251 H   0  0  0  0  0  0  0  0  0  0  0  0  # atno 8009 bound_to 7997
  155.4673  140.3440  155.4323 H   0  0  0  0  0  0  0  0  0  0  0  0  # atno 8010 bound_to 7997
  140.7246  143.5020  150.9858 H   0  0  0  0  0  0  0  0  0  0  0  0  # atno 10167 bound_to 10162
  157.2690  131.0813  151.1613 H   0  0  0  0  0  0  0  0  0  0  0  0  # atno 10718 bound_to 10713
  153.7975  135.6893  153.4861 H   0  0  0  0  0  0  0  0  0  0  0  0  # atno 10763 bound_to 10752
  153.1710  135.4543  154.9900 H   0  0  0  0  0  0  0  0  0  0  0  0  # atno 10764 bound_to 10752
  154.8020  135.3341  154.7466 H   0  0  0  0  0  0  0  0  0  0  0  0  # atno 10765 bound_to 10752
  141.0591  133.9565  157.2700 H   0  0  0  0  0  0  0  0  0  0  0  0  # atno 11005 bound_to 11000
  144.7441  140.5021  143.6848 LP  0  0  0  0  0  0  0  0  0  0  0  0  # atno 17320 bound_to 7965
  145.5834  139.1490  143.3223 LP  0  0  0  0  0  0  0  0  0  0  0  0  # atno 17321 bound_to 7965
  139.8729  143.7169  152.3164 LP  0  0  0  0  0  0  0  0  0  0  0  0  # atno 17342 bound_to 10162
  139.7424  144.7556  151.0631 LP  0  0  0  0  0  0  0  0  0  0  0  0  # atno 17343 bound_to 10162
  157.3092  130.6881  149.6206 LP  0  0  0  0  0  0  0  0  0  0  0  0  # atno 17370 bound_to 10713
  155.9663  130.4369  150.5151 LP  0  0  0  0  0  0  0  0  0  0  0  0  # atno 17371 bound_to 10713
  139.9416  135.0190  156.8726 LP  0  0  0  0  0  0  0  0  0  0  0  0  # atno 17394 bound_to 11000
  140.5905  134.0266  155.7498 LP  0  0  0  0  0  0  0  0  0  0  0  0  # atno 17395 bound_to 11000

$$$$
