AV-unprocessed.smi:2040|AV-procd|sdf|8286|dock1
  -GOLD-   2272010553D 1   1.00000     0.00000
 Structure written by MMmdl.
 38 39  0  0  0  0  0  0  0  0  1 V2000
  150.5707  142.2251  156.2826 C   0  0  0  0  0  0  0  0  0  0  0  0
  150.3031  140.9592  155.5234 C   0  0  0  0  0  0  0  0  0  0  0  0
  149.0844  140.5438  154.9124 C   0  0  0  0  0  0  0  0  0  0  0  0
  149.4156  139.3306  154.3736 C   0  0  0  0  0  0  0  0  0  0  0  0
  148.6398  138.4706  153.6617 N   0  0  0  0  0  0  0  0  0  0  0  0
  147.3085  138.4971  153.4764 C   0  0  0  0  0  0  0  0  0  0  0  0
  146.5373  139.3242  153.9627 O   0  0  0  0  0  0  0  0  0  0  0  0
  146.9132  137.4911  152.6827 N   0  0  0  0  0  0  0  0  0  0  0  0
  145.5390  137.2238  152.2619 C   0  0  2  0  0  0  0  0  0  0  0  0
  144.6587  137.0157  153.5035 C   0  0  0  0  0  0  0  0  0  0  0  0
  145.5080  136.0066  151.3175 C   0  0  2  0  0  0  0  0  0  0  0  0
  144.1031  135.5016  150.9772 C   0  0  0  0  0  0  0  0  0  0  0  0
  144.3681  134.0524  150.6426 C   0  0  0  0  0  0  0  0  0  0  0  0
  145.4310  133.6904  151.6739 C   0  0  0  0  0  0  0  0  0  0  0  0
  146.1624  134.8894  151.9170 O   0  0  0  0  0  0  0  0  0  0  0  0
  150.7379  139.0660  154.6530 N   0  0  0  0  0  0  0  0  0  0  0  0
  151.5419  137.9136  154.2952 C   0  0  0  0  0  0  0  0  0  0  0  0
  151.2823  140.0754  155.3663 N   0  0  0  0  0  0  0  0  0  0  0  0
  149.7039  142.8861  156.2640 H   0  0  0  0  0  0  0  0  0  0  0  0
  151.4121  142.7707  155.8547 H   0  0  0  0  0  0  0  0  0  0  0  0
  150.8044  142.0142  157.3263 H   0  0  0  0  0  0  0  0  0  0  0  0
  148.1393  141.0649  154.8853 H   0  0  0  0  0  0  0  0  0  0  0  0
  149.1361  137.7159  153.2114 H   0  0  0  0  0  0  0  0  0  0  0  0
  147.6199  136.8605  152.3332 H   0  0  0  0  0  0  0  0  0  0  0  0
  145.1468  138.0796  151.7097 H   0  0  0  0  0  0  0  0  0  0  0  0
  143.6191  136.8421  153.2246 H   0  0  0  0  0  0  0  0  0  0  0  0
  144.6806  137.8926  154.1516 H   0  0  0  0  0  0  0  0  0  0  0  0
  144.9932  136.1591  154.0895 H   0  0  0  0  0  0  0  0  0  0  0  0
  146.0343  136.2364  150.3893 H   0  0  0  0  0  0  0  0  0  0  0  0
  143.4484  135.5685  151.8477 H   0  0  0  0  0  0  0  0  0  0  0  0
  143.6389  136.0513  150.1578 H   0  0  0  0  0  0  0  0  0  0  0  0
  143.4786  133.4252  150.7074 H   0  0  0  0  0  0  0  0  0  0  0  0
  144.7758  133.9684  149.6343 H   0  0  0  0  0  0  0  0  0  0  0  0
  144.9630  133.3763  152.6076 H   0  0  0  0  0  0  0  0  0  0  0  0
  146.0838  132.8857  151.3346 H   0  0  0  0  0  0  0  0  0  0  0  0
  151.1364  137.0221  154.7739 H   0  0  0  0  0  0  0  0  0  0  0  0
  152.5748  138.0498  154.6182 H   0  0  0  0  0  0  0  0  0  0  0  0
  151.5257  137.7771  153.2137 H   0  0  0  0  0  0  0  0  0  0  0  0
  1  2  1  0  0  0  0
  1 19  1  0  0  0  0
  1 20  1  0  0  0  0
  1 21  1  0  0  0  0
  2 18  2  0  0  0  0
  2  3  1  0  0  0  0
  3  4  2  0  0  0  0
  3 22  1  0  0  0  0
  4  5  1  0  0  0  0
  4 16  1  0  0  0  0
  5  6  1  0  0  0  0
  5 23  1  0  0  0  0
  6  7  2  0  0  0  0
  6  8  1  0  0  0  0
  8  9  1  0  0  0  0
  8 24  1  0  0  0  0
  9 10  1  0  0  0  0
  9 11  1  0  0  0  0
  9 25  1  0  0  0  0
 10 26  1  0  0  0  0
 10 27  1  0  0  0  0
 10 28  1  0  0  0  0
 11 15  1  0  0  0  0
 11 12  1  0  0  0  0
 11 29  1  0  0  0  0
 12 13  1  0  0  0  0
 12 30  1  0  0  0  0
 12 31  1  0  0  0  0
 13 14  1  0  0  0  0
 13 32  1  0  0  0  0
 13 33  1  0  0  0  0
 14 15  1  0  0  0  0
 14 34  1  0  0  0  0
 14 35  1  0  0  0  0
 16 17  1  0  0  0  0
 16 18  1  0  0  0  0
 17 36  1  0  0  0  0
 17 37  1  0  0  0  0
 17 38  1  0  0  0  0
M  END
> <s_m_source_file>
AV-unprocessed.smi

> <i_m_source_file_index>
2040

> <i_lp_mmshare_version>
43012

> <i_f3d_flags>
0

> <s_epik_input>
W0NIM11jMVtjSF1jKG4objEpW0NIM10pW05IXUMoPU8pW05IXVtDQEhdKFtDSDNdKVtDQEBIXTJbQ0gyXVtDSDJdW0NIMl1PMg==

> <s_epik_cmdline>
J2VwaWtfcHl0aG9uJywgJy1waCcsICc3LjAnLCAnLXRuJywgJzgnLCAnLW1hJywgJzIwMCcsICctbWV0YWxfYmluZGluZycsICctaW1hZScsICc8aW5maWxlLm1hZT4nLCAnLW9tYWUnLCAnPG91dGZpbGUubWFlPic=

> <r_lp_tautomer_probability>
1

> <r_epik_Ionization_Penalty>
9.09088e-05

> <r_epik_Ionization_Penalty_Charging>
0

> <r_epik_Ionization_Penalty_Neutral>
9.09088e-05

> <r_epik_State_Penalty>
-0

> <r_epik_Charging_Adjusted_Penalty>
0

> <i_epik_Tot_Q>
0

> <i_epik_Tot_abs_Q>
0

> <r_epik_Metal_State_Penalty>
-0

> <b_epik_Metal_Only>
0

> <s_lp_Force_Field>
OPLS_2005

> <r_lp_Energy>
18.8843

> <b_lp_Chiralities_Consistent>
1

> <s_lp_Variant>
AV-unprocessed.smi:2040-1

> <Gold.Version>
5.8.1

> <Gold.Id.Protein>
6NUR|6NUR_protein|mol2

> <Gold.PLP.Fitness>
37.6650

> <Gold.PLP.PLP>
-31.9080

> <Gold.PLP.part.hbond>
-3.8766

> <Gold.PLP.part.metal>
0.0000

> <Gold.PLP.part.buried>
-3.0300

> <Gold.PLP.part.nonpolar>
-27.0604

> <Gold.PLP.part.repulsive>
0.8859

> <Gold.PLP.ligand.clash>
0.0000

> <Gold.PLP.ligand.torsion>
0.1070

> <Gold.PLP.Chemscore.Hbond>
1.9860

> <Gold.PLP.Chemscore.CHOScore>
0.0000

> <Gold.PLP.Chemscore.Metal>
0.0000

> <Gold.Chemscore.Hbonds>
donor molecule, donor type, donor heavy atom, donor atom, acceptor molecule, acceptor atom, score
      L1  H     5    23       P1  7948  0.90
      L1  H     8    24       P1  7948  1.00
      P1  H  7989  7998       L1    18  0.06

> <Gold.PLP.Chemscore.Internal.Correction>
0.0131

> <Gold.Rescore>
     Score         DG    S(hbond)    S(metal)    S(lipo)     H(rot)  DE(clash)    DE(int)     intcor
     14.86     -16.17       1.94        0.00      62.83       1.23       0.12       1.19       ----

> <Gold.Chemscore.Fitness>
14.8555

> <Gold.Chemscore.DG>
-16.1651

> <Gold.Chemscore.ZeroCoef>
-5.4800

> <Gold.Chemscore.Hbond>
1.9440

> <Gold.Chemscore.Metal>
0.0000

> <Gold.Chemscore.Lipo>
62.8258

> <Gold.Chemscore.Internal_Hbond>
0.0000

> <Gold.Chemscore.DEClash>
0.1220

> <Gold.Chemscore.DEInternal>
1.1876

> <Gold.Chemscore.Rot>
1.2338

> <Gold.Chemscore.Internal.Correction>
   9.000000E+99

> <Gold.Chemscore.Hbonds>
donor molecule, donor type, donor heavy atom, donor atom, acceptor molecule, acceptor atom, score
      L1  H     5    23       P1  7948  0.85
      L1  H     8    24       P1  7948  0.93

> <Gold.Chemscore.Hbond.Weighted>
-6.4929

> <Gold.Chemscore.Metal.Weighted>
-0.0000

> <Gold.Chemscore.Lipo.Weighted>
-7.3506

> <Gold.Chemscore.Internal_Hbond.Weighted>
0.0000

> <Gold.Chemscore.DEClash.Weighted>
0.1220

> <Gold.Chemscore.DEInternal.Weighted>
1.1876

> <Gold.Chemscore.Rot.Weighted>
3.1584

> <Gold.Chemscore.Internal.Correction.Weighted>
   9.000000E+99

> <Gold.Protein.RotatedTorsions>
[ 6907 6896 6895 6894 ] final   56.69 input  -60.11 | X-H torsion
[ 7974 7965 7964 7962 ] final  -42.77 input  175.53 | X-H torsion
[ 8008 7997 7996 7995 ] final -127.88 input   59.86 | X-H torsion
[ 10167 10162 10161 10158 ] final -159.14 input  -65.29 | X-H torsion
[ 10718 10713 10712 10709 ] final   87.22 input   66.30 | X-H torsion
[ 10763 10752 10751 10750 ] final  -20.28 input  -60.55 | X-H torsion
[ 11005 11000 10999 10996 ] final  -23.83 input  -57.11 | X-H torsion

> <Gold.Protein.ActiveResidues>
 VAL166  LYS551  ARG553  GLY616  TRP617  ASP618  TYR619  PRO620  LYS621  CYS622 
 ASP623  PHE694  ASN695  SER759  ASP760  ASP761  ALA762  ILE779  LEU786  VAL792 
 PHE793  MET794  SER795  GLU796  ALA797  LYS798  CYS799  TRP800  GLU811  SER814 

> <Gold.Protein.RotatedAtoms>
  152.3660  134.6803  160.0191 H   0  0  0  0  0  0  0  0  0  0  0  0  # atno 6907 bound_to 6896
  151.7111  133.3307  159.3299 H   0  0  0  0  0  0  0  0  0  0  0  0  # atno 6908 bound_to 6896
  150.7639  134.6466  159.6310 H   0  0  0  0  0  0  0  0  0  0  0  0  # atno 6909 bound_to 6896
  146.0084  140.6993  142.9236 H   0  0  0  0  0  0  0  0  0  0  0  0  # atno 7974 bound_to 7965
  155.2534  140.0433  157.2989 H   0  0  0  0  0  0  0  0  0  0  0  0  # atno 8008 bound_to 7997
  154.5755  140.2386  155.8099 H   0  0  0  0  0  0  0  0  0  0  0  0  # atno 8009 bound_to 7997
  156.2154  140.2986  155.9836 H   0  0  0  0  0  0  0  0  0  0  0  0  # atno 8010 bound_to 7997
  139.6638  143.9866  152.2242 H   0  0  0  0  0  0  0  0  0  0  0  0  # atno 10167 bound_to 10162
  157.6938  131.0247  150.3091 H   0  0  0  0  0  0  0  0  0  0  0  0  # atno 10718 bound_to 10713
  153.6179  135.6994  153.5322 H   0  0  0  0  0  0  0  0  0  0  0  0  # atno 10763 bound_to 10752
  153.2962  135.4142  155.1211 H   0  0  0  0  0  0  0  0  0  0  0  0  # atno 10764 bound_to 10752
  154.8549  135.3637  154.5719 H   0  0  0  0  0  0  0  0  0  0  0  0  # atno 10765 bound_to 10752
  140.8788  133.7668  156.0277 H   0  0  0  0  0  0  0  0  0  0  0  0  # atno 11005 bound_to 11000
  144.6944  140.3355  143.7208 LP  0  0  0  0  0  0  0  0  0  0  0  0  # atno 17320 bound_to 7965
  145.7380  139.1755  143.2392 LP  0  0  0  0  0  0  0  0  0  0  0  0  # atno 17321 bound_to 7965
  139.9612  144.6557  150.8078 LP  0  0  0  0  0  0  0  0  0  0  0  0  # atno 17342 bound_to 10162
  140.7591  143.3121  151.2820 LP  0  0  0  0  0  0  0  0  0  0  0  0  # atno 17343 bound_to 10162
  156.3595  130.3844  149.7263 LP  0  0  0  0  0  0  0  0  0  0  0  0  # atno 17370 bound_to 10713
  156.4714  130.7998  151.3016 LP  0  0  0  0  0  0  0  0  0  0  0  0  # atno 17371 bound_to 10713
  140.8486  134.2981  157.5285 LP  0  0  0  0  0  0  0  0  0  0  0  0  # atno 17394 bound_to 11000
  139.8718  134.9455  156.3912 LP  0  0  0  0  0  0  0  0  0  0  0  0  # atno 17395 bound_to 11000

$$$$
