AV-unprocessed.smi:193|AV-procd|sdf|1510|dock7
  -GOLD-   2262019343D 1   1.00000     0.00000
 Structure written by MMmdl.
 62 66  0  0  0  0  0  0  0  0  2 V2000
  152.2242  139.9561  155.5111 C   0  0  0  0  0  0  0  0  0  0  0  0
  151.0056  140.4877  156.2820 C   0  0  2  0  0  0  0  0  0  0  0  0
  149.7334  139.7838  155.7649 C   0  0  0  0  0  0  0  0  0  0  0  0
  148.5478  140.0193  156.5840 N   0  0  0  0  0  0  0  0  0  0  0  0
  147.5143  139.2346  156.2131 C   0  0  0  0  0  0  0  0  0  0  0  0
  146.8438  138.5783  157.1908 N   0  0  0  0  0  0  0  0  0  0  0  0
  145.8133  137.7873  156.8746 C   0  0  0  0  0  0  0  0  0  0  0  0
  145.3031  137.5208  155.6697 N   0  0  0  0  0  0  0  0  0  0  0  0
  145.9798  138.1807  154.6858 C   0  0  0  0  0  0  0  0  0  0  0  0
  147.0896  139.0516  154.8680 C   0  0  0  0  0  0  0  0  0  0  0  0
  147.5203  139.5396  153.6403 N   0  0  0  0  0  0  0  0  0  0  0  0
  146.7088  138.9876  152.7795 C   0  0  0  0  0  0  0  0  0  0  0  0
  145.7482  138.1635  153.3215 N   0  0  0  0  0  0  0  0  0  0  0  0
  144.7198  137.4320  152.5976 C   0  0  0  0  0  0  0  0  0  0  0  0
  145.2782  136.3451  151.6464 C   0  0  0  0  0  0  0  0  0  0  0  0
  146.0228  137.0019  150.6346 O   0  0  0  0  0  0  0  0  0  0  0  0
  146.2248  135.3964  152.4084 C   0  0  0  0  0  0  0  0  0  0  0  0
  146.6729  134.2059  151.5418 C   0  0  0  0  0  0  0  0  0  0  0  0
  145.5364  133.5110  151.0430 O   0  0  0  0  0  0  0  0  0  0  0  0
  144.7289  134.3149  150.1914 C   0  0  0  0  0  0  0  0  0  0  0  0
  144.1640  135.5141  150.9730 C   0  0  0  0  0  0  0  0  0  0  0  0
  148.1472  141.3951  156.8625 C   0  0  0  0  0  0  0  0  0  0  0  0
  149.0924  142.0557  157.8774 C   0  0  0  0  0  0  0  0  0  0  0  0
  150.2644  142.7317  157.2638 N   0  3  1  0  0  0  0  0  0  0  0  0
  151.2502  143.1438  158.2889 C   0  0  1  0  0  0  0  0  0  0  0  0
  152.0475  144.3679  157.9020 C   0  0  0  0  0  0  0  0  0  0  0  0
  150.9479  144.4777  158.9363 C   0  0  2  0  0  0  0  0  0  0  0  0
  151.2917  144.7233  160.3889 C   0  0  0  0  0  0  0  0  0  0  0  0
  150.9071  142.0233  156.1230 C   0  0  0  0  0  0  0  0  0  0  0  0
  152.1486  140.1786  154.4460 H   0  0  0  0  0  0  0  0  0  0  0  0
  152.3186  138.8752  155.6190 H   0  0  0  0  0  0  0  0  0  0  0  0
  153.1494  140.4002  155.8797 H   0  0  0  0  0  0  0  0  0  0  0  0
  151.1647  140.2312  157.3303 H   0  0  0  0  0  0  0  0  0  0  0  0
  149.5349  140.0852  154.7353 H   0  0  0  0  0  0  0  0  0  0  0  0
  149.9132  138.7076  155.7386 H   0  0  0  0  0  0  0  0  0  0  0  0
  145.3276  137.2969  157.7058 H   0  0  0  0  0  0  0  0  0  0  0  0
  146.7837  139.1720  151.7173 H   0  0  0  0  0  0  0  0  0  0  0  0
  144.0410  136.9868  153.3266 H   0  0  0  0  0  0  0  0  0  0  0  0
  144.1263  138.1522  152.0333 H   0  0  0  0  0  0  0  0  0  0  0  0
  145.4835  137.6806  150.2582 H   0  0  0  0  0  0  0  0  0  0  0  0
  147.0955  135.9390  152.7790 H   0  0  0  0  0  0  0  0  0  0  0  0
  145.7120  135.0062  153.2887 H   0  0  0  0  0  0  0  0  0  0  0  0
  147.3044  134.5352  150.7154 H   0  0  0  0  0  0  0  0  0  0  0  0
  147.2705  133.5162  152.1380 H   0  0  0  0  0  0  0  0  0  0  0  0
  145.3088  134.6464  149.3287 H   0  0  0  0  0  0  0  0  0  0  0  0
  143.9120  133.7049  149.8054 H   0  0  0  0  0  0  0  0  0  0  0  0
  143.4844  135.1387  151.7392 H   0  0  0  0  0  0  0  0  0  0  0  0
  143.5621  136.1336  150.3072 H   0  0  0  0  0  0  0  0  0  0  0  0
  148.0800  141.9779  155.9431 H   0  0  0  0  0  0  0  0  0  0  0  0
  147.1434  141.3834  157.2917 H   0  0  0  0  0  0  0  0  0  0  0  0
  148.5367  142.8163  158.4267 H   0  0  0  0  0  0  0  0  0  0  0  0
  149.4139  141.3259  158.6228 H   0  0  0  0  0  0  0  0  0  0  0  0
  151.7177  142.3414  158.8577 H   0  0  0  0  0  0  0  0  0  0  0  0
  153.0763  144.4257  158.2520 H   0  0  0  0  0  0  0  0  0  0  0  0
  151.8642  144.8160  156.9271 H   0  0  0  0  0  0  0  0  0  0  0  0
  150.0435  144.9899  158.6118 H   0  0  0  0  0  0  0  0  0  0  0  0
  152.2010  144.1892  160.6670 H   0  0  0  0  0  0  0  0  0  0  0  0
  150.4778  144.3806  161.0283 H   0  0  0  0  0  0  0  0  0  0  0  0
  151.4473  145.7882  160.5628 H   0  0  0  0  0  0  0  0  0  0  0  0
  151.8986  142.4515  155.9687 H   0  0  0  0  0  0  0  0  0  0  0  0
  150.3573  142.2638  155.2122 H   0  0  0  0  0  0  0  0  0  0  0  0
  149.9107  143.5915  156.8692 H   0  0  0  0  0  0  0  0  0  0  0  0
  1  2  1  0  0  0  0
  1 30  1  0  0  0  0
  1 31  1  0  0  0  0
  1 32  1  0  0  0  0
  2 29  1  0  0  0  0
  2  3  1  0  0  0  0
  2 33  1  0  0  0  0
  3  4  1  0  0  0  0
  3 34  1  0  0  0  0
  3 35  1  0  0  0  0
  4  5  1  0  0  0  0
  4 22  1  0  0  0  0
  5 10  1  0  0  0  0
  5  6  2  0  0  0  0
  6  7  1  0  0  0  0
  7  8  2  0  0  0  0
  7 36  1  0  0  0  0
  8  9  1  0  0  0  0
  9 13  1  0  0  0  0
  9 10  2  0  0  0  0
 10 11  1  0  0  0  0
 11 12  2  0  0  0  0
 12 13  1  0  0  0  0
 12 37  1  0  0  0  0
 13 14  1  0  0  0  0
 14 15  1  0  0  0  0
 14 38  1  0  0  0  0
 14 39  1  0  0  0  0
 15 21  1  0  0  0  0
 15 16  1  0  0  0  0
 15 17  1  0  0  0  0
 16 40  1  0  0  0  0
 17 18  1  0  0  0  0
 17 41  1  0  0  0  0
 17 42  1  0  0  0  0
 18 19  1  0  0  0  0
 18 43  1  0  0  0  0
 18 44  1  0  0  0  0
 19 20  1  0  0  0  0
 20 21  1  0  0  0  0
 20 45  1  0  0  0  0
 20 46  1  0  0  0  0
 21 47  1  0  0  0  0
 21 48  1  0  0  0  0
 22 23  1  0  0  0  0
 22 49  1  0  0  0  0
 22 50  1  0  0  0  0
 23 24  1  0  0  0  0
 23 51  1  0  0  0  0
 23 52  1  0  0  0  0
 24 25  1  0  0  0  0
 24 29  1  0  0  0  0
 24 62  1  0  0  0  0
 25 27  1  0  0  0  0
 25 26  1  0  0  0  0
 25 53  1  0  0  0  0
 26 27  1  0  0  0  0
 26 54  1  0  0  0  0
 26 55  1  0  0  0  0
 27 28  1  0  0  0  0
 27 56  1  0  0  0  0
 28 57  1  0  0  0  0
 28 58  1  0  0  0  0
 28 59  1  0  0  0  0
 29 60  1  0  0  0  0
 29 61  1  0  0  0  0
M  CHG  1  24   1
M  END
> <s_m_source_file>
AV-unprocessed.smi

> <i_m_source_file_index>
193

> <i_lp_mmshare_version>
43012

> <i_f3d_flags>
0

> <s_epik_input>
W0NIM11bQ0BASF0xW0NIMl1bQ0BIXTFOKFtDSDJdMilbQ0gyXVtDSDJdTihbQ0gyXVtDQEhdMltDSDNdKWMobltjSF1uMyljKGMzNCluW2NIXW40W0NIMl1DNShbT0hdKVtDSDJdW0NIMl1PW0NIMl1bQ0gyXTU=

> <s_epik_cmdline>
J2VwaWtfcHl0aG9uJywgJy1waCcsICc3LjAnLCAnLXRuJywgJzgnLCAnLW1hJywgJzIwMCcsICctbWV0YWxfYmluZGluZycsICctaW1hZScsICc8aW5maWxlLm1hZT4nLCAnLW9tYWUnLCAnPG91dGZpbGUubWFlPic=

> <r_lp_tautomer_probability>
1

> <r_epik_Ionization_Penalty>
0.0540825

> <r_epik_Ionization_Penalty_Charging>
0.0538476

> <r_epik_Ionization_Penalty_Neutral>
0.000234891

> <r_epik_State_Penalty>
0.0200719

> <r_epik_Charging_Adjusted_Penalty>
0.0739194

> <i_epik_Tot_Q>
1

> <i_epik_Tot_abs_Q>
1

> <r_epik_Metal_State_Penalty>
0.0199414

> <b_epik_Metal_Only>
0

> <s_lp_Force_Field>
OPLS_2005

> <r_lp_Energy>
55.8923

> <b_lp_Chiralities_Consistent>
1

> <s_lp_Variant>
AV-unprocessed.smi:193-15

> <Gold.Version>
5.8.1

> <Gold.Id.Protein>
6NUR|6NUR_protein|mol2

> <Gold.PLP.Fitness>
50.0982

> <Gold.PLP.PLP>
-41.9417

> <Gold.PLP.part.hbond>
-2.5914

> <Gold.PLP.part.metal>
0.0000

> <Gold.PLP.part.buried>
-3.9687

> <Gold.PLP.part.nonpolar>
-34.5471

> <Gold.PLP.part.repulsive>
0.3417

> <Gold.PLP.ligand.clash>
0.0000

> <Gold.PLP.ligand.torsion>
1.1954

> <Gold.PLP.Chemscore.Hbond>
2.9913

> <Gold.PLP.Chemscore.CHOScore>
0.0000

> <Gold.PLP.Chemscore.Metal>
0.0000

> <Gold.Chemscore.Hbonds>
donor molecule, donor type, donor heavy atom, donor atom, acceptor molecule, acceptor atom, score
      L1  H    16    40       P1 10171  1.00
      L1  H    24    62       P1  8028  2.00
      P1  H  7954  7966       L1    16  0.04

> <Gold.PLP.Chemscore.Internal.Correction>
1.5736

> <Gold.Rescore>
     Score         DG    S(hbond)    S(metal)    S(lipo)     H(rot)  DE(clash)    DE(int)     intcor
     17.86     -19.27       1.98        0.00     109.44       2.20       0.21       1.20       ----

> <Gold.Chemscore.Fitness>
17.8613

> <Gold.Chemscore.DG>
-19.2658

> <Gold.Chemscore.ZeroCoef>
-5.4800

> <Gold.Chemscore.Hbond>
1.9815

> <Gold.Chemscore.Metal>
0.0000

> <Gold.Chemscore.Lipo>
109.4364

> <Gold.Chemscore.Internal_Hbond>
0.0000

> <Gold.Chemscore.DEClash>
0.2063

> <Gold.Chemscore.DEInternal>
1.1982

> <Gold.Chemscore.Rot>
2.2018

> <Gold.Chemscore.Internal.Correction>
   9.000000E+99

> <Gold.Chemscore.Hbonds>
donor molecule, donor type, donor heavy atom, donor atom, acceptor molecule, acceptor atom, score
      L1  H    16    40       P1 10171  0.99
      L1  H    24    62       P1  8028  0.98
      P1  H  7954  7966       L1    16  0.01

> <Gold.Chemscore.Hbond.Weighted>
-6.6183

> <Gold.Chemscore.Metal.Weighted>
-0.0000

> <Gold.Chemscore.Lipo.Weighted>
-12.8041

> <Gold.Chemscore.Internal_Hbond.Weighted>
0.0000

> <Gold.Chemscore.DEClash.Weighted>
0.2063

> <Gold.Chemscore.DEInternal.Weighted>
1.1982

> <Gold.Chemscore.Rot.Weighted>
5.6366

> <Gold.Chemscore.Internal.Correction.Weighted>
   9.000000E+99

> <Gold.Protein.RotatedTorsions>
[ 6907 6896 6895 6894 ] final  158.09 input  -60.11 | X-H torsion
[ 7974 7965 7964 7962 ] final   78.83 input  175.53 | X-H torsion
[ 8008 7997 7996 7995 ] final  -87.67 input   59.86 | X-H torsion
[ 10167 10162 10161 10158 ] final  114.28 input  -65.29 | X-H torsion
[ 10718 10713 10712 10709 ] final -145.04 input   66.30 | X-H torsion
[ 10763 10752 10751 10750 ] final   26.64 input  -60.55 | X-H torsion
[ 11005 11000 10999 10996 ] final  159.56 input  -57.11 | X-H torsion

> <Gold.Protein.ActiveResidues>
 VAL166  LYS551  ARG553  GLY616  TRP617  ASP618  TYR619  PRO620  LYS621  CYS622 
 ASP623  PHE694  ASN695  SER759  ASP760  ASP761  ALA762  ILE779  LEU786  VAL792 
 PHE793  MET794  SER795  GLU796  ALA797  LYS798  CYS799  TRP800  GLU811  SER814 

> <Gold.Protein.RotatedAtoms>
  152.0055  133.3841  159.4198 H   0  0  0  0  0  0  0  0  0  0  0  0  # atno 6907 bound_to 6896
  150.6905  134.3787  159.5034 H   0  0  0  0  0  0  0  0  0  0  0  0  # atno 6908 bound_to 6896
  152.1541  134.8965  160.0597 H   0  0  0  0  0  0  0  0  0  0  0  0  # atno 6909 bound_to 6896
  145.6720  139.2499  143.1863 H   0  0  0  0  0  0  0  0  0  0  0  0  # atno 7974 bound_to 7965
  154.6660  140.0563  157.0114 H   0  0  0  0  0  0  0  0  0  0  0  0  # atno 8008 bound_to 7997
  155.1159  140.3243  155.4491 H   0  0  0  0  0  0  0  0  0  0  0  0  # atno 8009 bound_to 7997
  156.2638  140.2006  156.6282 H   0  0  0  0  0  0  0  0  0  0  0  0  # atno 8010 bound_to 7997
  139.6400  144.7123  151.2256 H   0  0  0  0  0  0  0  0  0  0  0  0  # atno 10167 bound_to 10162
  156.3776  130.7820  151.2008 H   0  0  0  0  0  0  0  0  0  0  0  0  # atno 10718 bound_to 10713
  153.0609  135.6555  154.0466 H   0  0  0  0  0  0  0  0  0  0  0  0  # atno 10763 bound_to 10752
  154.0134  135.2926  155.3391 H   0  0  0  0  0  0  0  0  0  0  0  0  # atno 10764 bound_to 10752
  154.6946  135.5269  153.8508 H   0  0  0  0  0  0  0  0  0  0  0  0  # atno 10765 bound_to 10752
  140.1974  134.8363  157.2980 H   0  0  0  0  0  0  0  0  0  0  0  0  # atno 11005 bound_to 11000
  146.1037  140.7513  142.9537 LP  0  0  0  0  0  0  0  0  0  0  0  0  # atno 17320 bound_to 7965
  144.7053  140.3828  143.7123 LP  0  0  0  0  0  0  0  0  0  0  0  0  # atno 17321 bound_to 7965
  140.7486  143.6328  150.8407 LP  0  0  0  0  0  0  0  0  0  0  0  0  # atno 17342 bound_to 10162
  139.9964  143.5791  152.2891 LP  0  0  0  0  0  0  0  0  0  0  0  0  # atno 17343 bound_to 10162
  157.7489  131.0354  150.4360 LP  0  0  0  0  0  0  0  0  0  0  0  0  # atno 17370 bound_to 10713
  156.4598  130.4029  149.6583 LP  0  0  0  0  0  0  0  0  0  0  0  0  # atno 17371 bound_to 10713
  140.2092  134.4159  155.7621 LP  0  0  0  0  0  0  0  0  0  0  0  0  # atno 17394 bound_to 11000
  141.2227  133.7110  156.8311 LP  0  0  0  0  0  0  0  0  0  0  0  0  # atno 17395 bound_to 11000

$$$$
