AV-unprocessed.smi:1804|AV-procd|sdf|7296|dock2
  -GOLD-   22720 8553D 1   1.00000     0.00000
 Structure written by MMmdl.
 43 44  0  0  0  0  0  0  0  0  3 V2000
  149.7809  139.5800  154.7030 C   0  0  0  0  0  0  0  0  0  0  0  0
  150.7169  139.3980  155.8444 N   0  3  0  0  0  0  0  0  0  0  0  0
  151.6854  138.3145  155.5293 C   0  0  0  0  0  0  0  0  0  0  0  0
  150.0721  139.3291  157.2060 C   0  0  0  0  0  0  0  0  0  0  0  0
  149.1169  138.0916  157.2693 C   0  0  0  0  0  0  0  0  0  0  0  0
  148.4194  137.9490  158.5477 N   0  0  0  0  0  0  0  0  0  0  0  0
  148.6820  137.0488  159.5060 C   0  0  0  0  0  0  0  0  0  0  0  0
  149.5955  136.2343  159.3564 O   0  0  0  0  0  0  0  0  0  0  0  0
  147.8641  137.1466  160.5775 N   0  5  0  0  0  0  0  0  0  0  0  0
  147.5230  136.0429  161.2628 C   0  0  0  0  0  0  0  0  0  0  0  0
  147.0120  136.0963  162.5033 N   0  0  0  0  0  0  0  0  0  0  0  0
  146.7299  134.8437  163.0316 N   0  0  0  0  0  0  0  0  0  0  0  0
  147.0452  133.8726  162.1748 C   0  0  0  0  0  0  0  0  0  0  0  0
  147.7181  134.3997  160.6468 S   0  0  0  0  0  0  0  0  0  0  0  0
  151.1298  139.1617  158.3470 C   0  0  0  0  0  0  0  0  0  0  0  0
  152.2949  140.1673  158.4143 C   0  0  0  0  0  0  0  0  0  0  0  0
  151.8841  141.6322  158.6092 C   0  0  0  0  0  0  0  0  0  0  0  0
  151.3133  142.2494  157.3286 C   0  0  0  0  0  0  0  0  0  0  0  0
  149.8153  141.9997  157.1001 C   0  0  0  0  0  0  0  0  0  0  0  0
  149.2404  140.6195  157.4970 C   0  0  0  0  0  0  0  0  0  0  0  0
  149.2510  138.6565  154.4687 H   0  0  0  0  0  0  0  0  0  0  0  0
  150.3380  139.8669  153.8106 H   0  0  0  0  0  0  0  0  0  0  0  0
  149.0387  140.3570  154.8726 H   0  0  0  0  0  0  0  0  0  0  0  0
  151.1932  137.3454  155.4498 H   0  0  0  0  0  0  0  0  0  0  0  0
  152.4873  138.2300  156.2594 H   0  0  0  0  0  0  0  0  0  0  0  0
  152.1653  138.5134  154.5705 H   0  0  0  0  0  0  0  0  0  0  0  0
  148.3896  138.1111  156.4579 H   0  0  0  0  0  0  0  0  0  0  0  0
  149.6793  137.1690  157.1307 H   0  0  0  0  0  0  0  0  0  0  0  0
  147.6607  138.5916  158.7234 H   0  0  0  0  0  0  0  0  0  0  0  0
  146.8839  132.8398  162.4451 H   0  0  0  0  0  0  0  0  0  0  0  0
  150.6272  139.1927  159.3146 H   0  0  0  0  0  0  0  0  0  0  0  0
  151.5560  138.1590  158.3050 H   0  0  0  0  0  0  0  0  0  0  0  0
  152.9255  139.8817  159.2569 H   0  0  0  0  0  0  0  0  0  0  0  0
  152.9356  140.0801  157.5374 H   0  0  0  0  0  0  0  0  0  0  0  0
  151.1919  141.7435  159.4446 H   0  0  0  0  0  0  0  0  0  0  0  0
  152.7778  142.1937  158.8845 H   0  0  0  0  0  0  0  0  0  0  0  0
  151.4717  143.3282  157.3557 H   0  0  0  0  0  0  0  0  0  0  0  0
  151.8843  141.9010  156.4675 H   0  0  0  0  0  0  0  0  0  0  0  0
  149.2537  142.7544  157.6523 H   0  0  0  0  0  0  0  0  0  0  0  0
  149.5966  142.2044  156.0526 H   0  0  0  0  0  0  0  0  0  0  0  0
  148.2635  140.5373  157.0196 H   0  0  0  0  0  0  0  0  0  0  0  0
  149.0078  140.6533  158.5624 H   0  0  0  0  0  0  0  0  0  0  0  0
  151.2662  140.2450  155.8739 H   0  0  0  0  0  0  0  0  0  0  0  0
  1  2  1  0  0  0  0
  1 21  1  0  0  0  0
  1 22  1  0  0  0  0
  1 23  1  0  0  0  0
  2  3  1  0  0  0  0
  2  4  1  0  0  0  0
  2 43  1  0  0  0  0
  3 24  1  0  0  0  0
  3 25  1  0  0  0  0
  3 26  1  0  0  0  0
  4 20  1  0  0  0  0
  4  5  1  0  0  0  0
  4 15  1  0  0  0  0
  5  6  1  0  0  0  0
  5 27  1  0  0  0  0
  5 28  1  0  0  0  0
  6  7  1  0  0  0  0
  6 29  1  0  0  0  0
  7  8  2  0  0  0  0
  7  9  1  0  0  0  0
  9 10  1  0  0  0  0
 10 14  1  0  0  0  0
 10 11  2  0  0  0  0
 11 12  1  0  0  0  0
 12 13  2  0  0  0  0
 13 14  1  0  0  0  0
 13 30  1  0  0  0  0
 15 16  1  0  0  0  0
 15 31  1  0  0  0  0
 15 32  1  0  0  0  0
 16 17  1  0  0  0  0
 16 33  1  0  0  0  0
 16 34  1  0  0  0  0
 17 18  1  0  0  0  0
 17 35  1  0  0  0  0
 17 36  1  0  0  0  0
 18 19  1  0  0  0  0
 18 37  1  0  0  0  0
 18 38  1  0  0  0  0
 19 20  1  0  0  0  0
 19 39  1  0  0  0  0
 19 40  1  0  0  0  0
 20 41  1  0  0  0  0
 20 42  1  0  0  0  0
M  CHG  1   2   1
M  CHG  1   9  -1
M  END
> <s_m_source_file>
AV-unprocessed.smi

> <i_m_source_file_index>
1804

> <i_lp_mmshare_version>
43012

> <i_f3d_flags>
0

> <s_epik_input>
W0NIMl0xW0NIMl1bQ0gyXVtDSDJdW0NIMl1bQ0gyXUMxKE4oW0NIM10pW0NIM10pW0NIMl1bTkhdQyg9TylbTkhdYzJubltjSF1zMg==

> <s_epik_cmdline>
J2VwaWtfcHl0aG9uJywgJy1waCcsICc3LjAnLCAnLXRuJywgJzgnLCAnLW1hJywgJzIwMCcsICctbWV0YWxfYmluZGluZycsICctaW1hZScsICc8aW5maWxlLm1hZT4nLCAnLW9tYWUnLCAnPG91dGZpbGUubWFlPic=

> <r_lp_tautomer_probability>
1

> <r_epik_Ionization_Penalty>
3.99544

> <r_epik_Ionization_Penalty_Charging>
3.96227

> <r_epik_Ionization_Penalty_Neutral>
0.0331711

> <r_epik_State_Penalty>
3.95985

> <r_epik_Charging_Adjusted_Penalty>
7.92213

> <i_epik_Tot_Q>
0

> <i_epik_Tot_abs_Q>
2

> <r_epik_Metal_State_Penalty>
0.609364

> <b_epik_Metal_Only>
1

> <s_lp_Force_Field>
OPLS_2005

> <r_lp_Energy>
27.9036

> <b_lp_Chiralities_Consistent>
1

> <s_lp_Variant>
AV-unprocessed.smi:1804-2

> <Gold.Version>
5.8.1

> <Gold.Id.Protein>
6NUR|6NUR_protein|mol2

> <Gold.PLP.Fitness>
42.8280

> <Gold.PLP.PLP>
-30.7695

> <Gold.PLP.part.hbond>
-3.4553

> <Gold.PLP.part.metal>
0.0000

> <Gold.PLP.part.buried>
-6.2908

> <Gold.PLP.part.nonpolar>
-21.0967

> <Gold.PLP.part.repulsive>
0.2323

> <Gold.PLP.ligand.clash>
0.0000

> <Gold.PLP.ligand.torsion>
0.4275

> <Gold.PLP.Chemscore.Hbond>
4.2640

> <Gold.PLP.Chemscore.CHOScore>
0.0000

> <Gold.PLP.Chemscore.Metal>
0.0000

> <Gold.Chemscore.Hbonds>
donor molecule, donor type, donor heavy atom, donor atom, acceptor molecule, acceptor atom, score
      P1  H  6896  6909       L1     8  1.00
      P1  H  6931  6943       L1     9  1.40
      P1  H  6934  6947       L1     9  1.70

> <Gold.PLP.Chemscore.Internal.Correction>
0.1215

> <Gold.Rescore>
     Score         DG    S(hbond)    S(metal)    S(lipo)     H(rot)  DE(clash)    DE(int)     intcor
     13.72     -15.39       1.89        0.00      66.30       1.62       0.00       1.67       ----

> <Gold.Chemscore.Fitness>
13.7179

> <Gold.Chemscore.DG>
-15.3891

> <Gold.Chemscore.ZeroCoef>
-5.4800

> <Gold.Chemscore.Hbond>
1.8892

> <Gold.Chemscore.Metal>
0.0000

> <Gold.Chemscore.Lipo>
66.3011

> <Gold.Chemscore.Internal_Hbond>
0.0000

> <Gold.Chemscore.DEClash>
0.0038

> <Gold.Chemscore.DEInternal>
1.6674

> <Gold.Chemscore.Rot>
1.6242

> <Gold.Chemscore.Internal.Correction>
   9.000000E+99

> <Gold.Chemscore.Hbonds>
donor molecule, donor type, donor heavy atom, donor atom, acceptor molecule, acceptor atom, score
      P1  H  6896  6909       L1     8  1.00
      P1  H  6931  6943       L1     9  0.10
      P1  H  6934  6947       L1     9  0.69

> <Gold.Chemscore.Hbond.Weighted>
-6.3099

> <Gold.Chemscore.Metal.Weighted>
-0.0000

> <Gold.Chemscore.Lipo.Weighted>
-7.7572

> <Gold.Chemscore.Internal_Hbond.Weighted>
0.0000

> <Gold.Chemscore.DEClash.Weighted>
0.0038

> <Gold.Chemscore.DEInternal.Weighted>
1.6674

> <Gold.Chemscore.Rot.Weighted>
4.1579

> <Gold.Chemscore.Internal.Correction.Weighted>
   9.000000E+99

> <Gold.Protein.RotatedTorsions>
[ 6907 6896 6895 6894 ] final   71.10 input  -60.11 | X-H torsion
[ 7974 7965 7964 7962 ] final  -48.61 input  175.53 | X-H torsion
[ 8008 7997 7996 7995 ] final  118.49 input   59.86 | X-H torsion
[ 10167 10162 10161 10158 ] final  -61.11 input  -65.29 | X-H torsion
[ 10718 10713 10712 10709 ] final  132.51 input   66.30 | X-H torsion
[ 10763 10752 10751 10750 ] final   27.05 input  -60.55 | X-H torsion
[ 11005 11000 10999 10996 ] final  175.55 input  -57.11 | X-H torsion

> <Gold.Protein.ActiveResidues>
 VAL166  LYS551  ARG553  GLY616  TRP617  ASP618  TYR619  PRO620  LYS621  CYS622 
 ASP623  PHE694  ASN695  SER759  ASP760  ASP761  ALA762  ILE779  LEU786  VAL792 
 PHE793  MET794  SER795  GLU796  ALA797  LYS798  CYS799  TRP800  GLU811  SER814 

> <Gold.Protein.RotatedAtoms>
  152.4790  134.4770  159.9653 H   0  0  0  0  0  0  0  0  0  0  0  0  # atno 6907 bound_to 6896
  151.4780  133.3547  159.2841 H   0  0  0  0  0  0  0  0  0  0  0  0  # atno 6908 bound_to 6896
  150.8848  134.8270  159.7312 H   0  0  0  0  0  0  0  0  0  0  0  0  # atno 6909 bound_to 6896
  145.9494  140.7587  142.9512 H   0  0  0  0  0  0  0  0  0  0  0  0  # atno 7974 bound_to 7965
  156.2549  140.2873  156.0843 H   0  0  0  0  0  0  0  0  0  0  0  0  # atno 8008 bound_to 7997
  155.1533  140.0398  157.2843 H   0  0  0  0  0  0  0  0  0  0  0  0  # atno 8009 bound_to 7997
  154.6445  140.2530  155.7290 H   0  0  0  0  0  0  0  0  0  0  0  0  # atno 8010 bound_to 7997
  140.6027  143.2365  151.5892 H   0  0  0  0  0  0  0  0  0  0  0  0  # atno 10167 bound_to 10162
  157.4864  131.1088  150.9614 H   0  0  0  0  0  0  0  0  0  0  0  0  # atno 10718 bound_to 10713
  153.0582  135.6546  154.0527 H   0  0  0  0  0  0  0  0  0  0  0  0  # atno 10763 bound_to 10752
  154.0201  135.2920  155.3383 H   0  0  0  0  0  0  0  0  0  0  0  0  # atno 10764 bound_to 10752
  154.6907  135.5284  153.8456 H   0  0  0  0  0  0  0  0  0  0  0  0  # atno 10765 bound_to 10752
  140.3634  134.7093  157.4346 H   0  0  0  0  0  0  0  0  0  0  0  0  # atno 11005 bound_to 11000
  144.6793  140.2409  143.7344 LP  0  0  0  0  0  0  0  0  0  0  0  0  # atno 17320 bound_to 7965
  145.8192  139.2036  143.1948 LP  0  0  0  0  0  0  0  0  0  0  0  0  # atno 17321 bound_to 7965
  139.5302  144.2937  152.1131 LP  0  0  0  0  0  0  0  0  0  0  0  0  # atno 17342 bound_to 10162
  140.2121  144.4552  150.6381 LP  0  0  0  0  0  0  0  0  0  0  0  0  # atno 17343 bound_to 10162
  157.0330  130.5719  149.5345 LP  0  0  0  0  0  0  0  0  0  0  0  0  # atno 17370 bound_to 10713
  156.0149  130.5243  150.8104 LP  0  0  0  0  0  0  0  0  0  0  0  0  # atno 17371 bound_to 10713
  140.0608  134.5998  155.8751 LP  0  0  0  0  0  0  0  0  0  0  0  0  # atno 17394 bound_to 11000
  141.1977  133.6597  156.5754 LP  0  0  0  0  0  0  0  0  0  0  0  0  # atno 17395 bound_to 11000

$$$$
