AV-unprocessed.smi:2910|AV-procd|sdf|11176|dock4
  -GOLD-   2272016 63D 1   1.00000     0.00000
 Structure written by MMmdl.
 47 48  0  0  0  0  0  0  0  0  1 V2000
  150.1464  141.7844  156.3267 C   0  0  0  0  0  0  0  0  0  0  0  0
  149.9325  140.5353  155.5241 C   0  0  0  0  0  0  0  0  0  0  0  0
  148.7006  139.9957  155.0528 C   0  0  0  0  0  0  0  0  0  0  0  0
  149.0992  138.8638  154.3957 C   0  0  0  0  0  0  0  0  0  0  0  0
  148.3414  137.9394  153.7479 N   0  0  0  0  0  0  0  0  0  0  0  0
  147.0881  137.5388  154.0234 C   0  0  0  0  0  0  0  0  0  0  0  0
  146.3798  137.9837  154.9266 O   0  0  0  0  0  0  0  0  0  0  0  0
  146.6930  136.5772  153.1749 N   0  0  0  0  0  0  0  0  0  0  0  0
  145.3944  135.8976  153.1861 C   0  0  1  0  0  0  0  0  0  0  0  0
  144.2706  136.9608  153.2306 C   0  0  0  0  0  0  0  0  0  0  0  0
  142.9200  136.4302  153.7433 C   0  0  0  0  0  0  0  0  0  0  0  0
  142.0999  137.5108  154.1319 O   0  0  0  0  0  0  0  0  0  0  0  0
  145.2902  134.9290  151.9720 C   0  0  0  0  0  0  0  0  0  0  0  0
  144.0377  134.0204  152.0432 C   0  0  0  0  0  0  0  0  0  0  0  0
  143.9468  133.0497  150.8545 C   0  0  0  0  0  0  0  0  0  0  0  0
  145.2111  132.1903  150.7357 C   0  0  0  0  0  0  0  0  0  0  0  0
  146.4569  133.0775  150.6292 C   0  0  0  0  0  0  0  0  0  0  0  0
  146.5551  134.0445  151.8193 C   0  0  0  0  0  0  0  0  0  0  0  0
  150.4695  138.7582  154.4830 N   0  0  0  0  0  0  0  0  0  0  0  0
  151.3504  137.7380  153.9485 C   0  0  0  0  0  0  0  0  0  0  0  0
  150.9809  139.7955  155.1807 N   0  0  0  0  0  0  0  0  0  0  0  0
  149.2028  142.2958  156.5179 H   0  0  0  0  0  0  0  0  0  0  0  0
  150.8014  142.4813  155.8031 H   0  0  0  0  0  0  0  0  0  0  0  0
  150.6015  141.5576  157.2910 H   0  0  0  0  0  0  0  0  0  0  0  0
  147.7042  140.3882  155.1883 H   0  0  0  0  0  0  0  0  0  0  0  0
  148.7889  137.4917  152.9619 H   0  0  0  0  0  0  0  0  0  0  0  0
  147.3469  136.2792  152.4658 H   0  0  0  0  0  0  0  0  0  0  0  0
  145.3044  135.2941  154.0911 H   0  0  0  0  0  0  0  0  0  0  0  0
  144.5875  137.8031  153.8473 H   0  0  0  0  0  0  0  0  0  0  0  0
  144.1037  137.3600  152.2311 H   0  0  0  0  0  0  0  0  0  0  0  0
  142.4110  135.8593  152.9661 H   0  0  0  0  0  0  0  0  0  0  0  0
  143.0513  135.7710  154.6014 H   0  0  0  0  0  0  0  0  0  0  0  0
  142.3900  138.2871  153.6775 H   0  0  0  0  0  0  0  0  0  0  0  0
  145.2058  135.5365  151.0694 H   0  0  0  0  0  0  0  0  0  0  0  0
  144.0478  133.4532  152.9750 H   0  0  0  0  0  0  0  0  0  0  0  0
  143.1261  134.6160  152.0543 H   0  0  0  0  0  0  0  0  0  0  0  0
  143.0723  132.4083  150.9660 H   0  0  0  0  0  0  0  0  0  0  0  0
  143.8003  133.6141  149.9326 H   0  0  0  0  0  0  0  0  0  0  0  0
  145.2965  131.5383  151.6060 H   0  0  0  0  0  0  0  0  0  0  0  0
  145.1403  131.5386  149.8645 H   0  0  0  0  0  0  0  0  0  0  0  0
  147.3516  132.4562  150.5815 H   0  0  0  0  0  0  0  0  0  0  0  0
  146.4243  133.6453  149.6982 H   0  0  0  0  0  0  0  0  0  0  0  0
  147.4447  134.6588  151.6811 H   0  0  0  0  0  0  0  0  0  0  0  0
  146.7161  133.4761  152.7365 H   0  0  0  0  0  0  0  0  0  0  0  0
  151.0272  136.7566  154.2969 H   0  0  0  0  0  0  0  0  0  0  0  0
  152.3778  137.9072  154.2748 H   0  0  0  0  0  0  0  0  0  0  0  0
  151.3159  137.7599  152.8590 H   0  0  0  0  0  0  0  0  0  0  0  0
  1  2  1  0  0  0  0
  1 22  1  0  0  0  0
  1 23  1  0  0  0  0
  1 24  1  0  0  0  0
  2 21  2  0  0  0  0
  2  3  1  0  0  0  0
  3  4  2  0  0  0  0
  3 25  1  0  0  0  0
  4  5  1  0  0  0  0
  4 19  1  0  0  0  0
  5  6  1  0  0  0  0
  5 26  1  0  0  0  0
  6  7  2  0  0  0  0
  6  8  1  0  0  0  0
  8  9  1  0  0  0  0
  8 27  1  0  0  0  0
  9 10  1  0  0  0  0
  9 13  1  0  0  0  0
  9 28  1  0  0  0  0
 10 11  1  0  0  0  0
 10 29  1  0  0  0  0
 10 30  1  0  0  0  0
 11 12  1  0  0  0  0
 11 31  1  0  0  0  0
 11 32  1  0  0  0  0
 12 33  1  0  0  0  0
 13 18  1  0  0  0  0
 13 14  1  0  0  0  0
 13 34  1  0  0  0  0
 14 15  1  0  0  0  0
 14 35  1  0  0  0  0
 14 36  1  0  0  0  0
 15 16  1  0  0  0  0
 15 37  1  0  0  0  0
 15 38  1  0  0  0  0
 16 17  1  0  0  0  0
 16 39  1  0  0  0  0
 16 40  1  0  0  0  0
 17 18  1  0  0  0  0
 17 41  1  0  0  0  0
 17 42  1  0  0  0  0
 18 43  1  0  0  0  0
 18 44  1  0  0  0  0
 19 20  1  0  0  0  0
 19 21  1  0  0  0  0
 20 45  1  0  0  0  0
 20 46  1  0  0  0  0
 20 47  1  0  0  0  0
M  END
> <s_m_source_file>
AV-unprocessed.smi

> <i_m_source_file_index>
2910

> <i_lp_mmshare_version>
43012

> <i_f3d_flags>
0

> <s_epik_input>
W0NIM11jMVtjSF1jKG4objEpW0NIM10pW05IXUMoPU8pW05IXVtDQEhdKFtDSDJdW0NIMl1bT0hdKVtDSF0yW0NIMl1bQ0gyXVtDSDJdW0NIMl1bQ0gyXTI=

> <s_epik_cmdline>
J2VwaWtfcHl0aG9uJywgJy1waCcsICc3LjAnLCAnLXRuJywgJzgnLCAnLW1hJywgJzIwMCcsICctbWV0YWxfYmluZGluZycsICctaW1hZScsICc8aW5maWxlLm1hZT4nLCAnLW9tYWUnLCAnPG91dGZpbGUubWFlPic=

> <r_lp_tautomer_probability>
1

> <r_epik_Ionization_Penalty>
0.000101449

> <r_epik_Ionization_Penalty_Charging>
0

> <r_epik_Ionization_Penalty_Neutral>
0.000101449

> <r_epik_State_Penalty>
-0

> <r_epik_Charging_Adjusted_Penalty>
0

> <i_epik_Tot_Q>
0

> <i_epik_Tot_abs_Q>
0

> <r_epik_Metal_State_Penalty>
-0

> <b_epik_Metal_Only>
0

> <s_lp_Force_Field>
OPLS_2005

> <r_lp_Energy>
16.2271

> <b_lp_Chiralities_Consistent>
1

> <s_lp_Variant>
AV-unprocessed.smi:2910-2

> <Gold.Version>
5.8.1

> <Gold.Id.Protein>
6NUR|6NUR_protein|mol2

> <Gold.PLP.Fitness>
45.9482

> <Gold.PLP.PLP>
-35.7187

> <Gold.PLP.part.hbond>
-4.1884

> <Gold.PLP.part.metal>
0.0000

> <Gold.PLP.part.buried>
1.2794

> <Gold.PLP.part.nonpolar>
-32.0141

> <Gold.PLP.part.repulsive>
0.1974

> <Gold.PLP.ligand.clash>
0.0000

> <Gold.PLP.ligand.torsion>
0.6076

> <Gold.PLP.Chemscore.Hbond>
3.7600

> <Gold.PLP.Chemscore.CHOScore>
0.0000

> <Gold.PLP.Chemscore.Metal>
0.0000

> <Gold.Chemscore.Hbonds>
donor molecule, donor type, donor heavy atom, donor atom, acceptor molecule, acceptor atom, score
      L1  H     5    26       P1  7948  1.00
      L1  H     8    27       P1  7948  1.00
      P1  H  7989  7998       L1    21  0.66

> <Gold.PLP.Chemscore.Internal.Correction>
0.1647

> <Gold.Rescore>
     Score         DG    S(hbond)    S(metal)    S(lipo)     H(rot)  DE(clash)    DE(int)     intcor
     16.29     -18.24       2.90        0.00      76.02       2.27       0.20       1.75       ----

> <Gold.Chemscore.Fitness>
16.2944

> <Gold.Chemscore.DG>
-18.2422

> <Gold.Chemscore.ZeroCoef>
-5.4800

> <Gold.Chemscore.Hbond>
2.9014

> <Gold.Chemscore.Metal>
0.0000

> <Gold.Chemscore.Lipo>
76.0154

> <Gold.Chemscore.Internal_Hbond>
0.0000

> <Gold.Chemscore.DEClash>
0.1977

> <Gold.Chemscore.DEInternal>
1.7502

> <Gold.Chemscore.Rot>
2.2743

> <Gold.Chemscore.Internal.Correction>
   9.000000E+99

> <Gold.Chemscore.Hbonds>
donor molecule, donor type, donor heavy atom, donor atom, acceptor molecule, acceptor atom, score
      L1  H     5    26       P1  7948  0.97
      L1  H     8    27       P1  7948  0.95
      P1  H  7989  7998       L1    21  0.02

> <Gold.Chemscore.Hbond.Weighted>
-9.6907

> <Gold.Chemscore.Metal.Weighted>
-0.0000

> <Gold.Chemscore.Lipo.Weighted>
-8.8938

> <Gold.Chemscore.Internal_Hbond.Weighted>
0.0000

> <Gold.Chemscore.DEClash.Weighted>
0.1977

> <Gold.Chemscore.DEInternal.Weighted>
1.7502

> <Gold.Chemscore.Rot.Weighted>
5.8223

> <Gold.Chemscore.Internal.Correction.Weighted>
   9.000000E+99

> <Gold.Protein.RotatedTorsions>
[ 6907 6896 6895 6894 ] final -171.77 input  -60.11 | X-H torsion
[ 7974 7965 7964 7962 ] final  -22.07 input  175.53 | X-H torsion
[ 8008 7997 7996 7995 ] final  116.07 input   59.86 | X-H torsion
[ 10167 10162 10161 10158 ] final  177.40 input  -65.29 | X-H torsion
[ 10718 10713 10712 10709 ] final -119.13 input   66.30 | X-H torsion
[ 10763 10752 10751 10750 ] final -172.47 input  -60.55 | X-H torsion
[ 11005 11000 10999 10996 ] final   -8.27 input  -57.11 | X-H torsion

> <Gold.Protein.ActiveResidues>
 VAL166  LYS551  ARG553  GLY616  TRP617  ASP618  TYR619  PRO620  LYS621  CYS622 
 ASP623  PHE694  ASN695  SER759  ASP760  ASP761  ALA762  ILE779  LEU786  VAL792 
 PHE793  MET794  SER795  GLU796  ALA797  LYS798  CYS799  TRP800  GLU811  SER814 

> <Gold.Protein.RotatedAtoms>
  151.5291  133.3452  159.2914 H   0  0  0  0  0  0  0  0  0  0  0  0  # atno 6907 bound_to 6896
  150.8604  134.7957  159.7090 H   0  0  0  0  0  0  0  0  0  0  0  0  # atno 6908 bound_to 6896
  152.4625  134.5159  159.9819 H   0  0  0  0  0  0  0  0  0  0  0  0  # atno 6909 bound_to 6896
  146.1697  140.4428  142.8537 H   0  0  0  0  0  0  0  0  0  0  0  0  # atno 7974 bound_to 7965
  156.2418  140.2925  156.0466 H   0  0  0  0  0  0  0  0  0  0  0  0  # atno 8008 bound_to 7997
  155.1928  140.0407  157.2920 H   0  0  0  0  0  0  0  0  0  0  0  0  # atno 8009 bound_to 7997
  154.6183  140.2469  155.7588 H   0  0  0  0  0  0  0  0  0  0  0  0  # atno 8010 bound_to 7997
  139.5252  144.2802  152.0553 H   0  0  0  0  0  0  0  0  0  0  0  0  # atno 10167 bound_to 10162
  156.1158  130.6284  150.9378 H   0  0  0  0  0  0  0  0  0  0  0  0  # atno 10718 bound_to 10713
  154.6189  135.2873  155.0349 H   0  0  0  0  0  0  0  0  0  0  0  0  # atno 10763 bound_to 10752
  154.1551  135.6497  153.4976 H   0  0  0  0  0  0  0  0  0  0  0  0  # atno 10764 bound_to 10752
  153.0227  135.5365  154.6971 H   0  0  0  0  0  0  0  0  0  0  0  0  # atno 10765 bound_to 10752
  140.7217  133.8823  155.8825 H   0  0  0  0  0  0  0  0  0  0  0  0  # atno 11005 bound_to 11000
  144.8145  140.6443  143.6394 LP  0  0  0  0  0  0  0  0  0  0  0  0  # atno 17320 bound_to 7965
  145.4373  139.1540  143.3989 LP  0  0  0  0  0  0  0  0  0  0  0  0  # atno 17321 bound_to 7965
  140.2258  144.4420  150.6322 LP  0  0  0  0  0  0  0  0  0  0  0  0  # atno 17342 bound_to 10162
  140.6388  143.2200  151.6335 LP  0  0  0  0  0  0  0  0  0  0  0  0  # atno 17343 bound_to 10162
  157.6341  131.0918  150.8384 LP  0  0  0  0  0  0  0  0  0  0  0  0  # atno 17370 bound_to 10713
  156.8487  130.5073  149.5314 LP  0  0  0  0  0  0  0  0  0  0  0  0  # atno 17371 bound_to 10713
  140.9998  134.1166  157.4328 LP  0  0  0  0  0  0  0  0  0  0  0  0  # atno 17394 bound_to 11000
  139.8846  135.0065  156.6383 LP  0  0  0  0  0  0  0  0  0  0  0  0  # atno 17395 bound_to 11000

$$$$
