AV-unprocessed.smi:3112|AV-procd|sdf|11837|dock2
  -GOLD-   2272017213D 1   1.00000     0.00000
 Structure written by MMmdl.
 37 37  0  0  0  0  0  0  0  0  2 V2000
  146.8661  140.2143  154.3747 C   0  0  0  0  0  0  0  0  0  0  0  0
  148.0741  140.5139  153.4764 C   0  0  0  0  0  0  0  0  0  0  0  0
  148.9802  141.6333  154.0206 C   0  0  1  0  0  0  0  0  0  0  0  0
  148.2301  142.8290  154.1050 O   0  0  0  0  0  0  0  0  0  0  0  0
  149.5260  141.3024  155.4198 C   0  0  0  0  0  0  0  0  0  0  0  0
  150.2874  142.4419  155.9749 N   0  3  0  0  0  0  0  0  0  0  0  0
  150.7667  142.2832  157.3681 C   0  0  2  0  0  0  0  0  0  0  0  0
  149.6530  141.6135  158.1939 C   0  0  0  0  0  0  0  0  0  0  0  0
  151.2806  143.6288  157.9579 C   0  0  2  0  0  0  0  0  0  0  0  0
  152.1317  144.4359  156.9577 C   0  0  0  0  0  0  0  0  0  0  0  0
  151.9599  143.4631  159.2405 N   0  0  0  0  0  0  0  0  0  0  0  0
  151.6181  144.0233  160.4550 C   0  0  0  0  0  0  0  0  0  0  0  0
  152.5094  143.5694  161.3840 C   0  0  0  0  0  0  0  0  0  0  0  0
  153.3705  142.7186  160.6374 C   0  0  0  0  0  0  0  0  0  0  0  0
  153.0362  142.6524  159.3593 N   0  0  0  0  0  0  0  0  0  0  0  0
  146.2370  139.4426  153.9307 H   0  0  0  0  0  0  0  0  0  0  0  0
  146.2500  141.1026  154.5170 H   0  0  0  0  0  0  0  0  0  0  0  0
  147.1767  139.8595  155.3577 H   0  0  0  0  0  0  0  0  0  0  0  0
  148.6544  139.6023  153.3267 H   0  0  0  0  0  0  0  0  0  0  0  0
  147.7025  140.8011  152.4918 H   0  0  0  0  0  0  0  0  0  0  0  0
  149.8129  141.7884  153.3329 H   0  0  0  0  0  0  0  0  0  0  0  0
  147.3104  142.6095  154.0863 H   0  0  0  0  0  0  0  0  0  0  0  0
  148.7093  141.0363  156.0928 H   0  0  0  0  0  0  0  0  0  0  0  0
  150.1805  140.4340  155.3528 H   0  0  0  0  0  0  0  0  0  0  0  0
  151.0768  142.6410  155.3773 H   0  0  0  0  0  0  0  0  0  0  0  0
  151.6034  141.5833  157.3445 H   0  0  0  0  0  0  0  0  0  0  0  0
  149.9564  141.4493  159.2274 H   0  0  0  0  0  0  0  0  0  0  0  0
  149.3994  140.6377  157.7784 H   0  0  0  0  0  0  0  0  0  0  0  0
  148.7383  142.2062  158.2022 H   0  0  0  0  0  0  0  0  0  0  0  0
  150.4139  144.2592  158.1552 H   0  0  0  0  0  0  0  0  0  0  0  0
  151.5800  144.6197  156.0355 H   0  0  0  0  0  0  0  0  0  0  0  0
  153.0574  143.9258  156.6915 H   0  0  0  0  0  0  0  0  0  0  0  0
  152.4023  145.4069  157.3737 H   0  0  0  0  0  0  0  0  0  0  0  0
  150.7767  144.6930  160.5573 H   0  0  0  0  0  0  0  0  0  0  0  0
  152.5413  143.8081  162.4369 H   0  0  0  0  0  0  0  0  0  0  0  0
  154.2200  142.1487  160.9837 H   0  0  0  0  0  0  0  0  0  0  0  0
  149.6681  143.2400  155.9566 H   0  0  0  0  0  0  0  0  0  0  0  0
  1  2  1  0  0  0  0
  1 16  1  0  0  0  0
  1 17  1  0  0  0  0
  1 18  1  0  0  0  0
  2  3  1  0  0  0  0
  2 19  1  0  0  0  0
  2 20  1  0  0  0  0
  3  4  1  0  0  0  0
  3  5  1  0  0  0  0
  3 21  1  0  0  0  0
  4 22  1  0  0  0  0
  5  6  1  0  0  0  0
  5 23  1  0  0  0  0
  5 24  1  0  0  0  0
  6  7  1  0  0  0  0
  6 25  1  0  0  0  0
  6 37  1  0  0  0  0
  7  8  1  0  0  0  0
  7  9  1  0  0  0  0
  7 26  1  0  0  0  0
  8 27  1  0  0  0  0
  8 28  1  0  0  0  0
  8 29  1  0  0  0  0
  9 10  1  0  0  0  0
  9 11  1  0  0  0  0
  9 30  1  0  0  0  0
 10 31  1  0  0  0  0
 10 32  1  0  0  0  0
 10 33  1  0  0  0  0
 11 15  1  0  0  0  0
 11 12  1  0  0  0  0
 12 13  2  0  0  0  0
 12 34  1  0  0  0  0
 13 14  1  0  0  0  0
 13 35  1  0  0  0  0
 14 15  2  0  0  0  0
 14 36  1  0  0  0  0
M  CHG  1   6   1
M  END
> <s_m_source_file>
AV-unprocessed.smi

> <i_m_source_file_index>
3112

> <i_lp_mmshare_version>
43012

> <i_f3d_flags>
0

> <s_epik_input>
W0NIM11bQ0gyXVtDQEhdKFtPSF0pW0NIMl1bTkhdW0NASF0oW0NIM10pW0NASF0oW0NIM10pbjFbY0hdW2NIXVtjSF1uMQ==

> <s_epik_cmdline>
J2VwaWtfcHl0aG9uJywgJy1waCcsICc3LjAnLCAnLXRuJywgJzgnLCAnLW1hJywgJzIwMCcsICctbWV0YWxfYmluZGluZycsICctaW1hZScsICc8aW5maWxlLm1hZT4nLCAnLW9tYWUnLCAnPG91dGZpbGUubWFlPic=

> <r_lp_tautomer_probability>
1

> <r_epik_Ionization_Penalty>
0.0154842

> <r_epik_Ionization_Penalty_Charging>
0.0154724

> <r_epik_Ionization_Penalty_Neutral>
1.17979e-05

> <r_epik_State_Penalty>
0.0121607

> <r_epik_Charging_Adjusted_Penalty>
0.0276331

> <i_epik_Tot_Q>
1

> <i_epik_Tot_abs_Q>
1

> <r_epik_Metal_State_Penalty>
0.0121863

> <b_epik_Metal_Only>
0

> <s_lp_Force_Field>
OPLS_2005

> <r_lp_Energy>
12.6471

> <b_lp_Chiralities_Consistent>
1

> <s_lp_Variant>
AV-unprocessed.smi:3112-2

> <Gold.Version>
5.8.1

> <Gold.Id.Protein>
6NUR|6NUR_protein|mol2

> <Gold.PLP.Fitness>
42.8464

> <Gold.PLP.PLP>
-34.4516

> <Gold.PLP.part.hbond>
-3.6672

> <Gold.PLP.part.metal>
0.0000

> <Gold.PLP.part.buried>
-1.4968

> <Gold.PLP.part.nonpolar>
-28.4564

> <Gold.PLP.part.repulsive>
0.1173

> <Gold.PLP.ligand.clash>
0.0000

> <Gold.PLP.ligand.torsion>
0.3912

> <Gold.PLP.Chemscore.Hbond>
3.0000

> <Gold.PLP.Chemscore.CHOScore>
0.0000

> <Gold.PLP.Chemscore.Metal>
0.0000

> <Gold.Chemscore.Hbonds>
donor molecule, donor type, donor heavy atom, donor atom, acceptor molecule, acceptor atom, score
      L1  H     6    37       P1  8028  2.00
      P1  H  8022  8030       L1     4  0.99

> <Gold.PLP.Chemscore.Internal.Correction>
0.1772

> <Gold.Rescore>
     Score         DG    S(hbond)    S(metal)    S(lipo)     H(rot)  DE(clash)    DE(int)     intcor
     14.64     -16.62       1.80        0.00      96.65       2.41       1.53       0.46       ----

> <Gold.Chemscore.Fitness>
14.6352

> <Gold.Chemscore.DG>
-16.6240

> <Gold.Chemscore.ZeroCoef>
-5.4800

> <Gold.Chemscore.Hbond>
1.7972

> <Gold.Chemscore.Metal>
0.0000

> <Gold.Chemscore.Lipo>
96.6494

> <Gold.Chemscore.Internal_Hbond>
0.0000

> <Gold.Chemscore.DEClash>
1.5263

> <Gold.Chemscore.DEInternal>
0.4625

> <Gold.Chemscore.Rot>
2.4089

> <Gold.Chemscore.Internal.Correction>
   9.000000E+99

> <Gold.Chemscore.Hbonds>
donor molecule, donor type, donor heavy atom, donor atom, acceptor molecule, acceptor atom, score
      L1  H     6    37       P1  8028  1.00
      P1  H  8022  8030       L1     4  0.76

> <Gold.Chemscore.Hbond.Weighted>
-6.0027

> <Gold.Chemscore.Metal.Weighted>
-0.0000

> <Gold.Chemscore.Lipo.Weighted>
-11.3080

> <Gold.Chemscore.Internal_Hbond.Weighted>
0.0000

> <Gold.Chemscore.DEClash.Weighted>
1.5263

> <Gold.Chemscore.DEInternal.Weighted>
0.4625

> <Gold.Chemscore.Rot.Weighted>
6.1667

> <Gold.Chemscore.Internal.Correction.Weighted>
   9.000000E+99

> <Gold.Protein.RotatedTorsions>
[ 6907 6896 6895 6894 ] final  -71.69 input  -60.11 | X-H torsion
[ 7974 7965 7964 7962 ] final  131.59 input  175.53 | X-H torsion
[ 8008 7997 7996 7995 ] final  -99.86 input   59.86 | X-H torsion
[ 10167 10162 10161 10158 ] final   -2.41 input  -65.29 | X-H torsion
[ 10718 10713 10712 10709 ] final   -0.23 input   66.30 | X-H torsion
[ 10763 10752 10751 10750 ] final  -68.32 input  -60.55 | X-H torsion
[ 11005 11000 10999 10996 ] final  122.40 input  -57.11 | X-H torsion

> <Gold.Protein.ActiveResidues>
 VAL166  LYS551  ARG553  GLY616  TRP617  ASP618  TYR619  PRO620  LYS621  CYS622 
 ASP623  PHE694  ASN695  SER759  ASP760  ASP761  ALA762  ILE779  LEU786  VAL792 
 PHE793  MET794  SER795  GLU796  ALA797  LYS798  CYS799  TRP800  GLU811  SER814 

> <Gold.Protein.RotatedAtoms>
  150.7201  134.5272  159.5682 H   0  0  0  0  0  0  0  0  0  0  0  0  # atno 6907 bound_to 6896
  152.2813  134.7822  160.0405 H   0  0  0  0  0  0  0  0  0  0  0  0  # atno 6908 bound_to 6896
  151.8467  133.3397  159.3697 H   0  0  0  0  0  0  0  0  0  0  0  0  # atno 6909 bound_to 6896
  145.0057  139.4269  143.5270 H   0  0  0  0  0  0  0  0  0  0  0  0  # atno 7974 bound_to 7965
  154.8207  140.0445  157.1408 H   0  0  0  0  0  0  0  0  0  0  0  0  # atno 8008 bound_to 7997
  154.9263  140.3033  155.5170 H   0  0  0  0  0  0  0  0  0  0  0  0  # atno 8009 bound_to 7997
  156.2980  140.2331  156.4318 H   0  0  0  0  0  0  0  0  0  0  0  0  # atno 8010 bound_to 7997
  140.6850  143.6660  150.8225 H   0  0  0  0  0  0  0  0  0  0  0  0  # atno 10167 bound_to 10162
  156.8234  130.5464  149.5694 H   0  0  0  0  0  0  0  0  0  0  0  0  # atno 10718 bound_to 10713
  154.3873  135.6060  153.5824 H   0  0  0  0  0  0  0  0  0  0  0  0  # atno 10763 bound_to 10752
  152.9787  135.5875  154.4339 H   0  0  0  0  0  0  0  0  0  0  0  0  # atno 10764 bound_to 10752
  154.4117  135.2844  155.2010 H   0  0  0  0  0  0  0  0  0  0  0  0  # atno 10765 bound_to 10752
  139.9267  134.9641  156.8103 H   0  0  0  0  0  0  0  0  0  0  0  0  # atno 11005 bound_to 11000
  146.3460  139.9472  142.8733 LP  0  0  0  0  0  0  0  0  0  0  0  0  # atno 17320 bound_to 7965
  145.2092  140.9888  143.4111 LP  0  0  0  0  0  0  0  0  0  0  0  0  # atno 17321 bound_to 7965
  140.0366  143.5389  152.2736 LP  0  0  0  0  0  0  0  0  0  0  0  0  # atno 17342 bound_to 10162
  139.6201  144.7627  151.2760 LP  0  0  0  0  0  0  0  0  0  0  0  0  # atno 17343 bound_to 10162
  156.0975  130.5944  150.9839 LP  0  0  0  0  0  0  0  0  0  0  0  0  # atno 17370 bound_to 10713
  157.6445  131.0906  150.8183 LP  0  0  0  0  0  0  0  0  0  0  0  0  # atno 17371 bound_to 10713
  140.6318  133.9899  155.7665 LP  0  0  0  0  0  0  0  0  0  0  0  0  # atno 17394 bound_to 11000
  141.0828  134.0036  157.3359 LP  0  0  0  0  0  0  0  0  0  0  0  0  # atno 17395 bound_to 11000

$$$$
