AV-unprocessed.smi:2207|AV-procd|sdf|8944|dock9
  -GOLD-   2272012163D 1   1.00000     0.00000
 Structure written by MMmdl.
 18 18  0  0  0  0  0  0  0  0  1 V2000
  143.8988  133.6639  147.6109 N   0  0  0  0  0  0  0  0  0  0  0  0
  143.8256  132.6682  148.4984 C   0  0  0  0  0  0  0  0  0  0  0  0
  142.9770  131.7821  148.4253 O   0  0  0  0  0  0  0  0  0  0  0  0
  144.8500  132.6686  149.6344 C   0  0  0  0  0  0  0  0  0  0  0  0
  144.5264  133.6708  150.6343 N   0  0  0  0  0  0  0  0  0  0  0  0
  144.6066  135.0464  150.5251 C   0  0  0  0  0  0  0  0  0  0  0  0
  144.1981  135.5785  151.7153 C   0  0  0  0  0  0  0  0  0  0  0  0
  143.8885  134.4271  152.4878 C   0  0  0  0  0  0  0  0  0  0  0  0
  143.4227  134.4912  153.7982 N   0  0  0  0  0  0  0  0  0  0  0  0
  144.0813  133.2858  151.8524 N   0  0  0  0  0  0  0  0  0  0  0  0
  143.2457  133.6998  146.8417 H   0  0  0  0  0  0  0  0  0  0  0  0
  144.6100  134.3740  147.7093 H   0  0  0  0  0  0  0  0  0  0  0  0
  144.8942  131.6834  150.1017 H   0  0  0  0  0  0  0  0  0  0  0  0
  145.8442  132.8797  149.2382 H   0  0  0  0  0  0  0  0  0  0  0  0
  144.9430  135.5257  149.6173 H   0  0  0  0  0  0  0  0  0  0  0  0
  144.1322  136.6219  151.9860 H   0  0  0  0  0  0  0  0  0  0  0  0
  143.2815  135.3744  154.2667 H   0  0  0  0  0  0  0  0  0  0  0  0
  143.2174  133.6540  154.3243 H   0  0  0  0  0  0  0  0  0  0  0  0
  1  2  1  0  0  0  0
  1 11  1  0  0  0  0
  1 12  1  0  0  0  0
  2  3  2  0  0  0  0
  2  4  1  0  0  0  0
  4  5  1  0  0  0  0
  4 13  1  0  0  0  0
  4 14  1  0  0  0  0
  5 10  1  0  0  0  0
  5  6  1  0  0  0  0
  6  7  2  0  0  0  0
  6 15  1  0  0  0  0
  7  8  1  0  0  0  0
  7 16  1  0  0  0  0
  8  9  1  0  0  0  0
  8 10  2  0  0  0  0
  9 17  1  0  0  0  0
  9 18  1  0  0  0  0
M  END
> <s_m_source_file>
AV-unprocessed.smi

> <i_m_source_file_index>
2207

> <i_lp_mmshare_version>
43012

> <i_f3d_flags>
0

> <s_epik_input>
W05IMl1DKD1PKVtDSDJdbjFbY0hdW2NIXWMobjEpW05IMl0=

> <s_epik_cmdline>
J2VwaWtfcHl0aG9uJywgJy1waCcsICc3LjAnLCAnLXRuJywgJzgnLCAnLW1hJywgJzIwMCcsICctbWV0YWxfYmluZGluZycsICctaW1hZScsICc8aW5maWxlLm1hZT4nLCAnLW9tYWUnLCAnPG91dGZpbGUubWFlPic=

> <r_lp_tautomer_probability>
1

> <r_epik_Ionization_Penalty>
0.000204489

> <r_epik_Ionization_Penalty_Charging>
0

> <r_epik_Ionization_Penalty_Neutral>
0.000204489

> <r_epik_State_Penalty>
-0

> <r_epik_Charging_Adjusted_Penalty>
0

> <i_epik_Tot_Q>
0

> <i_epik_Tot_abs_Q>
0

> <r_epik_Metal_State_Penalty>
-0

> <b_epik_Metal_Only>
0

> <s_lp_Force_Field>
OPLS_2005

> <r_lp_Energy>
0.150193

> <b_lp_Chiralities_Consistent>
1

> <s_lp_Variant>
AV-unprocessed.smi:2207-1

> <Gold.Version>
5.8.1

> <Gold.Id.Protein>
6NUR|6NUR_protein|mol2

> <Gold.PLP.Fitness>
33.5792

> <Gold.PLP.PLP>
-19.5613

> <Gold.PLP.part.hbond>
-4.0000

> <Gold.PLP.part.metal>
0.0000

> <Gold.PLP.part.buried>
-5.2278

> <Gold.PLP.part.nonpolar>
-14.5512

> <Gold.PLP.part.repulsive>
3.9094

> <Gold.PLP.ligand.clash>
0.0000

> <Gold.PLP.ligand.torsion>
0.2991

> <Gold.PLP.Chemscore.Hbond>
3.8720

> <Gold.PLP.Chemscore.CHOScore>
1.0000

> <Gold.PLP.Chemscore.Metal>
0.0000

> <Gold.Chemscore.Hbonds>
donor molecule, donor type, donor heavy atom, donor atom, acceptor molecule, acceptor atom, score
      L1  H     1    11       P1 10195  1.00
      L1  H     1    12       P1  7921  0.99
      L1  H     9    18       P1 10957  1.00
      P1  H 10785 10796       L1     3  0.82
      L1  C     6    15       P1  7921  1.00

> <Gold.PLP.Chemscore.Internal.Correction>
0.0001

> <Gold.Rescore>
     Score         DG    S(hbond)    S(metal)    S(lipo)     H(rot)  DE(clash)    DE(int)     intcor
     14.75     -16.71       3.90        0.00      21.18       1.67       1.52       0.44       ----

> <Gold.Chemscore.Fitness>
14.7496

> <Gold.Chemscore.DG>
-16.7111

> <Gold.Chemscore.ZeroCoef>
-5.4800

> <Gold.Chemscore.Hbond>
3.9019

> <Gold.Chemscore.Metal>
0.0000

> <Gold.Chemscore.Lipo>
21.1808

> <Gold.Chemscore.Internal_Hbond>
0.0000

> <Gold.Chemscore.DEClash>
1.5187

> <Gold.Chemscore.DEInternal>
0.4428

> <Gold.Chemscore.Rot>
1.6716

> <Gold.Chemscore.Internal.Correction>
   9.000000E+99

> <Gold.Chemscore.Hbonds>
donor molecule, donor type, donor heavy atom, donor atom, acceptor molecule, acceptor atom, score
      L1  H     1    11       P1 10195  0.95
      L1  H     1    12       P1  7921  0.90
      L1  H     9    18       P1 10957  0.94
      P1  H 10785 10796       L1     3  0.81

> <Gold.Chemscore.Hbond.Weighted>
-13.0323

> <Gold.Chemscore.Metal.Weighted>
-0.0000

> <Gold.Chemscore.Lipo.Weighted>
-2.4782

> <Gold.Chemscore.Internal_Hbond.Weighted>
0.0000

> <Gold.Chemscore.DEClash.Weighted>
1.5187

> <Gold.Chemscore.DEInternal.Weighted>
0.4428

> <Gold.Chemscore.Rot.Weighted>
4.2794

> <Gold.Chemscore.Internal.Correction.Weighted>
   9.000000E+99

> <Gold.Protein.RotatedTorsions>
[ 6907 6896 6895 6894 ] final   62.08 input  -60.11 | X-H torsion
[ 7974 7965 7964 7962 ] final  143.39 input  175.53 | X-H torsion
[ 8008 7997 7996 7995 ] final -144.65 input   59.86 | X-H torsion
[ 10167 10162 10161 10158 ] final -137.01 input  -65.29 | X-H torsion
[ 10718 10713 10712 10709 ] final   54.41 input   66.30 | X-H torsion
[ 10763 10752 10751 10750 ] final -172.26 input  -60.55 | X-H torsion
[ 11005 11000 10999 10996 ] final  -25.46 input  -57.11 | X-H torsion

> <Gold.Protein.ActiveResidues>
 VAL166  LYS551  ARG553  GLY616  TRP617  ASP618  TYR619  PRO620  LYS621  CYS622 
 ASP623  PHE694  ASN695  SER759  ASP760  ASP761  ALA762  ILE779  LEU786  VAL792 
 PHE793  MET794  SER795  GLU796  ALA797  LYS798  CYS799  TRP800  GLU811  SER814 

> <Gold.Protein.RotatedAtoms>
  152.4143  134.6070  160.0015 H   0  0  0  0  0  0  0  0  0  0  0  0  # atno 6907 bound_to 6896
  151.6238  133.3331  159.3102 H   0  0  0  0  0  0  0  0  0  0  0  0  # atno 6908 bound_to 6896
  150.8032  134.7179  159.6686 H   0  0  0  0  0  0  0  0  0  0  0  0  # atno 6909 bound_to 6896
  144.8925  139.5538  143.5792 H   0  0  0  0  0  0  0  0  0  0  0  0  # atno 7974 bound_to 7965
  155.5303  140.0599  157.2890 H   0  0  0  0  0  0  0  0  0  0  0  0  # atno 8008 bound_to 7997
  154.4486  140.1937  156.0533 H   0  0  0  0  0  0  0  0  0  0  0  0  # atno 8009 bound_to 7997
  156.0656  140.3266  155.7518 H   0  0  0  0  0  0  0  0  0  0  0  0  # atno 8010 bound_to 7997
  139.8621  143.7064  152.2649 H   0  0  0  0  0  0  0  0  0  0  0  0  # atno 10167 bound_to 10162
  157.5255  130.8594  149.8615 H   0  0  0  0  0  0  0  0  0  0  0  0  # atno 10718 bound_to 10713
  154.6212  135.2875  155.0323 H   0  0  0  0  0  0  0  0  0  0  0  0  # atno 10763 bound_to 10752
  154.1517  135.6502  153.4969 H   0  0  0  0  0  0  0  0  0  0  0  0  # atno 10764 bound_to 10752
  153.0237  135.5357  154.7003 H   0  0  0  0  0  0  0  0  0  0  0  0  # atno 10765 bound_to 10752
  140.8940  133.7569  156.0457 H   0  0  0  0  0  0  0  0  0  0  0  0  # atno 11005 bound_to 11000
  146.3062  139.7588  142.9054 LP  0  0  0  0  0  0  0  0  0  0  0  0  # atno 17320 bound_to 7965
  145.3758  141.0350  143.3205 LP  0  0  0  0  0  0  0  0  0  0  0  0  # atno 17321 bound_to 7965
  139.7364  144.7570  151.0721 LP  0  0  0  0  0  0  0  0  0  0  0  0  # atno 17342 bound_to 10162
  140.7773  143.5025  150.9753 LP  0  0  0  0  0  0  0  0  0  0  0  0  # atno 17343 bound_to 10162
  156.0384  130.3745  150.1500 LP  0  0  0  0  0  0  0  0  0  0  0  0  # atno 17370 bound_to 10713
  156.9687  130.9828  151.3463 LP  0  0  0  0  0  0  0  0  0  0  0  0  # atno 17371 bound_to 10713
  140.8312  134.3176  157.5348 LP  0  0  0  0  0  0  0  0  0  0  0  0  # atno 17394 bound_to 11000
  139.8733  134.9364  156.3660 LP  0  0  0  0  0  0  0  0  0  0  0  0  # atno 17395 bound_to 11000

$$$$
