AV-unprocessed.smi:571|AV-procd|sdf|2963|dock8
  -GOLD-   2262023463D 1   1.00000     0.00000
 Structure written by MMmdl.
 44 45  0  0  0  0  0  0  0  0  2 V2000
  148.4793  135.6748  157.1886 C   0  0  0  0  0  0  0  0  0  0  0  0
  148.1811  135.6518  155.6805 C   0  0  2  0  0  0  0  0  0  0  0  0
  148.1642  134.2118  155.1046 C   0  0  0  0  0  0  0  0  0  0  0  0
  147.3053  134.0702  153.9000 N   0  3  0  0  0  0  0  0  0  0  0  0
  147.2767  132.6820  153.3733 C   0  0  0  0  0  0  0  0  0  0  0  0
  146.5294  132.6204  152.0307 C   0  0  0  0  0  0  0  0  0  0  0  0
  145.1083  133.1828  152.1675 C   0  0  0  0  0  0  0  0  0  0  0  0
  145.1589  134.6007  152.7521 C   0  0  0  0  0  0  0  0  0  0  0  0
  145.9375  134.6239  154.0783 C   0  0  0  0  0  0  0  0  0  0  0  0
  149.0661  136.5629  154.9465 N   0  0  0  0  0  0  0  0  0  0  0  0
  150.4089  136.5939  154.9861 C   0  0  0  0  0  0  0  0  0  0  0  0
  151.0810  135.8588  155.7097 O   0  0  0  0  0  0  0  0  0  0  0  0
  151.0857  137.6048  154.0517 C   0  0  0  0  0  0  0  0  0  0  0  0
  150.7377  138.9948  154.3868 N   0  0  0  0  0  0  0  0  0  0  0  0
  149.5489  139.5005  153.8227 C   0  0  0  0  0  0  0  0  0  0  0  0
  149.1375  140.7590  154.0430 C   0  0  0  0  0  0  0  0  0  0  0  0
  149.9495  141.6039  154.8865 C   0  0  0  0  0  0  0  0  0  0  0  0
  151.0907  141.1319  155.4267 C   0  0  0  0  0  0  0  0  0  0  0  0
  151.5481  139.7589  155.1828 C   0  0  0  0  0  0  0  0  0  0  0  0
  152.5962  139.3250  155.6610 O   0  0  0  0  0  0  0  0  0  0  0  0
  147.7514  135.0780  157.7387 H   0  0  0  0  0  0  0  0  0  0  0  0
  148.4360  136.6908  157.5824 H   0  0  0  0  0  0  0  0  0  0  0  0
  149.4686  135.2741  157.4113 H   0  0  0  0  0  0  0  0  0  0  0  0
  147.1815  136.0672  155.5526 H   0  0  0  0  0  0  0  0  0  0  0  0
  149.1862  133.9393  154.8370 H   0  0  0  0  0  0  0  0  0  0  0  0
  147.8575  133.4952  155.8681 H   0  0  0  0  0  0  0  0  0  0  0  0
  148.2955  132.3207  153.2284 H   0  0  0  0  0  0  0  0  0  0  0  0
  146.8048  132.0226  154.1035 H   0  0  0  0  0  0  0  0  0  0  0  0
  147.0793  133.1902  151.2801 H   0  0  0  0  0  0  0  0  0  0  0  0
  146.4913  131.5917  151.6710 H   0  0  0  0  0  0  0  0  0  0  0  0
  144.6097  133.1914  151.1976 H   0  0  0  0  0  0  0  0  0  0  0  0
  144.5169  132.5367  152.8176 H   0  0  0  0  0  0  0  0  0  0  0  0
  145.6340  135.2744  152.0373 H   0  0  0  0  0  0  0  0  0  0  0  0
  144.1470  134.9770  152.9065 H   0  0  0  0  0  0  0  0  0  0  0  0
  145.4058  134.0499  154.8387 H   0  0  0  0  0  0  0  0  0  0  0  0
  145.9914  135.6512  154.4375 H   0  0  0  0  0  0  0  0  0  0  0  0
  148.6105  137.2241  154.3334 H   0  0  0  0  0  0  0  0  0  0  0  0
  152.1690  137.4820  154.1026 H   0  0  0  0  0  0  0  0  0  0  0  0
  150.8202  137.3597  153.0223 H   0  0  0  0  0  0  0  0  0  0  0  0
  149.0043  138.8051  153.2002 H   0  0  0  0  0  0  0  0  0  0  0  0
  148.2254  141.1306  153.5996 H   0  0  0  0  0  0  0  0  0  0  0  0
  149.6405  142.6195  155.0856 H   0  0  0  0  0  0  0  0  0  0  0  0
  151.6854  141.7789  156.0549 H   0  0  0  0  0  0  0  0  0  0  0  0
  147.7502  134.6243  153.1823 H   0  0  0  0  0  0  0  0  0  0  0  0
  1  2  1  0  0  0  0
  1 21  1  0  0  0  0
  1 22  1  0  0  0  0
  1 23  1  0  0  0  0
  2  3  1  0  0  0  0
  2 10  1  0  0  0  0
  2 24  1  0  0  0  0
  3  4  1  0  0  0  0
  3 25  1  0  0  0  0
  3 26  1  0  0  0  0
  4  9  1  0  0  0  0
  4  5  1  0  0  0  0
  4 44  1  0  0  0  0
  5  6  1  0  0  0  0
  5 27  1  0  0  0  0
  5 28  1  0  0  0  0
  6  7  1  0  0  0  0
  6 29  1  0  0  0  0
  6 30  1  0  0  0  0
  7  8  1  0  0  0  0
  7 31  1  0  0  0  0
  7 32  1  0  0  0  0
  8  9  1  0  0  0  0
  8 33  1  0  0  0  0
  8 34  1  0  0  0  0
  9 35  1  0  0  0  0
  9 36  1  0  0  0  0
 10 11  1  0  0  0  0
 10 37  1  0  0  0  0
 11 12  2  0  0  0  0
 11 13  1  0  0  0  0
 13 14  1  0  0  0  0
 13 38  1  0  0  0  0
 13 39  1  0  0  0  0
 14 19  1  0  0  0  0
 14 15  1  0  0  0  0
 15 16  2  0  0  0  0
 15 40  1  0  0  0  0
 16 17  1  0  0  0  0
 16 41  1  0  0  0  0
 17 18  2  0  0  0  0
 17 42  1  0  0  0  0
 18 19  1  0  0  0  0
 18 43  1  0  0  0  0
 19 20  2  0  0  0  0
M  CHG  1   4   1
M  END
> <s_m_source_file>
AV-unprocessed.smi

> <i_m_source_file_index>
571

> <i_lp_mmshare_version>
43012

> <i_f3d_flags>
0

> <s_epik_input>
W0NIMl0xW0NIMl1bQ0gyXVtDSDJdW0NIMl1OMVtDSDJdW0NAQEhdKFtDSDNdKVtOSF1DKD1PKVtDSDJdbjJbY0hdW2NIXVtjSF1bY0hdYzI9Tw==

> <s_epik_cmdline>
J2VwaWtfcHl0aG9uJywgJy1waCcsICc3LjAnLCAnLXRuJywgJzgnLCAnLW1hJywgJzIwMCcsICctbWV0YWxfYmluZGluZycsICctaW1hZScsICc8aW5maWxlLm1hZT4nLCAnLW9tYWUnLCAnPG91dGZpbGUubWFlPic=

> <r_lp_tautomer_probability>
1

> <r_epik_Ionization_Penalty>
0.00237248

> <r_epik_Ionization_Penalty_Charging>
0.0023724

> <r_epik_Ionization_Penalty_Neutral>
8.2065e-08

> <r_epik_State_Penalty>
0.00163922

> <r_epik_Charging_Adjusted_Penalty>
0.00401161

> <i_epik_Tot_Q>
1

> <i_epik_Tot_abs_Q>
1

> <r_epik_Metal_State_Penalty>
-0

> <b_epik_Metal_Only>
0

> <s_lp_Force_Field>
OPLS_2005

> <r_lp_Energy>
32.5109

> <b_lp_Chiralities_Consistent>
1

> <s_lp_Variant>
AV-unprocessed.smi:571-1

> <Gold.Version>
5.8.1

> <Gold.Id.Protein>
6NUR|6NUR_protein|mol2

> <Gold.PLP.Fitness>
50.2478

> <Gold.PLP.PLP>
-37.5565

> <Gold.PLP.part.hbond>
-4.0000

> <Gold.PLP.part.metal>
0.0000

> <Gold.PLP.part.buried>
-1.6833

> <Gold.PLP.part.nonpolar>
-31.6109

> <Gold.PLP.part.repulsive>
0.1083

> <Gold.PLP.ligand.clash>
0.0000

> <Gold.PLP.ligand.torsion>
0.7396

> <Gold.PLP.Chemscore.Hbond>
4.0000

> <Gold.PLP.Chemscore.CHOScore>
0.6759

> <Gold.PLP.Chemscore.Metal>
0.0000

> <Gold.Chemscore.Hbonds>
donor molecule, donor type, donor heavy atom, donor atom, acceptor molecule, acceptor atom, score
      L1  H     4    44       P1  7948  0.29
      P1  H  7997  8009       L1    20  1.00
      P1  H 10752 10765       L1    12  0.71
      L1  C    15    40       P1  7948  0.15
      L1  C    15    40       P1  7957  0.25

> <Gold.PLP.Chemscore.Internal.Correction>
0.1430

> <Gold.Rescore>
     Score         DG    S(hbond)    S(metal)    S(lipo)     H(rot)  DE(clash)    DE(int)     intcor
     16.32     -19.09       2.88        0.00      74.43       1.84       0.33       2.45       ----

> <Gold.Chemscore.Fitness>
16.3208

> <Gold.Chemscore.DG>
-19.0941

> <Gold.Chemscore.ZeroCoef>
-5.4800

> <Gold.Chemscore.Hbond>
2.8799

> <Gold.Chemscore.Metal>
0.0000

> <Gold.Chemscore.Lipo>
74.4345

> <Gold.Chemscore.Internal_Hbond>
0.0000

> <Gold.Chemscore.DEClash>
0.3261

> <Gold.Chemscore.DEInternal>
2.4472

> <Gold.Chemscore.Rot>
1.8413

> <Gold.Chemscore.Internal.Correction>
   9.000000E+99

> <Gold.Chemscore.Hbonds>
donor molecule, donor type, donor heavy atom, donor atom, acceptor molecule, acceptor atom, score
      L1  H     4    44       P1  7948  0.15
      P1  H  7997  8009       L1    20  0.94
      P1  H 10752 10765       L1    12  0.58

> <Gold.Chemscore.Hbond.Weighted>
-9.6189

> <Gold.Chemscore.Metal.Weighted>
-0.0000

> <Gold.Chemscore.Lipo.Weighted>
-8.7088

> <Gold.Chemscore.Internal_Hbond.Weighted>
0.0000

> <Gold.Chemscore.DEClash.Weighted>
0.3261

> <Gold.Chemscore.DEInternal.Weighted>
2.4472

> <Gold.Chemscore.Rot.Weighted>
4.7137

> <Gold.Chemscore.Internal.Correction.Weighted>
   9.000000E+99

> <Gold.Protein.RotatedTorsions>
[ 6907 6896 6895 6894 ] final  153.07 input  -60.11 | X-H torsion
[ 7974 7965 7964 7962 ] final -103.79 input  175.53 | X-H torsion
[ 8008 7997 7996 7995 ] final -161.66 input   59.86 | X-H torsion
[ 10167 10162 10161 10158 ] final   95.25 input  -65.29 | X-H torsion
[ 10718 10713 10712 10709 ] final -131.66 input   66.30 | X-H torsion
[ 10763 10752 10751 10750 ] final -160.26 input  -60.55 | X-H torsion
[ 11005 11000 10999 10996 ] final   89.92 input  -57.11 | X-H torsion

> <Gold.Protein.ActiveResidues>
 VAL166  LYS551  ARG553  GLY616  TRP617  ASP618  TYR619  PRO620  LYS621  CYS622 
 ASP623  PHE694  ASN695  SER759  ASP760  ASP761  ALA762  ILE779  LEU786  VAL792 
 PHE793  MET794  SER795  GLU796  ALA797  LYS798  CYS799  TRP800  GLU811  SER814 

> <Gold.Protein.RotatedAtoms>
  152.0779  133.4138  159.4487 H   0  0  0  0  0  0  0  0  0  0  0  0  # atno 6907 bound_to 6896
  150.6862  134.3016  159.4718 H   0  0  0  0  0  0  0  0  0  0  0  0  # atno 6908 bound_to 6896
  152.0855  134.9442  160.0623 H   0  0  0  0  0  0  0  0  0  0  0  0  # atno 6909 bound_to 6896
  145.2514  140.9239  143.3093 H   0  0  0  0  0  0  0  0  0  0  0  0  # atno 7974 bound_to 7965
  155.7955  140.0884  157.1986 H   0  0  0  0  0  0  0  0  0  0  0  0  # atno 8008 bound_to 7997
  154.3984  140.1482  156.3271 H   0  0  0  0  0  0  0  0  0  0  0  0  # atno 8009 bound_to 7997
  155.8516  140.3434  155.5699 H   0  0  0  0  0  0  0  0  0  0  0  0  # atno 8010 bound_to 7997
  139.8006  144.6815  150.9769 H   0  0  0  0  0  0  0  0  0  0  0  0  # atno 10167 bound_to 10162
  156.2267  130.7012  151.0814 H   0  0  0  0  0  0  0  0  0  0  0  0  # atno 10718 bound_to 10713
  154.7405  135.3067  154.8736 H   0  0  0  0  0  0  0  0  0  0  0  0  # atno 10763 bound_to 10752
  153.9552  135.6759  153.4748 H   0  0  0  0  0  0  0  0  0  0  0  0  # atno 10764 bound_to 10752
  153.1004  135.4914  154.8781 H   0  0  0  0  0  0  0  0  0  0  0  0  # atno 10765 bound_to 10752
  139.8866  134.8581  156.3210 H   0  0  0  0  0  0  0  0  0  0  0  0  # atno 11005 bound_to 11000
  144.9499  139.4094  143.6407 LP  0  0  0  0  0  0  0  0  0  0  0  0  # atno 17320 bound_to 7965
  146.3301  139.8501  142.8874 LP  0  0  0  0  0  0  0  0  0  0  0  0  # atno 17321 bound_to 7965
  140.7820  143.4285  151.0731 LP  0  0  0  0  0  0  0  0  0  0  0  0  # atno 17342 bound_to 10162
  139.7957  143.8155  152.3157 LP  0  0  0  0  0  0  0  0  0  0  0  0  # atno 17343 bound_to 10162
  157.7114  131.0732  150.6488 LP  0  0  0  0  0  0  0  0  0  0  0  0  # atno 17370 bound_to 10713
  156.6554  130.4497  149.5705 LP  0  0  0  0  0  0  0  0  0  0  0  0  # atno 17371 bound_to 10713
  140.9787  133.7281  156.0639 LP  0  0  0  0  0  0  0  0  0  0  0  0  # atno 17394 bound_to 11000
  140.7778  134.3760  157.5494 LP  0  0  0  0  0  0  0  0  0  0  0  0  # atno 17395 bound_to 11000

$$$$
