AV-unprocessed.smi:704|AV-procd|sdf|3443|dock7
  -GOLD-   22720 0433D 1   1.00000     0.00000
 Structure written by MMmdl.
 38 39  0  0  0  0  0  0  0  0  1 V2000
  151.5723  138.2317  154.6027 C   0  0  0  0  0  0  0  0  0  0  0  0
  150.2305  138.1967  154.1289 O   0  0  0  0  0  0  0  0  0  0  0  0
  149.4921  139.3646  154.1526 C   0  0  0  0  0  0  0  0  0  0  0  0
  150.0585  140.4755  154.6878 N   0  0  0  0  0  0  0  0  0  0  0  0
  149.3412  141.6177  154.7065 C   0  0  0  0  0  0  0  0  0  0  0  0
  148.0354  141.7158  154.1921 C   0  0  0  0  0  0  0  0  0  0  0  0
  147.4452  140.5651  153.6380 C   0  0  0  0  0  0  0  0  0  0  0  0
  148.1799  139.3549  153.6249 C   0  0  0  0  0  0  0  0  0  0  0  0
  147.6834  138.1439  153.0700 N   0  0  0  0  0  0  0  0  0  0  0  0
  146.4050  137.7841  152.8679 C   0  0  0  0  0  0  0  0  0  0  0  0
  145.4194  138.4596  153.1643 O   0  0  0  0  0  0  0  0  0  0  0  0
  146.3265  136.5623  152.3230 N   0  0  0  0  0  0  0  0  0  0  0  0
  145.0796  135.8617  152.0109 C   0  0  1  0  0  0  0  0  0  0  0  0
  145.0416  135.4242  150.5343 C   0  0  0  0  0  0  0  0  0  0  0  0
  144.4681  134.0019  150.5056 C   0  0  0  0  0  0  0  0  0  0  0  0
  143.9526  133.7285  151.9212 C   0  0  0  0  0  0  0  0  0  0  0  0
  144.8207  134.5848  152.8554 C   0  0  1  0  0  0  0  0  0  0  0  0
  146.0876  133.8165  153.2911 C   0  0  0  0  0  0  0  0  0  0  0  0
  147.2615  134.3131  152.8929 N   0  0  0  0  0  0  0  0  0  0  0  0
  146.0114  132.7919  153.9672 O   0  0  0  0  0  0  0  0  0  0  0  0
  152.0102  137.2370  154.5198 H   0  0  0  0  0  0  0  0  0  0  0  0
  151.6172  138.5258  155.6523 H   0  0  0  0  0  0  0  0  0  0  0  0
  152.1867  138.9133  154.0127 H   0  0  0  0  0  0  0  0  0  0  0  0
  149.8253  142.4811  155.1382 H   0  0  0  0  0  0  0  0  0  0  0  0
  147.5006  142.6536  154.2172 H   0  0  0  0  0  0  0  0  0  0  0  0
  146.4519  140.6356  153.2222 H   0  0  0  0  0  0  0  0  0  0  0  0
  148.3812  137.4418  152.8707 H   0  0  0  0  0  0  0  0  0  0  0  0
  147.1861  136.0723  152.1222 H   0  0  0  0  0  0  0  0  0  0  0  0
  144.2454  136.5474  152.1728 H   0  0  0  0  0  0  0  0  0  0  0  0
  144.4231  136.1081  149.9520 H   0  0  0  0  0  0  0  0  0  0  0  0
  146.0349  135.4290  150.0830 H   0  0  0  0  0  0  0  0  0  0  0  0
  143.6826  133.8887  149.7579 H   0  0  0  0  0  0  0  0  0  0  0  0
  145.2578  133.2924  150.2549 H   0  0  0  0  0  0  0  0  0  0  0  0
  142.9143  134.0535  151.9994 H   0  0  0  0  0  0  0  0  0  0  0  0
  143.9728  132.6652  152.1652 H   0  0  0  0  0  0  0  0  0  0  0  0
  144.2553  134.8455  153.7519 H   0  0  0  0  0  0  0  0  0  0  0  0
  148.1201  133.8504  153.1545 H   0  0  0  0  0  0  0  0  0  0  0  0
  147.2862  135.1535  152.3339 H   0  0  0  0  0  0  0  0  0  0  0  0
  1  2  1  0  0  0  0
  1 21  1  0  0  0  0
  1 22  1  0  0  0  0
  1 23  1  0  0  0  0
  2  3  1  0  0  0  0
  3  8  1  0  0  0  0
  3  4  2  0  0  0  0
  4  5  1  0  0  0  0
  5  6  2  0  0  0  0
  5 24  1  0  0  0  0
  6  7  1  0  0  0  0
  6 25  1  0  0  0  0
  7  8  2  0  0  0  0
  7 26  1  0  0  0  0
  8  9  1  0  0  0  0
  9 10  1  0  0  0  0
  9 27  1  0  0  0  0
 10 11  2  0  0  0  0
 10 12  1  0  0  0  0
 12 13  1  0  0  0  0
 12 28  1  0  0  0  0
 13 17  1  0  0  0  0
 13 14  1  0  0  0  0
 13 29  1  0  0  0  0
 14 15  1  0  0  0  0
 14 30  1  0  0  0  0
 14 31  1  0  0  0  0
 15 16  1  0  0  0  0
 15 32  1  0  0  0  0
 15 33  1  0  0  0  0
 16 17  1  0  0  0  0
 16 34  1  0  0  0  0
 16 35  1  0  0  0  0
 17 18  1  0  0  0  0
 17 36  1  0  0  0  0
 18 19  1  0  0  0  0
 18 20  2  0  0  0  0
 19 37  1  0  0  0  0
 19 38  1  0  0  0  0
M  END
> <s_m_source_file>
AV-unprocessed.smi

> <i_m_source_file_index>
704

> <i_lp_mmshare_version>
43012

> <i_f3d_flags>
0

> <s_epik_input>
W0NIM11PYzFuW2NIXVtjSF1bY0hdYzFbTkhdQyg9TylbTkhdW0NAQEhdMltDSDJdW0NIMl1bQ0gyXVtDQEhdMkMoPU8pW05IMl0=

> <s_epik_cmdline>
J2VwaWtfcHl0aG9uJywgJy1waCcsICc3LjAnLCAnLXRuJywgJzgnLCAnLW1hJywgJzIwMCcsICctbWV0YWxfYmluZGluZycsICctaW1hZScsICc8aW5maWxlLm1hZT4nLCAnLW9tYWUnLCAnPG91dGZpbGUubWFlPic=

> <r_lp_tautomer_probability>
1

> <r_epik_Ionization_Penalty>
9.09123e-05

> <r_epik_Ionization_Penalty_Charging>
0

> <r_epik_Ionization_Penalty_Neutral>
9.09123e-05

> <r_epik_State_Penalty>
-0

> <r_epik_Charging_Adjusted_Penalty>
0

> <i_epik_Tot_Q>
0

> <i_epik_Tot_abs_Q>
0

> <r_epik_Metal_State_Penalty>
-0

> <b_epik_Metal_Only>
0

> <s_lp_Force_Field>
OPLS_2005

> <r_lp_Energy>
16.4561

> <b_lp_Chiralities_Consistent>
1

> <s_lp_Variant>
AV-unprocessed.smi:704-2

> <Gold.Version>
5.8.1

> <Gold.Id.Protein>
6NUR|6NUR_protein|mol2

> <Gold.PLP.Fitness>
42.8290

> <Gold.PLP.PLP>
-30.0833

> <Gold.PLP.part.hbond>
-4.2149

> <Gold.PLP.part.metal>
0.0000

> <Gold.PLP.part.buried>
-0.2840

> <Gold.PLP.part.nonpolar>
-28.1262

> <Gold.PLP.part.repulsive>
3.1893

> <Gold.PLP.ligand.clash>
0.0000

> <Gold.PLP.ligand.torsion>
0.1649

> <Gold.PLP.Chemscore.Hbond>
3.3680

> <Gold.PLP.Chemscore.CHOScore>
0.9829

> <Gold.PLP.Chemscore.Metal>
0.0000

> <Gold.Chemscore.Hbonds>
donor molecule, donor type, donor heavy atom, donor atom, acceptor molecule, acceptor atom, score
      L1  H     9    27       P1  7948  0.98
      L1  H    12    28       P1  7948  0.93
      L1  H    19    38       P1  7948  0.51
      P1  H  7989  7998       L1     4  0.93
      L1  C     5    24       P1  8028  0.99

> <Gold.PLP.Chemscore.Internal.Correction>
0.0228

> <Gold.Rescore>
     Score         DG    S(hbond)    S(metal)    S(lipo)     H(rot)  DE(clash)    DE(int)     intcor
     11.86     -16.56       2.59        0.00      61.66       1.86       1.52       3.18       ----

> <Gold.Chemscore.Fitness>
11.8600

> <Gold.Chemscore.DG>
-16.5618

> <Gold.Chemscore.ZeroCoef>
-5.4800

> <Gold.Chemscore.Hbond>
2.5873

> <Gold.Chemscore.Metal>
0.0000

> <Gold.Chemscore.Lipo>
61.6585

> <Gold.Chemscore.Internal_Hbond>
0.0000

> <Gold.Chemscore.DEClash>
1.5188

> <Gold.Chemscore.DEInternal>
3.1830

> <Gold.Chemscore.Rot>
1.8648

> <Gold.Chemscore.Internal.Correction>
   9.000000E+99

> <Gold.Chemscore.Hbonds>
donor molecule, donor type, donor heavy atom, donor atom, acceptor molecule, acceptor atom, score
      L1  H     9    27       P1  7948  0.93
      L1  H    12    28       P1  7948  0.90
      L1  H    19    38       P1  7948  0.49
      P1  H  7989  7998       L1     4  0.19

> <Gold.Chemscore.Hbond.Weighted>
-8.6416

> <Gold.Chemscore.Metal.Weighted>
-0.0000

> <Gold.Chemscore.Lipo.Weighted>
-7.2140

> <Gold.Chemscore.Internal_Hbond.Weighted>
0.0000

> <Gold.Chemscore.DEClash.Weighted>
1.5188

> <Gold.Chemscore.DEInternal.Weighted>
3.1830

> <Gold.Chemscore.Rot.Weighted>
4.7739

> <Gold.Chemscore.Internal.Correction.Weighted>
   9.000000E+99

> <Gold.Protein.RotatedTorsions>
[ 6907 6896 6895 6894 ] final -122.96 input  -60.11 | X-H torsion
[ 7974 7965 7964 7962 ] final  -92.54 input  175.53 | X-H torsion
[ 8008 7997 7996 7995 ] final  108.03 input   59.86 | X-H torsion
[ 10167 10162 10161 10158 ] final  167.18 input  -65.29 | X-H torsion
[ 10718 10713 10712 10709 ] final  -58.42 input   66.30 | X-H torsion
[ 10763 10752 10751 10750 ] final   64.92 input  -60.55 | X-H torsion
[ 11005 11000 10999 10996 ] final  -79.44 input  -57.11 | X-H torsion

> <Gold.Protein.ActiveResidues>
 VAL166  LYS551  ARG553  GLY616  TRP617  ASP618  TYR619  PRO620  LYS621  CYS622 
 ASP623  PHE694  ASN695  SER759  ASP760  ASP761  ALA762  ILE779  LEU786  VAL792 
 PHE793  MET794  SER795  GLU796  ALA797  LYS798  CYS799  TRP800  GLU811  SER814 

> <Gold.Protein.RotatedAtoms>
  150.8625  133.7622  159.2987 H   0  0  0  0  0  0  0  0  0  0  0  0  # atno 6907 bound_to 6896
  151.5260  135.1066  159.9900 H   0  0  0  0  0  0  0  0  0  0  0  0  # atno 6908 bound_to 6896
  152.4637  133.7832  159.6918 H   0  0  0  0  0  0  0  0  0  0  0  0  # atno 6909 bound_to 6896
  145.3985  140.9535  143.2301 H   0  0  0  0  0  0  0  0  0  0  0  0  # atno 7974 bound_to 7965
  156.1871  140.3084  155.9259 H   0  0  0  0  0  0  0  0  0  0  0  0  # atno 8008 bound_to 7997
  155.3257  140.0458  157.3058 H   0  0  0  0  0  0  0  0  0  0  0  0  # atno 8009 bound_to 7997
  154.5408  140.2261  155.8653 H   0  0  0  0  0  0  0  0  0  0  0  0  # atno 8010 bound_to 7997
  139.4940  144.3949  151.9476 H   0  0  0  0  0  0  0  0  0  0  0  0  # atno 10167 bound_to 10162
  156.1137  130.4172  150.0574 H   0  0  0  0  0  0  0  0  0  0  0  0  # atno 10718 bound_to 10713
  153.0075  135.5375  154.6586 H   0  0  0  0  0  0  0  0  0  0  0  0  # atno 10763 bound_to 10752
  154.5800  135.2849  155.0744 H   0  0  0  0  0  0  0  0  0  0  0  0  # atno 10764 bound_to 10752
  154.1877  135.6505  153.5104 H   0  0  0  0  0  0  0  0  0  0  0  0  # atno 10765 bound_to 10752
  141.1667  133.7106  156.8123 H   0  0  0  0  0  0  0  0  0  0  0  0  # atno 11005 bound_to 11000
  144.8391  139.5502  143.6909 LP  0  0  0  0  0  0  0  0  0  0  0  0  # atno 17320 bound_to 7965
  146.2763  139.6762  142.9260 LP  0  0  0  0  0  0  0  0  0  0  0  0  # atno 17321 bound_to 7965
  140.3387  144.3230  150.5972 LP  0  0  0  0  0  0  0  0  0  0  0  0  # atno 17342 bound_to 10162
  140.5584  143.2195  151.7807 LP  0  0  0  0  0  0  0  0  0  0  0  0  # atno 17343 bound_to 10162
  156.8531  130.9466  151.3624 LP  0  0  0  0  0  0  0  0  0  0  0  0  # atno 17370 bound_to 10713
  157.6319  130.8736  149.9289 LP  0  0  0  0  0  0  0  0  0  0  0  0  # atno 17371 bound_to 10713
  140.2179  134.8779  157.3345 LP  0  0  0  0  0  0  0  0  0  0  0  0  # atno 17394 bound_to 11000
  140.2019  134.4245  155.7658 LP  0  0  0  0  0  0  0  0  0  0  0  0  # atno 17395 bound_to 11000

$$$$
