AV-unprocessed.smi:194|AV-procd|sdf|1520|dock1
  -GOLD-   2262019363D 1   1.00000     0.00000
 Structure written by MMmdl.
 53 55  0  0  0  0  0  0  0  0  1 V2000
  149.3941  133.9112  154.1679 C   0  0  0  0  0  0  0  0  0  0  0  0
  150.4436  134.9463  154.6041 C   0  0  2  0  0  0  0  0  0  0  0  0
  151.4413  134.3478  155.6163 C   0  0  0  0  0  0  0  0  0  0  0  0
  150.7916  132.7142  156.2145 S   0  0  1  0  0  0  0  0  0  0  0  0
  152.4105  131.8124  156.1762 C   0  0  0  0  0  0  0  0  0  0  0  0
  150.4214  132.8990  157.6874 O   0  0  0  0  0  0  0  0  0  0  0  0
  149.7949  136.1665  155.1053 N   0  0  0  0  0  0  0  0  0  0  0  0
  148.3527  136.2108  155.3272 C   0  0  0  0  0  0  0  0  0  0  0  0
  150.4821  137.3393  155.0726 C   0  0  0  0  0  0  0  0  0  0  0  0
  151.7128  137.3456  154.4967 N   0  0  0  0  0  0  0  0  0  0  0  0
  152.4365  138.4665  154.4495 C   0  0  0  0  0  0  0  0  0  0  0  0
  152.1262  139.6782  154.9112 N   0  0  0  0  0  0  0  0  0  0  0  0
  150.8931  139.6852  155.4932 C   0  0  0  0  0  0  0  0  0  0  0  0
  150.0097  138.5730  155.6126 C   0  0  0  0  0  0  0  0  0  0  0  0
  148.8352  138.9772  156.2383 N   0  0  0  0  0  0  0  0  0  0  0  0
  149.0165  140.2462  156.4782 C   0  0  0  0  0  0  0  0  0  0  0  0
  150.2337  140.7511  156.0822 N   0  0  0  0  0  0  0  0  0  0  0  0
  150.6885  142.1270  156.2227 C   0  0  0  0  0  0  0  0  0  0  0  0
  151.0683  142.5739  157.6674 C   0  0  0  0  0  0  0  0  0  0  0  0
  149.8261  142.5418  158.6081 C   0  0  0  0  0  0  0  0  0  0  0  0
  148.6389  143.0154  158.0043 O   0  0  0  0  0  0  0  0  0  0  0  0
  152.2362  141.7208  158.2259 C   0  0  0  0  0  0  0  0  0  0  0  0
  152.8563  142.3256  159.4969 C   0  0  0  0  0  0  0  0  0  0  0  0
  153.3245  143.6397  159.2238 O   0  0  0  0  0  0  0  0  0  0  0  0
  152.2817  144.5292  158.8477 C   0  0  0  0  0  0  0  0  0  0  0  0
  151.5922  144.0294  157.5627 C   0  0  0  0  0  0  0  0  0  0  0  0
  149.8682  133.0413  153.7128 H   0  0  0  0  0  0  0  0  0  0  0  0
  148.7099  134.3338  153.4314 H   0  0  0  0  0  0  0  0  0  0  0  0
  148.8003  133.5590  155.0120 H   0  0  0  0  0  0  0  0  0  0  0  0
  151.0144  135.1794  153.7051 H   0  0  0  0  0  0  0  0  0  0  0  0
  152.4345  134.2202  155.1870 H   0  0  0  0  0  0  0  0  0  0  0  0
  151.5465  135.0099  156.4762 H   0  0  0  0  0  0  0  0  0  0  0  0
  152.8285  131.8218  155.1696 H   0  0  0  0  0  0  0  0  0  0  0  0
  152.2698  130.7763  156.4836 H   0  0  0  0  0  0  0  0  0  0  0  0
  153.1231  132.2812  156.8550 H   0  0  0  0  0  0  0  0  0  0  0  0
  148.0924  136.9871  156.0477 H   0  0  0  0  0  0  0  0  0  0  0  0
  147.9818  135.2651  155.7194 H   0  0  0  0  0  0  0  0  0  0  0  0
  147.8274  136.4137  154.3936 H   0  0  0  0  0  0  0  0  0  0  0  0
  153.4032  138.3785  153.9757 H   0  0  0  0  0  0  0  0  0  0  0  0
  148.2658  140.8518  156.9646 H   0  0  0  0  0  0  0  0  0  0  0  0
  151.5404  142.2574  155.5538 H   0  0  0  0  0  0  0  0  0  0  0  0
  149.9056  142.7773  155.8295 H   0  0  0  0  0  0  0  0  0  0  0  0
  149.6105  141.5316  158.9505 H   0  0  0  0  0  0  0  0  0  0  0  0
  150.0172  143.1300  159.5060 H   0  0  0  0  0  0  0  0  0  0  0  0
  148.6513  143.9603  158.0169 H   0  0  0  0  0  0  0  0  0  0  0  0
  151.9193  140.6971  158.4244 H   0  0  0  0  0  0  0  0  0  0  0  0
  153.0207  141.6480  157.4718 H   0  0  0  0  0  0  0  0  0  0  0  0
  152.1438  142.3385  160.3225 H   0  0  0  0  0  0  0  0  0  0  0  0
  153.7010  141.7179  159.8212 H   0  0  0  0  0  0  0  0  0  0  0  0
  151.5762  144.6485  159.6699 H   0  0  0  0  0  0  0  0  0  0  0  0
  152.7152  145.5139  158.6725 H   0  0  0  0  0  0  0  0  0  0  0  0
  152.3197  144.0963  156.7522 H   0  0  0  0  0  0  0  0  0  0  0  0
  150.7807  144.7065  157.2925 H   0  0  0  0  0  0  0  0  0  0  0  0
  1  2  1  0  0  0  0
  1 27  1  0  0  0  0
  1 28  1  0  0  0  0
  1 29  1  0  0  0  0
  2  3  1  0  0  0  0
  2  7  1  0  0  0  0
  2 30  1  0  0  0  0
  3  4  1  0  0  0  0
  3 31  1  0  0  0  0
  3 32  1  0  0  0  0
  4  5  1  0  0  0  0
  4  6  2  0  0  0  0
  5 33  1  0  0  0  0
  5 34  1  0  0  0  0
  5 35  1  0  0  0  0
  7  8  1  0  0  0  0
  7  9  1  0  0  0  0
  8 36  1  0  0  0  0
  8 37  1  0  0  0  0
  8 38  1  0  0  0  0
  9 14  1  0  0  0  0
  9 10  2  0  0  0  0
 10 11  1  0  0  0  0
 11 12  2  0  0  0  0
 11 39  1  0  0  0  0
 12 13  1  0  0  0  0
 13 17  1  0  0  0  0
 13 14  2  0  0  0  0
 14 15  1  0  0  0  0
 15 16  2  0  0  0  0
 16 17  1  0  0  0  0
 16 40  1  0  0  0  0
 17 18  1  0  0  0  0
 18 19  1  0  0  0  0
 18 41  1  0  0  0  0
 18 42  1  0  0  0  0
 19 26  1  0  0  0  0
 19 20  1  0  0  0  0
 19 22  1  0  0  0  0
 20 21  1  0  0  0  0
 20 43  1  0  0  0  0
 20 44  1  0  0  0  0
 21 45  1  0  0  0  0
 22 23  1  0  0  0  0
 22 46  1  0  0  0  0
 22 47  1  0  0  0  0
 23 24  1  0  0  0  0
 23 48  1  0  0  0  0
 23 49  1  0  0  0  0
 24 25  1  0  0  0  0
 25 26  1  0  0  0  0
 25 50  1  0  0  0  0
 25 51  1  0  0  0  0
 26 52  1  0  0  0  0
 26 53  1  0  0  0  0
M  END
> <s_m_source_file>
AV-unprocessed.smi

> <i_m_source_file_index>
194

> <i_lp_mmshare_version>
43012

> <i_f3d_flags>
0

> <s_epik_input>
W0NIM11bU0BAXSg9TylbQ0gyXVtDQEBIXShbQ0gzXSlOKFtDSDNdKWMobltjSF1uMSljKGMxMiluW2NIXW4yW0NIMl1DMyhbQ0gyXVtPSF0pW0NIMl1bQ0gyXU9bQ0gyXVtDSDJdMw==

> <s_epik_cmdline>
J2VwaWtfcHl0aG9uJywgJy1waCcsICc3LjAnLCAnLXRuJywgJzgnLCAnLW1hJywgJzIwMCcsICctbWV0YWxfYmluZGluZycsICctaW1hZScsICc8aW5maWxlLm1hZT4nLCAnLW9tYWUnLCAnPG91dGZpbGUubWFlPic=

> <r_lp_tautomer_probability>
1

> <r_epik_Ionization_Penalty>
0.00101625

> <r_epik_Ionization_Penalty_Charging>
0

> <r_epik_Ionization_Penalty_Neutral>
0.00101625

> <r_epik_State_Penalty>
0.000568005

> <r_epik_Charging_Adjusted_Penalty>
0.000568005

> <i_epik_Tot_Q>
0

> <i_epik_Tot_abs_Q>
0

> <r_epik_Metal_State_Penalty>
-0

> <b_epik_Metal_Only>
0

> <s_lp_Force_Field>
OPLS_2005

> <r_lp_Energy>
28.4609

> <b_lp_Chiralities_Consistent>
1

> <s_lp_Variant>
AV-unprocessed.smi:194-1

> <Gold.Version>
5.8.1

> <Gold.Id.Protein>
6NUR|6NUR_protein|mol2

> <Gold.PLP.Fitness>
51.4063

> <Gold.PLP.PLP>
-45.6148

> <Gold.PLP.part.hbond>
-4.6313

> <Gold.PLP.part.metal>
0.0000

> <Gold.PLP.part.buried>
-5.5048

> <Gold.PLP.part.nonpolar>
-36.8130

> <Gold.PLP.part.repulsive>
0.1712

> <Gold.PLP.ligand.clash>
0.0000

> <Gold.PLP.ligand.torsion>
1.6400

> <Gold.PLP.Chemscore.Hbond>
2.8285

> <Gold.PLP.Chemscore.CHOScore>
0.0000

> <Gold.PLP.Chemscore.Metal>
0.0000

> <Gold.Chemscore.Hbonds>
donor molecule, donor type, donor heavy atom, donor atom, acceptor molecule, acceptor atom, score
      L1  H    21    45       P1  8029  0.31
      P1  H  6896  6908       L1     6  1.00
      P1  H  7989  7998       L1    12  0.67
      P1  H 10752 10764       L1    10  0.81

> <Gold.PLP.Chemscore.Internal.Correction>
0.5862

> <Gold.Rescore>
     Score         DG    S(hbond)    S(metal)    S(lipo)     H(rot)  DE(clash)    DE(int)     intcor
     11.34     -14.35       1.80        0.00      90.79       3.03       0.37       2.64       ----

> <Gold.Chemscore.Fitness>
11.3421

> <Gold.Chemscore.DG>
-14.3455

> <Gold.Chemscore.ZeroCoef>
-5.4800

> <Gold.Chemscore.Hbond>
1.7959

> <Gold.Chemscore.Metal>
0.0000

> <Gold.Chemscore.Lipo>
90.7922

> <Gold.Chemscore.Internal_Hbond>
0.0000

> <Gold.Chemscore.DEClash>
0.3666

> <Gold.Chemscore.DEInternal>
2.6368

> <Gold.Chemscore.Rot>
3.0295

> <Gold.Chemscore.Internal.Correction>
   9.000000E+99

> <Gold.Chemscore.Hbonds>
donor molecule, donor type, donor heavy atom, donor atom, acceptor molecule, acceptor atom, score
      L1  H    21    45       P1  8029  0.03
      P1  H  6896  6908       L1     6  1.00
      P1  H  7989  7998       L1    12  0.08
      P1  H 10752 10764       L1    10  0.58

> <Gold.Chemscore.Hbond.Weighted>
-5.9983

> <Gold.Chemscore.Metal.Weighted>
-0.0000

> <Gold.Chemscore.Lipo.Weighted>
-10.6227

> <Gold.Chemscore.Internal_Hbond.Weighted>
0.0000

> <Gold.Chemscore.DEClash.Weighted>
0.3666

> <Gold.Chemscore.DEInternal.Weighted>
2.6368

> <Gold.Chemscore.Rot.Weighted>
7.7555

> <Gold.Chemscore.Internal.Correction.Weighted>
   9.000000E+99

> <Gold.Protein.RotatedTorsions>
[ 6907 6896 6895 6894 ] final   91.56 input  -60.11 | X-H torsion
[ 7974 7965 7964 7962 ] final  129.84 input  175.53 | X-H torsion
[ 8008 7997 7996 7995 ] final   48.99 input   59.86 | X-H torsion
[ 10167 10162 10161 10158 ] final   -0.66 input  -65.29 | X-H torsion
[ 10718 10713 10712 10709 ] final   55.13 input   66.30 | X-H torsion
[ 10763 10752 10751 10750 ] final  -65.80 input  -60.55 | X-H torsion
[ 11005 11000 10999 10996 ] final  -26.58 input  -57.11 | X-H torsion

> <Gold.Protein.ActiveResidues>
 VAL166  LYS551  ARG553  GLY616  TRP617  ASP618  TYR619  PRO620  LYS621  CYS622 
 ASP623  PHE694  ASN695  SER759  ASP760  ASP761  ALA762  ILE779  LEU786  VAL792 
 PHE793  MET794  SER795  GLU796  ALA797  LYS798  CYS799  TRP800  GLU811  SER814 

> <Gold.Protein.RotatedAtoms>
  152.5450  134.1638  159.8568 H   0  0  0  0  0  0  0  0  0  0  0  0  # atno 6907 bound_to 6896
  151.1654  133.4811  159.2601 H   0  0  0  0  0  0  0  0  0  0  0  0  # atno 6908 bound_to 6896
  151.1329  135.0151  159.8646 H   0  0  0  0  0  0  0  0  0  0  0  0  # atno 6909 bound_to 6896
  145.0243  139.4103  143.5181 H   0  0  0  0  0  0  0  0  0  0  0  0  # atno 7974 bound_to 7965
  155.3948  140.3435  155.4253 H   0  0  0  0  0  0  0  0  0  0  0  0  # atno 8008 bound_to 7997
  156.1537  140.1579  156.8761 H   0  0  0  0  0  0  0  0  0  0  0  0  # atno 8009 bound_to 7997
  154.5075  140.0798  156.7905 H   0  0  0  0  0  0  0  0  0  0  0  0  # atno 8010 bound_to 7997
  140.6777  143.6868  150.8060 H   0  0  0  0  0  0  0  0  0  0  0  0  # atno 10167 bound_to 10162
  157.5318  130.8636  149.8698 H   0  0  0  0  0  0  0  0  0  0  0  0  # atno 10718 bound_to 10713
  154.3504  135.6137  153.5640 H   0  0  0  0  0  0  0  0  0  0  0  0  # atno 10763 bound_to 10752
  152.9798  135.5791  154.4750 H   0  0  0  0  0  0  0  0  0  0  0  0  # atno 10764 bound_to 10752
  154.4470  135.2852  155.1785 H   0  0  0  0  0  0  0  0  0  0  0  0  # atno 10765 bound_to 10752
  140.9042  133.7504  156.0584 H   0  0  0  0  0  0  0  0  0  0  0  0  # atno 11005 bound_to 11000
  146.3490  139.9758  142.8701 LP  0  0  0  0  0  0  0  0  0  0  0  0  # atno 17320 bound_to 7965
  145.1854  140.9787  143.4242 LP  0  0  0  0  0  0  0  0  0  0  0  0  # atno 17321 bound_to 7965
  140.0564  143.5198  152.2649 LP  0  0  0  0  0  0  0  0  0  0  0  0  # atno 17342 bound_to 10162
  139.6079  144.7601  151.3019 LP  0  0  0  0  0  0  0  0  0  0  0  0  # atno 17343 bound_to 10162
  156.0428  130.3735  150.1391 LP  0  0  0  0  0  0  0  0  0  0  0  0  # atno 17370 bound_to 10713
  156.9576  130.9794  151.3486 LP  0  0  0  0  0  0  0  0  0  0  0  0  # atno 17371 bound_to 10713
  140.8192  134.3309  157.5387 LP  0  0  0  0  0  0  0  0  0  0  0  0  # atno 17394 bound_to 11000
  139.8747  134.9299  156.3489 LP  0  0  0  0  0  0  0  0  0  0  0  0  # atno 17395 bound_to 11000

$$$$
