AV-unprocessed.smi:2519|AV-procd|sdf|9905|dock4
  -GOLD-   2272013543D 1   1.00000     0.00000
 Structure written by MMmdl.
 43 44  0  0  0  0  0  0  0  0  1 V2000
  148.6661  134.3480  154.4779 C   0  0  0  0  0  0  0  0  0  0  0  0
  148.4931  135.7576  154.1642 N   0  0  0  0  0  0  0  0  0  0  0  0
  148.1887  136.7056  155.0655 C   0  0  0  0  0  0  0  0  0  0  0  0
  148.0172  136.4638  156.2612 O   0  0  0  0  0  0  0  0  0  0  0  0
  148.0414  138.1055  154.5275 C   0  0  0  0  0  0  0  0  0  0  0  0
  147.2933  138.3371  153.3517 C   0  0  0  0  0  0  0  0  0  0  0  0
  147.1682  139.6552  152.8784 C   0  0  0  0  0  0  0  0  0  0  0  0
  147.7906  140.6963  153.5916 C   0  0  0  0  0  0  0  0  0  0  0  0
  148.5216  140.3923  154.7598 C   0  0  0  0  0  0  0  0  0  0  0  0
  149.1124  141.5074  155.4093 N   0  0  0  0  0  0  0  0  0  0  0  0
  149.5915  141.5861  156.6671 C   0  0  0  0  0  0  0  0  0  0  0  0
  149.5969  140.6577  157.4739 O   0  0  0  0  0  0  0  0  0  0  0  0
  150.0859  142.7942  156.9956 N   0  0  0  0  0  0  0  0  0  0  0  0
  150.6777  143.2221  158.2651 C   0  0  2  0  0  0  0  0  0  0  0  0
  151.2612  144.6442  158.1418 C   0  0  0  0  0  0  0  0  0  0  0  0
  151.9557  145.0757  159.4416 C   0  0  0  0  0  0  0  0  0  0  0  0
  153.0401  144.0692  159.8564 C   0  0  0  0  0  0  0  0  0  0  0  0
  152.4688  142.6423  159.9940 C   0  0  2  0  0  0  0  0  0  0  0  0
  153.5454  141.6269  160.4287 C   0  0  0  0  0  0  0  0  0  0  0  0
  153.1422  140.3777  160.1942 F   0  0  0  0  0  0  0  0  0  0  0  0
  154.6771  141.8476  159.7598 F   0  0  0  0  0  0  0  0  0  0  0  0
  153.7994  141.7610  161.7304 F   0  0  0  0  0  0  0  0  0  0  0  0
  151.7721  142.2217  158.6817 C   0  0  0  0  0  0  0  0  0  0  0  0
  148.6338  139.1180  155.2062 N   0  0  0  0  0  0  0  0  0  0  0  0
  148.9202  133.7949  153.5738 H   0  0  0  0  0  0  0  0  0  0  0  0
  147.7485  133.9260  154.8896 H   0  0  0  0  0  0  0  0  0  0  0  0
  149.4703  134.2075  155.2011 H   0  0  0  0  0  0  0  0  0  0  0  0
  148.6157  136.0406  153.2020 H   0  0  0  0  0  0  0  0  0  0  0  0
  146.8216  137.5260  152.8162 H   0  0  0  0  0  0  0  0  0  0  0  0
  146.6035  139.8648  151.9821 H   0  0  0  0  0  0  0  0  0  0  0  0
  147.7048  141.7150  153.2417 H   0  0  0  0  0  0  0  0  0  0  0  0
  149.1768  142.3484  154.8551 H   0  0  0  0  0  0  0  0  0  0  0  0
  150.0448  143.5012  156.2756 H   0  0  0  0  0  0  0  0  0  0  0  0
  149.9147  143.2155  159.0456 H   0  0  0  0  0  0  0  0  0  0  0  0
  151.9782  144.6791  157.3202 H   0  0  0  0  0  0  0  0  0  0  0  0
  150.4756  145.3592  157.8953 H   0  0  0  0  0  0  0  0  0  0  0  0
  152.3961  146.0650  159.3149 H   0  0  0  0  0  0  0  0  0  0  0  0
  151.2164  145.1665  160.2383 H   0  0  0  0  0  0  0  0  0  0  0  0
  153.8429  144.0770  159.1182 H   0  0  0  0  0  0  0  0  0  0  0  0
  153.4861  144.3880  160.7989 H   0  0  0  0  0  0  0  0  0  0  0  0
  151.7101  142.6652  160.7778 H   0  0  0  0  0  0  0  0  0  0  0  0
  151.3310  141.2311  158.7986 H   0  0  0  0  0  0  0  0  0  0  0  0
  152.5132  142.1352  157.8856 H   0  0  0  0  0  0  0  0  0  0  0  0
  1  2  1  0  0  0  0
  1 25  1  0  0  0  0
  1 26  1  0  0  0  0
  1 27  1  0  0  0  0
  2  3  1  0  0  0  0
  2 28  1  0  0  0  0
  3  4  2  0  0  0  0
  3  5  1  0  0  0  0
  5 24  1  0  0  0  0
  5  6  2  0  0  0  0
  6  7  1  0  0  0  0
  6 29  1  0  0  0  0
  7  8  2  0  0  0  0
  7 30  1  0  0  0  0
  8  9  1  0  0  0  0
  8 31  1  0  0  0  0
  9 10  1  0  0  0  0
  9 24  2  0  0  0  0
 10 11  1  0  0  0  0
 10 32  1  0  0  0  0
 11 12  2  0  0  0  0
 11 13  1  0  0  0  0
 13 14  1  0  0  0  0
 13 33  1  0  0  0  0
 14 23  1  0  0  0  0
 14 15  1  0  0  0  0
 14 34  1  0  0  0  0
 15 16  1  0  0  0  0
 15 35  1  0  0  0  0
 15 36  1  0  0  0  0
 16 17  1  0  0  0  0
 16 37  1  0  0  0  0
 16 38  1  0  0  0  0
 17 18  1  0  0  0  0
 17 39  1  0  0  0  0
 17 40  1  0  0  0  0
 18 19  1  0  0  0  0
 18 23  1  0  0  0  0
 18 41  1  0  0  0  0
 19 20  1  0  0  0  0
 19 21  1  0  0  0  0
 19 22  1  0  0  0  0
 23 42  1  0  0  0  0
 23 43  1  0  0  0  0
M  END
> <s_m_source_file>
AV-unprocessed.smi

> <i_m_source_file_index>
2519

> <i_lp_mmshare_version>
43012

> <i_f3d_flags>
0

> <s_epik_input>
W0NIM11bTkhdQyg9TyljMVtjSF1bY0hdW2NIXWMobjEpW05IXUMoPU8pW05IXVtDQEBIXTJbQ0gyXVtDSDJdW0NIMl1bQ0BASF0oQyhGKShGKUYpW0NIMl0y

> <s_epik_cmdline>
J2VwaWtfcHl0aG9uJywgJy1waCcsICc3LjAnLCAnLXRuJywgJzgnLCAnLW1hJywgJzIwMCcsICctbWV0YWxfYmluZGluZycsICctaW1hZScsICc8aW5maWxlLm1hZT4nLCAnLW9tYWUnLCAnPG91dGZpbGUubWFlPic=

> <r_lp_tautomer_probability>
1

> <r_epik_Ionization_Penalty>
3.74915e-05

> <r_epik_Ionization_Penalty_Charging>
0

> <r_epik_Ionization_Penalty_Neutral>
3.74915e-05

> <r_epik_State_Penalty>
-0

> <r_epik_Charging_Adjusted_Penalty>
0

> <i_epik_Tot_Q>
0

> <i_epik_Tot_abs_Q>
0

> <r_epik_Metal_State_Penalty>
-0

> <b_epik_Metal_Only>
0

> <s_lp_Force_Field>
OPLS_2005

> <r_lp_Energy>
27.0484

> <b_lp_Chiralities_Consistent>
1

> <s_lp_Variant>
AV-unprocessed.smi:2519-3

> <Gold.Version>
5.8.1

> <Gold.Id.Protein>
6NUR|6NUR_protein|mol2

> <Gold.PLP.Fitness>
44.4278

> <Gold.PLP.PLP>
-42.0745

> <Gold.PLP.part.hbond>
-2.2816

> <Gold.PLP.part.metal>
0.0000

> <Gold.PLP.part.buried>
-4.7248

> <Gold.PLP.part.nonpolar>
-36.3656

> <Gold.PLP.part.repulsive>
0.2563

> <Gold.PLP.ligand.clash>
0.0000

> <Gold.PLP.ligand.torsion>
1.4142

> <Gold.PLP.Chemscore.Hbond>
1.7200

> <Gold.PLP.Chemscore.CHOScore>
0.0000

> <Gold.PLP.Chemscore.Metal>
0.0000

> <Gold.Chemscore.Hbonds>
donor molecule, donor type, donor heavy atom, donor atom, acceptor molecule, acceptor atom, score
      L1  H     2    28       P1  7948  0.63
      L1  H    13    33       P1  8028  0.78

> <Gold.PLP.Chemscore.Internal.Correction>
0.0218

> <Gold.Rescore>
     Score         DG    S(hbond)    S(metal)    S(lipo)     H(rot)  DE(clash)    DE(int)     intcor
     16.79     -20.41       1.78        0.00      98.64       1.00       0.04       3.57       ----

> <Gold.Chemscore.Fitness>
16.7883

> <Gold.Chemscore.DG>
-20.4062

> <Gold.Chemscore.ZeroCoef>
-5.4800

> <Gold.Chemscore.Hbond>
1.7801

> <Gold.Chemscore.Metal>
0.0000

> <Gold.Chemscore.Lipo>
98.6390

> <Gold.Chemscore.Internal_Hbond>
0.0000

> <Gold.Chemscore.DEClash>
0.0441

> <Gold.Chemscore.DEInternal>
3.5739

> <Gold.Chemscore.Rot>
1.0000

> <Gold.Chemscore.Internal.Correction>
   9.000000E+99

> <Gold.Chemscore.Hbonds>
donor molecule, donor type, donor heavy atom, donor atom, acceptor molecule, acceptor atom, score
      L1  H     2    28       P1  7948  0.63
      L1  H    10    32       P1  8028  0.01
      L1  H    13    33       P1  8028  0.78

> <Gold.Chemscore.Hbond.Weighted>
-5.9455

> <Gold.Chemscore.Metal.Weighted>
-0.0000

> <Gold.Chemscore.Lipo.Weighted>
-11.5408

> <Gold.Chemscore.Internal_Hbond.Weighted>
0.0000

> <Gold.Chemscore.DEClash.Weighted>
0.0441

> <Gold.Chemscore.DEInternal.Weighted>
3.5739

> <Gold.Chemscore.Rot.Weighted>
2.5600

> <Gold.Chemscore.Internal.Correction.Weighted>
   9.000000E+99

> <Gold.Protein.RotatedTorsions>
[ 6907 6896 6895 6894 ] final  112.43 input  -60.11 | X-H torsion
[ 7974 7965 7964 7962 ] final  -18.70 input  175.53 | X-H torsion
[ 8008 7997 7996 7995 ] final -117.98 input   59.86 | X-H torsion
[ 10167 10162 10161 10158 ] final  159.23 input  -65.29 | X-H torsion
[ 10718 10713 10712 10709 ] final   93.71 input   66.30 | X-H torsion
[ 10763 10752 10751 10750 ] final  -15.08 input  -60.55 | X-H torsion
[ 11005 11000 10999 10996 ] final -164.53 input  -57.11 | X-H torsion

> <Gold.Protein.ActiveResidues>
 VAL166  LYS551  ARG553  GLY616  TRP617  ASP618  TYR619  PRO620  LYS621  CYS622 
 ASP623  PHE694  ASN695  SER759  ASP760  ASP761  ALA762  ILE779  LEU786  VAL792 
 PHE793  MET794  SER795  GLU796  ALA797  LYS798  CYS799  TRP800  GLU811  SER814 

> <Gold.Protein.RotatedAtoms>
  152.4916  133.8516  159.7204 H   0  0  0  0  0  0  0  0  0  0  0  0  # atno 6907 bound_to 6896
  150.9052  133.7058  159.2875 H   0  0  0  0  0  0  0  0  0  0  0  0  # atno 6908 bound_to 6896
  151.4486  135.1031  159.9743 H   0  0  0  0  0  0  0  0  0  0  0  0  # atno 6909 bound_to 6896
  146.1879  140.3958  142.8469 H   0  0  0  0  0  0  0  0  0  0  0  0  # atno 7974 bound_to 7965
  155.0924  140.0395  157.2672 H   0  0  0  0  0  0  0  0  0  0  0  0  # atno 8008 bound_to 7997
  154.6821  140.2635  155.6872 H   0  0  0  0  0  0  0  0  0  0  0  0  # atno 8009 bound_to 7997
  156.2699  140.2776  156.1370 H   0  0  0  0  0  0  0  0  0  0  0  0  # atno 8010 bound_to 7997
  139.4831  144.4749  151.8525 H   0  0  0  0  0  0  0  0  0  0  0  0  # atno 10167 bound_to 10162
  157.6953  131.0487  150.4075 H   0  0  0  0  0  0  0  0  0  0  0  0  # atno 10718 bound_to 10713
  153.5379  135.7013  153.5651 H   0  0  0  0  0  0  0  0  0  0  0  0  # atno 10763 bound_to 10752
  153.3630  135.3965  155.1732 H   0  0  0  0  0  0  0  0  0  0  0  0  # atno 10764 bound_to 10752
  154.8677  135.3793  154.4881 H   0  0  0  0  0  0  0  0  0  0  0  0  # atno 10765 bound_to 10752
  140.5859  134.5094  157.5185 H   0  0  0  0  0  0  0  0  0  0  0  0  # atno 11005 bound_to 11000
  144.8431  140.6887  143.6216 LP  0  0  0  0  0  0  0  0  0  0  0  0  # atno 17320 bound_to 7965
  145.3883  139.1622  143.4243 LP  0  0  0  0  0  0  0  0  0  0  0  0  # atno 17321 bound_to 7965
  140.4221  144.2229  150.5887 LP  0  0  0  0  0  0  0  0  0  0  0  0  # atno 17342 bound_to 10162
  140.4863  143.2362  151.8882 LP  0  0  0  0  0  0  0  0  0  0  0  0  # atno 17343 bound_to 10162
  156.4462  130.4002  149.6665 LP  0  0  0  0  0  0  0  0  0  0  0  0  # atno 17370 bound_to 10713
  156.3831  130.7589  151.2583 LP  0  0  0  0  0  0  0  0  0  0  0  0  # atno 17371 bound_to 10713
  139.9296  134.7990  156.0969 LP  0  0  0  0  0  0  0  0  0  0  0  0  # atno 17394 bound_to 11000
  141.0966  133.6693  156.2659 LP  0  0  0  0  0  0  0  0  0  0  0  0  # atno 17395 bound_to 11000

$$$$
