AV-unprocessed.smi:1005|AV-procd|sdf|4369|dock9
  -GOLD-   22720 2273D 1   1.00000     0.00000
 Structure written by MMmdl.
 57 59  0  0  0  0  0  0  0  0  3 V2000
  152.1066  141.2033  159.4883 C   0  0  0  0  0  0  0  0  0  0  0  0
  151.2788  141.2107  158.2153 C   0  0  0  0  0  0  0  0  0  0  0  0
  151.4191  140.1447  157.2984 C   0  0  0  0  0  0  0  0  0  0  0  0
  150.6687  140.1144  156.1030 C   0  0  0  0  0  0  0  0  0  0  0  0
  150.6435  139.1812  155.0806 N   0  0  0  0  0  0  0  0  0  0  0  0
  149.7481  139.7125  154.2541 C   0  0  0  0  0  0  0  0  0  0  0  0
  149.1865  140.8803  154.6211 N   0  0  0  0  0  0  0  0  0  0  0  0
  148.1910  141.6386  153.8849 C   0  0  0  0  0  0  0  0  0  0  0  0
  146.7987  140.9809  153.9318 C   0  0  1  0  0  0  0  0  0  0  0  0
  145.8599  141.8222  153.2897 O   0  0  0  0  0  0  0  0  0  0  0  0
  146.7900  139.6105  153.2265 C   0  0  0  0  0  0  0  0  0  0  0  0
  145.4400  138.9848  153.2204 N   0  3  2  0  0  0  0  0  0  0  0  0
  144.8203  138.8306  154.5611 C   0  0  0  0  0  0  0  0  0  0  0  0
  145.3996  137.6180  155.3144 C   0  0  0  0  0  0  0  0  0  0  0  0
  145.2669  136.4471  154.5173 O   0  0  0  0  0  0  0  0  0  0  0  0
  145.9715  136.5392  153.2829 C   0  0  1  0  0  0  0  0  0  0  0  0
  145.8117  135.1964  152.5445 C   0  0  0  0  0  0  0  0  0  0  0  0
  146.5032  135.1697  151.2295 N   0  3  0  0  0  0  0  0  0  0  0  0
  145.7382  135.8301  150.1462 C   0  0  0  0  0  0  0  0  0  0  0  0
  146.9108  133.7997  150.8454 C   0  0  0  0  0  0  0  0  0  0  0  0
  145.3748  137.7073  152.4685 C   0  0  0  0  0  0  0  0  0  0  0  0
  149.7684  141.1894  155.8462 C   0  0  0  0  0  0  0  0  0  0  0  0
  149.6198  142.2555  156.7507 C   0  0  0  0  0  0  0  0  0  0  0  0
  150.3757  142.2691  157.9416 C   0  0  0  0  0  0  0  0  0  0  0  0
  150.2059  143.4231  158.9136 C   0  0  0  0  0  0  0  0  0  0  0  0
  152.7181  140.3034  159.5607 H   0  0  0  0  0  0  0  0  0  0  0  0
  151.4610  141.2388  160.3660 H   0  0  0  0  0  0  0  0  0  0  0  0
  152.7742  142.0649  159.5135 H   0  0  0  0  0  0  0  0  0  0  0  0
  152.1066  139.3380  157.5070 H   0  0  0  0  0  0  0  0  0  0  0  0
  149.4824  139.2228  153.3283 H   0  0  0  0  0  0  0  0  0  0  0  0
  148.1537  142.6518  154.2875 H   0  0  0  0  0  0  0  0  0  0  0  0
  148.5299  141.7277  152.8519 H   0  0  0  0  0  0  0  0  0  0  0  0
  146.5019  140.8751  154.9750 H   0  0  0  0  0  0  0  0  0  0  0  0
  144.9921  141.4790  153.4442 H   0  0  0  0  0  0  0  0  0  0  0  0
  147.1353  139.7516  152.2009 H   0  0  0  0  0  0  0  0  0  0  0  0
  147.5101  138.9390  153.6942 H   0  0  0  0  0  0  0  0  0  0  0  0
  144.9278  139.7373  155.1552 H   0  0  0  0  0  0  0  0  0  0  0  0
  143.7481  138.6845  154.4225 H   0  0  0  0  0  0  0  0  0  0  0  0
  146.4453  137.7746  155.5815 H   0  0  0  0  0  0  0  0  0  0  0  0
  144.8584  137.4676  156.2486 H   0  0  0  0  0  0  0  0  0  0  0  0
  147.0264  136.7370  153.4735 H   0  0  0  0  0  0  0  0  0  0  0  0
  146.2163  134.4079  153.1811 H   0  0  0  0  0  0  0  0  0  0  0  0
  144.7560  134.9615  152.4006 H   0  0  0  0  0  0  0  0  0  0  0  0
  144.7785  135.3367  149.9873 H   0  0  0  0  0  0  0  0  0  0  0  0
  146.2944  135.7947  149.2087 H   0  0  0  0  0  0  0  0  0  0  0  0
  145.5508  136.8798  150.3681 H   0  0  0  0  0  0  0  0  0  0  0  0
  146.0411  133.1523  150.7235 H   0  0  0  0  0  0  0  0  0  0  0  0
  147.5613  133.3611  151.6025 H   0  0  0  0  0  0  0  0  0  0  0  0
  147.4635  133.8095  149.9052 H   0  0  0  0  0  0  0  0  0  0  0  0
  144.3274  137.4985  152.2460 H   0  0  0  0  0  0  0  0  0  0  0  0
  145.8750  137.8076  151.5042 H   0  0  0  0  0  0  0  0  0  0  0  0
  148.9279  143.0551  156.5315 H   0  0  0  0  0  0  0  0  0  0  0  0
  149.4894  144.1557  158.5409 H   0  0  0  0  0  0  0  0  0  0  0  0
  151.1559  143.9345  159.0707 H   0  0  0  0  0  0  0  0  0  0  0  0
  149.8436  143.0608  159.8759 H   0  0  0  0  0  0  0  0  0  0  0  0
  147.3616  135.6904  151.3438 H   0  0  0  0  0  0  0  0  0  0  0  0
  144.8619  139.6358  152.7067 H   0  0  0  0  0  0  0  0  0  0  0  0
  1  2  1  0  0  0  0
  1 26  1  0  0  0  0
  1 27  1  0  0  0  0
  1 28  1  0  0  0  0
  2 24  1  0  0  0  0
  2  3  2  0  0  0  0
  3  4  1  0  0  0  0
  3 29  1  0  0  0  0
  4 22  2  0  0  0  0
  4  5  1  0  0  0  0
  5  6  2  0  0  0  0
  6  7  1  0  0  0  0
  6 30  1  0  0  0  0
  7  8  1  0  0  0  0
  7 22  1  0  0  0  0
  8  9  1  0  0  0  0
  8 31  1  0  0  0  0
  8 32  1  0  0  0  0
  9 10  1  0  0  0  0
  9 11  1  0  0  0  0
  9 33  1  0  0  0  0
 10 34  1  0  0  0  0
 11 12  1  0  0  0  0
 11 35  1  0  0  0  0
 11 36  1  0  0  0  0
 12 21  1  0  0  0  0
 12 13  1  0  0  0  0
 12 57  1  0  0  0  0
 13 14  1  0  0  0  0
 13 37  1  0  0  0  0
 13 38  1  0  0  0  0
 14 15  1  0  0  0  0
 14 39  1  0  0  0  0
 14 40  1  0  0  0  0
 15 16  1  0  0  0  0
 16 17  1  0  0  0  0
 16 21  1  0  0  0  0
 16 41  1  0  0  0  0
 17 18  1  0  0  0  0
 17 42  1  0  0  0  0
 17 43  1  0  0  0  0
 18 19  1  0  0  0  0
 18 20  1  0  0  0  0
 18 56  1  0  0  0  0
 19 44  1  0  0  0  0
 19 45  1  0  0  0  0
 19 46  1  0  0  0  0
 20 47  1  0  0  0  0
 20 48  1  0  0  0  0
 20 49  1  0  0  0  0
 21 50  1  0  0  0  0
 21 51  1  0  0  0  0
 22 23  1  0  0  0  0
 23 24  2  0  0  0  0
 23 52  1  0  0  0  0
 24 25  1  0  0  0  0
 25 53  1  0  0  0  0
 25 54  1  0  0  0  0
 25 55  1  0  0  0  0
M  CHG  1  12   1
M  CHG  1  18   1
M  END
> <s_m_source_file>
AV-unprocessed.smi

> <i_m_source_file_index>
1005

> <i_lp_mmshare_version>
43012

> <i_f3d_flags>
0

> <s_epik_input>
W0NIM11jKFtjSF0xKWMoW0NIM10pW2NIXWMoYzEyKW4oW2NIXW4yKVtDSDJdW0NASF0oW09IXSlbQ0gyXU4zW0NIMl1bQ0gyXU9bQ0BIXShbQ0gyXTMpW0NIMl1OKFtDSDNdKVtDSDNd

> <s_epik_cmdline>
J2VwaWtfcHl0aG9uJywgJy1waCcsICc3LjAnLCAnLXRuJywgJzgnLCAnLW1hJywgJzIwMCcsICctbWV0YWxfYmluZGluZycsICctaW1hZScsICc8aW5maWxlLm1hZT4nLCAnLW9tYWUnLCAnPG91dGZpbGUubWFlPic=

> <r_epik_Ionization_Penalty>
1.0968

> <r_epik_Ionization_Penalty_Charging>
1.0096

> <r_epik_Ionization_Penalty_Neutral>
0.0871956

> <r_epik_State_Penalty>
1.31185

> <r_epik_Charging_Adjusted_Penalty>
2.32145

> <i_epik_Tot_Q>
2

> <i_epik_Tot_abs_Q>
2

> <r_epik_Metal_State_Penalty>
1.22442

> <b_epik_Metal_Only>
0

> <s_lp_Force_Field>
OPLS_2005

> <r_lp_Energy>
34.9346

> <b_lp_Chiralities_Consistent>
1

> <s_lp_Variant>
AV-unprocessed.smi:1005-8

> <Gold.Version>
5.8.1

> <Gold.Id.Protein>
6NUR|6NUR_protein|mol2

> <Gold.PLP.Fitness>
54.2978

> <Gold.PLP.PLP>
-40.2680

> <Gold.PLP.part.hbond>
-2.6716

> <Gold.PLP.part.metal>
0.0000

> <Gold.PLP.part.buried>
-2.3820

> <Gold.PLP.part.nonpolar>
-34.2606

> <Gold.PLP.part.repulsive>
0.1201

> <Gold.PLP.ligand.clash>
0.0000

> <Gold.PLP.ligand.torsion>
0.4392

> <Gold.PLP.Chemscore.Hbond>
4.0000

> <Gold.PLP.Chemscore.CHOScore>
0.9374

> <Gold.PLP.Chemscore.Metal>
0.0000

> <Gold.Chemscore.Hbonds>
donor molecule, donor type, donor heavy atom, donor atom, acceptor molecule, acceptor atom, score
      L1  H    10    34       P1 10175  0.53
      L1  H    12    57       P1 10175  1.66
      L1  H    18    56       P1  7948  2.00
      L1  C     6    30       P1  7957  0.99

> <Gold.PLP.Chemscore.Internal.Correction>
0.0960

> <Gold.Rescore>
     Score         DG    S(hbond)    S(metal)    S(lipo)     H(rot)  DE(clash)    DE(int)     intcor
     16.31     -17.13       1.94        0.00      98.48       2.48       0.10       0.73       ----

> <Gold.Chemscore.Fitness>
16.3086

> <Gold.Chemscore.DG>
-17.1333

> <Gold.Chemscore.ZeroCoef>
-5.4800

> <Gold.Chemscore.Hbond>
1.9411

> <Gold.Chemscore.Metal>
0.0000

> <Gold.Chemscore.Lipo>
98.4822

> <Gold.Chemscore.Internal_Hbond>
0.0000

> <Gold.Chemscore.DEClash>
0.0975

> <Gold.Chemscore.DEInternal>
0.7272

> <Gold.Chemscore.Rot>
2.4814

> <Gold.Chemscore.Internal.Correction>
   9.000000E+99

> <Gold.Chemscore.Hbonds>
donor molecule, donor type, donor heavy atom, donor atom, acceptor molecule, acceptor atom, score
      L1  H    10    34       P1 10175  0.06
      L1  H    12    57       P1 10175  0.81
      L1  H    18    56       P1  7948  0.96

> <Gold.Chemscore.Hbond.Weighted>
-6.4832

> <Gold.Chemscore.Metal.Weighted>
-0.0000

> <Gold.Chemscore.Lipo.Weighted>
-11.5224

> <Gold.Chemscore.Internal_Hbond.Weighted>
0.0000

> <Gold.Chemscore.DEClash.Weighted>
0.0975

> <Gold.Chemscore.DEInternal.Weighted>
0.7272

> <Gold.Chemscore.Rot.Weighted>
6.3524

> <Gold.Chemscore.Internal.Correction.Weighted>
   9.000000E+99

> <Gold.Protein.RotatedTorsions>
[ 6907 6896 6895 6894 ] final   12.05 input  -60.11 | X-H torsion
[ 7974 7965 7964 7962 ] final   70.02 input  175.53 | X-H torsion
[ 8008 7997 7996 7995 ] final   80.37 input   59.86 | X-H torsion
[ 10167 10162 10161 10158 ] final  130.96 input  -65.29 | X-H torsion
[ 10718 10713 10712 10709 ] final    9.98 input   66.30 | X-H torsion
[ 10763 10752 10751 10750 ] final  140.25 input  -60.55 | X-H torsion
[ 11005 11000 10999 10996 ] final  149.66 input  -57.11 | X-H torsion

> <Gold.Protein.ActiveResidues>
 VAL166  LYS551  ARG553  GLY616  TRP617  ASP618  TYR619  PRO620  LYS621  CYS622 
 ASP623  PHE694  ASN695  SER759  ASP760  ASP761  ALA762  ILE779  LEU786  VAL792 
 PHE793  MET794  SER795  GLU796  ALA797  LYS798  CYS799  TRP800  GLU811  SER814 

> <Gold.Protein.RotatedAtoms>
  151.7641  135.0803  160.0349 H   0  0  0  0  0  0  0  0  0  0  0  0  # atno 6907 bound_to 6896
  152.3333  133.5979  159.5833 H   0  0  0  0  0  0  0  0  0  0  0  0  # atno 6908 bound_to 6896
  150.7435  133.9750  159.3600 H   0  0  0  0  0  0  0  0  0  0  0  0  # atno 6909 bound_to 6896
  145.7833  139.2898  143.1253 H   0  0  0  0  0  0  0  0  0  0  0  0  # atno 7974 bound_to 7965
  155.8826  140.3443  155.5898 H   0  0  0  0  0  0  0  0  0  0  0  0  # atno 8008 bound_to 7997
  155.7702  140.0844  157.2131 H   0  0  0  0  0  0  0  0  0  0  0  0  # atno 8009 bound_to 7997
  154.4026  140.1519  156.2921 H   0  0  0  0  0  0  0  0  0  0  0  0  # atno 8010 bound_to 7997
  139.5405  144.6726  151.4639 H   0  0  0  0  0  0  0  0  0  0  0  0  # atno 10167 bound_to 10162
  156.9743  130.5981  149.5671 H   0  0  0  0  0  0  0  0  0  0  0  0  # atno 10718 bound_to 10713
  153.9196  135.3002  155.3448 H   0  0  0  0  0  0  0  0  0  0  0  0  # atno 10763 bound_to 10752
  154.7582  135.4947  153.9417 H   0  0  0  0  0  0  0  0  0  0  0  0  # atno 10764 bound_to 10752
  153.1149  135.6768  153.9539 H   0  0  0  0  0  0  0  0  0  0  0  0  # atno 10765 bound_to 10752
  140.1063  134.8952  157.1871 H   0  0  0  0  0  0  0  0  0  0  0  0  # atno 11005 bound_to 11000
  146.0052  140.8485  142.9998 LP  0  0  0  0  0  0  0  0  0  0  0  0  # atno 17320 bound_to 7965
  144.6793  140.2410  143.7343 LP  0  0  0  0  0  0  0  0  0  0  0  0  # atno 17321 bound_to 7965
  140.6633  143.8452  150.6913 LP  0  0  0  0  0  0  0  0  0  0  0  0  # atno 17342 bound_to 10162
  140.1853  143.4081  152.1903 LP  0  0  0  0  0  0  0  0  0  0  0  0  # atno 17343 bound_to 10162
  156.0270  130.5363  150.8433 LP  0  0  0  0  0  0  0  0  0  0  0  0  # atno 17370 bound_to 10713
  157.5570  131.0945  150.9613 LP  0  0  0  0  0  0  0  0  0  0  0  0  # atno 17371 bound_to 10713
  140.3151  134.2980  155.7258 LP  0  0  0  0  0  0  0  0  0  0  0  0  # atno 17394 bound_to 11000
  141.2119  133.7674  156.9831 LP  0  0  0  0  0  0  0  0  0  0  0  0  # atno 17395 bound_to 11000

$$$$
