AV-unprocessed.smi:1587|AV-procd|sdf|6388|dock3
  -GOLD-   22720 7 23D 1   1.00000     0.00000
 Structure written by MMmdl.
 37 38  0  0  0  0  0  0  0  0  2 V2000
  144.3966  136.5689  152.4223 O   0  0  0  0  0  0  0  0  0  0  0  0
  145.6122  136.4304  152.2814 C   0  0  0  0  0  0  0  0  0  0  0  0
  146.5117  137.2901  152.7816 N   0  0  0  0  0  0  0  0  0  0  0  0
  146.1801  138.4833  153.5522 C   0  0  0  0  0  0  0  0  0  0  0  0
  147.1035  139.6631  153.1919 C   0  0  0  0  0  0  0  0  0  0  0  0
  148.1662  139.8802  154.2046 N   0  3  0  0  0  0  0  0  0  0  0  0
  149.2399  138.8609  154.1220 C   0  0  0  0  0  0  0  0  0  0  0  0
  150.2941  139.0972  155.2164 C   0  0  0  0  0  0  0  0  0  0  0  0
  150.8232  140.4110  155.0925 O   0  0  0  0  0  0  0  0  0  0  0  0
  149.8203  141.4053  155.2588 C   0  0  0  0  0  0  0  0  0  0  0  0
  148.7467  141.2460  154.1690 C   0  0  0  0  0  0  0  0  0  0  0  0
  146.2110  135.4241  151.6201 N   0  0  0  0  0  0  0  0  0  0  0  0
  145.6011  134.3310  150.9483 C   0  0  0  0  0  0  0  0  0  0  0  0
  146.4852  133.3015  150.5534 C   0  0  0  0  0  0  0  0  0  0  0  0
  145.9784  132.1743  149.8778 C   0  0  0  0  0  0  0  0  0  0  0  0
  144.5988  132.1056  149.6145 C   0  0  0  0  0  0  0  0  0  0  0  0
  143.7882  133.1733  150.0418 C   0  0  0  0  0  0  0  0  0  0  0  0
  144.2717  134.2546  150.6890 N   0  0  0  0  0  0  0  0  0  0  0  0
  147.4914  137.1038  152.6233 H   0  0  0  0  0  0  0  0  0  0  0  0
  145.1310  138.7317  153.3896 H   0  0  0  0  0  0  0  0  0  0  0  0
  146.2813  138.2422  154.6107 H   0  0  0  0  0  0  0  0  0  0  0  0
  147.5671  139.4468  152.2281 H   0  0  0  0  0  0  0  0  0  0  0  0
  146.5346  140.5845  153.0584 H   0  0  0  0  0  0  0  0  0  0  0  0
  148.8145  137.8628  154.2348 H   0  0  0  0  0  0  0  0  0  0  0  0
  149.7084  138.9010  153.1372 H   0  0  0  0  0  0  0  0  0  0  0  0
  149.8646  138.9561  156.2096 H   0  0  0  0  0  0  0  0  0  0  0  0
  151.1072  138.3781  155.1160 H   0  0  0  0  0  0  0  0  0  0  0  0
  149.3796  141.3326  156.2545 H   0  0  0  0  0  0  0  0  0  0  0  0
  150.2844  142.3893  155.1874 H   0  0  0  0  0  0  0  0  0  0  0  0
  149.1853  141.4321  153.1873 H   0  0  0  0  0  0  0  0  0  0  0  0
  147.9709  141.9962  154.3186 H   0  0  0  0  0  0  0  0  0  0  0  0
  147.2197  135.4410  151.5918 H   0  0  0  0  0  0  0  0  0  0  0  0
  147.5426  133.3697  150.7638 H   0  0  0  0  0  0  0  0  0  0  0  0
  146.6376  131.3771  149.5676 H   0  0  0  0  0  0  0  0  0  0  0  0
  144.1730  131.2576  149.0991 H   0  0  0  0  0  0  0  0  0  0  0  0
  142.7238  133.1598  149.8591 H   0  0  0  0  0  0  0  0  0  0  0  0
  147.7336  139.7635  155.1100 H   0  0  0  0  0  0  0  0  0  0  0  0
  1  2  2  0  0  0  0
  2  3  1  0  0  0  0
  2 12  1  0  0  0  0
  3  4  1  0  0  0  0
  3 19  1  0  0  0  0
  4  5  1  0  0  0  0
  4 20  1  0  0  0  0
  4 21  1  0  0  0  0
  5  6  1  0  0  0  0
  5 22  1  0  0  0  0
  5 23  1  0  0  0  0
  6 11  1  0  0  0  0
  6  7  1  0  0  0  0
  6 37  1  0  0  0  0
  7  8  1  0  0  0  0
  7 24  1  0  0  0  0
  7 25  1  0  0  0  0
  8  9  1  0  0  0  0
  8 26  1  0  0  0  0
  8 27  1  0  0  0  0
  9 10  1  0  0  0  0
 10 11  1  0  0  0  0
 10 28  1  0  0  0  0
 10 29  1  0  0  0  0
 11 30  1  0  0  0  0
 11 31  1  0  0  0  0
 12 13  1  0  0  0  0
 12 32  1  0  0  0  0
 13 18  1  0  0  0  0
 13 14  2  0  0  0  0
 14 15  1  0  0  0  0
 14 33  1  0  0  0  0
 15 16  2  0  0  0  0
 15 34  1  0  0  0  0
 16 17  1  0  0  0  0
 16 35  1  0  0  0  0
 17 18  2  0  0  0  0
 17 36  1  0  0  0  0
M  CHG  1   6   1
M  END
> <s_m_source_file>
AV-unprocessed.smi

> <i_m_source_file_index>
1587

> <i_lp_mmshare_version>
43012

> <i_f3d_flags>
0

> <s_epik_input>
bjFbY0hdW2NIXVtjSF1bY0hdYzFbTkhdQyg9TylbTkhdW0NIMl1bQ0gyXU4yW0NIMl1bQ0gyXU9bQ0gyXVtDSDJdMg==

> <s_epik_cmdline>
J2VwaWtfcHl0aG9uJywgJy1waCcsICc3LjAnLCAnLXRuJywgJzgnLCAnLW1hJywgJzIwMCcsICctbWV0YWxfYmluZGluZycsICctaW1hZScsICc8aW5maWxlLm1hZT4nLCAnLW9tYWUnLCAnPG91dGZpbGUubWFlPic=

> <r_epik_Ionization_Penalty>
0.602565

> <r_epik_Ionization_Penalty_Charging>
0.602531

> <r_epik_Ionization_Penalty_Neutral>
3.41998e-05

> <r_epik_State_Penalty>
0.617039

> <r_epik_Charging_Adjusted_Penalty>
1.21957

> <i_epik_Tot_Q>
1

> <i_epik_Tot_abs_Q>
1

> <r_epik_Metal_State_Penalty>
0.617041

> <b_epik_Metal_Only>
0

> <s_lp_Force_Field>
OPLS_2005

> <r_lp_Energy>
15.9912

> <b_lp_Chiralities_Consistent>
1

> <s_lp_Variant>
AV-unprocessed.smi:1587-2

> <Gold.Version>
5.8.1

> <Gold.Id.Protein>
6NUR|6NUR_protein|mol2

> <Gold.PLP.Fitness>
43.6736

> <Gold.PLP.PLP>
-32.9093

> <Gold.PLP.part.hbond>
-3.0000

> <Gold.PLP.part.metal>
0.0000

> <Gold.PLP.part.buried>
-2.7685

> <Gold.PLP.part.nonpolar>
-27.3660

> <Gold.PLP.part.repulsive>
0.5454

> <Gold.PLP.ligand.clash>
0.0000

> <Gold.PLP.ligand.torsion>
0.6299

> <Gold.PLP.Chemscore.Hbond>
3.0000

> <Gold.PLP.Chemscore.CHOScore>
1.0000

> <Gold.PLP.Chemscore.Metal>
0.0000

> <Gold.Chemscore.Hbonds>
donor molecule, donor type, donor heavy atom, donor atom, acceptor molecule, acceptor atom, score
      L1  H     3    19       P1  7948  1.00
      L1  H    12    32       P1  7948  1.00
      P1  H  7989  7998       L1     9  1.00
      L1  C    17    36       P1 10186  1.00

> <Gold.PLP.Chemscore.Internal.Correction>
0.0242

> <Gold.Rescore>
     Score         DG    S(hbond)    S(metal)    S(lipo)     H(rot)  DE(clash)    DE(int)     intcor
     17.90     -19.97       2.71        0.00      81.57       1.60       0.15       1.92       ----

> <Gold.Chemscore.Fitness>
17.8993

> <Gold.Chemscore.DG>
-19.9688

> <Gold.Chemscore.ZeroCoef>
-5.4800

> <Gold.Chemscore.Hbond>
2.7053

> <Gold.Chemscore.Metal>
0.0000

> <Gold.Chemscore.Lipo>
81.5743

> <Gold.Chemscore.Internal_Hbond>
0.0000

> <Gold.Chemscore.DEClash>
0.1511

> <Gold.Chemscore.DEInternal>
1.9185

> <Gold.Chemscore.Rot>
1.5981

> <Gold.Chemscore.Internal.Correction>
   9.000000E+99

> <Gold.Chemscore.Hbonds>
donor molecule, donor type, donor heavy atom, donor atom, acceptor molecule, acceptor atom, score
      L1  H     3    19       P1  7948  0.98
      L1  H    12    32       P1  7948  0.96
      P1  H  7989  7998       L1     9  0.37

> <Gold.Chemscore.Hbond.Weighted>
-9.0357

> <Gold.Chemscore.Metal.Weighted>
-0.0000

> <Gold.Chemscore.Lipo.Weighted>
-9.5442

> <Gold.Chemscore.Internal_Hbond.Weighted>
0.0000

> <Gold.Chemscore.DEClash.Weighted>
0.1511

> <Gold.Chemscore.DEInternal.Weighted>
1.9185

> <Gold.Chemscore.Rot.Weighted>
4.0911

> <Gold.Chemscore.Internal.Correction.Weighted>
   9.000000E+99

> <Gold.Protein.RotatedTorsions>
[ 6907 6896 6895 6894 ] final   81.06 input  -60.11 | X-H torsion
[ 7974 7965 7964 7962 ] final    9.71 input  175.53 | X-H torsion
[ 8008 7997 7996 7995 ] final -110.24 input   59.86 | X-H torsion
[ 10167 10162 10161 10158 ] final -113.21 input  -65.29 | X-H torsion
[ 10718 10713 10712 10709 ] final   69.71 input   66.30 | X-H torsion
[ 10763 10752 10751 10750 ] final -151.54 input  -60.55 | X-H torsion
[ 11005 11000 10999 10996 ] final  -53.11 input  -57.11 | X-H torsion

> <Gold.Protein.ActiveResidues>
 VAL166  LYS551  ARG553  GLY616  TRP617  ASP618  TYR619  PRO620  LYS621  CYS622 
 ASP623  PHE694  ASN695  SER759  ASP760  ASP761  ALA762  ILE779  LEU786  VAL792 
 PHE793  MET794  SER795  GLU796  ALA797  LYS798  CYS799  TRP800  GLU811  SER814 

> <Gold.Protein.RotatedAtoms>
  152.5256  134.3261  159.9165 H   0  0  0  0  0  0  0  0  0  0  0  0  # atno 6907 bound_to 6896
  151.3210  133.4033  159.2662 H   0  0  0  0  0  0  0  0  0  0  0  0  # atno 6908 bound_to 6896
  150.9959  134.9300  159.7983 H   0  0  0  0  0  0  0  0  0  0  0  0  # atno 6909 bound_to 6896
  146.2399  139.9743  142.8443 H   0  0  0  0  0  0  0  0  0  0  0  0  # atno 7974 bound_to 7965
  154.9715  140.0397  157.2237 H   0  0  0  0  0  0  0  0  0  0  0  0  # atno 8008 bound_to 7997
  154.7796  140.2816  155.6051 H   0  0  0  0  0  0  0  0  0  0  0  0  # atno 8009 bound_to 7997
  156.2934  140.2594  156.2619 H   0  0  0  0  0  0  0  0  0  0  0  0  # atno 8010 bound_to 7997
  140.1143  143.4500  152.1732 H   0  0  0  0  0  0  0  0  0  0  0  0  # atno 10167 bound_to 10162
  157.6360  130.9439  150.0550 H   0  0  0  0  0  0  0  0  0  0  0  0  # atno 10718 bound_to 10713
  154.8051  135.3257  154.7451 H   0  0  0  0  0  0  0  0  0  0  0  0  # atno 10763 bound_to 10752
  153.8111  135.6895  153.4845 H   0  0  0  0  0  0  0  0  0  0  0  0  # atno 10764 bound_to 10752
  153.1792  135.4593  154.9950 H   0  0  0  0  0  0  0  0  0  0  0  0  # atno 10765 bound_to 10752
  141.0959  133.6625  156.4123 H   0  0  0  0  0  0  0  0  0  0  0  0  # atno 11005 bound_to 11000
  145.1652  140.9693  143.4354 LP  0  0  0  0  0  0  0  0  0  0  0  0  # atno 17320 bound_to 7965
  145.0079  139.3537  143.6134 LP  0  0  0  0  0  0  0  0  0  0  0  0  # atno 17321 bound_to 7965
  139.5602  144.7401  151.4176 LP  0  0  0  0  0  0  0  0  0  0  0  0  # atno 17342 bound_to 10162
  140.6908  143.7866  150.7253 LP  0  0  0  0  0  0  0  0  0  0  0  0  # atno 17343 bound_to 10162
  156.1600  130.3644  149.9313 LP  0  0  0  0  0  0  0  0  0  0  0  0  # atno 17370 bound_to 10713
  156.7313  130.9044  151.3626 LP  0  0  0  0  0  0  0  0  0  0  0  0  # atno 17371 bound_to 10713
  140.5141  134.6367  157.5295 LP  0  0  0  0  0  0  0  0  0  0  0  0  # atno 17394 bound_to 11000
  139.9796  134.7159  155.9885 LP  0  0  0  0  0  0  0  0  0  0  0  0  # atno 17395 bound_to 11000

$$$$
