AV-unprocessed.smi:1672|AV-procd|sdf|6704|dock1
  -GOLD-   22720 7443D 1   1.00000     0.00000
 Structure written by MMmdl.
 48 50  0  0  0  0  0  0  0  0  2 V2000
  144.5776  133.4633  150.5448 C   0  0  0  0  0  0  0  0  0  0  0  0
  145.9682  134.1223  150.5401 C   0  0  2  0  0  0  0  0  0  0  0  0
  146.8492  133.6625  151.7158 C   0  0  0  0  0  0  0  0  0  0  0  0
  146.4059  134.2829  153.0528 C   0  0  0  0  0  0  0  0  0  0  0  0
  146.3820  135.7675  152.9726 N   0  3  2  0  0  0  0  0  0  0  0  0
  146.0892  136.4242  154.2730 C   0  0  0  0  0  0  0  0  0  0  0  0
  146.1027  137.9630  154.1804 C   0  0  1  0  0  0  0  0  0  0  0  0
  144.8016  138.4096  153.8514 O   0  0  0  0  0  0  0  0  0  0  0  0
  146.5470  138.6083  155.5080 C   0  0  0  0  0  0  0  0  0  0  0  0
  147.9934  138.7608  155.5990 N   0  0  0  0  0  0  0  0  0  0  0  0
  148.7339  139.8962  155.5225 C   0  0  0  0  0  0  0  0  0  0  0  0
  148.1158  141.2464  155.3247 C   0  0  0  0  0  0  0  0  0  0  0  0
  147.4355  141.7048  156.4729 O   0  0  0  0  0  0  0  0  0  0  0  0
  150.0524  139.7367  155.6389 N   0  0  0  0  0  0  0  0  0  0  0  0
  150.1809  138.3730  155.8149 C   0  0  0  0  0  0  0  0  0  0  0  0
  151.3319  137.5742  155.9996 C   0  0  0  0  0  0  0  0  0  0  0  0
  151.2134  136.1782  156.1621 C   0  0  0  0  0  0  0  0  0  0  0  0
  149.9453  135.5623  156.1425 C   0  0  0  0  0  0  0  0  0  0  0  0
  148.7854  136.3396  155.9594 C   0  0  0  0  0  0  0  0  0  0  0  0
  148.9097  137.7326  155.7970 C   0  0  0  0  0  0  0  0  0  0  0  0
  145.4840  136.2412  151.8880 C   0  0  0  0  0  0  0  0  0  0  0  0
  145.8990  135.6602  150.5241 C   0  0  0  0  0  0  0  0  0  0  0  0
  143.9990  133.7275  151.4295 H   0  0  0  0  0  0  0  0  0  0  0  0
  144.6614  132.3765  150.5187 H   0  0  0  0  0  0  0  0  0  0  0  0
  143.9999  133.7665  149.6712 H   0  0  0  0  0  0  0  0  0  0  0  0
  146.4567  133.8044  149.6178 H   0  0  0  0  0  0  0  0  0  0  0  0
  146.8462  132.5742  151.7874 H   0  0  0  0  0  0  0  0  0  0  0  0
  147.8837  133.9486  151.5203 H   0  0  0  0  0  0  0  0  0  0  0  0
  145.4191  133.9143  153.3356 H   0  0  0  0  0  0  0  0  0  0  0  0
  147.0929  133.9552  153.8317 H   0  0  0  0  0  0  0  0  0  0  0  0
  145.1063  136.1118  154.6299 H   0  0  0  0  0  0  0  0  0  0  0  0
  146.8062  136.0783  155.0191 H   0  0  0  0  0  0  0  0  0  0  0  0
  146.7801  138.2913  153.3930 H   0  0  0  0  0  0  0  0  0  0  0  0
  144.8764  139.1989  153.3357 H   0  0  0  0  0  0  0  0  0  0  0  0
  146.0640  139.5754  155.6466 H   0  0  0  0  0  0  0  0  0  0  0  0
  146.2237  137.9897  156.3463 H   0  0  0  0  0  0  0  0  0  0  0  0
  148.8960  141.9658  155.0736 H   0  0  0  0  0  0  0  0  0  0  0  0
  147.4298  141.2231  154.4783 H   0  0  0  0  0  0  0  0  0  0  0  0
  148.0294  142.2327  156.9839 H   0  0  0  0  0  0  0  0  0  0  0  0
  152.3079  138.0363  156.0172 H   0  0  0  0  0  0  0  0  0  0  0  0
  152.1000  135.5777  156.3037 H   0  0  0  0  0  0  0  0  0  0  0  0
  149.8640  134.4925  156.2693 H   0  0  0  0  0  0  0  0  0  0  0  0
  147.8130  135.8703  155.9455 H   0  0  0  0  0  0  0  0  0  0  0  0
  144.4524  135.9750  152.1224 H   0  0  0  0  0  0  0  0  0  0  0  0
  145.5210  137.3298  151.8313 H   0  0  0  0  0  0  0  0  0  0  0  0
  146.8782  136.0582  150.2546 H   0  0  0  0  0  0  0  0  0  0  0  0
  145.2122  135.9992  149.7477 H   0  0  0  0  0  0  0  0  0  0  0  0
  147.3125  136.0648  152.7142 H   0  0  0  0  0  0  0  0  0  0  0  0
  1  2  1  0  0  0  0
  1 23  1  0  0  0  0
  1 24  1  0  0  0  0
  1 25  1  0  0  0  0
  2 22  1  0  0  0  0
  2  3  1  0  0  0  0
  2 26  1  0  0  0  0
  3  4  1  0  0  0  0
  3 27  1  0  0  0  0
  3 28  1  0  0  0  0
  4  5  1  0  0  0  0
  4 29  1  0  0  0  0
  4 30  1  0  0  0  0
  5  6  1  0  0  0  0
  5 21  1  0  0  0  0
  5 48  1  0  0  0  0
  6  7  1  0  0  0  0
  6 31  1  0  0  0  0
  6 32  1  0  0  0  0
  7  8  1  0  0  0  0
  7  9  1  0  0  0  0
  7 33  1  0  0  0  0
  8 34  1  0  0  0  0
  9 10  1  0  0  0  0
  9 35  1  0  0  0  0
  9 36  1  0  0  0  0
 10 20  1  0  0  0  0
 10 11  1  0  0  0  0
 11 12  1  0  0  0  0
 11 14  2  0  0  0  0
 12 13  1  0  0  0  0
 12 37  1  0  0  0  0
 12 38  1  0  0  0  0
 13 39  1  0  0  0  0
 14 15  1  0  0  0  0
 15 20  2  0  0  0  0
 15 16  1  0  0  0  0
 16 17  2  0  0  0  0
 16 40  1  0  0  0  0
 17 18  1  0  0  0  0
 17 41  1  0  0  0  0
 18 19  2  0  0  0  0
 18 42  1  0  0  0  0
 19 20  1  0  0  0  0
 19 43  1  0  0  0  0
 21 22  1  0  0  0  0
 21 44  1  0  0  0  0
 21 45  1  0  0  0  0
 22 46  1  0  0  0  0
 22 47  1  0  0  0  0
M  CHG  1   5   1
M  END
> <s_m_source_file>
AV-unprocessed.smi

> <i_m_source_file_index>
1672

> <i_lp_mmshare_version>
43012

> <i_f3d_flags>
0

> <s_epik_input>
W0NIM11bQ0hdMVtDSDJdW0NIMl1OKFtDSDJdW0NIMl0xKVtDSDJdW0NASF0oW09IXSlbQ0gyXW4oYyhuMilbQ0gyXVtPSF0pYyhjMjMpW2NIXVtjSF1bY0hdW2NIXTM=

> <s_epik_cmdline>
J2VwaWtfcHl0aG9uJywgJy1waCcsICc3LjAnLCAnLXRuJywgJzgnLCAnLW1hJywgJzIwMCcsICctbWV0YWxfYmluZGluZycsICctaW1hZScsICc8aW5maWxlLm1hZT4nLCAnLW9tYWUnLCAnPG91dGZpbGUubWFlPic=

> <r_epik_Ionization_Penalty>
0.0498263

> <r_epik_Ionization_Penalty_Charging>
0.00181365

> <r_epik_Ionization_Penalty_Neutral>
0.0480127

> <r_epik_State_Penalty>
0.0408546

> <r_epik_Charging_Adjusted_Penalty>
0.0426682

> <i_epik_Tot_Q>
1

> <i_epik_Tot_abs_Q>
1

> <r_epik_Metal_State_Penalty>
4.22946e-05

> <b_epik_Metal_Only>
0

> <s_lp_Force_Field>
OPLS_2005

> <r_lp_Energy>
24.4653

> <b_lp_Chiralities_Consistent>
1

> <s_lp_Variant>
AV-unprocessed.smi:1672-4

> <Gold.Version>
5.8.1

> <Gold.Id.Protein>
6NUR|6NUR_protein|mol2

> <Gold.PLP.Fitness>
47.3268

> <Gold.PLP.PLP>
-34.8049

> <Gold.PLP.part.hbond>
-4.0000

> <Gold.PLP.part.metal>
0.0000

> <Gold.PLP.part.buried>
-4.3436

> <Gold.PLP.part.nonpolar>
-28.1834

> <Gold.PLP.part.repulsive>
0.1267

> <Gold.PLP.ligand.clash>
0.0000

> <Gold.PLP.ligand.torsion>
0.9894

> <Gold.PLP.Chemscore.Hbond>
4.8080

> <Gold.PLP.Chemscore.CHOScore>
0.0000

> <Gold.PLP.Chemscore.Metal>
0.0000

> <Gold.Chemscore.Hbonds>
donor molecule, donor type, donor heavy atom, donor atom, acceptor molecule, acceptor atom, score
      L1  H     5    48       P1  7948  2.00
      L1  H     8    34       P1 10175  0.74

> <Gold.PLP.Chemscore.Internal.Correction>
0.0768

> <Gold.Rescore>
     Score         DG    S(hbond)    S(metal)    S(lipo)     H(rot)  DE(clash)    DE(int)     intcor
     15.46     -16.78       2.79        0.00      80.03       2.88       0.21       1.12       ----

> <Gold.Chemscore.Fitness>
15.4561

> <Gold.Chemscore.DG>
-16.7787

> <Gold.Chemscore.ZeroCoef>
-5.4800

> <Gold.Chemscore.Hbond>
2.7850

> <Gold.Chemscore.Metal>
0.0000

> <Gold.Chemscore.Lipo>
80.0321

> <Gold.Chemscore.Internal_Hbond>
0.0000

> <Gold.Chemscore.DEClash>
0.2072

> <Gold.Chemscore.DEInternal>
1.1155

> <Gold.Chemscore.Rot>
2.8778

> <Gold.Chemscore.Internal.Correction>
   9.000000E+99

> <Gold.Chemscore.Hbonds>
donor molecule, donor type, donor heavy atom, donor atom, acceptor molecule, acceptor atom, score
      L1  H     5    48       P1  7948  1.00
      L1  H     8    34       P1 10175  0.73

> <Gold.Chemscore.Hbond.Weighted>
-9.3020

> <Gold.Chemscore.Metal.Weighted>
-0.0000

> <Gold.Chemscore.Lipo.Weighted>
-9.3638

> <Gold.Chemscore.Internal_Hbond.Weighted>
0.0000

> <Gold.Chemscore.DEClash.Weighted>
0.2072

> <Gold.Chemscore.DEInternal.Weighted>
1.1155

> <Gold.Chemscore.Rot.Weighted>
7.3671

> <Gold.Chemscore.Internal.Correction.Weighted>
   9.000000E+99

> <Gold.Protein.RotatedTorsions>
[ 6907 6896 6895 6894 ] final   37.69 input  -60.11 | X-H torsion
[ 7974 7965 7964 7962 ] final  114.81 input  175.53 | X-H torsion
[ 8008 7997 7996 7995 ] final   99.32 input   59.86 | X-H torsion
[ 10167 10162 10161 10158 ] final -164.41 input  -65.29 | X-H torsion
[ 10718 10713 10712 10709 ] final -115.51 input   66.30 | X-H torsion
[ 10763 10752 10751 10750 ] final  110.98 input  -60.55 | X-H torsion
[ 11005 11000 10999 10996 ] final  -33.33 input  -57.11 | X-H torsion

> <Gold.Protein.ActiveResidues>
 VAL166  LYS551  ARG553  GLY616  TRP617  ASP618  TYR619  PRO620  LYS621  CYS622 
 ASP623  PHE694  ASN695  SER759  ASP760  ASP761  ALA762  ILE779  LEU786  VAL792 
 PHE793  MET794  SER795  GLU796  ALA797  LYS798  CYS799  TRP800  GLU811  SER814 

> <Gold.Protein.RotatedAtoms>
  152.1465  134.9021  160.0550 H   0  0  0  0  0  0  0  0  0  0  0  0  # atno 6907 bound_to 6896
  152.0069  133.3842  159.4212 H   0  0  0  0  0  0  0  0  0  0  0  0  # atno 6908 bound_to 6896
  150.6871  134.3694  159.5029 H   0  0  0  0  0  0  0  0  0  0  0  0  # atno 6909 bound_to 6896
  145.1998  139.2958  143.4324 H   0  0  0  0  0  0  0  0  0  0  0  0  # atno 7974 bound_to 7965
  156.1093  140.3230  155.8051 H   0  0  0  0  0  0  0  0  0  0  0  0  # atno 8008 bound_to 7997
  155.4700  140.0546  157.2998 H   0  0  0  0  0  0  0  0  0  0  0  0  # atno 8009 bound_to 7997
  154.4749  140.2028  155.9917 H   0  0  0  0  0  0  0  0  0  0  0  0  # atno 8010 bound_to 7997
  139.6252  144.0546  152.1968 H   0  0  0  0  0  0  0  0  0  0  0  0  # atno 10167 bound_to 10162
  156.0901  130.6085  150.8915 H   0  0  0  0  0  0  0  0  0  0  0  0  # atno 10718 bound_to 10713
  153.4568  135.3731  155.2315 H   0  0  0  0  0  0  0  0  0  0  0  0  # atno 10763 bound_to 10752
  154.8757  135.3899  154.3973 H   0  0  0  0  0  0  0  0  0  0  0  0  # atno 10764 bound_to 10752
  153.4540  135.7086  153.6155 H   0  0  0  0  0  0  0  0  0  0  0  0  # atno 10765 bound_to 10752
  140.9626  133.7156  156.1393 H   0  0  0  0  0  0  0  0  0  0  0  0  # atno 11005 bound_to 11000
  146.3420  140.2238  142.8592 LP  0  0  0  0  0  0  0  0  0  0  0  0  # atno 17320 bound_to 7965
  144.9959  140.8589  143.5311 LP  0  0  0  0  0  0  0  0  0  0  0  0  # atno 17321 bound_to 7965
  140.0197  144.6162  150.7577 LP  0  0  0  0  0  0  0  0  0  0  0  0  # atno 17342 bound_to 10162
  140.7407  143.2808  151.3606 LP  0  0  0  0  0  0  0  0  0  0  0  0  # atno 17343 bound_to 10162
  157.6047  131.0939  150.8900 LP  0  0  0  0  0  0  0  0  0  0  0  0  # atno 17370 bound_to 10713
  156.9050  130.5260  149.5281 LP  0  0  0  0  0  0  0  0  0  0  0  0  # atno 17371 bound_to 10713
  140.7446  134.4112  157.5550 LP  0  0  0  0  0  0  0  0  0  0  0  0  # atno 17394 bound_to 11000
  139.8883  134.8859  156.2481 LP  0  0  0  0  0  0  0  0  0  0  0  0  # atno 17395 bound_to 11000

$$$$
