AV-unprocessed.smi:3280|AV-procd|sdf|12554|dock8
  -GOLD-   2272018473D 1   1.00000     0.00000
 Structure written by MMmdl.
 38 39  0  0  0  0  0  0  0  0  1 V2000
  146.5242  138.5546  154.2927 C   0  0  0  0  0  0  0  0  0  0  0  0
  147.0825  139.9278  153.8911 C   0  0  0  0  0  0  0  0  0  0  0  0
  147.0068  140.1862  152.3788 C   0  0  0  0  0  0  0  0  0  0  0  0
  148.4671  140.1380  154.4229 C   0  0  0  0  0  0  0  0  0  0  0  0
  149.4872  139.4008  153.9983 N   0  0  0  0  0  0  0  0  0  0  0  0
  150.5807  139.9195  154.7062 O   0  0  0  0  0  0  0  0  0  0  0  0
  150.0796  140.9028  155.4917 C   0  0  0  0  0  0  0  0  0  0  0  0
  151.0161  141.6956  156.3403 C   0  0  0  0  0  0  0  0  0  0  0  0
  151.6309  140.8536  157.4653 C   0  0  0  0  0  0  0  0  0  0  0  0
  152.6175  141.6449  158.1877 N   0  0  0  0  0  0  0  0  0  0  0  0
  151.9982  142.7033  158.9779 C   0  0  2  0  0  0  0  0  0  0  0  0
  151.8030  143.9802  158.1285 C   0  0  0  0  0  0  0  0  0  0  0  0
  151.1478  145.1219  158.9227 C   0  0  0  0  0  0  0  0  0  0  0  0
  151.9855  145.5534  160.1339 C   0  0  0  0  0  0  0  0  0  0  0  0
  152.1770  144.1913  161.3145 S   0  0  0  0  0  0  0  0  0  0  0  0
  152.9075  142.9686  160.1920 C   0  0  0  0  0  0  0  0  0  0  0  0
  148.7713  141.0944  155.3450 N   0  0  0  0  0  0  0  0  0  0  0  0
  146.5279  138.4319  155.3763 H   0  0  0  0  0  0  0  0  0  0  0  0
  147.1151  137.7446  153.8636 H   0  0  0  0  0  0  0  0  0  0  0  0
  145.4964  138.4331  153.9501 H   0  0  0  0  0  0  0  0  0  0  0  0
  146.4375  140.6715  154.3623 H   0  0  0  0  0  0  0  0  0  0  0  0
  147.3451  141.1941  152.1357 H   0  0  0  0  0  0  0  0  0  0  0  0
  145.9842  140.0844  152.0146 H   0  0  0  0  0  0  0  0  0  0  0  0
  147.6280  139.4827  151.8236 H   0  0  0  0  0  0  0  0  0  0  0  0
  151.7996  142.1068  155.7023 H   0  0  0  0  0  0  0  0  0  0  0  0
  150.4719  142.5442  156.7572 H   0  0  0  0  0  0  0  0  0  0  0  0
  150.8446  140.5147  158.1392 H   0  0  0  0  0  0  0  0  0  0  0  0
  152.1072  139.9674  157.0437 H   0  0  0  0  0  0  0  0  0  0  0  0
  153.1304  141.0327  158.8063 H   0  0  0  0  0  0  0  0  0  0  0  0
  151.0328  142.3521  159.3461 H   0  0  0  0  0  0  0  0  0  0  0  0
  152.7635  144.3153  157.7346 H   0  0  0  0  0  0  0  0  0  0  0  0
  151.1761  143.7716  157.2622 H   0  0  0  0  0  0  0  0  0  0  0  0
  151.0026  145.9787  158.2640 H   0  0  0  0  0  0  0  0  0  0  0  0
  150.1532  144.8185  159.2516 H   0  0  0  0  0  0  0  0  0  0  0  0
  152.9725  145.8892  159.8140 H   0  0  0  0  0  0  0  0  0  0  0  0
  151.5105  146.3927  160.6422 H   0  0  0  0  0  0  0  0  0  0  0  0
  153.0732  142.0497  160.7558 H   0  0  0  0  0  0  0  0  0  0  0  0
  153.8864  143.3277  159.8712 H   0  0  0  0  0  0  0  0  0  0  0  0
  1  2  1  0  0  0  0
  1 18  1  0  0  0  0
  1 19  1  0  0  0  0
  1 20  1  0  0  0  0
  2  3  1  0  0  0  0
  2  4  1  0  0  0  0
  2 21  1  0  0  0  0
  3 22  1  0  0  0  0
  3 23  1  0  0  0  0
  3 24  1  0  0  0  0
  4 17  1  0  0  0  0
  4  5  2  0  0  0  0
  5  6  1  0  0  0  0
  6  7  1  0  0  0  0
  7  8  1  0  0  0  0
  7 17  2  0  0  0  0
  8  9  1  0  0  0  0
  8 25  1  0  0  0  0
  8 26  1  0  0  0  0
  9 10  1  0  0  0  0
  9 27  1  0  0  0  0
  9 28  1  0  0  0  0
 10 11  1  0  0  0  0
 10 29  1  0  0  0  0
 11 16  1  0  0  0  0
 11 12  1  0  0  0  0
 11 30  1  0  0  0  0
 12 13  1  0  0  0  0
 12 31  1  0  0  0  0
 12 32  1  0  0  0  0
 13 14  1  0  0  0  0
 13 33  1  0  0  0  0
 13 34  1  0  0  0  0
 14 15  1  0  0  0  0
 14 35  1  0  0  0  0
 14 36  1  0  0  0  0
 15 16  1  0  0  0  0
 16 37  1  0  0  0  0
 16 38  1  0  0  0  0
M  END
> <s_m_source_file>
AV-unprocessed.smi

> <i_m_source_file_index>
3280

> <i_lp_mmshare_version>
43012

> <i_f3d_flags>
0

> <s_epik_input>
W0NIM11bQ0hdKFtDSDNdKWMxbm9jKG4xKVtDSDJdW0NIMl1bTkhdW0NAQEhdMltDSDJdW0NIMl1bQ0gyXVNbQ0gyXTI=

> <s_epik_cmdline>
J2VwaWtfcHl0aG9uJywgJy1waCcsICc3LjAnLCAnLXRuJywgJzgnLCAnLW1hJywgJzIwMCcsICctbWV0YWxfYmluZGluZycsICctaW1hZScsICc8aW5maWxlLm1hZT4nLCAnLW9tYWUnLCAnPG91dGZpbGUubWFlPic=

> <r_lp_tautomer_probability>
1

> <r_epik_Ionization_Penalty>
2.40576

> <r_epik_Ionization_Penalty_Charging>
0

> <r_epik_Ionization_Penalty_Neutral>
2.40576

> <r_epik_State_Penalty>
2.56401

> <r_epik_Charging_Adjusted_Penalty>
2.56401

> <i_epik_Tot_Q>
0

> <i_epik_Tot_abs_Q>
0

> <r_epik_Metal_State_Penalty>
2.56401

> <b_epik_Metal_Only>
0

> <s_lp_Force_Field>
OPLS_2005

> <r_lp_Energy>
1.17925

> <b_lp_Chiralities_Consistent>
1

> <s_lp_Variant>
AV-unprocessed.smi:3280-3

> <Gold.Version>
5.8.1

> <Gold.Id.Protein>
6NUR|6NUR_protein|mol2

> <Gold.PLP.Fitness>
38.5290

> <Gold.PLP.PLP>
-36.3164

> <Gold.PLP.part.hbond>
-1.0000

> <Gold.PLP.part.metal>
0.0000

> <Gold.PLP.part.buried>
-1.6577

> <Gold.PLP.part.nonpolar>
-34.0939

> <Gold.PLP.part.repulsive>
1.4490

> <Gold.PLP.ligand.clash>
0.0000

> <Gold.PLP.ligand.torsion>
0.4433

> <Gold.PLP.Chemscore.Hbond>
1.0000

> <Gold.PLP.Chemscore.CHOScore>
0.0000

> <Gold.PLP.Chemscore.Metal>
0.0000

> <Gold.Chemscore.Hbonds>
donor molecule, donor type, donor heavy atom, donor atom, acceptor molecule, acceptor atom, score
      P1  H  7989  7998       L1     6  1.00

> <Gold.PLP.Chemscore.Internal.Correction>
0.0993

> <Gold.Rescore>
     Score         DG    S(hbond)    S(metal)    S(lipo)     H(rot)  DE(clash)    DE(int)     intcor
     13.78     -14.58       0.63        0.00      96.60       1.68       0.16       0.65       ----

> <Gold.Chemscore.Fitness>
13.7767

> <Gold.Chemscore.DG>
-14.5823

> <Gold.Chemscore.ZeroCoef>
-5.4800

> <Gold.Chemscore.Hbond>
0.6316

> <Gold.Chemscore.Metal>
0.0000

> <Gold.Chemscore.Lipo>
96.5981

> <Gold.Chemscore.Internal_Hbond>
0.0000

> <Gold.Chemscore.DEClash>
0.1555

> <Gold.Chemscore.DEInternal>
0.6501

> <Gold.Chemscore.Rot>
1.6833

> <Gold.Chemscore.Internal.Correction>
   9.000000E+99

> <Gold.Chemscore.Hbonds>
donor molecule, donor type, donor heavy atom, donor atom, acceptor molecule, acceptor atom, score
      P1  H  7989  7998       L1     6  0.21

> <Gold.Chemscore.Hbond.Weighted>
-2.1095

> <Gold.Chemscore.Metal.Weighted>
-0.0000

> <Gold.Chemscore.Lipo.Weighted>
-11.3020

> <Gold.Chemscore.Internal_Hbond.Weighted>
0.0000

> <Gold.Chemscore.DEClash.Weighted>
0.1555

> <Gold.Chemscore.DEInternal.Weighted>
0.6501

> <Gold.Chemscore.Rot.Weighted>
4.3092

> <Gold.Chemscore.Internal.Correction.Weighted>
   9.000000E+99

> <Gold.Protein.RotatedTorsions>
[ 6907 6896 6895 6894 ] final   44.35 input  -60.11 | X-H torsion
[ 7974 7965 7964 7962 ] final  -46.31 input  175.53 | X-H torsion
[ 8008 7997 7996 7995 ] final  152.24 input   59.86 | X-H torsion
[ 10167 10162 10161 10158 ] final   43.38 input  -65.29 | X-H torsion
[ 10718 10713 10712 10709 ] final  -36.99 input   66.30 | X-H torsion
[ 10763 10752 10751 10750 ] final  145.80 input  -60.55 | X-H torsion
[ 11005 11000 10999 10996 ] final  143.85 input  -57.11 | X-H torsion

> <Gold.Protein.ActiveResidues>
 VAL166  LYS551  ARG553  GLY616  TRP617  ASP618  TYR619  PRO620  LYS621  CYS622 
 ASP623  PHE694  ASN695  SER759  ASP760  ASP761  ALA762  ILE779  LEU786  VAL792 
 PHE793  MET794  SER795  GLU796  ALA797  LYS798  CYS799  TRP800  GLU811  SER814 

> <Gold.Protein.RotatedAtoms>
  152.2314  134.8318  160.0472 H   0  0  0  0  0  0  0  0  0  0  0  0  # atno 6907 bound_to 6896
  151.9066  133.3545  159.3857 H   0  0  0  0  0  0  0  0  0  0  0  0  # atno 6908 bound_to 6896
  150.7027  134.4700  159.5465 H   0  0  0  0  0  0  0  0  0  0  0  0  # atno 6909 bound_to 6896
  145.9732  140.7361  142.9400 H   0  0  0  0  0  0  0  0  0  0  0  0  # atno 7974 bound_to 7965
  156.2638  140.2026  156.6302 H   0  0  0  0  0  0  0  0  0  0  0  0  # atno 8008 bound_to 7997
  154.6689  140.0552  157.0168 H   0  0  0  0  0  0  0  0  0  0  0  0  # atno 8009 bound_to 7997
  155.1166  140.3220  155.4510 H   0  0  0  0  0  0  0  0  0  0  0  0  # atno 8010 bound_to 7997
  140.3449  144.2423  150.6151 H   0  0  0  0  0  0  0  0  0  0  0  0  # atno 10167 bound_to 10162
  156.3204  130.4265  149.7965 H   0  0  0  0  0  0  0  0  0  0  0  0  # atno 10718 bound_to 10713
  154.0113  135.2914  155.3392 H   0  0  0  0  0  0  0  0  0  0  0  0  # atno 10763 bound_to 10752
  154.7101  135.5153  153.8657 H   0  0  0  0  0  0  0  0  0  0  0  0  # atno 10764 bound_to 10752
  153.0722  135.6651  154.0344 H   0  0  0  0  0  0  0  0  0  0  0  0  # atno 10765 bound_to 10752
  140.0586  134.9217  157.1144 H   0  0  0  0  0  0  0  0  0  0  0  0  # atno 11005 bound_to 11000
  144.6842  140.2784  143.7296 LP  0  0  0  0  0  0  0  0  0  0  0  0  # atno 17320 bound_to 7965
  145.7876  139.1915  143.2121 LP  0  0  0  0  0  0  0  0  0  0  0  0  # atno 17321 bound_to 7965
  140.5274  143.2251  151.8293 LP  0  0  0  0  0  0  0  0  0  0  0  0  # atno 17342 bound_to 10162
  139.4835  144.4763  151.9363 LP  0  0  0  0  0  0  0  0  0  0  0  0  # atno 17343 bound_to 10162
  156.5275  130.8243  151.3225 LP  0  0  0  0  0  0  0  0  0  0  0  0  # atno 17370 bound_to 10713
  157.7410  130.9862  150.2419 LP  0  0  0  0  0  0  0  0  0  0  0  0  # atno 17371 bound_to 10713
  140.3805  134.2292  155.7171 LP  0  0  0  0  0  0  0  0  0  0  0  0  # atno 17394 bound_to 11000
  141.1963  133.8085  157.0677 LP  0  0  0  0  0  0  0  0  0  0  0  0  # atno 17395 bound_to 11000

$$$$
