AV-unprocessed.smi:3031|AV-procd|sdf|11553|dock7
  -GOLD-   2272016513D 1   1.00000     0.00000
 Structure written by MMmdl.
 46 47  0  0  0  0  0  0  0  0  1 V2000
  143.8871  132.4214  149.7978 C   0  0  0  0  0  0  0  0  0  0  0  0
  144.1001  133.6225  150.6732 C   0  0  0  0  0  0  0  0  0  0  0  0
  143.5788  133.8546  151.9775 C   0  0  0  0  0  0  0  0  0  0  0  0
  143.9566  135.0170  152.4835 N   0  0  0  0  0  0  0  0  0  0  0  0
  144.7325  135.5655  151.5249 N   0  0  0  0  0  0  0  0  0  0  0  0
  145.3370  136.8682  151.7414 C   0  0  0  0  0  0  0  0  0  0  0  0
  145.9635  137.0037  153.1435 C   0  0  2  0  0  0  0  0  0  0  0  0
  144.9053  137.4505  154.1685 C   0  0  0  0  0  0  0  0  0  0  0  0
  147.1016  137.9286  153.0981 N   0  0  0  0  0  0  0  0  0  0  0  0
  147.5718  138.4136  154.3954 C   0  0  0  0  0  0  0  0  0  0  0  0
  148.4946  139.6340  154.2368 C   0  0  2  0  0  0  0  0  0  0  0  0
  148.0298  140.4290  153.1664 O   0  0  0  0  0  0  0  0  0  0  0  0
  150.0078  139.3708  154.0388 C   0  0  0  0  0  0  0  0  0  0  0  0
  150.7886  139.0273  155.2340 N   0  0  0  0  0  0  0  0  0  0  0  0
  150.9548  140.1586  156.1480 C   0  0  0  0  0  0  0  0  0  0  0  0
  151.7982  139.7870  157.3796 C   0  0  0  0  0  0  0  0  0  0  0  0
  153.0675  139.2992  156.9597 O   0  0  0  0  0  0  0  0  0  0  0  0
  152.9618  138.1734  156.0954 C   0  0  0  0  0  0  0  0  0  0  0  0
  152.1178  138.5474  154.8645 C   0  0  0  0  0  0  0  0  0  0  0  0
  144.8331  134.7473  150.4198 C   0  0  0  0  0  0  0  0  0  0  0  0
  144.3437  131.5284  150.2246 H   0  0  0  0  0  0  0  0  0  0  0  0
  144.3179  132.5595  148.8057 H   0  0  0  0  0  0  0  0  0  0  0  0
  142.8271  132.2073  149.6604 H   0  0  0  0  0  0  0  0  0  0  0  0
  142.9404  133.2147  152.5688 H   0  0  0  0  0  0  0  0  0  0  0  0
  146.0876  137.0394  150.9682 H   0  0  0  0  0  0  0  0  0  0  0  0
  144.5648  137.6253  151.5974 H   0  0  0  0  0  0  0  0  0  0  0  0
  146.3208  136.0176  153.4435 H   0  0  0  0  0  0  0  0  0  0  0  0
  144.0413  136.7858  154.1482 H   0  0  0  0  0  0  0  0  0  0  0  0
  144.5496  138.4596  153.9577 H   0  0  0  0  0  0  0  0  0  0  0  0
  145.2898  137.4345  155.1879 H   0  0  0  0  0  0  0  0  0  0  0  0
  147.8720  137.4867  152.6063 H   0  0  0  0  0  0  0  0  0  0  0  0
  146.7438  138.6524  155.0598 H   0  0  0  0  0  0  0  0  0  0  0  0
  148.1301  137.6194  154.8928 H   0  0  0  0  0  0  0  0  0  0  0  0
  148.3870  140.2437  155.1349 H   0  0  0  0  0  0  0  0  0  0  0  0
  148.4747  140.1538  152.3791 H   0  0  0  0  0  0  0  0  0  0  0  0
  150.0762  138.5467  153.3267 H   0  0  0  0  0  0  0  0  0  0  0  0
  150.4689  140.2177  153.5287 H   0  0  0  0  0  0  0  0  0  0  0  0
  151.4327  140.9890  155.6260 H   0  0  0  0  0  0  0  0  0  0  0  0
  149.9949  140.5283  156.4935 H   0  0  0  0  0  0  0  0  0  0  0  0
  151.9447  140.6600  158.0156 H   0  0  0  0  0  0  0  0  0  0  0  0
  151.2906  139.0323  157.9822 H   0  0  0  0  0  0  0  0  0  0  0  0
  153.9612  137.8629  155.7904 H   0  0  0  0  0  0  0  0  0  0  0  0
  152.5139  137.3349  156.6309 H   0  0  0  0  0  0  0  0  0  0  0  0
  152.0291  137.6738  154.2176 H   0  0  0  0  0  0  0  0  0  0  0  0
  152.6403  139.3115  154.2865 H   0  0  0  0  0  0  0  0  0  0  0  0
  145.4159  135.0286  149.5551 H   0  0  0  0  0  0  0  0  0  0  0  0
  1  2  1  0  0  0  0
  1 21  1  0  0  0  0
  1 22  1  0  0  0  0
  1 23  1  0  0  0  0
  2 20  2  0  0  0  0
  2  3  1  0  0  0  0
  3  4  2  0  0  0  0
  3 24  1  0  0  0  0
  4  5  1  0  0  0  0
  5  6  1  0  0  0  0
  5 20  1  0  0  0  0
  6  7  1  0  0  0  0
  6 25  1  0  0  0  0
  6 26  1  0  0  0  0
  7  8  1  0  0  0  0
  7  9  1  0  0  0  0
  7 27  1  0  0  0  0
  8 28  1  0  0  0  0
  8 29  1  0  0  0  0
  8 30  1  0  0  0  0
  9 10  1  0  0  0  0
  9 31  1  0  0  0  0
 10 11  1  0  0  0  0
 10 32  1  0  0  0  0
 10 33  1  0  0  0  0
 11 12  1  0  0  0  0
 11 13  1  0  0  0  0
 11 34  1  0  0  0  0
 12 35  1  0  0  0  0
 13 14  1  0  0  0  0
 13 36  1  0  0  0  0
 13 37  1  0  0  0  0
 14 19  1  0  0  0  0
 14 15  1  0  0  0  0
 15 16  1  0  0  0  0
 15 38  1  0  0  0  0
 15 39  1  0  0  0  0
 16 17  1  0  0  0  0
 16 40  1  0  0  0  0
 16 41  1  0  0  0  0
 17 18  1  0  0  0  0
 18 19  1  0  0  0  0
 18 42  1  0  0  0  0
 18 43  1  0  0  0  0
 19 44  1  0  0  0  0
 19 45  1  0  0  0  0
 20 46  1  0  0  0  0
M  END
> <s_m_source_file>
AV-unprocessed.smi

> <i_m_source_file_index>
3031

> <i_lp_mmshare_version>
43012

> <i_f3d_flags>
0

> <s_epik_input>
W0NIM11jMVtjSF1ubihbY0hdMSlbQ0gyXVtDQEhdKFtDSDNdKVtOSF1bQ0gyXVtDQEhdKFtPSF0pW0NIMl1OMltDSDJdW0NIMl1PW0NIMl1bQ0gyXTI=

> <s_epik_cmdline>
J2VwaWtfcHl0aG9uJywgJy1waCcsICc3LjAnLCAnLXRuJywgJzgnLCAnLW1hJywgJzIwMCcsICctbWV0YWxfYmluZGluZycsICctaW1hZScsICc8aW5maWxlLm1hZT4nLCAnLW9tYWUnLCAnPG91dGZpbGUubWFlPic=

> <r_lp_tautomer_probability>
1

> <r_epik_Ionization_Penalty>
2.8101

> <r_epik_Ionization_Penalty_Charging>
0

> <r_epik_Ionization_Penalty_Neutral>
2.8101

> <r_epik_State_Penalty>
2.12351

> <r_epik_Charging_Adjusted_Penalty>
2.12351

> <i_epik_Tot_Q>
0

> <i_epik_Tot_abs_Q>
0

> <r_epik_Metal_State_Penalty>
2.12345

> <b_epik_Metal_Only>
0

> <s_lp_Force_Field>
OPLS_2005

> <r_lp_Energy>
35.4854

> <b_lp_Chiralities_Consistent>
1

> <s_lp_Variant>
AV-unprocessed.smi:3031-13

> <Gold.Version>
5.8.1

> <Gold.Id.Protein>
6NUR|6NUR_protein|mol2

> <Gold.PLP.Fitness>
45.3608

> <Gold.PLP.PLP>
-32.7734

> <Gold.PLP.part.hbond>
-2.8245

> <Gold.PLP.part.metal>
0.0000

> <Gold.PLP.part.buried>
-1.4106

> <Gold.PLP.part.nonpolar>
-28.7106

> <Gold.PLP.part.repulsive>
0.1598

> <Gold.PLP.ligand.clash>
0.0000

> <Gold.PLP.ligand.torsion>
1.2685

> <Gold.PLP.Chemscore.Hbond>
3.0000

> <Gold.PLP.Chemscore.CHOScore>
1.9996

> <Gold.PLP.Chemscore.Metal>
0.0000

> <Gold.Chemscore.Hbonds>
donor molecule, donor type, donor heavy atom, donor atom, acceptor molecule, acceptor atom, score
      L1  H     9    31       P1  7948  1.00
      L1  H    12    35       P1  7957  1.00
      P1  H  7997  8010       L1    17  1.00
      L1  C     3    24       P1 10957  0.72
      L1  C    20    46       P1  7921  1.00

> <Gold.PLP.Chemscore.Internal.Correction>
0.1257

> <Gold.Rescore>
     Score         DG    S(hbond)    S(metal)    S(lipo)     H(rot)  DE(clash)    DE(int)     intcor
     16.61     -18.23       2.93        0.00      80.82       2.53       0.14       1.48       ----

> <Gold.Chemscore.Fitness>
16.6134

> <Gold.Chemscore.DG>
-18.2337

> <Gold.Chemscore.ZeroCoef>
-5.4800

> <Gold.Chemscore.Hbond>
2.9289

> <Gold.Chemscore.Metal>
0.0000

> <Gold.Chemscore.Lipo>
80.8240

> <Gold.Chemscore.Internal_Hbond>
0.0000

> <Gold.Chemscore.DEClash>
0.1373

> <Gold.Chemscore.DEInternal>
1.4829

> <Gold.Chemscore.Rot>
2.5333

> <Gold.Chemscore.Internal.Correction>
   9.000000E+99

> <Gold.Chemscore.Hbonds>
donor molecule, donor type, donor heavy atom, donor atom, acceptor molecule, acceptor atom, score
      L1  H     9    31       P1  7948  1.00
      L1  H    12    35       P1  7957  1.00
      P1  H  7997  8010       L1    17  0.49

> <Gold.Chemscore.Hbond.Weighted>
-9.7825

> <Gold.Chemscore.Metal.Weighted>
-0.0000

> <Gold.Chemscore.Lipo.Weighted>
-9.4564

> <Gold.Chemscore.Internal_Hbond.Weighted>
0.0000

> <Gold.Chemscore.DEClash.Weighted>
0.1373

> <Gold.Chemscore.DEInternal.Weighted>
1.4829

> <Gold.Chemscore.Rot.Weighted>
6.4852

> <Gold.Chemscore.Internal.Correction.Weighted>
   9.000000E+99

> <Gold.Protein.RotatedTorsions>
[ 6907 6896 6895 6894 ] final   36.64 input  -60.11 | X-H torsion
[ 7974 7965 7964 7962 ] final    1.38 input  175.53 | X-H torsion
[ 8008 7997 7996 7995 ] final   72.14 input   59.86 | X-H torsion
[ 10167 10162 10161 10158 ] final  -44.40 input  -65.29 | X-H torsion
[ 10718 10713 10712 10709 ] final  110.17 input   66.30 | X-H torsion
[ 10763 10752 10751 10750 ] final   88.69 input  -60.55 | X-H torsion
[ 11005 11000 10999 10996 ] final    9.49 input  -57.11 | X-H torsion

> <Gold.Protein.ActiveResidues>
 VAL166  LYS551  ARG553  GLY616  TRP617  ASP618  TYR619  PRO620  LYS621  CYS622 
 ASP623  PHE694  ASN695  SER759  ASP760  ASP761  ALA762  ILE779  LEU786  VAL792 
 PHE793  MET794  SER795  GLU796  ALA797  LYS798  CYS799  TRP800  GLU811  SER814 

> <Gold.Protein.RotatedAtoms>
  152.1325  134.9124  160.0557 H   0  0  0  0  0  0  0  0  0  0  0  0  # atno 6907 bound_to 6896
  152.0223  133.3898  159.4271 H   0  0  0  0  0  0  0  0  0  0  0  0  # atno 6908 bound_to 6896
  150.6857  134.3534  159.4962 H   0  0  0  0  0  0  0  0  0  0  0  0  # atno 6909 bound_to 6896
  146.2440  140.0996  142.8348 H   0  0  0  0  0  0  0  0  0  0  0  0  # atno 7974 bound_to 7965
  155.7645  140.3486  155.5215 H   0  0  0  0  0  0  0  0  0  0  0  0  # atno 8008 bound_to 7997
  155.8882  140.1013  157.1458 H   0  0  0  0  0  0  0  0  0  0  0  0  # atno 8009 bound_to 7997
  154.4031  140.1309  156.4269 H   0  0  0  0  0  0  0  0  0  0  0  0  # atno 8010 bound_to 7997
  140.6898  143.2932  151.3490 H   0  0  0  0  0  0  0  0  0  0  0  0  # atno 10167 bound_to 10162
  157.6507  131.0927  150.6562 H   0  0  0  0  0  0  0  0  0  0  0  0  # atno 10718 bound_to 10713
  153.1794  135.4498  155.0008 H   0  0  0  0  0  0  0  0  0  0  0  0  # atno 10763 bound_to 10752
  154.8020  135.3259  154.7529 H   0  0  0  0  0  0  0  0  0  0  0  0  # atno 10764 bound_to 10752
  153.7996  135.6963  153.4913 H   0  0  0  0  0  0  0  0  0  0  0  0  # atno 10765 bound_to 10752
  140.5251  134.0521  155.7856 H   0  0  0  0  0  0  0  0  0  0  0  0  # atno 11005 bound_to 11000
  145.0580  140.9067  143.4956 LP  0  0  0  0  0  0  0  0  0  0  0  0  # atno 17320 bound_to 7965
  145.1106  139.2760  143.5639 LP  0  0  0  0  0  0  0  0  0  0  0  0  # atno 17321 bound_to 7965
  139.6290  144.0758  152.2460 LP  0  0  0  0  0  0  0  0  0  0  0  0  # atno 17342 bound_to 10162
  140.0226  144.6141  150.7554 LP  0  0  0  0  0  0  0  0  0  0  0  0  # atno 17343 bound_to 10162
  156.6874  130.4585  149.5610 LP  0  0  0  0  0  0  0  0  0  0  0  0  # atno 17370 bound_to 10713
  156.1886  130.6545  151.1035 LP  0  0  0  0  0  0  0  0  0  0  0  0  # atno 17371 bound_to 10713
  141.1313  133.9298  157.2530 LP  0  0  0  0  0  0  0  0  0  0  0  0  # atno 17394 bound_to 11000
  139.9584  135.0160  156.9194 LP  0  0  0  0  0  0  0  0  0  0  0  0  # atno 17395 bound_to 11000

$$$$
