AV-unprocessed.smi:870|AV-procd|sdf|4010|dock6
  -GOLD-   22720 1503D 1   1.00000     0.00000
 Structure written by MMmdl.
 47 49  0  0  0  0  0  0  0  0  2 V2000
  147.7053  141.9234  154.4040 C   0  0  0  0  0  0  0  0  0  0  0  0
  149.0720  141.6998  154.1042 O   0  0  0  0  0  0  0  0  0  0  0  0
  149.6777  140.7733  154.9911 C   0  0  0  0  0  0  0  0  0  0  0  0
  150.4404  141.4574  156.0781 C   0  0  0  0  0  0  0  0  0  0  0  0
  150.4847  142.8010  156.3051 N   0  3  0  0  0  0  0  0  0  0  0  0
  151.2967  143.0684  157.4080 C   0  0  0  0  0  0  0  0  0  0  0  0
  151.6420  144.2711  158.0167 C   0  0  0  0  0  0  0  0  0  0  0  0
  152.4974  144.1912  159.1353 C   0  0  0  0  0  0  0  0  0  0  0  0
  152.9757  142.9513  159.6073 C   0  0  0  0  0  0  0  0  0  0  0  0
  152.6191  141.7386  158.9813 C   0  0  0  0  0  0  0  0  0  0  0  0
  151.7725  141.8270  157.8768 C   0  0  0  0  0  0  0  0  0  0  0  0
  151.2187  140.8631  157.0279 N   0  0  0  0  0  0  0  0  0  0  0  0
  151.5238  139.4427  157.2589 C   0  0  0  0  0  0  0  0  0  0  0  0
  152.2023  138.7696  156.0488 C   0  0  1  0  0  0  0  0  0  0  0  0
  153.5989  138.7350  156.2671 O   0  0  0  0  0  0  0  0  0  0  0  0
  151.7052  137.3309  155.8419 C   0  0  0  0  0  0  0  0  0  0  0  0
  150.2952  137.3586  155.6657 O   0  0  0  0  0  0  0  0  0  0  0  0
  149.6522  136.1904  155.3108 C   0  0  0  0  0  0  0  0  0  0  0  0
  150.3215  134.9602  155.0838 C   0  0  0  0  0  0  0  0  0  0  0  0
  149.5981  133.8075  154.7232 C   0  0  0  0  0  0  0  0  0  0  0  0
  148.2001  133.8661  154.5854 C   0  0  0  0  0  0  0  0  0  0  0  0
  147.5252  135.0795  154.8094 C   0  0  0  0  0  0  0  0  0  0  0  0
  148.2452  136.2379  155.1707 C   0  0  0  0  0  0  0  0  0  0  0  0
  147.5009  137.5388  155.4075 C   0  0  0  0  0  0  0  0  0  0  0  0
  147.2895  142.6474  153.7031 H   0  0  0  0  0  0  0  0  0  0  0  0
  147.5819  142.3217  155.4119 H   0  0  0  0  0  0  0  0  0  0  0  0
  147.1276  141.0023  154.3186 H   0  0  0  0  0  0  0  0  0  0  0  0
  148.9135  140.1402  155.4439 H   0  0  0  0  0  0  0  0  0  0  0  0
  150.3607  140.1235  154.4420 H   0  0  0  0  0  0  0  0  0  0  0  0
  151.2768  145.2219  157.6570 H   0  0  0  0  0  0  0  0  0  0  0  0
  152.7922  145.0988  159.6419 H   0  0  0  0  0  0  0  0  0  0  0  0
  153.6291  142.9292  160.4674 H   0  0  0  0  0  0  0  0  0  0  0  0
  152.9890  140.7935  159.3509 H   0  0  0  0  0  0  0  0  0  0  0  0
  152.1670  139.3787  158.1374 H   0  0  0  0  0  0  0  0  0  0  0  0
  150.5965  138.9317  157.5217 H   0  0  0  0  0  0  0  0  0  0  0  0
  152.0023  139.3567  155.1517 H   0  0  0  0  0  0  0  0  0  0  0  0
  153.8712  137.8308  156.3110 H   0  0  0  0  0  0  0  0  0  0  0  0
  152.2111  136.8649  154.9942 H   0  0  0  0  0  0  0  0  0  0  0  0
  151.9294  136.7408  156.7321 H   0  0  0  0  0  0  0  0  0  0  0  0
  151.3928  134.8726  155.1806 H   0  0  0  0  0  0  0  0  0  0  0  0
  150.1177  132.8762  154.5527 H   0  0  0  0  0  0  0  0  0  0  0  0
  147.6455  132.9814  154.3089 H   0  0  0  0  0  0  0  0  0  0  0  0
  146.4509  135.1169  154.7020 H   0  0  0  0  0  0  0  0  0  0  0  0
  146.4293  137.4210  155.2442 H   0  0  0  0  0  0  0  0  0  0  0  0
  147.8630  138.3120  154.7294 H   0  0  0  0  0  0  0  0  0  0  0  0
  147.6522  137.8802  156.4317 H   0  0  0  0  0  0  0  0  0  0  0  0
  149.9896  143.4809  155.7425 H   0  0  0  0  0  0  0  0  0  0  0  0
  1  2  1  0  0  0  0
  1 25  1  0  0  0  0
  1 26  1  0  0  0  0
  1 27  1  0  0  0  0
  2  3  1  0  0  0  0
  3  4  1  0  0  0  0
  3 28  1  0  0  0  0
  3 29  1  0  0  0  0
  4 12  1  0  0  0  0
  4  5  2  0  0  0  0
  5  6  1  0  0  0  0
  5 47  1  0  0  0  0
  6 11  2  0  0  0  0
  6  7  1  0  0  0  0
  7  8  2  0  0  0  0
  7 30  1  0  0  0  0
  8  9  1  0  0  0  0
  8 31  1  0  0  0  0
  9 10  2  0  0  0  0
  9 32  1  0  0  0  0
 10 11  1  0  0  0  0
 10 33  1  0  0  0  0
 11 12  1  0  0  0  0
 12 13  1  0  0  0  0
 13 14  1  0  0  0  0
 13 34  1  0  0  0  0
 13 35  1  0  0  0  0
 14 15  1  0  0  0  0
 14 16  1  0  0  0  0
 14 36  1  0  0  0  0
 15 37  1  0  0  0  0
 16 17  1  0  0  0  0
 16 38  1  0  0  0  0
 16 39  1  0  0  0  0
 17 18  1  0  0  0  0
 18 23  1  0  0  0  0
 18 19  2  0  0  0  0
 19 20  1  0  0  0  0
 19 40  1  0  0  0  0
 20 21  2  0  0  0  0
 20 41  1  0  0  0  0
 21 22  1  0  0  0  0
 21 42  1  0  0  0  0
 22 23  2  0  0  0  0
 22 43  1  0  0  0  0
 23 24  1  0  0  0  0
 24 44  1  0  0  0  0
 24 45  1  0  0  0  0
 24 46  1  0  0  0  0
M  CHG  1   5   1
M  END
> <s_m_source_file>
AV-unprocessed.smi

> <i_m_source_file_index>
870

> <i_lp_mmshare_version>
43012

> <i_f3d_flags>
0

> <s_epik_input>
W2NIXTFbY0hdW2NIXVtjSF1jKGMxMiluKGMobjIpW0NIMl1PW0NIM10pW0NIMl1bQ0BIXShbT0hdKVtDSDJdT2MzW2NIXVtjSF1bY0hdW2NIXWMzW0NIM10=

> <s_epik_cmdline>
J2VwaWtfcHl0aG9uJywgJy1waCcsICc3LjAnLCAnLXRuJywgJzgnLCAnLW1hJywgJzIwMCcsICctbWV0YWxfYmluZGluZycsICctaW1hZScsICc8aW5maWxlLm1hZT4nLCAnLW9tYWUnLCAnPG91dGZpbGUubWFlPic=

> <r_lp_tautomer_probability>
1

> <r_epik_Ionization_Penalty>
1.55338

> <r_epik_Ionization_Penalty_Charging>
1.55338

> <r_epik_Ionization_Penalty_Neutral>
2.3993e-06

> <r_epik_State_Penalty>
1.64778

> <r_epik_Charging_Adjusted_Penalty>
3.20115

> <i_epik_Tot_Q>
1

> <i_epik_Tot_abs_Q>
1

> <r_epik_Metal_State_Penalty>
5.70266

> <b_epik_Metal_Only>
0

> <s_lp_Force_Field>
OPLS_2005

> <r_lp_Energy>
19.1039

> <b_lp_Chiralities_Consistent>
1

> <s_lp_Variant>
AV-unprocessed.smi:870-4

> <Gold.Version>
5.8.1

> <Gold.Id.Protein>
6NUR|6NUR_protein|mol2

> <Gold.PLP.Fitness>
55.8338

> <Gold.PLP.PLP>
-47.4547

> <Gold.PLP.part.hbond>
-3.2655

> <Gold.PLP.part.metal>
0.0000

> <Gold.PLP.part.buried>
-5.5599

> <Gold.PLP.part.nonpolar>
-40.0790

> <Gold.PLP.part.repulsive>
0.3749

> <Gold.PLP.ligand.clash>
0.0000

> <Gold.PLP.ligand.torsion>
0.8469

> <Gold.PLP.Chemscore.Hbond>
3.3366

> <Gold.PLP.Chemscore.CHOScore>
0.0000

> <Gold.PLP.Chemscore.Metal>
0.0000

> <Gold.Chemscore.Hbonds>
donor molecule, donor type, donor heavy atom, donor atom, acceptor molecule, acceptor atom, score
      L1  H     5    47       P1  8028  1.95
      P1  H  7997  8010       L1    15  0.85
      P1  H  8011  8017       L1     2  0.55

> <Gold.PLP.Chemscore.Internal.Correction>
0.0633

> <Gold.Rescore>
     Score         DG    S(hbond)    S(metal)    S(lipo)     H(rot)  DE(clash)    DE(int)     intcor
     20.47     -21.25       2.28        0.00     123.28       2.45       0.05       0.72       ----

> <Gold.Chemscore.Fitness>
20.4709

> <Gold.Chemscore.DG>
-21.2472

> <Gold.Chemscore.ZeroCoef>
-5.4800

> <Gold.Chemscore.Hbond>
2.2794

> <Gold.Chemscore.Metal>
0.0000

> <Gold.Chemscore.Lipo>
123.2843

> <Gold.Chemscore.Internal_Hbond>
0.0000

> <Gold.Chemscore.DEClash>
0.0518

> <Gold.Chemscore.DEInternal>
0.7245

> <Gold.Chemscore.Rot>
2.4494

> <Gold.Chemscore.Internal.Correction>
   9.000000E+99

> <Gold.Chemscore.Hbonds>
donor molecule, donor type, donor heavy atom, donor atom, acceptor molecule, acceptor atom, score
      L1  H     5    47       P1  8028  0.93
      P1  H  7997  8010       L1    15  0.78
      P1  H  8011  8017       L1     2  0.50

> <Gold.Chemscore.Hbond.Weighted>
-7.6134

> <Gold.Chemscore.Metal.Weighted>
-0.0000

> <Gold.Chemscore.Lipo.Weighted>
-14.4243

> <Gold.Chemscore.Internal_Hbond.Weighted>
0.0000

> <Gold.Chemscore.DEClash.Weighted>
0.0518

> <Gold.Chemscore.DEInternal.Weighted>
0.7245

> <Gold.Chemscore.Rot.Weighted>
6.2704

> <Gold.Chemscore.Internal.Correction.Weighted>
   9.000000E+99

> <Gold.Protein.RotatedTorsions>
[ 6907 6896 6895 6894 ] final   34.32 input  -60.11 | X-H torsion
[ 7974 7965 7964 7962 ] final  175.94 input  175.53 | X-H torsion
[ 8008 7997 7996 7995 ] final   71.80 input   59.86 | X-H torsion
[ 10167 10162 10161 10158 ] final   19.55 input  -65.29 | X-H torsion
[ 10718 10713 10712 10709 ] final    9.49 input   66.30 | X-H torsion
[ 10763 10752 10751 10750 ] final  173.29 input  -60.55 | X-H torsion
[ 11005 11000 10999 10996 ] final  -11.52 input  -57.11 | X-H torsion

> <Gold.Protein.ActiveResidues>
 VAL166  LYS551  ARG553  GLY616  TRP617  ASP618  TYR619  PRO620  LYS621  CYS622 
 ASP623  PHE694  ASN695  SER759  ASP760  ASP761  ALA762  ILE779  LEU786  VAL792 
 PHE793  MET794  SER795  GLU796  ALA797  LYS798  CYS799  TRP800  GLU811  SER814 

> <Gold.Protein.RotatedAtoms>
  152.1007  134.9343  160.0569 H   0  0  0  0  0  0  0  0  0  0  0  0  # atno 6907 bound_to 6896
  152.0558  133.4035  159.4405 H   0  0  0  0  0  0  0  0  0  0  0  0  # atno 6908 bound_to 6896
  150.6839  134.3176  159.4816 H   0  0  0  0  0  0  0  0  0  0  0  0  # atno 6909 bound_to 6896
  144.7193  140.0022  143.6440 H   0  0  0  0  0  0  0  0  0  0  0  0  # atno 7974 bound_to 7965
  155.7593  140.3487  155.5190 H   0  0  0  0  0  0  0  0  0  0  0  0  # atno 8008 bound_to 7997
  155.8929  140.1021  157.1426 H   0  0  0  0  0  0  0  0  0  0  0  0  # atno 8009 bound_to 7997
  154.4035  140.1301  156.4326 H   0  0  0  0  0  0  0  0  0  0  0  0  # atno 8010 bound_to 7997
  140.5570  143.9406  150.6616 H   0  0  0  0  0  0  0  0  0  0  0  0  # atno 10167 bound_to 10162
  156.9671  130.5955  149.5666 H   0  0  0  0  0  0  0  0  0  0  0  0  # atno 10718 bound_to 10713
  154.4381  135.2761  155.1867 H   0  0  0  0  0  0  0  0  0  0  0  0  # atno 10763 bound_to 10752
  154.3745  135.6101  153.5761 H   0  0  0  0  0  0  0  0  0  0  0  0  # atno 10764 bound_to 10752
  152.9839  135.5865  154.4703 H   0  0  0  0  0  0  0  0  0  0  0  0  # atno 10765 bound_to 10752
  140.7561  133.8553  155.9085 H   0  0  0  0  0  0  0  0  0  0  0  0  # atno 11005 bound_to 11000
  146.0326  139.3349  143.0746 LP  0  0  0  0  0  0  0  0  0  0  0  0  # atno 17320 bound_to 7965
  145.8434  140.9568  143.0787 LP  0  0  0  0  0  0  0  0  0  0  0  0  # atno 17321 bound_to 7965
  140.2847  143.3365  152.1118 LP  0  0  0  0  0  0  0  0  0  0  0  0  # atno 17342 bound_to 10162
  139.5052  144.6791  151.6054 LP  0  0  0  0  0  0  0  0  0  0  0  0  # atno 17343 bound_to 10162
  156.0298  130.5390  150.8504 LP  0  0  0  0  0  0  0  0  0  0  0  0  # atno 17370 bound_to 10713
  157.5618  131.0946  150.9547 LP  0  0  0  0  0  0  0  0  0  0  0  0  # atno 17371 bound_to 10713
  140.9706  134.1536  157.4579 LP  0  0  0  0  0  0  0  0  0  0  0  0  # atno 17394 bound_to 11000
  139.8779  134.9977  156.5862 LP  0  0  0  0  0  0  0  0  0  0  0  0  # atno 17395 bound_to 11000

$$$$
