AV-unprocessed.smi:1692|AV-procd|sdf|6782|dock8
  -GOLD-   22720 7543D 1   1.00000     0.00000
 Structure written by MMmdl.
 45 46  0  0  0  0  0  0  0  0  1 V2000
  151.4885  137.9557  154.2862 C   0  0  0  0  0  0  0  0  0  0  0  0
  150.7040  138.9693  155.1259 C   0  0  2  0  0  0  0  0  0  0  0  0
  149.3333  139.2970  154.5073 C   0  0  0  0  0  0  0  0  0  0  0  0
  148.6215  140.3192  155.2640 N   0  0  0  0  0  0  0  0  0  0  0  0
  147.3080  140.5804  154.6771 C   0  0  0  0  0  0  0  0  0  0  0  0
  146.6049  139.3530  154.0724 C   0  0  0  0  0  0  0  0  0  0  0  0
  146.9322  139.1801  152.5806 C   0  0  0  0  0  0  0  0  0  0  0  0
  147.0179  137.7729  152.2071 N   0  0  0  0  0  0  0  0  0  0  0  0
  145.9763  136.9319  152.1285 C   0  0  0  0  0  0  0  0  0  0  0  0
  144.8145  137.2676  152.3607 O   0  0  0  0  0  0  0  0  0  0  0  0
  146.3735  135.6987  151.7680 N   0  0  0  0  0  0  0  0  0  0  0  0
  145.5778  134.5346  151.5955 C   0  0  0  0  0  0  0  0  0  0  0  0
  146.3038  133.3364  151.4082 C   0  0  0  0  0  0  0  0  0  0  0  0
  145.6078  132.1250  151.2301 C   0  0  0  0  0  0  0  0  0  0  0  0
  144.2018  132.1428  151.2440 C   0  0  0  0  0  0  0  0  0  0  0  0
  143.5561  133.3781  151.4361 C   0  0  0  0  0  0  0  0  0  0  0  0
  144.2211  134.5404  151.6069 N   0  0  0  0  0  0  0  0  0  0  0  0
  149.4521  141.5193  155.3380 C   0  0  0  0  0  0  0  0  0  0  0  0
  150.8546  141.2414  155.9166 C   0  0  1  0  0  0  0  0  0  0  0  0
  150.8511  141.0063  157.4365 C   0  0  0  0  0  0  0  0  0  0  0  0
  151.4782  140.1639  155.2161 O   0  0  0  0  0  0  0  0  0  0  0  0
  150.9415  137.0174  154.1915 H   0  0  0  0  0  0  0  0  0  0  0  0
  152.4524  137.7331  154.7445 H   0  0  0  0  0  0  0  0  0  0  0  0
  151.6773  138.3365  153.2820 H   0  0  0  0  0  0  0  0  0  0  0  0
  150.5633  138.5515  156.1233 H   0  0  0  0  0  0  0  0  0  0  0  0
  149.4683  139.6288  153.4764 H   0  0  0  0  0  0  0  0  0  0  0  0
  148.7339  138.3869  154.4646 H   0  0  0  0  0  0  0  0  0  0  0  0
  146.6574  141.0445  155.4199 H   0  0  0  0  0  0  0  0  0  0  0  0
  147.4240  141.3163  153.8803 H   0  0  0  0  0  0  0  0  0  0  0  0
  146.9063  138.4591  154.6202 H   0  0  0  0  0  0  0  0  0  0  0  0
  145.5247  139.4404  154.1878 H   0  0  0  0  0  0  0  0  0  0  0  0
  146.1523  139.6420  151.9748 H   0  0  0  0  0  0  0  0  0  0  0  0
  147.8625  139.6928  152.3302 H   0  0  0  0  0  0  0  0  0  0  0  0
  147.9379  137.4134  151.9992 H   0  0  0  0  0  0  0  0  0  0  0  0
  147.3618  135.5762  151.6052 H   0  0  0  0  0  0  0  0  0  0  0  0
  147.3843  133.3404  151.4007 H   0  0  0  0  0  0  0  0  0  0  0  0
  146.1444  131.1989  151.0856 H   0  0  0  0  0  0  0  0  0  0  0  0
  143.6328  131.2346  151.1110 H   0  0  0  0  0  0  0  0  0  0  0  0
  142.4779  133.4356  151.4530 H   0  0  0  0  0  0  0  0  0  0  0  0
  149.5623  141.9436  154.3389 H   0  0  0  0  0  0  0  0  0  0  0  0
  148.9674  142.2834  155.9448 H   0  0  0  0  0  0  0  0  0  0  0  0
  151.4713  142.1217  155.7338 H   0  0  0  0  0  0  0  0  0  0  0  0
  150.4787  141.8848  157.9634 H   0  0  0  0  0  0  0  0  0  0  0  0
  151.8588  140.8050  157.8008 H   0  0  0  0  0  0  0  0  0  0  0  0
  150.2187  140.1653  157.7199 H   0  0  0  0  0  0  0  0  0  0  0  0
  1  2  1  0  0  0  0
  1 22  1  0  0  0  0
  1 23  1  0  0  0  0
  1 24  1  0  0  0  0
  2 21  1  0  0  0  0
  2  3  1  0  0  0  0
  2 25  1  0  0  0  0
  3  4  1  0  0  0  0
  3 26  1  0  0  0  0
  3 27  1  0  0  0  0
  4  5  1  0  0  0  0
  4 18  1  0  0  0  0
  5  6  1  0  0  0  0
  5 28  1  0  0  0  0
  5 29  1  0  0  0  0
  6  7  1  0  0  0  0
  6 30  1  0  0  0  0
  6 31  1  0  0  0  0
  7  8  1  0  0  0  0
  7 32  1  0  0  0  0
  7 33  1  0  0  0  0
  8  9  1  0  0  0  0
  8 34  1  0  0  0  0
  9 10  2  0  0  0  0
  9 11  1  0  0  0  0
 11 12  1  0  0  0  0
 11 35  1  0  0  0  0
 12 17  1  0  0  0  0
 12 13  2  0  0  0  0
 13 14  1  0  0  0  0
 13 36  1  0  0  0  0
 14 15  2  0  0  0  0
 14 37  1  0  0  0  0
 15 16  1  0  0  0  0
 15 38  1  0  0  0  0
 16 17  2  0  0  0  0
 16 39  1  0  0  0  0
 18 19  1  0  0  0  0
 18 40  1  0  0  0  0
 18 41  1  0  0  0  0
 19 20  1  0  0  0  0
 19 21  1  0  0  0  0
 19 42  1  0  0  0  0
 20 43  1  0  0  0  0
 20 44  1  0  0  0  0
 20 45  1  0  0  0  0
M  END
> <s_m_source_file>
AV-unprocessed.smi

> <i_m_source_file_index>
1692

> <i_lp_mmshare_version>
43012

> <i_f3d_flags>
0

> <s_epik_input>
W0NIM11bQ0BASF0xW0NIMl1OKFtDSDJdW0NASF0oTzEpW0NIM10pW0NIMl1bQ0gyXVtDSDJdW05IXUMoPU8pW05IXWMyW2NIXVtjSF1bY0hdW2NIXW4y

> <s_epik_cmdline>
J2VwaWtfcHl0aG9uJywgJy1waCcsICc3LjAnLCAnLXRuJywgJzgnLCAnLW1hJywgJzIwMCcsICctbWV0YWxfYmluZGluZycsICctaW1hZScsICc8aW5maWxlLm1hZT4nLCAnLW9tYWUnLCAnPG91dGZpbGUubWFlPic=

> <r_epik_Ionization_Penalty>
0.594711

> <r_epik_Ionization_Penalty_Charging>
0

> <r_epik_Ionization_Penalty_Neutral>
0.594711

> <r_epik_State_Penalty>
0.608529

> <r_epik_Charging_Adjusted_Penalty>
0.608529

> <i_epik_Tot_Q>
0

> <i_epik_Tot_abs_Q>
0

> <r_epik_Metal_State_Penalty>
0.608528

> <b_epik_Metal_Only>
0

> <s_lp_Force_Field>
OPLS_2005

> <r_lp_Energy>
25.8915

> <b_lp_Chiralities_Consistent>
1

> <s_lp_Variant>
AV-unprocessed.smi:1692-5

> <Gold.Version>
5.8.1

> <Gold.Id.Protein>
6NUR|6NUR_protein|mol2

> <Gold.PLP.Fitness>
47.4994

> <Gold.PLP.PLP>
-37.4650

> <Gold.PLP.part.hbond>
-3.0000

> <Gold.PLP.part.metal>
0.0000

> <Gold.PLP.part.buried>
-5.8742

> <Gold.PLP.part.nonpolar>
-30.0773

> <Gold.PLP.part.repulsive>
1.6043

> <Gold.PLP.ligand.clash>
0.0000

> <Gold.PLP.ligand.torsion>
0.7632

> <Gold.PLP.Chemscore.Hbond>
2.9360

> <Gold.PLP.Chemscore.CHOScore>
0.9132

> <Gold.PLP.Chemscore.Metal>
0.0000

> <Gold.Chemscore.Hbonds>
donor molecule, donor type, donor heavy atom, donor atom, acceptor molecule, acceptor atom, score
      L1  H     8    34       P1  7948  1.00
      L1  H    11    35       P1  7948  0.94
      P1  H  7989  7998       L1    21  1.00
      L1  C    16    39       P1 10186  0.79

> <Gold.PLP.Chemscore.Internal.Correction>
0.0130

> <Gold.Rescore>
     Score         DG    S(hbond)    S(metal)    S(lipo)     H(rot)  DE(clash)    DE(int)     intcor
     16.00     -18.80       2.32        0.00      85.47       1.73       0.08       2.72       ----

> <Gold.Chemscore.Fitness>
15.9996

> <Gold.Chemscore.DG>
-18.7999

> <Gold.Chemscore.ZeroCoef>
-5.4800

> <Gold.Chemscore.Hbond>
2.3175

> <Gold.Chemscore.Metal>
0.0000

> <Gold.Chemscore.Lipo>
85.4660

> <Gold.Chemscore.Internal_Hbond>
0.0000

> <Gold.Chemscore.DEClash>
0.0821

> <Gold.Chemscore.DEInternal>
2.7183

> <Gold.Chemscore.Rot>
1.7266

> <Gold.Chemscore.Internal.Correction>
   9.000000E+99

> <Gold.Chemscore.Hbonds>
donor molecule, donor type, donor heavy atom, donor atom, acceptor molecule, acceptor atom, score
      L1  H     8    34       P1  7948  0.92
      L1  H    11    35       P1  7948  0.90
      P1  H  7989  7998       L1    21  0.22

> <Gold.Chemscore.Hbond.Weighted>
-7.7405

> <Gold.Chemscore.Metal.Weighted>
-0.0000

> <Gold.Chemscore.Lipo.Weighted>
-9.9995

> <Gold.Chemscore.Internal_Hbond.Weighted>
0.0000

> <Gold.Chemscore.DEClash.Weighted>
0.0821

> <Gold.Chemscore.DEInternal.Weighted>
2.7183

> <Gold.Chemscore.Rot.Weighted>
4.4200

> <Gold.Chemscore.Internal.Correction.Weighted>
   9.000000E+99

> <Gold.Protein.RotatedTorsions>
[ 6907 6896 6895 6894 ] final -116.38 input  -60.11 | X-H torsion
[ 7974 7965 7964 7962 ] final  162.41 input  175.53 | X-H torsion
[ 8008 7997 7996 7995 ] final -140.70 input   59.86 | X-H torsion
[ 10167 10162 10161 10158 ] final  -66.24 input  -65.29 | X-H torsion
[ 10718 10713 10712 10709 ] final   56.76 input   66.30 | X-H torsion
[ 10763 10752 10751 10750 ] final  148.98 input  -60.55 | X-H torsion
[ 11005 11000 10999 10996 ] final  167.35 input  -57.11 | X-H torsion

> <Gold.Protein.ActiveResidues>
 VAL166  LYS551  ARG553  GLY616  TRP617  ASP618  TYR619  PRO620  LYS621  CYS622 
 ASP623  PHE694  ASN695  SER759  ASP760  ASP761  ALA762  ILE779  LEU786  VAL792 
 PHE793  MET794  SER795  GLU796  ALA797  LYS798  CYS799  TRP800  GLU811  SER814 

> <Gold.Protein.RotatedAtoms>
  150.8051  133.8525  159.3209 H   0  0  0  0  0  0  0  0  0  0  0  0  # atno 6907 bound_to 6896
  151.6327  135.1019  160.0134 H   0  0  0  0  0  0  0  0  0  0  0  0  # atno 6908 bound_to 6896
  152.4141  133.6970  159.6458 H   0  0  0  0  0  0  0  0  0  0  0  0  # atno 6909 bound_to 6896
  144.7638  139.8036  143.6323 H   0  0  0  0  0  0  0  0  0  0  0  0  # atno 7974 bound_to 7965
  155.4657  140.0549  157.2985 H   0  0  0  0  0  0  0  0  0  0  0  0  # atno 8008 bound_to 7997
  154.4719  140.2044  155.9928 H   0  0  0  0  0  0  0  0  0  0  0  0  # atno 8009 bound_to 7997
  156.1069  140.3210  155.8023 H   0  0  0  0  0  0  0  0  0  0  0  0  # atno 8010 bound_to 7997
  140.5671  143.2315  151.6613 H   0  0  0  0  0  0  0  0  0  0  0  0  # atno 10167 bound_to 10162
  157.5458  130.8729  149.8888 H   0  0  0  0  0  0  0  0  0  0  0  0  # atno 10718 bound_to 10713
  154.0637  135.2872  155.3320 H   0  0  0  0  0  0  0  0  0  0  0  0  # atno 10763 bound_to 10752
  154.6791  135.5270  153.8243 H   0  0  0  0  0  0  0  0  0  0  0  0  # atno 10764 bound_to 10752
  153.0512  135.6577  154.0824 H   0  0  0  0  0  0  0  0  0  0  0  0  # atno 10765 bound_to 10752
  140.2759  134.7789  157.3716 H   0  0  0  0  0  0  0  0  0  0  0  0  # atno 11005 bound_to 11000
  146.1726  139.4883  142.9918 LP  0  0  0  0  0  0  0  0  0  0  0  0  # atno 17320 bound_to 7965
  145.6535  141.0257  143.1747 LP  0  0  0  0  0  0  0  0  0  0  0  0  # atno 17321 bound_to 7965
  139.5098  144.3563  152.0605 LP  0  0  0  0  0  0  0  0  0  0  0  0  # atno 17342 bound_to 10162
  140.2696  144.3978  150.6156 LP  0  0  0  0  0  0  0  0  0  0  0  0  # atno 17343 bound_to 10162
  156.0534  130.3713  150.1148 LP  0  0  0  0  0  0  0  0  0  0  0  0  # atno 17370 bound_to 10713
  156.9324  130.9718  151.3530 LP  0  0  0  0  0  0  0  0  0  0  0  0  # atno 17371 bound_to 10713
  140.1329  134.5071  155.8091 LP  0  0  0  0  0  0  0  0  0  0  0  0  # atno 17394 bound_to 11000
  141.2170  133.6796  156.7072 LP  0  0  0  0  0  0  0  0  0  0  0  0  # atno 17395 bound_to 11000

$$$$
