AV-unprocessed.smi:613|AV-procd|sdf|3067|dock3
  -GOLD-   2262023593D 1   1.00000     0.00000
 Structure written by MMmdl.
 39 40  0  0  0  0  0  0  0  0  2 V2000
  149.9002  142.0403  155.8004 C   0  0  0  0  0  0  0  0  0  0  0  0
  151.0006  141.7812  156.7208 N   0  0  0  0  0  0  0  0  0  0  0  0
  151.9602  140.7256  156.3879 C   0  0  0  0  0  0  0  0  0  0  0  0
  151.2896  139.4173  155.9234 C   0  0  1  0  0  0  0  0  0  0  0  0
  150.1570  138.9417  156.8589 C   0  0  0  0  0  0  0  0  0  0  0  0
  149.4581  137.7643  156.3378 N   0  0  0  0  0  0  0  0  0  0  0  0
  148.3691  137.2893  157.2029 C   0  0  0  0  0  0  0  0  0  0  0  0
  148.8370  136.6402  158.5108 C   0  0  0  0  0  0  0  0  0  0  0  0
  148.2960  137.0987  159.6419 N   0  0  0  0  0  0  0  0  0  0  0  0
  149.6674  135.7338  158.4970 O   0  0  0  0  0  0  0  0  0  0  0  0
  148.9845  138.0361  154.9840 C   0  0  0  0  0  0  0  0  0  0  0  0
  150.1214  138.5077  154.0630 C   0  0  0  0  0  0  0  0  0  0  0  0
  150.7452  139.6557  154.6286 O   0  0  0  0  0  0  0  0  0  0  0  0
  151.2942  142.7379  157.7217 C   0  0  0  0  0  0  0  0  0  0  0  0
  152.3018  142.5454  158.6988 C   0  0  0  0  0  0  0  0  0  0  0  0
  152.5101  143.5444  159.6647 C   0  0  0  0  0  0  0  0  0  0  0  0
  151.6995  144.6896  159.6019 C   0  0  0  0  0  0  0  0  0  0  0  0
  150.7472  144.8684  158.6616 N   0  0  0  0  0  0  0  0  0  0  0  0
  150.5754  143.8938  157.7524 N   0  3  0  0  0  0  0  0  0  0  0  0
  148.9545  142.1052  156.3392 H   0  0  0  0  0  0  0  0  0  0  0  0
  149.8085  141.2392  155.0664 H   0  0  0  0  0  0  0  0  0  0  0  0
  150.0614  142.9724  155.2579 H   0  0  0  0  0  0  0  0  0  0  0  0
  152.6934  141.0592  155.6537 H   0  0  0  0  0  0  0  0  0  0  0  0
  152.5381  140.5192  157.2895 H   0  0  0  0  0  0  0  0  0  0  0  0
  152.0459  138.6350  155.8370 H   0  0  0  0  0  0  0  0  0  0  0  0
  150.5928  138.7192  157.8318 H   0  0  0  0  0  0  0  0  0  0  0  0
  149.4442  139.7539  157.0125 H   0  0  0  0  0  0  0  0  0  0  0  0
  147.6993  138.1158  157.4468 H   0  0  0  0  0  0  0  0  0  0  0  0
  147.7624  136.5590  156.6647 H   0  0  0  0  0  0  0  0  0  0  0  0
  148.5670  136.6978  160.5282 H   0  0  0  0  0  0  0  0  0  0  0  0
  147.6119  137.8404  159.6066 H   0  0  0  0  0  0  0  0  0  0  0  0
  148.5307  137.1389  154.5608 H   0  0  0  0  0  0  0  0  0  0  0  0
  148.2029  138.7976  155.0077 H   0  0  0  0  0  0  0  0  0  0  0  0
  150.8586  137.7162  153.9202 H   0  0  0  0  0  0  0  0  0  0  0  0
  149.7303  138.7635  153.0780 H   0  0  0  0  0  0  0  0  0  0  0  0
  152.9101  141.6540  158.7280 H   0  0  0  0  0  0  0  0  0  0  0  0
  153.2640  143.4358  160.4303 H   0  0  0  0  0  0  0  0  0  0  0  0
  151.8182  145.4857  160.3222 H   0  0  0  0  0  0  0  0  0  0  0  0
  149.8547  144.0242  157.0425 H   0  0  0  0  0  0  0  0  0  0  0  0
  1  2  1  0  0  0  0
  1 20  1  0  0  0  0
  1 21  1  0  0  0  0
  1 22  1  0  0  0  0
  2  3  1  0  0  0  0
  2 14  1  0  0  0  0
  3  4  1  0  0  0  0
  3 23  1  0  0  0  0
  3 24  1  0  0  0  0
  4 13  1  0  0  0  0
  4  5  1  0  0  0  0
  4 25  1  0  0  0  0
  5  6  1  0  0  0  0
  5 26  1  0  0  0  0
  5 27  1  0  0  0  0
  6  7  1  0  0  0  0
  6 11  1  0  0  0  0
  7  8  1  0  0  0  0
  7 28  1  0  0  0  0
  7 29  1  0  0  0  0
  8  9  1  0  0  0  0
  8 10  2  0  0  0  0
  9 30  1  0  0  0  0
  9 31  1  0  0  0  0
 11 12  1  0  0  0  0
 11 32  1  0  0  0  0
 11 33  1  0  0  0  0
 12 13  1  0  0  0  0
 12 34  1  0  0  0  0
 12 35  1  0  0  0  0
 14 19  1  0  0  0  0
 14 15  2  0  0  0  0
 15 16  1  0  0  0  0
 15 36  1  0  0  0  0
 16 17  2  0  0  0  0
 16 37  1  0  0  0  0
 17 18  1  0  0  0  0
 17 38  1  0  0  0  0
 18 19  2  0  0  0  0
 19 39  1  0  0  0  0
M  CHG  1  19   1
M  END
> <s_m_source_file>
AV-unprocessed.smi

> <i_m_source_file_index>
613

> <i_lp_mmshare_version>
43012

> <i_f3d_flags>
0

> <s_epik_input>
bjFuW2NIXVtjSF1bY0hdYzFOKFtDSDNdKVtDSDJdW0NAQEhdMltDSDJdTihbQ0gyXVtDSDJdTzIpW0NIMl1DKD1PKVtOSDJd

> <s_epik_cmdline>
J2VwaWtfcHl0aG9uJywgJy1waCcsICc3LjAnLCAnLXRuJywgJzgnLCAnLW1hJywgJzIwMCcsICctbWV0YWxfYmluZGluZycsICctaW1hZScsICc8aW5maWxlLm1hZT4nLCAnLW9tYWUnLCAnPG91dGZpbGUubWFlPic=

> <r_lp_tautomer_probability>
0.966961

> <r_epik_Ionization_Penalty>
1.86301

> <r_epik_Ionization_Penalty_Charging>
1.86058

> <r_epik_Ionization_Penalty_Neutral>
0.00243207

> <r_epik_State_Penalty>
1.48112

> <r_epik_Charging_Adjusted_Penalty>
3.3417

> <i_epik_Tot_Q>
1

> <i_epik_Tot_abs_Q>
1

> <r_epik_Metal_State_Penalty>
1.50193

> <b_epik_Metal_Only>
0

> <s_lp_Force_Field>
OPLS_2005

> <r_lp_Energy>
27.4635

> <b_lp_Chiralities_Consistent>
1

> <s_lp_Variant>
AV-unprocessed.smi:613-4

> <Gold.Version>
5.8.1

> <Gold.Id.Protein>
6NUR|6NUR_protein|mol2

> <Gold.PLP.Fitness>
40.1931

> <Gold.PLP.PLP>
-29.0357

> <Gold.PLP.part.hbond>
-3.0065

> <Gold.PLP.part.metal>
0.0000

> <Gold.PLP.part.buried>
-3.7214

> <Gold.PLP.part.nonpolar>
-23.3623

> <Gold.PLP.part.repulsive>
0.5245

> <Gold.PLP.ligand.clash>
0.0000

> <Gold.PLP.ligand.torsion>
0.5504

> <Gold.PLP.Chemscore.Hbond>
4.0000

> <Gold.PLP.Chemscore.CHOScore>
0.0000

> <Gold.PLP.Chemscore.Metal>
0.0000

> <Gold.Chemscore.Hbonds>
donor molecule, donor type, donor heavy atom, donor atom, acceptor molecule, acceptor atom, score
      L1  H    19    39       P1  8028  2.00
      P1  H  6896  6908       L1    10  1.00
      P1  H  7989  7998       L1    13  1.00

> <Gold.PLP.Chemscore.Internal.Correction>
0.2581

> <Gold.Rescore>
     Score         DG    S(hbond)    S(metal)    S(lipo)     H(rot)  DE(clash)    DE(int)     intcor
     16.06     -18.00       2.95        0.00      71.67       2.23       0.09       1.84       ----

> <Gold.Chemscore.Fitness>
16.0647

> <Gold.Chemscore.DG>
-18.0025

> <Gold.Chemscore.ZeroCoef>
-5.4800

> <Gold.Chemscore.Hbond>
2.9514

> <Gold.Chemscore.Metal>
0.0000

> <Gold.Chemscore.Lipo>
71.6728

> <Gold.Chemscore.Internal_Hbond>
0.0000

> <Gold.Chemscore.DEClash>
0.0950

> <Gold.Chemscore.DEInternal>
1.8428

> <Gold.Chemscore.Rot>
2.2348

> <Gold.Chemscore.Internal.Correction>
   9.000000E+99

> <Gold.Chemscore.Hbonds>
donor molecule, donor type, donor heavy atom, donor atom, acceptor molecule, acceptor atom, score
      L1  H    19    39       P1  8028  0.85
      P1  H  6896  6908       L1    10  0.99
      P1  H  7989  7998       L1    13  0.94

> <Gold.Chemscore.Hbond.Weighted>
-9.8578

> <Gold.Chemscore.Metal.Weighted>
-0.0000

> <Gold.Chemscore.Lipo.Weighted>
-8.3857

> <Gold.Chemscore.Internal_Hbond.Weighted>
0.0000

> <Gold.Chemscore.DEClash.Weighted>
0.0950

> <Gold.Chemscore.DEInternal.Weighted>
1.8428

> <Gold.Chemscore.Rot.Weighted>
5.7211

> <Gold.Chemscore.Internal.Correction.Weighted>
   9.000000E+99

> <Gold.Protein.RotatedTorsions>
[ 6907 6896 6895 6894 ] final  165.55 input  -60.11 | X-H torsion
[ 7974 7965 7964 7962 ] final  -14.32 input  175.53 | X-H torsion
[ 8008 7997 7996 7995 ] final -170.74 input   59.86 | X-H torsion
[ 10167 10162 10161 10158 ] final   73.07 input  -65.29 | X-H torsion
[ 10718 10713 10712 10709 ] final -122.52 input   66.30 | X-H torsion
[ 10763 10752 10751 10750 ] final   23.18 input  -60.55 | X-H torsion
[ 11005 11000 10999 10996 ] final   38.12 input  -57.11 | X-H torsion

> <Gold.Protein.ActiveResidues>
 VAL166  LYS551  ARG553  GLY616  TRP617  ASP618  TYR619  PRO620  LYS621  CYS622 
 ASP623  PHE694  ASN695  SER759  ASP760  ASP761  ALA762  ILE779  LEU786  VAL792 
 PHE793  MET794  SER795  GLU796  ALA797  LYS798  CYS799  TRP800  GLU811  SER814 

> <Gold.Protein.RotatedAtoms>
  151.8927  133.3520  159.3803 H   0  0  0  0  0  0  0  0  0  0  0  0  # atno 6907 bound_to 6896
  150.7099  134.4907  159.5523 H   0  0  0  0  0  0  0  0  0  0  0  0  # atno 6908 bound_to 6896
  152.2480  134.8161  160.0501 H   0  0  0  0  0  0  0  0  0  0  0  0  # atno 6909 bound_to 6896
  146.2079  140.3331  142.8401 H   0  0  0  0  0  0  0  0  0  0  0  0  # atno 7974 bound_to 7965
  155.9223  140.1076  157.1197 H   0  0  0  0  0  0  0  0  0  0  0  0  # atno 8008 bound_to 7997
  154.4056  140.1253  156.4761 H   0  0  0  0  0  0  0  0  0  0  0  0  # atno 8009 bound_to 7997
  155.7180  140.3470  155.5005 H   0  0  0  0  0  0  0  0  0  0  0  0  # atno 8010 bound_to 7997
  140.0285  144.5485  150.7526 H   0  0  0  0  0  0  0  0  0  0  0  0  # atno 10167 bound_to 10162
  156.1426  130.6477  150.9793 H   0  0  0  0  0  0  0  0  0  0  0  0  # atno 10718 bound_to 10713
  153.0858  135.6632  153.9953 H   0  0  0  0  0  0  0  0  0  0  0  0  # atno 10763 bound_to 10752
  153.9562  135.2979  155.3437 H   0  0  0  0  0  0  0  0  0  0  0  0  # atno 10764 bound_to 10752
  154.7265  135.5141  153.8967 H   0  0  0  0  0  0  0  0  0  0  0  0  # atno 10765 bound_to 10752
  140.2158  134.3700  155.8027 H   0  0  0  0  0  0  0  0  0  0  0  0  # atno 11005 bound_to 11000
  144.8838  140.7436  143.5969 LP  0  0  0  0  0  0  0  0  0  0  0  0  # atno 17320 bound_to 7965
  145.3251  139.1776  143.4567 LP  0  0  0  0  0  0  0  0  0  0  0  0  # atno 17321 bound_to 7965
  140.7312  143.2692  151.3944 LP  0  0  0  0  0  0  0  0  0  0  0  0  # atno 17342 bound_to 10162
  139.6092  144.1133  152.2281 LP  0  0  0  0  0  0  0  0  0  0  0  0  # atno 17343 bound_to 10162
  157.6589  131.0884  150.7885 LP  0  0  0  0  0  0  0  0  0  0  0  0  # atno 17370 bound_to 10713
  156.7959  130.4905  149.5377 LP  0  0  0  0  0  0  0  0  0  0  0  0  # atno 17371 bound_to 10713
  141.2225  133.7167  156.8494 LP  0  0  0  0  0  0  0  0  0  0  0  0  # atno 17394 bound_to 11000
  140.1902  134.8971  157.3051 LP  0  0  0  0  0  0  0  0  0  0  0  0  # atno 17395 bound_to 11000

$$$$
