AV-unprocessed.smi:3348|AV-procd|sdf|12918|dock10
  -GOLD-   2272019333D 1   1.00000     0.00000
 Structure written by MMmdl.
 47 48  0  0  0  0  0  0  0  0  2 V2000
  144.1474  136.0290  152.7009 C   0  0  0  0  0  0  0  0  0  0  0  0
  145.4085  135.9119  151.8224 C   0  0  1  0  0  0  0  0  0  0  0  0
  145.1083  135.2830  150.4458 C   0  0  0  0  0  0  0  0  0  0  0  0
  145.0277  133.8341  150.4877 N   0  0  0  0  0  0  0  0  0  0  0  0
  143.9126  133.0309  150.3712 C   0  0  0  0  0  0  0  0  0  0  0  0
  144.3336  131.7356  150.4678 C   0  0  0  0  0  0  0  0  0  0  0  0
  145.7417  131.8493  150.6376 C   0  0  0  0  0  0  0  0  0  0  0  0
  146.1539  133.1068  150.6474 N   0  0  0  0  0  0  0  0  0  0  0  0
  146.0481  137.2318  151.6239 N   0  3  0  0  0  0  0  0  0  0  0  0
  146.0381  138.1272  152.8003 C   0  0  0  0  0  0  0  0  0  0  0  0
  146.8253  139.4096  152.5156 C   0  0  0  0  0  0  0  0  0  0  0  0
  147.5563  139.7532  153.6828 O   0  0  0  0  0  0  0  0  0  0  0  0
  147.9423  141.1215  153.7660 C   0  0  1  0  0  0  0  0  0  0  0  0
  146.6996  142.0360  153.8215 C   0  0  0  0  0  0  0  0  0  0  0  0
  145.8783  141.8013  155.0997 C   0  0  0  0  0  0  0  0  0  0  0  0
  146.7439  141.9773  156.3565 C   0  0  0  0  0  0  0  0  0  0  0  0
  147.9856  141.0722  156.3122 C   0  0  0  0  0  0  0  0  0  0  0  0
  148.8112  141.3054  155.0306 C   0  0  1  0  0  0  0  0  0  0  0  0
  150.0739  140.4300  154.9967 C   0  0  0  0  0  0  0  0  0  0  0  0
  143.6870  135.0555  152.8702 H   0  0  0  0  0  0  0  0  0  0  0  0
  143.3995  136.6717  152.2351 H   0  0  0  0  0  0  0  0  0  0  0  0
  144.3743  136.4401  153.6841 H   0  0  0  0  0  0  0  0  0  0  0  0
  146.1274  135.2686  152.3326 H   0  0  0  0  0  0  0  0  0  0  0  0
  144.1667  135.6683  150.0515 H   0  0  0  0  0  0  0  0  0  0  0  0
  145.8817  135.5583  149.7269 H   0  0  0  0  0  0  0  0  0  0  0  0
  142.9233  133.4419  150.2340 H   0  0  0  0  0  0  0  0  0  0  0  0
  143.7286  130.8421  150.4219 H   0  0  0  0  0  0  0  0  0  0  0  0
  146.4710  131.0611  150.7522 H   0  0  0  0  0  0  0  0  0  0  0  0
  147.0173  137.0659  151.3914 H   0  0  0  0  0  0  0  0  0  0  0  0
  145.0101  138.3866  153.0518 H   0  0  0  0  0  0  0  0  0  0  0  0
  146.4634  137.6153  153.6646 H   0  0  0  0  0  0  0  0  0  0  0  0
  147.4955  139.2637  151.6669 H   0  0  0  0  0  0  0  0  0  0  0  0
  146.1324  140.2086  152.2531 H   0  0  0  0  0  0  0  0  0  0  0  0
  148.5464  141.3847  152.8958 H   0  0  0  0  0  0  0  0  0  0  0  0
  147.0219  143.0776  153.7923 H   0  0  0  0  0  0  0  0  0  0  0  0
  146.0696  141.8966  152.9436 H   0  0  0  0  0  0  0  0  0  0  0  0
  145.0350  142.4917  155.1309 H   0  0  0  0  0  0  0  0  0  0  0  0
  145.4538  140.7968  155.0845 H   0  0  0  0  0  0  0  0  0  0  0  0
  147.0549  143.0193  156.4422 H   0  0  0  0  0  0  0  0  0  0  0  0
  146.1547  141.7570  157.2472 H   0  0  0  0  0  0  0  0  0  0  0  0
  148.6025  141.2595  157.1918 H   0  0  0  0  0  0  0  0  0  0  0  0
  147.6776  140.0274  156.3709 H   0  0  0  0  0  0  0  0  0  0  0  0
  149.1476  142.3433  155.0451 H   0  0  0  0  0  0  0  0  0  0  0  0
  149.8258  139.3684  155.0069 H   0  0  0  0  0  0  0  0  0  0  0  0
  150.7103  140.6287  155.8592 H   0  0  0  0  0  0  0  0  0  0  0  0
  150.6638  140.6263  154.1011 H   0  0  0  0  0  0  0  0  0  0  0  0
  145.6086  137.6979  150.8432 H   0  0  0  0  0  0  0  0  0  0  0  0
  1  2  1  0  0  0  0
  1 20  1  0  0  0  0
  1 21  1  0  0  0  0
  1 22  1  0  0  0  0
  2  3  1  0  0  0  0
  2  9  1  0  0  0  0
  2 23  1  0  0  0  0
  3  4  1  0  0  0  0
  3 24  1  0  0  0  0
  3 25  1  0  0  0  0
  4  8  1  0  0  0  0
  4  5  1  0  0  0  0
  5  6  2  0  0  0  0
  5 26  1  0  0  0  0
  6  7  1  0  0  0  0
  6 27  1  0  0  0  0
  7  8  2  0  0  0  0
  7 28  1  0  0  0  0
  9 10  1  0  0  0  0
  9 29  1  0  0  0  0
  9 47  1  0  0  0  0
 10 11  1  0  0  0  0
 10 30  1  0  0  0  0
 10 31  1  0  0  0  0
 11 12  1  0  0  0  0
 11 32  1  0  0  0  0
 11 33  1  0  0  0  0
 12 13  1  0  0  0  0
 13 18  1  0  0  0  0
 13 14  1  0  0  0  0
 13 34  1  0  0  0  0
 14 15  1  0  0  0  0
 14 35  1  0  0  0  0
 14 36  1  0  0  0  0
 15 16  1  0  0  0  0
 15 37  1  0  0  0  0
 15 38  1  0  0  0  0
 16 17  1  0  0  0  0
 16 39  1  0  0  0  0
 16 40  1  0  0  0  0
 17 18  1  0  0  0  0
 17 41  1  0  0  0  0
 17 42  1  0  0  0  0
 18 19  1  0  0  0  0
 18 43  1  0  0  0  0
 19 44  1  0  0  0  0
 19 45  1  0  0  0  0
 19 46  1  0  0  0  0
M  CHG  1   9   1
M  END
> <s_m_source_file>
AV-unprocessed.smi

> <i_m_source_file_index>
3348

> <i_lp_mmshare_version>
43012

> <i_f3d_flags>
0

> <s_epik_input>
bjFbY0hdW2NIXVtjSF1uMVtDSDJdW0NAQEhdKFtDSDNdKVtOSF1bQ0gyXVtDSDJdT1tDQEBIXTJbQ0gyXVtDSDJdW0NIMl1bQ0gyXVtDQEhdMltDSDNd

> <s_epik_cmdline>
J2VwaWtfcHl0aG9uJywgJy1waCcsICc3LjAnLCAnLXRuJywgJzgnLCAnLW1hJywgJzIwMCcsICctbWV0YWxfYmluZGluZycsICctaW1hZScsICc8aW5maWxlLm1hZT4nLCAnLW9tYWUnLCAnPG91dGZpbGUubWFlPic=

> <r_lp_tautomer_probability>
1

> <r_epik_Ionization_Penalty>
0.00925088

> <r_epik_Ionization_Penalty_Charging>
0.00924645

> <r_epik_Ionization_Penalty_Neutral>
4.42413e-06

> <r_epik_State_Penalty>
0.0070118

> <r_epik_Charging_Adjusted_Penalty>
0.0162583

> <i_epik_Tot_Q>
1

> <i_epik_Tot_abs_Q>
1

> <r_epik_Metal_State_Penalty>
0.00701222

> <b_epik_Metal_Only>
0

> <s_lp_Force_Field>
OPLS_2005

> <r_lp_Energy>
16.697

> <b_lp_Chiralities_Consistent>
1

> <s_lp_Variant>
AV-unprocessed.smi:3348-4

> <Gold.Version>
5.8.1

> <Gold.Id.Protein>
6NUR|6NUR_protein|mol2

> <Gold.PLP.Fitness>
49.0278

> <Gold.PLP.PLP>
-37.6690

> <Gold.PLP.part.hbond>
-1.3976

> <Gold.PLP.part.metal>
0.0000

> <Gold.PLP.part.buried>
-2.5528

> <Gold.PLP.part.nonpolar>
-34.0180

> <Gold.PLP.part.repulsive>
0.4386

> <Gold.PLP.ligand.clash>
0.0000

> <Gold.PLP.ligand.torsion>
0.9449

> <Gold.PLP.Chemscore.Hbond>
2.3563

> <Gold.PLP.Chemscore.CHOScore>
2.0000

> <Gold.PLP.Chemscore.Metal>
0.0000

> <Gold.Chemscore.Hbonds>
donor molecule, donor type, donor heavy atom, donor atom, acceptor molecule, acceptor atom, score
      L1  H     9    29       P1  7948  1.53
      L1  H     9    47       P1 10171  0.57
      L1  C     5    26       P1 10186  1.00
      L1  C     7    28       P1 10747  0.95

> <Gold.PLP.Chemscore.Internal.Correction>
0.1799

> <Gold.Rescore>
     Score         DG    S(hbond)    S(metal)    S(lipo)     H(rot)  DE(clash)    DE(int)     intcor
     15.32     -16.26       1.22        0.00      97.07       1.82       0.16       0.78       ----

> <Gold.Chemscore.Fitness>
15.3155

> <Gold.Chemscore.DG>
-16.2612

> <Gold.Chemscore.ZeroCoef>
-5.4800

> <Gold.Chemscore.Hbond>
1.2196

> <Gold.Chemscore.Metal>
0.0000

> <Gold.Chemscore.Lipo>
97.0735

> <Gold.Chemscore.Internal_Hbond>
0.0000

> <Gold.Chemscore.DEClash>
0.1642

> <Gold.Chemscore.DEInternal>
0.7816

> <Gold.Chemscore.Rot>
1.8163

> <Gold.Chemscore.Internal.Correction>
   9.000000E+99

> <Gold.Chemscore.Hbonds>
donor molecule, donor type, donor heavy atom, donor atom, acceptor molecule, acceptor atom, score
      L1  H     9    29       P1  7948  0.74
      L1  H     9    47       P1 10171  0.55

> <Gold.Chemscore.Hbond.Weighted>
-4.0734

> <Gold.Chemscore.Metal.Weighted>
-0.0000

> <Gold.Chemscore.Lipo.Weighted>
-11.3576

> <Gold.Chemscore.Internal_Hbond.Weighted>
0.0000

> <Gold.Chemscore.DEClash.Weighted>
0.1642

> <Gold.Chemscore.DEInternal.Weighted>
0.7816

> <Gold.Chemscore.Rot.Weighted>
4.6497

> <Gold.Chemscore.Internal.Correction.Weighted>
   9.000000E+99

> <Gold.Protein.RotatedTorsions>
[ 6907 6896 6895 6894 ] final  -94.69 input  -60.11 | X-H torsion
[ 7974 7965 7964 7962 ] final   70.14 input  175.53 | X-H torsion
[ 8008 7997 7996 7995 ] final  142.26 input   59.86 | X-H torsion
[ 10167 10162 10161 10158 ] final -179.31 input  -65.29 | X-H torsion
[ 10718 10713 10712 10709 ] final  141.99 input   66.30 | X-H torsion
[ 10763 10752 10751 10750 ] final -158.31 input  -60.55 | X-H torsion
[ 11005 11000 10999 10996 ] final  -10.43 input  -57.11 | X-H torsion

> <Gold.Protein.ActiveResidues>
 VAL166  LYS551  ARG553  GLY616  TRP617  ASP618  TYR619  PRO620  LYS621  CYS622 
 ASP623  PHE694  ASN695  SER759  ASP760  ASP761  ALA762  ILE779  LEU786  VAL792 
 PHE793  MET794  SER795  GLU796  ALA797  LYS798  CYS799  TRP800  GLU811  SER814 

> <Gold.Protein.RotatedAtoms>
  150.6947  134.1773  159.4234 H   0  0  0  0  0  0  0  0  0  0  0  0  # atno 6907 bound_to 6896
  151.9748  135.0056  160.0564 H   0  0  0  0  0  0  0  0  0  0  0  0  # atno 6908 bound_to 6896
  152.1808  133.4671  159.4994 H   0  0  0  0  0  0  0  0  0  0  0  0  # atno 6909 bound_to 6896
  145.7819  139.2891  143.1261 H   0  0  0  0  0  0  0  0  0  0  0  0  # atno 7974 bound_to 7965
  156.2952  140.2293  156.4698 H   0  0  0  0  0  0  0  0  0  0  0  0  # atno 8008 bound_to 7997
  154.7945  140.0452  157.1247 H   0  0  0  0  0  0  0  0  0  0  0  0  # atno 8009 bound_to 7997
  154.9606  140.3054  155.5036 H   0  0  0  0  0  0  0  0  0  0  0  0  # atno 8010 bound_to 7997
  139.5392  144.2410  152.0860 H   0  0  0  0  0  0  0  0  0  0  0  0  # atno 10167 bound_to 10162
  157.3857  131.0998  151.0696 H   0  0  0  0  0  0  0  0  0  0  0  0  # atno 10718 bound_to 10713
  154.7567  135.3106  154.8457 H   0  0  0  0  0  0  0  0  0  0  0  0  # atno 10763 bound_to 10752
  153.9229  135.6793  153.4751 H   0  0  0  0  0  0  0  0  0  0  0  0  # atno 10764 bound_to 10752
  153.1164  135.4842  154.9053 H   0  0  0  0  0  0  0  0  0  0  0  0  # atno 10765 bound_to 10752
  140.7447  133.8641  155.8996 H   0  0  0  0  0  0  0  0  0  0  0  0  # atno 11005 bound_to 11000
  146.0066  140.8473  142.9992 LP  0  0  0  0  0  0  0  0  0  0  0  0  # atno 17320 bound_to 7965
  144.6795  140.2428  143.7341 LP  0  0  0  0  0  0  0  0  0  0  0  0  # atno 17321 bound_to 7965
  140.1886  144.4774  150.6491 LP  0  0  0  0  0  0  0  0  0  0  0  0  # atno 17342 bound_to 10162
  140.6614  143.2253  151.5847 LP  0  0  0  0  0  0  0  0  0  0  0  0  # atno 17343 bound_to 10162
  157.1748  130.6283  149.5652 LP  0  0  0  0  0  0  0  0  0  0  0  0  # atno 17370 bound_to 10713
  155.9786  130.4773  150.6665 LP  0  0  0  0  0  0  0  0  0  0  0  0  # atno 17371 bound_to 10713
  140.9805  134.1411  157.4498 LP  0  0  0  0  0  0  0  0  0  0  0  0  # atno 17394 bound_to 11000
  139.8799  135.0009  156.6036 LP  0  0  0  0  0  0  0  0  0  0  0  0  # atno 17395 bound_to 11000

$$$$
