AV-unprocessed.smi:244|AV-procd|sdf|1871|dock10
  -GOLD-   2262020513D 1   1.00000     0.00000
 Structure written by MMmdl.
 57 61  0  0  0  0  0  0  0  0  2 V2000
  150.4668  144.1130  159.1156 C   0  0  0  0  0  0  0  0  0  0  0  0
  151.2083  143.0405  159.8134 N   0  3  2  0  0  0  0  0  0  0  0  0
  152.1399  143.5744  160.8385 C   0  0  0  0  0  0  0  0  0  0  0  0
  152.8127  142.4356  161.6221 C   0  0  0  0  0  0  0  0  0  0  0  0
  153.5326  141.4792  160.6638 C   0  0  1  0  0  0  0  0  0  0  0  0
  154.0989  140.4000  161.3984 O   0  0  0  0  0  0  0  0  0  0  0  0
  154.8339  139.5183  160.5557 C   0  0  0  0  0  0  0  0  0  0  0  0
  153.8939  138.9186  159.4972 C   0  0  0  0  0  0  0  0  0  0  0  0
  153.2229  139.9790  158.7499 N   0  0  0  0  0  0  0  0  0  0  0  0
  152.4739  139.4957  157.7335 C   0  0  0  0  0  0  0  0  0  0  0  0
  152.7416  139.8638  156.4529 N   0  0  0  0  0  0  0  0  0  0  0  0
  152.0112  139.3645  155.4509 C   0  0  0  0  0  0  0  0  0  0  0  0
  151.0000  138.4946  155.5076 N   0  0  0  0  0  0  0  0  0  0  0  0
  150.7390  138.1186  156.7929 C   0  0  0  0  0  0  0  0  0  0  0  0
  151.4210  138.5717  157.9555 C   0  0  0  0  0  0  0  0  0  0  0  0
  150.8861  137.9751  159.0892 N   0  0  0  0  0  0  0  0  0  0  0  0
  149.9334  137.2139  158.6227 C   0  0  0  0  0  0  0  0  0  0  0  0
  149.7879  137.2247  157.2528 N   0  0  0  0  0  0  0  0  0  0  0  0
  148.8196  136.4691  156.4733 C   0  0  0  0  0  0  0  0  0  0  0  0
  149.4442  135.5177  155.4207 C   0  0  0  0  0  0  0  0  0  0  0  0
  150.0237  136.3677  154.4471 O   0  0  0  0  0  0  0  0  0  0  0  0
  150.5543  134.6168  156.0041 C   0  0  0  0  0  0  0  0  0  0  0  0
  151.0921  133.6206  154.9610 C   0  0  0  0  0  0  0  0  0  0  0  0
  150.0231  132.8422  154.4354 O   0  0  0  0  0  0  0  0  0  0  0  0
  149.0531  133.6254  153.7493 C   0  0  0  0  0  0  0  0  0  0  0  0
  148.3976  134.6222  154.7222 C   0  0  0  0  0  0  0  0  0  0  0  0
  152.5317  140.9284  159.6257 C   0  0  2  0  0  0  0  0  0  0  0  0
  151.8790  142.1108  158.8693 C   0  0  0  0  0  0  0  0  0  0  0  0
  151.1442  144.7522  158.5480 H   0  0  0  0  0  0  0  0  0  0  0  0
  149.9272  144.7352  159.8303 H   0  0  0  0  0  0  0  0  0  0  0  0
  149.7356  143.6910  158.4257 H   0  0  0  0  0  0  0  0  0  0  0  0
  152.8962  144.1959  160.3562 H   0  0  0  0  0  0  0  0  0  0  0  0
  151.5936  144.2180  161.5292 H   0  0  0  0  0  0  0  0  0  0  0  0
  153.5204  142.8459  162.3430 H   0  0  0  0  0  0  0  0  0  0  0  0
  152.0632  141.8900  162.1971 H   0  0  0  0  0  0  0  0  0  0  0  0
  154.3330  142.0250  160.1595 H   0  0  0  0  0  0  0  0  0  0  0  0
  155.6622  140.0500  160.0848 H   0  0  0  0  0  0  0  0  0  0  0  0
  155.2694  138.7255  161.1641 H   0  0  0  0  0  0  0  0  0  0  0  0
  154.4605  138.2846  158.8137 H   0  0  0  0  0  0  0  0  0  0  0  0
  153.1539  138.2839  159.9870 H   0  0  0  0  0  0  0  0  0  0  0  0
  152.2770  139.7085  154.4621 H   0  0  0  0  0  0  0  0  0  0  0  0
  149.3130  136.6096  159.2687 H   0  0  0  0  0  0  0  0  0  0  0  0
  148.2007  135.9010  157.1696 H   0  0  0  0  0  0  0  0  0  0  0  0
  148.1498  137.1797  155.9862 H   0  0  0  0  0  0  0  0  0  0  0  0
  149.7826  136.0517  153.5897 H   0  0  0  0  0  0  0  0  0  0  0  0
  151.3698  135.2213  156.4031 H   0  0  0  0  0  0  0  0  0  0  0  0
  150.1611  134.0401  156.8411 H   0  0  0  0  0  0  0  0  0  0  0  0
  151.6136  134.1366  154.1534 H   0  0  0  0  0  0  0  0  0  0  0  0
  151.8161  132.9507  155.4249 H   0  0  0  0  0  0  0  0  0  0  0  0
  149.5143  134.1408  152.9054 H   0  0  0  0  0  0  0  0  0  0  0  0
  148.2966  132.9588  153.3349 H   0  0  0  0  0  0  0  0  0  0  0  0
  147.8481  134.0453  155.4655 H   0  0  0  0  0  0  0  0  0  0  0  0
  147.6599  135.2307  154.1975 H   0  0  0  0  0  0  0  0  0  0  0  0
  151.7482  140.3837  160.1559 H   0  0  0  0  0  0  0  0  0  0  0  0
  151.1321  141.7458  158.1632 H   0  0  0  0  0  0  0  0  0  0  0  0
  152.6280  142.6520  158.2887 H   0  0  0  0  0  0  0  0  0  0  0  0
  150.5189  142.4940  160.3101 H   0  0  0  0  0  0  0  0  0  0  0  0
  1  2  1  0  0  0  0
  1 29  1  0  0  0  0
  1 30  1  0  0  0  0
  1 31  1  0  0  0  0
  2 28  1  0  0  0  0
  2  3  1  0  0  0  0
  2 57  1  0  0  0  0
  3  4  1  0  0  0  0
  3 32  1  0  0  0  0
  3 33  1  0  0  0  0
  4  5  1  0  0  0  0
  4 34  1  0  0  0  0
  4 35  1  0  0  0  0
  5 27  1  0  0  0  0
  5  6  1  0  0  0  0
  5 36  1  0  0  0  0
  6  7  1  0  0  0  0
  7  8  1  0  0  0  0
  7 37  1  0  0  0  0
  7 38  1  0  0  0  0
  8  9  1  0  0  0  0
  8 39  1  0  0  0  0
  8 40  1  0  0  0  0
  9 10  1  0  0  0  0
  9 27  1  0  0  0  0
 10 15  1  0  0  0  0
 10 11  2  0  0  0  0
 11 12  1  0  0  0  0
 12 13  2  0  0  0  0
 12 41  1  0  0  0  0
 13 14  1  0  0  0  0
 14 18  1  0  0  0  0
 14 15  2  0  0  0  0
 15 16  1  0  0  0  0
 16 17  2  0  0  0  0
 17 18  1  0  0  0  0
 17 42  1  0  0  0  0
 18 19  1  0  0  0  0
 19 20  1  0  0  0  0
 19 43  1  0  0  0  0
 19 44  1  0  0  0  0
 20 26  1  0  0  0  0
 20 21  1  0  0  0  0
 20 22  1  0  0  0  0
 21 45  1  0  0  0  0
 22 23  1  0  0  0  0
 22 46  1  0  0  0  0
 22 47  1  0  0  0  0
 23 24  1  0  0  0  0
 23 48  1  0  0  0  0
 23 49  1  0  0  0  0
 24 25  1  0  0  0  0
 25 26  1  0  0  0  0
 25 50  1  0  0  0  0
 25 51  1  0  0  0  0
 26 52  1  0  0  0  0
 26 53  1  0  0  0  0
 27 28  1  0  0  0  0
 27 54  1  0  0  0  0
 28 55  1  0  0  0  0
 28 56  1  0  0  0  0
M  CHG  1   2   1
M  END
> <s_m_source_file>
AV-unprocessed.smi

> <i_m_source_file_index>
244

> <i_lp_mmshare_version>
43012

> <i_f3d_flags>
0

> <s_epik_input>
W0NIMl0xW0NIMl1OKFtDSDNdKVtDSDJdW0NAQEhdKFtDQEhdMTIpTihbQ0gyXVtDSDJdTzIpYyhuW2NIXW4zKWMoYzM0KW5bY0hdbjRbQ0gyXUM1KFtPSF0pW0NIMl1bQ0gyXU9bQ0gyXVtDSDJdNQ==

> <s_epik_cmdline>
J2VwaWtfcHl0aG9uJywgJy1waCcsICc3LjAnLCAnLXRuJywgJzgnLCAnLW1hJywgJzIwMCcsICctbWV0YWxfYmluZGluZycsICctaW1hZScsICc8aW5maWxlLm1hZT4nLCAnLW9tYWUnLCAnPG91dGZpbGUubWFlPic=

> <r_lp_tautomer_probability>
1

> <r_epik_Ionization_Penalty>
0.0136215

> <r_epik_Ionization_Penalty_Charging>
0.0131385

> <r_epik_Ionization_Penalty_Neutral>
0.000483022

> <r_epik_State_Penalty>
0.0104001

> <r_epik_Charging_Adjusted_Penalty>
0.0235387

> <i_epik_Tot_Q>
1

> <i_epik_Tot_abs_Q>
1

> <r_epik_Metal_State_Penalty>
0.0104469

> <b_epik_Metal_Only>
0

> <s_lp_Force_Field>
OPLS_2005

> <r_lp_Energy>
42.2984

> <b_lp_Chiralities_Consistent>
1

> <s_lp_Variant>
AV-unprocessed.smi:244-8

> <Gold.Version>
5.8.1

> <Gold.Id.Protein>
6NUR|6NUR_protein|mol2

> <Gold.PLP.Fitness>
46.9867

> <Gold.PLP.PLP>
-41.2002

> <Gold.PLP.part.hbond>
-3.1304

> <Gold.PLP.part.metal>
0.0000

> <Gold.PLP.part.buried>
-6.9131

> <Gold.PLP.part.nonpolar>
-30.9658

> <Gold.PLP.part.repulsive>
0.1196

> <Gold.PLP.ligand.clash>
0.0000

> <Gold.PLP.ligand.torsion>
0.1631

> <Gold.PLP.Chemscore.Hbond>
2.0000

> <Gold.PLP.Chemscore.CHOScore>
0.0000

> <Gold.PLP.Chemscore.Metal>
0.0000

> <Gold.Chemscore.Hbonds>
donor molecule, donor type, donor heavy atom, donor atom, acceptor molecule, acceptor atom, score
      L1  H    21    45       P1  7948  0.85
      P1  H  7997  8009       L1    11  1.00

> <Gold.PLP.Chemscore.Internal.Correction>
0.1127

> <Gold.Rescore>
     Score         DG    S(hbond)    S(metal)    S(lipo)     H(rot)  DE(clash)    DE(int)     intcor
     17.67     -17.99       1.88        0.00      98.99       2.09       0.05       0.27       ----

> <Gold.Chemscore.Fitness>
17.6748

> <Gold.Chemscore.DG>
-17.9922

> <Gold.Chemscore.ZeroCoef>
-5.4800

> <Gold.Chemscore.Hbond>
1.8812

> <Gold.Chemscore.Metal>
0.0000

> <Gold.Chemscore.Lipo>
98.9915

> <Gold.Chemscore.Internal_Hbond>
0.0000

> <Gold.Chemscore.DEClash>
0.0471

> <Gold.Chemscore.DEInternal>
0.2703

> <Gold.Chemscore.Rot>
2.0911

> <Gold.Chemscore.Internal.Correction>
   9.000000E+99

> <Gold.Chemscore.Hbonds>
donor molecule, donor type, donor heavy atom, donor atom, acceptor molecule, acceptor atom, score
      L1  H    21    45       P1  7948  0.14
      P1  H  7997  8009       L1    11  0.79

> <Gold.Chemscore.Hbond.Weighted>
-6.2833

> <Gold.Chemscore.Metal.Weighted>
-0.0000

> <Gold.Chemscore.Lipo.Weighted>
-11.5820

> <Gold.Chemscore.Internal_Hbond.Weighted>
0.0000

> <Gold.Chemscore.DEClash.Weighted>
0.0471

> <Gold.Chemscore.DEInternal.Weighted>
0.2703

> <Gold.Chemscore.Rot.Weighted>
5.3531

> <Gold.Chemscore.Internal.Correction.Weighted>
   9.000000E+99

> <Gold.Protein.RotatedTorsions>
[ 6907 6896 6895 6894 ] final -130.15 input  -60.11 | X-H torsion
[ 7974 7965 7964 7962 ] final  174.96 input  175.53 | X-H torsion
[ 8008 7997 7996 7995 ] final -154.85 input   59.86 | X-H torsion
[ 10167 10162 10161 10158 ] final   72.75 input  -65.29 | X-H torsion
[ 10718 10713 10712 10709 ] final -134.86 input   66.30 | X-H torsion
[ 10763 10752 10751 10750 ] final  -82.90 input  -60.55 | X-H torsion
[ 11005 11000 10999 10996 ] final  -92.02 input  -57.11 | X-H torsion

> <Gold.Protein.ActiveResidues>
 VAL166  LYS551  ARG553  GLY616  TRP617  ASP618  TYR619  PRO620  LYS621  CYS622 
 ASP623  PHE694  ASN695  SER759  ASP760  ASP761  ALA762  ILE779  LEU786  VAL792 
 PHE793  MET794  SER795  GLU796  ALA797  LYS798  CYS799  TRP800  GLU811  SER814 

> <Gold.Protein.RotatedAtoms>
  150.9366  133.6705  159.2799 H   0  0  0  0  0  0  0  0  0  0  0  0  # atno 6907 bound_to 6896
  151.4108  135.0983  159.9594 H   0  0  0  0  0  0  0  0  0  0  0  0  # atno 6908 bound_to 6896
  152.5050  133.8839  159.7415 H   0  0  0  0  0  0  0  0  0  0  0  0  # atno 6909 bound_to 6896
  144.7211  139.9875  143.6439 H   0  0  0  0  0  0  0  0  0  0  0  0  # atno 7974 bound_to 7965
  155.6927  140.0757  157.2441 H   0  0  0  0  0  0  0  0  0  0  0  0  # atno 8008 bound_to 7997
  154.4086  140.1661  156.2157 H   0  0  0  0  0  0  0  0  0  0  0  0  # atno 8009 bound_to 7997
  155.9437  140.3382  155.6352 H   0  0  0  0  0  0  0  0  0  0  0  0  # atno 8010 bound_to 7997
  140.0319  144.5459  150.7500 H   0  0  0  0  0  0  0  0  0  0  0  0  # atno 10167 bound_to 10162
  156.2600  130.7204  151.1134 H   0  0  0  0  0  0  0  0  0  0  0  0  # atno 10718 bound_to 10713
  154.5813  135.5575  153.7188 H   0  0  0  0  0  0  0  0  0  0  0  0  # atno 10763 bound_to 10752
  153.0083  135.6321  154.1978 H   0  0  0  0  0  0  0  0  0  0  0  0  # atno 10764 bound_to 10752
  154.1918  135.2882  155.2999 H   0  0  0  0  0  0  0  0  0  0  0  0  # atno 10765 bound_to 10752
  141.1531  133.7793  156.9961 H   0  0  0  0  0  0  0  0  0  0  0  0  # atno 11005 bound_to 11000
  146.0439  139.3447  143.0681 LP  0  0  0  0  0  0  0  0  0  0  0  0  # atno 17320 bound_to 7965
  145.8301  140.9635  143.0853 LP  0  0  0  0  0  0  0  0  0  0  0  0  # atno 17321 bound_to 7965
  140.7298  143.2676  151.3992 LP  0  0  0  0  0  0  0  0  0  0  0  0  # atno 17342 bound_to 10162
  139.6070  144.1176  152.2259 LP  0  0  0  0  0  0  0  0  0  0  0  0  # atno 17343 bound_to 10162
  157.7247  131.0658  150.5985 LP  0  0  0  0  0  0  0  0  0  0  0  0  # atno 17370 bound_to 10713
  156.6072  130.4370  149.5873 LP  0  0  0  0  0  0  0  0  0  0  0  0  # atno 17371 bound_to 10713
  140.0970  134.9558  157.1865 LP  0  0  0  0  0  0  0  0  0  0  0  0  # atno 17394 bound_to 11000
  140.3368  134.2748  155.7218 LP  0  0  0  0  0  0  0  0  0  0  0  0  # atno 17395 bound_to 11000

$$$$
