AV-unprocessed.smi:692|AV-procd|sdf|3371|dock9
  -GOLD-   22720 0353D 1   1.00000     0.00000
 Structure written by MMmdl.
 36 37  0  0  0  0  0  0  0  0  2 V2000
  145.8993  131.7557  161.1830 C   0  0  0  0  0  0  0  0  0  0  0  0
  147.3008  132.3642  161.0619 C   0  0  0  0  0  0  0  0  0  0  0  0
  147.3373  133.7995  161.4910 C   0  0  0  0  0  0  0  0  0  0  0  0
  146.9770  134.3038  162.7136 C   0  0  0  0  0  0  0  0  0  0  0  0
  147.1682  136.0326  162.7777 S   0  0  0  0  0  0  0  0  0  0  0  0
  147.7521  136.0186  161.1121 C   0  0  0  0  0  0  0  0  0  0  0  0
  148.1242  137.1057  160.4171 N   0  5  0  0  0  0  0  0  0  0  0  0
  148.8817  136.9698  159.3049 C   0  0  0  0  0  0  0  0  0  0  0  0
  149.4006  135.9281  158.8966 O   0  0  0  0  0  0  0  0  0  0  0  0
  149.0510  138.1130  158.6250 N   0  0  0  0  0  0  0  0  0  0  0  0
  149.8204  138.2736  157.3942 C   0  0  1  0  0  0  0  0  0  0  0  0
  149.7582  139.7299  156.9305 C   0  0  0  0  0  0  0  0  0  0  0  0
  150.5275  139.9056  155.6159 C   0  0  0  0  0  0  0  0  0  0  0  0
  151.9214  139.2593  155.6260 C   0  0  0  0  0  0  0  0  0  0  0  0
  152.7391  139.6317  154.7838 O   0  0  0  0  0  0  0  0  0  0  0  0
  152.1974  138.2874  156.5291 N   0  0  0  0  0  0  0  0  0  0  0  0
  153.5070  137.6334  156.5337 C   0  0  0  0  0  0  0  0  0  0  0  0
  151.2898  137.8589  157.6048 C   0  0  0  0  0  0  0  0  0  0  0  0
  147.7673  134.7841  160.5974 N   0  0  0  0  0  0  0  0  0  0  0  0
  145.8997  130.7124  160.8671 H   0  0  0  0  0  0  0  0  0  0  0  0
  145.1819  132.2915  160.5606 H   0  0  0  0  0  0  0  0  0  0  0  0
  145.5430  131.7930  162.2127 H   0  0  0  0  0  0  0  0  0  0  0  0
  147.9991  131.7779  161.6599 H   0  0  0  0  0  0  0  0  0  0  0  0
  147.6434  132.2754  160.0302 H   0  0  0  0  0  0  0  0  0  0  0  0
  146.6098  133.7677  163.5758 H   0  0  0  0  0  0  0  0  0  0  0  0
  148.6070  138.9401  158.9963 H   0  0  0  0  0  0  0  0  0  0  0  0
  149.3785  137.6503  156.6143 H   0  0  0  0  0  0  0  0  0  0  0  0
  148.7211  140.0371  156.7905 H   0  0  0  0  0  0  0  0  0  0  0  0
  150.1765  140.3866  157.6950 H   0  0  0  0  0  0  0  0  0  0  0  0
  149.9614  139.4539  154.8007 H   0  0  0  0  0  0  0  0  0  0  0  0
  150.6206  140.9661  155.3799 H   0  0  0  0  0  0  0  0  0  0  0  0
  153.6593  137.0784  155.6071 H   0  0  0  0  0  0  0  0  0  0  0  0
  153.6141  136.9312  157.3614 H   0  0  0  0  0  0  0  0  0  0  0  0
  154.3073  138.3691  156.6278 H   0  0  0  0  0  0  0  0  0  0  0  0
  151.6631  138.2907  158.5349 H   0  0  0  0  0  0  0  0  0  0  0  0
  151.3434  136.7755  157.7226 H   0  0  0  0  0  0  0  0  0  0  0  0
  1  2  1  0  0  0  0
  1 20  1  0  0  0  0
  1 21  1  0  0  0  0
  1 22  1  0  0  0  0
  2  3  1  0  0  0  0
  2 23  1  0  0  0  0
  2 24  1  0  0  0  0
  3 19  1  0  0  0  0
  3  4  2  0  0  0  0
  4  5  1  0  0  0  0
  4 25  1  0  0  0  0
  5  6  1  0  0  0  0
  6  7  1  0  0  0  0
  6 19  2  0  0  0  0
  7  8  1  0  0  0  0
  8  9  2  0  0  0  0
  8 10  1  0  0  0  0
 10 11  1  0  0  0  0
 10 26  1  0  0  0  0
 11 18  1  0  0  0  0
 11 12  1  0  0  0  0
 11 27  1  0  0  0  0
 12 13  1  0  0  0  0
 12 28  1  0  0  0  0
 12 29  1  0  0  0  0
 13 14  1  0  0  0  0
 13 30  1  0  0  0  0
 13 31  1  0  0  0  0
 14 15  2  0  0  0  0
 14 16  1  0  0  0  0
 16 17  1  0  0  0  0
 16 18  1  0  0  0  0
 17 32  1  0  0  0  0
 17 33  1  0  0  0  0
 17 34  1  0  0  0  0
 18 35  1  0  0  0  0
 18 36  1  0  0  0  0
M  CHG  1   7  -1
M  END
> <s_m_source_file>
AV-unprocessed.smi

> <i_m_source_file_index>
692

> <i_lp_mmshare_version>
43012

> <i_f3d_flags>
0

> <s_epik_input>
W0NIM11bQ0gyXWMxW2NIXXNjKG4xKVtOSF1DKD1PKVtOSF1bQ0BASF0yW0NIMl1bQ0gyXUMoPU8pTihbQ0gzXSlbQ0gyXTI=

> <s_epik_cmdline>
J2VwaWtfcHl0aG9uJywgJy1waCcsICc3LjAnLCAnLXRuJywgJzgnLCAnLW1hJywgJzIwMCcsICctbWV0YWxfYmluZGluZycsICctaW1hZScsICc8aW5maWxlLm1hZT4nLCAnLW9tYWUnLCAnPG91dGZpbGUubWFlPic=

> <r_lp_tautomer_probability>
1

> <r_epik_Ionization_Penalty>
7.06728

> <r_epik_Ionization_Penalty_Charging>
5.78908

> <r_epik_Ionization_Penalty_Neutral>
1.2782

> <r_epik_State_Penalty>
5.78905

> <r_epik_Charging_Adjusted_Penalty>
11.5781

> <i_epik_Tot_Q>
-1

> <i_epik_Tot_abs_Q>
1

> <r_epik_Metal_State_Penalty>
1.76044

> <b_epik_Metal_Only>
1

> <s_lp_Force_Field>
OPLS_2005

> <r_lp_Energy>
4.22105

> <b_lp_Chiralities_Consistent>
1

> <s_lp_Variant>
AV-unprocessed.smi:692-4

> <Gold.Version>
5.8.1

> <Gold.Id.Protein>
6NUR|6NUR_protein|mol2

> <Gold.PLP.Fitness>
47.7186

> <Gold.PLP.PLP>
-32.7419

> <Gold.PLP.part.hbond>
-5.0000

> <Gold.PLP.part.metal>
0.0000

> <Gold.PLP.part.buried>
-3.8083

> <Gold.PLP.part.nonpolar>
-25.3972

> <Gold.PLP.part.repulsive>
0.2229

> <Gold.PLP.ligand.clash>
0.0000

> <Gold.PLP.ligand.torsion>
0.0899

> <Gold.PLP.Chemscore.Hbond>
5.0492

> <Gold.PLP.Chemscore.CHOScore>
0.0000

> <Gold.PLP.Chemscore.Metal>
0.0000

> <Gold.Chemscore.Hbonds>
donor molecule, donor type, donor heavy atom, donor atom, acceptor molecule, acceptor atom, score
      P1  H  6896  6907       L1     9  1.00
      P1  H  6931  6943       L1     7  1.35
      P1  H  6934  6947       L1     7  0.87
      P1  H  7989  7998       L1    15  0.47
      P1  H  7997  8009       L1    15  0.80

> <Gold.PLP.Chemscore.Internal.Correction>
0.0091

> <Gold.Rescore>
     Score         DG    S(hbond)    S(metal)    S(lipo)     H(rot)  DE(clash)    DE(int)     intcor
     16.36     -19.10       3.04        0.00      56.45       1.23       0.01       2.74       ----

> <Gold.Chemscore.Fitness>
16.3557

> <Gold.Chemscore.DG>
-19.0990

> <Gold.Chemscore.ZeroCoef>
-5.4800

> <Gold.Chemscore.Hbond>
3.0390

> <Gold.Chemscore.Metal>
0.0000

> <Gold.Chemscore.Lipo>
56.4536

> <Gold.Chemscore.Internal_Hbond>
0.0000

> <Gold.Chemscore.DEClash>
0.0067

> <Gold.Chemscore.DEInternal>
2.7367

> <Gold.Chemscore.Rot>
1.2251

> <Gold.Chemscore.Internal.Correction>
   9.000000E+99

> <Gold.Chemscore.Hbonds>
donor molecule, donor type, donor heavy atom, donor atom, acceptor molecule, acceptor atom, score
      P1  H  6896  6907       L1     9  0.99
      P1  H  6931  6943       L1     7  0.19
      P1  H  6934  6947       L1     7  0.41
      P1  H  7989  7998       L1    15  0.25
      P1  H  7997  8009       L1    15  0.35

> <Gold.Chemscore.Hbond.Weighted>
-10.1502

> <Gold.Chemscore.Metal.Weighted>
-0.0000

> <Gold.Chemscore.Lipo.Weighted>
-6.6051

> <Gold.Chemscore.Internal_Hbond.Weighted>
0.0000

> <Gold.Chemscore.DEClash.Weighted>
0.0067

> <Gold.Chemscore.DEInternal.Weighted>
2.7367

> <Gold.Chemscore.Rot.Weighted>
3.1362

> <Gold.Chemscore.Internal.Correction.Weighted>
   9.000000E+99

> <Gold.Protein.RotatedTorsions>
[ 6907 6896 6895 6894 ] final  -69.32 input  -60.11 | X-H torsion
[ 7974 7965 7964 7962 ] final -150.07 input  175.53 | X-H torsion
[ 8008 7997 7996 7995 ] final -137.80 input   59.86 | X-H torsion
[ 10167 10162 10161 10158 ] final  -62.49 input  -65.29 | X-H torsion
[ 10718 10713 10712 10709 ] final  -91.26 input   66.30 | X-H torsion
[ 10763 10752 10751 10750 ] final -172.85 input  -60.55 | X-H torsion
[ 11005 11000 10999 10996 ] final   28.03 input  -57.11 | X-H torsion

> <Gold.Protein.ActiveResidues>
 VAL166  LYS551  ARG553  GLY616  TRP617  ASP618  TYR619  PRO620  LYS621  CYS622 
 ASP623  PHE694  ASN695  SER759  ASP760  ASP761  ALA762  ILE779  LEU786  VAL792 
 PHE793  MET794  SER795  GLU796  ALA797  LYS798  CYS799  TRP800  GLU811  SER814 

> <Gold.Protein.RotatedAtoms>
  150.7311  134.5613  159.5843 H   0  0  0  0  0  0  0  0  0  0  0  0  # atno 6907 bound_to 6896
  152.3076  134.7534  160.0353 H   0  0  0  0  0  0  0  0  0  0  0  0  # atno 6908 bound_to 6896
  151.8093  133.3344  159.3587 H   0  0  0  0  0  0  0  0  0  0  0  0  # atno 6909 bound_to 6896
  144.7929  140.4981  143.5760 H   0  0  0  0  0  0  0  0  0  0  0  0  # atno 7974 bound_to 7965
  155.4177  140.0516  157.3027 H   0  0  0  0  0  0  0  0  0  0  0  0  # atno 8008 bound_to 7997
  154.4917  140.2122  155.9494 H   0  0  0  0  0  0  0  0  0  0  0  0  # atno 8009 bound_to 7997
  156.1350  140.3165  155.8413 H   0  0  0  0  0  0  0  0  0  0  0  0  # atno 8010 bound_to 7997
  140.5936  143.2346  151.6086 H   0  0  0  0  0  0  0  0  0  0  0  0  # atno 10167 bound_to 10162
  155.9992  130.4941  150.5448 H   0  0  0  0  0  0  0  0  0  0  0  0  # atno 10718 bound_to 10713
  154.6146  135.2868  155.0394 H   0  0  0  0  0  0  0  0  0  0  0  0  # atno 10763 bound_to 10752
  154.1611  135.6488  153.4990 H   0  0  0  0  0  0  0  0  0  0  0  0  # atno 10764 bound_to 10752
  153.0209  135.5378  154.6912 H   0  0  0  0  0  0  0  0  0  0  0  0  # atno 10765 bound_to 10752
  140.3199  134.2555  155.7719 H   0  0  0  0  0  0  0  0  0  0  0  0  # atno 11005 bound_to 11000
  145.5746  139.1485  143.3269 LP  0  0  0  0  0  0  0  0  0  0  0  0  # atno 17320 bound_to 7965
  146.2188  140.5879  142.9026 LP  0  0  0  0  0  0  0  0  0  0  0  0  # atno 17321 bound_to 7965
  139.5243  144.3107  152.0995 LP  0  0  0  0  0  0  0  0  0  0  0  0  # atno 17342 bound_to 10162
  140.2276  144.4402  150.6314 LP  0  0  0  0  0  0  0  0  0  0  0  0  # atno 17343 bound_to 10162
  157.3379  131.0711  151.1810 LP  0  0  0  0  0  0  0  0  0  0  0  0  # atno 17370 bound_to 10713
  157.2669  130.6685  149.6001 LP  0  0  0  0  0  0  0  0  0  0  0  0  # atno 17371 bound_to 10713
  141.2089  133.7765  157.0031 LP  0  0  0  0  0  0  0  0  0  0  0  0  # atno 17394 bound_to 11000
  140.0951  134.9569  157.1836 LP  0  0  0  0  0  0  0  0  0  0  0  0  # atno 17395 bound_to 11000

$$$$
