AV-unprocessed.smi:32|AV-procd|sdf|198|dock2
  -GOLD-   2262015463D 1   1.00000     0.00000
 Structure written by MMmdl.
 49 51  0  0  0  0  0  0  0  0  1 V2000
  151.3710  137.1800  159.6835 O   0  0  0  0  0  0  0  0  0  0  0  0
  150.6059  137.1582  158.7185 C   0  0  0  0  0  0  0  0  0  0  0  0
  151.0437  137.7212  157.3581 C   0  0  0  0  0  0  0  0  0  0  0  0
  150.8256  139.1787  157.2332 N   0  0  0  0  0  0  0  0  0  0  0  0
  150.1680  139.6640  156.0753 C   0  0  0  0  0  0  0  0  0  0  0  0
  149.7744  138.8960  155.1960 O   0  0  0  0  0  0  0  0  0  0  0  0
  150.0048  141.1113  156.0029 C   0  0  0  0  0  0  0  0  0  0  0  0
  149.3942  141.6600  154.9388 F   0  0  0  0  0  0  0  0  0  0  0  0
  150.4618  141.9117  156.9875 C   0  0  0  0  0  0  0  0  0  0  0  0
  151.1038  141.4248  158.1119 N   0  0  0  0  0  0  0  0  0  0  0  0
  151.6241  142.3517  159.1898 C   0  0  1  0  0  0  0  0  0  0  0  0
  152.7714  143.2079  158.6440 C   0  0  0  0  0  0  0  0  0  0  0  0
  152.0326  144.4308  158.1457 C   0  0  0  0  0  0  0  0  0  0  0  0
  150.9147  144.5587  159.1755 C   0  0  0  0  0  0  0  0  0  0  0  0
  150.6034  143.2258  159.5785 O   0  0  0  0  0  0  0  0  0  0  0  0
  151.3085  140.0347  158.2519 C   0  0  0  0  0  0  0  0  0  0  0  0
  151.9033  139.5827  159.2327 O   0  0  0  0  0  0  0  0  0  0  0  0
  149.3552  136.6684  158.7719 N   0  0  0  0  0  0  0  0  0  0  0  0
  148.6718  136.0803  159.9279 C   0  0  0  0  0  0  0  0  0  0  0  0
  148.3110  134.6036  159.6404 C   0  0  0  0  0  0  0  0  0  0  0  0
  147.9563  133.7634  160.8760 C   0  0  0  0  0  0  0  0  0  0  0  0
  146.7872  134.3031  161.7160 C   0  0  0  0  0  0  0  0  0  0  0  0
  147.1755  135.5356  162.5466 C   0  0  0  0  0  0  0  0  0  0  0  0
  147.0560  136.8880  161.8230 C   0  0  0  0  0  0  0  0  0  0  0  0
  147.4407  136.9255  160.3323 C   0  0  0  0  0  0  0  0  0  0  0  0
  152.0942  137.4781  157.1885 H   0  0  0  0  0  0  0  0  0  0  0  0
  150.5173  137.1693  156.5784 H   0  0  0  0  0  0  0  0  0  0  0  0
  150.3178  142.9755  156.8744 H   0  0  0  0  0  0  0  0  0  0  0  0
  151.9039  141.7124  160.0289 H   0  0  0  0  0  0  0  0  0  0  0  0
  153.4331  143.4713  159.4700 H   0  0  0  0  0  0  0  0  0  0  0  0
  153.3498  142.6926  157.8764 H   0  0  0  0  0  0  0  0  0  0  0  0
  152.6623  145.3189  158.0869 H   0  0  0  0  0  0  0  0  0  0  0  0
  151.6163  144.2417  157.1557 H   0  0  0  0  0  0  0  0  0  0  0  0
  151.2646  145.1128  160.0475 H   0  0  0  0  0  0  0  0  0  0  0  0
  150.0377  145.0703  158.7785 H   0  0  0  0  0  0  0  0  0  0  0  0
  148.8177  136.7030  157.9179 H   0  0  0  0  0  0  0  0  0  0  0  0
  149.4050  136.1157  160.7343 H   0  0  0  0  0  0  0  0  0  0  0  0
  147.4865  134.5518  158.9284 H   0  0  0  0  0  0  0  0  0  0  0  0
  149.1554  134.1206  159.1464 H   0  0  0  0  0  0  0  0  0  0  0  0
  147.7034  132.7581  160.5377 H   0  0  0  0  0  0  0  0  0  0  0  0
  148.8396  133.6462  161.5050 H   0  0  0  0  0  0  0  0  0  0  0  0
  145.9127  134.5040  161.0959 H   0  0  0  0  0  0  0  0  0  0  0  0
  146.4880  133.5145  162.4073 H   0  0  0  0  0  0  0  0  0  0  0  0
  146.5445  135.5757  163.4350 H   0  0  0  0  0  0  0  0  0  0  0  0
  148.1912  135.4125  162.9247 H   0  0  0  0  0  0  0  0  0  0  0  0
  146.0307  137.2483  161.9130 H   0  0  0  0  0  0  0  0  0  0  0  0
  147.6652  137.6129  162.3639 H   0  0  0  0  0  0  0  0  0  0  0  0
  147.6070  137.9715  160.0704 H   0  0  0  0  0  0  0  0  0  0  0  0
  146.5813  136.6166  159.7361 H   0  0  0  0  0  0  0  0  0  0  0  0
  1  2  2  0  0  0  0
  2  3  1  0  0  0  0
  2 18  1  0  0  0  0
  3  4  1  0  0  0  0
  3 26  1  0  0  0  0
  3 27  1  0  0  0  0
  4 16  1  0  0  0  0
  4  5  1  0  0  0  0
  5  6  2  0  0  0  0
  5  7  1  0  0  0  0
  7  8  1  0  0  0  0
  7  9  2  0  0  0  0
  9 10  1  0  0  0  0
  9 28  1  0  0  0  0
 10 11  1  0  0  0  0
 10 16  1  0  0  0  0
 11 15  1  0  0  0  0
 11 12  1  0  0  0  0
 11 29  1  0  0  0  0
 12 13  1  0  0  0  0
 12 30  1  0  0  0  0
 12 31  1  0  0  0  0
 13 14  1  0  0  0  0
 13 32  1  0  0  0  0
 13 33  1  0  0  0  0
 14 15  1  0  0  0  0
 14 34  1  0  0  0  0
 14 35  1  0  0  0  0
 16 17  2  0  0  0  0
 18 19  1  0  0  0  0
 18 36  1  0  0  0  0
 19 25  1  0  0  0  0
 19 20  1  0  0  0  0
 19 37  1  0  0  0  0
 20 21  1  0  0  0  0
 20 38  1  0  0  0  0
 20 39  1  0  0  0  0
 21 22  1  0  0  0  0
 21 40  1  0  0  0  0
 21 41  1  0  0  0  0
 22 23  1  0  0  0  0
 22 42  1  0  0  0  0
 22 43  1  0  0  0  0
 23 24  1  0  0  0  0
 23 44  1  0  0  0  0
 23 45  1  0  0  0  0
 24 25  1  0  0  0  0
 24 46  1  0  0  0  0
 24 47  1  0  0  0  0
 25 48  1  0  0  0  0
 25 49  1  0  0  0  0
M  END
> <s_m_source_file>
AV-unprocessed.smi

> <i_m_source_file_index>
32

> <i_lp_mmshare_version>
43012

> <i_f3d_flags>
0

> <s_epik_input>
W0NIMl0xW0NIMl1bQ0gyXVtDSDJdW0NIMl1bQ0gyXVtDSF0xW05IXUMoPU8pW0NIMl1uMmMoPU8pYyhGKVtjSF1uKGMyPU8pW0NAQEhdM1tDSDJdW0NIMl1bQ0gyXU8z

> <s_epik_cmdline>
J2VwaWtfcHl0aG9uJywgJy1waCcsICc3LjAnLCAnLXRuJywgJzgnLCAnLW1hJywgJzIwMCcsICctbWV0YWxfYmluZGluZycsICctaW1hZScsICc8aW5maWxlLm1hZT4nLCAnLW9tYWUnLCAnPG91dGZpbGUubWFlPic=

> <r_lp_tautomer_probability>
1

> <r_epik_Ionization_Penalty>
2.43741e-08

> <r_epik_Ionization_Penalty_Charging>
4.15308e-09

> <r_epik_Ionization_Penalty_Neutral>
2.0221e-08

> <r_epik_State_Penalty>
-0

> <r_epik_Charging_Adjusted_Penalty>
4.15308e-09

> <i_epik_Tot_Q>
0

> <i_epik_Tot_abs_Q>
0

> <r_epik_Metal_State_Penalty>
-0

> <b_epik_Metal_Only>
0

> <s_epik_Chemistry_Notes>
This compound contains an acetal/aminal-like group ( X-CH(R)-Y where X, Y are N, S, or O) that may be acid/base labile, releasing an aldehyde.

> <s_lp_Force_Field>
OPLS_2005

> <r_lp_Energy>
36.3437

> <b_lp_Chiralities_Consistent>
1

> <s_lp_Variant>
AV-unprocessed.smi:32-2

> <Gold.Version>
5.8.1

> <Gold.Id.Protein>
6NUR|6NUR_protein|mol2

> <Gold.PLP.Fitness>
49.1706

> <Gold.PLP.PLP>
-44.4104

> <Gold.PLP.part.hbond>
-1.7756

> <Gold.PLP.part.metal>
0.0000

> <Gold.PLP.part.buried>
-3.0553

> <Gold.PLP.part.nonpolar>
-38.6322

> <Gold.PLP.part.repulsive>
0.2846

> <Gold.PLP.ligand.clash>
0.0000

> <Gold.PLP.ligand.torsion>
0.6022

> <Gold.PLP.Chemscore.Hbond>
0.9913

> <Gold.PLP.Chemscore.CHOScore>
0.9820

> <Gold.PLP.Chemscore.Metal>
0.0000

> <Gold.Chemscore.Hbonds>
donor molecule, donor type, donor heavy atom, donor atom, acceptor molecule, acceptor atom, score
      P1  H  6896  6909       L1     1  0.89
      L1  C     9    28       P1  8028  0.93

> <Gold.PLP.Chemscore.Internal.Correction>
0.0450

> <Gold.Rescore>
     Score         DG    S(hbond)    S(metal)    S(lipo)     H(rot)  DE(clash)    DE(int)     intcor
     11.07     -14.83       0.97        0.00      92.19       1.82       0.21       3.55       ----

> <Gold.Chemscore.Fitness>
11.0682

> <Gold.Chemscore.DG>
-14.8266

> <Gold.Chemscore.ZeroCoef>
-5.4800

> <Gold.Chemscore.Hbond>
0.9677

> <Gold.Chemscore.Metal>
0.0000

> <Gold.Chemscore.Lipo>
92.1872

> <Gold.Chemscore.Internal_Hbond>
0.0000

> <Gold.Chemscore.DEClash>
0.2116

> <Gold.Chemscore.DEInternal>
3.5468

> <Gold.Chemscore.Rot>
1.8248

> <Gold.Chemscore.Internal.Correction>
   9.000000E+99

> <Gold.Chemscore.Hbonds>
donor molecule, donor type, donor heavy atom, donor atom, acceptor molecule, acceptor atom, score
      P1  H  6896  6909       L1     1  0.17

> <Gold.Chemscore.Hbond.Weighted>
-3.2322

> <Gold.Chemscore.Metal.Weighted>
-0.0000

> <Gold.Chemscore.Lipo.Weighted>
-10.7859

> <Gold.Chemscore.Internal_Hbond.Weighted>
0.0000

> <Gold.Chemscore.DEClash.Weighted>
0.2116

> <Gold.Chemscore.DEInternal.Weighted>
3.5468

> <Gold.Chemscore.Rot.Weighted>
4.6714

> <Gold.Chemscore.Internal.Correction.Weighted>
   9.000000E+99

> <Gold.Protein.RotatedTorsions>
[ 6907 6896 6895 6894 ] final  116.26 input  -60.11 | X-H torsion
[ 7974 7965 7964 7962 ] final  -80.05 input  175.53 | X-H torsion
[ 8008 7997 7996 7995 ] final   -5.73 input   59.86 | X-H torsion
[ 10167 10162 10161 10158 ] final  -17.59 input  -65.29 | X-H torsion
[ 10718 10713 10712 10709 ] final  -39.23 input   66.30 | X-H torsion
[ 10763 10752 10751 10750 ] final  153.75 input  -60.55 | X-H torsion
[ 11005 11000 10999 10996 ] final  -34.50 input  -57.11 | X-H torsion

> <Gold.Protein.ActiveResidues>
 VAL166  LYS551  ARG553  GLY616  TRP617  ASP618  TYR619  PRO620  LYS621  CYS622 
 ASP623  PHE694  ASN695  SER759  ASP760  ASP761  ALA762  ILE779  LEU786  VAL792 
 PHE793  MET794  SER795  GLU796  ALA797  LYS798  CYS799  TRP800  GLU811  SER814 

> <Gold.Protein.RotatedAtoms>
  152.4689  133.7985  159.6940 H   0  0  0  0  0  0  0  0  0  0  0  0  # atno 6907 bound_to 6896
  150.8668  133.7553  159.2980 H   0  0  0  0  0  0  0  0  0  0  0  0  # atno 6908 bound_to 6896
  151.5101  135.1068  159.9903 H   0  0  0  0  0  0  0  0  0  0  0  0  # atno 6909 bound_to 6896
  145.5650  140.9475  143.1426 H   0  0  0  0  0  0  0  0  0  0  0  0  # atno 7974 bound_to 7965
  154.6009  140.2451  155.7794 H   0  0  0  0  0  0  0  0  0  0  0  0  # atno 8008 bound_to 7997
  156.2310  140.2966  156.0141 H   0  0  0  0  0  0  0  0  0  0  0  0  # atno 8009 bound_to 7997
  155.2213  140.0400  157.2939 H   0  0  0  0  0  0  0  0  0  0  0  0  # atno 8010 bound_to 7997
  140.7249  143.5000  150.9881 H   0  0  0  0  0  0  0  0  0  0  0  0  # atno 10167 bound_to 10162
  156.2947  130.4232  149.8202 H   0  0  0  0  0  0  0  0  0  0  0  0  # atno 10718 bound_to 10713
  154.1413  135.2820  155.3160 H   0  0  0  0  0  0  0  0  0  0  0  0  # atno 10763 bound_to 10752
  154.6285  135.5443  153.7657 H   0  0  0  0  0  0  0  0  0  0  0  0  # atno 10764 bound_to 10752
  153.0250  135.6456  154.1559 H   0  0  0  0  0  0  0  0  0  0  0  0  # atno 10765 bound_to 10752
  140.9721  133.7103  156.1541 H   0  0  0  0  0  0  0  0  0  0  0  0  # atno 11005 bound_to 11000
  144.7464  139.7308  143.7290 LP  0  0  0  0  0  0  0  0  0  0  0  0  # atno 17320 bound_to 7965
  146.1824  139.5023  142.9858 LP  0  0  0  0  0  0  0  0  0  0  0  0  # atno 17321 bound_to 7965
  139.8709  143.7194  152.3166 LP  0  0  0  0  0  0  0  0  0  0  0  0  # atno 17342 bound_to 10162
  139.7442  144.7551  151.0605 LP  0  0  0  0  0  0  0  0  0  0  0  0  # atno 17343 bound_to 10162
  156.5602  130.8380  151.3326 LP  0  0  0  0  0  0  0  0  0  0  0  0  # atno 17370 bound_to 10713
  157.7352  130.9758  150.2070 LP  0  0  0  0  0  0  0  0  0  0  0  0  # atno 17371 bound_to 10713
  140.7313  134.4251  157.5565 LP  0  0  0  0  0  0  0  0  0  0  0  0  # atno 17394 bound_to 11000
  139.8916  134.8775  156.2310 LP  0  0  0  0  0  0  0  0  0  0  0  0  # atno 17395 bound_to 11000

$$$$
