AV-unprocessed.smi:264|AV-procd|sdf|2013|dock3
  -GOLD-   2262021213D 1   1.00000     0.00000
 Structure written by MMmdl.
 52 56  0  0  0  0  0  0  0  0  1 V2000
  146.1820  130.1048  152.4949 C   0  0  0  0  0  0  0  0  0  0  0  0
  145.5694  131.4554  152.0893 C   0  0  2  0  0  0  0  0  0  0  0  0
  145.3030  131.4832  150.6872 O   0  0  0  0  0  0  0  0  0  0  0  0
  146.0124  132.5520  150.0783 C   0  0  0  0  0  0  0  0  0  0  0  0
  146.1490  133.5859  151.1875 C   0  0  0  0  0  0  0  0  0  0  0  0
  146.3997  132.7205  152.4151 C   0  0  2  0  0  0  0  0  0  0  0  0
  147.7851  132.4185  152.4691 O   0  0  0  0  0  0  0  0  0  0  0  0
  145.9926  133.3897  153.7498 C   0  0  0  0  0  0  0  0  0  0  0  0
  146.7737  134.5775  154.0598 N   0  0  0  0  0  0  0  0  0  0  0  0
  147.9263  134.6322  154.8105 C   0  0  0  0  0  0  0  0  0  0  0  0
  148.4395  135.8231  154.9556 N   0  0  0  0  0  0  0  0  0  0  0  0
  147.5779  136.6544  154.2492 C   0  0  0  0  0  0  0  0  0  0  0  0
  147.5370  138.0550  153.9950 C   0  0  0  0  0  0  0  0  0  0  0  0
  148.4546  138.9197  154.4990 N   0  0  0  0  0  0  0  0  0  0  0  0
  148.2804  140.3077  154.0887 C   0  0  0  0  0  0  0  0  0  0  0  0
  149.1186  141.2287  154.9857 C   0  0  0  0  0  0  0  0  0  0  0  0
  150.4828  140.8107  154.9895 O   0  0  0  0  0  0  0  0  0  0  0  0
  150.7040  139.4516  155.3876 C   0  0  2  0  0  0  0  0  0  0  0  0
  150.5066  139.2509  156.8878 C   0  0  0  0  0  0  0  0  0  0  0  0
  151.8213  139.7623  157.4560 C   0  0  0  0  0  0  0  0  0  0  0  0
  152.7884  139.2704  156.5425 O   0  0  0  0  0  0  0  0  0  0  0  0
  152.2131  139.1894  155.2402 C   0  0  0  0  0  0  0  0  0  0  0  0
  149.8560  138.5080  154.5070 C   0  0  0  0  0  0  0  0  0  0  0  0
  146.5240  138.5166  153.2130 N   0  0  0  0  0  0  0  0  0  0  0  0
  145.6085  137.6748  152.7244 C   0  0  0  0  0  0  0  0  0  0  0  0
  145.5163  136.3543  152.8906 N   0  0  0  0  0  0  0  0  0  0  0  0
  146.5332  135.8822  153.6661 C   0  0  0  0  0  0  0  0  0  0  0  0
  146.3994  130.0776  153.5629 H   0  0  0  0  0  0  0  0  0  0  0  0
  147.1079  129.9052  151.9550 H   0  0  0  0  0  0  0  0  0  0  0  0
  145.4944  129.2879  152.2751 H   0  0  0  0  0  0  0  0  0  0  0  0
  144.5939  131.5400  152.5698 H   0  0  0  0  0  0  0  0  0  0  0  0
  146.9929  132.1961  149.7592 H   0  0  0  0  0  0  0  0  0  0  0  0
  145.4868  132.9366  149.2043 H   0  0  0  0  0  0  0  0  0  0  0  0
  146.9337  134.3191  150.9960 H   0  0  0  0  0  0  0  0  0  0  0  0
  145.2058  134.1236  151.2913 H   0  0  0  0  0  0  0  0  0  0  0  0
  148.0169  131.9292  151.6945 H   0  0  0  0  0  0  0  0  0  0  0  0
  144.9418  133.6811  153.7193 H   0  0  0  0  0  0  0  0  0  0  0  0
  146.0885  132.6825  154.5748 H   0  0  0  0  0  0  0  0  0  0  0  0
  148.3746  133.7559  155.2556 H   0  0  0  0  0  0  0  0  0  0  0  0
  148.5981  140.4109  153.0502 H   0  0  0  0  0  0  0  0  0  0  0  0
  147.2363  140.6151  154.1300 H   0  0  0  0  0  0  0  0  0  0  0  0
  149.0710  142.2522  154.6134 H   0  0  0  0  0  0  0  0  0  0  0  0
  148.7148  141.2526  155.9972 H   0  0  0  0  0  0  0  0  0  0  0  0
  149.6377  139.7537  157.3087 H   0  0  0  0  0  0  0  0  0  0  0  0
  150.4084  138.1884  157.1144 H   0  0  0  0  0  0  0  0  0  0  0  0
  151.8449  140.8532  157.4595 H   0  0  0  0  0  0  0  0  0  0  0  0
  152.0104  139.4090  158.4700 H   0  0  0  0  0  0  0  0  0  0  0  0
  152.4082  138.1896  154.8506 H   0  0  0  0  0  0  0  0  0  0  0  0
  152.6882  139.9011  154.5639 H   0  0  0  0  0  0  0  0  0  0  0  0
  149.9492  137.4813  154.8640 H   0  0  0  0  0  0  0  0  0  0  0  0
  150.2315  138.5265  153.4828 H   0  0  0  0  0  0  0  0  0  0  0  0
  144.8382  138.1238  152.1145 H   0  0  0  0  0  0  0  0  0  0  0  0
  1  2  1  0  0  0  0
  1 28  1  0  0  0  0
  1 29  1  0  0  0  0
  1 30  1  0  0  0  0
  2  6  1  0  0  0  0
  2  3  1  0  0  0  0
  2 31  1  0  0  0  0
  3  4  1  0  0  0  0
  4  5  1  0  0  0  0
  4 32  1  0  0  0  0
  4 33  1  0  0  0  0
  5  6  1  0  0  0  0
  5 34  1  0  0  0  0
  5 35  1  0  0  0  0
  6  7  1  0  0  0  0
  6  8  1  0  0  0  0
  7 36  1  0  0  0  0
  8  9  1  0  0  0  0
  8 37  1  0  0  0  0
  8 38  1  0  0  0  0
  9 27  1  0  0  0  0
  9 10  1  0  0  0  0
 10 11  2  0  0  0  0
 10 39  1  0  0  0  0
 11 12  1  0  0  0  0
 12 27  2  0  0  0  0
 12 13  1  0  0  0  0
 13 14  1  0  0  0  0
 13 24  2  0  0  0  0
 14 23  1  0  0  0  0
 14 15  1  0  0  0  0
 15 16  1  0  0  0  0
 15 40  1  0  0  0  0
 15 41  1  0  0  0  0
 16 17  1  0  0  0  0
 16 42  1  0  0  0  0
 16 43  1  0  0  0  0
 17 18  1  0  0  0  0
 18 22  1  0  0  0  0
 18 19  1  0  0  0  0
 18 23  1  0  0  0  0
 19 20  1  0  0  0  0
 19 44  1  0  0  0  0
 19 45  1  0  0  0  0
 20 21  1  0  0  0  0
 20 46  1  0  0  0  0
 20 47  1  0  0  0  0
 21 22  1  0  0  0  0
 22 48  1  0  0  0  0
 22 49  1  0  0  0  0
 23 50  1  0  0  0  0
 23 51  1  0  0  0  0
 24 25  1  0  0  0  0
 25 26  2  0  0  0  0
 25 52  1  0  0  0  0
 26 27  1  0  0  0  0
M  END
> <s_m_source_file>
AV-unprocessed.smi

> <i_m_source_file_index>
264

> <i_lp_mmshare_version>
43012

> <i_f3d_flags>
0

> <s_epik_input>
W0NIMl0xW0NIMl1PW0NAQEhdKFtDSDNdKVtDQEBdMShbT0hdKVtDSDJdbihbY0hdbjIpYyhjMjMpbltjSF1uYzNOKFtDSDJdNClbQ0gyXVtDSDJdT1tDQF00NVtDSDJdW0NIMl1PW0NIMl01

> <s_epik_cmdline>
J2VwaWtfcHl0aG9uJywgJy1waCcsICc3LjAnLCAnLXRuJywgJzgnLCAnLW1hJywgJzIwMCcsICctbWV0YWxfYmluZGluZycsICctaW1hZScsICc8aW5maWxlLm1hZT4nLCAnLW9tYWUnLCAnPG91dGZpbGUubWFlPic=

> <r_lp_tautomer_probability>
1

> <r_epik_Ionization_Penalty>
0.00539389

> <r_epik_Ionization_Penalty_Charging>
0

> <r_epik_Ionization_Penalty_Neutral>
0.00539389

> <r_epik_State_Penalty>
0.00375441

> <r_epik_Charging_Adjusted_Penalty>
0.00375441

> <i_epik_Tot_Q>
0

> <i_epik_Tot_abs_Q>
0

> <r_epik_Metal_State_Penalty>
-0

> <b_epik_Metal_Only>
0

> <s_lp_Force_Field>
OPLS_2005

> <r_lp_Energy>
54.0423

> <b_lp_Chiralities_Consistent>
1

> <s_lp_Variant>
AV-unprocessed.smi:264-7

> <Gold.Version>
5.8.1

> <Gold.Id.Protein>
6NUR|6NUR_protein|mol2

> <Gold.PLP.Fitness>
44.8701

> <Gold.PLP.PLP>
-31.4921

> <Gold.PLP.part.hbond>
-3.0000

> <Gold.PLP.part.metal>
0.0000

> <Gold.PLP.part.buried>
-0.8616

> <Gold.PLP.part.nonpolar>
-28.3069

> <Gold.PLP.part.repulsive>
0.8986

> <Gold.PLP.ligand.clash>
0.0000

> <Gold.PLP.ligand.torsion>
0.6484

> <Gold.PLP.Chemscore.Hbond>
2.8233

> <Gold.PLP.Chemscore.CHOScore>
1.9714

> <Gold.PLP.Chemscore.Metal>
0.0000

> <Gold.Chemscore.Hbonds>
donor molecule, donor type, donor heavy atom, donor atom, acceptor molecule, acceptor atom, score
      L1  H     7    36       P1 10747  1.00
      P1  H  7989  7998       L1    17  0.83
      P1  H  7997  8008       L1    21  1.00
      L1  C    25    52       P1 10171  0.99
      L1  C    25    52       P1 10175  0.75

> <Gold.PLP.Chemscore.Internal.Correction>
0.2910

> <Gold.Rescore>
     Score         DG    S(hbond)    S(metal)    S(lipo)     H(rot)  DE(clash)    DE(int)     intcor
     14.41     -16.37       1.95        0.00      83.54       2.11       1.43       0.53       ----

> <Gold.Chemscore.Fitness>
14.4079

> <Gold.Chemscore.DG>
-16.3706

> <Gold.Chemscore.ZeroCoef>
-5.4800

> <Gold.Chemscore.Hbond>
1.9486

> <Gold.Chemscore.Metal>
0.0000

> <Gold.Chemscore.Lipo>
83.5414

> <Gold.Chemscore.Internal_Hbond>
0.0000

> <Gold.Chemscore.DEClash>
1.4323

> <Gold.Chemscore.DEInternal>
0.5303

> <Gold.Chemscore.Rot>
2.1063

> <Gold.Chemscore.Internal.Correction>
   9.000000E+99

> <Gold.Chemscore.Hbonds>
donor molecule, donor type, donor heavy atom, donor atom, acceptor molecule, acceptor atom, score
      L1  H     7    36       P1 10747  0.94
      P1  H  7989  7998       L1    17  0.21
      P1  H  7997  8008       L1    21  0.83

> <Gold.Chemscore.Hbond.Weighted>
-6.5084

> <Gold.Chemscore.Metal.Weighted>
-0.0000

> <Gold.Chemscore.Lipo.Weighted>
-9.7743

> <Gold.Chemscore.Internal_Hbond.Weighted>
0.0000

> <Gold.Chemscore.DEClash.Weighted>
1.4323

> <Gold.Chemscore.DEInternal.Weighted>
0.5303

> <Gold.Chemscore.Rot.Weighted>
5.3921

> <Gold.Chemscore.Internal.Correction.Weighted>
   9.000000E+99

> <Gold.Protein.RotatedTorsions>
[ 6907 6896 6895 6894 ] final -107.38 input  -60.11 | X-H torsion
[ 7974 7965 7964 7962 ] final -114.45 input  175.53 | X-H torsion
[ 8008 7997 7996 7995 ] final  -63.67 input   59.86 | X-H torsion
[ 10167 10162 10161 10158 ] final    9.85 input  -65.29 | X-H torsion
[ 10718 10713 10712 10709 ] final -163.20 input   66.30 | X-H torsion
[ 10763 10752 10751 10750 ] final -157.19 input  -60.55 | X-H torsion
[ 11005 11000 10999 10996 ] final  144.52 input  -57.11 | X-H torsion

> <Gold.Protein.ActiveResidues>
 VAL166  LYS551  ARG553  GLY616  TRP617  ASP618  TYR619  PRO620  LYS621  CYS622 
 ASP623  PHE694  ASN695  SER759  ASP760  ASP761  ALA762  ILE779  LEU786  VAL792 
 PHE793  MET794  SER795  GLU796  ALA797  LYS798  CYS799  TRP800  GLU811  SER814 

> <Gold.Protein.RotatedAtoms>
  150.7441  133.9835  159.3583 H   0  0  0  0  0  0  0  0  0  0  0  0  # atno 6907 bound_to 6896
  151.7777  135.0768  160.0378 H   0  0  0  0  0  0  0  0  0  0  0  0  # atno 6908 bound_to 6896
  152.3295  133.5906  159.5836 H   0  0  0  0  0  0  0  0  0  0  0  0  # atno 6909 bound_to 6896
  145.1200  140.8663  143.3820 H   0  0  0  0  0  0  0  0  0  0  0  0  # atno 7974 bound_to 7965
  154.4568  140.0970  156.6779 H   0  0  0  0  0  0  0  0  0  0  0  0  # atno 8008 bound_to 7997
  155.5115  140.3476  155.4371 H   0  0  0  0  0  0  0  0  0  0  0  0  # atno 8009 bound_to 7997
  156.0792  140.1369  156.9722 H   0  0  0  0  0  0  0  0  0  0  0  0  # atno 8010 bound_to 7997
  140.6230  143.8162  150.7198 H   0  0  0  0  0  0  0  0  0  0  0  0  # atno 10167 bound_to 10162
  156.6213  130.8891  151.2958 H   0  0  0  0  0  0  0  0  0  0  0  0  # atno 10718 bound_to 10713
  154.7655  135.3130  154.8294 H   0  0  0  0  0  0  0  0  0  0  0  0  # atno 10763 bound_to 10752
  153.9043  135.6812  153.4758 H   0  0  0  0  0  0  0  0  0  0  0  0  # atno 10764 bound_to 10752
  153.1261  135.4801  154.9207 H   0  0  0  0  0  0  0  0  0  0  0  0  # atno 10765 bound_to 10752
  140.0638  134.9190  157.1230 H   0  0  0  0  0  0  0  0  0  0  0  0  # atno 11005 bound_to 11000
  145.0751  139.3002  143.5812 LP  0  0  0  0  0  0  0  0  0  0  0  0  # atno 17320 bound_to 7965
  146.3521  140.0239  142.8656 LP  0  0  0  0  0  0  0  0  0  0  0  0  # atno 17321 bound_to 7965
  140.1757  143.4157  152.1969 LP  0  0  0  0  0  0  0  0  0  0  0  0  # atno 17342 bound_to 10162
  139.5455  144.7295  151.4596 LP  0  0  0  0  0  0  0  0  0  0  0  0  # atno 17343 bound_to 10162
  157.7227  130.9580  150.1503 LP  0  0  0  0  0  0  0  0  0  0  0  0  # atno 17370 bound_to 10713
  156.2309  130.3682  149.8446 LP  0  0  0  0  0  0  0  0  0  0  0  0  # atno 17371 bound_to 10713
  140.3729  134.2370  155.7176 LP  0  0  0  0  0  0  0  0  0  0  0  0  # atno 17394 bound_to 11000
  141.1984  133.8035  157.0582 LP  0  0  0  0  0  0  0  0  0  0  0  0  # atno 17395 bound_to 11000

$$$$
