AV-unprocessed.smi:1261|AV-procd|sdf|5303|dock3
  -GOLD-   22720 4423D 1   1.00000     0.00000
 Structure written by MMmdl.
 49 50  0  0  0  0  0  0  0  0  3 V2000
  145.7612  131.5919  149.9185 C   0  0  0  0  0  0  0  0  0  0  0  0
  145.7455  132.3969  151.2259 C   0  0  2  0  0  0  0  0  0  0  0  0
  144.3934  133.1026  151.4324 C   0  0  0  0  0  0  0  0  0  0  0  0
  144.4008  133.9467  152.7191 C   0  0  2  0  0  0  0  0  0  0  0  0
  143.0647  134.6764  152.9175 C   0  0  0  0  0  0  0  0  0  0  0  0
  145.5848  134.9368  152.6958 C   0  0  0  0  0  0  0  0  0  0  0  0
  146.8883  134.2472  152.5071 N   0  3  1  0  0  0  0  0  0  0  0  0
  147.3698  133.5493  153.7296 C   0  0  0  0  0  0  0  0  0  0  0  0
  148.8885  133.3102  153.7137 C   0  0  0  0  0  0  0  0  0  0  0  0
  149.4857  133.2534  155.1299 C   0  0  0  0  0  0  0  0  0  0  0  0
  148.4423  133.2159  156.1472 N   0  0  0  0  0  0  0  0  0  0  0  0
  148.6578  133.0411  157.4601 C   0  0  0  0  0  0  0  0  0  0  0  0
  149.7797  132.8638  157.9378 O   0  0  0  0  0  0  0  0  0  0  0  0
  147.4108  133.0625  158.3573 C   0  0  0  0  0  0  0  0  0  0  0  0
  147.6387  133.6950  159.6647 N   0  0  0  0  0  0  0  0  0  0  0  0
  147.7973  135.1448  159.6001 N   0  5  0  0  0  0  0  0  0  0  0  0
  147.9868  135.8427  160.7514 C   0  0  0  0  0  0  0  0  0  0  0  0
  148.1090  137.0652  160.7776 O   0  0  0  0  0  0  0  0  0  0  0  0
  148.0501  135.0997  161.9992 C   0  0  0  0  0  0  0  0  0  0  0  0
  147.9252  133.7581  162.0266 C   0  0  0  0  0  0  0  0  0  0  0  0
  147.7134  132.9706  160.8182 C   0  0  0  0  0  0  0  0  0  0  0  0
  147.6043  131.7439  160.8346 O   0  0  0  0  0  0  0  0  0  0  0  0
  146.8981  133.4246  151.2658 C   0  0  0  0  0  0  0  0  0  0  0  0
  145.6223  132.2388  149.0516 H   0  0  0  0  0  0  0  0  0  0  0  0
  144.9665  130.8455  149.9074 H   0  0  0  0  0  0  0  0  0  0  0  0
  146.7078  131.0654  149.7926 H   0  0  0  0  0  0  0  0  0  0  0  0
  145.8839  131.6840  152.0390 H   0  0  0  0  0  0  0  0  0  0  0  0
  144.1771  133.7416  150.5746 H   0  0  0  0  0  0  0  0  0  0  0  0
  143.5925  132.3634  151.4771 H   0  0  0  0  0  0  0  0  0  0  0  0
  144.5287  133.2725  153.5672 H   0  0  0  0  0  0  0  0  0  0  0  0
  142.8676  135.3742  152.1029 H   0  0  0  0  0  0  0  0  0  0  0  0
  143.0607  135.2431  153.8493 H   0  0  0  0  0  0  0  0  0  0  0  0
  142.2346  133.9705  152.9593 H   0  0  0  0  0  0  0  0  0  0  0  0
  145.4527  135.6457  151.8768 H   0  0  0  0  0  0  0  0  0  0  0  0
  145.6066  135.5339  153.6085 H   0  0  0  0  0  0  0  0  0  0  0  0
  147.1393  134.1664  154.5988 H   0  0  0  0  0  0  0  0  0  0  0  0
  146.8375  132.6096  153.8763 H   0  0  0  0  0  0  0  0  0  0  0  0
  149.1135  132.3775  153.1976 H   0  0  0  0  0  0  0  0  0  0  0  0
  149.3778  134.1032  153.1464 H   0  0  0  0  0  0  0  0  0  0  0  0
  150.1005  132.3600  155.2410 H   0  0  0  0  0  0  0  0  0  0  0  0
  150.1429  134.1071  155.3037 H   0  0  0  0  0  0  0  0  0  0  0  0
  147.4900  133.3437  155.8364 H   0  0  0  0  0  0  0  0  0  0  0  0
  146.5999  133.5829  157.8440 H   0  0  0  0  0  0  0  0  0  0  0  0
  147.0678  132.0338  158.4817 H   0  0  0  0  0  0  0  0  0  0  0  0
  148.2036  135.6355  162.9243 H   0  0  0  0  0  0  0  0  0  0  0  0
  147.9810  133.2476  162.9763 H   0  0  0  0  0  0  0  0  0  0  0  0
  147.8580  132.9263  151.1380 H   0  0  0  0  0  0  0  0  0  0  0  0
  146.8040  134.1031  150.4165 H   0  0  0  0  0  0  0  0  0  0  0  0
  147.5600  134.9861  152.3543 H   0  0  0  0  0  0  0  0  0  0  0  0
  1  2  1  0  0  0  0
  1 24  1  0  0  0  0
  1 25  1  0  0  0  0
  1 26  1  0  0  0  0
  2 23  1  0  0  0  0
  2  3  1  0  0  0  0
  2 27  1  0  0  0  0
  3  4  1  0  0  0  0
  3 28  1  0  0  0  0
  3 29  1  0  0  0  0
  4  5  1  0  0  0  0
  4  6  1  0  0  0  0
  4 30  1  0  0  0  0
  5 31  1  0  0  0  0
  5 32  1  0  0  0  0
  5 33  1  0  0  0  0
  6  7  1  0  0  0  0
  6 34  1  0  0  0  0
  6 35  1  0  0  0  0
  7  8  1  0  0  0  0
  7 23  1  0  0  0  0
  7 49  1  0  0  0  0
  8  9  1  0  0  0  0
  8 36  1  0  0  0  0
  8 37  1  0  0  0  0
  9 10  1  0  0  0  0
  9 38  1  0  0  0  0
  9 39  1  0  0  0  0
 10 11  1  0  0  0  0
 10 40  1  0  0  0  0
 10 41  1  0  0  0  0
 11 12  1  0  0  0  0
 11 42  1  0  0  0  0
 12 13  2  0  0  0  0
 12 14  1  0  0  0  0
 14 43  1  0  0  0  0
 14 44  1  0  0  0  0
 14 15  1  0  0  0  0
 15 16  1  0  0  0  0
 15 21  1  0  0  0  0
 16 17  1  0  0  0  0
 17 18  2  0  0  0  0
 17 19  1  0  0  0  0
 19 45  1  0  0  0  0
 19 20  2  0  0  0  0
 20 46  1  0  0  0  0
 20 21  1  0  0  0  0
 21 22  2  0  0  0  0
 23 47  1  0  0  0  0
 23 48  1  0  0  0  0
M  CHG  1   7   1
M  CHG  1  16  -1
M  END
> <s_m_source_file>
AV-unprocessed.smi

> <i_m_source_file_index>
1261

> <i_lp_mmshare_version>
43012

> <i_f3d_flags>
0

> <s_epik_input>
W0NIM11bQ0BASF0xW0NIMl1bQ0BASF0oW0NIM10pW0NIMl1OKFtDSDJdMSlbQ0gyXVtDSDJdW0NIMl1bTkhdQyg9TylbQ0gyXW4yW25IXWMoPU8pW2NIXVtjSF1jMj1P

> <s_epik_cmdline>
J2VwaWtfcHl0aG9uJywgJy1waCcsICc3LjAnLCAnLXRuJywgJzgnLCAnLW1hJywgJzIwMCcsICctbWV0YWxfYmluZGluZycsICctaW1hZScsICc8aW5maWxlLm1hZT4nLCAnLW9tYWUnLCAnPG91dGZpbGUubWFlPic=

> <r_lp_tautomer_probability>
1

> <r_epik_Ionization_Penalty>
0.0955723

> <r_epik_Ionization_Penalty_Charging>
0.0955723

> <r_epik_Ionization_Penalty_Neutral>
2.68632e-08

> <r_epik_State_Penalty>
0.0334406

> <r_epik_Charging_Adjusted_Penalty>
0.129013

> <i_epik_Tot_Q>
0

> <i_epik_Tot_abs_Q>
2

> <r_epik_Metal_State_Penalty>
0.0334406

> <b_epik_Metal_Only>
0

> <s_lp_Force_Field>
OPLS_2005

> <r_lp_Energy>
31.7782

> <b_lp_Chiralities_Consistent>
1

> <s_lp_Variant>
AV-unprocessed.smi:1261-3

> <Gold.Version>
5.8.1

> <Gold.Id.Protein>
6NUR|6NUR_protein|mol2

> <Gold.PLP.Fitness>
47.4451

> <Gold.PLP.PLP>
-38.4142

> <Gold.PLP.part.hbond>
-4.0000

> <Gold.PLP.part.metal>
0.0000

> <Gold.PLP.part.buried>
-4.8582

> <Gold.PLP.part.nonpolar>
-28.4433

> <Gold.PLP.part.repulsive>
0.0072

> <Gold.PLP.ligand.clash>
3.0164

> <Gold.PLP.ligand.torsion>
1.1514

> <Gold.PLP.Chemscore.Hbond>
4.7600

> <Gold.PLP.Chemscore.CHOScore>
0.0000

> <Gold.PLP.Chemscore.Metal>
0.0000

> <Gold.Chemscore.Hbonds>
donor molecule, donor type, donor heavy atom, donor atom, acceptor molecule, acceptor atom, score
      L1  H     7    49       P1  7948  2.00
      P1  H  6896  6907       L1    13  1.00
      P1  H  6931  6943       L1    18  0.91
      P1  H  6934  6947       L1    18  0.49

> <Gold.PLP.Chemscore.Internal.Correction>
0.0700

> <Gold.Rescore>
     Score         DG    S(hbond)    S(metal)    S(lipo)     H(rot)  DE(clash)    DE(int)     intcor
     19.41     -20.45       3.70        0.00      77.00       2.49       0.00       1.04       ----

> <Gold.Chemscore.Fitness>
19.4145

> <Gold.Chemscore.DG>
-20.4532

> <Gold.Chemscore.ZeroCoef>
-5.4800

> <Gold.Chemscore.Hbond>
3.6972

> <Gold.Chemscore.Metal>
0.0000

> <Gold.Chemscore.Lipo>
76.9981

> <Gold.Chemscore.Internal_Hbond>
0.0000

> <Gold.Chemscore.DEClash>
0.0024

> <Gold.Chemscore.DEInternal>
1.0363

> <Gold.Chemscore.Rot>
2.4938

> <Gold.Chemscore.Internal.Correction>
   9.000000E+99

> <Gold.Chemscore.Hbonds>
donor molecule, donor type, donor heavy atom, donor atom, acceptor molecule, acceptor atom, score
      L1  H     7    49       P1  7948  0.97
      P1  H  6896  6907       L1    13  1.00
      P1  H  6931  6943       L1    18  0.90
      P1  H  6934  6947       L1    18  0.48

> <Gold.Chemscore.Hbond.Weighted>
-12.3485

> <Gold.Chemscore.Metal.Weighted>
-0.0000

> <Gold.Chemscore.Lipo.Weighted>
-9.0088

> <Gold.Chemscore.Internal_Hbond.Weighted>
0.0000

> <Gold.Chemscore.DEClash.Weighted>
0.0024

> <Gold.Chemscore.DEInternal.Weighted>
1.0363

> <Gold.Chemscore.Rot.Weighted>
6.3840

> <Gold.Chemscore.Internal.Correction.Weighted>
   9.000000E+99

> <Gold.Protein.RotatedTorsions>
[ 6907 6896 6895 6894 ] final -133.71 input  -60.11 | X-H torsion
[ 7974 7965 7964 7962 ] final -150.77 input  175.53 | X-H torsion
[ 8008 7997 7996 7995 ] final  -80.27 input   59.86 | X-H torsion
[ 10167 10162 10161 10158 ] final -101.75 input  -65.29 | X-H torsion
[ 10718 10713 10712 10709 ] final  149.15 input   66.30 | X-H torsion
[ 10763 10752 10751 10750 ] final  -63.95 input  -60.55 | X-H torsion
[ 11005 11000 10999 10996 ] final -110.02 input  -57.11 | X-H torsion

> <Gold.Protein.ActiveResidues>
 VAL166  LYS551  ARG553  GLY616  TRP617  ASP618  TYR619  PRO620  LYS621  CYS622 
 ASP623  PHE694  ASN695  SER759  ASP760  ASP761  ALA762  ILE779  LEU786  VAL792 
 PHE793  MET794  SER795  GLU796  ALA797  LYS798  CYS799  TRP800  GLU811  SER814 

> <Gold.Protein.RotatedAtoms>
  150.9772  133.6282  159.2728 H   0  0  0  0  0  0  0  0  0  0  0  0  # atno 6907 bound_to 6896
  151.3550  135.0891  159.9425 H   0  0  0  0  0  0  0  0  0  0  0  0  # atno 6908 bound_to 6896
  152.5203  133.9357  159.7656 H   0  0  0  0  0  0  0  0  0  0  0  0  # atno 6909 bound_to 6896
  144.7888  140.4887  143.5787 H   0  0  0  0  0  0  0  0  0  0  0  0  # atno 7974 bound_to 7965
  154.5866  140.0665  156.9180 H   0  0  0  0  0  0  0  0  0  0  0  0  # atno 8008 bound_to 7997
  155.2368  140.3341  155.4278 H   0  0  0  0  0  0  0  0  0  0  0  0  # atno 8009 bound_to 7997
  156.2227  140.1805  156.7423 H   0  0  0  0  0  0  0  0  0  0  0  0  # atno 8010 bound_to 7997
  140.2380  143.3559  152.0827 H   0  0  0  0  0  0  0  0  0  0  0  0  # atno 10167 bound_to 10162
  157.2997  131.0868  151.1400 H   0  0  0  0  0  0  0  0  0  0  0  0  # atno 10718 bound_to 10713
  154.3228  135.6192  153.5515 H   0  0  0  0  0  0  0  0  0  0  0  0  # atno 10763 bound_to 10752
  152.9818  135.5728  154.5050 H   0  0  0  0  0  0  0  0  0  0  0  0  # atno 10764 bound_to 10752
  154.4722  135.2860  155.1611 H   0  0  0  0  0  0  0  0  0  0  0  0  # atno 10765 bound_to 10752
  141.0815  133.9211  157.2278 H   0  0  0  0  0  0  0  0  0  0  0  0  # atno 11005 bound_to 11000
  145.5850  139.1491  143.3214 LP  0  0  0  0  0  0  0  0  0  0  0  0  # atno 17320 bound_to 7965
  146.2131  140.5978  142.9050 LP  0  0  0  0  0  0  0  0  0  0  0  0  # atno 17321 bound_to 7965
  139.5087  144.6854  151.5901 LP  0  0  0  0  0  0  0  0  0  0  0  0  # atno 17342 bound_to 10162
  140.6135  143.9392  150.6471 LP  0  0  0  0  0  0  0  0  0  0  0  0  # atno 17343 bound_to 10162
  157.2764  130.6729  149.6044 LP  0  0  0  0  0  0  0  0  0  0  0  0  # atno 17370 bound_to 10713
  155.9671  130.4463  150.5536 LP  0  0  0  0  0  0  0  0  0  0  0  0  # atno 17371 bound_to 10713
  139.9629  135.0149  156.9311 LP  0  0  0  0  0  0  0  0  0  0  0  0  # atno 17394 bound_to 11000
  140.5457  134.0676  155.7354 LP  0  0  0  0  0  0  0  0  0  0  0  0  # atno 17395 bound_to 11000

$$$$
