AV-unprocessed.smi:500|AV-procd|sdf|2735|dock1
  -GOLD-   2262023183D 1   1.00000     0.00000
 Structure written by MMmdl.
 45 47  0  0  0  0  0  0  0  0  1 V2000
  151.7008  137.7597  154.0509 C   0  0  0  0  0  0  0  0  0  0  0  0
  152.2421  138.8939  154.9242 C   0  0  0  0  0  0  0  0  0  0  0  0
  151.3660  140.0066  154.8228 O   0  0  0  0  0  0  0  0  0  0  0  0
  150.0004  139.6892  155.0481 C   0  0  0  0  0  0  0  0  0  0  0  0
  149.4305  140.4715  156.2433 C   0  0  0  0  0  0  0  0  0  0  0  0
  150.2801  140.3448  157.4167 N   0  0  0  0  0  0  0  0  0  0  0  0
  150.5519  139.2320  158.1465 C   0  0  0  0  0  0  0  0  0  0  0  0
  149.9650  137.8834  157.8075 C   0  0  1  0  0  0  0  0  0  0  0  0
  151.0470  136.8723  157.4065 C   0  0  0  0  0  0  0  0  0  0  0  0
  149.2209  137.3882  158.9645 N   0  0  0  0  0  0  0  0  0  0  0  0
  148.8060  136.1232  159.1404 C   0  0  0  0  0  0  0  0  0  0  0  0
  149.0464  135.2126  158.3480 O   0  0  0  0  0  0  0  0  0  0  0  0
  148.0331  135.8677  160.3702 C   0  0  0  0  0  0  0  0  0  0  0  0
  147.5866  134.7010  160.9337 C   0  0  0  0  0  0  0  0  0  0  0  0
  146.9109  135.0606  162.1325 C   0  0  0  0  0  0  0  0  0  0  0  0
  146.9972  136.4205  162.2189 C   0  0  0  0  0  0  0  0  0  0  0  0
  147.6809  136.9262  161.1567 O   0  0  0  0  0  0  0  0  0  0  0  0
  151.3965  139.4083  159.1672 N   0  0  0  0  0  0  0  0  0  0  0  0
  151.6707  140.7597  159.1112 C   0  0  0  0  0  0  0  0  0  0  0  0
  152.4907  141.5651  159.9334 C   0  0  0  0  0  0  0  0  0  0  0  0
  152.6173  142.9467  159.6804 C   0  0  0  0  0  0  0  0  0  0  0  0
  151.9281  143.5410  158.6035 C   0  0  0  0  0  0  0  0  0  0  0  0
  151.1078  142.7557  157.7707 C   0  0  0  0  0  0  0  0  0  0  0  0
  150.9848  141.3769  158.0279 C   0  0  0  0  0  0  0  0  0  0  0  0
  152.3456  136.8825  154.1084 H   0  0  0  0  0  0  0  0  0  0  0  0
  151.6427  138.0641  153.0056 H   0  0  0  0  0  0  0  0  0  0  0  0
  150.7016  137.4623  154.3705 H   0  0  0  0  0  0  0  0  0  0  0  0
  152.3083  138.5618  155.9613 H   0  0  0  0  0  0  0  0  0  0  0  0
  153.2481  139.1583  154.5983 H   0  0  0  0  0  0  0  0  0  0  0  0
  149.4484  139.9651  154.1491 H   0  0  0  0  0  0  0  0  0  0  0  0
  149.8672  138.6140  155.1715 H   0  0  0  0  0  0  0  0  0  0  0  0
  149.2992  141.5278  156.0130 H   0  0  0  0  0  0  0  0  0  0  0  0
  148.4378  140.0948  156.4908 H   0  0  0  0  0  0  0  0  0  0  0  0
  149.2685  137.9788  156.9745 H   0  0  0  0  0  0  0  0  0  0  0  0
  151.5993  137.2194  156.5330 H   0  0  0  0  0  0  0  0  0  0  0  0
  150.6084  135.9057  157.1568 H   0  0  0  0  0  0  0  0  0  0  0  0
  151.7646  136.7157  158.2128 H   0  0  0  0  0  0  0  0  0  0  0  0
  148.9728  138.0682  159.6685 H   0  0  0  0  0  0  0  0  0  0  0  0
  147.7296  133.7076  160.5346 H   0  0  0  0  0  0  0  0  0  0  0  0
  146.4259  134.4075  162.8427 H   0  0  0  0  0  0  0  0  0  0  0  0
  146.6490  137.1512  162.9341 H   0  0  0  0  0  0  0  0  0  0  0  0
  153.0216  141.1195  160.7616 H   0  0  0  0  0  0  0  0  0  0  0  0
  153.2452  143.5534  160.3162 H   0  0  0  0  0  0  0  0  0  0  0  0
  152.0294  144.6003  158.4176 H   0  0  0  0  0  0  0  0  0  0  0  0
  150.5778  143.2083  156.9459 H   0  0  0  0  0  0  0  0  0  0  0  0
  1  2  1  0  0  0  0
  1 25  1  0  0  0  0
  1 26  1  0  0  0  0
  1 27  1  0  0  0  0
  2  3  1  0  0  0  0
  2 28  1  0  0  0  0
  2 29  1  0  0  0  0
  3  4  1  0  0  0  0
  4  5  1  0  0  0  0
  4 30  1  0  0  0  0
  4 31  1  0  0  0  0
  5  6  1  0  0  0  0
  5 32  1  0  0  0  0
  5 33  1  0  0  0  0
  6 24  1  0  0  0  0
  6  7  1  0  0  0  0
  7  8  1  0  0  0  0
  7 18  2  0  0  0  0
  8  9  1  0  0  0  0
  8 10  1  0  0  0  0
  8 34  1  0  0  0  0
  9 35  1  0  0  0  0
  9 36  1  0  0  0  0
  9 37  1  0  0  0  0
 10 11  1  0  0  0  0
 10 38  1  0  0  0  0
 11 12  2  0  0  0  0
 11 13  1  0  0  0  0
 13 17  1  0  0  0  0
 13 14  2  0  0  0  0
 14 15  1  0  0  0  0
 14 39  1  0  0  0  0
 15 16  2  0  0  0  0
 15 40  1  0  0  0  0
 16 17  1  0  0  0  0
 16 41  1  0  0  0  0
 18 19  1  0  0  0  0
 19 24  2  0  0  0  0
 19 20  1  0  0  0  0
 20 21  2  0  0  0  0
 20 42  1  0  0  0  0
 21 22  1  0  0  0  0
 21 43  1  0  0  0  0
 22 23  2  0  0  0  0
 22 44  1  0  0  0  0
 23 24  1  0  0  0  0
 23 45  1  0  0  0  0
M  END
> <s_m_source_file>
AV-unprocessed.smi

> <i_m_source_file_index>
500

> <i_lp_mmshare_version>
43012

> <i_f3d_flags>
0

> <s_epik_input>
W0NIM11bQ0gyXU9bQ0gyXVtDSDJdbihjKGMxMilbY0hdW2NIXVtjSF1bY0hdMiljKG4xKVtDQEhdKFtDSDNdKVtOSF1DKD1PKWMzW2NIXVtjSF1bY0hdbzM=

> <s_epik_cmdline>
J2VwaWtfcHl0aG9uJywgJy1waCcsICc3LjAnLCAnLXRuJywgJzgnLCAnLW1hJywgJzIwMCcsICctbWV0YWxfYmluZGluZycsICctaW1hZScsICc8aW5maWxlLm1hZT4nLCAnLW9tYWUnLCAnPG91dGZpbGUubWFlPic=

> <r_epik_Ionization_Penalty>
0.109801

> <r_epik_Ionization_Penalty_Charging>
0

> <r_epik_Ionization_Penalty_Neutral>
0.109801

> <r_epik_State_Penalty>
0.0995533

> <r_epik_Charging_Adjusted_Penalty>
0.0995533

> <i_epik_Tot_Q>
0

> <i_epik_Tot_abs_Q>
0

> <r_epik_Metal_State_Penalty>
0.0918163

> <b_epik_Metal_Only>
0

> <s_lp_Force_Field>
OPLS_2005

> <r_lp_Energy>
7.77682

> <b_lp_Chiralities_Consistent>
1

> <s_lp_Variant>
AV-unprocessed.smi:500-2

> <Gold.Version>
5.8.1

> <Gold.Id.Protein>
6NUR|6NUR_protein|mol2

> <Gold.PLP.Fitness>
59.6921

> <Gold.PLP.PLP>
-49.7330

> <Gold.PLP.part.hbond>
-4.0000

> <Gold.PLP.part.metal>
0.0000

> <Gold.PLP.part.buried>
-7.3722

> <Gold.PLP.part.nonpolar>
-40.6392

> <Gold.PLP.part.repulsive>
0.2873

> <Gold.PLP.ligand.clash>
0.0000

> <Gold.PLP.ligand.torsion>
0.6987

> <Gold.PLP.Chemscore.Hbond>
3.7520

> <Gold.PLP.Chemscore.CHOScore>
0.0000

> <Gold.PLP.Chemscore.Metal>
0.0000

> <Gold.Chemscore.Hbonds>
donor molecule, donor type, donor heavy atom, donor atom, acceptor molecule, acceptor atom, score
      P1  H  6896  6909       L1    12  0.57
      P1  H  6931  6943       L1    17  0.99
      P1  H  6934  6947       L1    17  0.61
      P1  H  7989  7998       L1     3  1.00

> <Gold.PLP.Chemscore.Internal.Correction>
0.1005

> <Gold.Rescore>
     Score         DG    S(hbond)    S(metal)    S(lipo)     H(rot)  DE(clash)    DE(int)     intcor
     22.56     -25.32       3.12        0.00     122.55       1.92       0.66       2.10       ----

> <Gold.Chemscore.Fitness>
22.5649

> <Gold.Chemscore.DG>
-25.3243

> <Gold.Chemscore.ZeroCoef>
-5.4800

> <Gold.Chemscore.Hbond>
3.1169

> <Gold.Chemscore.Metal>
0.0000

> <Gold.Chemscore.Lipo>
122.5464

> <Gold.Chemscore.Internal_Hbond>
0.0000

> <Gold.Chemscore.DEClash>
0.6612

> <Gold.Chemscore.DEInternal>
2.0982

> <Gold.Chemscore.Rot>
1.9156

> <Gold.Chemscore.Internal.Correction>
   9.000000E+99

> <Gold.Chemscore.Hbonds>
donor molecule, donor type, donor heavy atom, donor atom, acceptor molecule, acceptor atom, score
      P1  H  6896  6909       L1    12  0.06
      P1  H  6931  6943       L1    17  0.53
      P1  H  6934  6947       L1    17  0.41
      P1  H  7989  7998       L1     3  0.73

> <Gold.Chemscore.Hbond.Weighted>
-10.4104

> <Gold.Chemscore.Metal.Weighted>
-0.0000

> <Gold.Chemscore.Lipo.Weighted>
-14.3379

> <Gold.Chemscore.Internal_Hbond.Weighted>
0.0000

> <Gold.Chemscore.DEClash.Weighted>
0.6612

> <Gold.Chemscore.DEInternal.Weighted>
2.0982

> <Gold.Chemscore.Rot.Weighted>
4.9041

> <Gold.Chemscore.Internal.Correction.Weighted>
   9.000000E+99

> <Gold.Protein.RotatedTorsions>
[ 6907 6896 6895 6894 ] final   40.32 input  -60.11 | X-H torsion
[ 7974 7965 7964 7962 ] final -115.42 input  175.53 | X-H torsion
[ 8008 7997 7996 7995 ] final  -82.74 input   59.86 | X-H torsion
[ 10167 10162 10161 10158 ] final  -26.90 input  -65.29 | X-H torsion
[ 10718 10713 10712 10709 ] final  -52.15 input   66.30 | X-H torsion
[ 10763 10752 10751 10750 ] final    3.84 input  -60.55 | X-H torsion
[ 11005 11000 10999 10996 ] final  101.38 input  -57.11 | X-H torsion

> <Gold.Protein.ActiveResidues>
 VAL166  LYS551  ARG553  GLY616  TRP617  ASP618  TYR619  PRO620  LYS621  CYS622 
 ASP623  PHE694  ASN695  SER759  ASP760  ASP761  ALA762  ILE779  LEU786  VAL792 
 PHE793  MET794  SER795  GLU796  ALA797  LYS798  CYS799  TRP800  GLU811  SER814 

> <Gold.Protein.RotatedAtoms>
  152.1810  134.8754  160.0526 H   0  0  0  0  0  0  0  0  0  0  0  0  # atno 6907 bound_to 6896
  151.9679  133.3711  159.4068 H   0  0  0  0  0  0  0  0  0  0  0  0  # atno 6908 bound_to 6896
  150.6917  134.4095  159.5199 H   0  0  0  0  0  0  0  0  0  0  0  0  # atno 6909 bound_to 6896
  145.1086  140.8597  143.3884 H   0  0  0  0  0  0  0  0  0  0  0  0  # atno 7974 bound_to 7965
  154.6117  140.0629  156.9502 H   0  0  0  0  0  0  0  0  0  0  0  0  # atno 8008 bound_to 7997
  155.1962  140.3311  155.4332 H   0  0  0  0  0  0  0  0  0  0  0  0  # atno 8009 bound_to 7997
  156.2380  140.1872  156.7049 H   0  0  0  0  0  0  0  0  0  0  0  0  # atno 8010 bound_to 7997
  140.7280  143.4138  151.1061 H   0  0  0  0  0  0  0  0  0  0  0  0  # atno 10167 bound_to 10162
  156.1647  130.4149  149.9739 H   0  0  0  0  0  0  0  0  0  0  0  0  # atno 10718 bound_to 10713
  153.2784  135.6938  153.7410 H   0  0  0  0  0  0  0  0  0  0  0  0  # atno 10763 bound_to 10752
  153.6406  135.3394  155.3071 H   0  0  0  0  0  0  0  0  0  0  0  0  # atno 10764 bound_to 10752
  154.8487  135.4431  154.1829 H   0  0  0  0  0  0  0  0  0  0  0  0  # atno 10765 bound_to 10752
  139.8773  134.9180  156.4898 H   0  0  0  0  0  0  0  0  0  0  0  0  # atno 11005 bound_to 11000
  145.0873  139.2915  143.5753 LP  0  0  0  0  0  0  0  0  0  0  0  0  # atno 17320 bound_to 7965
  146.3527  140.0399  142.8644 LP  0  0  0  0  0  0  0  0  0  0  0  0  # atno 17321 bound_to 7965
  139.7775  143.8403  152.3132 LP  0  0  0  0  0  0  0  0  0  0  0  0  # atno 17342 bound_to 10162
  139.8343  144.7239  150.9411 LP  0  0  0  0  0  0  0  0  0  0  0  0  # atno 17343 bound_to 10162
  156.7558  130.9132  151.3639 LP  0  0  0  0  0  0  0  0  0  0  0  0  # atno 17370 bound_to 10713
  157.6759  130.9094  150.0148 LP  0  0  0  0  0  0  0  0  0  0  0  0  # atno 17371 bound_to 10713
  140.8667  133.8019  155.9321 LP  0  0  0  0  0  0  0  0  0  0  0  0  # atno 17394 bound_to 11000
  140.8995  134.2396  157.5050 LP  0  0  0  0  0  0  0  0  0  0  0  0  # atno 17395 bound_to 11000

$$$$
