AV-unprocessed.smi:3077|AV-procd|sdf|11729|dock6
  -GOLD-   2272017123D 1   1.00000     0.00000
 Structure written by MMmdl.
 28 29  0  0  0  0  0  0  0  0  2 V2000
  148.8567  141.3188  154.4312 C   0  0  0  0  0  0  0  0  0  0  0  0
  149.6920  140.1670  154.4383 C   0  0  0  0  0  0  0  0  0  0  0  0
  150.3308  140.0077  155.5863 N   0  0  0  0  0  0  0  0  0  0  0  0
  149.9206  141.0440  156.3489 N   0  0  0  0  0  0  0  0  0  0  0  0
  150.4410  141.1972  157.6954 C   0  0  0  0  0  0  0  0  0  0  0  0
  151.3621  142.4244  157.8536 C   0  0  2  0  0  0  0  0  0  0  0  0
  152.2655  142.3472  159.1060 C   0  0  0  0  0  0  0  0  0  0  0  0
  153.1233  143.6130  159.2581 C   0  0  0  0  0  0  0  0  0  0  0  0
  152.2355  144.8651  159.2506 C   0  0  0  0  0  0  0  0  0  0  0  0
  151.3530  144.8972  157.9927 C   0  0  0  0  0  0  0  0  0  0  0  0
  150.5469  143.6613  157.8873 N   0  3  0  0  0  0  0  0  0  0  0  0
  149.0343  141.8567  155.6734 C   0  0  0  0  0  0  0  0  0  0  0  0
  148.2282  141.6936  153.6368 H   0  0  0  0  0  0  0  0  0  0  0  0
  149.8540  139.4485  153.6485 H   0  0  0  0  0  0  0  0  0  0  0  0
  149.5941  141.2678  158.3797 H   0  0  0  0  0  0  0  0  0  0  0  0
  150.9799  140.2861  157.9596 H   0  0  0  0  0  0  0  0  0  0  0  0
  152.0015  142.4863  156.9711 H   0  0  0  0  0  0  0  0  0  0  0  0
  151.6507  142.2140  159.9973 H   0  0  0  0  0  0  0  0  0  0  0  0
  152.9206  141.4771  159.0514 H   0  0  0  0  0  0  0  0  0  0  0  0
  153.7022  143.5671  160.1811 H   0  0  0  0  0  0  0  0  0  0  0  0
  153.8442  143.6686  158.4412 H   0  0  0  0  0  0  0  0  0  0  0  0
  151.6066  144.8745  160.1419 H   0  0  0  0  0  0  0  0  0  0  0  0
  152.8531  145.7626  159.2976 H   0  0  0  0  0  0  0  0  0  0  0  0
  150.6834  145.7571  158.0223 H   0  0  0  0  0  0  0  0  0  0  0  0
  151.9687  145.0026  157.0984 H   0  0  0  0  0  0  0  0  0  0  0  0
  149.9921  143.7072  157.0443 H   0  0  0  0  0  0  0  0  0  0  0  0
  148.6080  142.7397  156.1267 H   0  0  0  0  0  0  0  0  0  0  0  0
  149.9263  143.6143  158.6826 H   0  0  0  0  0  0  0  0  0  0  0  0
  1 12  2  0  0  0  0
  1  2  1  0  0  0  0
  1 13  1  0  0  0  0
  2  3  2  0  0  0  0
  2 14  1  0  0  0  0
  3  4  1  0  0  0  0
  4  5  1  0  0  0  0
  4 12  1  0  0  0  0
  5  6  1  0  0  0  0
  5 15  1  0  0  0  0
  5 16  1  0  0  0  0
  6 11  1  0  0  0  0
  6  7  1  0  0  0  0
  6 17  1  0  0  0  0
  7  8  1  0  0  0  0
  7 18  1  0  0  0  0
  7 19  1  0  0  0  0
  8  9  1  0  0  0  0
  8 20  1  0  0  0  0
  8 21  1  0  0  0  0
  9 10  1  0  0  0  0
  9 22  1  0  0  0  0
  9 23  1  0  0  0  0
 10 11  1  0  0  0  0
 10 24  1  0  0  0  0
 10 25  1  0  0  0  0
 11 26  1  0  0  0  0
 11 28  1  0  0  0  0
 12 27  1  0  0  0  0
M  CHG  1  11   1
M  END
> <s_m_source_file>
AV-unprocessed.smi

> <i_m_source_file_index>
3077

> <i_lp_mmshare_version>
43012

> <i_f3d_flags>
0

> <s_epik_input>
W2NIXTFbY0hdW2NIXW5uMVtDSDJdW0NAQEhdMltDSDJdW0NIMl1bQ0gyXVtDSDJdW05IXTI=

> <s_epik_cmdline>
J2VwaWtfcHl0aG9uJywgJy1waCcsICc3LjAnLCAnLXRuJywgJzgnLCAnLW1hJywgJzIwMCcsICctbWV0YWxfYmluZGluZycsICctaW1hZScsICc8aW5maWxlLm1hZT4nLCAnLW9tYWUnLCAnPG91dGZpbGUubWFlPic=

> <r_lp_tautomer_probability>
1

> <r_epik_Ionization_Penalty>
0.000655985

> <r_epik_Ionization_Penalty_Charging>
0.000651447

> <r_epik_Ionization_Penalty_Neutral>
4.5377e-06

> <r_epik_State_Penalty>
0.000412577

> <r_epik_Charging_Adjusted_Penalty>
0.00106402

> <i_epik_Tot_Q>
1

> <i_epik_Tot_abs_Q>
1

> <r_epik_Metal_State_Penalty>
-0

> <b_epik_Metal_Only>
0

> <s_lp_Force_Field>
OPLS_2005

> <r_lp_Energy>
13.5088

> <b_lp_Chiralities_Consistent>
1

> <s_lp_Variant>
AV-unprocessed.smi:3077-1

> <Gold.Version>
5.8.1

> <Gold.Id.Protein>
6NUR|6NUR_protein|mol2

> <Gold.PLP.Fitness>
38.4865

> <Gold.PLP.PLP>
-27.2891

> <Gold.PLP.part.hbond>
-1.0000

> <Gold.PLP.part.metal>
0.0000

> <Gold.PLP.part.buried>
0.2472

> <Gold.PLP.part.nonpolar>
-25.6595

> <Gold.PLP.part.repulsive>
0.0462

> <Gold.PLP.ligand.clash>
0.0000

> <Gold.PLP.ligand.torsion>
0.1984

> <Gold.PLP.Chemscore.Hbond>
2.0000

> <Gold.PLP.Chemscore.CHOScore>
1.8633

> <Gold.PLP.Chemscore.Metal>
0.0000

> <Gold.Chemscore.Hbonds>
donor molecule, donor type, donor heavy atom, donor atom, acceptor molecule, acceptor atom, score
      L1  H    11    26       P1  8028  2.00
      L1  C     2    14       P1  7957  0.79
      L1  C    12    27       P1  8028  1.00

> <Gold.PLP.Chemscore.Internal.Correction>
0.0041

> <Gold.Rescore>
     Score         DG    S(hbond)    S(metal)    S(lipo)     H(rot)  DE(clash)    DE(int)     intcor
     14.09     -15.48       0.92        0.00      85.08       1.19       1.20       0.19       ----

> <Gold.Chemscore.Fitness>
14.0863

> <Gold.Chemscore.DG>
-15.4752

> <Gold.Chemscore.ZeroCoef>
-5.4800

> <Gold.Chemscore.Hbond>
0.9241

> <Gold.Chemscore.Metal>
0.0000

> <Gold.Chemscore.Lipo>
85.0772

> <Gold.Chemscore.Internal_Hbond>
0.0000

> <Gold.Chemscore.DEClash>
1.2019

> <Gold.Chemscore.DEInternal>
0.1870

> <Gold.Chemscore.Rot>
1.1896

> <Gold.Chemscore.Internal.Correction>
   9.000000E+99

> <Gold.Chemscore.Hbonds>
donor molecule, donor type, donor heavy atom, donor atom, acceptor molecule, acceptor atom, score
      L1  H    11    26       P1  8028  0.87

> <Gold.Chemscore.Hbond.Weighted>
-3.0865

> <Gold.Chemscore.Metal.Weighted>
-0.0000

> <Gold.Chemscore.Lipo.Weighted>
-9.9540

> <Gold.Chemscore.Internal_Hbond.Weighted>
0.0000

> <Gold.Chemscore.DEClash.Weighted>
1.2019

> <Gold.Chemscore.DEInternal.Weighted>
0.1870

> <Gold.Chemscore.Rot.Weighted>
3.0453

> <Gold.Chemscore.Internal.Correction.Weighted>
   9.000000E+99

> <Gold.Protein.RotatedTorsions>
[ 6907 6896 6895 6894 ] final  111.54 input  -60.11 | X-H torsion
[ 7974 7965 7964 7962 ] final  -56.79 input  175.53 | X-H torsion
[ 8008 7997 7996 7995 ] final -106.48 input   59.86 | X-H torsion
[ 10167 10162 10161 10158 ] final   50.17 input  -65.29 | X-H torsion
[ 10718 10713 10712 10709 ] final  -65.06 input   66.30 | X-H torsion
[ 10763 10752 10751 10750 ] final  113.07 input  -60.55 | X-H torsion
[ 11005 11000 10999 10996 ] final -142.40 input  -57.11 | X-H torsion

> <Gold.Protein.ActiveResidues>
 VAL166  LYS551  ARG553  GLY616  TRP617  ASP618  TYR619  PRO620  LYS621  CYS622 
 ASP623  PHE694  ASN695  SER759  ASP760  ASP761  ALA762  ILE779  LEU786  VAL792 
 PHE793  MET794  SER795  GLU796  ALA797  LYS798  CYS799  TRP800  GLU811  SER814 

> <Gold.Protein.RotatedAtoms>
  152.4964  133.8643  159.7265 H   0  0  0  0  0  0  0  0  0  0  0  0  # atno 6907 bound_to 6896
  150.9146  133.6946  159.2853 H   0  0  0  0  0  0  0  0  0  0  0  0  # atno 6908 bound_to 6896
  151.4343  135.1017  159.9704 H   0  0  0  0  0  0  0  0  0  0  0  0  # atno 6909 bound_to 6896
  145.8586  140.8301  142.9948 H   0  0  0  0  0  0  0  0  0  0  0  0  # atno 7974 bound_to 7965
  154.9152  140.0409  157.1968 H   0  0  0  0  0  0  0  0  0  0  0  0  # atno 8008 bound_to 7997
  154.8309  140.2899  155.5702 H   0  0  0  0  0  0  0  0  0  0  0  0  # atno 8009 bound_to 7997
  156.2986  140.2501  156.3234 H   0  0  0  0  0  0  0  0  0  0  0  0  # atno 8010 bound_to 7997
  140.2752  144.3220  150.6279 H   0  0  0  0  0  0  0  0  0  0  0  0  # atno 10167 bound_to 10162
  156.0692  130.4242  150.1510 H   0  0  0  0  0  0  0  0  0  0  0  0  # atno 10718 bound_to 10713
  153.4871  135.3667  155.2472 H   0  0  0  0  0  0  0  0  0  0  0  0  # atno 10763 bound_to 10752
  154.8753  135.3968  154.3632 H   0  0  0  0  0  0  0  0  0  0  0  0  # atno 10764 bound_to 10752
  153.4245  135.7081  153.6337 H   0  0  0  0  0  0  0  0  0  0  0  0  # atno 10765 bound_to 10752
  140.8229  134.2610  157.4892 H   0  0  0  0  0  0  0  0  0  0  0  0  # atno 11005 bound_to 11000
  144.6727  140.1061  143.7458 LP  0  0  0  0  0  0  0  0  0  0  0  0  # atno 17320 bound_to 7965
  145.9275  139.2584  143.1345 LP  0  0  0  0  0  0  0  0  0  0  0  0  # atno 17321 bound_to 7965
  140.5857  143.2170  151.7347 LP  0  0  0  0  0  0  0  0  0  0  0  0  # atno 17342 bound_to 10162
  139.4977  144.4014  152.0177 LP  0  0  0  0  0  0  0  0  0  0  0  0  # atno 17343 bound_to 10162
  156.9564  130.9791  151.3488 LP  0  0  0  0  0  0  0  0  0  0  0  0  # atno 17370 bound_to 10713
  157.5752  130.8338  149.8446 LP  0  0  0  0  0  0  0  0  0  0  0  0  # atno 17371 bound_to 10713
  139.8708  134.9545  156.4177 LP  0  0  0  0  0  0  0  0  0  0  0  0  # atno 17394 bound_to 11000
  140.9080  133.7732  155.9758 LP  0  0  0  0  0  0  0  0  0  0  0  0  # atno 17395 bound_to 11000

$$$$
