AV-unprocessed.smi:2399|AV-procd|sdf|9500|dock8
  -GOLD-   2272013133D 1   1.00000     0.00000
 Structure written by MMmdl.
 53 55  0  0  0  0  0  0  0  0  2 V2000
  154.0938  138.9553  159.3901 C   0  0  0  0  0  0  0  0  0  0  0  0
  153.2877  139.7657  158.5478 O   0  0  0  0  0  0  0  0  0  0  0  0
  152.9745  141.0420  158.9735 C   0  0  0  0  0  0  0  0  0  0  0  0
  153.5430  141.6476  160.1230 C   0  0  0  0  0  0  0  0  0  0  0  0
  153.1615  142.9535  160.4761 C   0  0  0  0  0  0  0  0  0  0  0  0
  152.2202  143.6129  159.6659 C   0  0  0  0  0  0  0  0  0  0  0  0
  151.7650  145.0211  159.9857 C   0  0  0  0  0  0  0  0  0  0  0  0
  151.6743  143.0485  158.5700 N   0  0  0  0  0  0  0  0  0  0  0  0
  152.0345  141.7896  158.2179 C   0  0  0  0  0  0  0  0  0  0  0  0
  151.5029  141.1261  157.0778 N   0  0  0  0  0  0  0  0  0  0  0  0
  150.2304  141.0950  156.6457 C   0  0  0  0  0  0  0  0  0  0  0  0
  149.2787  141.6624  157.1829 O   0  0  0  0  0  0  0  0  0  0  0  0
  150.1173  140.3649  155.5265 N   0  0  0  0  0  0  0  0  0  0  0  0
  148.8788  140.1517  154.7836 C   0  0  2  0  0  0  0  0  0  0  0  0
  148.5810  141.3793  153.9050 C   0  0  0  0  0  0  0  0  0  0  0  0
  147.2125  141.2506  153.2089 C   0  0  0  0  0  0  0  0  0  0  0  0
  146.1085  141.0302  154.1840 N   0  3  2  0  0  0  0  0  0  0  0  0
  145.7389  142.2374  154.9831 C   0  0  0  0  0  0  0  0  0  0  0  0
  144.4730  142.0536  155.8310 C   0  0  0  0  0  0  0  0  0  0  0  0
  144.0105  143.4755  156.1588 C   0  0  0  0  0  0  0  0  0  0  0  0
  144.5281  144.3625  155.0186 C   0  0  0  0  0  0  0  0  0  0  0  0
  145.3775  143.4557  154.1205 C   0  0  0  0  0  0  0  0  0  0  0  0
  146.3668  139.8069  154.9926 C   0  0  0  0  0  0  0  0  0  0  0  0
  147.7063  139.8868  155.7482 C   0  0  0  0  0  0  0  0  0  0  0  0
  154.2520  137.9881  158.9133 H   0  0  0  0  0  0  0  0  0  0  0  0
  153.6101  138.7739  160.3508 H   0  0  0  0  0  0  0  0  0  0  0  0
  155.0738  139.4042  159.5569 H   0  0  0  0  0  0  0  0  0  0  0  0
  154.2652  141.1374  160.7418 H   0  0  0  0  0  0  0  0  0  0  0  0
  153.5836  143.4331  161.3470 H   0  0  0  0  0  0  0  0  0  0  0  0
  152.0856  145.3220  160.9834 H   0  0  0  0  0  0  0  0  0  0  0  0
  150.6776  145.0912  159.9442 H   0  0  0  0  0  0  0  0  0  0  0  0
  152.1824  145.7246  159.2654 H   0  0  0  0  0  0  0  0  0  0  0  0
  152.1799  140.6253  156.5212 H   0  0  0  0  0  0  0  0  0  0  0  0
  150.9517  139.9333  155.1563 H   0  0  0  0  0  0  0  0  0  0  0  0
  148.9976  139.2874  154.1270 H   0  0  0  0  0  0  0  0  0  0  0  0
  148.6062  142.2887  154.5067 H   0  0  0  0  0  0  0  0  0  0  0  0
  149.3632  141.4931  153.1534 H   0  0  0  0  0  0  0  0  0  0  0  0
  147.0196  142.1202  152.5822 H   0  0  0  0  0  0  0  0  0  0  0  0
  147.2373  140.4002  152.5259 H   0  0  0  0  0  0  0  0  0  0  0  0
  146.5594  142.5134  155.6465 H   0  0  0  0  0  0  0  0  0  0  0  0
  143.7021  141.5461  155.2488 H   0  0  0  0  0  0  0  0  0  0  0  0
  144.6476  141.4703  156.7356 H   0  0  0  0  0  0  0  0  0  0  0  0
  142.9272  143.5343  156.2679 H   0  0  0  0  0  0  0  0  0  0  0  0
  144.4519  143.7996  157.1022 H   0  0  0  0  0  0  0  0  0  0  0  0
  143.7108  144.8143  154.4554 H   0  0  0  0  0  0  0  0  0  0  0  0
  145.1320  145.1755  155.4238 H   0  0  0  0  0  0  0  0  0  0  0  0
  146.2559  143.9770  153.7384 H   0  0  0  0  0  0  0  0  0  0  0  0
  144.7805  143.1407  153.2632 H   0  0  0  0  0  0  0  0  0  0  0  0
  145.5485  139.6074  155.6831 H   0  0  0  0  0  0  0  0  0  0  0  0
  146.3900  138.9513  154.3162 H   0  0  0  0  0  0  0  0  0  0  0  0
  147.8724  138.9538  156.2878 H   0  0  0  0  0  0  0  0  0  0  0  0
  147.6591  140.6695  156.5062 H   0  0  0  0  0  0  0  0  0  0  0  0
  145.2892  140.8244  153.6299 H   0  0  0  0  0  0  0  0  0  0  0  0
  1  2  1  0  0  0  0
  1 25  1  0  0  0  0
  1 26  1  0  0  0  0
  1 27  1  0  0  0  0
  2  3  1  0  0  0  0
  3  9  1  0  0  0  0
  3  4  2  0  0  0  0
  4  5  1  0  0  0  0
  4 28  1  0  0  0  0
  5  6  2  0  0  0  0
  5 29  1  0  0  0  0
  6  7  1  0  0  0  0
  6  8  1  0  0  0  0
  7 30  1  0  0  0  0
  7 31  1  0  0  0  0
  7 32  1  0  0  0  0
  8  9  2  0  0  0  0
  9 10  1  0  0  0  0
 10 11  1  0  0  0  0
 10 33  1  0  0  0  0
 11 12  2  0  0  0  0
 11 13  1  0  0  0  0
 13 14  1  0  0  0  0
 13 34  1  0  0  0  0
 14 24  1  0  0  0  0
 14 15  1  0  0  0  0
 14 35  1  0  0  0  0
 15 16  1  0  0  0  0
 15 36  1  0  0  0  0
 15 37  1  0  0  0  0
 16 17  1  0  0  0  0
 16 38  1  0  0  0  0
 16 39  1  0  0  0  0
 17 18  1  0  0  0  0
 17 23  1  0  0  0  0
 17 53  1  0  0  0  0
 18 22  1  0  0  0  0
 18 19  1  0  0  0  0
 18 40  1  0  0  0  0
 19 20  1  0  0  0  0
 19 41  1  0  0  0  0
 19 42  1  0  0  0  0
 20 21  1  0  0  0  0
 20 43  1  0  0  0  0
 20 44  1  0  0  0  0
 21 22  1  0  0  0  0
 21 45  1  0  0  0  0
 21 46  1  0  0  0  0
 22 47  1  0  0  0  0
 22 48  1  0  0  0  0
 23 24  1  0  0  0  0
 23 49  1  0  0  0  0
 23 50  1  0  0  0  0
 24 51  1  0  0  0  0
 24 52  1  0  0  0  0
M  CHG  1  17   1
M  END
> <s_m_source_file>
AV-unprocessed.smi

> <i_m_source_file_index>
2399

> <i_lp_mmshare_version>
43012

> <i_f3d_flags>
0

> <s_epik_input>
W0NIM11PYzFbY0hdW2NIXWMoW0NIM10pbmMxW05IXUMoPU8pW05IXVtDSF0yW0NIMl1bQ0gyXU4oW0NIMl1bQ0gyXTIpW0NIXTNbQ0gyXVtDSDJdW0NIMl1bQ0gyXTM=

> <s_epik_cmdline>
J2VwaWtfcHl0aG9uJywgJy1waCcsICc3LjAnLCAnLXRuJywgJzgnLCAnLW1hJywgJzIwMCcsICctbWV0YWxfYmluZGluZycsICctaW1hZScsICc8aW5maWxlLm1hZT4nLCAnLW9tYWUnLCAnPG91dGZpbGUubWFlPic=

> <r_lp_tautomer_probability>
1

> <r_epik_Ionization_Penalty>
0.00183805

> <r_epik_Ionization_Penalty_Charging>
0.00179121

> <r_epik_Ionization_Penalty_Neutral>
4.68398e-05

> <r_epik_State_Penalty>
0.00121448

> <r_epik_Charging_Adjusted_Penalty>
0.0030057

> <i_epik_Tot_Q>
1

> <i_epik_Tot_abs_Q>
1

> <r_epik_Metal_State_Penalty>
-0

> <b_epik_Metal_Only>
0

> <s_lp_Force_Field>
OPLS_2005

> <r_lp_Energy>
44.4335

> <b_lp_Chiralities_Consistent>
1

> <s_lp_Variant>
AV-unprocessed.smi:2399-2

> <Gold.Version>
5.8.1

> <Gold.Id.Protein>
6NUR|6NUR_protein|mol2

> <Gold.PLP.Fitness>
48.9778

> <Gold.PLP.PLP>
-41.3130

> <Gold.PLP.part.hbond>
-2.0000

> <Gold.PLP.part.metal>
0.0000

> <Gold.PLP.part.buried>
-5.8621

> <Gold.PLP.part.nonpolar>
-33.6430

> <Gold.PLP.part.repulsive>
0.3412

> <Gold.PLP.ligand.clash>
0.0000

> <Gold.PLP.ligand.torsion>
0.6950

> <Gold.PLP.Chemscore.Hbond>
3.0000

> <Gold.PLP.Chemscore.CHOScore>
0.0000

> <Gold.PLP.Chemscore.Metal>
0.0000

> <Gold.Chemscore.Hbonds>
donor molecule, donor type, donor heavy atom, donor atom, acceptor molecule, acceptor atom, score
      L1  H    17    53       P1 10175  2.00
      P1  H  7997  8008       L1     2  1.00

> <Gold.PLP.Chemscore.Internal.Correction>
0.0549

> <Gold.Rescore>
     Score         DG    S(hbond)    S(metal)    S(lipo)     H(rot)  DE(clash)    DE(int)     intcor
     16.82     -19.37       1.43        0.00     108.19       1.38       0.08       2.47       ----

> <Gold.Chemscore.Fitness>
16.8164

> <Gold.Chemscore.DG>
-19.3666

> <Gold.Chemscore.ZeroCoef>
-5.4800

> <Gold.Chemscore.Hbond>
1.4275

> <Gold.Chemscore.Metal>
0.0000

> <Gold.Chemscore.Lipo>
108.1947

> <Gold.Chemscore.Internal_Hbond>
0.0000

> <Gold.Chemscore.DEClash>
0.0796

> <Gold.Chemscore.DEInternal>
2.4706

> <Gold.Chemscore.Rot>
1.3828

> <Gold.Chemscore.Internal.Correction>
   9.000000E+99

> <Gold.Chemscore.Hbonds>
donor molecule, donor type, donor heavy atom, donor atom, acceptor molecule, acceptor atom, score
      L1  H    17    53       P1 10175  0.85
      P1  H  7997  8008       L1     2  0.11

> <Gold.Chemscore.Hbond.Weighted>
-4.7678

> <Gold.Chemscore.Metal.Weighted>
-0.0000

> <Gold.Chemscore.Lipo.Weighted>
-12.6588

> <Gold.Chemscore.Internal_Hbond.Weighted>
0.0000

> <Gold.Chemscore.DEClash.Weighted>
0.0796

> <Gold.Chemscore.DEInternal.Weighted>
2.4706

> <Gold.Chemscore.Rot.Weighted>
3.5399

> <Gold.Chemscore.Internal.Correction.Weighted>
   9.000000E+99

> <Gold.Protein.RotatedTorsions>
[ 6907 6896 6895 6894 ] final  -26.79 input  -60.11 | X-H torsion
[ 7974 7965 7964 7962 ] final  -47.23 input  175.53 | X-H torsion
[ 8008 7997 7996 7995 ] final  -83.94 input   59.86 | X-H torsion
[ 10167 10162 10161 10158 ] final  -87.82 input  -65.29 | X-H torsion
[ 10718 10713 10712 10709 ] final  143.69 input   66.30 | X-H torsion
[ 10763 10752 10751 10750 ] final  -31.72 input  -60.55 | X-H torsion
[ 11005 11000 10999 10996 ] final -167.61 input  -57.11 | X-H torsion

> <Gold.Protein.ActiveResidues>
 VAL166  LYS551  ARG553  GLY616  TRP617  ASP618  TYR619  PRO620  LYS621  CYS622 
 ASP623  PHE694  ASN695  SER759  ASP760  ASP761  ALA762  ILE779  LEU786  VAL792 
 PHE793  MET794  SER795  GLU796  ALA797  LYS798  CYS799  TRP800  GLU811  SER814 

> <Gold.Protein.RotatedAtoms>
  151.1560  135.0250  159.8689 H   0  0  0  0  0  0  0  0  0  0  0  0  # atno 6907 bound_to 6896
  152.5452  134.1333  159.8458 H   0  0  0  0  0  0  0  0  0  0  0  0  # atno 6908 bound_to 6896
  151.1423  133.4917  159.2629 H   0  0  0  0  0  0  0  0  0  0  0  0  # atno 6909 bound_to 6896
  145.9637  140.7453  142.9445 H   0  0  0  0  0  0  0  0  0  0  0  0  # atno 7974 bound_to 7965
  154.6245  140.0612  156.9656 H   0  0  0  0  0  0  0  0  0  0  0  0  # atno 8008 bound_to 7997
  155.1764  140.3295  155.4364 H   0  0  0  0  0  0  0  0  0  0  0  0  # atno 8009 bound_to 7997
  156.2449  140.1905  156.6863 H   0  0  0  0  0  0  0  0  0  0  0  0  # atno 8010 bound_to 7997
  140.3807  143.2750  151.9387 H   0  0  0  0  0  0  0  0  0  0  0  0  # atno 10167 bound_to 10162
  157.3660  131.0972  151.0872 H   0  0  0  0  0  0  0  0  0  0  0  0  # atno 10718 bound_to 10713
  153.8020  135.6889  153.4854 H   0  0  0  0  0  0  0  0  0  0  0  0  # atno 10763 bound_to 10752
  153.1682  135.4553  154.9865 H   0  0  0  0  0  0  0  0  0  0  0  0  # atno 10764 bound_to 10752
  154.8002  135.3335  154.7508 H   0  0  0  0  0  0  0  0  0  0  0  0  # atno 10765 bound_to 10752
  140.5513  134.5425  157.5123 H   0  0  0  0  0  0  0  0  0  0  0  0  # atno 11005 bound_to 11000
  144.6821  140.2633  143.7316 LP  0  0  0  0  0  0  0  0  0  0  0  0  # atno 17320 bound_to 7965
  145.8004  139.1962  143.2051 LP  0  0  0  0  0  0  0  0  0  0  0  0  # atno 17321 bound_to 7965
  139.4795  144.5821  151.7915 LP  0  0  0  0  0  0  0  0  0  0  0  0  # atno 17342 bound_to 10162
  140.4940  144.1268  150.5956 LP  0  0  0  0  0  0  0  0  0  0  0  0  # atno 17343 bound_to 10162
  157.1994  130.6388  149.5733 LP  0  0  0  0  0  0  0  0  0  0  0  0  # atno 17370 bound_to 10713
  155.9746  130.4696  150.6400 LP  0  0  0  0  0  0  0  0  0  0  0  0  # atno 17371 bound_to 10713
  139.9453  134.7712  156.0576 LP  0  0  0  0  0  0  0  0  0  0  0  0  # atno 17394 bound_to 11000
  141.1169  133.6625  156.3118 LP  0  0  0  0  0  0  0  0  0  0  0  0  # atno 17395 bound_to 11000

$$$$
