AV-unprocessed.smi:2845|AV-procd|sdf|10947|dock8
  -GOLD-   2272015393D 1   1.00000     0.00000
 Structure written by MMmdl.
 43 45  0  0  0  0  0  0  0  0  2 V2000
  152.0363  145.3248  160.3674 C   0  0  0  0  0  0  0  0  0  0  0  0
  151.7735  144.0334  159.6115 C   0  0  0  0  0  0  0  0  0  0  0  0
  151.0505  144.0971  158.3987 C   0  0  0  0  0  0  0  0  0  0  0  0
  150.8274  142.8997  157.7296 C   0  0  0  0  0  0  0  0  0  0  0  0
  150.1626  142.6299  156.5311 N   0  3  0  0  0  0  0  0  0  0  0  0
  150.2052  141.2922  156.2792 C   0  0  0  0  0  0  0  0  0  0  0  0
  150.8868  140.7048  157.2996 N   0  0  0  0  0  0  0  0  0  0  0  0
  151.2233  139.2924  157.5178 C   0  0  0  0  0  0  0  0  0  0  0  0
  149.9923  138.4381  157.8888 C   0  0  2  0  0  0  0  0  0  0  0  0
  148.9387  139.2888  158.2998 O   0  0  0  0  0  0  0  0  0  0  0  0
  150.2777  137.3859  158.9823 C   0  0  0  0  0  0  0  0  0  0  0  0
  149.0900  136.6982  159.4608 N   0  0  0  0  0  0  0  0  0  0  0  0
  148.5942  135.4988  159.1410 C   0  0  0  0  0  0  0  0  0  0  0  0
  147.4762  135.1882  159.7831 N   0  0  0  0  0  0  0  0  0  0  0  0
  147.3355  136.3243  160.5264 C   0  0  0  0  0  0  0  0  0  0  0  0
  145.9382  136.5530  161.6702 S   0  0  1  0  0  0  0  0  0  0  0  0
  146.3300  135.0852  162.7341 C   0  0  0  0  0  0  0  0  0  0  0  0
  146.2651  137.8019  162.4917 O   0  0  0  0  0  0  0  0  0  0  0  0
  148.2651  137.2648  160.3737 N   0  0  0  0  0  0  0  0  0  0  0  0
  151.2947  141.6679  158.2276 C   0  0  0  0  0  0  0  0  0  0  0  0
  152.0084  141.5864  159.4206 C   0  0  0  0  0  0  0  0  0  0  0  0
  152.2462  142.7938  160.1159 C   0  0  0  0  0  0  0  0  0  0  0  0
  153.0219  142.7374  161.4211 C   0  0  0  0  0  0  0  0  0  0  0  0
  151.6039  146.1835  159.8529 H   0  0  0  0  0  0  0  0  0  0  0  0
  153.1079  145.5004  160.4653 H   0  0  0  0  0  0  0  0  0  0  0  0
  151.5996  145.2806  161.3654 H   0  0  0  0  0  0  0  0  0  0  0  0
  150.6875  145.0370  158.0092 H   0  0  0  0  0  0  0  0  0  0  0  0
  149.7804  140.7880  155.4229 H   0  0  0  0  0  0  0  0  0  0  0  0
  151.7107  138.9090  156.6207 H   0  0  0  0  0  0  0  0  0  0  0  0
  151.9691  139.2605  158.3131 H   0  0  0  0  0  0  0  0  0  0  0  0
  149.6453  137.9109  156.9996 H   0  0  0  0  0  0  0  0  0  0  0  0
  149.3122  140.0608  158.6970 H   0  0  0  0  0  0  0  0  0  0  0  0
  150.9895  136.6429  158.6191 H   0  0  0  0  0  0  0  0  0  0  0  0
  150.7515  137.8692  159.8375 H   0  0  0  0  0  0  0  0  0  0  0  0
  149.0638  134.8380  158.4271 H   0  0  0  0  0  0  0  0  0  0  0  0
  146.8366  134.3086  162.1604 H   0  0  0  0  0  0  0  0  0  0  0  0
  145.4114  134.6648  163.1426 H   0  0  0  0  0  0  0  0  0  0  0  0
  146.9739  135.3807  163.5623 H   0  0  0  0  0  0  0  0  0  0  0  0
  152.3681  140.6427  159.8028 H   0  0  0  0  0  0  0  0  0  0  0  0
  153.3111  141.7159  161.6701 H   0  0  0  0  0  0  0  0  0  0  0  0
  152.4173  143.1218  162.2429 H   0  0  0  0  0  0  0  0  0  0  0  0
  153.9323  143.3333  161.3519 H   0  0  0  0  0  0  0  0  0  0  0  0
  149.7138  143.3062  155.9265 H   0  0  0  0  0  0  0  0  0  0  0  0
  1  2  1  0  0  0  0
  1 24  1  0  0  0  0
  1 25  1  0  0  0  0
  1 26  1  0  0  0  0
  2 22  1  0  0  0  0
  2  3  2  0  0  0  0
  3  4  1  0  0  0  0
  3 27  1  0  0  0  0
  4 20  2  0  0  0  0
  4  5  1  0  0  0  0
  5  6  2  0  0  0  0
  5 43  1  0  0  0  0
  6  7  1  0  0  0  0
  6 28  1  0  0  0  0
  7  8  1  0  0  0  0
  7 20  1  0  0  0  0
  8  9  1  0  0  0  0
  8 29  1  0  0  0  0
  8 30  1  0  0  0  0
  9 10  1  0  0  0  0
  9 11  1  0  0  0  0
  9 31  1  0  0  0  0
 10 32  1  0  0  0  0
 11 12  1  0  0  0  0
 11 33  1  0  0  0  0
 11 34  1  0  0  0  0
 12 19  1  0  0  0  0
 12 13  1  0  0  0  0
 13 14  2  0  0  0  0
 13 35  1  0  0  0  0
 14 15  1  0  0  0  0
 15 16  1  0  0  0  0
 15 19  2  0  0  0  0
 16 17  1  0  0  0  0
 16 18  2  0  0  0  0
 17 36  1  0  0  0  0
 17 37  1  0  0  0  0
 17 38  1  0  0  0  0
 20 21  1  0  0  0  0
 21 22  2  0  0  0  0
 21 39  1  0  0  0  0
 22 23  1  0  0  0  0
 23 40  1  0  0  0  0
 23 41  1  0  0  0  0
 23 42  1  0  0  0  0
M  CHG  1   5   1
M  END
> <s_m_source_file>
AV-unprocessed.smi

> <i_m_source_file_index>
2845

> <i_lp_mmshare_version>
43012

> <i_f3d_flags>
0

> <s_epik_input>
W0NIM11jKFtjSF0xKWMoW0NIM10pW2NIXWMoYzEyKW4oW2NIXW4yKVtDSDJdW0NASF0oW09IXSlbQ0gyXW4zW2NIXW5jKG4zKVtTQF0oPU8pW0NIM10=

> <s_epik_cmdline>
J2VwaWtfcHl0aG9uJywgJy1waCcsICc3LjAnLCAnLXRuJywgJzgnLCAnLW1hJywgJzIwMCcsICctbWV0YWxfYmluZGluZycsICctaW1hZScsICc8aW5maWxlLm1hZT4nLCAnLW9tYWUnLCAnPG91dGZpbGUubWFlPic=

> <r_lp_tautomer_probability>
1

> <r_epik_Ionization_Penalty>
1.12076

> <r_epik_Ionization_Penalty_Charging>
1.12075

> <r_epik_Ionization_Penalty_Neutral>
1.54566e-06

> <r_epik_State_Penalty>
1.17957

> <r_epik_Charging_Adjusted_Penalty>
2.30033

> <i_epik_Tot_Q>
1

> <i_epik_Tot_abs_Q>
1

> <r_epik_Metal_State_Penalty>
1.26402

> <b_epik_Metal_Only>
0

> <s_lp_Force_Field>
OPLS_2005

> <r_lp_Energy>
15.2254

> <b_lp_Chiralities_Consistent>
1

> <s_lp_Variant>
AV-unprocessed.smi:2845-5

> <Gold.Version>
5.8.1

> <Gold.Id.Protein>
6NUR|6NUR_protein|mol2

> <Gold.PLP.Fitness>
54.9629

> <Gold.PLP.PLP>
-47.7430

> <Gold.PLP.part.hbond>
-4.6489

> <Gold.PLP.part.metal>
0.0000

> <Gold.PLP.part.buried>
-7.3455

> <Gold.PLP.part.nonpolar>
-36.8772

> <Gold.PLP.part.repulsive>
0.0652

> <Gold.PLP.ligand.clash>
0.0000

> <Gold.PLP.ligand.torsion>
1.6182

> <Gold.PLP.Chemscore.Hbond>
3.1486

> <Gold.PLP.Chemscore.CHOScore>
0.0000

> <Gold.PLP.Chemscore.Metal>
0.0000

> <Gold.Chemscore.Hbonds>
donor molecule, donor type, donor heavy atom, donor atom, acceptor molecule, acceptor atom, score
      L1  H     5    43       P1  8028  2.00
      P1  H  6931  6943       L1    19  0.67
      P1  H  6934  6947       L1    19  0.48

> <Gold.PLP.Chemscore.Internal.Correction>
1.0105

> <Gold.Rescore>
     Score         DG    S(hbond)    S(metal)    S(lipo)     H(rot)  DE(clash)    DE(int)     intcor
     15.11     -16.85       2.14        0.00      96.71       2.77       0.04       1.71       ----

> <Gold.Chemscore.Fitness>
15.1069

> <Gold.Chemscore.DG>
-16.8547

> <Gold.Chemscore.ZeroCoef>
-5.4800

> <Gold.Chemscore.Hbond>
2.1395

> <Gold.Chemscore.Metal>
0.0000

> <Gold.Chemscore.Lipo>
96.7089

> <Gold.Chemscore.Internal_Hbond>
0.0000

> <Gold.Chemscore.DEClash>
0.0402

> <Gold.Chemscore.DEInternal>
1.7075

> <Gold.Chemscore.Rot>
2.7681

> <Gold.Chemscore.Internal.Correction>
   9.000000E+99

> <Gold.Chemscore.Hbonds>
donor molecule, donor type, donor heavy atom, donor atom, acceptor molecule, acceptor atom, score
      L1  H     5    43       P1  8028  0.97
      P1  H  6931  6943       L1    19  0.64
      P1  H  6934  6947       L1    19  0.16

> <Gold.Chemscore.Hbond.Weighted>
-7.1460

> <Gold.Chemscore.Metal.Weighted>
-0.0000

> <Gold.Chemscore.Lipo.Weighted>
-11.3149

> <Gold.Chemscore.Internal_Hbond.Weighted>
0.0000

> <Gold.Chemscore.DEClash.Weighted>
0.0402

> <Gold.Chemscore.DEInternal.Weighted>
1.7075

> <Gold.Chemscore.Rot.Weighted>
7.0863

> <Gold.Chemscore.Internal.Correction.Weighted>
   9.000000E+99

> <Gold.Protein.RotatedTorsions>
[ 6907 6896 6895 6894 ] final   93.31 input  -60.11 | X-H torsion
[ 7974 7965 7964 7962 ] final  -50.30 input  175.53 | X-H torsion
[ 8008 7997 7996 7995 ] final   49.22 input   59.86 | X-H torsion
[ 10167 10162 10161 10158 ] final    0.47 input  -65.29 | X-H torsion
[ 10718 10713 10712 10709 ] final -101.97 input   66.30 | X-H torsion
[ 10763 10752 10751 10750 ] final -178.95 input  -60.55 | X-H torsion
[ 11005 11000 10999 10996 ] final   96.48 input  -57.11 | X-H torsion

> <Gold.Protein.ActiveResidues>
 VAL166  LYS551  ARG553  GLY616  TRP617  ASP618  TYR619  PRO620  LYS621  CYS622 
 ASP623  PHE694  ASN695  SER759  ASP760  ASP761  ALA762  ILE779  LEU786  VAL792 
 PHE793  MET794  SER795  GLU796  ALA797  LYS798  CYS799  TRP800  GLU811  SER814 

> <Gold.Protein.RotatedAtoms>
  152.5452  134.1368  159.8461 H   0  0  0  0  0  0  0  0  0  0  0  0  # atno 6907 bound_to 6896
  151.1408  133.4965  159.2604 H   0  0  0  0  0  0  0  0  0  0  0  0  # atno 6908 bound_to 6896
  151.1575  135.0267  159.8750 H   0  0  0  0  0  0  0  0  0  0  0  0  # atno 6909 bound_to 6896
  145.9313  140.7746  142.9598 H   0  0  0  0  0  0  0  0  0  0  0  0  # atno 7974 bound_to 7965
  155.3987  140.3437  155.4255 H   0  0  0  0  0  0  0  0  0  0  0  0  # atno 8008 bound_to 7997
  156.1516  140.1572  156.8793 H   0  0  0  0  0  0  0  0  0  0  0  0  # atno 8009 bound_to 7997
  154.5057  140.0803  156.7871 H   0  0  0  0  0  0  0  0  0  0  0  0  # atno 8010 bound_to 7997
  140.6727  143.7003  150.7957 H   0  0  0  0  0  0  0  0  0  0  0  0  # atno 10167 bound_to 10162
  156.0212  130.5398  150.7040 H   0  0  0  0  0  0  0  0  0  0  0  0  # atno 10718 bound_to 10713
  154.5413  135.2806  155.1093 H   0  0  0  0  0  0  0  0  0  0  0  0  # atno 10763 bound_to 10752
  154.2575  135.6328  153.5266 H   0  0  0  0  0  0  0  0  0  0  0  0  # atno 10764 bound_to 10752
  152.9979  135.5597  154.5953 H   0  0  0  0  0  0  0  0  0  0  0  0  # atno 10765 bound_to 10752
  139.8781  134.8952  156.4164 H   0  0  0  0  0  0  0  0  0  0  0  0  # atno 11005 bound_to 11000
  144.6765  140.2132  143.7374 LP  0  0  0  0  0  0  0  0  0  0  0  0  # atno 17320 bound_to 7965
  145.8422  139.2135  143.1821 LP  0  0  0  0  0  0  0  0  0  0  0  0  # atno 17321 bound_to 7965
  140.0692  143.5078  152.2589 LP  0  0  0  0  0  0  0  0  0  0  0  0  # atno 17342 bound_to 10162
  139.6003  144.7580  151.3187 LP  0  0  0  0  0  0  0  0  0  0  0  0  # atno 17343 bound_to 10162
  157.4694  131.0891  151.0659 LP  0  0  0  0  0  0  0  0  0  0  0  0  # atno 17370 bound_to 10713
  157.1124  130.6027  149.5485 LP  0  0  0  0  0  0  0  0  0  0  0  0  # atno 17371 bound_to 10713
  140.9164  133.7675  155.9853 LP  0  0  0  0  0  0  0  0  0  0  0  0  # atno 17394 bound_to 11000
  140.8489  134.2978  157.5283 LP  0  0  0  0  0  0  0  0  0  0  0  0  # atno 17395 bound_to 11000

$$$$
