AV-unprocessed.smi:171|AV-procd|sdf|1417|dock2
  -GOLD-   2262019183D 1   1.00000     0.00000
 Structure written by MMmdl.
 56 59  0  0  0  0  0  0  0  0  1 V2000
  151.0054  143.5342  158.6025 C   0  0  0  0  0  0  0  0  0  0  0  0
  150.6049  142.0921  158.2484 C   0  0  0  0  0  0  0  0  0  0  0  0
  151.6969  141.1071  158.6925 C   0  0  0  0  0  0  0  0  0  0  0  0
  150.2915  141.9127  156.7441 C   0  0  0  0  0  0  0  0  0  0  0  0
  149.7449  140.5216  156.3395 C   0  0  1  0  0  0  0  0  0  0  0  0
  149.2393  140.5489  154.8792 C   0  0  0  0  0  0  0  0  0  0  0  0
  148.2289  141.1910  154.6000 O   0  0  0  0  0  0  0  0  0  0  0  0
  149.9141  139.8648  153.9375 N   0  0  0  0  0  0  0  0  0  0  0  0
  151.1115  139.0543  154.1602 C   0  0  0  0  0  0  0  0  0  0  0  0
  151.7876  139.3494  155.5099 C   0  0  0  0  0  0  0  0  0  0  0  0
  150.7784  139.4973  156.5535 N   0  0  0  0  0  0  0  0  0  0  0  0
  150.4376  138.3455  157.1834 C   0  0  0  0  0  0  0  0  0  0  0  0
  151.3540  137.3539  157.3412 N   0  0  0  0  0  0  0  0  0  0  0  0
  151.0187  136.2230  157.9688 C   0  0  0  0  0  0  0  0  0  0  0  0
  149.8457  135.8834  158.5074 N   0  0  0  0  0  0  0  0  0  0  0  0
  148.9241  136.8772  158.3542 C   0  0  0  0  0  0  0  0  0  0  0  0
  149.1358  138.1287  157.7113 C   0  0  0  0  0  0  0  0  0  0  0  0
  147.9681  138.8802  157.7361 N   0  0  0  0  0  0  0  0  0  0  0  0
  147.1137  138.1163  158.3605 C   0  0  0  0  0  0  0  0  0  0  0  0
  147.6056  136.8986  158.7755 N   0  0  0  0  0  0  0  0  0  0  0  0
  146.8746  135.8558  159.4810 C   0  0  0  0  0  0  0  0  0  0  0  0
  146.6148  136.1660  160.9761 C   0  0  2  0  0  0  0  0  0  0  0  0
  146.0208  137.4502  161.0735 O   0  0  0  0  0  0  0  0  0  0  0  0
  147.8750  136.1504  161.8538 C   0  0  0  0  0  0  0  0  0  0  0  0
  147.6257  135.0281  162.8581 C   0  0  0  0  0  0  0  0  0  0  0  0
  146.2137  134.9683  162.9536 O   0  0  0  0  0  0  0  0  0  0  0  0
  145.7071  135.1004  161.6348 C   0  0  1  0  0  0  0  0  0  0  0  0
  144.1955  135.3802  161.6479 C   0  0  0  0  0  0  0  0  0  0  0  0
  151.8672  143.8613  158.0203 H   0  0  0  0  0  0  0  0  0  0  0  0
  151.2654  143.6201  159.6579 H   0  0  0  0  0  0  0  0  0  0  0  0
  150.1904  144.2341  158.4185 H   0  0  0  0  0  0  0  0  0  0  0  0
  149.7103  141.8469  158.8220 H   0  0  0  0  0  0  0  0  0  0  0  0
  152.6346  141.2919  158.1674 H   0  0  0  0  0  0  0  0  0  0  0  0
  151.4021  140.0762  158.4949 H   0  0  0  0  0  0  0  0  0  0  0  0
  151.8919  141.1916  159.7620 H   0  0  0  0  0  0  0  0  0  0  0  0
  149.5750  142.6792  156.4444 H   0  0  0  0  0  0  0  0  0  0  0  0
  151.1972  142.1218  156.1724 H   0  0  0  0  0  0  0  0  0  0  0  0
  148.8735  140.3206  156.9638 H   0  0  0  0  0  0  0  0  0  0  0  0
  149.5605  139.9002  152.9925 H   0  0  0  0  0  0  0  0  0  0  0  0
  150.8086  138.0071  154.1253 H   0  0  0  0  0  0  0  0  0  0  0  0
  151.8143  139.2058  153.3407 H   0  0  0  0  0  0  0  0  0  0  0  0
  152.5154  138.5717  155.7445 H   0  0  0  0  0  0  0  0  0  0  0  0
  152.3532  140.2791  155.4444 H   0  0  0  0  0  0  0  0  0  0  0  0
  151.8028  135.4848  158.0514 H   0  0  0  0  0  0  0  0  0  0  0  0
  146.0934  138.4233  158.5387 H   0  0  0  0  0  0  0  0  0  0  0  0
  145.9291  135.6948  158.9615 H   0  0  0  0  0  0  0  0  0  0  0  0
  147.4344  134.9248  159.3855 H   0  0  0  0  0  0  0  0  0  0  0  0
  145.1074  137.3728  160.8427 H   0  0  0  0  0  0  0  0  0  0  0  0
  148.7951  135.9737  161.2984 H   0  0  0  0  0  0  0  0  0  0  0  0
  147.9996  137.0953  162.3852 H   0  0  0  0  0  0  0  0  0  0  0  0
  148.0052  134.0777  162.4794 H   0  0  0  0  0  0  0  0  0  0  0  0
  148.0873  135.2194  163.8271 H   0  0  0  0  0  0  0  0  0  0  0  0
  145.8709  134.1392  161.1440 H   0  0  0  0  0  0  0  0  0  0  0  0
  143.8149  135.5201  160.6358 H   0  0  0  0  0  0  0  0  0  0  0  0
  143.9532  136.2714  162.2272 H   0  0  0  0  0  0  0  0  0  0  0  0
  143.6530  134.5459  162.0928 H   0  0  0  0  0  0  0  0  0  0  0  0
  1  2  1  0  0  0  0
  1 29  1  0  0  0  0
  1 30  1  0  0  0  0
  1 31  1  0  0  0  0
  2  3  1  0  0  0  0
  2  4  1  0  0  0  0
  2 32  1  0  0  0  0
  3 33  1  0  0  0  0
  3 34  1  0  0  0  0
  3 35  1  0  0  0  0
  4  5  1  0  0  0  0
  4 36  1  0  0  0  0
  4 37  1  0  0  0  0
  5 11  1  0  0  0  0
  5  6  1  0  0  0  0
  5 38  1  0  0  0  0
  6  7  2  0  0  0  0
  6  8  1  0  0  0  0
  8  9  1  0  0  0  0
  8 39  1  0  0  0  0
  9 10  1  0  0  0  0
  9 40  1  0  0  0  0
  9 41  1  0  0  0  0
 10 11  1  0  0  0  0
 10 42  1  0  0  0  0
 10 43  1  0  0  0  0
 11 12  1  0  0  0  0
 12 17  1  0  0  0  0
 12 13  2  0  0  0  0
 13 14  1  0  0  0  0
 14 15  2  0  0  0  0
 14 44  1  0  0  0  0
 15 16  1  0  0  0  0
 16 20  1  0  0  0  0
 16 17  2  0  0  0  0
 17 18  1  0  0  0  0
 18 19  2  0  0  0  0
 19 20  1  0  0  0  0
 19 45  1  0  0  0  0
 20 21  1  0  0  0  0
 21 22  1  0  0  0  0
 21 46  1  0  0  0  0
 21 47  1  0  0  0  0
 22 27  1  0  0  0  0
 22 23  1  0  0  0  0
 22 24  1  0  0  0  0
 23 48  1  0  0  0  0
 24 25  1  0  0  0  0
 24 49  1  0  0  0  0
 24 50  1  0  0  0  0
 25 26  1  0  0  0  0
 25 51  1  0  0  0  0
 25 52  1  0  0  0  0
 26 27  1  0  0  0  0
 27 28  1  0  0  0  0
 27 53  1  0  0  0  0
 28 54  1  0  0  0  0
 28 55  1  0  0  0  0
 28 56  1  0  0  0  0
M  END
> <s_m_source_file>
AV-unprocessed.smi

> <i_m_source_file_index>
171

> <i_lp_mmshare_version>
43012

> <i_f3d_flags>
0

> <s_epik_input>
W0NIM11bQ0hdKFtDSDNdKVtDSDJdW0NAQEhdMUMoPU8pW05IXVtDSDJdW0NIMl1OMWMobltjSF1uMiljKGMyMyluW2NIXW4zW0NIMl1bQ0BAXTQoW09IXSlbQ0gyXVtDSDJdT1tDQEhdNFtDSDNd

> <s_epik_cmdline>
J2VwaWtfcHl0aG9uJywgJy1waCcsICc3LjAnLCAnLXRuJywgJzgnLCAnLW1hJywgJzIwMCcsICctbWV0YWxfYmluZGluZycsICctaW1hZScsICc8aW5maWxlLm1hZT4nLCAnLW9tYWUnLCAnPG91dGZpbGUubWFlPic=

> <r_lp_tautomer_probability>
1

> <r_epik_Ionization_Penalty>
0.000670584

> <r_epik_Ionization_Penalty_Charging>
0

> <r_epik_Ionization_Penalty_Neutral>
0.000670584

> <r_epik_State_Penalty>
0.000304767

> <r_epik_Charging_Adjusted_Penalty>
0.000304767

> <i_epik_Tot_Q>
0

> <i_epik_Tot_abs_Q>
0

> <r_epik_Metal_State_Penalty>
-0

> <b_epik_Metal_Only>
0

> <s_lp_Force_Field>
OPLS_2005

> <r_lp_Energy>
42.7698

> <b_lp_Chiralities_Consistent>
1

> <s_lp_Variant>
AV-unprocessed.smi:171-4

> <Gold.Version>
5.8.1

> <Gold.Id.Protein>
6NUR|6NUR_protein|mol2

> <Gold.PLP.Fitness>
38.9092

> <Gold.PLP.PLP>
-32.0395

> <Gold.PLP.part.hbond>
-3.1842

> <Gold.PLP.part.metal>
0.0000

> <Gold.PLP.part.buried>
-2.8874

> <Gold.PLP.part.nonpolar>
-26.1536

> <Gold.PLP.part.repulsive>
1.4108

> <Gold.PLP.ligand.clash>
0.0074

> <Gold.PLP.ligand.torsion>
0.4657

> <Gold.PLP.Chemscore.Hbond>
2.5000

> <Gold.PLP.Chemscore.CHOScore>
0.0000

> <Gold.PLP.Chemscore.Metal>
0.0000

> <Gold.Chemscore.Hbonds>
donor molecule, donor type, donor heavy atom, donor atom, acceptor molecule, acceptor atom, score
      L1  H     8    39       P1  7957  1.00
      P1  H  6896  6907       L1    15  0.54
      P1  H  6934  6947       L1    23  1.00

> <Gold.PLP.Chemscore.Internal.Correction>
0.3085

> <Gold.Rescore>
     Score         DG    S(hbond)    S(metal)    S(lipo)     H(rot)  DE(clash)    DE(int)     intcor
     10.57     -16.76       1.94        0.00      91.16       2.29       2.32       3.87       ----

> <Gold.Chemscore.Fitness>
10.5716

> <Gold.Chemscore.DG>
-16.7630

> <Gold.Chemscore.ZeroCoef>
-5.4800

> <Gold.Chemscore.Hbond>
1.9421

> <Gold.Chemscore.Metal>
0.0000

> <Gold.Chemscore.Lipo>
91.1613

> <Gold.Chemscore.Internal_Hbond>
0.0000

> <Gold.Chemscore.DEClash>
2.3234

> <Gold.Chemscore.DEInternal>
3.8680

> <Gold.Chemscore.Rot>
2.2928

> <Gold.Chemscore.Internal.Correction>
   9.000000E+99

> <Gold.Chemscore.Hbonds>
donor molecule, donor type, donor heavy atom, donor atom, acceptor molecule, acceptor atom, score
      L1  H     8    39       P1  7957  0.99
      P1  H  6896  6907       L1    15  0.03
      P1  H  6934  6947       L1    23  0.96

> <Gold.Chemscore.Hbond.Weighted>
-6.4867

> <Gold.Chemscore.Metal.Weighted>
-0.0000

> <Gold.Chemscore.Lipo.Weighted>
-10.6659

> <Gold.Chemscore.Internal_Hbond.Weighted>
0.0000

> <Gold.Chemscore.DEClash.Weighted>
2.3234

> <Gold.Chemscore.DEInternal.Weighted>
3.8680

> <Gold.Chemscore.Rot.Weighted>
5.8696

> <Gold.Chemscore.Internal.Correction.Weighted>
   9.000000E+99

> <Gold.Protein.RotatedTorsions>
[ 6907 6896 6895 6894 ] final  -75.94 input  -60.11 | X-H torsion
[ 7974 7965 7964 7962 ] final   47.04 input  175.53 | X-H torsion
[ 8008 7997 7996 7995 ] final -117.59 input   59.86 | X-H torsion
[ 10167 10162 10161 10158 ] final    4.95 input  -65.29 | X-H torsion
[ 10718 10713 10712 10709 ] final  -99.60 input   66.30 | X-H torsion
[ 10763 10752 10751 10750 ] final -106.26 input  -60.55 | X-H torsion
[ 11005 11000 10999 10996 ] final  -35.76 input  -57.11 | X-H torsion

> <Gold.Protein.ActiveResidues>
 VAL166  LYS551  ARG553  GLY616  TRP617  ASP618  TYR619  PRO620  LYS621  CYS622 
 ASP623  PHE694  ASN695  SER759  ASP760  ASP761  ALA762  ILE779  LEU786  VAL792 
 PHE793  MET794  SER795  GLU796  ALA797  LYS798  CYS799  TRP800  GLU811  SER814 

> <Gold.Protein.RotatedAtoms>
  150.7043  134.4646  159.5396 H   0  0  0  0  0  0  0  0  0  0  0  0  # atno 6907 bound_to 6896
  152.2314  134.8315  160.0482 H   0  0  0  0  0  0  0  0  0  0  0  0  # atno 6908 bound_to 6896
  151.9130  133.3531  159.3907 H   0  0  0  0  0  0  0  0  0  0  0  0  # atno 6909 bound_to 6896
  146.0334  139.4791  142.9823 H   0  0  0  0  0  0  0  0  0  0  0  0  # atno 7974 bound_to 7965
  155.0861  140.0394  157.2654 H   0  0  0  0  0  0  0  0  0  0  0  0  # atno 8008 bound_to 7997
  154.6868  140.2645  155.6827 H   0  0  0  0  0  0  0  0  0  0  0  0  # atno 8009 bound_to 7997
  156.2715  140.2767  156.1433 H   0  0  0  0  0  0  0  0  0  0  0  0  # atno 8010 bound_to 7997
  140.6508  143.7550  150.7572 H   0  0  0  0  0  0  0  0  0  0  0  0  # atno 10167 bound_to 10162
  156.0138  130.5290  150.6694 H   0  0  0  0  0  0  0  0  0  0  0  0  # atno 10718 bound_to 10713
  154.8001  135.4718  154.0254 H   0  0  0  0  0  0  0  0  0  0  0  0  # atno 10763 bound_to 10752
  153.1767  135.6834  153.8541 H   0  0  0  0  0  0  0  0  0  0  0  0  # atno 10764 bound_to 10752
  153.8105  135.3217  155.3378 H   0  0  0  0  0  0  0  0  0  0  0  0  # atno 10765 bound_to 10752
  140.9822  133.7050  156.1703 H   0  0  0  0  0  0  0  0  0  0  0  0  # atno 11005 bound_to 11000
  145.7003  141.0138  143.1508 LP  0  0  0  0  0  0  0  0  0  0  0  0  # atno 17320 bound_to 7965
  144.7041  139.8636  143.7435 LP  0  0  0  0  0  0  0  0  0  0  0  0  # atno 17321 bound_to 7965
  140.1200  143.4621  152.2319 LP  0  0  0  0  0  0  0  0  0  0  0  0  # atno 17342 bound_to 10162
  139.5723  144.7469  151.3858 LP  0  0  0  0  0  0  0  0  0  0  0  0  # atno 17343 bound_to 10162
  157.4420  131.0862  151.0934 LP  0  0  0  0  0  0  0  0  0  0  0  0  # atno 17370 bound_to 10713
  157.1476  130.6170  149.5573 LP  0  0  0  0  0  0  0  0  0  0  0  0  # atno 17371 bound_to 10713
  140.7170  134.4400  157.5578 LP  0  0  0  0  0  0  0  0  0  0  0  0  # atno 17394 bound_to 11000
  139.8955  134.8682  156.2130 LP  0  0  0  0  0  0  0  0  0  0  0  0  # atno 17395 bound_to 11000

$$$$
