AV-unprocessed.smi:2024|AV-procd|sdf|8195|dock7
  -GOLD-   2272010453D 1   1.00000     0.00000
 Structure written by MMmdl.
 43 44  0  0  0  0  0  0  0  0  3 V2000
  147.3629  132.1042  154.5764 C   0  0  0  0  0  0  0  0  0  0  0  0
  147.6551  133.0241  153.4824 N   0  0  0  0  0  0  0  0  0  0  0  0
  146.9122  134.2808  153.5725 C   0  0  0  0  0  0  0  0  0  0  0  0
  147.4236  135.1841  154.7143 C   0  0  0  0  0  0  0  0  0  0  0  0
  148.8754  135.4785  154.5445 N   0  3  0  0  0  0  0  0  0  0  0  0
  149.4461  136.5254  155.4665 C   0  0  0  0  0  0  0  0  0  0  0  0
  148.6512  137.8474  155.3193 C   0  0  0  0  0  0  0  0  0  0  0  0
  149.2529  136.0742  156.9365 C   0  0  0  0  0  0  0  0  0  0  0  0
  150.9530  136.7834  155.1634 C   0  0  0  0  0  0  0  0  0  0  0  0
  151.5775  137.7251  156.0913 N   0  0  0  0  0  0  0  0  0  0  0  0
  151.9041  138.9998  155.8341 C   0  0  0  0  0  0  0  0  0  0  0  0
  151.6722  139.4845  154.7241 O   0  0  0  0  0  0  0  0  0  0  0  0
  152.4894  139.6286  156.8774 N   0  5  0  0  0  0  0  0  0  0  0  0
  152.0242  140.8186  157.2905 C   0  0  0  0  0  0  0  0  0  0  0  0
  152.3856  141.3816  158.4489 N   0  0  0  0  0  0  0  0  0  0  0  0
  151.7825  142.6201  158.6758 C   0  0  0  0  0  0  0  0  0  0  0  0
  150.9498  143.0133  157.6620 C   0  0  0  0  0  0  0  0  0  0  0  0
  150.8992  141.8337  156.3833 S   0  0  0  0  0  0  0  0  0  0  0  0
  149.6276  134.1936  154.4716 C   0  0  0  0  0  0  0  0  0  0  0  0
  149.0821  133.3065  153.3327 C   0  0  0  0  0  0  0  0  0  0  0  0
  146.2967  131.8773  154.6033 H   0  0  0  0  0  0  0  0  0  0  0  0
  147.6462  132.5044  155.5492 H   0  0  0  0  0  0  0  0  0  0  0  0
  147.8960  131.1641  154.4308 H   0  0  0  0  0  0  0  0  0  0  0  0
  147.0057  134.8081  152.6221 H   0  0  0  0  0  0  0  0  0  0  0  0
  145.8504  134.0682  153.7029 H   0  0  0  0  0  0  0  0  0  0  0  0
  146.8317  136.0964  154.6888 H   0  0  0  0  0  0  0  0  0  0  0  0
  147.2326  134.7187  155.6808 H   0  0  0  0  0  0  0  0  0  0  0  0
  148.9009  138.5581  156.1082 H   0  0  0  0  0  0  0  0  0  0  0  0
  147.5758  137.6739  155.3751 H   0  0  0  0  0  0  0  0  0  0  0  0
  148.8632  138.3572  154.3798 H   0  0  0  0  0  0  0  0  0  0  0  0
  149.4507  136.8850  157.6382 H   0  0  0  0  0  0  0  0  0  0  0  0
  149.9275  135.2647  157.2146 H   0  0  0  0  0  0  0  0  0  0  0  0
  148.2310  135.7399  157.1195 H   0  0  0  0  0  0  0  0  0  0  0  0
  151.5186  135.8518  155.1507 H   0  0  0  0  0  0  0  0  0  0  0  0
  151.0726  137.2146  154.1701 H   0  0  0  0  0  0  0  0  0  0  0  0
  151.7858  137.3796  157.0168 H   0  0  0  0  0  0  0  0  0  0  0  0
  152.0036  143.1543  159.5879 H   0  0  0  0  0  0  0  0  0  0  0  0
  150.3679  143.9194  157.5883 H   0  0  0  0  0  0  0  0  0  0  0  0
  150.6809  134.3657  154.2619 H   0  0  0  0  0  0  0  0  0  0  0  0
  149.5825  133.6650  155.4234 H   0  0  0  0  0  0  0  0  0  0  0  0
  149.6366  132.3688  153.2831 H   0  0  0  0  0  0  0  0  0  0  0  0
  149.2375  133.8068  152.3759 H   0  0  0  0  0  0  0  0  0  0  0  0
  148.9554  135.8826  153.6226 H   0  0  0  0  0  0  0  0  0  0  0  0
  1  2  1  0  0  0  0
  1 21  1  0  0  0  0
  1 22  1  0  0  0  0
  1 23  1  0  0  0  0
  2 20  1  0  0  0  0
  2  3  1  0  0  0  0
  3  4  1  0  0  0  0
  3 24  1  0  0  0  0
  3 25  1  0  0  0  0
  4  5  1  0  0  0  0
  4 26  1  0  0  0  0
  4 27  1  0  0  0  0
  5  6  1  0  0  0  0
  5 19  1  0  0  0  0
  5 43  1  0  0  0  0
  6  7  1  0  0  0  0
  6  8  1  0  0  0  0
  6  9  1  0  0  0  0
  7 28  1  0  0  0  0
  7 29  1  0  0  0  0
  7 30  1  0  0  0  0
  8 31  1  0  0  0  0
  8 32  1  0  0  0  0
  8 33  1  0  0  0  0
  9 10  1  0  0  0  0
  9 34  1  0  0  0  0
  9 35  1  0  0  0  0
 10 11  1  0  0  0  0
 10 36  1  0  0  0  0
 11 12  2  0  0  0  0
 11 13  1  0  0  0  0
 13 14  1  0  0  0  0
 14 18  1  0  0  0  0
 14 15  2  0  0  0  0
 15 16  1  0  0  0  0
 16 17  2  0  0  0  0
 16 37  1  0  0  0  0
 17 18  1  0  0  0  0
 17 38  1  0  0  0  0
 19 20  1  0  0  0  0
 19 39  1  0  0  0  0
 19 40  1  0  0  0  0
 20 41  1  0  0  0  0
 20 42  1  0  0  0  0
M  CHG  1   5   1
M  CHG  1  13  -1
M  END
> <s_m_source_file>
AV-unprocessed.smi

> <i_m_source_file_index>
2024

> <i_lp_mmshare_version>
43012

> <i_f3d_flags>
0

> <s_epik_input>
W0NIM11OMVtDSDJdW0NIMl1OKFtDSDJdW0NIMl0xKUMoW0NIM10pKFtDSDNdKVtDSDJdW05IXUMoPU8pW05IXWMybltjSF1bY0hdczI=

> <s_epik_cmdline>
J2VwaWtfcHl0aG9uJywgJy1waCcsICc3LjAnLCAnLXRuJywgJzgnLCAnLW1hJywgJzIwMCcsICctbWV0YWxfYmluZGluZycsICctaW1hZScsICc8aW5maWxlLm1hZT4nLCAnLW9tYWUnLCAnPG91dGZpbGUubWFlPic=

> <r_epik_Ionization_Penalty>
6.29536

> <r_epik_Ionization_Penalty_Charging>
5.46232

> <r_epik_Ionization_Penalty_Neutral>
0.833035

> <r_epik_State_Penalty>
6.42136

> <r_epik_Charging_Adjusted_Penalty>
11.8837

> <i_epik_Tot_Q>
0

> <i_epik_Tot_abs_Q>
2

> <r_epik_Metal_State_Penalty>
2.42657

> <b_epik_Metal_Only>
1

> <s_lp_Force_Field>
OPLS_2005

> <r_lp_Energy>
16.4996

> <b_lp_Chiralities_Consistent>
1

> <s_lp_Variant>
AV-unprocessed.smi:2024-5

> <Gold.Version>
5.8.1

> <Gold.Id.Protein>
6NUR|6NUR_protein|mol2

> <Gold.PLP.Fitness>
42.8445

> <Gold.PLP.PLP>
-26.0339

> <Gold.PLP.part.hbond>
-3.0000

> <Gold.PLP.part.metal>
0.0000

> <Gold.PLP.part.buried>
-4.2389

> <Gold.PLP.part.nonpolar>
-18.0609

> <Gold.PLP.part.repulsive>
0.2706

> <Gold.PLP.ligand.clash>
0.0000

> <Gold.PLP.ligand.torsion>
0.6524

> <Gold.PLP.Chemscore.Hbond>
5.0000

> <Gold.PLP.Chemscore.CHOScore>
1.0000

> <Gold.PLP.Chemscore.Metal>
0.0000

> <Gold.Chemscore.Hbonds>
donor molecule, donor type, donor heavy atom, donor atom, acceptor molecule, acceptor atom, score
      L1  H     5    43       P1  7948  2.00
      P1  H  7989  7998       L1    12  1.00
      P1  H  7997  8009       L1    13  2.00
      L1  C    17    38       P1  8028  0.98

> <Gold.PLP.Chemscore.Internal.Correction>
0.1154

> <Gold.Rescore>
     Score         DG    S(hbond)    S(metal)    S(lipo)     H(rot)  DE(clash)    DE(int)     intcor
     16.77     -17.64       2.86        0.00      56.51       1.57       0.01       0.86       ----

> <Gold.Chemscore.Fitness>
16.7704

> <Gold.Chemscore.DG>
-17.6446

> <Gold.Chemscore.ZeroCoef>
-5.4800

> <Gold.Chemscore.Hbond>
2.8641

> <Gold.Chemscore.Metal>
0.0000

> <Gold.Chemscore.Lipo>
56.5129

> <Gold.Chemscore.Internal_Hbond>
0.0000

> <Gold.Chemscore.DEClash>
0.0103

> <Gold.Chemscore.DEInternal>
0.8639

> <Gold.Chemscore.Rot>
1.5678

> <Gold.Chemscore.Internal.Correction>
   9.000000E+99

> <Gold.Chemscore.Hbonds>
donor molecule, donor type, donor heavy atom, donor atom, acceptor molecule, acceptor atom, score
      L1  H     5    43       P1  7948  0.94
      P1  H  7989  7998       L1    12  0.99
      P1  H  7997  8009       L1    13  0.22

> <Gold.Chemscore.Hbond.Weighted>
-9.5662

> <Gold.Chemscore.Metal.Weighted>
-0.0000

> <Gold.Chemscore.Lipo.Weighted>
-6.6120

> <Gold.Chemscore.Internal_Hbond.Weighted>
0.0000

> <Gold.Chemscore.DEClash.Weighted>
0.0103

> <Gold.Chemscore.DEInternal.Weighted>
0.8639

> <Gold.Chemscore.Rot.Weighted>
4.0136

> <Gold.Chemscore.Internal.Correction.Weighted>
   9.000000E+99

> <Gold.Protein.RotatedTorsions>
[ 6907 6896 6895 6894 ] final -114.12 input  -60.11 | X-H torsion
[ 7974 7965 7964 7962 ] final  168.41 input  175.53 | X-H torsion
[ 8008 7997 7996 7995 ] final -173.43 input   59.86 | X-H torsion
[ 10167 10162 10161 10158 ] final -165.34 input  -65.29 | X-H torsion
[ 10718 10713 10712 10709 ] final  140.61 input   66.30 | X-H torsion
[ 10763 10752 10751 10750 ] final  -87.66 input  -60.55 | X-H torsion
[ 11005 11000 10999 10996 ] final -104.49 input  -57.11 | X-H torsion

> <Gold.Protein.ActiveResidues>
 VAL166  LYS551  ARG553  GLY616  TRP617  ASP618  TYR619  PRO620  LYS621  CYS622 
 ASP623  PHE694  ASN695  SER759  ASP760  ASP761  ALA762  ILE779  LEU786  VAL792 
 PHE793  MET794  SER795  GLU796  ALA797  LYS798  CYS799  TRP800  GLU811  SER814 

> <Gold.Protein.RotatedAtoms>
  150.7879  133.8847  159.3295 H   0  0  0  0  0  0  0  0  0  0  0  0  # atno 6907 bound_to 6896
  151.6692  135.0976  160.0204 H   0  0  0  0  0  0  0  0  0  0  0  0  # atno 6908 bound_to 6896
  152.3947  133.6690  159.6301 H   0  0  0  0  0  0  0  0  0  0  0  0  # atno 6909 bound_to 6896
  144.7389  139.8904  143.6402 H   0  0  0  0  0  0  0  0  0  0  0  0  # atno 7974 bound_to 7965
  155.9573  140.1137  157.0926 H   0  0  0  0  0  0  0  0  0  0  0  0  # atno 8008 bound_to 7997
  154.4123  140.1189  156.5198 H   0  0  0  0  0  0  0  0  0  0  0  0  # atno 8009 bound_to 7997
  155.6766  140.3473  155.4841 H   0  0  0  0  0  0  0  0  0  0  0  0  # atno 8010 bound_to 7997
  139.6188  144.0665  152.1913 H   0  0  0  0  0  0  0  0  0  0  0  0  # atno 10167 bound_to 10162
  157.4013  131.1017  151.0549 H   0  0  0  0  0  0  0  0  0  0  0  0  # atno 10718 bound_to 10713
  154.6360  135.5405  153.7735 H   0  0  0  0  0  0  0  0  0  0  0  0  # atno 10763 bound_to 10752
  153.0309  135.6447  154.1230 H   0  0  0  0  0  0  0  0  0  0  0  0  # atno 10764 bound_to 10752
  154.1157  135.2923  155.3200 H   0  0  0  0  0  0  0  0  0  0  0  0  # atno 10765 bound_to 10752
  141.1098  133.8728  157.1617 H   0  0  0  0  0  0  0  0  0  0  0  0  # atno 11005 bound_to 11000
  146.1146  139.4155  143.0266 LP  0  0  0  0  0  0  0  0  0  0  0  0  # atno 17320 bound_to 7965
  145.7393  141.0014  143.1309 LP  0  0  0  0  0  0  0  0  0  0  0  0  # atno 17321 bound_to 7965
  140.0302  144.6087  150.7494 LP  0  0  0  0  0  0  0  0  0  0  0  0  # atno 17342 bound_to 10162
  140.7369  143.2758  151.3746 LP  0  0  0  0  0  0  0  0  0  0  0  0  # atno 17343 bound_to 10162
  157.1547  130.6199  149.5592 LP  0  0  0  0  0  0  0  0  0  0  0  0  # atno 17370 bound_to 10713
  155.9824  130.4837  150.6879 LP  0  0  0  0  0  0  0  0  0  0  0  0  # atno 17371 bound_to 10713
  139.9986  135.0037  157.0138 LP  0  0  0  0  0  0  0  0  0  0  0  0  # atno 17394 bound_to 11000
  140.4806  134.1293  155.7216 LP  0  0  0  0  0  0  0  0  0  0  0  0  # atno 17395 bound_to 11000

$$$$
