AV-unprocessed.smi:2510|AV-procd|sdf|9877|dock5
  -GOLD-   2272013513D 1   1.00000     0.00000
 Structure written by MMmdl.
 48 49  0  0  0  0  0  0  0  0  1 V2000
  150.9826  142.1955  157.1436 C   0  0  0  0  0  0  0  0  0  0  0  0
  150.9966  141.3006  155.8929 C   0  0  0  0  0  0  0  0  0  0  0  0
  149.6357  140.6617  155.5233 C   0  0  0  0  0  0  0  0  0  0  0  0
  149.8726  139.6155  154.4013 C   0  0  0  0  0  0  0  0  0  0  0  0
  150.9845  138.5927  154.6834 C   0  0  0  0  0  0  0  0  0  0  0  0
  148.7897  140.2346  156.7622 C   0  0  2  0  0  0  0  0  0  0  0  0
  147.8696  139.1302  156.4964 N   0  0  0  0  0  0  0  0  0  0  0  0
  146.9571  138.6609  157.3600 C   0  0  0  0  0  0  0  0  0  0  0  0
  146.7193  139.1843  158.4483 O   0  0  0  0  0  0  0  0  0  0  0  0
  146.2239  137.3858  156.9406 C   0  0  0  0  0  0  0  0  0  0  0  0
  145.4109  137.6534  155.7009 C   0  0  0  0  0  0  0  0  0  0  0  0
  144.5091  136.7703  155.0362 C   0  0  0  0  0  0  0  0  0  0  0  0
  144.0813  137.4789  153.9493 C   0  0  0  0  0  0  0  0  0  0  0  0
  143.1470  137.1182  152.8448 C   0  0  0  0  0  0  0  0  0  0  0  0
  144.7088  138.7015  154.0159 N   0  0  0  0  0  0  0  0  0  0  0  0
  145.5190  138.8224  155.0835 N   0  0  0  0  0  0  0  0  0  0  0  0
  148.0739  141.5959  156.7184 C   0  0  2  0  0  0  0  0  0  0  0  0
  146.6059  141.7332  157.1174 C   0  0  0  0  0  0  0  0  0  0  0  0
  148.5153  141.7014  155.2471 C   0  0  2  0  0  0  0  0  0  0  0  0
  147.5332  141.1978  154.3473 O   0  0  0  0  0  0  0  0  0  0  0  0
  146.5755  142.1690  153.9639 C   0  0  0  0  0  0  0  0  0  0  0  0
  144.5956  139.4516  153.3491 H   0  0  0  0  0  0  0  0  0  0  0  0
  151.9400  142.7038  157.2582 H   0  0  0  0  0  0  0  0  0  0  0  0
  150.8166  141.6200  158.0537 H   0  0  0  0  0  0  0  0  0  0  0  0
  150.2101  142.9617  157.0834 H   0  0  0  0  0  0  0  0  0  0  0  0
  151.3513  141.9148  155.0655 H   0  0  0  0  0  0  0  0  0  0  0  0
  151.7659  140.5377  156.0055 H   0  0  0  0  0  0  0  0  0  0  0  0
  148.9494  139.0921  154.1545 H   0  0  0  0  0  0  0  0  0  0  0  0
  150.1525  140.1142  153.4745 H   0  0  0  0  0  0  0  0  0  0  0  0
  151.1793  137.9896  153.7963 H   0  0  0  0  0  0  0  0  0  0  0  0
  150.7140  137.9058  155.4847 H   0  0  0  0  0  0  0  0  0  0  0  0
  151.9179  139.0851  154.9569 H   0  0  0  0  0  0  0  0  0  0  0  0
  149.3692  140.1078  157.6778 H   0  0  0  0  0  0  0  0  0  0  0  0
  147.9986  138.6311  155.6277 H   0  0  0  0  0  0  0  0  0  0  0  0
  146.9481  136.5919  156.7547 H   0  0  0  0  0  0  0  0  0  0  0  0
  145.5915  137.0471  157.7626 H   0  0  0  0  0  0  0  0  0  0  0  0
  144.2346  135.7618  155.3079 H   0  0  0  0  0  0  0  0  0  0  0  0
  142.3919  136.4122  153.1907 H   0  0  0  0  0  0  0  0  0  0  0  0
  143.6886  136.6556  152.0193 H   0  0  0  0  0  0  0  0  0  0  0  0
  142.6323  137.9996  152.4613 H   0  0  0  0  0  0  0  0  0  0  0  0
  148.6655  142.3037  157.3009 H   0  0  0  0  0  0  0  0  0  0  0  0
  145.9548  141.1029  156.5116 H   0  0  0  0  0  0  0  0  0  0  0  0
  146.2631  142.7613  157.0033 H   0  0  0  0  0  0  0  0  0  0  0  0
  146.4557  141.4529  158.1600 H   0  0  0  0  0  0  0  0  0  0  0  0
  148.9045  142.6805  154.9616 H   0  0  0  0  0  0  0  0  0  0  0  0
  145.8330  141.7108  153.3108 H   0  0  0  0  0  0  0  0  0  0  0  0
  147.0474  142.9850  153.4156 H   0  0  0  0  0  0  0  0  0  0  0  0
  146.0554  142.5846  154.8268 H   0  0  0  0  0  0  0  0  0  0  0  0
  1  2  1  0  0  0  0
  1 23  1  0  0  0  0
  1 24  1  0  0  0  0
  1 25  1  0  0  0  0
  2  3  1  0  0  0  0
  2 26  1  0  0  0  0
  2 27  1  0  0  0  0
  3 19  1  0  0  0  0
  3  4  1  0  0  0  0
  3  6  1  0  0  0  0
  4  5  1  0  0  0  0
  4 28  1  0  0  0  0
  4 29  1  0  0  0  0
  5 30  1  0  0  0  0
  5 31  1  0  0  0  0
  5 32  1  0  0  0  0
  6  7  1  0  0  0  0
  6 17  1  0  0  0  0
  6 33  1  0  0  0  0
  7  8  1  0  0  0  0
  7 34  1  0  0  0  0
  8  9  2  0  0  0  0
  8 10  1  0  0  0  0
 10 11  1  0  0  0  0
 10 35  1  0  0  0  0
 10 36  1  0  0  0  0
 11 16  2  0  0  0  0
 11 12  1  0  0  0  0
 12 13  2  0  0  0  0
 12 37  1  0  0  0  0
 13 14  1  0  0  0  0
 13 15  1  0  0  0  0
 14 38  1  0  0  0  0
 14 39  1  0  0  0  0
 14 40  1  0  0  0  0
 15 22  1  0  0  0  0
 15 16  1  0  0  0  0
 17 18  1  0  0  0  0
 17 19  1  0  0  0  0
 17 41  1  0  0  0  0
 18 42  1  0  0  0  0
 18 43  1  0  0  0  0
 18 44  1  0  0  0  0
 19 20  1  0  0  0  0
 19 45  1  0  0  0  0
 20 21  1  0  0  0  0
 21 46  1  0  0  0  0
 21 47  1  0  0  0  0
 21 48  1  0  0  0  0
M  END
> <s_m_source_file>
AV-unprocessed.smi

> <i_m_source_file_index>
2510

> <i_lp_mmshare_version>
43012

> <i_f3d_flags>
0

> <s_epik_input>
W0NIM11PW0NAQEhdMVtDQEhdKFtDSDNdKVtDQEBIXShDMShbQ0gyXVtDSDNdKVtDSDJdW0NIM10pW05IXUMoPU8pW0NIMl1jMltjSF1jKFtDSDNdKVtuSF1uMg==

> <s_epik_cmdline>
J2VwaWtfcHl0aG9uJywgJy1waCcsICc3LjAnLCAnLXRuJywgJzgnLCAnLW1hJywgJzIwMCcsICctbWV0YWxfYmluZGluZycsICctaW1hZScsICc8aW5maWxlLm1hZT4nLCAnLW9tYWUnLCAnPG91dGZpbGUubWFlPic=

> <r_lp_tautomer_probability>
0.5

> <r_epik_Ionization_Penalty>
9.73156e-05

> <r_epik_Ionization_Penalty_Charging>
0

> <r_epik_Ionization_Penalty_Neutral>
9.73156e-05

> <r_epik_State_Penalty>
0.41068

> <r_epik_Charging_Adjusted_Penalty>
0.41068

> <i_epik_Tot_Q>
0

> <i_epik_Tot_abs_Q>
0

> <r_epik_Metal_State_Penalty>
0.410699

> <b_epik_Metal_Only>
0

> <s_lp_Force_Field>
OPLS_2005

> <r_lp_Energy>
26.3407

> <b_lp_Chiralities_Consistent>
1

> <s_lp_Variant>
AV-unprocessed.smi:2510-8

> <Gold.Version>
5.8.1

> <Gold.Id.Protein>
6NUR|6NUR_protein|mol2

> <Gold.PLP.Fitness>
29.3459

> <Gold.PLP.PLP>
-26.7702

> <Gold.PLP.part.hbond>
-1.9849

> <Gold.PLP.part.metal>
0.0000

> <Gold.PLP.part.buried>
-2.5671

> <Gold.PLP.part.nonpolar>
-21.4097

> <Gold.PLP.part.repulsive>
0.2338

> <Gold.PLP.ligand.clash>
0.0000

> <Gold.PLP.ligand.torsion>
0.5820

> <Gold.PLP.Chemscore.Hbond>
1.0000

> <Gold.PLP.Chemscore.CHOScore>
0.0000

> <Gold.PLP.Chemscore.Metal>
0.0000

> <Gold.Chemscore.Hbonds>
donor molecule, donor type, donor heavy atom, donor atom, acceptor molecule, acceptor atom, score
      L1  H    15    22       P1 10175  1.00

> <Gold.PLP.Chemscore.Internal.Correction>
0.7396

> <Gold.Rescore>
     Score         DG    S(hbond)    S(metal)    S(lipo)     H(rot)  DE(clash)    DE(int)     intcor
      8.38     -11.40       1.01        0.00      61.53       1.81       0.02       3.00       ----

> <Gold.Chemscore.Fitness>
8.3798

> <Gold.Chemscore.DG>
-11.4023

> <Gold.Chemscore.ZeroCoef>
-5.4800

> <Gold.Chemscore.Hbond>
1.0053

> <Gold.Chemscore.Metal>
0.0000

> <Gold.Chemscore.Lipo>
61.5273

> <Gold.Chemscore.Internal_Hbond>
0.0000

> <Gold.Chemscore.DEClash>
0.0203

> <Gold.Chemscore.DEInternal>
3.0022

> <Gold.Chemscore.Rot>
1.8102

> <Gold.Chemscore.Internal.Correction>
   9.000000E+99

> <Gold.Chemscore.Hbonds>
donor molecule, donor type, donor heavy atom, donor atom, acceptor molecule, acceptor atom, score
      L1  H    15    22       P1 10175  0.95

> <Gold.Chemscore.Hbond.Weighted>
-3.3577

> <Gold.Chemscore.Metal.Weighted>
-0.0000

> <Gold.Chemscore.Lipo.Weighted>
-7.1987

> <Gold.Chemscore.Internal_Hbond.Weighted>
0.0000

> <Gold.Chemscore.DEClash.Weighted>
0.0203

> <Gold.Chemscore.DEInternal.Weighted>
3.0022

> <Gold.Chemscore.Rot.Weighted>
4.6341

> <Gold.Chemscore.Internal.Correction.Weighted>
   9.000000E+99

> <Gold.Protein.RotatedTorsions>
[ 6907 6896 6895 6894 ] final   44.92 input  -60.11 | X-H torsion
[ 7974 7965 7964 7962 ] final -101.16 input  175.53 | X-H torsion
[ 8008 7997 7996 7995 ] final  -23.60 input   59.86 | X-H torsion
[ 10167 10162 10161 10158 ] final  113.31 input  -65.29 | X-H torsion
[ 10718 10713 10712 10709 ] final   24.67 input   66.30 | X-H torsion
[ 10763 10752 10751 10750 ] final    9.23 input  -60.55 | X-H torsion
[ 11005 11000 10999 10996 ] final  -78.11 input  -57.11 | X-H torsion

> <Gold.Protein.ActiveResidues>
 VAL166  LYS551  ARG553  GLY616  TRP617  ASP618  TYR619  PRO620  LYS621  CYS622 
 ASP623  PHE694  ASN695  SER759  ASP760  ASP761  ALA762  ILE779  LEU786  VAL792 
 PHE793  MET794  SER795  GLU796  ALA797  LYS798  CYS799  TRP800  GLU811  SER814 

> <Gold.Protein.RotatedAtoms>
  152.2384  134.8253  160.0463 H   0  0  0  0  0  0  0  0  0  0  0  0  # atno 6907 bound_to 6896
  151.8977  133.3525  159.3828 H   0  0  0  0  0  0  0  0  0  0  0  0  # atno 6908 bound_to 6896
  150.7046  134.4786  159.5503 H   0  0  0  0  0  0  0  0  0  0  0  0  # atno 6909 bound_to 6896
  145.2852  140.9337  143.2909 H   0  0  0  0  0  0  0  0  0  0  0  0  # atno 7974 bound_to 7965
  154.4576  140.1976  156.0335 H   0  0  0  0  0  0  0  0  0  0  0  0  # atno 8008 bound_to 7997
  156.0777  140.3276  155.7626 H   0  0  0  0  0  0  0  0  0  0  0  0  # atno 8009 bound_to 7997
  155.5162  140.0566  157.2905 H   0  0  0  0  0  0  0  0  0  0  0  0  # atno 8010 bound_to 7997
  139.6471  144.7127  151.2121 H   0  0  0  0  0  0  0  0  0  0  0  0  # atno 10167 bound_to 10162
  157.1830  130.6811  149.6120 H   0  0  0  0  0  0  0  0  0  0  0  0  # atno 10718 bound_to 10713
  153.2163  135.6875  153.8053 H   0  0  0  0  0  0  0  0  0  0  0  0  # atno 10763 bound_to 10752
  153.7268  135.3259  155.3279 H   0  0  0  0  0  0  0  0  0  0  0  0  # atno 10764 bound_to 10752
  154.8247  135.4626  154.0992 H   0  0  0  0  0  0  0  0  0  0  0  0  # atno 10765 bound_to 10752
  141.1663  133.7050  156.7922 H   0  0  0  0  0  0  0  0  0  0  0  0  # atno 11005 bound_to 11000
  144.9219  139.4401  143.6537 LP  0  0  0  0  0  0  0  0  0  0  0  0  # atno 17320 bound_to 7965
  146.3203  139.8085  142.8951 LP  0  0  0  0  0  0  0  0  0  0  0  0  # atno 17321 bound_to 7965
  140.7520  143.6212  150.8511 LP  0  0  0  0  0  0  0  0  0  0  0  0  # atno 17342 bound_to 10162
  139.9856  143.5903  152.2928 LP  0  0  0  0  0  0  0  0  0  0  0  0  # atno 17343 bound_to 10162
  155.9722  130.4640  150.6203 LP  0  0  0  0  0  0  0  0  0  0  0  0  # atno 17370 bound_to 10713
  157.3934  131.0799  151.1373 LP  0  0  0  0  0  0  0  0  0  0  0  0  # atno 17371 bound_to 10713
  140.2317  134.8681  157.3483 LP  0  0  0  0  0  0  0  0  0  0  0  0  # atno 17394 bound_to 11000
  140.1884  134.4402  155.7730 LP  0  0  0  0  0  0  0  0  0  0  0  0  # atno 17395 bound_to 11000

$$$$
