AV-unprocessed.smi:2338|AV-procd|sdf|9335|dock3
  -GOLD-   2272012553D 1   1.00000     0.00000
 Structure written by MMmdl.
 31 32  0  0  0  0  0  0  0  0  1 V2000
  149.0079  139.5650  153.8075 N   0  0  0  0  0  0  0  0  0  0  0  0
  149.8672  139.6022  154.8290 C   0  0  0  0  0  0  0  0  0  0  0  0
  150.9499  140.1807  154.7515 O   0  0  0  0  0  0  0  0  0  0  0  0
  149.4533  138.8698  156.1185 C   0  0  1  0  0  0  0  0  0  0  0  0
  149.2189  137.3786  155.7826 C   0  0  0  0  0  0  0  0  0  0  0  0
  148.8375  136.6599  156.9504 O   0  0  0  0  0  0  0  0  0  0  0  0
  149.8562  136.6912  157.9417 C   0  0  0  0  0  0  0  0  0  0  0  0
  150.0927  138.1455  158.3746 C   0  0  0  0  0  0  0  0  0  0  0  0
  150.4223  138.9746  157.2192 N   0  0  0  0  0  0  0  0  0  0  0  0
  150.8097  140.2702  157.6161 C   0  0  0  0  0  0  0  0  0  0  0  0
  150.0017  141.3062  157.2813 N   0  0  0  0  0  0  0  0  0  0  0  0
  150.3589  142.5529  157.6552 C   0  0  0  0  0  0  0  0  0  0  0  0
  151.5296  142.8383  158.3891 C   0  0  0  0  0  0  0  0  0  0  0  0
  151.8964  144.2618  158.7748 C   0  0  0  0  0  0  0  0  0  0  0  0
  152.2044  144.3248  160.0704 F   0  0  0  0  0  0  0  0  0  0  0  0
  152.9525  144.6513  158.0620 F   0  0  0  0  0  0  0  0  0  0  0  0
  150.8875  145.1018  158.5420 F   0  0  0  0  0  0  0  0  0  0  0  0
  152.3660  141.7592  158.7402 C   0  0  0  0  0  0  0  0  0  0  0  0
  152.0037  140.4542  158.3539 C   0  0  0  0  0  0  0  0  0  0  0  0
  153.0275  139.1246  158.7708 Cl  0  0  0  0  0  0  0  0  0  0  0  0
  149.2346  140.0388  152.9452 H   0  0  0  0  0  0  0  0  0  0  0  0
  148.1322  139.0715  153.9026 H   0  0  0  0  0  0  0  0  0  0  0  0
  148.5046  139.2854  156.4642 H   0  0  0  0  0  0  0  0  0  0  0  0
  148.4236  137.2755  155.0436 H   0  0  0  0  0  0  0  0  0  0  0  0
  150.1122  136.9242  155.3491 H   0  0  0  0  0  0  0  0  0  0  0  0
  149.5410  136.0904  158.7949 H   0  0  0  0  0  0  0  0  0  0  0  0
  150.7737  136.2430  157.5565 H   0  0  0  0  0  0  0  0  0  0  0  0
  149.1982  138.5373  158.8618 H   0  0  0  0  0  0  0  0  0  0  0  0
  150.8979  138.1795  159.1102 H   0  0  0  0  0  0  0  0  0  0  0  0
  149.6876  143.3428  157.3522 H   0  0  0  0  0  0  0  0  0  0  0  0
  153.2776  141.9291  159.2943 H   0  0  0  0  0  0  0  0  0  0  0  0
  1  2  1  0  0  0  0
  1 21  1  0  0  0  0
  1 22  1  0  0  0  0
  2  3  2  0  0  0  0
  2  4  1  0  0  0  0
  4  9  1  0  0  0  0
  4  5  1  0  0  0  0
  4 23  1  0  0  0  0
  5  6  1  0  0  0  0
  5 24  1  0  0  0  0
  5 25  1  0  0  0  0
  6  7  1  0  0  0  0
  7  8  1  0  0  0  0
  7 26  1  0  0  0  0
  7 27  1  0  0  0  0
  8  9  1  0  0  0  0
  8 28  1  0  0  0  0
  8 29  1  0  0  0  0
  9 10  1  0  0  0  0
 10 19  1  0  0  0  0
 10 11  2  0  0  0  0
 11 12  1  0  0  0  0
 12 13  2  0  0  0  0
 12 30  1  0  0  0  0
 13 14  1  0  0  0  0
 13 18  1  0  0  0  0
 14 15  1  0  0  0  0
 14 16  1  0  0  0  0
 14 17  1  0  0  0  0
 18 19  2  0  0  0  0
 18 31  1  0  0  0  0
 19 20  1  0  0  0  0
M  END
> <s_m_source_file>
AV-unprocessed.smi

> <i_m_source_file_index>
2338

> <i_lp_mmshare_version>
43012

> <i_f3d_flags>
0

> <s_epik_input>
W05IMl1DKD1PKVtDQEBIXTFbQ0gyXU9bQ0gyXVtDSDJdTjFjMm5bY0hdYyhDKEYpKEYpRilbY0hdYzJDbA==

> <s_epik_cmdline>
J2VwaWtfcHl0aG9uJywgJy1waCcsICc3LjAnLCAnLXRuJywgJzgnLCAnLW1hJywgJzIwMCcsICctbWV0YWxfYmluZGluZycsICctaW1hZScsICc8aW5maWxlLm1hZT4nLCAnLW9tYWUnLCAnPG91dGZpbGUubWFlPic=

> <r_lp_tautomer_probability>
1

> <r_epik_Ionization_Penalty>
1.71167e-07

> <r_epik_Ionization_Penalty_Charging>
0

> <r_epik_Ionization_Penalty_Neutral>
1.71167e-07

> <r_epik_State_Penalty>
-0

> <r_epik_Charging_Adjusted_Penalty>
0

> <i_epik_Tot_Q>
0

> <i_epik_Tot_abs_Q>
0

> <r_epik_Metal_State_Penalty>
-0

> <b_epik_Metal_Only>
0

> <s_lp_Force_Field>
OPLS_2005

> <r_lp_Energy>
18.2769

> <b_lp_Chiralities_Consistent>
1

> <s_lp_Variant>
AV-unprocessed.smi:2338-2

> <Gold.Version>
5.8.1

> <Gold.Id.Protein>
6NUR|6NUR_protein|mol2

> <Gold.PLP.Fitness>
42.6753

> <Gold.PLP.PLP>
-34.3808

> <Gold.PLP.part.hbond>
-2.0000

> <Gold.PLP.part.metal>
0.0000

> <Gold.PLP.part.buried>
-6.1867

> <Gold.PLP.part.nonpolar>
-27.0237

> <Gold.PLP.part.repulsive>
0.2302

> <Gold.PLP.ligand.clash>
0.0000

> <Gold.PLP.ligand.torsion>
0.6185

> <Gold.PLP.Chemscore.Hbond>
2.0000

> <Gold.PLP.Chemscore.CHOScore>
1.0000

> <Gold.PLP.Chemscore.Metal>
0.0000

> <Gold.Chemscore.Hbonds>
donor molecule, donor type, donor heavy atom, donor atom, acceptor molecule, acceptor atom, score
      L1  H     1    21       P1  7957  1.00
      P1  H  7989  7998       L1     3  1.00
      L1  C    12    30       P1  8028  1.00

> <Gold.PLP.Chemscore.Internal.Correction>
0.5315

> <Gold.Rescore>
     Score         DG    S(hbond)    S(metal)    S(lipo)     H(rot)  DE(clash)    DE(int)     intcor
     13.35     -15.28       1.97        0.00      60.66       1.51       0.03       1.90       ----

> <Gold.Chemscore.Fitness>
13.3534

> <Gold.Chemscore.DG>
-15.2828

> <Gold.Chemscore.ZeroCoef>
-5.4800

> <Gold.Chemscore.Hbond>
1.9681

> <Gold.Chemscore.Metal>
0.0000

> <Gold.Chemscore.Lipo>
60.6562

> <Gold.Chemscore.Internal_Hbond>
0.0000

> <Gold.Chemscore.DEClash>
0.0258

> <Gold.Chemscore.DEInternal>
1.9037

> <Gold.Chemscore.Rot>
1.5107

> <Gold.Chemscore.Internal.Correction>
   9.000000E+99

> <Gold.Chemscore.Hbonds>
donor molecule, donor type, donor heavy atom, donor atom, acceptor molecule, acceptor atom, score
      L1  H     1    21       P1  7957  0.96
      P1  H  7989  7998       L1     3  0.98

> <Gold.Chemscore.Hbond.Weighted>
-6.5734

> <Gold.Chemscore.Metal.Weighted>
-0.0000

> <Gold.Chemscore.Lipo.Weighted>
-7.0968

> <Gold.Chemscore.Internal_Hbond.Weighted>
0.0000

> <Gold.Chemscore.DEClash.Weighted>
0.0258

> <Gold.Chemscore.DEInternal.Weighted>
1.9037

> <Gold.Chemscore.Rot.Weighted>
3.8674

> <Gold.Chemscore.Internal.Correction.Weighted>
   9.000000E+99

> <Gold.Protein.RotatedTorsions>
[ 6907 6896 6895 6894 ] final -102.82 input  -60.11 | X-H torsion
[ 7974 7965 7964 7962 ] final   21.64 input  175.53 | X-H torsion
[ 8008 7997 7996 7995 ] final   72.40 input   59.86 | X-H torsion
[ 10167 10162 10161 10158 ] final  169.34 input  -65.29 | X-H torsion
[ 10718 10713 10712 10709 ] final -109.92 input   66.30 | X-H torsion
[ 10763 10752 10751 10750 ] final -166.00 input  -60.55 | X-H torsion
[ 11005 11000 10999 10996 ] final   74.64 input  -57.11 | X-H torsion

> <Gold.Protein.ActiveResidues>
 VAL166  LYS551  ARG553  GLY616  TRP617  ASP618  TYR619  PRO620  LYS621  CYS622 
 ASP623  PHE694  ASN695  SER759  ASP760  ASP761  ALA762  ILE779  LEU786  VAL792 
 PHE793  MET794  SER795  GLU796  ALA797  LYS798  CYS799  TRP800  GLU811  SER814 

> <Gold.Protein.RotatedAtoms>
  150.7213  134.0523  159.3802 H   0  0  0  0  0  0  0  0  0  0  0  0  # atno 6907 bound_to 6896
  151.8500  135.0559  160.0467 H   0  0  0  0  0  0  0  0  0  0  0  0  # atno 6908 bound_to 6896
  152.2798  133.5423  159.5527 H   0  0  0  0  0  0  0  0  0  0  0  0  # atno 6909 bound_to 6896
  146.2063  139.7998  142.8723 H   0  0  0  0  0  0  0  0  0  0  0  0  # atno 7974 bound_to 7965
  155.7682  140.3485  155.5233 H   0  0  0  0  0  0  0  0  0  0  0  0  # atno 8008 bound_to 7997
  155.8847  140.1008  157.1481 H   0  0  0  0  0  0  0  0  0  0  0  0  # atno 8009 bound_to 7997
  154.4028  140.1315  156.4228 H   0  0  0  0  0  0  0  0  0  0  0  0  # atno 8010 bound_to 7997
  139.4990  144.3717  151.9718 H   0  0  0  0  0  0  0  0  0  0  0  0  # atno 10167 bound_to 10162
  156.0563  130.5789  150.8166 H   0  0  0  0  0  0  0  0  0  0  0  0  # atno 10718 bound_to 10713
  154.6877  135.2965  154.9524 H   0  0  0  0  0  0  0  0  0  0  0  0  # atno 10763 bound_to 10752
  154.0498  135.6646  153.4803 H   0  0  0  0  0  0  0  0  0  0  0  0  # atno 10764 bound_to 10752
  153.0590  135.5127  154.7952 H   0  0  0  0  0  0  0  0  0  0  0  0  # atno 10765 bound_to 10752
  139.9381  134.7450  156.1172 H   0  0  0  0  0  0  0  0  0  0  0  0  # atno 11005 bound_to 11000
  145.3308  141.0266  143.3447 LP  0  0  0  0  0  0  0  0  0  0  0  0  # atno 17320 bound_to 7965
  144.8800  139.4917  143.6727 LP  0  0  0  0  0  0  0  0  0  0  0  0  # atno 17321 bound_to 7965
  140.3153  144.3491  150.6023 LP  0  0  0  0  0  0  0  0  0  0  0  0  # atno 17342 bound_to 10162
  140.5766  143.2176  151.7503 LP  0  0  0  0  0  0  0  0  0  0  0  0  # atno 17343 bound_to 10162
  157.5535  131.0944  150.9662 LP  0  0  0  0  0  0  0  0  0  0  0  0  # atno 17370 bound_to 10713
  156.9916  130.5565  149.5304 LP  0  0  0  0  0  0  0  0  0  0  0  0  # atno 17371 bound_to 10713
  141.1004  133.6679  156.2742 LP  0  0  0  0  0  0  0  0  0  0  0  0  # atno 17394 bound_to 11000
  140.6022  134.5543  157.5519 LP  0  0  0  0  0  0  0  0  0  0  0  0  # atno 17395 bound_to 11000

$$$$
