AV-unprocessed.smi:1965|AV-procd|sdf|7943|dock4
  -GOLD-   2272010113D 1   1.00000     0.00000
 Structure written by MMmdl.
 36 38  0  0  0  0  0  0  0  0  3 V2000
  153.7495  139.8463  158.7438 O   0  0  0  0  0  0  0  0  0  0  0  0
  152.7256  140.5277  158.7707 C   0  0  0  0  0  0  0  0  0  0  0  0
  152.3515  141.2810  159.8375 N   0  5  0  0  0  0  0  0  0  0  0  0
  152.2456  142.6215  159.7738 C   0  0  0  0  0  0  0  0  0  0  0  0
  152.0086  143.3883  160.8443 N   0  0  0  0  0  0  0  0  0  0  0  0
  151.9288  144.7496  160.5456 C   0  0  0  0  0  0  0  0  0  0  0  0
  152.1094  145.0259  159.2165 C   0  0  0  0  0  0  0  0  0  0  0  0
  152.3938  143.5765  158.2957 S   0  0  0  0  0  0  0  0  0  0  0  0
  151.9210  140.5356  157.6924 N   0  0  0  0  0  0  0  0  0  0  0  0
  152.1343  139.8150  156.4422 C   0  0  1  0  0  0  0  0  0  0  0  0
  152.0984  138.2793  156.5999 C   0  0  0  0  0  0  0  0  0  0  0  0
  151.2004  137.7839  155.4617 C   0  0  0  0  0  0  0  0  0  0  0  0
  150.2623  138.8962  155.2677 N   0  3  2  0  0  0  0  0  0  0  0  0
  149.4036  138.8855  154.0654 C   0  0  0  0  0  0  0  0  0  0  0  0
  148.4081  140.0620  154.1584 C   0  0  0  0  0  0  0  0  0  0  0  0
  149.1185  141.4098  154.4166 C   0  0  0  0  0  0  0  0  0  0  0  0
  150.0861  141.3205  155.6152 C   0  0  0  0  0  0  0  0  0  0  0  0
  151.0461  140.1360  155.3966 C   0  0  1  0  0  0  0  0  0  0  0  0
  151.7401  145.4530  161.3430 H   0  0  0  0  0  0  0  0  0  0  0  0
  152.0983  145.9875  158.7259 H   0  0  0  0  0  0  0  0  0  0  0  0
  151.0884  141.1035  157.7503 H   0  0  0  0  0  0  0  0  0  0  0  0
  153.1001  140.1194  156.0346 H   0  0  0  0  0  0  0  0  0  0  0  0
  153.0926  137.8330  156.5675 H   0  0  0  0  0  0  0  0  0  0  0  0
  151.6495  138.0068  157.5566 H   0  0  0  0  0  0  0  0  0  0  0  0
  151.7838  137.6308  154.5523 H   0  0  0  0  0  0  0  0  0  0  0  0
  150.6868  136.8535  155.7056 H   0  0  0  0  0  0  0  0  0  0  0  0
  150.0164  138.9653  153.1662 H   0  0  0  0  0  0  0  0  0  0  0  0
  148.8640  137.9397  154.0077 H   0  0  0  0  0  0  0  0  0  0  0  0
  147.8134  140.1217  153.2464 H   0  0  0  0  0  0  0  0  0  0  0  0
  147.7050  139.8708  154.9703 H   0  0  0  0  0  0  0  0  0  0  0  0
  149.6753  141.6995  153.5245 H   0  0  0  0  0  0  0  0  0  0  0  0
  148.3821  142.1955  154.5876 H   0  0  0  0  0  0  0  0  0  0  0  0
  150.6450  142.2516  155.7165 H   0  0  0  0  0  0  0  0  0  0  0  0
  149.5190  141.1892  156.5381 H   0  0  0  0  0  0  0  0  0  0  0  0
  151.5658  140.2936  154.4488 H   0  0  0  0  0  0  0  0  0  0  0  0
  149.6454  138.8726  156.0673 H   0  0  0  0  0  0  0  0  0  0  0  0
  1  2  2  0  0  0  0
  2  3  1  0  0  0  0
  2  9  1  0  0  0  0
  3  4  1  0  0  0  0
  4  8  1  0  0  0  0
  4  5  2  0  0  0  0
  5  6  1  0  0  0  0
  6  7  2  0  0  0  0
  6 19  1  0  0  0  0
  7  8  1  0  0  0  0
  7 20  1  0  0  0  0
  9 10  1  0  0  0  0
  9 21  1  0  0  0  0
 10 18  1  0  0  0  0
 10 11  1  0  0  0  0
 10 22  1  0  0  0  0
 11 12  1  0  0  0  0
 11 23  1  0  0  0  0
 11 24  1  0  0  0  0
 12 13  1  0  0  0  0
 12 25  1  0  0  0  0
 12 26  1  0  0  0  0
 13 18  1  0  0  0  0
 13 14  1  0  0  0  0
 13 36  1  0  0  0  0
 14 15  1  0  0  0  0
 14 27  1  0  0  0  0
 14 28  1  0  0  0  0
 15 16  1  0  0  0  0
 15 29  1  0  0  0  0
 15 30  1  0  0  0  0
 16 17  1  0  0  0  0
 16 31  1  0  0  0  0
 16 32  1  0  0  0  0
 17 18  1  0  0  0  0
 17 33  1  0  0  0  0
 17 34  1  0  0  0  0
 18 35  1  0  0  0  0
M  CHG  1   3  -1
M  CHG  1  13   1
M  END
> <s_m_source_file>
AV-unprocessed.smi

> <i_m_source_file_index>
1965

> <i_lp_mmshare_version>
43012

> <i_f3d_flags>
0

> <s_epik_input>
czFbY0hdW2NIXW5jMVtOSF1DKD1PKVtOSF1bQ0BIXShbQ0gyXVtDSDJdMilbQ0BASF0oTjIzKVtDSDJdW0NIMl1bQ0gyXVtDSDJdMw==

> <s_epik_cmdline>
J2VwaWtfcHl0aG9uJywgJy1waCcsICc3LjAnLCAnLXRuJywgJzgnLCAnLW1hJywgJzIwMCcsICctbWV0YWxfYmluZGluZycsICctaW1hZScsICc8aW5maWxlLm1hZT4nLCAnLW9tYWUnLCAnPG91dGZpbGUubWFlPic=

> <r_lp_tautomer_probability>
1

> <r_epik_Ionization_Penalty>
7.4116

> <r_epik_Ionization_Penalty_Charging>
6.13869

> <r_epik_Ionization_Penalty_Neutral>
1.27291

> <r_epik_State_Penalty>
6.13761

> <r_epik_Charging_Adjusted_Penalty>
12.2763

> <i_epik_Tot_Q>
0

> <i_epik_Tot_abs_Q>
2

> <r_epik_Metal_State_Penalty>
2.08142

> <b_epik_Metal_Only>
1

> <s_lp_Force_Field>
OPLS_2005

> <r_lp_Energy>
32.5812

> <b_lp_Chiralities_Consistent>
1

> <s_lp_Variant>
AV-unprocessed.smi:1965-12

> <Gold.Version>
5.8.1

> <Gold.Id.Protein>
6NUR|6NUR_protein|mol2

> <Gold.PLP.Fitness>
39.0805

> <Gold.PLP.PLP>
-37.3305

> <Gold.PLP.part.hbond>
-1.0000

> <Gold.PLP.part.metal>
0.0000

> <Gold.PLP.part.buried>
-1.2293

> <Gold.PLP.part.nonpolar>
-33.9147

> <Gold.PLP.part.repulsive>
0.2234

> <Gold.PLP.ligand.clash>
0.0000

> <Gold.PLP.ligand.torsion>
0.6263

> <Gold.PLP.Chemscore.Hbond>
1.0000

> <Gold.PLP.Chemscore.CHOScore>
0.0000

> <Gold.PLP.Chemscore.Metal>
0.0000

> <Gold.Chemscore.Hbonds>
donor molecule, donor type, donor heavy atom, donor atom, acceptor molecule, acceptor atom, score
      P1  H  7997  8010       L1     1  1.00

> <Gold.PLP.Chemscore.Internal.Correction>
0.0025

> <Gold.Rescore>
     Score         DG    S(hbond)    S(metal)    S(lipo)     H(rot)  DE(clash)    DE(int)     intcor
     15.92     -16.63       1.11        0.00      85.56       1.00       0.10       0.61       ----

> <Gold.Chemscore.Fitness>
15.9200

> <Gold.Chemscore.DG>
-16.6316

> <Gold.Chemscore.ZeroCoef>
-5.4800

> <Gold.Chemscore.Hbond>
1.1081

> <Gold.Chemscore.Metal>
0.0000

> <Gold.Chemscore.Lipo>
85.5606

> <Gold.Chemscore.Internal_Hbond>
0.0000

> <Gold.Chemscore.DEClash>
0.1013

> <Gold.Chemscore.DEInternal>
0.6103

> <Gold.Chemscore.Rot>
1.0000

> <Gold.Chemscore.Internal.Correction>
   9.000000E+99

> <Gold.Chemscore.Hbonds>
donor molecule, donor type, donor heavy atom, donor atom, acceptor molecule, acceptor atom, score
      P1  H  7997  8010       L1     1  0.84

> <Gold.Chemscore.Hbond.Weighted>
-3.7010

> <Gold.Chemscore.Metal.Weighted>
-0.0000

> <Gold.Chemscore.Lipo.Weighted>
-10.0106

> <Gold.Chemscore.Internal_Hbond.Weighted>
0.0000

> <Gold.Chemscore.DEClash.Weighted>
0.1013

> <Gold.Chemscore.DEInternal.Weighted>
0.6103

> <Gold.Chemscore.Rot.Weighted>
2.5600

> <Gold.Chemscore.Internal.Correction.Weighted>
   9.000000E+99

> <Gold.Protein.RotatedTorsions>
[ 6907 6896 6895 6894 ] final  109.11 input  -60.11 | X-H torsion
[ 7974 7965 7964 7962 ] final  -69.00 input  175.53 | X-H torsion
[ 8008 7997 7996 7995 ] final   25.37 input   59.86 | X-H torsion
[ 10167 10162 10161 10158 ] final  -82.92 input  -65.29 | X-H torsion
[ 10718 10713 10712 10709 ] final  -95.52 input   66.30 | X-H torsion
[ 10763 10752 10751 10750 ] final   68.16 input  -60.55 | X-H torsion
[ 11005 11000 10999 10996 ] final   -4.70 input  -57.11 | X-H torsion

> <Gold.Protein.ActiveResidues>
 VAL166  LYS551  ARG553  GLY616  TRP617  ASP618  TYR619  PRO620  LYS621  CYS622 
 ASP623  PHE694  ASN695  SER759  ASP760  ASP761  ALA762  ILE779  LEU786  VAL792 
 PHE793  MET794  SER795  GLU796  ALA797  LYS798  CYS799  TRP800  GLU811  SER814 

> <Gold.Protein.RotatedAtoms>
  152.5082  133.8992  159.7432 H   0  0  0  0  0  0  0  0  0  0  0  0  # atno 6907 bound_to 6896
  150.9412  133.6646  159.2797 H   0  0  0  0  0  0  0  0  0  0  0  0  # atno 6908 bound_to 6896
  151.3957  135.0968  159.9592 H   0  0  0  0  0  0  0  0  0  0  0  0  # atno 6909 bound_to 6896
  145.7093  140.9085  143.0689 H   0  0  0  0  0  0  0  0  0  0  0  0  # atno 7974 bound_to 7965
  155.0106  140.3136  155.4831 H   0  0  0  0  0  0  0  0  0  0  0  0  # atno 8008 bound_to 7997
  156.2910  140.2215  156.5162 H   0  0  0  0  0  0  0  0  0  0  0  0  # atno 8009 bound_to 7997
  154.7538  140.0464  157.0904 H   0  0  0  0  0  0  0  0  0  0  0  0  # atno 8010 bound_to 7997
  140.4275  143.2561  151.8805 H   0  0  0  0  0  0  0  0  0  0  0  0  # atno 10167 bound_to 10162
  156.0045  130.5112  150.6088 H   0  0  0  0  0  0  0  0  0  0  0  0  # atno 10718 bound_to 10713
  153.0222  135.5257  154.7092 H   0  0  0  0  0  0  0  0  0  0  0  0  # atno 10763 bound_to 10752
  154.6179  135.2885  155.0361 H   0  0  0  0  0  0  0  0  0  0  0  0  # atno 10764 bound_to 10752
  154.1359  135.6586  153.4984 H   0  0  0  0  0  0  0  0  0  0  0  0  # atno 10765 bound_to 10752
  140.6832  133.9136  155.8568 H   0  0  0  0  0  0  0  0  0  0  0  0  # atno 11005 bound_to 11000
  144.6946  139.9053  143.7460 LP  0  0  0  0  0  0  0  0  0  0  0  0  # atno 17320 bound_to 7965
  146.0727  139.3715  143.0513 LP  0  0  0  0  0  0  0  0  0  0  0  0  # atno 17321 bound_to 7965
  139.4784  144.5371  151.8583 LP  0  0  0  0  0  0  0  0  0  0  0  0  # atno 17342 bound_to 10162
  140.4464  144.1915  150.5894 LP  0  0  0  0  0  0  0  0  0  0  0  0  # atno 17343 bound_to 10162
  157.3924  131.0798  151.1381 LP  0  0  0  0  0  0  0  0  0  0  0  0  # atno 17370 bound_to 10713
  157.2069  130.6420  149.5759 LP  0  0  0  0  0  0  0  0  0  0  0  0  # atno 17371 bound_to 10713
  141.0301  134.0768  157.4024 LP  0  0  0  0  0  0  0  0  0  0  0  0  # atno 17394 bound_to 11000
  139.8945  135.0136  156.6956 LP  0  0  0  0  0  0  0  0  0  0  0  0  # atno 17395 bound_to 11000

$$$$
