AV-unprocessed.smi:1989|AV-procd|sdf|8060|dock1
  -GOLD-   2272010263D 1   1.00000     0.00000
 Structure written by MMmdl.
 30 31  0  0  0  0  0  0  0  0  1 V2000
  152.8606  143.5206  162.7402 C   0  0  0  0  0  0  0  0  0  0  0  0
  152.7183  142.9810  161.3590 C   0  0  0  0  0  0  0  0  0  0  0  0
  151.7369  143.3375  160.5276 N   0  0  0  0  0  0  0  0  0  0  0  0
  151.8027  142.6726  159.2982 C   0  0  0  0  0  0  0  0  0  0  0  0
  150.7465  142.9102  158.2573 C   0  0  0  0  0  0  0  0  0  0  0  0
  151.1961  142.5625  156.8238 C   0  0  0  0  0  0  0  0  0  0  0  0
  150.0665  142.3835  155.9145 N   0  0  0  0  0  0  0  0  0  0  0  0
  149.8207  141.2844  155.1826 C   0  0  0  0  0  0  0  0  0  0  0  0
  150.5875  140.3248  155.1050 O   0  0  0  0  0  0  0  0  0  0  0  0
  148.6761  141.3685  154.4859 N   0  0  0  0  0  0  0  0  0  0  0  0
  147.4890  142.1674  154.7830 C   0  0  0  0  0  0  0  0  0  0  0  0
  146.7468  141.2657  153.8018 C   0  0  0  0  0  0  0  0  0  0  0  0
  147.8982  140.2717  153.9180 C   0  0  0  0  0  0  0  0  0  0  0  0
  152.8686  141.8127  159.2058 C   0  0  0  0  0  0  0  0  0  0  0  0
  153.8188  141.7964  160.6659 S   0  0  0  0  0  0  0  0  0  0  0  0
  152.4071  144.5097  162.8118 H   0  0  0  0  0  0  0  0  0  0  0  0
  153.9147  143.6001  163.0060 H   0  0  0  0  0  0  0  0  0  0  0  0
  152.3674  142.8563  163.4502 H   0  0  0  0  0  0  0  0  0  0  0  0
  149.8558  142.3289  158.4989 H   0  0  0  0  0  0  0  0  0  0  0  0
  150.4295  143.9532  158.2848 H   0  0  0  0  0  0  0  0  0  0  0  0
  151.8238  143.3637  156.4338 H   0  0  0  0  0  0  0  0  0  0  0  0
  151.8229  141.6694  156.8409 H   0  0  0  0  0  0  0  0  0  0  0  0
  149.3891  143.1313  155.8794 H   0  0  0  0  0  0  0  0  0  0  0  0
  147.1410  142.0739  155.8133 H   0  0  0  0  0  0  0  0  0  0  0  0
  147.5462  143.2088  154.4646 H   0  0  0  0  0  0  0  0  0  0  0  0
  145.7886  140.8929  154.1652 H   0  0  0  0  0  0  0  0  0  0  0  0
  146.6617  141.7020  152.8051 H   0  0  0  0  0  0  0  0  0  0  0  0
  148.2614  139.9041  152.9577 H   0  0  0  0  0  0  0  0  0  0  0  0
  147.7039  139.4580  154.6189 H   0  0  0  0  0  0  0  0  0  0  0  0
  153.1426  141.1784  158.3759 H   0  0  0  0  0  0  0  0  0  0  0  0
  1  2  1  0  0  0  0
  1 16  1  0  0  0  0
  1 17  1  0  0  0  0
  1 18  1  0  0  0  0
  2 15  1  0  0  0  0
  2  3  2  0  0  0  0
  3  4  1  0  0  0  0
  4  5  1  0  0  0  0
  4 14  2  0  0  0  0
  5  6  1  0  0  0  0
  5 19  1  0  0  0  0
  5 20  1  0  0  0  0
  6  7  1  0  0  0  0
  6 21  1  0  0  0  0
  6 22  1  0  0  0  0
  7  8  1  0  0  0  0
  7 23  1  0  0  0  0
  8  9  2  0  0  0  0
  8 10  1  0  0  0  0
 10 13  1  0  0  0  0
 10 11  1  0  0  0  0
 11 12  1  0  0  0  0
 11 24  1  0  0  0  0
 11 25  1  0  0  0  0
 12 13  1  0  0  0  0
 12 26  1  0  0  0  0
 12 27  1  0  0  0  0
 13 28  1  0  0  0  0
 13 29  1  0  0  0  0
 14 15  1  0  0  0  0
 14 30  1  0  0  0  0
M  END
> <s_m_source_file>
AV-unprocessed.smi

> <i_m_source_file_index>
1989

> <i_lp_mmshare_version>
43012

> <i_f3d_flags>
0

> <s_epik_input>
W0NIM11jMW5jKFtjSF1zMSlbQ0gyXVtDSDJdW05IXUMoPU8pTjJbQ0gyXVtDSDJdW0NIMl0y

> <s_epik_cmdline>
J2VwaWtfcHl0aG9uJywgJy1waCcsICc3LjAnLCAnLXRuJywgJzgnLCAnLW1hJywgJzIwMCcsICctbWV0YWxfYmluZGluZycsICctaW1hZScsICc8aW5maWxlLm1hZT4nLCAnLW9tYWUnLCAnPG91dGZpbGUubWFlPic=

> <r_epik_Ionization_Penalty>
0.00206279

> <r_epik_Ionization_Penalty_Charging>
0

> <r_epik_Ionization_Penalty_Neutral>
0.00206279

> <r_epik_State_Penalty>
0.00136479

> <r_epik_Charging_Adjusted_Penalty>
0.00136479

> <i_epik_Tot_Q>
0

> <i_epik_Tot_abs_Q>
0

> <r_epik_Metal_State_Penalty>
-0

> <b_epik_Metal_Only>
0

> <s_lp_Force_Field>
OPLS_2005

> <r_lp_Energy>
16.4477

> <b_lp_Chiralities_Consistent>
1

> <s_lp_Variant>
AV-unprocessed.smi:1989-1

> <Gold.Version>
5.8.1

> <Gold.Id.Protein>
6NUR|6NUR_protein|mol2

> <Gold.PLP.Fitness>
42.2731

> <Gold.PLP.PLP>
-37.0742

> <Gold.PLP.part.hbond>
-2.3152

> <Gold.PLP.part.metal>
0.0000

> <Gold.PLP.part.buried>
-1.5546

> <Gold.PLP.part.nonpolar>
-32.6658

> <Gold.PLP.part.repulsive>
0.2794

> <Gold.PLP.ligand.clash>
0.0000

> <Gold.PLP.ligand.torsion>
0.6358

> <Gold.PLP.Chemscore.Hbond>
2.0000

> <Gold.PLP.Chemscore.CHOScore>
0.0000

> <Gold.PLP.Chemscore.Metal>
0.0000

> <Gold.Chemscore.Hbonds>
donor molecule, donor type, donor heavy atom, donor atom, acceptor molecule, acceptor atom, score
      L1  H     7    23       P1  8028  1.00
      P1  H  7989  7998       L1     9  0.95

> <Gold.PLP.Chemscore.Internal.Correction>
0.4706

> <Gold.Rescore>
     Score         DG    S(hbond)    S(metal)    S(lipo)     H(rot)  DE(clash)    DE(int)     intcor
     16.67     -17.84       1.58        0.00      90.65       1.38       0.49       0.68       ----

> <Gold.Chemscore.Fitness>
16.6716

> <Gold.Chemscore.DG>
-17.8351

> <Gold.Chemscore.ZeroCoef>
-5.4800

> <Gold.Chemscore.Hbond>
1.5814

> <Gold.Chemscore.Metal>
0.0000

> <Gold.Chemscore.Lipo>
90.6534

> <Gold.Chemscore.Internal_Hbond>
0.0000

> <Gold.Chemscore.DEClash>
0.4856

> <Gold.Chemscore.DEInternal>
0.6779

> <Gold.Chemscore.Rot>
1.3802

> <Gold.Chemscore.Internal.Correction>
   9.000000E+99

> <Gold.Chemscore.Hbonds>
donor molecule, donor type, donor heavy atom, donor atom, acceptor molecule, acceptor atom, score
      L1  H     7    23       P1  8028  0.98
      P1  H  7989  7998       L1     9  0.20

> <Gold.Chemscore.Hbond.Weighted>
-5.2820

> <Gold.Chemscore.Metal.Weighted>
-0.0000

> <Gold.Chemscore.Lipo.Weighted>
-10.6064

> <Gold.Chemscore.Internal_Hbond.Weighted>
0.0000

> <Gold.Chemscore.DEClash.Weighted>
0.4856

> <Gold.Chemscore.DEInternal.Weighted>
0.6779

> <Gold.Chemscore.Rot.Weighted>
3.5334

> <Gold.Chemscore.Internal.Correction.Weighted>
   9.000000E+99

> <Gold.Protein.RotatedTorsions>
[ 6907 6896 6895 6894 ] final -134.68 input  -60.11 | X-H torsion
[ 7974 7965 7964 7962 ] final  168.17 input  175.53 | X-H torsion
[ 8008 7997 7996 7995 ] final   64.79 input   59.86 | X-H torsion
[ 10167 10162 10161 10158 ] final  -92.40 input  -65.29 | X-H torsion
[ 10718 10713 10712 10709 ] final  -44.78 input   66.30 | X-H torsion
[ 10763 10752 10751 10750 ] final -147.06 input  -60.55 | X-H torsion
[ 11005 11000 10999 10996 ] final  -17.58 input  -57.11 | X-H torsion

> <Gold.Protein.ActiveResidues>
 VAL166  LYS551  ARG553  GLY616  TRP617  ASP618  TYR619  PRO620  LYS621  CYS622 
 ASP623  PHE694  ASN695  SER759  ASP760  ASP761  ALA762  ILE779  LEU786  VAL792 
 PHE793  MET794  SER795  GLU796  ALA797  LYS798  CYS799  TRP800  GLU811  SER814 

> <Gold.Protein.RotatedAtoms>
  150.9888  133.6171  159.2711 H   0  0  0  0  0  0  0  0  0  0  0  0  # atno 6907 bound_to 6896
  151.3399  135.0860  159.9377 H   0  0  0  0  0  0  0  0  0  0  0  0  # atno 6908 bound_to 6896
  152.5239  133.9501  159.7722 H   0  0  0  0  0  0  0  0  0  0  0  0  # atno 6909 bound_to 6896
  144.7398  139.8868  143.6400 H   0  0  0  0  0  0  0  0  0  0  0  0  # atno 7974 bound_to 7965
  155.6516  140.3497  155.4750 H   0  0  0  0  0  0  0  0  0  0  0  0  # atno 8008 bound_to 7997
  155.9843  140.1181  157.0721 H   0  0  0  0  0  0  0  0  0  0  0  0  # atno 8009 bound_to 7997
  154.4200  140.1132  156.5464 H   0  0  0  0  0  0  0  0  0  0  0  0  # atno 8010 bound_to 7997
  140.3351  143.2973  151.9898 H   0  0  0  0  0  0  0  0  0  0  0  0  # atno 10167 bound_to 10162
  156.2350  130.4175  149.8828 H   0  0  0  0  0  0  0  0  0  0  0  0  # atno 10718 bound_to 10713
  154.8305  135.3370  154.6760 H   0  0  0  0  0  0  0  0  0  0  0  0  # atno 10763 bound_to 10752
  153.7380  135.6947  153.4978 H   0  0  0  0  0  0  0  0  0  0  0  0  # atno 10764 bound_to 10752
  153.2264  135.4431  155.0498 H   0  0  0  0  0  0  0  0  0  0  0  0  # atno 10765 bound_to 10752
  140.8182  133.8088  155.9633 H   0  0  0  0  0  0  0  0  0  0  0  0  # atno 11005 bound_to 11000
  146.1171  139.4184  143.0251 LP  0  0  0  0  0  0  0  0  0  0  0  0  # atno 17320 bound_to 7965
  145.7359  141.0026  143.1327 LP  0  0  0  0  0  0  0  0  0  0  0  0  # atno 17321 bound_to 7965
  139.4849  144.6203  151.7268 LP  0  0  0  0  0  0  0  0  0  0  0  0  # atno 17342 bound_to 10162
  140.5361  144.0654  150.6071 LP  0  0  0  0  0  0  0  0  0  0  0  0  # atno 17343 bound_to 10162
  156.6429  130.8712  151.3517 LP  0  0  0  0  0  0  0  0  0  0  0  0  # atno 17370 bound_to 10713
  157.7150  130.9486  150.1224 LP  0  0  0  0  0  0  0  0  0  0  0  0  # atno 17371 bound_to 10713
  140.9126  134.2241  157.4976 LP  0  0  0  0  0  0  0  0  0  0  0  0  # atno 17394 bound_to 11000
  139.8710  134.9757  156.4893 LP  0  0  0  0  0  0  0  0  0  0  0  0  # atno 17395 bound_to 11000

$$$$
