AV-unprocessed.smi:1596|AV-procd|sdf|6417|dock8
  -GOLD-   22720 7 53D 1   1.00000     0.00000
 Structure written by MMmdl.
 49 50  0  0  0  0  0  0  0  0  2 V2000
  152.5738  144.7704  158.2788 C   0  0  0  0  0  0  0  0  0  0  0  0
  151.6534  143.9745  157.3412 C   0  0  0  0  0  0  0  0  0  0  0  0
  151.7602  142.5243  157.5203 N   0  0  0  0  0  0  0  0  0  0  0  0
  152.6849  141.9907  158.5209 C   0  0  0  0  0  0  0  0  0  0  0  0
  152.2638  142.3022  159.9649 C   0  0  0  0  0  0  0  0  0  0  0  0
  151.1115  141.6514  156.6124 C   0  0  0  0  0  0  0  0  0  0  0  0
  151.5299  140.3185  156.3700 C   0  0  0  0  0  0  0  0  0  0  0  0
  150.8272  139.5144  155.4491 C   0  0  0  0  0  0  0  0  0  0  0  0
  149.7013  140.0342  154.7784 C   0  0  0  0  0  0  0  0  0  0  0  0
  149.0327  139.1934  153.8478 N   0  0  0  0  0  0  0  0  0  0  0  0
  147.7123  139.0839  153.6205 C   0  0  0  0  0  0  0  0  0  0  0  0
  146.8332  139.6852  154.2376 O   0  0  0  0  0  0  0  0  0  0  0  0
  147.4595  138.2119  152.6340 N   0  0  0  0  0  0  0  0  0  0  0  0
  146.1308  137.8519  152.1471 C   0  0  2  0  0  0  0  0  0  0  0  0
  145.2251  137.4934  153.3394 C   0  0  0  0  0  0  0  0  0  0  0  0
  143.8230  137.0610  152.8757 C   0  0  0  0  0  0  0  0  0  0  0  0
  143.8756  135.9097  151.8538 C   0  0  2  0  0  0  0  0  0  0  0  0
  144.2927  134.7171  152.4889 O   0  0  0  0  0  0  0  0  0  0  0  0
  144.8157  136.2387  150.6789 C   0  0  0  0  0  0  0  0  0  0  0  0
  146.2128  136.6750  151.1533 C   0  0  0  0  0  0  0  0  0  0  0  0
  149.3264  141.3718  155.0441 C   0  0  0  0  0  0  0  0  0  0  0  0
  150.0302  142.1062  155.9322 N   0  3  0  0  0  0  0  0  0  0  0  0
  152.4821  145.8393  158.0860 H   0  0  0  0  0  0  0  0  0  0  0  0
  153.6208  144.5006  158.1397 H   0  0  0  0  0  0  0  0  0  0  0  0
  152.3216  144.6076  159.3256 H   0  0  0  0  0  0  0  0  0  0  0  0
  150.6211  144.2773  157.5183 H   0  0  0  0  0  0  0  0  0  0  0  0
  151.8556  144.2400  156.3031 H   0  0  0  0  0  0  0  0  0  0  0  0
  152.7454  140.9089  158.3990 H   0  0  0  0  0  0  0  0  0  0  0  0
  153.6944  142.3535  158.3297 H   0  0  0  0  0  0  0  0  0  0  0  0
  153.0013  141.9166  160.6688 H   0  0  0  0  0  0  0  0  0  0  0  0
  151.3088  141.8417  160.2132 H   0  0  0  0  0  0  0  0  0  0  0  0
  152.1736  143.3745  160.1385 H   0  0  0  0  0  0  0  0  0  0  0  0
  152.3858  139.8919  156.8699 H   0  0  0  0  0  0  0  0  0  0  0  0
  151.1525  138.5007  155.2655 H   0  0  0  0  0  0  0  0  0  0  0  0
  149.6268  138.5729  153.3173 H   0  0  0  0  0  0  0  0  0  0  0  0
  148.2424  137.7606  152.1838 H   0  0  0  0  0  0  0  0  0  0  0  0
  145.6962  138.7148  151.6384 H   0  0  0  0  0  0  0  0  0  0  0  0
  145.6789  136.6894  153.9208 H   0  0  0  0  0  0  0  0  0  0  0  0
  145.1385  138.3471  154.0125 H   0  0  0  0  0  0  0  0  0  0  0  0
  143.2148  136.7761  153.7349 H   0  0  0  0  0  0  0  0  0  0  0  0
  143.3227  137.9167  152.4206 H   0  0  0  0  0  0  0  0  0  0  0  0
  142.8716  135.7298  151.4681 H   0  0  0  0  0  0  0  0  0  0  0  0
  144.8267  134.2257  151.8835 H   0  0  0  0  0  0  0  0  0  0  0  0
  144.8979  135.3830  150.0077 H   0  0  0  0  0  0  0  0  0  0  0  0
  144.3772  137.0450  150.0895 H   0  0  0  0  0  0  0  0  0  0  0  0
  146.8164  136.9523  150.2885 H   0  0  0  0  0  0  0  0  0  0  0  0
  146.7194  135.8299  151.6215 H   0  0  0  0  0  0  0  0  0  0  0  0
  148.5037  141.8929  154.5782 H   0  0  0  0  0  0  0  0  0  0  0  0
  149.7293  143.0667  156.0987 H   0  0  0  0  0  0  0  0  0  0  0  0
  1  2  1  0  0  0  0
  1 23  1  0  0  0  0
  1 24  1  0  0  0  0
  1 25  1  0  0  0  0
  2  3  1  0  0  0  0
  2 26  1  0  0  0  0
  2 27  1  0  0  0  0
  3  4  1  0  0  0  0
  3  6  1  0  0  0  0
  4  5  1  0  0  0  0
  4 28  1  0  0  0  0
  4 29  1  0  0  0  0
  5 30  1  0  0  0  0
  5 31  1  0  0  0  0
  5 32  1  0  0  0  0
  6 22  1  0  0  0  0
  6  7  2  0  0  0  0
  7  8  1  0  0  0  0
  7 33  1  0  0  0  0
  8  9  2  0  0  0  0
  8 34  1  0  0  0  0
  9 10  1  0  0  0  0
  9 21  1  0  0  0  0
 10 11  1  0  0  0  0
 10 35  1  0  0  0  0
 11 12  2  0  0  0  0
 11 13  1  0  0  0  0
 13 14  1  0  0  0  0
 13 36  1  0  0  0  0
 14 20  1  0  0  0  0
 14 15  1  0  0  0  0
 14 37  1  0  0  0  0
 15 16  1  0  0  0  0
 15 38  1  0  0  0  0
 15 39  1  0  0  0  0
 16 17  1  0  0  0  0
 16 40  1  0  0  0  0
 16 41  1  0  0  0  0
 17 18  1  0  0  0  0
 17 19  1  0  0  0  0
 17 42  1  0  0  0  0
 18 43  1  0  0  0  0
 19 20  1  0  0  0  0
 19 44  1  0  0  0  0
 19 45  1  0  0  0  0
 20 46  1  0  0  0  0
 20 47  1  0  0  0  0
 21 22  2  0  0  0  0
 21 48  1  0  0  0  0
 22 49  1  0  0  0  0
M  CHG  1  22   1
M  END
> <s_m_source_file>
AV-unprocessed.smi

> <i_m_source_file_index>
1596

> <i_lp_mmshare_version>
43012

> <i_f3d_flags>
0

> <s_epik_input>
W0NIM11bQ0gyXU4oW0NIMl1bQ0gzXSljMVtjSF1bY0hdYyhbY0hdbjEpW05IXUMoPU8pW05IXVtDQEBIXTJbQ0gyXVtDSDJdW0NAQEhdKFtPSF0pW0NIMl1bQ0gyXTI=

> <s_epik_cmdline>
J2VwaWtfcHl0aG9uJywgJy1waCcsICc3LjAnLCAnLXRuJywgJzgnLCAnLW1hJywgJzIwMCcsICctbWV0YWxfYmluZGluZycsICctaW1hZScsICc8aW5maWxlLm1hZT4nLCAnLW9tYWUnLCAnPG91dGZpbGUubWFlPic=

> <r_lp_tautomer_probability>
0.999994

> <r_epik_Ionization_Penalty>
0.224167

> <r_epik_Ionization_Penalty_Charging>
0.224146

> <r_epik_Ionization_Penalty_Neutral>
2.1696e-05

> <r_epik_State_Penalty>
0.0144855

> <r_epik_Charging_Adjusted_Penalty>
0.238631

> <i_epik_Tot_Q>
1

> <i_epik_Tot_abs_Q>
1

> <r_epik_Metal_State_Penalty>
0.0446449

> <b_epik_Metal_Only>
0

> <s_lp_Force_Field>
OPLS_2005

> <r_lp_Energy>
23.6459

> <b_lp_Chiralities_Consistent>
1

> <s_lp_Variant>
AV-unprocessed.smi:1596-2

> <Gold.Version>
5.8.1

> <Gold.Id.Protein>
6NUR|6NUR_protein|mol2

> <Gold.PLP.Fitness>
48.1591

> <Gold.PLP.PLP>
-40.5885

> <Gold.PLP.part.hbond>
-3.6777

> <Gold.PLP.part.metal>
0.0000

> <Gold.PLP.part.buried>
1.5045

> <Gold.PLP.part.nonpolar>
-39.5464

> <Gold.PLP.part.repulsive>
0.3970

> <Gold.PLP.ligand.clash>
0.0000

> <Gold.PLP.ligand.torsion>
0.6385

> <Gold.PLP.Chemscore.Hbond>
2.9120

> <Gold.PLP.Chemscore.CHOScore>
0.0000

> <Gold.PLP.Chemscore.Metal>
0.0000

> <Gold.Chemscore.Hbonds>
donor molecule, donor type, donor heavy atom, donor atom, acceptor molecule, acceptor atom, score
      L1  H    13    36       P1  7948  0.90
      L1  H    22    49       P1  8028  2.00

> <Gold.PLP.Chemscore.Internal.Correction>
0.1115

> <Gold.Rescore>
     Score         DG    S(hbond)    S(metal)    S(lipo)     H(rot)  DE(clash)    DE(int)     intcor
     15.80     -19.59       1.95        0.00     104.95       1.83       1.83       1.96       ----

> <Gold.Chemscore.Fitness>
15.7961

> <Gold.Chemscore.DG>
-19.5880

> <Gold.Chemscore.ZeroCoef>
-5.4800

> <Gold.Chemscore.Hbond>
1.9515

> <Gold.Chemscore.Metal>
0.0000

> <Gold.Chemscore.Lipo>
104.9505

> <Gold.Chemscore.Internal_Hbond>
0.0000

> <Gold.Chemscore.DEClash>
1.8278

> <Gold.Chemscore.DEInternal>
1.9640

> <Gold.Chemscore.Rot>
1.8317

> <Gold.Chemscore.Internal.Correction>
   9.000000E+99

> <Gold.Chemscore.Hbonds>
donor molecule, donor type, donor heavy atom, donor atom, acceptor molecule, acceptor atom, score
      L1  H    13    36       P1  7948  0.88
      L1  H    22    49       P1  8028  0.98

> <Gold.Chemscore.Hbond.Weighted>
-6.5180

> <Gold.Chemscore.Metal.Weighted>
-0.0000

> <Gold.Chemscore.Lipo.Weighted>
-12.2792

> <Gold.Chemscore.Internal_Hbond.Weighted>
0.0000

> <Gold.Chemscore.DEClash.Weighted>
1.8278

> <Gold.Chemscore.DEInternal.Weighted>
1.9640

> <Gold.Chemscore.Rot.Weighted>
4.6892

> <Gold.Chemscore.Internal.Correction.Weighted>
   9.000000E+99

> <Gold.Protein.RotatedTorsions>
[ 6907 6896 6895 6894 ] final -128.48 input  -60.11 | X-H torsion
[ 7974 7965 7964 7962 ] final -102.72 input  175.53 | X-H torsion
[ 8008 7997 7996 7995 ] final  -52.49 input   59.86 | X-H torsion
[ 10167 10162 10161 10158 ] final  145.50 input  -65.29 | X-H torsion
[ 10718 10713 10712 10709 ] final  -51.23 input   66.30 | X-H torsion
[ 10763 10752 10751 10750 ] final  174.66 input  -60.55 | X-H torsion
[ 11005 11000 10999 10996 ] final  -85.13 input  -57.11 | X-H torsion

> <Gold.Protein.ActiveResidues>
 VAL166  LYS551  ARG553  GLY616  TRP617  ASP618  TYR619  PRO620  LYS621  CYS622 
 ASP623  PHE694  ASN695  SER759  ASP760  ASP761  ALA762  ILE779  LEU786  VAL792 
 PHE793  MET794  SER795  GLU796  ALA797  LYS798  CYS799  TRP800  GLU811  SER814 

> <Gold.Protein.RotatedAtoms>
  150.9183  133.6912  159.2837 H   0  0  0  0  0  0  0  0  0  0  0  0  # atno 6907 bound_to 6896
  151.4375  135.1015  159.9670 H   0  0  0  0  0  0  0  0  0  0  0  0  # atno 6908 bound_to 6896
  152.4966  133.8599  159.7300 H   0  0  0  0  0  0  0  0  0  0  0  0  # atno 6909 bound_to 6896
  145.2651  140.9281  143.3018 H   0  0  0  0  0  0  0  0  0  0  0  0  # atno 7974 bound_to 7965
  154.4108  140.1222  156.5000 H   0  0  0  0  0  0  0  0  0  0  0  0  # atno 8008 bound_to 7997
  155.6904  140.3495  155.4872 H   0  0  0  0  0  0  0  0  0  0  0  0  # atno 8009 bound_to 7997
  155.9473  140.1098  157.0996 H   0  0  0  0  0  0  0  0  0  0  0  0  # atno 8010 bound_to 7997
  139.4925  144.5897  151.6705 H   0  0  0  0  0  0  0  0  0  0  0  0  # atno 10167 bound_to 10162
  156.1729  130.4149  149.9620 H   0  0  0  0  0  0  0  0  0  0  0  0  # atno 10718 bound_to 10713
  154.4570  135.2766  155.1740 H   0  0  0  0  0  0  0  0  0  0  0  0  # atno 10763 bound_to 10752
  154.3543  135.6143  153.5662 H   0  0  0  0  0  0  0  0  0  0  0  0  # atno 10764 bound_to 10752
  152.9851  135.5819  154.4925 H   0  0  0  0  0  0  0  0  0  0  0  0  # atno 10765 bound_to 10752
  141.1644  133.7383  156.8970 H   0  0  0  0  0  0  0  0  0  0  0  0  # atno 11005 bound_to 11000
  144.9384  139.4217  143.6461 LP  0  0  0  0  0  0  0  0  0  0  0  0  # atno 17320 bound_to 7965
  146.3263  139.8331  142.8904 LP  0  0  0  0  0  0  0  0  0  0  0  0  # atno 17321 bound_to 7965
  140.5522  144.0407  150.6132 LP  0  0  0  0  0  0  0  0  0  0  0  0  # atno 17342 bound_to 10162
  140.3465  143.2988  152.0533 LP  0  0  0  0  0  0  0  0  0  0  0  0  # atno 17343 bound_to 10162
  156.7415  130.9081  151.3632 LP  0  0  0  0  0  0  0  0  0  0  0  0  # atno 17370 bound_to 10713
  157.6815  130.9145  150.0280 LP  0  0  0  0  0  0  0  0  0  0  0  0  # atno 17371 bound_to 10713
  140.1609  134.9166  157.2713 LP  0  0  0  0  0  0  0  0  0  0  0  0  # atno 17394 bound_to 11000
  140.2613  134.3568  155.7405 LP  0  0  0  0  0  0  0  0  0  0  0  0  # atno 17395 bound_to 11000

$$$$
