AV-unprocessed.smi:1102|AV-procd|sdf|4770|dock3
  -GOLD-   22720 3313D 1   1.00000     0.00000
 Structure written by MMmdl.
 39 40  0  0  0  0  0  0  0  0  1 V2000
  152.2187  144.0803  161.3747 C   0  0  0  0  0  0  0  0  0  0  0  0
  152.5160  143.2229  160.2339 N   0  0  0  0  0  0  0  0  0  0  0  0
  152.2015  143.6765  158.8829 C   0  0  0  0  0  0  0  0  0  0  0  0
  153.0293  141.9214  160.4373 C   0  0  0  0  0  0  0  0  0  0  0  0
  152.7245  140.8592  159.5504 C   0  0  0  0  0  0  0  0  0  0  0  0
  153.2610  139.5801  159.7936 C   0  0  0  0  0  0  0  0  0  0  0  0
  154.0992  139.3896  160.9159 C   0  0  0  0  0  0  0  0  0  0  0  0
  154.6855  138.1470  161.2790 N   0  0  0  0  0  0  0  0  0  0  0  0
  154.2340  136.9047  161.0356 C   0  0  0  0  0  0  0  0  0  0  0  0
  153.2105  136.6272  160.4105 O   0  0  0  0  0  0  0  0  0  0  0  0
  155.0579  135.9813  161.5501 N   0  0  0  0  0  0  0  0  0  0  0  0
  154.8583  134.5391  161.4627 C   0  0  0  0  0  0  0  0  0  0  0  0
  154.9232  133.8737  162.8475 C   0  0  1  0  0  0  0  0  0  0  0  0
  154.2913  134.7034  163.9634 C   0  0  0  0  0  0  0  0  0  0  0  0
  153.8736  133.6626  164.9917 C   0  0  0  0  0  0  0  0  0  0  0  0
  153.9725  132.3315  164.2405 C   0  0  0  0  0  0  0  0  0  0  0  0
  154.1439  132.6884  162.8765 O   0  0  0  0  0  0  0  0  0  0  0  0
  154.3332  140.5001  161.7495 C   0  0  0  0  0  0  0  0  0  0  0  0
  153.8220  141.7272  161.5196 N   0  0  0  0  0  0  0  0  0  0  0  0
  153.1280  144.3044  161.9329 H   0  0  0  0  0  0  0  0  0  0  0  0
  151.5069  143.5961  162.0441 H   0  0  0  0  0  0  0  0  0  0  0  0
  151.7828  145.0275  161.0566 H   0  0  0  0  0  0  0  0  0  0  0  0
  153.0846  143.6256  158.2452 H   0  0  0  0  0  0  0  0  0  0  0  0
  151.8502  144.7082  158.8809 H   0  0  0  0  0  0  0  0  0  0  0  0
  151.4202  143.0556  158.4436 H   0  0  0  0  0  0  0  0  0  0  0  0
  152.0858  140.9965  158.6911 H   0  0  0  0  0  0  0  0  0  0  0  0
  153.0063  138.7740  159.1239 H   0  0  0  0  0  0  0  0  0  0  0  0
  155.5836  138.2103  161.7354 H   0  0  0  0  0  0  0  0  0  0  0  0
  155.8772  136.2967  162.0484 H   0  0  0  0  0  0  0  0  0  0  0  0
  153.8993  134.3278  160.9868 H   0  0  0  0  0  0  0  0  0  0  0  0
  155.6263  134.1244  160.8095 H   0  0  0  0  0  0  0  0  0  0  0  0
  155.9539  133.6299  163.1129 H   0  0  0  0  0  0  0  0  0  0  0  0
  154.9750  135.4502  164.3678 H   0  0  0  0  0  0  0  0  0  0  0  0
  153.4066  135.2237  163.5936 H   0  0  0  0  0  0  0  0  0  0  0  0
  154.5348  133.6660  165.8589 H   0  0  0  0  0  0  0  0  0  0  0  0
  152.8588  133.8518  165.3427 H   0  0  0  0  0  0  0  0  0  0  0  0
  154.8441  131.7667  164.5744 H   0  0  0  0  0  0  0  0  0  0  0  0
  153.0897  131.7063  164.3758 H   0  0  0  0  0  0  0  0  0  0  0  0
  154.9544  140.4054  162.6283 H   0  0  0  0  0  0  0  0  0  0  0  0
  1  2  1  0  0  0  0
  1 20  1  0  0  0  0
  1 21  1  0  0  0  0
  1 22  1  0  0  0  0
  2  3  1  0  0  0  0
  2  4  1  0  0  0  0
  3 23  1  0  0  0  0
  3 24  1  0  0  0  0
  3 25  1  0  0  0  0
  4 19  1  0  0  0  0
  4  5  2  0  0  0  0
  5  6  1  0  0  0  0
  5 26  1  0  0  0  0
  6  7  2  0  0  0  0
  6 27  1  0  0  0  0
  7  8  1  0  0  0  0
  7 18  1  0  0  0  0
  8  9  1  0  0  0  0
  8 28  1  0  0  0  0
  9 10  2  0  0  0  0
  9 11  1  0  0  0  0
 11 12  1  0  0  0  0
 11 29  1  0  0  0  0
 12 13  1  0  0  0  0
 12 30  1  0  0  0  0
 12 31  1  0  0  0  0
 13 17  1  0  0  0  0
 13 14  1  0  0  0  0
 13 32  1  0  0  0  0
 14 15  1  0  0  0  0
 14 33  1  0  0  0  0
 14 34  1  0  0  0  0
 15 16  1  0  0  0  0
 15 35  1  0  0  0  0
 15 36  1  0  0  0  0
 16 17  1  0  0  0  0
 16 37  1  0  0  0  0
 16 38  1  0  0  0  0
 18 19  2  0  0  0  0
 18 39  1  0  0  0  0
M  END
> <s_m_source_file>
AV-unprocessed.smi

> <i_m_source_file_index>
1102

> <i_lp_mmshare_version>
43012

> <i_f3d_flags>
0

> <s_epik_input>
W0NIM11OKFtDSDNdKWMxW2NIXVtjSF1jKFtjSF1uMSlbTkhdQyg9TylbTkhdW0NIMl1bQ0BASF0yW0NIMl1bQ0gyXVtDSDJdTzI=

> <s_epik_cmdline>
J2VwaWtfcHl0aG9uJywgJy1waCcsICc3LjAnLCAnLXRuJywgJzgnLCAnLW1hJywgJzIwMCcsICctbWV0YWxfYmluZGluZycsICctaW1hZScsICc8aW5maWxlLm1hZT4nLCAnLW9tYWUnLCAnPG91dGZpbGUubWFlPic=

> <r_lp_tautomer_probability>
1

> <r_epik_Ionization_Penalty>
0.605145

> <r_epik_Ionization_Penalty_Charging>
0

> <r_epik_Ionization_Penalty_Neutral>
0.605145

> <r_epik_State_Penalty>
0.618734

> <r_epik_Charging_Adjusted_Penalty>
0.618734

> <i_epik_Tot_Q>
0

> <i_epik_Tot_abs_Q>
0

> <r_epik_Metal_State_Penalty>
0.302184

> <b_epik_Metal_Only>
0

> <s_lp_Force_Field>
OPLS_2005

> <r_lp_Energy>
20.895

> <b_lp_Chiralities_Consistent>
1

> <s_lp_Variant>
AV-unprocessed.smi:1102-4

> <Gold.Version>
5.8.1

> <Gold.Id.Protein>
6NUR|6NUR_protein|mol2

> <Gold.PLP.Fitness>
40.4083

> <Gold.PLP.PLP>
-39.1032

> <Gold.PLP.part.hbond>
-1.0581

> <Gold.PLP.part.metal>
0.0000

> <Gold.PLP.part.buried>
-5.1667

> <Gold.PLP.part.nonpolar>
-32.9929

> <Gold.PLP.part.repulsive>
0.0333

> <Gold.PLP.ligand.clash>
0.0000

> <Gold.PLP.ligand.torsion>
0.8541

> <Gold.PLP.Chemscore.Hbond>
0.9913

> <Gold.PLP.Chemscore.CHOScore>
0.0000

> <Gold.PLP.Chemscore.Metal>
0.0000

> <Gold.Chemscore.Hbonds>
donor molecule, donor type, donor heavy atom, donor atom, acceptor molecule, acceptor atom, score
      P1  H  6896  6908       L1    10  1.00

> <Gold.PLP.Chemscore.Internal.Correction>
0.0395

> <Gold.Rescore>
     Score         DG    S(hbond)    S(metal)    S(lipo)     H(rot)  DE(clash)    DE(int)     intcor
     14.67     -16.09       1.00        0.00      88.73       1.21       0.02       1.40       ----

> <Gold.Chemscore.Fitness>
14.6655

> <Gold.Chemscore.DG>
-16.0859

> <Gold.Chemscore.ZeroCoef>
-5.4800

> <Gold.Chemscore.Hbond>
0.9983

> <Gold.Chemscore.Metal>
0.0000

> <Gold.Chemscore.Lipo>
88.7265

> <Gold.Chemscore.Internal_Hbond>
0.0000

> <Gold.Chemscore.DEClash>
0.0178

> <Gold.Chemscore.DEInternal>
1.4027

> <Gold.Chemscore.Rot>
1.2146

> <Gold.Chemscore.Internal.Correction>
   9.000000E+99

> <Gold.Chemscore.Hbonds>
donor molecule, donor type, donor heavy atom, donor atom, acceptor molecule, acceptor atom, score
      P1  H  6896  6908       L1    10  0.97

> <Gold.Chemscore.Hbond.Weighted>
-3.3342

> <Gold.Chemscore.Metal.Weighted>
-0.0000

> <Gold.Chemscore.Lipo.Weighted>
-10.3810

> <Gold.Chemscore.Internal_Hbond.Weighted>
0.0000

> <Gold.Chemscore.DEClash.Weighted>
0.0178

> <Gold.Chemscore.DEInternal.Weighted>
1.4027

> <Gold.Chemscore.Rot.Weighted>
3.1093

> <Gold.Chemscore.Internal.Correction.Weighted>
   9.000000E+99

> <Gold.Protein.RotatedTorsions>
[ 6907 6896 6895 6894 ] final  -83.61 input  -60.11 | X-H torsion
[ 7974 7965 7964 7962 ] final  113.92 input  175.53 | X-H torsion
[ 8008 7997 7996 7995 ] final  116.94 input   59.86 | X-H torsion
[ 10167 10162 10161 10158 ] final  173.56 input  -65.29 | X-H torsion
[ 10718 10713 10712 10709 ] final  154.81 input   66.30 | X-H torsion
[ 10763 10752 10751 10750 ] final   17.03 input  -60.55 | X-H torsion
[ 11005 11000 10999 10996 ] final  -94.47 input  -57.11 | X-H torsion

> <Gold.Protein.ActiveResidues>
 VAL166  LYS551  ARG553  GLY616  TRP617  ASP618  TYR619  PRO620  LYS621  CYS622 
 ASP623  PHE694  ASN695  SER759  ASP760  ASP761  ALA762  ILE779  LEU786  VAL792 
 PHE793  MET794  SER795  GLU796  ALA797  LYS798  CYS799  TRP800  GLU811  SER814 

> <Gold.Protein.RotatedAtoms>
  150.6884  134.3485  159.4898 H   0  0  0  0  0  0  0  0  0  0  0  0  # atno 6907 bound_to 6896
  152.1329  134.9118  160.0567 H   0  0  0  0  0  0  0  0  0  0  0  0  # atno 6908 bound_to 6896
  152.0281  133.3891  159.4323 H   0  0  0  0  0  0  0  0  0  0  0  0  # atno 6909 bound_to 6896
  145.2108  139.2907  143.4269 H   0  0  0  0  0  0  0  0  0  0  0  0  # atno 7974 bound_to 7965
  156.2467  140.2907  156.0601 H   0  0  0  0  0  0  0  0  0  0  0  0  # atno 8008 bound_to 7997
  155.1785  140.0403  157.2894 H   0  0  0  0  0  0  0  0  0  0  0  0  # atno 8009 bound_to 7997
  154.6276  140.2491  155.7479 H   0  0  0  0  0  0  0  0  0  0  0  0  # atno 8010 bound_to 7997
  139.5112  144.3247  152.0169 H   0  0  0  0  0  0  0  0  0  0  0  0  # atno 10167 bound_to 10162
  157.2267  131.0730  151.1879 H   0  0  0  0  0  0  0  0  0  0  0  0  # atno 10718 bound_to 10713
  153.1376  135.6753  153.9077 H   0  0  0  0  0  0  0  0  0  0  0  0  # atno 10763 bound_to 10752
  153.8544  135.3089  155.3435 H   0  0  0  0  0  0  0  0  0  0  0  0  # atno 10764 bound_to 10752
  154.7761  135.4913  153.9830 H   0  0  0  0  0  0  0  0  0  0  0  0  # atno 10765 bound_to 10752
  141.1469  133.7959  157.0303 H   0  0  0  0  0  0  0  0  0  0  0  0  # atno 11005 bound_to 11000
  146.3398  140.2384  142.8595 LP  0  0  0  0  0  0  0  0  0  0  0  0  # atno 17320 bound_to 7965
  144.9857  140.8501  143.5370 LP  0  0  0  0  0  0  0  0  0  0  0  0  # atno 17321 bound_to 7965
  140.2688  144.3987  150.6159 LP  0  0  0  0  0  0  0  0  0  0  0  0  # atno 17342 bound_to 10162
  140.6104  143.2169  151.6898 LP  0  0  0  0  0  0  0  0  0  0  0  0  # atno 17343 bound_to 10162
  157.3521  130.7087  149.6447 LP  0  0  0  0  0  0  0  0  0  0  0  0  # atno 17370 bound_to 10713
  155.9678  130.4249  150.4632 LP  0  0  0  0  0  0  0  0  0  0  0  0  # atno 17371 bound_to 10713
  140.0758  134.9676  157.1544 LP  0  0  0  0  0  0  0  0  0  0  0  0  # atno 17394 bound_to 11000
  140.3646  134.2457  155.7183 LP  0  0  0  0  0  0  0  0  0  0  0  0  # atno 17395 bound_to 11000

$$$$
