AV-unprocessed.smi:298|AV-procd|sdf|2263|dock1
  -GOLD-   2262022153D 1   1.00000     0.00000
 Structure written by MMmdl.
 39 41  0  0  0  0  0  0  0  0  2 V2000
  152.9028  143.0791  161.8804 C   0  0  0  0  0  0  0  0  0  0  0  0
  152.4068  142.6507  160.5098 C   0  0  0  0  0  0  0  0  0  0  0  0
  152.7108  141.3457  160.0605 C   0  0  0  0  0  0  0  0  0  0  0  0
  152.2452  140.9837  158.8021 C   0  0  0  0  0  0  0  0  0  0  0  0
  152.3749  139.7920  158.0856 N   0  3  0  0  0  0  0  0  0  0  0  0
  151.7443  139.9130  156.8846 C   0  0  0  0  0  0  0  0  0  0  0  0
  151.2127  141.1643  156.8253 N   0  0  0  0  0  0  0  0  0  0  0  0
  150.4312  141.8106  155.7631 C   0  0  0  0  0  0  0  0  0  0  0  0
  149.5303  140.8215  154.9991 C   0  0  2  0  0  0  0  0  0  0  0  0
  150.3070  140.0969  154.0630 O   0  0  0  0  0  0  0  0  0  0  0  0
  148.3731  141.5370  154.2772 C   0  0  0  0  0  0  0  0  0  0  0  0
  147.3080  141.9251  155.1832 N   0  0  0  0  0  0  0  0  0  0  0  0
  146.1658  142.5812  154.9538 C   0  0  0  0  0  0  0  0  0  0  0  0
  145.4198  142.7598  156.0369 N   0  0  0  0  0  0  0  0  0  0  0  0
  146.2251  142.1456  156.9518 C   0  0  0  0  0  0  0  0  0  0  0  0
  145.8536  142.0610  158.3540 C   0  0  0  0  0  0  0  0  0  0  0  0
  145.5580  141.9935  159.4708 N   0  0  0  0  0  0  0  0  0  0  0  0
  147.3674  141.6282  156.5039 N   0  0  0  0  0  0  0  0  0  0  0  0
  151.5005  141.8684  157.9988 C   0  0  0  0  0  0  0  0  0  0  0  0
  151.1899  143.1567  158.4262 C   0  0  0  0  0  0  0  0  0  0  0  0
  151.6550  143.5443  159.7033 C   0  0  0  0  0  0  0  0  0  0  0  0
  151.3332  144.9447  160.1966 C   0  0  0  0  0  0  0  0  0  0  0  0
  153.4970  142.2963  162.3528 H   0  0  0  0  0  0  0  0  0  0  0  0
  152.0622  143.3022  162.5379 H   0  0  0  0  0  0  0  0  0  0  0  0
  153.5282  143.9687  161.8018 H   0  0  0  0  0  0  0  0  0  0  0  0
  153.2808  140.6596  160.6696 H   0  0  0  0  0  0  0  0  0  0  0  0
  151.6739  139.1527  156.1202 H   0  0  0  0  0  0  0  0  0  0  0  0
  149.8412  142.6125  156.2092 H   0  0  0  0  0  0  0  0  0  0  0  0
  151.1367  142.2877  155.0813 H   0  0  0  0  0  0  0  0  0  0  0  0
  149.1137  140.1020  155.7052 H   0  0  0  0  0  0  0  0  0  0  0  0
  149.7984  139.9799  153.2752 H   0  0  0  0  0  0  0  0  0  0  0  0
  148.7387  142.4341  153.7758 H   0  0  0  0  0  0  0  0  0  0  0  0
  147.9517  140.8959  153.5017 H   0  0  0  0  0  0  0  0  0  0  0  0
  145.8731  142.9325  153.9751 H   0  0  0  0  0  0  0  0  0  0  0  0
  150.6168  143.8355  157.8119 H   0  0  0  0  0  0  0  0  0  0  0  0
  150.7145  145.4874  159.4814 H   0  0  0  0  0  0  0  0  0  0  0  0
  152.2494  145.5162  160.3469 H   0  0  0  0  0  0  0  0  0  0  0  0
  150.7904  144.9043  161.1413 H   0  0  0  0  0  0  0  0  0  0  0  0
  152.8558  138.9558  158.3920 H   0  0  0  0  0  0  0  0  0  0  0  0
  1  2  1  0  0  0  0
  1 23  1  0  0  0  0
  1 24  1  0  0  0  0
  1 25  1  0  0  0  0
  2 21  1  0  0  0  0
  2  3  2  0  0  0  0
  3  4  1  0  0  0  0
  3 26  1  0  0  0  0
  4 19  2  0  0  0  0
  4  5  1  0  0  0  0
  5  6  2  0  0  0  0
  5 39  1  0  0  0  0
  6  7  1  0  0  0  0
  6 27  1  0  0  0  0
  7  8  1  0  0  0  0
  7 19  1  0  0  0  0
  8  9  1  0  0  0  0
  8 28  1  0  0  0  0
  8 29  1  0  0  0  0
  9 10  1  0  0  0  0
  9 11  1  0  0  0  0
  9 30  1  0  0  0  0
 10 31  1  0  0  0  0
 11 12  1  0  0  0  0
 11 32  1  0  0  0  0
 11 33  1  0  0  0  0
 12 18  1  0  0  0  0
 12 13  1  0  0  0  0
 13 14  2  0  0  0  0
 13 34  1  0  0  0  0
 14 15  1  0  0  0  0
 15 16  1  0  0  0  0
 15 18  2  0  0  0  0
 16 17  3  0  0  0  0
 19 20  1  0  0  0  0
 20 21  2  0  0  0  0
 20 35  1  0  0  0  0
 21 22  1  0  0  0  0
 22 36  1  0  0  0  0
 22 37  1  0  0  0  0
 22 38  1  0  0  0  0
M  CHG  1   5   1
M  END
> <s_m_source_file>
AV-unprocessed.smi

> <i_m_source_file_index>
298

> <i_lp_mmshare_version>
43012

> <i_f3d_flags>
0

> <s_epik_input>
W0NIM11jKFtjSF0xKWMoW0NIM10pW2NIXWMoYzEyKW4oW2NIXW4yKVtDSDJdW0NASF0oW09IXSlbQ0gyXW4zW2NIXW5jKG4zKUMjTg==

> <s_epik_cmdline>
J2VwaWtfcHl0aG9uJywgJy1waCcsICc3LjAnLCAnLXRuJywgJzgnLCAnLW1hJywgJzIwMCcsICctbWV0YWxfYmluZGluZycsICctaW1hZScsICc8aW5maWxlLm1hZT4nLCAnLW9tYWUnLCAnPG91dGZpbGUubWFlPic=

> <r_epik_Ionization_Penalty>
1.12076

> <r_epik_Ionization_Penalty_Charging>
1.12075

> <r_epik_Ionization_Penalty_Neutral>
1.54565e-06

> <r_epik_State_Penalty>
1.17957

> <r_epik_Charging_Adjusted_Penalty>
2.30033

> <i_epik_Tot_Q>
1

> <i_epik_Tot_abs_Q>
1

> <r_epik_Metal_State_Penalty>
1.26402

> <b_epik_Metal_Only>
0

> <s_lp_Force_Field>
OPLS_2005

> <r_lp_Energy>
16.3626

> <b_lp_Chiralities_Consistent>
1

> <s_lp_Variant>
AV-unprocessed.smi:298-3

> <Gold.Version>
5.8.1

> <Gold.Id.Protein>
6NUR|6NUR_protein|mol2

> <Gold.PLP.Fitness>
52.1722

> <Gold.PLP.PLP>
-44.9989

> <Gold.PLP.part.hbond>
-2.8010

> <Gold.PLP.part.metal>
0.0000

> <Gold.PLP.part.buried>
-5.6579

> <Gold.PLP.part.nonpolar>
-36.6004

> <Gold.PLP.part.repulsive>
0.3231

> <Gold.PLP.ligand.clash>
0.0000

> <Gold.PLP.ligand.torsion>
0.7065

> <Gold.PLP.Chemscore.Hbond>
2.8535

> <Gold.PLP.Chemscore.CHOScore>
0.0000

> <Gold.PLP.Chemscore.Metal>
0.0000

> <Gold.Chemscore.Hbonds>
donor molecule, donor type, donor heavy atom, donor atom, acceptor molecule, acceptor atom, score
      L1  H    10    31       P1  7957  0.78
      P1  H  6934  6946       L1    17  0.70
      P1  H  7989  7998       L1    10  1.00

> <Gold.PLP.Chemscore.Internal.Correction>
0.0258

> <Gold.Rescore>
     Score         DG    S(hbond)    S(metal)    S(lipo)     H(rot)  DE(clash)    DE(int)     intcor
     16.45     -17.36       2.35        0.00     101.96       3.09       0.18       0.73       ----

> <Gold.Chemscore.Fitness>
16.4486

> <Gold.Chemscore.DG>
-17.3630

> <Gold.Chemscore.ZeroCoef>
-5.4800

> <Gold.Chemscore.Hbond>
2.3540

> <Gold.Chemscore.Metal>
0.0000

> <Gold.Chemscore.Lipo>
101.9585

> <Gold.Chemscore.Internal_Hbond>
0.0000

> <Gold.Chemscore.DEClash>
0.1798

> <Gold.Chemscore.DEInternal>
0.7347

> <Gold.Chemscore.Rot>
3.0892

> <Gold.Chemscore.Internal.Correction>
   9.000000E+99

> <Gold.Chemscore.Hbonds>
donor molecule, donor type, donor heavy atom, donor atom, acceptor molecule, acceptor atom, score
      L1  H    10    31       P1  7957  0.72
      P1  H  6934  6946       L1    17  0.62
      P1  H  7989  7998       L1    10  0.26

> <Gold.Chemscore.Hbond.Weighted>
-7.8623

> <Gold.Chemscore.Metal.Weighted>
-0.0000

> <Gold.Chemscore.Lipo.Weighted>
-11.9292

> <Gold.Chemscore.Internal_Hbond.Weighted>
0.0000

> <Gold.Chemscore.DEClash.Weighted>
0.1798

> <Gold.Chemscore.DEInternal.Weighted>
0.7347

> <Gold.Chemscore.Rot.Weighted>
7.9084

> <Gold.Chemscore.Internal.Correction.Weighted>
   9.000000E+99

> <Gold.Protein.RotatedTorsions>
[ 6907 6896 6895 6894 ] final  116.64 input  -60.11 | X-H torsion
[ 7974 7965 7964 7962 ] final  -30.97 input  175.53 | X-H torsion
[ 8008 7997 7996 7995 ] final -120.26 input   59.86 | X-H torsion
[ 10167 10162 10161 10158 ] final -103.15 input  -65.29 | X-H torsion
[ 10718 10713 10712 10709 ] final  124.96 input   66.30 | X-H torsion
[ 10763 10752 10751 10750 ] final  165.10 input  -60.55 | X-H torsion
[ 11005 11000 10999 10996 ] final  -98.19 input  -57.11 | X-H torsion

> <Gold.Protein.ActiveResidues>
 VAL166  LYS551  ARG553  GLY616  TRP617  ASP618  TYR619  PRO620  LYS621  CYS622 
 ASP623  PHE694  ASN695  SER759  ASP760  ASP761  ALA762  ILE779  LEU786  VAL792 
 PHE793  MET794  SER795  GLU796  ALA797  LYS798  CYS799  TRP800  GLU811  SER814 

> <Gold.Protein.RotatedAtoms>
  152.4665  133.7934  159.6913 H   0  0  0  0  0  0  0  0  0  0  0  0  # atno 6907 bound_to 6896
  150.8632  133.7603  159.2992 H   0  0  0  0  0  0  0  0  0  0  0  0  # atno 6908 bound_to 6896
  151.5162  135.1069  159.9918 H   0  0  0  0  0  0  0  0  0  0  0  0  # atno 6909 bound_to 6896
  146.1103  140.5608  142.8781 H   0  0  0  0  0  0  0  0  0  0  0  0  # atno 7974 bound_to 7965
  155.1290  140.0400  157.2770 H   0  0  0  0  0  0  0  0  0  0  0  0  # atno 8008 bound_to 7997
  154.6556  140.2579  155.7139 H   0  0  0  0  0  0  0  0  0  0  0  0  # atno 8009 bound_to 7997
  156.2597  140.2827  156.1008 H   0  0  0  0  0  0  0  0  0  0  0  0  # atno 8010 bound_to 7997
  140.2231  143.3661  152.0952 H   0  0  0  0  0  0  0  0  0  0  0  0  # atno 10167 bound_to 10162
  157.5542  131.1093  150.8650 H   0  0  0  0  0  0  0  0  0  0  0  0  # atno 10718 bound_to 10713
  154.3189  135.2756  155.2529 H   0  0  0  0  0  0  0  0  0  0  0  0  # atno 10763 bound_to 10752
  154.4891  135.5838  153.6449 H   0  0  0  0  0  0  0  0  0  0  0  0  # atno 10764 bound_to 10752
  152.9879  135.6130  154.3372 H   0  0  0  0  0  0  0  0  0  0  0  0  # atno 10765 bound_to 10752
  141.1353  133.8227  157.0806 H   0  0  0  0  0  0  0  0  0  0  0  0  # atno 11005 bound_to 11000
  144.7505  140.5180  143.6805 LP  0  0  0  0  0  0  0  0  0  0  0  0  # atno 17320 bound_to 7965
  145.5678  139.1482  143.3305 LP  0  0  0  0  0  0  0  0  0  0  0  0  # atno 17321 bound_to 7965
  139.5137  144.6936  151.5691 LP  0  0  0  0  0  0  0  0  0  0  0  0  # atno 17342 bound_to 10162
  140.6240  143.9203  150.6549 LP  0  0  0  0  0  0  0  0  0  0  0  0  # atno 17343 bound_to 10162
  156.9166  130.5300  149.5279 LP  0  0  0  0  0  0  0  0  0  0  0  0  # atno 17370 bound_to 10713
  156.0603  130.5657  150.9179 LP  0  0  0  0  0  0  0  0  0  0  0  0  # atno 17371 bound_to 10713
  140.0454  134.9833  157.1038 LP  0  0  0  0  0  0  0  0  0  0  0  0  # atno 17394 bound_to 11000
  140.4071  134.2020  155.7163 LP  0  0  0  0  0  0  0  0  0  0  0  0  # atno 17395 bound_to 11000

$$$$
