AV-unprocessed.smi:2756|AV-procd|sdf|10618|dock8
  -GOLD-   2272015 63D 1   1.00000     0.00000
 Structure written by MMmdl.
 19 19  0  0  0  0  0  0  0  0  3 V2000
  149.7899  142.2324  156.8314 N   0  0  0  0  0  0  0  0  0  0  0  0
  150.8873  142.7086  157.5491 C   0  0  0  0  0  0  0  0  0  0  0  0
  151.2238  144.0067  157.3788 N   0  3  0  0  0  0  0  0  0  0  0  0
  152.2574  144.5924  158.0213 C   0  0  0  0  0  0  0  0  0  0  0  0
  153.0414  143.8401  158.9173 C   0  0  0  0  0  0  0  0  0  0  0  0
  152.7298  142.4813  159.1250 C   0  0  0  0  0  0  0  0  0  0  0  0
  151.6424  141.8992  158.4350 C   0  0  0  0  0  0  0  0  0  0  0  0
  151.3110  140.4301  158.6606 C   0  0  0  0  0  0  0  0  0  0  0  0
  152.5363  139.6031  158.2711 C   0  0  0  0  0  0  0  0  0  0  0  0
  152.8647  139.6099  157.0645 O   0  0  0  0  0  0  0  0  0  0  0  0
  153.1116  138.9702  159.1830 O   0  5  0  0  0  0  0  0  0  0  0  0
  149.4925  141.2709  156.9239 H   0  0  0  0  0  0  0  0  0  0  0  0
  149.1512  142.8625  156.3685 H   0  0  0  0  0  0  0  0  0  0  0  0
  152.4224  145.6373  157.8030 H   0  0  0  0  0  0  0  0  0  0  0  0
  153.8685  144.2978  159.4396 H   0  0  0  0  0  0  0  0  0  0  0  0
  153.3194  141.8921  159.8121 H   0  0  0  0  0  0  0  0  0  0  0  0
  151.0357  140.2479  159.7000 H   0  0  0  0  0  0  0  0  0  0  0  0
  150.4575  140.1334  158.0496 H   0  0  0  0  0  0  0  0  0  0  0  0
  150.6679  144.5735  156.7383 H   0  0  0  0  0  0  0  0  0  0  0  0
  1  2  1  0  0  0  0
  1 12  1  0  0  0  0
  1 13  1  0  0  0  0
  2  7  1  0  0  0  0
  2  3  2  0  0  0  0
  3  4  1  0  0  0  0
  3 19  1  0  0  0  0
  4  5  2  0  0  0  0
  4 14  1  0  0  0  0
  5  6  1  0  0  0  0
  5 15  1  0  0  0  0
  6  7  2  0  0  0  0
  6 16  1  0  0  0  0
  7  8  1  0  0  0  0
  8  9  1  0  0  0  0
  8 17  1  0  0  0  0
  8 18  1  0  0  0  0
  9 10  2  0  0  0  0
  9 11  1  0  0  0  0
M  CHG  1   3   1
M  CHG  1  11  -1
M  END
> <s_m_source_file>
AV-unprocessed.smi

> <i_m_source_file_index>
2756

> <i_lp_mmshare_version>
43012

> <i_f3d_flags>
0

> <s_epik_input>
W05IMl1jMW5bY0hdW2NIXVtjSF1jMVtDSDJdQyg9TylbT0hd

> <s_epik_cmdline>
J2VwaWtfcHl0aG9uJywgJy1waCcsICc3LjAnLCAnLXRuJywgJzgnLCAnLW1hJywgJzIwMCcsICctbWV0YWxfYmluZGluZycsICctaW1hZScsICc8aW5maWxlLm1hZT4nLCAnLW9tYWUnLCAnPG91dGZpbGUubWFlPic=

> <r_lp_tautomer_probability>
0.999994

> <r_epik_Ionization_Penalty>
0.0994946

> <r_epik_Ionization_Penalty_Charging>
0.0994944

> <r_epik_Ionization_Penalty_Neutral>
2.48807e-07

> <r_epik_State_Penalty>
0.0891183

> <r_epik_Charging_Adjusted_Penalty>
0.188613

> <i_epik_Tot_Q>
0

> <i_epik_Tot_abs_Q>
2

> <r_epik_Metal_State_Penalty>
3.01912

> <b_epik_Metal_Only>
0

> <s_lp_Force_Field>
OPLS_2005

> <r_lp_Energy>
1.50311

> <b_lp_Chiralities_Consistent>
1

> <s_lp_Variant>
AV-unprocessed.smi:2756-1

> <Gold.Version>
5.8.1

> <Gold.Id.Protein>
6NUR|6NUR_protein|mol2

> <Gold.PLP.Fitness>
41.9859

> <Gold.PLP.PLP>
-24.9123

> <Gold.PLP.part.hbond>
-3.0000

> <Gold.PLP.part.metal>
0.0000

> <Gold.PLP.part.buried>
-3.8210

> <Gold.PLP.part.nonpolar>
-18.5047

> <Gold.PLP.part.repulsive>
0.0427

> <Gold.PLP.ligand.clash>
0.0000

> <Gold.PLP.ligand.torsion>
0.0315

> <Gold.PLP.Chemscore.Hbond>
5.7120

> <Gold.PLP.Chemscore.CHOScore>
0.0000

> <Gold.PLP.Chemscore.Metal>
0.0000

> <Gold.Chemscore.Hbonds>
donor molecule, donor type, donor heavy atom, donor atom, acceptor molecule, acceptor atom, score
      L1  H     1    13       P1  8028  1.82
      L1  H     3    19       P1  8028  1.78
      P1  H  7997  8008       L1    10  2.00

> <Gold.PLP.Chemscore.Internal.Correction>
0.0007

> <Gold.Rescore>
     Score         DG    S(hbond)    S(metal)    S(lipo)     H(rot)  DE(clash)    DE(int)     intcor
     16.89     -16.93       2.73        0.00      54.70       1.58       0.00       0.04       ----

> <Gold.Chemscore.Fitness>
16.8891

> <Gold.Chemscore.DG>
-16.9319

> <Gold.Chemscore.ZeroCoef>
-5.4800

> <Gold.Chemscore.Hbond>
2.7267

> <Gold.Chemscore.Metal>
0.0000

> <Gold.Chemscore.Lipo>
54.7033

> <Gold.Chemscore.Internal_Hbond>
0.0000

> <Gold.Chemscore.DEClash>
0.0038

> <Gold.Chemscore.DEInternal>
0.0390

> <Gold.Chemscore.Rot>
1.5841

> <Gold.Chemscore.Internal.Correction>
   9.000000E+99

> <Gold.Chemscore.Hbonds>
donor molecule, donor type, donor heavy atom, donor atom, acceptor molecule, acceptor atom, score
      L1  H     1    13       P1  8028  0.86
      L1  H     3    19       P1  8028  0.77
      P1  H  7997  8008       L1    10  0.99

> <Gold.Chemscore.Hbond.Weighted>
-9.1070

> <Gold.Chemscore.Metal.Weighted>
-0.0000

> <Gold.Chemscore.Lipo.Weighted>
-6.4003

> <Gold.Chemscore.Internal_Hbond.Weighted>
0.0000

> <Gold.Chemscore.DEClash.Weighted>
0.0038

> <Gold.Chemscore.DEInternal.Weighted>
0.0390

> <Gold.Chemscore.Rot.Weighted>
4.0554

> <Gold.Chemscore.Internal.Correction.Weighted>
   9.000000E+99

> <Gold.Protein.RotatedTorsions>
[ 6907 6896 6895 6894 ] final   58.73 input  -60.11 | X-H torsion
[ 7974 7965 7964 7962 ] final  174.73 input  175.53 | X-H torsion
[ 8008 7997 7996 7995 ] final  -56.01 input   59.86 | X-H torsion
[ 10167 10162 10161 10158 ] final   90.03 input  -65.29 | X-H torsion
[ 10718 10713 10712 10709 ] final  -99.13 input   66.30 | X-H torsion
[ 10763 10752 10751 10750 ] final  -20.73 input  -60.55 | X-H torsion
[ 11005 11000 10999 10996 ] final  -30.88 input  -57.11 | X-H torsion

> <Gold.Protein.ActiveResidues>
 VAL166  LYS551  ARG553  GLY616  TRP617  ASP618  TYR619  PRO620  LYS621  CYS622 
 ASP623  PHE694  ASN695  SER759  ASP760  ASP761  ALA762  ILE779  LEU786  VAL792 
 PHE793  MET794  SER795  GLU796  ALA797  LYS798  CYS799  TRP800  GLU811  SER814 

> <Gold.Protein.RotatedAtoms>
  152.3850  134.6531  160.0128 H   0  0  0  0  0  0  0  0  0  0  0  0  # atno 6907 bound_to 6896
  151.6782  133.3307  159.3221 H   0  0  0  0  0  0  0  0  0  0  0  0  # atno 6908 bound_to 6896
  150.7778  134.6740  159.6452 H   0  0  0  0  0  0  0  0  0  0  0  0  # atno 6909 bound_to 6896
  144.7216  139.9840  143.6439 H   0  0  0  0  0  0  0  0  0  0  0  0  # atno 7974 bound_to 7965
  154.4215  140.1139  156.5569 H   0  0  0  0  0  0  0  0  0  0  0  0  # atno 8008 bound_to 7997
  155.6352  140.3496  155.4677 H   0  0  0  0  0  0  0  0  0  0  0  0  # atno 8009 bound_to 7997
  155.9916  140.1180  157.0622 H   0  0  0  0  0  0  0  0  0  0  0  0  # atno 8010 bound_to 7997
  139.8513  144.6592  150.9166 H   0  0  0  0  0  0  0  0  0  0  0  0  # atno 10167 bound_to 10162
  156.0126  130.5269  150.6625 H   0  0  0  0  0  0  0  0  0  0  0  0  # atno 10718 bound_to 10713
  153.6250  135.6991  153.5296 H   0  0  0  0  0  0  0  0  0  0  0  0  # atno 10763 bound_to 10752
  153.2906  135.4158  155.1163 H   0  0  0  0  0  0  0  0  0  0  0  0  # atno 10764 bound_to 10752
  154.8535  135.3624  154.5791 H   0  0  0  0  0  0  0  0  0  0  0  0  # atno 10765 bound_to 10752
  140.9420  133.7273  156.1090 H   0  0  0  0  0  0  0  0  0  0  0  0  # atno 11005 bound_to 11000
  146.0465  139.3470  143.0665 LP  0  0  0  0  0  0  0  0  0  0  0  0  # atno 17320 bound_to 7965
  145.8269  140.9650  143.0869 LP  0  0  0  0  0  0  0  0  0  0  0  0  # atno 17321 bound_to 7965
  140.7787  143.3825  151.1452 LP  0  0  0  0  0  0  0  0  0  0  0  0  # atno 17342 bound_to 10162
  139.7462  143.8848  152.3064 LP  0  0  0  0  0  0  0  0  0  0  0  0  # atno 17343 bound_to 10162
  157.4364  131.0856  151.0987 LP  0  0  0  0  0  0  0  0  0  0  0  0  # atno 17370 bound_to 10713
  157.1544  130.6198  149.5592 LP  0  0  0  0  0  0  0  0  0  0  0  0  # atno 17371 bound_to 10713
  140.7721  134.3821  157.5505 LP  0  0  0  0  0  0  0  0  0  0  0  0  # atno 17394 bound_to 11000
  139.8823  134.9028  156.2841 LP  0  0  0  0  0  0  0  0  0  0  0  0  # atno 17395 bound_to 11000

$$$$
