AV-unprocessed.smi:2377|AV-procd|sdf|9447|dock6
  -GOLD-   2272013 73D 1   1.00000     0.00000
 Structure written by MMmdl.
 23 23  0  0  0  0  0  0  0  0  1 V2000
  146.0036  138.7603  151.6770 C   0  0  0  0  0  0  0  0  0  0  0  0
  144.7311  138.0511  151.7194 N   0  0  0  0  0  0  0  0  0  0  0  0
  144.8782  136.6183  151.9624 C   0  0  0  0  0  0  0  0  0  0  0  0
  145.8106  135.9606  150.9293 C   0  0  2  0  0  0  0  0  0  0  0  0
  145.2761  136.1728  149.6371 O   0  0  0  0  0  0  0  0  0  0  0  0
  145.9818  134.4782  151.2192 C   0  0  0  0  0  0  0  0  0  0  0  0
  144.9943  133.5383  150.8509 C   0  0  0  0  0  0  0  0  0  0  0  0
  145.2008  132.1789  151.1543 C   0  0  0  0  0  0  0  0  0  0  0  0
  146.3887  131.8130  151.8176 C   0  0  0  0  0  0  0  0  0  0  0  0
  147.3394  132.7012  152.1785 N   0  0  0  0  0  0  0  0  0  0  0  0
  147.1333  134.0029  151.8838 C   0  0  0  0  0  0  0  0  0  0  0  0
  145.8447  139.8253  151.5080 H   0  0  0  0  0  0  0  0  0  0  0  0
  146.6357  138.3845  150.8719 H   0  0  0  0  0  0  0  0  0  0  0  0
  146.5466  138.6484  152.6160 H   0  0  0  0  0  0  0  0  0  0  0  0
  144.2306  138.1958  150.8484 H   0  0  0  0  0  0  0  0  0  0  0  0
  145.3027  136.4741  152.9570 H   0  0  0  0  0  0  0  0  0  0  0  0
  143.9050  136.1253  151.9670 H   0  0  0  0  0  0  0  0  0  0  0  0
  146.7917  136.4366  150.9670 H   0  0  0  0  0  0  0  0  0  0  0  0
  145.7659  135.6510  149.0201 H   0  0  0  0  0  0  0  0  0  0  0  0
  144.0920  133.8522  150.3466 H   0  0  0  0  0  0  0  0  0  0  0  0
  144.4657  131.4344  150.8864 H   0  0  0  0  0  0  0  0  0  0  0  0
  146.5793  130.7795  152.0663 H   0  0  0  0  0  0  0  0  0  0  0  0
  147.9129  134.6851  152.1901 H   0  0  0  0  0  0  0  0  0  0  0  0
  1  2  1  0  0  0  0
  1 12  1  0  0  0  0
  1 13  1  0  0  0  0
  1 14  1  0  0  0  0
  2  3  1  0  0  0  0
  2 15  1  0  0  0  0
  3  4  1  0  0  0  0
  3 16  1  0  0  0  0
  3 17  1  0  0  0  0
  4  5  1  0  0  0  0
  4  6  1  0  0  0  0
  4 18  1  0  0  0  0
  5 19  1  0  0  0  0
  6 11  1  0  0  0  0
  6  7  2  0  0  0  0
  7  8  1  0  0  0  0
  7 20  1  0  0  0  0
  8  9  2  0  0  0  0
  8 21  1  0  0  0  0
  9 10  1  0  0  0  0
  9 22  1  0  0  0  0
 10 11  2  0  0  0  0
 11 23  1  0  0  0  0
M  END
> <s_m_source_file>
AV-unprocessed.smi

> <i_m_source_file_index>
2377

> <i_lp_mmshare_version>
43012

> <i_f3d_flags>
0

> <s_epik_input>
W0NIM11bTkhdW0NIMl1bQ0BIXShbT0hdKWMxW2NIXVtjSF1bY0hdbltjSF0x

> <s_epik_cmdline>
J2VwaWtfcHl0aG9uJywgJy1waCcsICc3LjAnLCAnLXRuJywgJzgnLCAnLW1hJywgJzIwMCcsICctbWV0YWxfYmluZGluZycsICctaW1hZScsICc8aW5maWxlLm1hZT4nLCAnLW9tYWUnLCAnPG91dGZpbGUubWFlPic=

> <r_epik_Ionization_Penalty>
2.4626

> <r_epik_Ionization_Penalty_Charging>
0

> <r_epik_Ionization_Penalty_Neutral>
2.4626

> <r_epik_State_Penalty>
2.6219

> <r_epik_Charging_Adjusted_Penalty>
2.6219

> <i_epik_Tot_Q>
0

> <i_epik_Tot_abs_Q>
0

> <r_epik_Metal_State_Penalty>
2.61964

> <b_epik_Metal_Only>
0

> <s_lp_Force_Field>
OPLS_2005

> <r_lp_Energy>
11.5551

> <b_lp_Chiralities_Consistent>
1

> <s_lp_Variant>
AV-unprocessed.smi:2377-3

> <Gold.Version>
5.8.1

> <Gold.Id.Protein>
6NUR|6NUR_protein|mol2

> <Gold.PLP.Fitness>
34.7614

> <Gold.PLP.PLP>
-26.8773

> <Gold.PLP.part.hbond>
-3.8375

> <Gold.PLP.part.metal>
0.0000

> <Gold.PLP.part.buried>
-4.6430

> <Gold.PLP.part.nonpolar>
-19.2349

> <Gold.PLP.part.repulsive>
0.1327

> <Gold.PLP.ligand.clash>
0.0000

> <Gold.PLP.ligand.torsion>
0.5322

> <Gold.PLP.Chemscore.Hbond>
2.0000

> <Gold.PLP.Chemscore.CHOScore>
0.9815

> <Gold.PLP.Chemscore.Metal>
0.0000

> <Gold.Chemscore.Hbonds>
donor molecule, donor type, donor heavy atom, donor atom, acceptor molecule, acceptor atom, score
      L1  H     2    15       P1 10171  0.08
      L1  H     5    19       P1  7921  1.00
      L1  C    11    23       P1  7948  0.53

> <Gold.PLP.Chemscore.Internal.Correction>
0.0039

> <Gold.Rescore>
     Score         DG    S(hbond)    S(metal)    S(lipo)     H(rot)  DE(clash)    DE(int)     intcor
     13.56     -14.24       2.00        0.00      60.14       1.94       0.04       0.64       ----

> <Gold.Chemscore.Fitness>
13.5625

> <Gold.Chemscore.DG>
-14.2356

> <Gold.Chemscore.ZeroCoef>
-5.4800

> <Gold.Chemscore.Hbond>
1.9988

> <Gold.Chemscore.Metal>
0.0000

> <Gold.Chemscore.Lipo>
60.1418

> <Gold.Chemscore.Internal_Hbond>
0.0000

> <Gold.Chemscore.DEClash>
0.0351

> <Gold.Chemscore.DEInternal>
0.6381

> <Gold.Chemscore.Rot>
1.9363

> <Gold.Chemscore.Internal.Correction>
   9.000000E+99

> <Gold.Chemscore.Hbonds>
donor molecule, donor type, donor heavy atom, donor atom, acceptor molecule, acceptor atom, score
      L1  H     2    15       P1 10171  0.11
      L1  H     5    19       P1  7921  0.99

> <Gold.Chemscore.Hbond.Weighted>
-6.6760

> <Gold.Chemscore.Metal.Weighted>
-0.0000

> <Gold.Chemscore.Lipo.Weighted>
-7.0366

> <Gold.Chemscore.Internal_Hbond.Weighted>
0.0000

> <Gold.Chemscore.DEClash.Weighted>
0.0351

> <Gold.Chemscore.DEInternal.Weighted>
0.6381

> <Gold.Chemscore.Rot.Weighted>
4.9570

> <Gold.Chemscore.Internal.Correction.Weighted>
   9.000000E+99

> <Gold.Protein.RotatedTorsions>
[ 6907 6896 6895 6894 ] final -128.25 input  -60.11 | X-H torsion
[ 7974 7965 7964 7962 ] final  -65.56 input  175.53 | X-H torsion
[ 8008 7997 7996 7995 ] final  172.07 input   59.86 | X-H torsion
[ 10167 10162 10161 10158 ] final  159.48 input  -65.29 | X-H torsion
[ 10718 10713 10712 10709 ] final   -8.38 input   66.30 | X-H torsion
[ 10763 10752 10751 10750 ] final  -16.83 input  -60.55 | X-H torsion
[ 11005 11000 10999 10996 ] final -144.89 input  -57.11 | X-H torsion

> <Gold.Protein.ActiveResidues>
 VAL166  LYS551  ARG553  GLY616  TRP617  ASP618  TYR619  PRO620  LYS621  CYS622 
 ASP623  PHE694  ASN695  SER759  ASP760  ASP761  ALA762  ILE779  LEU786  VAL792 
 PHE793  MET794  SER795  GLU796  ALA797  LYS798  CYS799  TRP800  GLU811  SER814 

> <Gold.Protein.RotatedAtoms>
  150.9159  133.6940  159.2843 H   0  0  0  0  0  0  0  0  0  0  0  0  # atno 6907 bound_to 6896
  151.4411  135.1019  159.9680 H   0  0  0  0  0  0  0  0  0  0  0  0  # atno 6908 bound_to 6896
  152.4954  133.8567  159.7284 H   0  0  0  0  0  0  0  0  0  0  0  0  # atno 6909 bound_to 6896
  145.7527  140.8900  143.0471 H   0  0  0  0  0  0  0  0  0  0  0  0  # atno 7974 bound_to 7965
  156.1210  140.1495  156.9204 H   0  0  0  0  0  0  0  0  0  0  0  0  # atno 8008 bound_to 7997
  154.4836  140.0872  156.7476 H   0  0  0  0  0  0  0  0  0  0  0  0  # atno 8009 bound_to 7997
  155.4428  140.3431  155.4294 H   0  0  0  0  0  0  0  0  0  0  0  0  # atno 8010 bound_to 7997
  139.4833  144.4726  151.8555 H   0  0  0  0  0  0  0  0  0  0  0  0  # atno 10167 bound_to 10162
  156.7034  130.5100  149.5911 H   0  0  0  0  0  0  0  0  0  0  0  0  # atno 10718 bound_to 10713
  153.5645  135.7009  153.5532 H   0  0  0  0  0  0  0  0  0  0  0  0  # atno 10763 bound_to 10752
  153.3399  135.4024  155.1563 H   0  0  0  0  0  0  0  0  0  0  0  0  # atno 10764 bound_to 10752
  154.8643  135.3739  154.5164 H   0  0  0  0  0  0  0  0  0  0  0  0  # atno 10765 bound_to 10752
  140.7978  134.2892  157.4990 H   0  0  0  0  0  0  0  0  0  0  0  0  # atno 11005 bound_to 11000
  144.6846  139.9614  143.7480 LP  0  0  0  0  0  0  0  0  0  0  0  0  # atno 17320 bound_to 7965
  146.0341  139.3361  143.0737 LP  0  0  0  0  0  0  0  0  0  0  0  0  # atno 17321 bound_to 7965
  140.4196  144.2261  150.5887 LP  0  0  0  0  0  0  0  0  0  0  0  0  # atno 17342 bound_to 10162
  140.4887  143.2354  151.8850 LP  0  0  0  0  0  0  0  0  0  0  0  0  # atno 17343 bound_to 10162
  156.1712  130.6438  151.0840 LP  0  0  0  0  0  0  0  0  0  0  0  0  # atno 17370 bound_to 10713
  157.6964  131.0792  150.6955 LP  0  0  0  0  0  0  0  0  0  0  0  0  # atno 17371 bound_to 10713
  139.8724  134.9412  156.3790 LP  0  0  0  0  0  0  0  0  0  0  0  0  # atno 17394 bound_to 11000
  140.9325  133.7569  156.0042 LP  0  0  0  0  0  0  0  0  0  0  0  0  # atno 17395 bound_to 11000

$$$$
