AV-unprocessed.smi:1128|AV-procd|sdf|4844|dock6
  -GOLD-   22720 3413D 1   1.00000     0.00000
 Structure written by MMmdl.
 37 38  0  0  0  0  0  0  0  0  2 V2000
  150.3350  136.3236  158.5483 O   0  0  0  0  0  0  0  0  0  0  0  0
  149.7556  137.2958  159.0312 C   0  0  0  0  0  0  0  0  0  0  0  0
  150.0556  138.5629  158.7106 N   0  0  0  0  0  0  0  0  0  0  0  0
  151.0932  138.9837  157.7728 C   0  0  0  0  0  0  0  0  0  0  0  0
  151.8554  140.2308  158.2657 C   0  0  2  0  0  0  0  0  0  0  0  0
  152.5552  140.0040  159.6272 C   0  0  0  0  0  0  0  0  0  0  0  0
  153.0603  141.2929  160.2506 C   0  0  0  0  0  0  0  0  0  0  0  0
  152.6779  142.5136  159.8405 C   0  0  0  0  0  0  0  0  0  0  0  0
  151.6901  142.7414  158.7118 C   0  0  0  0  0  0  0  0  0  0  0  0
  150.9254  141.4576  158.3386 C   0  0  0  0  0  0  0  0  0  0  0  0
  148.7595  137.2599  159.9354 N   0  0  0  0  0  0  0  0  0  0  0  0
  148.1337  136.1620  160.5532 C   0  0  0  0  0  0  0  0  0  0  0  0
  148.4608  134.8544  160.3540 C   0  0  0  0  0  0  0  0  0  0  0  0
  147.7690  133.7645  161.0314 C   0  0  0  0  0  0  0  0  0  0  0  0
  148.0545  132.2955  160.7736 C   0  0  0  0  0  0  0  0  0  0  0  0
  146.9827  131.6779  160.2763 F   0  0  0  0  0  0  0  0  0  0  0  0
  149.0614  132.1484  159.9123 F   0  0  0  0  0  0  0  0  0  0  0  0
  148.3901  131.6919  161.9128 F   0  0  0  0  0  0  0  0  0  0  0  0
  146.7545  134.2167  161.8523 C   0  0  0  0  0  0  0  0  0  0  0  0
  146.3747  135.4861  162.1142 N   0  5  0  0  0  0  0  0  0  0  0  0
  147.0343  136.4978  161.4827 C   0  0  0  0  0  0  0  0  0  0  0  0
  146.7333  137.6772  161.6715 O   0  0  0  0  0  0  0  0  0  0  0  0
  149.5265  139.2976  159.1573 H   0  0  0  0  0  0  0  0  0  0  0  0
  151.7873  138.1497  157.6657 H   0  0  0  0  0  0  0  0  0  0  0  0
  150.6790  139.1596  156.7784 H   0  0  0  0  0  0  0  0  0  0  0  0
  152.6279  140.4577  157.5288 H   0  0  0  0  0  0  0  0  0  0  0  0
  151.8700  139.5367  160.3353 H   0  0  0  0  0  0  0  0  0  0  0  0
  153.3986  139.3236  159.5070 H   0  0  0  0  0  0  0  0  0  0  0  0
  153.7558  141.1960  161.0712 H   0  0  0  0  0  0  0  0  0  0  0  0
  153.0877  143.3931  160.3155 H   0  0  0  0  0  0  0  0  0  0  0  0
  150.9857  143.5214  159.0017 H   0  0  0  0  0  0  0  0  0  0  0  0
  152.2424  143.1165  157.8499 H   0  0  0  0  0  0  0  0  0  0  0  0
  150.4128  141.6063  157.3876 H   0  0  0  0  0  0  0  0  0  0  0  0
  150.1466  141.2727  159.0798 H   0  0  0  0  0  0  0  0  0  0  0  0
  148.4056  138.1548  160.2407 H   0  0  0  0  0  0  0  0  0  0  0  0
  149.2500  134.5729  159.6783 H   0  0  0  0  0  0  0  0  0  0  0  0
  146.1546  133.4411  162.3747 H   0  0  0  0  0  0  0  0  0  0  0  0
  1  2  2  0  0  0  0
  2  3  1  0  0  0  0
  2 11  1  0  0  0  0
  3  4  1  0  0  0  0
  3 23  1  0  0  0  0
  4  5  1  0  0  0  0
  4 24  1  0  0  0  0
  4 25  1  0  0  0  0
  5 10  1  0  0  0  0
  5  6  1  0  0  0  0
  5 26  1  0  0  0  0
  6  7  1  0  0  0  0
  6 27  1  0  0  0  0
  6 28  1  0  0  0  0
  7  8  2  0  0  0  0
  7 29  1  0  0  0  0
  8  9  1  0  0  0  0
  8 30  1  0  0  0  0
  9 10  1  0  0  0  0
  9 31  1  0  0  0  0
  9 32  1  0  0  0  0
 10 33  1  0  0  0  0
 10 34  1  0  0  0  0
 11 12  1  0  0  0  0
 11 35  1  0  0  0  0
 12 21  1  0  0  0  0
 12 13  2  0  0  0  0
 13 14  1  0  0  0  0
 13 36  1  0  0  0  0
 14 15  1  0  0  0  0
 14 19  2  0  0  0  0
 15 16  1  0  0  0  0
 15 17  1  0  0  0  0
 15 18  1  0  0  0  0
 19 20  1  0  0  0  0
 19 37  1  0  0  0  0
 20 21  1  0  0  0  0
 21 22  2  0  0  0  0
M  CHG  1  20  -1
M  END
> <s_m_source_file>
AV-unprocessed.smi

> <i_m_source_file_index>
1128

> <i_lp_mmshare_version>
43012

> <i_f3d_flags>
0

> <s_epik_input>
Tz1jMVtuSF1bY0hdYyhDKEYpKEYpRilbY0hdYzFbTkhdQyg9TylbTkhdW0NIMl1bQ0BASF0yW0NIMl1bQ0hdPVtDSF1bQ0gyXVtDSDJdMg==

> <s_epik_cmdline>
J2VwaWtfcHl0aG9uJywgJy1waCcsICc3LjAnLCAnLXRuJywgJzgnLCAnLW1hJywgJzIwMCcsICctbWV0YWxfYmluZGluZycsICctaW1hZScsICc8aW5maWxlLm1hZT4nLCAnLW9tYWUnLCAnPG91dGZpbGUubWFlPic=

> <r_lp_tautomer_probability>
1

> <r_epik_Ionization_Penalty>
3.16664

> <r_epik_Ionization_Penalty_Charging>
0.172425

> <r_epik_Ionization_Penalty_Neutral>
2.99422

> <r_epik_State_Penalty>
2.99038

> <r_epik_Charging_Adjusted_Penalty>
3.16281

> <i_epik_Tot_Q>
-1

> <i_epik_Tot_abs_Q>
1

> <r_epik_Metal_State_Penalty>
0.453031

> <b_epik_Metal_Only>
1

> <s_lp_Force_Field>
OPLS_2005

> <r_lp_Energy>
22.3955

> <b_lp_Chiralities_Consistent>
1

> <s_lp_Variant>
AV-unprocessed.smi:1128-3

> <Gold.Version>
5.8.1

> <Gold.Id.Protein>
6NUR|6NUR_protein|mol2

> <Gold.PLP.Fitness>
42.8917

> <Gold.PLP.PLP>
-36.2501

> <Gold.PLP.part.hbond>
-3.0000

> <Gold.PLP.part.metal>
0.0000

> <Gold.PLP.part.buried>
-4.8078

> <Gold.PLP.part.nonpolar>
-29.3855

> <Gold.PLP.part.repulsive>
2.1141

> <Gold.PLP.ligand.clash>
0.0000

> <Gold.PLP.ligand.torsion>
0.1719

> <Gold.PLP.Chemscore.Hbond>
2.3033

> <Gold.PLP.Chemscore.CHOScore>
0.0000

> <Gold.PLP.Chemscore.Metal>
0.0000

> <Gold.Chemscore.Hbonds>
donor molecule, donor type, donor heavy atom, donor atom, acceptor molecule, acceptor atom, score
      P1  H  6896  6908       L1     1  0.96
      P1  H  6931  6943       L1    22  0.05
      P1  H  6934  6947       L1    22  0.91

> <Gold.PLP.Chemscore.Internal.Correction>
0.0756

> <Gold.Rescore>
     Score         DG    S(hbond)    S(metal)    S(lipo)     H(rot)  DE(clash)    DE(int)     intcor
     14.93     -17.12       1.62        0.00      81.45       1.29       0.87       1.31       ----

> <Gold.Chemscore.Fitness>
14.9342

> <Gold.Chemscore.DG>
-17.1176

> <Gold.Chemscore.ZeroCoef>
-5.4800

> <Gold.Chemscore.Hbond>
1.6232

> <Gold.Chemscore.Metal>
0.0000

> <Gold.Chemscore.Lipo>
81.4487

> <Gold.Chemscore.Internal_Hbond>
0.0000

> <Gold.Chemscore.DEClash>
0.8711

> <Gold.Chemscore.DEInternal>
1.3123

> <Gold.Chemscore.Rot>
1.2943

> <Gold.Chemscore.Internal.Correction>
   9.000000E+99

> <Gold.Chemscore.Hbonds>
donor molecule, donor type, donor heavy atom, donor atom, acceptor molecule, acceptor atom, score
      P1  H  6896  6908       L1     1  0.90
      P1  H  6934  6947       L1    22  0.88

> <Gold.Chemscore.Hbond.Weighted>
-5.4214

> <Gold.Chemscore.Metal.Weighted>
-0.0000

> <Gold.Chemscore.Lipo.Weighted>
-9.5295

> <Gold.Chemscore.Internal_Hbond.Weighted>
0.0000

> <Gold.Chemscore.DEClash.Weighted>
0.8711

> <Gold.Chemscore.DEInternal.Weighted>
1.3123

> <Gold.Chemscore.Rot.Weighted>
3.3133

> <Gold.Chemscore.Internal.Correction.Weighted>
   9.000000E+99

> <Gold.Protein.RotatedTorsions>
[ 6907 6896 6895 6894 ] final -174.57 input  -60.11 | X-H torsion
[ 7974 7965 7964 7962 ] final  -19.21 input  175.53 | X-H torsion
[ 8008 7997 7996 7995 ] final   29.62 input   59.86 | X-H torsion
[ 10167 10162 10161 10158 ] final  -36.56 input  -65.29 | X-H torsion
[ 10718 10713 10712 10709 ] final   56.37 input   66.30 | X-H torsion
[ 10763 10752 10751 10750 ] final  -77.78 input  -60.55 | X-H torsion
[ 11005 11000 10999 10996 ] final   12.38 input  -57.11 | X-H torsion

> <Gold.Protein.ActiveResidues>
 VAL166  LYS551  ARG553  GLY616  TRP617  ASP618  TYR619  PRO620  LYS621  CYS622 
 ASP623  PHE694  ASN695  SER759  ASP760  ASP761  ALA762  ILE779  LEU786  VAL792 
 PHE793  MET794  SER795  GLU796  ALA797  LYS798  CYS799  TRP800  GLU811  SER814 

> <Gold.Protein.RotatedAtoms>
  151.5745  133.3385  159.2995 H   0  0  0  0  0  0  0  0  0  0  0  0  # atno 6907 bound_to 6896
  150.8348  134.7620  159.6895 H   0  0  0  0  0  0  0  0  0  0  0  0  # atno 6908 bound_to 6896
  152.4426  134.5566  159.9934 H   0  0  0  0  0  0  0  0  0  0  0  0  # atno 6909 bound_to 6896
  146.1853  140.4030  142.8479 H   0  0  0  0  0  0  0  0  0  0  0  0  # atno 7974 bound_to 7965
  155.0773  140.3206  155.4612 H   0  0  0  0  0  0  0  0  0  0  0  0  # atno 8008 bound_to 7997
  156.2776  140.2101  156.5846 H   0  0  0  0  0  0  0  0  0  0  0  0  # atno 8009 bound_to 7997
  154.7006  140.0507  157.0442 H   0  0  0  0  0  0  0  0  0  0  0  0  # atno 8010 bound_to 7997
  140.7139  143.3400  151.2378 H   0  0  0  0  0  0  0  0  0  0  0  0  # atno 10167 bound_to 10162
  157.5425  130.8707  149.8842 H   0  0  0  0  0  0  0  0  0  0  0  0  # atno 10718 bound_to 10713
  154.5173  135.5752  153.6653 H   0  0  0  0  0  0  0  0  0  0  0  0  # atno 10763 bound_to 10752
  152.9909  135.6173  154.2800 H   0  0  0  0  0  0  0  0  0  0  0  0  # atno 10764 bound_to 10752
  154.2719  135.2853  155.2714 H   0  0  0  0  0  0  0  0  0  0  0  0  # atno 10765 bound_to 10752
  140.4926  134.0825  155.7775 H   0  0  0  0  0  0  0  0  0  0  0  0  # atno 11005 bound_to 11000
  144.8386  140.6821  143.6244 LP  0  0  0  0  0  0  0  0  0  0  0  0  # atno 17320 bound_to 7965
  145.3957  139.1607  143.4205 LP  0  0  0  0  0  0  0  0  0  0  0  0  # atno 17321 bound_to 7965
  139.6905  143.9700  152.2857 LP  0  0  0  0  0  0  0  0  0  0  0  0  # atno 17342 bound_to 10162
  139.9360  144.6712  150.8315 LP  0  0  0  0  0  0  0  0  0  0  0  0  # atno 17343 bound_to 10162
  156.0508  130.3718  150.1206 LP  0  0  0  0  0  0  0  0  0  0  0  0  # atno 17370 bound_to 10713
  156.9385  130.9737  151.3520 LP  0  0  0  0  0  0  0  0  0  0  0  0  # atno 17371 bound_to 10713
  141.1476  133.9027  157.2177 LP  0  0  0  0  0  0  0  0  0  0  0  0  # atno 17394 bound_to 11000
  139.9760  135.0114  156.9632 LP  0  0  0  0  0  0  0  0  0  0  0  0  # atno 17395 bound_to 11000

$$$$
