AV-unprocessed.smi:2346|AV-procd|sdf|9365|dock7
  -GOLD-   2272012593D 1   1.00000     0.00000
 Structure written by MMmdl.
 44 46  0  0  0  0  0  0  0  0  1 V2000
  145.9024  143.4837  160.9450 C   0  0  0  0  0  0  0  0  0  0  0  0
  146.3749  142.6395  159.9053 O   0  0  0  0  0  0  0  0  0  0  0  0
  146.0033  142.9260  158.6075 C   0  0  0  0  0  0  0  0  0  0  0  0
  145.2004  144.0388  158.2489 C   0  0  0  0  0  0  0  0  0  0  0  0
  144.8601  144.2721  156.9022 C   0  0  0  0  0  0  0  0  0  0  0  0
  144.0372  145.4157  156.5456 C   0  0  0  0  0  0  0  0  0  0  0  0
  143.3821  146.3262  156.2616 N   0  0  0  0  0  0  0  0  0  0  0  0
  145.3186  143.3952  155.9025 C   0  0  0  0  0  0  0  0  0  0  0  0
  146.1146  142.2885  156.2482 C   0  0  0  0  0  0  0  0  0  0  0  0
  146.4632  142.0452  157.6010 C   0  0  0  0  0  0  0  0  0  0  0  0
  147.2398  140.9807  158.0108 O   0  0  0  0  0  0  0  0  0  0  0  0
  148.0831  140.3508  157.0572 C   0  0  0  0  0  0  0  0  0  0  0  0
  149.0476  141.4000  156.4916 C   0  0  0  0  0  0  0  0  0  0  0  0
  150.3859  141.2650  157.0489 N   0  0  0  0  0  0  0  0  0  0  0  0
  151.3546  140.3643  156.7330 C   0  0  0  0  0  0  0  0  0  0  0  0
  151.1682  139.2857  155.6994 C   0  0  2  0  0  0  0  0  0  0  0  0
  152.4598  138.4915  155.4582 C   0  0  0  0  0  0  0  0  0  0  0  0
  150.7327  139.8086  154.4611 O   0  0  0  0  0  0  0  0  0  0  0  0
  152.4993  140.4917  157.4082 N   0  0  0  0  0  0  0  0  0  0  0  0
  152.2486  141.5613  158.2433 C   0  0  0  0  0  0  0  0  0  0  0  0
  153.0712  142.1832  159.2095 C   0  0  0  0  0  0  0  0  0  0  0  0
  152.5912  143.2783  159.9572 C   0  0  0  0  0  0  0  0  0  0  0  0
  151.2844  143.7649  159.7505 C   0  0  0  0  0  0  0  0  0  0  0  0
  150.4489  143.1596  158.7918 C   0  0  0  0  0  0  0  0  0  0  0  0
  150.9334  142.0674  158.0464 C   0  0  0  0  0  0  0  0  0  0  0  0
  146.2807  143.1220  161.9010 H   0  0  0  0  0  0  0  0  0  0  0  0
  144.8129  143.4778  160.9989 H   0  0  0  0  0  0  0  0  0  0  0  0
  146.2539  144.5087  160.8190 H   0  0  0  0  0  0  0  0  0  0  0  0
  144.8352  144.7277  158.9961 H   0  0  0  0  0  0  0  0  0  0  0  0
  145.0636  143.5651  154.8662 H   0  0  0  0  0  0  0  0  0  0  0  0
  146.4459  141.6392  155.4524 H   0  0  0  0  0  0  0  0  0  0  0  0
  148.6495  139.5458  157.5283 H   0  0  0  0  0  0  0  0  0  0  0  0
  147.4835  139.9239  156.2531 H   0  0  0  0  0  0  0  0  0  0  0  0
  149.0978  141.3435  155.4047 H   0  0  0  0  0  0  0  0  0  0  0  0
  148.6749  142.3994  156.7176 H   0  0  0  0  0  0  0  0  0  0  0  0
  150.3982  138.5879  156.0214 H   0  0  0  0  0  0  0  0  0  0  0  0
  152.8200  138.0330  156.3789 H   0  0  0  0  0  0  0  0  0  0  0  0
  153.2550  139.1330  155.0765 H   0  0  0  0  0  0  0  0  0  0  0  0
  152.3007  137.6932  154.7326 H   0  0  0  0  0  0  0  0  0  0  0  0
  149.9546  139.3420  154.1971 H   0  0  0  0  0  0  0  0  0  0  0  0
  154.0732  141.8166  159.3760 H   0  0  0  0  0  0  0  0  0  0  0  0
  153.2283  143.7467  160.6931 H   0  0  0  0  0  0  0  0  0  0  0  0
  150.9237  144.6033  160.3282 H   0  0  0  0  0  0  0  0  0  0  0  0
  149.4479  143.5321  158.6337 H   0  0  0  0  0  0  0  0  0  0  0  0
  1  2  1  0  0  0  0
  1 26  1  0  0  0  0
  1 27  1  0  0  0  0
  1 28  1  0  0  0  0
  2  3  1  0  0  0  0
  3 10  1  0  0  0  0
  3  4  2  0  0  0  0
  4  5  1  0  0  0  0
  4 29  1  0  0  0  0
  5  6  1  0  0  0  0
  5  8  2  0  0  0  0
  6  7  3  0  0  0  0
  8  9  1  0  0  0  0
  8 30  1  0  0  0  0
  9 10  2  0  0  0  0
  9 31  1  0  0  0  0
 10 11  1  0  0  0  0
 11 12  1  0  0  0  0
 12 13  1  0  0  0  0
 12 32  1  0  0  0  0
 12 33  1  0  0  0  0
 13 14  1  0  0  0  0
 13 34  1  0  0  0  0
 13 35  1  0  0  0  0
 14 25  1  0  0  0  0
 14 15  1  0  0  0  0
 15 16  1  0  0  0  0
 15 19  2  0  0  0  0
 16 17  1  0  0  0  0
 16 18  1  0  0  0  0
 16 36  1  0  0  0  0
 17 37  1  0  0  0  0
 17 38  1  0  0  0  0
 17 39  1  0  0  0  0
 18 40  1  0  0  0  0
 19 20  1  0  0  0  0
 20 25  2  0  0  0  0
 20 21  1  0  0  0  0
 21 22  2  0  0  0  0
 21 41  1  0  0  0  0
 22 23  1  0  0  0  0
 22 42  1  0  0  0  0
 23 24  2  0  0  0  0
 23 43  1  0  0  0  0
 24 25  1  0  0  0  0
 24 44  1  0  0  0  0
M  END
> <s_m_source_file>
AV-unprocessed.smi

> <i_m_source_file_index>
2346

> <i_lp_mmshare_version>
43012

> <i_f3d_flags>
0

> <s_epik_input>
W0NIM11PYzFbY0hdYyhDI04pW2NIXVtjSF1jMU9bQ0gyXVtDSDJdbihjKG4yKVtDQEhdKFtDSDNdKVtPSF0pYyhjMjMpW2NIXVtjSF1bY0hdW2NIXTM=

> <s_epik_cmdline>
J2VwaWtfcHl0aG9uJywgJy1waCcsICc3LjAnLCAnLXRuJywgJzgnLCAnLW1hJywgJzIwMCcsICctbWV0YWxfYmluZGluZycsICctaW1hZScsICc8aW5maWxlLm1hZT4nLCAnLW9tYWUnLCAnPG91dGZpbGUubWFlPic=

> <r_epik_Ionization_Penalty>
0.0419826

> <r_epik_Ionization_Penalty_Charging>
0

> <r_epik_Ionization_Penalty_Neutral>
0.0419826

> <r_epik_State_Penalty>
0.0354317

> <r_epik_Charging_Adjusted_Penalty>
0.0354317

> <i_epik_Tot_Q>
0

> <i_epik_Tot_abs_Q>
0

> <r_epik_Metal_State_Penalty>
3.65115e-05

> <b_epik_Metal_Only>
0

> <s_lp_Force_Field>
OPLS_2005

> <r_lp_Energy>
19.3722

> <b_lp_Chiralities_Consistent>
1

> <s_lp_Variant>
AV-unprocessed.smi:2346-1

> <Gold.Version>
5.8.1

> <Gold.Id.Protein>
6NUR|6NUR_protein|mol2

> <Gold.PLP.Fitness>
47.7488

> <Gold.PLP.PLP>
-40.8885

> <Gold.PLP.part.hbond>
-3.7112

> <Gold.PLP.part.metal>
0.0000

> <Gold.PLP.part.buried>
-5.6871

> <Gold.PLP.part.nonpolar>
-30.5981

> <Gold.PLP.part.repulsive>
0.0619

> <Gold.PLP.ligand.clash>
0.0000

> <Gold.PLP.ligand.torsion>
0.9280

> <Gold.PLP.Chemscore.Hbond>
2.8723

> <Gold.PLP.Chemscore.CHOScore>
0.0000

> <Gold.PLP.Chemscore.Metal>
0.0000

> <Gold.Chemscore.Hbonds>
donor molecule, donor type, donor heavy atom, donor atom, acceptor molecule, acceptor atom, score
      P1  H  6934  6946       L1     2  1.00
      P1  H  7989  7998       L1    18  1.00
      P1  H  7997  8009       L1    19  0.82

> <Gold.PLP.Chemscore.Internal.Correction>
0.0994

> <Gold.Rescore>
     Score         DG    S(hbond)    S(metal)    S(lipo)     H(rot)  DE(clash)    DE(int)     intcor
     17.64     -18.63       2.67        0.00      92.27       2.57       0.18       0.80       ----

> <Gold.Chemscore.Fitness>
17.6447

> <Gold.Chemscore.DG>
-18.6334

> <Gold.Chemscore.ZeroCoef>
-5.4800

> <Gold.Chemscore.Hbond>
2.6743

> <Gold.Chemscore.Metal>
0.0000

> <Gold.Chemscore.Lipo>
92.2686

> <Gold.Chemscore.Internal_Hbond>
0.0000

> <Gold.Chemscore.DEClash>
0.1838

> <Gold.Chemscore.DEInternal>
0.8049

> <Gold.Chemscore.Rot>
2.5681

> <Gold.Chemscore.Internal.Correction>
   9.000000E+99

> <Gold.Chemscore.Hbonds>
donor molecule, donor type, donor heavy atom, donor atom, acceptor molecule, acceptor atom, score
      P1  H  6934  6946       L1     2  0.65
      P1  H  7989  7998       L1    18  1.00
      P1  H  7997  8009       L1    19  0.76

> <Gold.Chemscore.Hbond.Weighted>
-8.9323

> <Gold.Chemscore.Metal.Weighted>
-0.0000

> <Gold.Chemscore.Lipo.Weighted>
-10.7954

> <Gold.Chemscore.Internal_Hbond.Weighted>
0.0000

> <Gold.Chemscore.DEClash.Weighted>
0.1838

> <Gold.Chemscore.DEInternal.Weighted>
0.8049

> <Gold.Chemscore.Rot.Weighted>
6.5743

> <Gold.Chemscore.Internal.Correction.Weighted>
   9.000000E+99

> <Gold.Protein.RotatedTorsions>
[ 6907 6896 6895 6894 ] final   94.17 input  -60.11 | X-H torsion
[ 7974 7965 7964 7962 ] final  -67.54 input  175.53 | X-H torsion
[ 8008 7997 7996 7995 ] final -179.58 input   59.86 | X-H torsion
[ 10167 10162 10161 10158 ] final   17.66 input  -65.29 | X-H torsion
[ 10718 10713 10712 10709 ] final  -57.94 input   66.30 | X-H torsion
[ 10763 10752 10751 10750 ] final   51.03 input  -60.55 | X-H torsion
[ 11005 11000 10999 10996 ] final -114.30 input  -57.11 | X-H torsion

> <Gold.Protein.ActiveResidues>
 VAL166  LYS551  ARG553  GLY616  TRP617  ASP618  TYR619  PRO620  LYS621  CYS622 
 ASP623  PHE694  ASN695  SER759  ASP760  ASP761  ALA762  ILE779  LEU786  VAL792 
 PHE793  MET794  SER795  GLU796  ALA797  LYS798  CYS799  TRP800  GLU811  SER814 

> <Gold.Protein.RotatedAtoms>
  152.5450  134.1235  159.8408 H   0  0  0  0  0  0  0  0  0  0  0  0  # atno 6907 bound_to 6896
  151.1288  133.5044  159.2607 H   0  0  0  0  0  0  0  0  0  0  0  0  # atno 6908 bound_to 6896
  151.1697  135.0322  159.8801 H   0  0  0  0  0  0  0  0  0  0  0  0  # atno 6909 bound_to 6896
  145.7279  140.9010  143.0596 H   0  0  0  0  0  0  0  0  0  0  0  0  # atno 7974 bound_to 7965
  156.0322  140.1284  157.0246 H   0  0  0  0  0  0  0  0  0  0  0  0  # atno 8008 bound_to 7997
  154.4355  140.1047  156.6186 H   0  0  0  0  0  0  0  0  0  0  0  0  # atno 8009 bound_to 7997
  155.5790  140.3467  155.4537 H   0  0  0  0  0  0  0  0  0  0  0  0  # atno 8010 bound_to 7997
  140.5710  143.9162  150.6712 H   0  0  0  0  0  0  0  0  0  0  0  0  # atno 10167 bound_to 10162
  156.1173  130.4169  150.0508 H   0  0  0  0  0  0  0  0  0  0  0  0  # atno 10718 bound_to 10713
  152.9785  135.5859  154.4349 H   0  0  0  0  0  0  0  0  0  0  0  0  # atno 10763 bound_to 10752
  154.3957  135.2768  155.2129 H   0  0  0  0  0  0  0  0  0  0  0  0  # atno 10764 bound_to 10752
  154.3982  135.6109  153.5936 H   0  0  0  0  0  0  0  0  0  0  0  0  # atno 10765 bound_to 10752
  141.0560  133.9612  157.2753 H   0  0  0  0  0  0  0  0  0  0  0  0  # atno 11005 bound_to 11000
  144.6900  139.9290  143.7471 LP  0  0  0  0  0  0  0  0  0  0  0  0  # atno 17320 bound_to 7965
  146.0565  139.3562  143.0607 LP  0  0  0  0  0  0  0  0  0  0  0  0  # atno 17321 bound_to 7965
  140.2637  143.3505  152.1300 LP  0  0  0  0  0  0  0  0  0  0  0  0  # atno 17342 bound_to 10162
  139.5117  144.6905  151.5772 LP  0  0  0  0  0  0  0  0  0  0  0  0  # atno 17343 bound_to 10162
  156.8456  130.9441  151.3629 LP  0  0  0  0  0  0  0  0  0  0  0  0  # atno 17370 bound_to 10713
  157.6356  130.8764  149.9353 LP  0  0  0  0  0  0  0  0  0  0  0  0  # atno 17371 bound_to 10713
  139.9390  135.0193  156.8650 LP  0  0  0  0  0  0  0  0  0  0  0  0  # atno 17394 bound_to 11000
  140.5963  134.0214  155.7519 LP  0  0  0  0  0  0  0  0  0  0  0  0  # atno 17395 bound_to 11000

$$$$
