AV-unprocessed.smi:2702|AV-procd|sdf|10436|dock10
  -GOLD-   2272014473D 1   1.00000     0.00000
 Structure written by MMmdl.
 47 48  0  0  0  0  0  0  0  0  1 V2000
  149.3600  138.2033  154.7654 C   0  0  0  0  0  0  0  0  0  0  0  0
  148.1388  137.4859  154.7487 O   0  0  0  0  0  0  0  0  0  0  0  0
  147.0386  138.2942  154.3676 C   0  0  0  0  0  0  0  0  0  0  0  0
  146.9078  139.4817  155.2995 C   0  0  0  0  0  0  0  0  0  0  0  0
  146.5960  139.3324  156.6079 C   0  0  0  0  0  0  0  0  0  0  0  0
  146.4649  140.4982  157.4814 C   0  0  0  0  0  0  0  0  0  0  0  0
  146.1912  140.4029  158.6783 O   0  0  0  0  0  0  0  0  0  0  0  0
  146.6712  141.7019  156.8692 N   0  0  0  0  0  0  0  0  0  0  0  0
  146.5783  142.9659  157.6219 C   0  0  0  0  0  0  0  0  0  0  0  0
  147.7156  143.1391  158.6378 C   0  0  0  0  0  0  0  0  0  0  0  0
  147.4974  143.0329  159.8451 O   0  0  0  0  0  0  0  0  0  0  0  0
  148.9248  143.4190  158.1286 N   0  0  0  0  0  0  0  0  0  0  0  0
  150.1508  143.5884  158.9047 C   0  0  2  0  0  0  0  0  0  0  0  0
  150.9839  144.7441  158.3173 C   0  0  0  0  0  0  0  0  0  0  0  0
  152.2664  144.9750  159.1304 C   0  0  0  0  0  0  0  0  0  0  0  0
  153.0972  143.6880  159.2519 C   0  0  0  0  0  0  0  0  0  0  0  0
  152.2614  142.5289  159.8316 C   0  0  2  0  0  0  0  0  0  0  0  0
  153.1109  141.2662  160.0513 C   0  0  0  0  0  0  0  0  0  0  0  0
  150.9783  142.2756  158.9965 C   0  0  2  0  0  0  0  0  0  0  0  0
  151.2527  141.6299  157.6179 C   0  0  0  0  0  0  0  0  0  0  0  0
  146.9744  141.8017  155.4967 C   0  0  0  0  0  0  0  0  0  0  0  0
  147.0887  140.7529  154.7453 N   0  0  0  0  0  0  0  0  0  0  0  0
  150.1723  137.5371  155.0561 H   0  0  0  0  0  0  0  0  0  0  0  0
  149.3251  139.0244  155.4826 H   0  0  0  0  0  0  0  0  0  0  0  0
  149.5935  138.6086  153.7798 H   0  0  0  0  0  0  0  0  0  0  0  0
  147.1722  138.6528  153.3455 H   0  0  0  0  0  0  0  0  0  0  0  0
  146.1174  137.7096  154.3865 H   0  0  0  0  0  0  0  0  0  0  0  0
  146.4471  138.3447  157.0196 H   0  0  0  0  0  0  0  0  0  0  0  0
  146.5800  143.8046  156.9228 H   0  0  0  0  0  0  0  0  0  0  0  0
  145.6319  143.0491  158.1591 H   0  0  0  0  0  0  0  0  0  0  0  0
  149.0091  143.4941  157.1253 H   0  0  0  0  0  0  0  0  0  0  0  0
  149.8628  143.8814  159.9164 H   0  0  0  0  0  0  0  0  0  0  0  0
  151.2421  144.5348  157.2787 H   0  0  0  0  0  0  0  0  0  0  0  0
  150.3935  145.6609  158.3055 H   0  0  0  0  0  0  0  0  0  0  0  0
  152.8638  145.7614  158.6683 H   0  0  0  0  0  0  0  0  0  0  0  0
  152.0038  145.3331  160.1267 H   0  0  0  0  0  0  0  0  0  0  0  0
  153.4953  143.4130  158.2748 H   0  0  0  0  0  0  0  0  0  0  0  0
  153.9617  143.8770  159.8893 H   0  0  0  0  0  0  0  0  0  0  0  0
  151.9303  142.8428  160.8230 H   0  0  0  0  0  0  0  0  0  0  0  0
  153.5884  140.9335  159.1299 H   0  0  0  0  0  0  0  0  0  0  0  0
  152.5039  140.4446  160.4323 H   0  0  0  0  0  0  0  0  0  0  0  0
  153.9027  141.4530  160.7773 H   0  0  0  0  0  0  0  0  0  0  0  0
  150.3786  141.5544  159.5536 H   0  0  0  0  0  0  0  0  0  0  0  0
  151.8675  142.2653  156.9817 H   0  0  0  0  0  0  0  0  0  0  0  0
  150.3272  141.4253  157.0796 H   0  0  0  0  0  0  0  0  0  0  0  0
  151.7629  140.6729  157.7190 H   0  0  0  0  0  0  0  0  0  0  0  0
  147.1007  142.8166  155.1161 H   0  0  0  0  0  0  0  0  0  0  0  0
  1  2  1  0  0  0  0
  1 23  1  0  0  0  0
  1 24  1  0  0  0  0
  1 25  1  0  0  0  0
  2  3  1  0  0  0  0
  3  4  1  0  0  0  0
  3 26  1  0  0  0  0
  3 27  1  0  0  0  0
  4 22  1  0  0  0  0
  4  5  2  0  0  0  0
  5  6  1  0  0  0  0
  5 28  1  0  0  0  0
  6  7  2  0  0  0  0
  6  8  1  0  0  0  0
  8  9  1  0  0  0  0
  8 21  1  0  0  0  0
  9 10  1  0  0  0  0
  9 29  1  0  0  0  0
  9 30  1  0  0  0  0
 10 11  2  0  0  0  0
 10 12  1  0  0  0  0
 12 13  1  0  0  0  0
 12 31  1  0  0  0  0
 13 19  1  0  0  0  0
 13 14  1  0  0  0  0
 13 32  1  0  0  0  0
 14 15  1  0  0  0  0
 14 33  1  0  0  0  0
 14 34  1  0  0  0  0
 15 16  1  0  0  0  0
 15 35  1  0  0  0  0
 15 36  1  0  0  0  0
 16 17  1  0  0  0  0
 16 37  1  0  0  0  0
 16 38  1  0  0  0  0
 17 18  1  0  0  0  0
 17 19  1  0  0  0  0
 17 39  1  0  0  0  0
 18 40  1  0  0  0  0
 18 41  1  0  0  0  0
 18 42  1  0  0  0  0
 19 20  1  0  0  0  0
 19 43  1  0  0  0  0
 20 44  1  0  0  0  0
 20 45  1  0  0  0  0
 20 46  1  0  0  0  0
 21 22  2  0  0  0  0
 21 47  1  0  0  0  0
M  END
> <s_m_source_file>
AV-unprocessed.smi

> <i_m_source_file_index>
2702

> <i_lp_mmshare_version>
43012

> <i_f3d_flags>
0

> <s_epik_input>
W0NIM11PW0NIMl1jMVtjSF1jKD1PKW4oW2NIXW4xKVtDSDJdQyg9TylbTkhdW0NAQEhdMltDSDJdW0NIMl1bQ0gyXVtDQEBIXShbQ0gzXSlbQ0BIXTJbQ0gzXQ==

> <s_epik_cmdline>
J2VwaWtfcHl0aG9uJywgJy1waCcsICc3LjAnLCAnLXRuJywgJzgnLCAnLW1hJywgJzIwMCcsICctbWV0YWxfYmluZGluZycsICctaW1hZScsICc8aW5maWxlLm1hZT4nLCAnLW9tYWUnLCAnPG91dGZpbGUubWFlPic=

> <r_lp_tautomer_probability>
1

> <r_epik_Ionization_Penalty>
1.22164e-06

> <r_epik_Ionization_Penalty_Charging>
3.17988e-07

> <r_epik_Ionization_Penalty_Neutral>
9.03656e-07

> <r_epik_State_Penalty>
-0

> <r_epik_Charging_Adjusted_Penalty>
3.17988e-07

> <i_epik_Tot_Q>
0

> <i_epik_Tot_abs_Q>
0

> <r_epik_Metal_State_Penalty>
-0

> <b_epik_Metal_Only>
0

> <s_lp_Force_Field>
OPLS_2005

> <r_lp_Energy>
18.8167

> <b_lp_Chiralities_Consistent>
1

> <s_lp_Variant>
AV-unprocessed.smi:2702-7

> <Gold.Version>
5.8.1

> <Gold.Id.Protein>
6NUR|6NUR_protein|mol2

> <Gold.PLP.Fitness>
42.4198

> <Gold.PLP.PLP>
-34.9046

> <Gold.PLP.part.hbond>
-5.0000

> <Gold.PLP.part.metal>
0.0000

> <Gold.PLP.part.buried>
-3.5846

> <Gold.PLP.part.nonpolar>
-27.6473

> <Gold.PLP.part.repulsive>
1.6154

> <Gold.PLP.ligand.clash>
0.0000

> <Gold.PLP.ligand.torsion>
0.5620

> <Gold.PLP.Chemscore.Hbond>
2.0206

> <Gold.PLP.Chemscore.CHOScore>
0.8437

> <Gold.PLP.Chemscore.Metal>
0.0000

> <Gold.Chemscore.Hbonds>
donor molecule, donor type, donor heavy atom, donor atom, acceptor molecule, acceptor atom, score
      L1  H    12    31       P1  8028  0.85
      P1  H  6933  6944       L1    11  0.86
      P1  H  6934  6946       L1     7  0.14
      L1  C    21    47       P1  8028  0.72

> <Gold.PLP.Chemscore.Internal.Correction>
0.0461

> <Gold.Rescore>
     Score         DG    S(hbond)    S(metal)    S(lipo)     H(rot)  DE(clash)    DE(int)     intcor
     15.64     -16.34       1.47        0.00      92.99       1.93       0.18       0.51       ----

> <Gold.Chemscore.Fitness>
15.6450

> <Gold.Chemscore.DG>
-16.3354

> <Gold.Chemscore.ZeroCoef>
-5.4800

> <Gold.Chemscore.Hbond>
1.4709

> <Gold.Chemscore.Metal>
0.0000

> <Gold.Chemscore.Lipo>
92.9856

> <Gold.Chemscore.Internal_Hbond>
0.0000

> <Gold.Chemscore.DEClash>
0.1844

> <Gold.Chemscore.DEInternal>
0.5061

> <Gold.Chemscore.Rot>
1.9284

> <Gold.Chemscore.Internal.Correction>
   9.000000E+99

> <Gold.Chemscore.Hbonds>
donor molecule, donor type, donor heavy atom, donor atom, acceptor molecule, acceptor atom, score
      L1  H    12    31       P1  8028  0.46
      P1  H  6933  6944       L1    11  0.82
      P1  H  6934  6946       L1     7  0.15

> <Gold.Chemscore.Hbond.Weighted>
-4.9129

> <Gold.Chemscore.Metal.Weighted>
-0.0000

> <Gold.Chemscore.Lipo.Weighted>
-10.8793

> <Gold.Chemscore.Internal_Hbond.Weighted>
0.0000

> <Gold.Chemscore.DEClash.Weighted>
0.1844

> <Gold.Chemscore.DEInternal.Weighted>
0.5061

> <Gold.Chemscore.Rot.Weighted>
4.9368

> <Gold.Chemscore.Internal.Correction.Weighted>
   9.000000E+99

> <Gold.Protein.RotatedTorsions>
[ 6907 6896 6895 6894 ] final  -15.69 input  -60.11 | X-H torsion
[ 7974 7965 7964 7962 ] final  -49.46 input  175.53 | X-H torsion
[ 8008 7997 7996 7995 ] final   -9.28 input   59.86 | X-H torsion
[ 10167 10162 10161 10158 ] final   93.77 input  -65.29 | X-H torsion
[ 10718 10713 10712 10709 ] final   61.47 input   66.30 | X-H torsion
[ 10763 10752 10751 10750 ] final   33.96 input  -60.55 | X-H torsion
[ 11005 11000 10999 10996 ] final  102.99 input  -57.11 | X-H torsion

> <Gold.Protein.ActiveResidues>
 VAL166  LYS551  ARG553  GLY616  TRP617  ASP618  TYR619  PRO620  LYS621  CYS622 
 ASP623  PHE694  ASN695  SER759  ASP760  ASP761  ALA762  ILE779  LEU786  VAL792 
 PHE793  MET794  SER795  GLU796  ALA797  LYS798  CYS799  TRP800  GLU811  SER814 

> <Gold.Protein.RotatedAtoms>
  151.3201  135.0816  159.9302 H   0  0  0  0  0  0  0  0  0  0  0  0  # atno 6907 bound_to 6896
  152.5258  133.9647  159.7744 H   0  0  0  0  0  0  0  0  0  0  0  0  # atno 6908 bound_to 6896
  150.9967  133.6044  159.2731 H   0  0  0  0  0  0  0  0  0  0  0  0  # atno 6909 bound_to 6896
  145.9403  140.7668  142.9555 H   0  0  0  0  0  0  0  0  0  0  0  0  # atno 7974 bound_to 7965
  154.5662  140.2359  155.8261 H   0  0  0  0  0  0  0  0  0  0  0  0  # atno 8008 bound_to 7997
  156.2070  140.3037  155.9606 H   0  0  0  0  0  0  0  0  0  0  0  0  # atno 8009 bound_to 7997
  155.2797  140.0422  157.3005 H   0  0  0  0  0  0  0  0  0  0  0  0  # atno 8010 bound_to 7997
  139.8147  144.6758  150.9595 H   0  0  0  0  0  0  0  0  0  0  0  0  # atno 10167 bound_to 10162
  157.5830  130.8996  149.9465 H   0  0  0  0  0  0  0  0  0  0  0  0  # atno 10718 bound_to 10713
  153.0186  135.6373  154.1594 H   0  0  0  0  0  0  0  0  0  0  0  0  # atno 10763 bound_to 10752
  154.1330  135.2839  155.3182 H   0  0  0  0  0  0  0  0  0  0  0  0  # atno 10764 bound_to 10752
  154.6180  135.5534  153.7606 H   0  0  0  0  0  0  0  0  0  0  0  0  # atno 10765 bound_to 10752
  139.8781  134.9245  156.5141 H   0  0  0  0  0  0  0  0  0  0  0  0  # atno 11005 bound_to 11000
  144.6778  140.2270  143.7360 LP  0  0  0  0  0  0  0  0  0  0  0  0  # atno 17320 bound_to 7965
  145.8308  139.2085  143.1884 LP  0  0  0  0  0  0  0  0  0  0  0  0  # atno 17321 bound_to 7965
  140.7816  143.4150  151.0932 LP  0  0  0  0  0  0  0  0  0  0  0  0  # atno 17342 bound_to 10162
  139.7814  143.8349  152.3138 LP  0  0  0  0  0  0  0  0  0  0  0  0  # atno 17343 bound_to 10162
  156.0877  130.3666  150.0455 LP  0  0  0  0  0  0  0  0  0  0  0  0  # atno 17370 bound_to 10713
  156.8591  130.9485  151.3619 LP  0  0  0  0  0  0  0  0  0  0  0  0  # atno 17371 bound_to 10713
  140.8498  133.8140  155.9158 LP  0  0  0  0  0  0  0  0  0  0  0  0  # atno 17394 bound_to 11000
  140.9155  134.2207  157.4959 LP  0  0  0  0  0  0  0  0  0  0  0  0  # atno 17395 bound_to 11000

$$$$
