AV-unprocessed.smi:1941|AV-procd|sdf|7848|dock5
  -GOLD-   22720 9593D 1   1.00000     0.00000
 Structure written by MMmdl.
 40 41  0  0  0  0  0  0  0  0  1 V2000
  146.6360  129.4823  152.9107 C   0  0  0  0  0  0  0  0  0  0  0  0
  146.8527  130.9299  152.6309 C   0  0  0  0  0  0  0  0  0  0  0  0
  146.0995  131.6408  151.7879 N   0  0  0  0  0  0  0  0  0  0  0  0
  146.5066  132.9758  151.6976 C   0  0  0  0  0  0  0  0  0  0  0  0
  145.7753  133.9207  150.7940 C   0  0  0  0  0  0  0  0  0  0  0  0
  145.1587  135.1038  151.5583 C   0  0  0  0  0  0  0  0  0  0  0  0
  146.1865  136.0246  152.0292 N   0  0  0  0  0  0  0  0  0  0  0  0
  145.9731  137.0473  152.8679 C   0  0  0  0  0  0  0  0  0  0  0  0
  144.8681  137.3469  153.3208 O   0  0  0  0  0  0  0  0  0  0  0  0
  147.1102  137.6973  153.1535 N   0  0  0  0  0  0  0  0  0  0  0  0
  147.2352  138.8561  154.0355 C   0  0  1  0  0  0  0  0  0  0  0  0
  146.7686  138.4643  155.4450 C   0  0  0  0  0  0  0  0  0  0  0  0
  148.6884  139.3692  154.0302 C   0  0  1  0  0  0  0  0  0  0  0  0
  148.9427  140.5915  154.9161 C   0  0  0  0  0  0  0  0  0  0  0  0
  150.4150  140.4771  155.2827 C   0  0  0  0  0  0  0  0  0  0  0  0
  150.7990  139.0588  154.8535 C   0  0  0  0  0  0  0  0  0  0  0  0
  149.5648  138.4063  154.5939 O   0  0  0  0  0  0  0  0  0  0  0  0
  147.5866  133.2675  152.4930 C   0  0  0  0  0  0  0  0  0  0  0  0
  148.1327  131.8736  153.3837 S   0  0  0  0  0  0  0  0  0  0  0  0
  145.8362  129.0844  152.2852 H   0  0  0  0  0  0  0  0  0  0  0  0
  146.3642  129.3431  153.9571 H   0  0  0  0  0  0  0  0  0  0  0  0
  147.5491  128.9228  152.7074 H   0  0  0  0  0  0  0  0  0  0  0  0
  146.4551  134.2946  150.0271 H   0  0  0  0  0  0  0  0  0  0  0  0
  144.9898  133.3857  150.2589 H   0  0  0  0  0  0  0  0  0  0  0  0
  144.4833  135.6589  150.9066 H   0  0  0  0  0  0  0  0  0  0  0  0
  144.5582  134.7479  152.3976 H   0  0  0  0  0  0  0  0  0  0  0  0
  147.1291  135.8594  151.7074 H   0  0  0  0  0  0  0  0  0  0  0  0
  147.9622  137.3645  152.7265 H   0  0  0  0  0  0  0  0  0  0  0  0
  146.5888  139.6637  153.6873 H   0  0  0  0  0  0  0  0  0  0  0  0
  146.8213  139.3133  156.1271 H   0  0  0  0  0  0  0  0  0  0  0  0
  147.3834  137.6653  155.8608 H   0  0  0  0  0  0  0  0  0  0  0  0
  145.7345  138.1183  155.4336 H   0  0  0  0  0  0  0  0  0  0  0  0
  149.0116  139.5828  153.0091 H   0  0  0  0  0  0  0  0  0  0  0  0
  148.7035  141.5291  154.4134 H   0  0  0  0  0  0  0  0  0  0  0  0
  148.3364  140.5340  155.8215 H   0  0  0  0  0  0  0  0  0  0  0  0
  151.0214  141.2178  154.7603 H   0  0  0  0  0  0  0  0  0  0  0  0
  150.5563  140.6233  156.3541 H   0  0  0  0  0  0  0  0  0  0  0  0
  151.3912  139.0820  153.9374 H   0  0  0  0  0  0  0  0  0  0  0  0
  151.3713  138.5301  155.6158 H   0  0  0  0  0  0  0  0  0  0  0  0
  148.0923  134.2148  152.6080 H   0  0  0  0  0  0  0  0  0  0  0  0
  1  2  1  0  0  0  0
  1 20  1  0  0  0  0
  1 21  1  0  0  0  0
  1 22  1  0  0  0  0
  2 19  1  0  0  0  0
  2  3  2  0  0  0  0
  3  4  1  0  0  0  0
  4  5  1  0  0  0  0
  4 18  2  0  0  0  0
  5  6  1  0  0  0  0
  5 23  1  0  0  0  0
  5 24  1  0  0  0  0
  6  7  1  0  0  0  0
  6 25  1  0  0  0  0
  6 26  1  0  0  0  0
  7  8  1  0  0  0  0
  7 27  1  0  0  0  0
  8  9  2  0  0  0  0
  8 10  1  0  0  0  0
 10 11  1  0  0  0  0
 10 28  1  0  0  0  0
 11 12  1  0  0  0  0
 11 13  1  0  0  0  0
 11 29  1  0  0  0  0
 12 30  1  0  0  0  0
 12 31  1  0  0  0  0
 12 32  1  0  0  0  0
 13 17  1  0  0  0  0
 13 14  1  0  0  0  0
 13 33  1  0  0  0  0
 14 15  1  0  0  0  0
 14 34  1  0  0  0  0
 14 35  1  0  0  0  0
 15 16  1  0  0  0  0
 15 36  1  0  0  0  0
 15 37  1  0  0  0  0
 16 17  1  0  0  0  0
 16 38  1  0  0  0  0
 16 39  1  0  0  0  0
 18 19  1  0  0  0  0
 18 40  1  0  0  0  0
M  END
> <s_m_source_file>
AV-unprocessed.smi

> <i_m_source_file_index>
1941

> <i_lp_mmshare_version>
43012

> <i_f3d_flags>
0

> <s_epik_input>
W0NIM11jMW5jKFtjSF1zMSlbQ0gyXVtDSDJdW05IXUMoPU8pW05IXVtDQEhdKFtDSDNdKVtDQEBIXTJbQ0gyXVtDSDJdW0NIMl1PMg==

> <s_epik_cmdline>
J2VwaWtfcHl0aG9uJywgJy1waCcsICc3LjAnLCAnLXRuJywgJzgnLCAnLW1hJywgJzIwMCcsICctbWV0YWxfYmluZGluZycsICctaW1hZScsICc8aW5maWxlLm1hZT4nLCAnLW9tYWUnLCAnPG91dGZpbGUubWFlPic=

> <r_epik_Ionization_Penalty>
0.00195486

> <r_epik_Ionization_Penalty_Charging>
0

> <r_epik_Ionization_Penalty_Neutral>
0.00195486

> <r_epik_State_Penalty>
0.00129472

> <r_epik_Charging_Adjusted_Penalty>
0.00129472

> <i_epik_Tot_Q>
0

> <i_epik_Tot_abs_Q>
0

> <r_epik_Metal_State_Penalty>
-0

> <b_epik_Metal_Only>
0

> <s_lp_Force_Field>
OPLS_2005

> <r_lp_Energy>
10.4384

> <b_lp_Chiralities_Consistent>
1

> <s_lp_Variant>
AV-unprocessed.smi:1941-4

> <Gold.Version>
5.8.1

> <Gold.Id.Protein>
6NUR|6NUR_protein|mol2

> <Gold.PLP.Fitness>
37.7754

> <Gold.PLP.PLP>
-28.9204

> <Gold.PLP.part.hbond>
-2.0000

> <Gold.PLP.part.metal>
0.0000

> <Gold.PLP.part.buried>
-1.6473

> <Gold.PLP.part.nonpolar>
-25.3285

> <Gold.PLP.part.repulsive>
0.5504

> <Gold.PLP.ligand.clash>
0.0000

> <Gold.PLP.ligand.torsion>
0.0903

> <Gold.PLP.Chemscore.Hbond>
2.0000

> <Gold.PLP.Chemscore.CHOScore>
1.0000

> <Gold.PLP.Chemscore.Metal>
0.0000

> <Gold.Chemscore.Hbonds>
donor molecule, donor type, donor heavy atom, donor atom, acceptor molecule, acceptor atom, score
      L1  H     7    27       P1  7948  1.00
      L1  H    10    28       P1  7948  1.00
      L1  C    18    40       P1  7948  0.97

> <Gold.PLP.Chemscore.Internal.Correction>
0.0356

> <Gold.Rescore>
     Score         DG    S(hbond)    S(metal)    S(lipo)     H(rot)  DE(clash)    DE(int)     intcor
     15.93     -16.07       1.94        0.00      72.10       1.69       0.00       0.14       ----

> <Gold.Chemscore.Fitness>
15.9334

> <Gold.Chemscore.DG>
-16.0727

> <Gold.Chemscore.ZeroCoef>
-5.4800

> <Gold.Chemscore.Hbond>
1.9427

> <Gold.Chemscore.Metal>
0.0000

> <Gold.Chemscore.Lipo>
72.1047

> <Gold.Chemscore.Internal_Hbond>
0.0000

> <Gold.Chemscore.DEClash>
0.0000

> <Gold.Chemscore.DEInternal>
0.1393

> <Gold.Chemscore.Rot>
1.6923

> <Gold.Chemscore.Internal.Correction>
   9.000000E+99

> <Gold.Chemscore.Hbonds>
donor molecule, donor type, donor heavy atom, donor atom, acceptor molecule, acceptor atom, score
      L1  H     7    27       P1  7948  0.94
      L1  H    10    28       P1  7948  0.99

> <Gold.Chemscore.Hbond.Weighted>
-6.4888

> <Gold.Chemscore.Metal.Weighted>
-0.0000

> <Gold.Chemscore.Lipo.Weighted>
-8.4363

> <Gold.Chemscore.Internal_Hbond.Weighted>
0.0000

> <Gold.Chemscore.DEClash.Weighted>
0.0000

> <Gold.Chemscore.DEInternal.Weighted>
0.1393

> <Gold.Chemscore.Rot.Weighted>
4.3323

> <Gold.Chemscore.Internal.Correction.Weighted>
   9.000000E+99

> <Gold.Protein.RotatedTorsions>
[ 6907 6896 6895 6894 ] final  127.24 input  -60.11 | X-H torsion
[ 7974 7965 7964 7962 ] final -161.94 input  175.53 | X-H torsion
[ 8008 7997 7996 7995 ] final  -97.36 input   59.86 | X-H torsion
[ 10167 10162 10161 10158 ] final -170.61 input  -65.29 | X-H torsion
[ 10718 10713 10712 10709 ] final  -47.83 input   66.30 | X-H torsion
[ 10763 10752 10751 10750 ] final   69.06 input  -60.55 | X-H torsion
[ 11005 11000 10999 10996 ] final   53.43 input  -57.11 | X-H torsion

> <Gold.Protein.ActiveResidues>
 VAL166  LYS551  ARG553  GLY616  TRP617  ASP618  TYR619  PRO620  LYS621  CYS622 
 ASP623  PHE694  ASN695  SER759  ASP760  ASP761  ALA762  ILE779  LEU786  VAL792 
 PHE793  MET794  SER795  GLU796  ALA797  LYS798  CYS799  TRP800  GLU811  SER814 

> <Gold.Protein.RotatedAtoms>
  152.3830  133.6573  159.6176 H   0  0  0  0  0  0  0  0  0  0  0  0  # atno 6907 bound_to 6896
  150.7756  133.9081  159.3370 H   0  0  0  0  0  0  0  0  0  0  0  0  # atno 6908 bound_to 6896
  151.6883  135.0952  160.0280 H   0  0  0  0  0  0  0  0  0  0  0  0  # atno 6909 bound_to 6896
  144.7374  140.3325  143.6150 H   0  0  0  0  0  0  0  0  0  0  0  0  # atno 7974 bound_to 7965
  154.7867  140.0463  157.1170 H   0  0  0  0  0  0  0  0  0  0  0  0  # atno 8008 bound_to 7997
  154.9639  140.3081  155.4998 H   0  0  0  0  0  0  0  0  0  0  0  0  # atno 8009 bound_to 7997
  156.2944  140.2265  156.4727 H   0  0  0  0  0  0  0  0  0  0  0  0  # atno 8010 bound_to 7997
  139.5851  144.1336  152.1565 H   0  0  0  0  0  0  0  0  0  0  0  0  # atno 10167 bound_to 10162
  156.2046  130.4158  149.9195 H   0  0  0  0  0  0  0  0  0  0  0  0  # atno 10718 bound_to 10713
  153.0267  135.5224  154.7230 H   0  0  0  0  0  0  0  0  0  0  0  0  # atno 10763 bound_to 10752
  154.6280  135.2897  155.0252 H   0  0  0  0  0  0  0  0  0  0  0  0  # atno 10764 bound_to 10752
  154.1214  135.6607  153.4956 H   0  0  0  0  0  0  0  0  0  0  0  0  # atno 10765 bound_to 10752
  140.0768  134.5394  155.8988 H   0  0  0  0  0  0  0  0  0  0  0  0  # atno 11005 bound_to 11000
  145.7457  139.1778  143.2350 LP  0  0  0  0  0  0  0  0  0  0  0  0  # atno 17320 bound_to 7965
  146.1100  140.7440  142.9508 LP  0  0  0  0  0  0  0  0  0  0  0  0  # atno 17321 bound_to 7965
  140.0898  144.5630  150.7063 LP  0  0  0  0  0  0  0  0  0  0  0  0  # atno 17342 bound_to 10162
  140.7124  143.2516  151.4540 LP  0  0  0  0  0  0  0  0  0  0  0  0  # atno 17343 bound_to 10162
  156.6893  130.8889  151.3586 LP  0  0  0  0  0  0  0  0  0  0  0  0  # atno 17370 bound_to 10713
  157.7005  130.9328  150.0772 LP  0  0  0  0  0  0  0  0  0  0  0  0  # atno 17371 bound_to 10713
  141.2032  133.6630  156.6050 LP  0  0  0  0  0  0  0  0  0  0  0  0  # atno 17394 bound_to 11000
  140.3547  134.7739  157.4491 LP  0  0  0  0  0  0  0  0  0  0  0  0  # atno 17395 bound_to 11000

$$$$
