AV-unprocessed.smi:1329|AV-procd|sdf|5483|dock3
  -GOLD-   22720 5 53D 1   1.00000     0.00000
 Structure written by MMmdl.
 42 43  0  0  0  0  0  0  0  0  1 V2000
  150.4209  133.8123  155.6617 C   0  0  0  0  0  0  0  0  0  0  0  0
  150.5589  134.9942  156.5833 C   0  0  0  0  0  0  0  0  0  0  0  0
  151.4331  135.8878  156.2546 N   0  0  0  0  0  0  0  0  0  0  0  0
  151.6387  137.0110  157.0301 N   0  0  0  0  0  0  0  0  0  0  0  0
  152.6681  137.9161  156.5063 C   0  0  0  0  0  0  0  0  0  0  0  0
  152.1841  138.6768  155.2517 C   0  0  2  0  0  0  0  0  0  0  0  0
  153.2776  139.3813  154.6984 O   0  0  0  0  0  0  0  0  0  0  0  0
  151.0954  139.7079  155.5834 C   0  0  0  0  0  0  0  0  0  0  0  0
  151.5780  140.5623  156.6070 O   0  0  0  0  0  0  0  0  0  0  0  0
  150.6422  141.5560  156.9916 C   0  0  0  0  0  0  0  0  0  0  0  0
  151.1875  142.4654  158.0775 C   0  0  0  0  0  0  0  0  0  0  0  0
  151.2837  143.8583  157.8671 C   0  0  0  0  0  0  0  0  0  0  0  0
  151.8065  144.6927  158.8742 C   0  0  0  0  0  0  0  0  0  0  0  0
  152.2423  144.1389  160.0934 C   0  0  0  0  0  0  0  0  0  0  0  0
  152.1572  142.7490  160.3041 C   0  0  0  0  0  0  0  0  0  0  0  0
  151.6336  141.9142  159.2973 C   0  0  0  0  0  0  0  0  0  0  0  0
  150.9622  137.2978  158.1793 C   0  0  0  0  0  0  0  0  0  0  0  0
  151.1683  138.3220  158.8323 O   0  0  0  0  0  0  0  0  0  0  0  0
  149.9758  136.2797  158.5479 C   0  0  0  0  0  0  0  0  0  0  0  0
  149.2464  136.5381  159.7474 C   0  0  0  0  0  0  0  0  0  0  0  0
  148.6708  136.7396  160.7313 N   0  0  0  0  0  0  0  0  0  0  0  0
  149.7692  135.1679  157.7984 C   0  0  0  0  0  0  0  0  0  0  0  0
  148.7564  134.0824  158.1369 C   0  0  0  0  0  0  0  0  0  0  0  0
  149.3911  133.7029  155.3210 H   0  0  0  0  0  0  0  0  0  0  0  0
  150.7093  132.8917  156.1694 H   0  0  0  0  0  0  0  0  0  0  0  0
  151.0505  133.9110  154.7760 H   0  0  0  0  0  0  0  0  0  0  0  0
  152.9346  138.6243  157.2930 H   0  0  0  0  0  0  0  0  0  0  0  0
  153.5958  137.3793  156.2968 H   0  0  0  0  0  0  0  0  0  0  0  0
  151.7974  137.9906  154.4973 H   0  0  0  0  0  0  0  0  0  0  0  0
  153.6785  138.8383  154.0370 H   0  0  0  0  0  0  0  0  0  0  0  0
  150.8267  140.2835  154.6957 H   0  0  0  0  0  0  0  0  0  0  0  0
  150.1939  139.2024  155.9343 H   0  0  0  0  0  0  0  0  0  0  0  0
  150.3712  142.1572  156.1223 H   0  0  0  0  0  0  0  0  0  0  0  0
  149.7300  141.0861  157.3620 H   0  0  0  0  0  0  0  0  0  0  0  0
  150.9575  144.2939  156.9338 H   0  0  0  0  0  0  0  0  0  0  0  0
  151.8750  145.7580  158.7103 H   0  0  0  0  0  0  0  0  0  0  0  0
  152.6440  144.7790  160.8651 H   0  0  0  0  0  0  0  0  0  0  0  0
  152.4950  142.3229  161.2372 H   0  0  0  0  0  0  0  0  0  0  0  0
  151.5749  140.8487  159.4653 H   0  0  0  0  0  0  0  0  0  0  0  0
  148.2829  134.2478  159.1041 H   0  0  0  0  0  0  0  0  0  0  0  0
  149.2370  133.1042  158.1750 H   0  0  0  0  0  0  0  0  0  0  0  0
  147.9683  134.0498  157.3838 H   0  0  0  0  0  0  0  0  0  0  0  0
  1  2  1  0  0  0  0
  1 24  1  0  0  0  0
  1 25  1  0  0  0  0
  1 26  1  0  0  0  0
  2 22  1  0  0  0  0
  2  3  2  0  0  0  0
  3  4  1  0  0  0  0
  4  5  1  0  0  0  0
  4 17  1  0  0  0  0
  5  6  1  0  0  0  0
  5 27  1  0  0  0  0
  5 28  1  0  0  0  0
  6  7  1  0  0  0  0
  6  8  1  0  0  0  0
  6 29  1  0  0  0  0
  7 30  1  0  0  0  0
  8  9  1  0  0  0  0
  8 31  1  0  0  0  0
  8 32  1  0  0  0  0
  9 10  1  0  0  0  0
 10 11  1  0  0  0  0
 10 33  1  0  0  0  0
 10 34  1  0  0  0  0
 11 16  1  0  0  0  0
 11 12  2  0  0  0  0
 12 13  1  0  0  0  0
 12 35  1  0  0  0  0
 13 14  2  0  0  0  0
 13 36  1  0  0  0  0
 14 15  1  0  0  0  0
 14 37  1  0  0  0  0
 15 16  2  0  0  0  0
 15 38  1  0  0  0  0
 16 39  1  0  0  0  0
 17 18  2  0  0  0  0
 17 19  1  0  0  0  0
 19 20  1  0  0  0  0
 19 22  2  0  0  0  0
 20 21  3  0  0  0  0
 22 23  1  0  0  0  0
 23 40  1  0  0  0  0
 23 41  1  0  0  0  0
 23 42  1  0  0  0  0
M  END
> <s_m_source_file>
AV-unprocessed.smi

> <i_m_source_file_index>
1329

> <i_lp_mmshare_version>
43012

> <i_f3d_flags>
0

> <s_epik_input>
TiNDYyhjMVtDSDNdKWMoPU8pbihuYzFbQ0gzXSlbQ0gyXVtDQEhdKFtPSF0pW0NIMl1PW0NIMl1jMltjSF1bY0hdW2NIXVtjSF1bY0hdMg==

> <s_epik_cmdline>
J2VwaWtfcHl0aG9uJywgJy1waCcsICc3LjAnLCAnLXRuJywgJzgnLCAnLW1hJywgJzIwMCcsICctbWV0YWxfYmluZGluZycsICctaW1hZScsICc8aW5maWxlLm1hZT4nLCAnLW9tYWUnLCAnPG91dGZpbGUubWFlPic=

> <r_lp_tautomer_probability>
1

> <r_epik_Ionization_Penalty>
6.13319e-08

> <r_epik_Ionization_Penalty_Charging>
2.19172e-10

> <r_epik_Ionization_Penalty_Neutral>
6.11128e-08

> <r_epik_State_Penalty>
-0

> <r_epik_Charging_Adjusted_Penalty>
2.19172e-10

> <i_epik_Tot_Q>
0

> <i_epik_Tot_abs_Q>
0

> <r_epik_Metal_State_Penalty>
-0

> <b_epik_Metal_Only>
0

> <s_lp_Force_Field>
OPLS_2005

> <r_lp_Energy>
29.8656

> <b_lp_Chiralities_Consistent>
1

> <s_lp_Variant>
AV-unprocessed.smi:1329-1

> <Gold.Version>
5.8.1

> <Gold.Id.Protein>
6NUR|6NUR_protein|mol2

> <Gold.PLP.Fitness>
51.6918

> <Gold.PLP.PLP>
-43.6457

> <Gold.PLP.part.hbond>
-4.4322

> <Gold.PLP.part.metal>
0.0000

> <Gold.PLP.part.buried>
-3.5241

> <Gold.PLP.part.nonpolar>
-36.4533

> <Gold.PLP.part.repulsive>
0.0220

> <Gold.PLP.ligand.clash>
0.0000

> <Gold.PLP.ligand.torsion>
0.2081

> <Gold.PLP.Chemscore.Hbond>
2.8096

> <Gold.PLP.Chemscore.CHOScore>
0.0000

> <Gold.PLP.Chemscore.Metal>
0.0000

> <Gold.Chemscore.Hbonds>
donor molecule, donor type, donor heavy atom, donor atom, acceptor molecule, acceptor atom, score
      P1  H  6931  6943       L1    21  0.96
      P1  H  7997  8009       L1     7  0.99
      P1  H 10752 10765       L1     3  0.76

> <Gold.PLP.Chemscore.Internal.Correction>
0.0333

> <Gold.Rescore>
     Score         DG    S(hbond)    S(metal)    S(lipo)     H(rot)  DE(clash)    DE(int)     intcor
     19.40     -21.26       2.53        0.00     116.72       2.48       1.69       0.17       ----

> <Gold.Chemscore.Fitness>
19.3975

> <Gold.Chemscore.DG>
-21.2579

> <Gold.Chemscore.ZeroCoef>
-5.4800

> <Gold.Chemscore.Hbond>
2.5344

> <Gold.Chemscore.Metal>
0.0000

> <Gold.Chemscore.Lipo>
116.7158

> <Gold.Chemscore.Internal_Hbond>
0.0000

> <Gold.Chemscore.DEClash>
1.6914

> <Gold.Chemscore.DEInternal>
0.1689

> <Gold.Chemscore.Rot>
2.4777

> <Gold.Chemscore.Internal.Correction>
   9.000000E+99

> <Gold.Chemscore.Hbonds>
donor molecule, donor type, donor heavy atom, donor atom, acceptor molecule, acceptor atom, score
      P1  H  6931  6943       L1    21  0.91
      P1  H  7997  8009       L1     7  0.42
      P1  H 10752 10765       L1     3  0.63

> <Gold.Chemscore.Hbond.Weighted>
-8.4650

> <Gold.Chemscore.Metal.Weighted>
-0.0000

> <Gold.Chemscore.Lipo.Weighted>
-13.6558

> <Gold.Chemscore.Internal_Hbond.Weighted>
0.0000

> <Gold.Chemscore.DEClash.Weighted>
1.6914

> <Gold.Chemscore.DEInternal.Weighted>
0.1689

> <Gold.Chemscore.Rot.Weighted>
6.3428

> <Gold.Chemscore.Internal.Correction.Weighted>
   9.000000E+99

> <Gold.Protein.RotatedTorsions>
[ 6907 6896 6895 6894 ] final -117.93 input  -60.11 | X-H torsion
[ 7974 7965 7964 7962 ] final  -98.11 input  175.53 | X-H torsion
[ 8008 7997 7996 7995 ] final -107.13 input   59.86 | X-H torsion
[ 10167 10162 10161 10158 ] final  -23.70 input  -65.29 | X-H torsion
[ 10718 10713 10712 10709 ] final  -19.98 input   66.30 | X-H torsion
[ 10763 10752 10751 10750 ] final -154.84 input  -60.55 | X-H torsion
[ 11005 11000 10999 10996 ] final   18.75 input  -57.11 | X-H torsion

> <Gold.Protein.ActiveResidues>
 VAL166  LYS551  ARG553  GLY616  TRP617  ASP618  TYR619  PRO620  LYS621  CYS622 
 ASP623  PHE694  ASN695  SER759  ASP760  ASP761  ALA762  ILE779  LEU786  VAL792 
 PHE793  MET794  SER795  GLU796  ALA797  LYS798  CYS799  TRP800  GLU811  SER814 

> <Gold.Protein.RotatedAtoms>
  150.8178  133.8307  159.3152 H   0  0  0  0  0  0  0  0  0  0  0  0  # atno 6907 bound_to 6896
  151.6074  135.1041  160.0083 H   0  0  0  0  0  0  0  0  0  0  0  0  # atno 6908 bound_to 6896
  152.4268  133.7168  159.6567 H   0  0  0  0  0  0  0  0  0  0  0  0  # atno 6909 bound_to 6896
  145.3250  140.9429  143.2694 H   0  0  0  0  0  0  0  0  0  0  0  0  # atno 7974 bound_to 7965
  154.9248  140.0406  157.2017 H   0  0  0  0  0  0  0  0  0  0  0  0  # atno 8008 bound_to 7997
  154.8219  140.2885  155.5759 H   0  0  0  0  0  0  0  0  0  0  0  0  # atno 8009 bound_to 7997
  156.2980  140.2517  156.3127 H   0  0  0  0  0  0  0  0  0  0  0  0  # atno 8010 bound_to 7997
  140.7288  143.4420  151.0643 H   0  0  0  0  0  0  0  0  0  0  0  0  # atno 10167 bound_to 10162
  156.5381  130.4671  149.6513 H   0  0  0  0  0  0  0  0  0  0  0  0  # atno 10718 bound_to 10713
  154.7830  135.3181  154.7949 H   0  0  0  0  0  0  0  0  0  0  0  0  # atno 10763 bound_to 10752
  153.8656  135.6849  153.4783 H   0  0  0  0  0  0  0  0  0  0  0  0  # atno 10764 bound_to 10752
  153.1472  135.4714  154.9522 H   0  0  0  0  0  0  0  0  0  0  0  0  # atno 10765 bound_to 10752
  140.4213  134.1516  155.7673 H   0  0  0  0  0  0  0  0  0  0  0  0  # atno 11005 bound_to 11000
  144.8909  139.4776  143.6678 LP  0  0  0  0  0  0  0  0  0  0  0  0  # atno 17320 bound_to 7965
  146.3068  139.7607  142.9050 LP  0  0  0  0  0  0  0  0  0  0  0  0  # atno 17321 bound_to 7965
  139.8088  143.7980  152.3169 LP  0  0  0  0  0  0  0  0  0  0  0  0  # atno 17342 bound_to 10162
  139.8023  144.7369  150.9809 LP  0  0  0  0  0  0  0  0  0  0  0  0  # atno 17343 bound_to 10162
  156.2997  130.7170  151.2039 LP  0  0  0  0  0  0  0  0  0  0  0  0  # atno 17370 bound_to 10713
  157.7410  131.0509  150.5127 LP  0  0  0  0  0  0  0  0  0  0  0  0  # atno 17371 bound_to 10713
  141.1783  133.8468  157.1347 LP  0  0  0  0  0  0  0  0  0  0  0  0  # atno 17394 bound_to 11000
  140.0198  134.9951  157.0568 LP  0  0  0  0  0  0  0  0  0  0  0  0  # atno 17395 bound_to 11000

$$$$
