AV-unprocessed.smi:881|AV-procd|sdf|4036|dock9
  -GOLD-   22720 1533D 1   1.00000     0.00000
 Structure written by MMmdl.
 31 32  0  0  0  0  0  0  0  0  2 V2000
  152.7670  139.5851  156.4514 O   0  0  0  0  0  0  0  0  0  0  0  0
  151.5606  139.8407  156.4620 C   0  0  0  0  0  0  0  0  0  0  0  0
  150.5899  139.1487  155.8225 N   0  5  0  0  0  0  0  0  0  0  0  0
  149.7061  139.7945  155.0440 C   0  0  0  0  0  0  0  0  0  0  0  0
  149.9196  141.0429  154.5980 N   0  0  0  0  0  0  0  0  0  0  0  0
  148.8859  141.5240  153.8060 N   0  0  0  0  0  0  0  0  0  0  0  0
  147.9184  140.6180  153.6668 C   0  0  0  0  0  0  0  0  0  0  0  0
  148.1833  139.0942  154.4875 S   0  0  0  0  0  0  0  0  0  0  0  0
  151.1033  140.8934  157.1563 N   0  0  0  0  0  0  0  0  0  0  0  0
  151.9048  141.8308  157.9417 C   0  0  0  0  0  0  0  0  0  0  0  0
  152.5632  141.0778  159.1166 C   0  0  0  0  0  0  0  0  0  0  0  0
  153.4062  141.9476  160.0651 C   0  0  0  0  0  0  0  0  0  0  0  0
  152.5467  142.8210  160.9930 C   0  0  0  0  0  0  0  0  0  0  0  0
  152.1202  144.1804  160.4118 C   0  0  0  0  0  0  0  0  0  0  0  0
  151.7961  144.2140  158.9080 C   0  0  0  0  0  0  0  0  0  0  0  0
  151.0053  143.0087  158.3715 C   0  0  0  0  0  0  0  0  0  0  0  0
  147.0450  140.8471  153.0748 H   0  0  0  0  0  0  0  0  0  0  0  0
  150.1078  141.0584  157.1349 H   0  0  0  0  0  0  0  0  0  0  0  0
  152.6913  142.2303  157.2987 H   0  0  0  0  0  0  0  0  0  0  0  0
  151.8019  140.5464  159.6897 H   0  0  0  0  0  0  0  0  0  0  0  0
  153.2124  140.3023  158.7080 H   0  0  0  0  0  0  0  0  0  0  0  0
  153.9950  141.2753  160.6898 H   0  0  0  0  0  0  0  0  0  0  0  0
  154.1292  142.5488  159.5127 H   0  0  0  0  0  0  0  0  0  0  0  0
  151.6617  142.2612  161.2979 H   0  0  0  0  0  0  0  0  0  0  0  0
  153.0972  143.0085  161.9154 H   0  0  0  0  0  0  0  0  0  0  0  0
  151.2542  144.5330  160.9732 H   0  0  0  0  0  0  0  0  0  0  0  0
  152.9076  144.9108  160.6021 H   0  0  0  0  0  0  0  0  0  0  0  0
  151.2274  145.1237  158.7112 H   0  0  0  0  0  0  0  0  0  0  0  0
  152.7183  144.3264  158.3365 H   0  0  0  0  0  0  0  0  0  0  0  0
  150.4524  143.3477  157.4939 H   0  0  0  0  0  0  0  0  0  0  0  0
  150.2512  142.6870  159.0911 H   0  0  0  0  0  0  0  0  0  0  0  0
  1  2  2  0  0  0  0
  2  3  1  0  0  0  0
  2  9  1  0  0  0  0
  3  4  1  0  0  0  0
  4  8  1  0  0  0  0
  4  5  2  0  0  0  0
  5  6  1  0  0  0  0
  6  7  2  0  0  0  0
  7  8  1  0  0  0  0
  7 17  1  0  0  0  0
  9 10  1  0  0  0  0
  9 18  1  0  0  0  0
 10 16  1  0  0  0  0
 10 11  1  0  0  0  0
 10 19  1  0  0  0  0
 11 12  1  0  0  0  0
 11 20  1  0  0  0  0
 11 21  1  0  0  0  0
 12 13  1  0  0  0  0
 12 22  1  0  0  0  0
 12 23  1  0  0  0  0
 13 14  1  0  0  0  0
 13 24  1  0  0  0  0
 13 25  1  0  0  0  0
 14 15  1  0  0  0  0
 14 26  1  0  0  0  0
 14 27  1  0  0  0  0
 15 16  1  0  0  0  0
 15 28  1  0  0  0  0
 15 29  1  0  0  0  0
 16 30  1  0  0  0  0
 16 31  1  0  0  0  0
M  CHG  1   3  -1
M  END
> <s_m_source_file>
AV-unprocessed.smi

> <i_m_source_file_index>
881

> <i_lp_mmshare_version>
43012

> <i_f3d_flags>
0

> <s_epik_input>
czFbY0hdbm5jMVtOSF1DKD1PKVtOSF1bQ0hdMltDSDJdW0NIMl1bQ0gyXVtDSDJdW0NIMl1bQ0gyXTI=

> <s_epik_cmdline>
J2VwaWtfcHl0aG9uJywgJy1waCcsICc3LjAnLCAnLXRuJywgJzgnLCAnLW1hJywgJzIwMCcsICctbWV0YWxfYmluZGluZycsICctaW1hZScsICc8aW5maWxlLm1hZT4nLCAnLW9tYWUnLCAnPG91dGZpbGUubWFlPic=

> <r_lp_tautomer_probability>
1

> <r_epik_Ionization_Penalty>
4.55263

> <r_epik_Ionization_Penalty_Charging>
4.50588

> <r_epik_Ionization_Penalty_Neutral>
0.0467569

> <r_epik_State_Penalty>
4.50558

> <r_epik_Charging_Adjusted_Penalty>
9.01146

> <i_epik_Tot_Q>
-1

> <i_epik_Tot_abs_Q>
1

> <r_epik_Metal_State_Penalty>
0.822218

> <b_epik_Metal_Only>
1

> <s_lp_Force_Field>
OPLS_2005

> <r_lp_Energy>
12.3928

> <b_lp_Chiralities_Consistent>
1

> <s_lp_Variant>
AV-unprocessed.smi:881-2

> <Gold.Version>
5.8.1

> <Gold.Id.Protein>
6NUR|6NUR_protein|mol2

> <Gold.PLP.Fitness>
38.3840

> <Gold.PLP.PLP>
-32.4980

> <Gold.PLP.part.hbond>
-3.1916

> <Gold.PLP.part.metal>
0.0000

> <Gold.PLP.part.buried>
-4.2417

> <Gold.PLP.part.nonpolar>
-25.7226

> <Gold.PLP.part.repulsive>
0.5168

> <Gold.PLP.ligand.clash>
0.0000

> <Gold.PLP.ligand.torsion>
0.5559

> <Gold.PLP.Chemscore.Hbond>
2.3280

> <Gold.PLP.Chemscore.CHOScore>
0.0000

> <Gold.PLP.Chemscore.Metal>
0.0000

> <Gold.Chemscore.Hbonds>
donor molecule, donor type, donor heavy atom, donor atom, acceptor molecule, acceptor atom, score
      P1  H  7989  7998       L1     5  0.61
      P1  H  7997  8009       L1     1  1.00
      P1  H  8011  8017       L1     6  0.72

> <Gold.PLP.Chemscore.Internal.Correction>
0.0138

> <Gold.Rescore>
     Score         DG    S(hbond)    S(metal)    S(lipo)     H(rot)  DE(clash)    DE(int)     intcor
     17.67     -19.25       1.92        0.00      84.89       1.00       0.22       1.37       ----

> <Gold.Chemscore.Fitness>
17.6703

> <Gold.Chemscore.DG>
-19.2547

> <Gold.Chemscore.ZeroCoef>
-5.4800

> <Gold.Chemscore.Hbond>
1.9168

> <Gold.Chemscore.Metal>
0.0000

> <Gold.Chemscore.Lipo>
84.8937

> <Gold.Chemscore.Internal_Hbond>
0.0000

> <Gold.Chemscore.DEClash>
0.2174

> <Gold.Chemscore.DEInternal>
1.3670

> <Gold.Chemscore.Rot>
1.0000

> <Gold.Chemscore.Internal.Correction>
   9.000000E+99

> <Gold.Chemscore.Hbonds>
donor molecule, donor type, donor heavy atom, donor atom, acceptor molecule, acceptor atom, score
      P1  H  7989  7998       L1     5  0.20
      P1  H  7997  8009       L1     1  0.99
      P1  H  8011  8017       L1     6  0.32

> <Gold.Chemscore.Hbond.Weighted>
-6.4021

> <Gold.Chemscore.Metal.Weighted>
-0.0000

> <Gold.Chemscore.Lipo.Weighted>
-9.9326

> <Gold.Chemscore.Internal_Hbond.Weighted>
0.0000

> <Gold.Chemscore.DEClash.Weighted>
0.2174

> <Gold.Chemscore.DEInternal.Weighted>
1.3670

> <Gold.Chemscore.Rot.Weighted>
2.5600

> <Gold.Chemscore.Internal.Correction.Weighted>
   9.000000E+99

> <Gold.Protein.RotatedTorsions>
[ 6907 6896 6895 6894 ] final  174.16 input  -60.11 | X-H torsion
[ 7974 7965 7964 7962 ] final   27.09 input  175.53 | X-H torsion
[ 8008 7997 7996 7995 ] final -153.92 input   59.86 | X-H torsion
[ 10167 10162 10161 10158 ] final  -76.21 input  -65.29 | X-H torsion
[ 10718 10713 10712 10709 ] final -121.18 input   66.30 | X-H torsion
[ 10763 10752 10751 10750 ] final   44.16 input  -60.55 | X-H torsion
[ 11005 11000 10999 10996 ] final  -28.34 input  -57.11 | X-H torsion

> <Gold.Protein.ActiveResidues>
 VAL166  LYS551  ARG553  GLY616  TRP617  ASP618  TYR619  PRO620  LYS621  CYS622 
 ASP623  PHE694  ASN695  SER759  ASP760  ASP761  ALA762  ILE779  LEU786  VAL792 
 PHE793  MET794  SER795  GLU796  ALA797  LYS798  CYS799  TRP800  GLU811  SER814 

> <Gold.Protein.RotatedAtoms>
  151.7567  133.3331  159.3406 H   0  0  0  0  0  0  0  0  0  0  0  0  # atno 6907 bound_to 6896
  150.7514  134.6143  159.6112 H   0  0  0  0  0  0  0  0  0  0  0  0  # atno 6908 bound_to 6896
  152.3433  134.7107  160.0309 H   0  0  0  0  0  0  0  0  0  0  0  0  # atno 6909 bound_to 6896
  146.1803  139.7239  142.8905 H   0  0  0  0  0  0  0  0  0  0  0  0  # atno 7974 bound_to 7965
  155.6783  140.0741  157.2494 H   0  0  0  0  0  0  0  0  0  0  0  0  # atno 8008 bound_to 7997
  154.4110  140.1686  156.2006 H   0  0  0  0  0  0  0  0  0  0  0  0  # atno 8009 bound_to 7997
  155.9557  140.3374  155.6449 H   0  0  0  0  0  0  0  0  0  0  0  0  # atno 8010 bound_to 7997
  140.4876  143.2387  151.7958 H   0  0  0  0  0  0  0  0  0  0  0  0  # atno 10167 bound_to 10162
  156.1317  130.6400  150.9631 H   0  0  0  0  0  0  0  0  0  0  0  0  # atno 10718 bound_to 10713
  152.9846  135.6079  154.3229 H   0  0  0  0  0  0  0  0  0  0  0  0  # atno 10763 bound_to 10752
  154.2937  135.2774  155.2645 H   0  0  0  0  0  0  0  0  0  0  0  0  # atno 10764 bound_to 10752
  154.4929  135.5887  153.6529 H   0  0  0  0  0  0  0  0  0  0  0  0  # atno 10765 bound_to 10752
  140.9200  133.7405  156.0788 H   0  0  0  0  0  0  0  0  0  0  0  0  # atno 11005 bound_to 11000
  145.4095  141.0395  143.3025 LP  0  0  0  0  0  0  0  0  0  0  0  0  # atno 17320 bound_to 7965
  144.8304  139.5639  143.6946 LP  0  0  0  0  0  0  0  0  0  0  0  0  # atno 17321 bound_to 7965
  139.4845  144.4691  151.9447 LP  0  0  0  0  0  0  0  0  0  0  0  0  # atno 17342 bound_to 10162
  140.3777  144.2775  150.5912 LP  0  0  0  0  0  0  0  0  0  0  0  0  # atno 17343 bound_to 10162
  157.6494  131.0899  150.8084 LP  0  0  0  0  0  0  0  0  0  0  0  0  # atno 17370 bound_to 10713
  156.8168  130.4970  149.5348 LP  0  0  0  0  0  0  0  0  0  0  0  0  # atno 17371 bound_to 10713
  140.8000  134.3519  157.5442 LP  0  0  0  0  0  0  0  0  0  0  0  0  # atno 17394 bound_to 11000
  139.8773  134.9192  156.3221 LP  0  0  0  0  0  0  0  0  0  0  0  0  # atno 17395 bound_to 11000

$$$$
