AV-unprocessed.smi:2606|AV-procd|sdf|10197|dock3
  -GOLD-   2272014203D 1   1.00000     0.00000
 Structure written by MMmdl.
 42 43  0  0  0  0  0  0  0  0  1 V2000
  155.8284  135.6560  156.4112 O   0  0  0  0  0  0  0  0  0  0  0  0
  156.1369  136.6931  157.0010 C   0  0  0  0  0  0  0  0  0  0  0  0
  157.1183  137.6650  156.3378 C   0  0  0  0  0  0  0  0  0  0  0  0
  157.2278  137.4195  154.8914 N   0  0  0  0  0  0  0  0  0  0  0  0
  158.1245  136.4128  154.4825 C   0  0  0  0  0  0  0  0  0  0  0  0
  158.3317  136.0955  153.1901 C   0  0  0  0  0  0  0  0  0  0  0  0
  159.2685  134.9685  152.7838 C   0  0  0  0  0  0  0  0  0  0  0  0
  159.3069  134.8305  151.4582 F   0  0  0  0  0  0  0  0  0  0  0  0
  160.5032  135.2304  153.2099 F   0  0  0  0  0  0  0  0  0  0  0  0
  158.8836  133.8074  153.3149 F   0  0  0  0  0  0  0  0  0  0  0  0
  157.5489  136.8266  152.2133 C   0  0  0  0  0  0  0  0  0  0  0  0
  156.6827  137.7883  152.5873 C   0  0  0  0  0  0  0  0  0  0  0  0
  156.4888  138.1406  153.9957 C   0  0  0  0  0  0  0  0  0  0  0  0
  155.7131  139.0297  154.3477 O   0  0  0  0  0  0  0  0  0  0  0  0
  155.6808  137.0629  158.2153 N   0  0  0  0  0  0  0  0  0  0  0  0
  154.8292  136.3917  159.0131 C   0  0  0  0  0  0  0  0  0  0  0  0
  154.2340  135.3530  158.7177 O   0  0  0  0  0  0  0  0  0  0  0  0
  154.7011  137.0038  160.1997 N   0  0  0  0  0  0  0  0  0  0  0  0
  154.2076  136.3789  161.4234 C   0  0  0  0  0  0  0  0  0  0  0  0
  154.1880  137.3949  162.5844 C   0  0  0  0  0  0  0  0  0  0  0  0
  153.7474  136.7357  163.9015 C   0  0  0  0  0  0  0  0  0  0  0  0
  154.6310  135.5261  164.2435 C   0  0  0  0  0  0  0  0  0  0  0  0
  154.6467  134.5087  163.0918 C   0  0  0  0  0  0  0  0  0  0  0  0
  155.0897  135.1656  161.7741 C   0  0  0  0  0  0  0  0  0  0  0  0
  156.7821  138.6866  156.5221 H   0  0  0  0  0  0  0  0  0  0  0  0
  158.0909  137.5985  156.8292 H   0  0  0  0  0  0  0  0  0  0  0  0
  158.6392  135.9158  155.2925 H   0  0  0  0  0  0  0  0  0  0  0  0
  157.6616  136.6028  151.1627 H   0  0  0  0  0  0  0  0  0  0  0  0
  156.1180  138.3145  151.8315 H   0  0  0  0  0  0  0  0  0  0  0  0
  156.0282  137.9419  158.5705 H   0  0  0  0  0  0  0  0  0  0  0  0
  154.9680  137.9754  160.2643 H   0  0  0  0  0  0  0  0  0  0  0  0
  153.1910  136.0189  161.2526 H   0  0  0  0  0  0  0  0  0  0  0  0
  155.1805  137.8294  162.7126 H   0  0  0  0  0  0  0  0  0  0  0  0
  153.5173  138.2227  162.3509 H   0  0  0  0  0  0  0  0  0  0  0  0
  153.7837  137.4642  164.7119 H   0  0  0  0  0  0  0  0  0  0  0  0
  152.7077  136.4165  163.8189 H   0  0  0  0  0  0  0  0  0  0  0  0
  155.6483  135.8622  164.4484 H   0  0  0  0  0  0  0  0  0  0  0  0
  154.2726  135.0495  165.1563 H   0  0  0  0  0  0  0  0  0  0  0  0
  155.3127  133.6808  163.3366 H   0  0  0  0  0  0  0  0  0  0  0  0
  153.6514  134.0795  162.9698 H   0  0  0  0  0  0  0  0  0  0  0  0
  155.0534  134.4309  160.9685 H   0  0  0  0  0  0  0  0  0  0  0  0
  156.1317  135.4779  161.8602 H   0  0  0  0  0  0  0  0  0  0  0  0
  1  2  2  0  0  0  0
  2  3  1  0  0  0  0
  2 15  1  0  0  0  0
  3  4  1  0  0  0  0
  3 25  1  0  0  0  0
  3 26  1  0  0  0  0
  4 13  1  0  0  0  0
  4  5  1  0  0  0  0
  5  6  2  0  0  0  0
  5 27  1  0  0  0  0
  6  7  1  0  0  0  0
  6 11  1  0  0  0  0
  7  8  1  0  0  0  0
  7  9  1  0  0  0  0
  7 10  1  0  0  0  0
 11 12  2  0  0  0  0
 11 28  1  0  0  0  0
 12 13  1  0  0  0  0
 12 29  1  0  0  0  0
 13 14  2  0  0  0  0
 15 16  1  0  0  0  0
 15 30  1  0  0  0  0
 16 17  2  0  0  0  0
 16 18  1  0  0  0  0
 18 19  1  0  0  0  0
 18 31  1  0  0  0  0
 19 24  1  0  0  0  0
 19 20  1  0  0  0  0
 19 32  1  0  0  0  0
 20 21  1  0  0  0  0
 20 33  1  0  0  0  0
 20 34  1  0  0  0  0
 21 22  1  0  0  0  0
 21 35  1  0  0  0  0
 21 36  1  0  0  0  0
 22 23  1  0  0  0  0
 22 37  1  0  0  0  0
 22 38  1  0  0  0  0
 23 24  1  0  0  0  0
 23 39  1  0  0  0  0
 23 40  1  0  0  0  0
 24 41  1  0  0  0  0
 24 42  1  0  0  0  0
M  END
> <s_m_source_file>
AV-unprocessed.smi

> <i_m_source_file_index>
2606

> <i_lp_mmshare_version>
43012

> <i_f3d_flags>
0

> <s_epik_input>
Tz1jMVtjSF1bY0hdYyhDKEYpKEYpRilbY0hdbjFbQ0gyXUMoPU8pW05IXUMoPU8pW05IXVtDSF0yW0NIMl1bQ0gyXVtDSDJdW0NIMl1bQ0gyXTI=

> <s_epik_cmdline>
J2VwaWtfcHl0aG9uJywgJy1waCcsICc3LjAnLCAnLXRuJywgJzgnLCAnLW1hJywgJzIwMCcsICctbWV0YWxfYmluZGluZycsICctaW1hZScsICc8aW5maWxlLm1hZT4nLCAnLW9tYWUnLCAnPG91dGZpbGUubWFlPic=

> <r_lp_tautomer_probability>
1

> <r_epik_Ionization_Penalty>
3.27177e-05

> <r_epik_Ionization_Penalty_Charging>
1.42456e-08

> <r_epik_Ionization_Penalty_Neutral>
3.27035e-05

> <r_epik_State_Penalty>
-0

> <r_epik_Charging_Adjusted_Penalty>
1.42456e-08

> <i_epik_Tot_Q>
0

> <i_epik_Tot_abs_Q>
0

> <r_epik_Metal_State_Penalty>
-0

> <b_epik_Metal_Only>
0

> <s_lp_Force_Field>
OPLS_2005

> <r_lp_Energy>
22.0809

> <b_lp_Chiralities_Consistent>
1

> <s_lp_Variant>
AV-unprocessed.smi:2606-1

> <Gold.Version>
5.8.1

> <Gold.Id.Protein>
6NUR|6NUR_protein|mol2

> <Gold.PLP.Fitness>
47.8682

> <Gold.PLP.PLP>
-42.9750

> <Gold.PLP.part.hbond>
-2.6314

> <Gold.PLP.part.metal>
0.0000

> <Gold.PLP.part.buried>
-5.7455

> <Gold.PLP.part.nonpolar>
-36.1584

> <Gold.PLP.part.repulsive>
0.1216

> <Gold.PLP.ligand.clash>
0.0000

> <Gold.PLP.ligand.torsion>
0.7001

> <Gold.PLP.Chemscore.Hbond>
2.0760

> <Gold.PLP.Chemscore.CHOScore>
0.0000

> <Gold.PLP.Chemscore.Metal>
0.0000

> <Gold.Chemscore.Hbonds>
donor molecule, donor type, donor heavy atom, donor atom, acceptor molecule, acceptor atom, score
      P1  H  6896  6908       L1    17  0.42
      P1  H  7997  8010       L1    14  0.58
      P1  H 10752 10765       L1     1  1.00

> <Gold.PLP.Chemscore.Internal.Correction>
0.0654

> <Gold.Rescore>
     Score         DG    S(hbond)    S(metal)    S(lipo)     H(rot)  DE(clash)    DE(int)     intcor
     18.94     -21.03       2.50        0.00      97.63       1.65       0.00       2.09       ----

> <Gold.Chemscore.Fitness>
18.9397

> <Gold.Chemscore.DG>
-21.0339

> <Gold.Chemscore.ZeroCoef>
-5.4800

> <Gold.Chemscore.Hbond>
2.5008

> <Gold.Chemscore.Metal>
0.0000

> <Gold.Chemscore.Lipo>
97.6314

> <Gold.Chemscore.Internal_Hbond>
0.0000

> <Gold.Chemscore.DEClash>
0.0038

> <Gold.Chemscore.DEInternal>
2.0904

> <Gold.Chemscore.Rot>
1.6491

> <Gold.Chemscore.Internal.Correction>
   9.000000E+99

> <Gold.Chemscore.Hbonds>
donor molecule, donor type, donor heavy atom, donor atom, acceptor molecule, acceptor atom, score
      P1  H  6896  6908       L1    17  0.40
      P1  H  7997  8010       L1    14  0.58
      P1  H 10752 10765       L1     1  0.98

> <Gold.Chemscore.Hbond.Weighted>
-8.3527

> <Gold.Chemscore.Metal.Weighted>
-0.0000

> <Gold.Chemscore.Lipo.Weighted>
-11.4229

> <Gold.Chemscore.Internal_Hbond.Weighted>
0.0000

> <Gold.Chemscore.DEClash.Weighted>
0.0038

> <Gold.Chemscore.DEInternal.Weighted>
2.0904

> <Gold.Chemscore.Rot.Weighted>
4.2216

> <Gold.Chemscore.Internal.Correction.Weighted>
   9.000000E+99

> <Gold.Protein.RotatedTorsions>
[ 6907 6896 6895 6894 ] final  -44.16 input  -60.11 | X-H torsion
[ 7974 7965 7964 7962 ] final  128.34 input  175.53 | X-H torsion
[ 8008 7997 7996 7995 ] final  148.58 input   59.86 | X-H torsion
[ 10167 10162 10161 10158 ] final -116.18 input  -65.29 | X-H torsion
[ 10718 10713 10712 10709 ] final   56.16 input   66.30 | X-H torsion
[ 10763 10752 10751 10750 ] final  -72.96 input  -60.55 | X-H torsion
[ 11005 11000 10999 10996 ] final   20.42 input  -57.11 | X-H torsion

> <Gold.Protein.ActiveResidues>
 VAL166  LYS551  ARG553  GLY616  TRP617  ASP618  TYR619  PRO620  LYS621  CYS622 
 ASP623  PHE694  ASN695  SER759  ASP760  ASP761  ALA762  ILE779  LEU786  VAL792 
 PHE793  MET794  SER795  GLU796  ALA797  LYS798  CYS799  TRP800  GLU811  SER814 

> <Gold.Protein.RotatedAtoms>
  150.9358  134.8771  159.7580 H   0  0  0  0  0  0  0  0  0  0  0  0  # atno 6907 bound_to 6896
  152.5058  134.4012  159.9427 H   0  0  0  0  0  0  0  0  0  0  0  0  # atno 6908 bound_to 6896
  151.4036  133.3709  159.2770 H   0  0  0  0  0  0  0  0  0  0  0  0  # atno 6909 bound_to 6896
  145.0406  139.3967  143.5104 H   0  0  0  0  0  0  0  0  0  0  0  0  # atno 7974 bound_to 7965
  156.2786  140.2125  156.5721 H   0  0  0  0  0  0  0  0  0  0  0  0  # atno 8008 bound_to 7997
  154.7127  140.0510  157.0588 H   0  0  0  0  0  0  0  0  0  0  0  0  # atno 8009 bound_to 7997
  155.0584  140.3164  155.4672 H   0  0  0  0  0  0  0  0  0  0  0  0  # atno 8010 bound_to 7997
  140.0820  143.4779  152.1920 H   0  0  0  0  0  0  0  0  0  0  0  0  # atno 10167 bound_to 10162
  157.5407  130.8695  149.8819 H   0  0  0  0  0  0  0  0  0  0  0  0  # atno 10718 bound_to 10713
  154.4529  135.5913  153.6204 H   0  0  0  0  0  0  0  0  0  0  0  0  # atno 10763 bound_to 10752
  152.9815  135.6025  154.3582 H   0  0  0  0  0  0  0  0  0  0  0  0  # atno 10764 bound_to 10752
  154.3445  135.2841  155.2384 H   0  0  0  0  0  0  0  0  0  0  0  0  # atno 10765 bound_to 10752
  140.4028  134.1700  155.7664 H   0  0  0  0  0  0  0  0  0  0  0  0  # atno 11005 bound_to 11000
  146.3509  140.0004  142.8676 LP  0  0  0  0  0  0  0  0  0  0  0  0  # atno 17320 bound_to 7965
  145.1653  140.9693  143.4353 LP  0  0  0  0  0  0  0  0  0  0  0  0  # atno 17321 bound_to 7965
  139.5774  144.7494  151.3729 LP  0  0  0  0  0  0  0  0  0  0  0  0  # atno 17342 bound_to 10162
  140.7073  143.7481  150.7504 LP  0  0  0  0  0  0  0  0  0  0  0  0  # atno 17343 bound_to 10162
  156.0495  130.3720  150.1236 LP  0  0  0  0  0  0  0  0  0  0  0  0  # atno 17370 bound_to 10713
  156.9416  130.9746  151.3515 LP  0  0  0  0  0  0  0  0  0  0  0  0  # atno 17371 bound_to 10713
  141.1850  133.8332  157.1119 LP  0  0  0  0  0  0  0  0  0  0  0  0  # atno 17394 bound_to 11000
  140.0323  134.9895  157.0805 LP  0  0  0  0  0  0  0  0  0  0  0  0  # atno 17395 bound_to 11000

$$$$
