AV-unprocessed.smi:1292|AV-procd|sdf|5397|dock10
  -GOLD-   22720 4553D 1   1.00000     0.00000
 Structure written by MMmdl.
 39 40  0  0  0  0  0  0  0  0  2 V2000
  151.4856  144.0303  158.9684 C   0  0  0  0  0  0  0  0  0  0  0  0
  151.9155  142.9817  160.0039 C   0  0  2  0  0  0  0  0  0  0  0  0
  152.1519  143.6149  161.3821 C   0  0  0  0  0  0  0  0  0  0  0  0
  152.5606  142.5291  162.3812 C   0  0  0  0  0  0  0  0  0  0  0  0
  153.8069  141.7706  161.8998 C   0  0  0  0  0  0  0  0  0  0  0  0
  153.6156  141.2258  160.5397 N   0  0  0  0  0  0  0  0  0  0  0  0
  154.6920  139.9693  160.0071 S   0  0  0  0  0  0  0  0  0  0  0  0
  155.9470  140.6287  159.6111 O   0  0  0  0  0  0  0  0  0  0  0  0
  154.7483  138.9840  161.1000 O   0  0  0  0  0  0  0  0  0  0  0  0
  153.8001  139.4852  158.7447 N   0  5  0  0  0  0  0  0  0  0  0  0
  153.5712  138.0683  158.5271 C   0  0  0  0  0  0  0  0  0  0  0  0
  153.8091  137.7041  157.0425 C   0  0  0  0  0  0  0  0  0  0  0  0
  152.6188  137.9409  156.1134 C   0  0  0  0  0  0  0  0  0  0  0  0
  152.0181  139.2177  156.0210 C   0  0  0  0  0  0  0  0  0  0  0  0
  150.9250  139.3880  155.1495 C   0  0  0  0  0  0  0  0  0  0  0  0
  150.4676  138.2814  154.4087 C   0  0  0  0  0  0  0  0  0  0  0  0
  151.1251  137.0467  154.5758 C   0  0  0  0  0  0  0  0  0  0  0  0
  152.1706  136.8715  155.4109 N   0  0  0  0  0  0  0  0  0  0  0  0
  153.1719  142.2204  159.5393 C   0  0  0  0  0  0  0  0  0  0  0  0
  152.2597  144.7845  158.8236 H   0  0  0  0  0  0  0  0  0  0  0  0
  150.5751  144.5417  159.2813 H   0  0  0  0  0  0  0  0  0  0  0  0
  151.2875  143.5671  158.0014 H   0  0  0  0  0  0  0  0  0  0  0  0
  151.1019  142.2608  160.0976 H   0  0  0  0  0  0  0  0  0  0  0  0
  152.9329  144.3739  161.3189 H   0  0  0  0  0  0  0  0  0  0  0  0
  151.2492  144.1181  161.7296 H   0  0  0  0  0  0  0  0  0  0  0  0
  152.7536  142.9747  163.3573 H   0  0  0  0  0  0  0  0  0  0  0  0
  151.7368  141.8274  162.5191 H   0  0  0  0  0  0  0  0  0  0  0  0
  154.6742  142.4323  161.8979 H   0  0  0  0  0  0  0  0  0  0  0  0
  154.0291  140.9613  162.5947 H   0  0  0  0  0  0  0  0  0  0  0  0
  154.2362  137.4653  159.1461 H   0  0  0  0  0  0  0  0  0  0  0  0
  152.5592  137.7719  158.8055 H   0  0  0  0  0  0  0  0  0  0  0  0
  154.6721  138.2535  156.6627 H   0  0  0  0  0  0  0  0  0  0  0  0
  154.0825  136.6505  156.9782 H   0  0  0  0  0  0  0  0  0  0  0  0
  152.3933  140.0493  156.5988 H   0  0  0  0  0  0  0  0  0  0  0  0
  150.4469  140.3512  155.0497 H   0  0  0  0  0  0  0  0  0  0  0  0
  149.6336  138.3757  153.7295 H   0  0  0  0  0  0  0  0  0  0  0  0
  150.8012  136.1756  154.0259 H   0  0  0  0  0  0  0  0  0  0  0  0
  152.9615  141.7189  158.5949 H   0  0  0  0  0  0  0  0  0  0  0  0
  153.9898  142.9167  159.3478 H   0  0  0  0  0  0  0  0  0  0  0  0
  1  2  1  0  0  0  0
  1 20  1  0  0  0  0
  1 21  1  0  0  0  0
  1 22  1  0  0  0  0
  2 19  1  0  0  0  0
  2  3  1  0  0  0  0
  2 23  1  0  0  0  0
  3  4  1  0  0  0  0
  3 24  1  0  0  0  0
  3 25  1  0  0  0  0
  4  5  1  0  0  0  0
  4 26  1  0  0  0  0
  4 27  1  0  0  0  0
  5  6  1  0  0  0  0
  5 28  1  0  0  0  0
  5 29  1  0  0  0  0
  6  7  1  0  0  0  0
  6 19  1  0  0  0  0
  7  8  2  0  0  0  0
  7  9  2  0  0  0  0
  7 10  1  0  0  0  0
 10 11  1  0  0  0  0
 11 12  1  0  0  0  0
 11 30  1  0  0  0  0
 11 31  1  0  0  0  0
 12 13  1  0  0  0  0
 12 32  1  0  0  0  0
 12 33  1  0  0  0  0
 13 18  1  0  0  0  0
 13 14  2  0  0  0  0
 14 15  1  0  0  0  0
 14 34  1  0  0  0  0
 15 16  2  0  0  0  0
 15 35  1  0  0  0  0
 16 17  1  0  0  0  0
 16 36  1  0  0  0  0
 17 18  2  0  0  0  0
 17 37  1  0  0  0  0
 19 38  1  0  0  0  0
 19 39  1  0  0  0  0
M  CHG  1  10  -1
M  END
> <s_m_source_file>
AV-unprocessed.smi

> <i_m_source_file_index>
1292

> <i_lp_mmshare_version>
43012

> <i_f3d_flags>
0

> <s_epik_input>
W0NIM11bQ0BASF0xW0NIMl1bQ0gyXVtDSDJdTihbQ0gyXTEpUyg9TykoPU8pW05IXVtDSDJdW0NIMl1jMltjSF1bY0hdW2NIXVtjSF1uMg==

> <s_epik_cmdline>
J2VwaWtfcHl0aG9uJywgJy1waCcsICc3LjAnLCAnLXRuJywgJzgnLCAnLW1hJywgJzIwMCcsICctbWV0YWxfYmluZGluZycsICctaW1hZScsICc8aW5maWxlLm1hZT4nLCAnLW9tYWUnLCAnPG91dGZpbGUubWFlPic=

> <r_epik_Ionization_Penalty>
2.02944

> <r_epik_Ionization_Penalty_Charging>
1.95606

> <r_epik_Ionization_Penalty_Neutral>
0.0733799

> <r_epik_State_Penalty>
2.47711

> <r_epik_Charging_Adjusted_Penalty>
4.43317

> <i_epik_Tot_Q>
-1

> <i_epik_Tot_abs_Q>
1

> <r_epik_Metal_State_Penalty>
0.729901

> <b_epik_Metal_Only>
0

> <s_lp_Force_Field>
OPLS_2005

> <r_lp_Energy>
8.05256

> <b_lp_Chiralities_Consistent>
1

> <s_lp_Variant>
AV-unprocessed.smi:1292-3

> <Gold.Version>
5.8.1

> <Gold.Id.Protein>
6NUR|6NUR_protein|mol2

> <Gold.PLP.Fitness>
56.7546

> <Gold.PLP.PLP>
-45.7291

> <Gold.PLP.part.hbond>
-2.2381

> <Gold.PLP.part.metal>
0.0000

> <Gold.PLP.part.buried>
-1.8178

> <Gold.PLP.part.nonpolar>
-40.8490

> <Gold.PLP.part.repulsive>
0.0692

> <Gold.PLP.ligand.clash>
0.0000

> <Gold.PLP.ligand.torsion>
1.9295

> <Gold.PLP.Chemscore.Hbond>
2.8960

> <Gold.PLP.Chemscore.CHOScore>
1.0347

> <Gold.PLP.Chemscore.Metal>
0.0000

> <Gold.Chemscore.Hbonds>
donor molecule, donor type, donor heavy atom, donor atom, acceptor molecule, acceptor atom, score
      P1  H  7997  8009       L1    10  2.00
      P1  H 10752 10764       L1    18  0.68
      L1  C    17    37       P1  7948  0.08
      L1  C    17    37       P1  7949  0.59

> <Gold.PLP.Chemscore.Internal.Correction>
3.0924

> <Gold.Rescore>
     Score         DG    S(hbond)    S(metal)    S(lipo)     H(rot)  DE(clash)    DE(int)     intcor
     17.70     -19.75       1.23        0.00     114.82       1.27       0.07       1.98       ----

> <Gold.Chemscore.Fitness>
17.7035

> <Gold.Chemscore.DG>
-19.7521

> <Gold.Chemscore.ZeroCoef>
-5.4800

> <Gold.Chemscore.Hbond>
1.2274

> <Gold.Chemscore.Metal>
0.0000

> <Gold.Chemscore.Lipo>
114.8173

> <Gold.Chemscore.Internal_Hbond>
0.0000

> <Gold.Chemscore.DEClash>
0.0718

> <Gold.Chemscore.DEInternal>
1.9768

> <Gold.Chemscore.Rot>
1.2738

> <Gold.Chemscore.Internal.Correction>
   9.000000E+99

> <Gold.Chemscore.Hbonds>
donor molecule, donor type, donor heavy atom, donor atom, acceptor molecule, acceptor atom, score
      P1  H  7997  8009       L1    10  0.28
      P1  H 10752 10764       L1    18  0.12

> <Gold.Chemscore.Hbond.Weighted>
-4.0995

> <Gold.Chemscore.Metal.Weighted>
-0.0000

> <Gold.Chemscore.Lipo.Weighted>
-13.4336

> <Gold.Chemscore.Internal_Hbond.Weighted>
0.0000

> <Gold.Chemscore.DEClash.Weighted>
0.0718

> <Gold.Chemscore.DEInternal.Weighted>
1.9768

> <Gold.Chemscore.Rot.Weighted>
3.2610

> <Gold.Chemscore.Internal.Correction.Weighted>
   9.000000E+99

> <Gold.Protein.RotatedTorsions>
[ 6907 6896 6895 6894 ] final  -64.17 input  -60.11 | X-H torsion
[ 7974 7965 7964 7962 ] final   59.72 input  175.53 | X-H torsion
[ 8008 7997 7996 7995 ] final  149.57 input   59.86 | X-H torsion
[ 10167 10162 10161 10158 ] final -150.53 input  -65.29 | X-H torsion
[ 10718 10713 10712 10709 ] final -100.86 input   66.30 | X-H torsion
[ 10763 10752 10751 10750 ] final  -66.44 input  -60.55 | X-H torsion
[ 11005 11000 10999 10996 ] final   38.60 input  -57.11 | X-H torsion

> <Gold.Protein.ActiveResidues>
 VAL166  LYS551  ARG553  GLY616  TRP617  ASP618  TYR619  PRO620  LYS621  CYS622 
 ASP623  PHE694  ASN695  SER759  ASP760  ASP761  ALA762  ILE779  LEU786  VAL792 
 PHE793  MET794  SER795  GLU796  ALA797  LYS798  CYS799  TRP800  GLU811  SER814 

> <Gold.Protein.RotatedAtoms>
  150.7602  134.6334  159.6198 H   0  0  0  0  0  0  0  0  0  0  0  0  # atno 6907 bound_to 6896
  152.3605  134.6876  160.0217 H   0  0  0  0  0  0  0  0  0  0  0  0  # atno 6908 bound_to 6896
  151.7267  133.3280  159.3366 H   0  0  0  0  0  0  0  0  0  0  0  0  # atno 6909 bound_to 6896
  145.9041  139.3603  143.0575 H   0  0  0  0  0  0  0  0  0  0  0  0  # atno 7974 bound_to 7965
  156.2750  140.2098  156.5879 H   0  0  0  0  0  0  0  0  0  0  0  0  # atno 8008 bound_to 7997
  154.7006  140.0521  157.0477 H   0  0  0  0  0  0  0  0  0  0  0  0  # atno 8009 bound_to 7997
  155.0740  140.3179  155.4624 H   0  0  0  0  0  0  0  0  0  0  0  0  # atno 8010 bound_to 7997
  139.7346  143.8755  152.2545 H   0  0  0  0  0  0  0  0  0  0  0  0  # atno 10167 bound_to 10162
  156.0176  130.5347  150.6879 H   0  0  0  0  0  0  0  0  0  0  0  0  # atno 10718 bound_to 10713
  154.3598  135.6118  153.5685 H   0  0  0  0  0  0  0  0  0  0  0  0  # atno 10763 bound_to 10752
  152.9794  135.5812  154.4646 H   0  0  0  0  0  0  0  0  0  0  0  0  # atno 10764 bound_to 10752
  154.4381  135.2849  155.1844 H   0  0  0  0  0  0  0  0  0  0  0  0  # atno 10765 bound_to 10752
  140.2111  134.3754  155.8049 H   0  0  0  0  0  0  0  0  0  0  0  0  # atno 11005 bound_to 11000
  145.8754  140.9395  143.0629 LP  0  0  0  0  0  0  0  0  0  0  0  0  # atno 17320 bound_to 7965
  144.6738  140.0710  143.7473 LP  0  0  0  0  0  0  0  0  0  0  0  0  # atno 17321 bound_to 7965
  139.8688  144.7079  150.9012 LP  0  0  0  0  0  0  0  0  0  0  0  0  # atno 17342 bound_to 10162
  140.7777  143.3756  151.1570 LP  0  0  0  0  0  0  0  0  0  0  0  0  # atno 17343 bound_to 10162
  157.4567  131.0878  151.0789 LP  0  0  0  0  0  0  0  0  0  0  0  0  # atno 17370 bound_to 10713
  157.1289  130.6093  149.5524 LP  0  0  0  0  0  0  0  0  0  0  0  0  # atno 17371 bound_to 10713
  141.2226  133.7143  156.8419 LP  0  0  0  0  0  0  0  0  0  0  0  0  # atno 17394 bound_to 11000
  140.1950  134.8938  157.3104 LP  0  0  0  0  0  0  0  0  0  0  0  0  # atno 17395 bound_to 11000

$$$$
