AV-unprocessed.smi:54|AV-procd|sdf|547|dock7
  -GOLD-   2262016443D 1   1.00000     0.00000
 Structure written by MMmdl.
 43 45  0  0  0  0  0  0  0  0  2 V2000
  151.1294  143.5019  159.9489 C   0  0  0  0  0  0  0  0  0  0  0  0
  152.5526  143.3742  159.3808 C   0  0  0  0  0  0  0  0  0  0  0  0
  152.8216  144.4392  158.3047 C   0  0  0  0  0  0  0  0  0  0  0  0
  152.7922  141.9649  158.8203 C   0  0  0  0  0  0  0  0  0  0  0  0
  153.6550  141.2529  159.3386 O   0  0  0  0  0  0  0  0  0  0  0  0
  152.0000  141.6153  157.7823 N   0  0  0  0  0  0  0  0  0  0  0  0
  151.9519  140.4118  157.0685 C   0  0  0  0  0  0  0  0  0  0  0  0
  150.7627  140.1536  156.5806 N   0  0  0  0  0  0  0  0  0  0  0  0
  150.7271  138.9715  155.8659 C   0  0  0  0  0  0  0  0  0  0  0  0
  151.7560  138.1014  155.6326 C   0  0  0  0  0  0  0  0  0  0  0  0
  151.3377  137.0119  154.8785 N   0  0  0  0  0  0  0  0  0  0  0  0
  150.0475  137.2835  154.6873 C   0  0  0  0  0  0  0  0  0  0  0  0
  149.6106  138.4396  155.2306 N   0  0  0  0  0  0  0  0  0  0  0  0
  148.2298  139.0242  155.2055 C   0  0  2  0  0  0  0  0  0  0  0  0
  147.4213  138.2184  154.4000 O   0  0  0  0  0  0  0  0  0  0  0  0
  147.3827  138.7551  153.0819 C   0  0  1  0  0  0  0  0  0  0  0  0
  146.2154  138.1664  152.2702 C   0  0  0  0  0  0  0  0  0  0  0  0
  146.4678  138.3065  150.8883 O   0  0  0  0  0  0  0  0  0  0  0  0
  147.3088  140.2610  153.3625 C   0  0  1  0  0  0  0  0  0  0  0  0
  145.9775  140.6447  153.6711 O   0  0  0  0  0  0  0  0  0  0  0  0
  148.2629  140.4177  154.5480 C   0  0  1  0  0  0  0  0  0  0  0  0
  147.8858  141.4602  155.4278 O   0  0  0  0  0  0  0  0  0  0  0  0
  153.0762  138.4586  156.2033 C   0  0  0  0  0  0  0  0  0  0  0  0
  154.0326  137.7086  156.0165 O   0  0  0  0  0  0  0  0  0  0  0  0
  153.1134  139.6296  156.9072 N   0  5  0  0  0  0  0  0  0  0  0  0
  147.9018  139.0105  156.2458 H   0  0  0  0  0  0  0  0  0  0  0  0
  148.3289  138.5469  152.5783 H   0  0  0  0  0  0  0  0  0  0  0  0
  147.6385  140.8462  152.5035 H   0  0  0  0  0  0  0  0  0  0  0  0
  149.2682  140.6208  154.1748 H   0  0  0  0  0  0  0  0  0  0  0  0
  150.9376  142.7448  160.7104 H   0  0  0  0  0  0  0  0  0  0  0  0
  150.3737  143.3907  159.1701 H   0  0  0  0  0  0  0  0  0  0  0  0
  150.9824  144.4771  160.4137 H   0  0  0  0  0  0  0  0  0  0  0  0
  153.2535  143.5433  160.2000 H   0  0  0  0  0  0  0  0  0  0  0  0
  153.8261  144.3397  157.8914 H   0  0  0  0  0  0  0  0  0  0  0  0
  152.7378  145.4433  158.7210 H   0  0  0  0  0  0  0  0  0  0  0  0
  152.1127  144.3641  157.4790 H   0  0  0  0  0  0  0  0  0  0  0  0
  151.3112  142.3075  157.5281 H   0  0  0  0  0  0  0  0  0  0  0  0
  149.4044  136.6178  154.1309 H   0  0  0  0  0  0  0  0  0  0  0  0
  146.0449  137.1181  152.5185 H   0  0  0  0  0  0  0  0  0  0  0  0
  145.2948  138.7084  152.4889 H   0  0  0  0  0  0  0  0  0  0  0  0
  145.6772  138.6077  150.4675 H   0  0  0  0  0  0  0  0  0  0  0  0
  145.4427  140.5226  152.9021 H   0  0  0  0  0  0  0  0  0  0  0  0
  147.2978  141.1031  156.0758 H   0  0  0  0  0  0  0  0  0  0  0  0
  1  2  1  0  0  0  0
  1 30  1  0  0  0  0
  1 31  1  0  0  0  0
  1 32  1  0  0  0  0
  2  3  1  0  0  0  0
  2  4  1  0  0  0  0
  2 33  1  0  0  0  0
  3 34  1  0  0  0  0
  3 35  1  0  0  0  0
  3 36  1  0  0  0  0
  4  5  2  0  0  0  0
  4  6  1  0  0  0  0
  6 37  1  0  0  0  0
  6  7  1  0  0  0  0
  7 25  1  0  0  0  0
  7  8  2  0  0  0  0
  8  9  1  0  0  0  0
  9 13  1  0  0  0  0
  9 10  2  0  0  0  0
 10 11  1  0  0  0  0
 10 23  1  0  0  0  0
 11 12  2  0  0  0  0
 12 13  1  0  0  0  0
 12 38  1  0  0  0  0
 13 14  1  0  0  0  0
 14 26  1  0  0  0  0
 14 21  1  0  0  0  0
 14 15  1  0  0  0  0
 15 16  1  0  0  0  0
 16 27  1  0  0  0  0
 16 17  1  0  0  0  0
 16 19  1  0  0  0  0
 17 18  1  0  0  0  0
 17 39  1  0  0  0  0
 17 40  1  0  0  0  0
 18 41  1  0  0  0  0
 19 28  1  0  0  0  0
 19 20  1  0  0  0  0
 19 21  1  0  0  0  0
 20 42  1  0  0  0  0
 21 29  1  0  0  0  0
 21 22  1  0  0  0  0
 22 43  1  0  0  0  0
 23 24  2  0  0  0  0
 23 25  1  0  0  0  0
M  CHG  1  25  -1
M  END
> <s_m_source_file>
AV-unprocessed.smi

> <i_m_source_file_index>
54

> <i_lp_mmshare_version>
43012

> <i_f3d_flags>
0

> <s_epik_input>
W0NIM11bQ0hdKFtDSDNdKUMoPU8pW05IXWMobjEpW25IXWMoPU8pYyhjMTIpbltjSF1uMltDQEBIXTNPW0NASF0oW0NIMl1bT0hdKVtDQEBIXShbT0hdKVtDQEhdM1tPSF0=

> <s_epik_cmdline>
J2VwaWtfcHl0aG9uJywgJy1waCcsICc3LjAnLCAnLXRuJywgJzgnLCAnLW1hJywgJzIwMCcsICctbWV0YWxfYmluZGluZycsICctaW1hZScsICc8aW5maWxlLm1hZT4nLCAnLW9tYWUnLCAnPG91dGZpbGUubWFlPic=

> <r_lp_tautomer_probability>
0.85571

> <r_epik_Ionization_Penalty>
1.75936

> <r_epik_Ionization_Penalty_Charging>
4.55893e-11

> <r_epik_Ionization_Penalty_Neutral>
1.75936

> <r_epik_State_Penalty>
1.72072

> <r_epik_Charging_Adjusted_Penalty>
1.72072

> <i_epik_Tot_Q>
-1

> <i_epik_Tot_abs_Q>
1

> <r_epik_Metal_State_Penalty>
0.400338

> <b_epik_Metal_Only>
1

> <s_epik_Chemistry_Notes>
This compound contains an acetal/aminal-like group ( X-CH(R)-Y where X, Y are N, S, or O) that may be acid/base labile, releasing an aldehyde.

> <s_lp_Force_Field>
OPLS_2005

> <r_lp_Energy>
64.1359

> <b_lp_Chiralities_Consistent>
1

> <s_lp_Variant>
AV-unprocessed.smi:54-19

> <Gold.Version>
5.8.1

> <Gold.Id.Protein>
6NUR|6NUR_protein|mol2

> <Gold.PLP.Fitness>
51.8616

> <Gold.PLP.PLP>
-33.7869

> <Gold.PLP.part.hbond>
-6.2599

> <Gold.PLP.part.metal>
0.0000

> <Gold.PLP.part.buried>
-1.4076

> <Gold.PLP.part.nonpolar>
-27.5212

> <Gold.PLP.part.repulsive>
0.3126

> <Gold.PLP.ligand.clash>
0.0000

> <Gold.PLP.ligand.torsion>
0.4720

> <Gold.PLP.Chemscore.Hbond>
5.3215

> <Gold.PLP.Chemscore.CHOScore>
1.0000

> <Gold.PLP.Chemscore.Metal>
0.0000

> <Gold.Chemscore.Hbonds>
donor molecule, donor type, donor heavy atom, donor atom, acceptor molecule, acceptor atom, score
      L1  H    18    41       P1 10171  1.00
      L1  H    20    42       P1 10175  0.77
      P1  H  7954  7966       L1    18  1.00
      P1  H  7997  8010       L1    25  1.56
      P1  H 10752 10765       L1    11  0.71
      L1  C    12    38       P1  7948  1.00

> <Gold.PLP.Chemscore.Internal.Correction>
0.0542

> <Gold.Rescore>
     Score         DG    S(hbond)    S(metal)    S(lipo)     H(rot)  DE(clash)    DE(int)     intcor
     13.99     -15.82       3.76        0.00      69.03       4.02       0.31       1.52       ----

> <Gold.Chemscore.Fitness>
13.9950

> <Gold.Chemscore.DG>
-15.8211

> <Gold.Chemscore.ZeroCoef>
-5.4800

> <Gold.Chemscore.Hbond>
3.7587

> <Gold.Chemscore.Metal>
0.0000

> <Gold.Chemscore.Lipo>
69.0273

> <Gold.Chemscore.Internal_Hbond>
0.0000

> <Gold.Chemscore.DEClash>
0.3058

> <Gold.Chemscore.DEInternal>
1.5203

> <Gold.Chemscore.Rot>
4.0192

> <Gold.Chemscore.Internal.Correction>
   9.000000E+99

> <Gold.Chemscore.Hbonds>
donor molecule, donor type, donor heavy atom, donor atom, acceptor molecule, acceptor atom, score
      L1  H    18    41       P1 10171  1.00
      L1  H    20    42       P1 10175  0.61
      P1  H  7954  7966       L1    18  0.90
      P1  H  7997  8010       L1    25  0.41
      P1  H 10752 10765       L1    11  0.58

> <Gold.Chemscore.Hbond.Weighted>
-12.5541

> <Gold.Chemscore.Metal.Weighted>
-0.0000

> <Gold.Chemscore.Lipo.Weighted>
-8.0762

> <Gold.Chemscore.Internal_Hbond.Weighted>
0.0000

> <Gold.Chemscore.DEClash.Weighted>
0.3058

> <Gold.Chemscore.DEInternal.Weighted>
1.5203

> <Gold.Chemscore.Rot.Weighted>
10.2893

> <Gold.Chemscore.Internal.Correction.Weighted>
   9.000000E+99

> <Gold.Protein.RotatedTorsions>
[ 6907 6896 6895 6894 ] final   33.63 input  -60.11 | X-H torsion
[ 7974 7965 7964 7962 ] final  105.99 input  175.53 | X-H torsion
[ 8008 7997 7996 7995 ] final   40.41 input   59.86 | X-H torsion
[ 10167 10162 10161 10158 ] final  -22.60 input  -65.29 | X-H torsion
[ 10718 10713 10712 10709 ] final  171.19 input   66.30 | X-H torsion
[ 10763 10752 10751 10750 ] final  173.72 input  -60.55 | X-H torsion
[ 11005 11000 10999 10996 ] final -128.77 input  -57.11 | X-H torsion

> <Gold.Protein.ActiveResidues>
 VAL166  LYS551  ARG553  GLY616  TRP617  ASP618  TYR619  PRO620  LYS621  CYS622 
 ASP623  PHE694  ASN695  SER759  ASP760  ASP761  ALA762  ILE779  LEU786  VAL792 
 PHE793  MET794  SER795  GLU796  ALA797  LYS798  CYS799  TRP800  GLU811  SER814 

> <Gold.Protein.RotatedAtoms>
  152.0911  134.9406  160.0571 H   0  0  0  0  0  0  0  0  0  0  0  0  # atno 6907 bound_to 6896
  152.0657  133.4078  159.4445 H   0  0  0  0  0  0  0  0  0  0  0  0  # atno 6908 bound_to 6896
  150.6837  134.3069  159.4773 H   0  0  0  0  0  0  0  0  0  0  0  0  # atno 6909 bound_to 6896
  145.3124  139.2536  143.3756 H   0  0  0  0  0  0  0  0  0  0  0  0  # atno 7974 bound_to 7965
  155.2527  140.3353  155.4280 H   0  0  0  0  0  0  0  0  0  0  0  0  # atno 8008 bound_to 7997
  156.2209  140.1808  156.7523 H   0  0  0  0  0  0  0  0  0  0  0  0  # atno 8009 bound_to 7997
  154.5823  140.0651  156.9107 H   0  0  0  0  0  0  0  0  0  0  0  0  # atno 8010 bound_to 7997
  140.7286  143.4520  151.0502 H   0  0  0  0  0  0  0  0  0  0  0  0  # atno 10167 bound_to 10162
  156.9972  131.0165  151.2841 H   0  0  0  0  0  0  0  0  0  0  0  0  # atno 10718 bound_to 10713
  154.4440  135.2763  155.1828 H   0  0  0  0  0  0  0  0  0  0  0  0  # atno 10763 bound_to 10752
  154.3682  135.6114  153.5730 H   0  0  0  0  0  0  0  0  0  0  0  0  # atno 10764 bound_to 10752
  152.9842  135.5851  154.4772 H   0  0  0  0  0  0  0  0  0  0  0  0  # atno 10765 bound_to 10752
  140.9488  134.1094  157.4082 H   0  0  0  0  0  0  0  0  0  0  0  0  # atno 11005 bound_to 11000
  146.3113  140.3663  142.8670 LP  0  0  0  0  0  0  0  0  0  0  0  0  # atno 17320 bound_to 7965
  144.9005  140.7636  143.5870 LP  0  0  0  0  0  0  0  0  0  0  0  0  # atno 17321 bound_to 7965
  139.8197  143.7837  152.3176 LP  0  0  0  0  0  0  0  0  0  0  0  0  # atno 17342 bound_to 10162
  139.7915  144.7408  150.9948 LP  0  0  0  0  0  0  0  0  0  0  0  0  # atno 17343 bound_to 10162
  157.5417  130.8124  149.8036 LP  0  0  0  0  0  0  0  0  0  0  0  0  # atno 17370 bound_to 10713
  156.0185  130.3804  150.2036 LP  0  0  0  0  0  0  0  0  0  0  0  0  # atno 17371 bound_to 10713
  139.8841  135.0059  156.6347 LP  0  0  0  0  0  0  0  0  0  0  0  0  # atno 17394 bound_to 11000
  140.7632  133.8800  155.8434 LP  0  0  0  0  0  0  0  0  0  0  0  0  # atno 17395 bound_to 11000

$$$$
