AV-unprocessed.smi:230|AV-procd|sdf|1764|dock3
  -GOLD-   2262020293D 1   1.00000     0.00000
 Structure written by MMmdl.
 56 59  0  0  0  0  0  0  0  0  1 V2000
  152.8418  139.0088  158.5146 C   0  0  0  0  0  0  0  0  0  0  0  0
  152.1397  140.0497  157.6315 C   0  0  0  0  0  0  0  0  0  0  0  0
  151.6159  141.2906  158.4028 C   0  0  1  0  0  0  0  0  0  0  0  0
  152.7505  141.9577  159.2132 C   0  0  0  0  0  0  0  0  0  0  0  0
  152.2926  143.1313  159.8809 O   0  0  0  0  0  0  0  0  0  0  0  0
  151.7183  144.1307  159.0365 C   0  0  0  0  0  0  0  0  0  0  0  0
  151.1644  145.2031  159.9872 C   0  0  0  0  0  0  0  0  0  0  0  0
  152.7791  144.7661  158.1122 C   0  0  0  0  0  0  0  0  0  0  0  0
  150.5645  143.4897  158.2404 C   0  0  0  0  0  0  0  0  0  0  0  0
  151.0122  142.2992  157.5236 N   0  0  0  0  0  0  0  0  0  0  0  0
  150.0768  141.8367  156.6630 C   0  0  0  0  0  0  0  0  0  0  0  0
  150.4193  141.5155  155.3874 N   0  0  0  0  0  0  0  0  0  0  0  0
  149.4827  141.0904  154.5335 C   0  0  0  0  0  0  0  0  0  0  0  0
  148.1736  140.9286  154.7420 N   0  0  0  0  0  0  0  0  0  0  0  0
  147.8305  141.2564  156.0213 C   0  0  0  0  0  0  0  0  0  0  0  0
  148.7146  141.7085  157.0392 C   0  0  0  0  0  0  0  0  0  0  0  0
  148.0129  141.9456  158.2137 N   0  0  0  0  0  0  0  0  0  0  0  0
  146.7776  141.6581  157.9047 C   0  0  0  0  0  0  0  0  0  0  0  0
  146.5762  141.2480  156.6055 N   0  0  0  0  0  0  0  0  0  0  0  0
  145.3066  140.8885  155.9930 C   0  0  0  0  0  0  0  0  0  0  0  0
  144.3434  142.0874  155.8064 C   0  0  0  0  0  0  0  0  0  0  0  0
  143.1496  141.5921  155.2241 O   0  0  0  0  0  0  0  0  0  0  0  0
  143.9858  142.7790  157.1407 C   0  0  0  0  0  0  0  0  0  0  0  0
  143.1985  144.0839  156.9251 C   0  0  0  0  0  0  0  0  0  0  0  0
  143.9185  144.9546  156.0609 O   0  0  0  0  0  0  0  0  0  0  0  0
  144.1068  144.4078  154.7613 C   0  0  0  0  0  0  0  0  0  0  0  0
  144.9566  143.1275  154.8477 C   0  0  0  0  0  0  0  0  0  0  0  0
  153.0948  138.1219  157.9333 H   0  0  0  0  0  0  0  0  0  0  0  0
  152.1980  138.6924  159.3357 H   0  0  0  0  0  0  0  0  0  0  0  0
  153.7697  139.3919  158.9381 H   0  0  0  0  0  0  0  0  0  0  0  0
  152.8141  140.3663  156.8348 H   0  0  0  0  0  0  0  0  0  0  0  0
  151.3144  139.5336  157.1408 H   0  0  0  0  0  0  0  0  0  0  0  0
  150.8444  140.9621  159.1010 H   0  0  0  0  0  0  0  0  0  0  0  0
  153.1212  141.2787  159.9800 H   0  0  0  0  0  0  0  0  0  0  0  0
  153.6028  142.1910  158.5749 H   0  0  0  0  0  0  0  0  0  0  0  0
  150.6732  146.0066  159.4374 H   0  0  0  0  0  0  0  0  0  0  0  0
  151.9596  145.6485  160.5859 H   0  0  0  0  0  0  0  0  0  0  0  0
  150.4337  144.7797  160.6774 H   0  0  0  0  0  0  0  0  0  0  0  0
  152.3558  145.5993  157.5507 H   0  0  0  0  0  0  0  0  0  0  0  0
  153.1723  144.0607  157.3809 H   0  0  0  0  0  0  0  0  0  0  0  0
  153.6220  145.1505  158.6870 H   0  0  0  0  0  0  0  0  0  0  0  0
  149.7614  143.2110  158.9247 H   0  0  0  0  0  0  0  0  0  0  0  0
  150.1464  144.2135  157.5386 H   0  0  0  0  0  0  0  0  0  0  0  0
  149.8308  140.8516  153.5393 H   0  0  0  0  0  0  0  0  0  0  0  0
  145.9704  141.7494  158.6170 H   0  0  0  0  0  0  0  0  0  0  0  0
  145.5165  140.4236  155.0289 H   0  0  0  0  0  0  0  0  0  0  0  0
  144.8387  140.1165  156.6058 H   0  0  0  0  0  0  0  0  0  0  0  0
  143.3774  141.0800  154.4631 H   0  0  0  0  0  0  0  0  0  0  0  0
  143.4144  142.1110  157.7865 H   0  0  0  0  0  0  0  0  0  0  0  0
  144.9046  143.0146  157.6797 H   0  0  0  0  0  0  0  0  0  0  0  0
  142.2079  143.8825  156.5146 H   0  0  0  0  0  0  0  0  0  0  0  0
  143.0463  144.5868  157.8804 H   0  0  0  0  0  0  0  0  0  0  0  0
  143.1411  144.2105  154.2930 H   0  0  0  0  0  0  0  0  0  0  0  0
  144.6119  145.1475  154.1400 H   0  0  0  0  0  0  0  0  0  0  0  0
  145.9520  143.3997  155.2016 H   0  0  0  0  0  0  0  0  0  0  0  0
  145.0931  142.6999  153.8536 H   0  0  0  0  0  0  0  0  0  0  0  0
  1  2  1  0  0  0  0
  1 28  1  0  0  0  0
  1 29  1  0  0  0  0
  1 30  1  0  0  0  0
  2  3  1  0  0  0  0
  2 31  1  0  0  0  0
  2 32  1  0  0  0  0
  3 10  1  0  0  0  0
  3  4  1  0  0  0  0
  3 33  1  0  0  0  0
  4  5  1  0  0  0  0
  4 34  1  0  0  0  0
  4 35  1  0  0  0  0
  5  6  1  0  0  0  0
  6  7  1  0  0  0  0
  6  8  1  0  0  0  0
  6  9  1  0  0  0  0
  7 36  1  0  0  0  0
  7 37  1  0  0  0  0
  7 38  1  0  0  0  0
  8 39  1  0  0  0  0
  8 40  1  0  0  0  0
  8 41  1  0  0  0  0
  9 10  1  0  0  0  0
  9 42  1  0  0  0  0
  9 43  1  0  0  0  0
 10 11  1  0  0  0  0
 11 16  1  0  0  0  0
 11 12  2  0  0  0  0
 12 13  1  0  0  0  0
 13 14  2  0  0  0  0
 13 44  1  0  0  0  0
 14 15  1  0  0  0  0
 15 19  1  0  0  0  0
 15 16  2  0  0  0  0
 16 17  1  0  0  0  0
 17 18  2  0  0  0  0
 18 19  1  0  0  0  0
 18 45  1  0  0  0  0
 19 20  1  0  0  0  0
 20 21  1  0  0  0  0
 20 46  1  0  0  0  0
 20 47  1  0  0  0  0
 21 27  1  0  0  0  0
 21 22  1  0  0  0  0
 21 23  1  0  0  0  0
 22 48  1  0  0  0  0
 23 24  1  0  0  0  0
 23 49  1  0  0  0  0
 23 50  1  0  0  0  0
 24 25  1  0  0  0  0
 24 51  1  0  0  0  0
 24 52  1  0  0  0  0
 25 26  1  0  0  0  0
 26 27  1  0  0  0  0
 26 53  1  0  0  0  0
 26 54  1  0  0  0  0
 27 55  1  0  0  0  0
 27 56  1  0  0  0  0
M  END
> <s_m_source_file>
AV-unprocessed.smi

> <i_m_source_file_index>
230

> <i_lp_mmshare_version>
43012

> <i_f3d_flags>
0

> <s_epik_input>
W0NIM11DMShbQ0gzXSlPW0NIMl1bQ0BASF0oW0NIMl1bQ0gzXSlOKFtDSDJdMSljKG5bY0hdbjIpYyhjMjMpbltjSF1uM1tDSDJdQzQoW09IXSlbQ0gyXVtDSDJdT1tDSDJdW0NIMl00

> <s_epik_cmdline>
J2VwaWtfcHl0aG9uJywgJy1waCcsICc3LjAnLCAnLXRuJywgJzgnLCAnLW1hJywgJzIwMCcsICctbWV0YWxfYmluZGluZycsICctaW1hZScsICc8aW5maWxlLm1hZT4nLCAnLW9tYWUnLCAnPG91dGZpbGUubWFlPic=

> <r_lp_tautomer_probability>
1

> <r_epik_Ionization_Penalty>
0.000120535

> <r_epik_Ionization_Penalty_Charging>
0

> <r_epik_Ionization_Penalty_Neutral>
0.000120535

> <r_epik_State_Penalty>
-0

> <r_epik_Charging_Adjusted_Penalty>
0

> <i_epik_Tot_Q>
0

> <i_epik_Tot_abs_Q>
0

> <r_epik_Metal_State_Penalty>
-0

> <b_epik_Metal_Only>
0

> <s_lp_Force_Field>
OPLS_2005

> <r_lp_Energy>
34.4524

> <b_lp_Chiralities_Consistent>
1

> <s_lp_Variant>
AV-unprocessed.smi:230-2

> <Gold.Version>
5.8.1

> <Gold.Id.Protein>
6NUR|6NUR_protein|mol2

> <Gold.PLP.Fitness>
47.5677

> <Gold.PLP.PLP>
-42.6320

> <Gold.PLP.part.hbond>
-3.0000

> <Gold.PLP.part.metal>
0.0000

> <Gold.PLP.part.buried>
-4.3048

> <Gold.PLP.part.nonpolar>
-35.2733

> <Gold.PLP.part.repulsive>
0.4865

> <Gold.PLP.ligand.clash>
0.0000

> <Gold.PLP.ligand.torsion>
0.5908

> <Gold.PLP.Chemscore.Hbond>
1.0000

> <Gold.PLP.Chemscore.CHOScore>
0.9748

> <Gold.PLP.Chemscore.Metal>
0.0000

> <Gold.Chemscore.Hbonds>
donor molecule, donor type, donor heavy atom, donor atom, acceptor molecule, acceptor atom, score
      L1  H    22    48       P1 10175  0.96
      L1  C    13    44       P1  7957  1.00

> <Gold.PLP.Chemscore.Internal.Correction>
0.1930

> <Gold.Rescore>
     Score         DG    S(hbond)    S(metal)    S(lipo)     H(rot)  DE(clash)    DE(int)     intcor
     12.61     -14.00       0.80        0.00      98.38       2.21       0.11       1.28       ----

> <Gold.Chemscore.Fitness>
12.6055

> <Gold.Chemscore.DG>
-14.0019

> <Gold.Chemscore.ZeroCoef>
-5.4800

> <Gold.Chemscore.Hbond>
0.7997

> <Gold.Chemscore.Metal>
0.0000

> <Gold.Chemscore.Lipo>
98.3777

> <Gold.Chemscore.Internal_Hbond>
0.0000

> <Gold.Chemscore.DEClash>
0.1120

> <Gold.Chemscore.DEInternal>
1.2843

> <Gold.Chemscore.Rot>
2.2107

> <Gold.Chemscore.Internal.Correction>
   9.000000E+99

> <Gold.Chemscore.Hbonds>
donor molecule, donor type, donor heavy atom, donor atom, acceptor molecule, acceptor atom, score
      L1  H    22    48       P1 10175  0.59

> <Gold.Chemscore.Hbond.Weighted>
-2.6711

> <Gold.Chemscore.Metal.Weighted>
-0.0000

> <Gold.Chemscore.Lipo.Weighted>
-11.5102

> <Gold.Chemscore.Internal_Hbond.Weighted>
0.0000

> <Gold.Chemscore.DEClash.Weighted>
0.1120

> <Gold.Chemscore.DEInternal.Weighted>
1.2843

> <Gold.Chemscore.Rot.Weighted>
5.6595

> <Gold.Chemscore.Internal.Correction.Weighted>
   9.000000E+99

> <Gold.Protein.RotatedTorsions>
[ 6907 6896 6895 6894 ] final -146.91 input  -60.11 | X-H torsion
[ 7974 7965 7964 7962 ] final  -37.59 input  175.53 | X-H torsion
[ 8008 7997 7996 7995 ] final   90.16 input   59.86 | X-H torsion
[ 10167 10162 10161 10158 ] final -110.14 input  -65.29 | X-H torsion
[ 10718 10713 10712 10709 ] final  -50.11 input   66.30 | X-H torsion
[ 10763 10752 10751 10750 ] final  166.76 input  -60.55 | X-H torsion
[ 11005 11000 10999 10996 ] final  119.78 input  -57.11 | X-H torsion

> <Gold.Protein.ActiveResidues>
 VAL166  LYS551  ARG553  GLY616  TRP617  ASP618  TYR619  PRO620  LYS621  CYS622 
 ASP623  PHE694  ASN695  SER759  ASP760  ASP761  ALA762  ILE779  LEU786  VAL792 
 PHE793  MET794  SER795  GLU796  ALA797  LYS798  CYS799  TRP800  GLU811  SER814 

> <Gold.Protein.RotatedAtoms>
  151.1483  133.4925  159.2595 H   0  0  0  0  0  0  0  0  0  0  0  0  # atno 6907 bound_to 6896
  151.1581  135.0260  159.8708 H   0  0  0  0  0  0  0  0  0  0  0  0  # atno 6908 bound_to 6896
  152.5463  134.1359  159.8512 H   0  0  0  0  0  0  0  0  0  0  0  0  # atno 6909 bound_to 6896
  146.0561  140.6414  142.9019 H   0  0  0  0  0  0  0  0  0  0  0  0  # atno 7974 bound_to 7965
  156.0087  140.3352  155.6918 H   0  0  0  0  0  0  0  0  0  0  0  0  # atno 8008 bound_to 7997
  155.6189  140.0673  157.2702 H   0  0  0  0  0  0  0  0  0  0  0  0  # atno 8009 bound_to 7997
  154.4274  140.1780  156.1338 H   0  0  0  0  0  0  0  0  0  0  0  0  # atno 8010 bound_to 7997
  140.1477  143.4225  152.1517 H   0  0  0  0  0  0  0  0  0  0  0  0  # atno 10167 bound_to 10162
  156.1830  130.4151  149.9479 H   0  0  0  0  0  0  0  0  0  0  0  0  # atno 10718 bound_to 10713
  154.3438  135.2753  155.2408 H   0  0  0  0  0  0  0  0  0  0  0  0  # atno 10763 bound_to 10752
  154.4667  135.5893  153.6297 H   0  0  0  0  0  0  0  0  0  0  0  0  # atno 10764 bound_to 10752
  152.9855  135.6078  154.3642 H   0  0  0  0  0  0  0  0  0  0  0  0  # atno 10765 bound_to 10752
  139.9159  134.9630  156.7707 H   0  0  0  0  0  0  0  0  0  0  0  0  # atno 11005 bound_to 11000
  144.7149  140.4173  143.7052 LP  0  0  0  0  0  0  0  0  0  0  0  0  # atno 17320 bound_to 7965
  145.6641  139.1587  143.2792 LP  0  0  0  0  0  0  0  0  0  0  0  0  # atno 17321 bound_to 7965
  139.5441  144.7283  151.4640 LP  0  0  0  0  0  0  0  0  0  0  0  0  # atno 17342 bound_to 10162
  140.6722  143.8269  150.7013 LP  0  0  0  0  0  0  0  0  0  0  0  0  # atno 17343 bound_to 10162
  156.7243  130.9019  151.3621 LP  0  0  0  0  0  0  0  0  0  0  0  0  # atno 17370 bound_to 10713
  157.6881  130.9205  150.0439 LP  0  0  0  0  0  0  0  0  0  0  0  0  # atno 17371 bound_to 10713
  140.6623  133.9634  155.7811 LP  0  0  0  0  0  0  0  0  0  0  0  0  # atno 17394 bound_to 11000
  141.0635  134.0312  157.3626 LP  0  0  0  0  0  0  0  0  0  0  0  0  # atno 17395 bound_to 11000

$$$$
