AV-unprocessed.smi:1075|AV-procd|sdf|4696|dock10
  -GOLD-   22720 3213D 1   1.00000     0.00000
 Structure written by MMmdl.
 50 51  0  0  0  0  0  0  0  0  1 V2000
  144.0192  143.5751  157.6947 C   0  0  0  0  0  0  0  0  0  0  0  0
  144.8581  143.2709  156.4862 C   0  0  0  0  0  0  0  0  0  0  0  0
  144.6644  143.9620  155.3762 N   0  0  0  0  0  0  0  0  0  0  0  0
  145.5596  143.4649  154.5010 N   0  0  0  0  0  0  0  0  0  0  0  0
  145.6174  144.0141  153.1600 C   0  0  0  0  0  0  0  0  0  0  0  0
  146.3248  142.4589  155.0599 C   0  0  0  0  0  0  0  0  0  0  0  0
  147.3963  141.7570  154.2854 C   0  0  0  0  0  0  0  0  0  0  0  0
  145.8923  142.2973  156.3528 C   0  0  0  0  0  0  0  0  0  0  0  0
  146.3763  141.3430  157.4266 C   0  0  1  0  0  0  0  0  0  0  0  0
  146.3658  139.8788  156.9480 C   0  0  0  0  0  0  0  0  0  0  0  0
  147.7491  141.8063  157.9397 C   0  0  0  0  0  0  0  0  0  0  0  0
  147.8598  142.3442  159.0419 O   0  0  0  0  0  0  0  0  0  0  0  0
  148.7866  141.5726  157.1149 N   0  0  0  0  0  0  0  0  0  0  0  0
  150.2158  141.8191  157.3399 C   0  0  1  0  0  0  0  0  0  0  0  0
  150.9883  141.6788  156.0070 C   0  0  0  0  0  0  0  0  0  0  0  0
  150.4086  143.2240  157.9743 C   0  0  0  0  0  0  0  0  0  0  0  0
  151.8164  143.4508  158.5524 C   0  0  0  0  0  0  0  0  0  0  0  0
  152.1981  142.3639  159.5706 C   0  0  2  0  0  0  0  0  0  0  0  0
  153.6006  142.5996  160.1488 C   0  0  0  0  0  0  0  0  0  0  0  0
  152.0811  140.9743  158.9236 C   0  0  0  0  0  0  0  0  0  0  0  0
  150.6747  140.7347  158.3476 C   0  0  0  0  0  0  0  0  0  0  0  0
  144.6445  143.7267  158.5749 H   0  0  0  0  0  0  0  0  0  0  0  0
  143.3349  142.7540  157.9092 H   0  0  0  0  0  0  0  0  0  0  0  0
  143.4222  144.4773  157.5570 H   0  0  0  0  0  0  0  0  0  0  0  0
  146.5435  144.5755  153.0349 H   0  0  0  0  0  0  0  0  0  0  0  0
  144.7728  144.6807  152.9788 H   0  0  0  0  0  0  0  0  0  0  0  0
  145.5888  143.2057  152.4293 H   0  0  0  0  0  0  0  0  0  0  0  0
  148.1695  141.3649  154.9446 H   0  0  0  0  0  0  0  0  0  0  0  0
  147.8846  142.4299  153.5806 H   0  0  0  0  0  0  0  0  0  0  0  0
  146.9787  140.9220  153.7224 H   0  0  0  0  0  0  0  0  0  0  0  0
  145.7079  141.3869  158.2871 H   0  0  0  0  0  0  0  0  0  0  0  0
  147.0232  139.7195  156.0936 H   0  0  0  0  0  0  0  0  0  0  0  0
  145.3611  139.5774  156.6503 H   0  0  0  0  0  0  0  0  0  0  0  0
  146.6857  139.2018  157.7409 H   0  0  0  0  0  0  0  0  0  0  0  0
  148.5617  141.1291  156.2361 H   0  0  0  0  0  0  0  0  0  0  0  0
  152.0645  141.7694  156.1479 H   0  0  0  0  0  0  0  0  0  0  0  0
  150.7027  142.4455  155.2870 H   0  0  0  0  0  0  0  0  0  0  0  0
  150.8032  140.7091  155.5439 H   0  0  0  0  0  0  0  0  0  0  0  0
  150.1950  144.0079  157.2473 H   0  0  0  0  0  0  0  0  0  0  0  0
  149.6842  143.3580  158.7797 H   0  0  0  0  0  0  0  0  0  0  0  0
  152.5480  143.4769  157.7440 H   0  0  0  0  0  0  0  0  0  0  0  0
  151.8562  144.4316  159.0274 H   0  0  0  0  0  0  0  0  0  0  0  0
  151.4884  142.4121  160.3980 H   0  0  0  0  0  0  0  0  0  0  0  0
  154.3628  142.5632  159.3697 H   0  0  0  0  0  0  0  0  0  0  0  0
  153.8497  141.8440  160.8941 H   0  0  0  0  0  0  0  0  0  0  0  0
  153.6663  143.5739  160.6335 H   0  0  0  0  0  0  0  0  0  0  0  0
  152.8303  140.8640  158.1392 H   0  0  0  0  0  0  0  0  0  0  0  0
  152.3028  140.2033  159.6624 H   0  0  0  0  0  0  0  0  0  0  0  0
  149.9734  140.6996  159.1834 H   0  0  0  0  0  0  0  0  0  0  0  0
  150.6331  139.7479  157.8842 H   0  0  0  0  0  0  0  0  0  0  0  0
  1  2  1  0  0  0  0
  1 22  1  0  0  0  0
  1 23  1  0  0  0  0
  1 24  1  0  0  0  0
  2  8  1  0  0  0  0
  2  3  2  0  0  0  0
  3  4  1  0  0  0  0
  4  5  1  0  0  0  0
  4  6  1  0  0  0  0
  5 25  1  0  0  0  0
  5 26  1  0  0  0  0
  5 27  1  0  0  0  0
  6  7  1  0  0  0  0
  6  8  2  0  0  0  0
  7 28  1  0  0  0  0
  7 29  1  0  0  0  0
  7 30  1  0  0  0  0
  8  9  1  0  0  0  0
  9 10  1  0  0  0  0
  9 11  1  0  0  0  0
  9 31  1  0  0  0  0
 10 32  1  0  0  0  0
 10 33  1  0  0  0  0
 10 34  1  0  0  0  0
 11 12  2  0  0  0  0
 11 13  1  0  0  0  0
 13 14  1  0  0  0  0
 13 35  1  0  0  0  0
 14 21  1  0  0  0  0
 14 15  1  0  0  0  0
 14 16  1  0  0  0  0
 15 36  1  0  0  0  0
 15 37  1  0  0  0  0
 15 38  1  0  0  0  0
 16 17  1  0  0  0  0
 16 39  1  0  0  0  0
 16 40  1  0  0  0  0
 17 18  1  0  0  0  0
 17 41  1  0  0  0  0
 17 42  1  0  0  0  0
 18 19  1  0  0  0  0
 18 20  1  0  0  0  0
 18 43  1  0  0  0  0
 19 44  1  0  0  0  0
 19 45  1  0  0  0  0
 19 46  1  0  0  0  0
 20 21  1  0  0  0  0
 20 47  1  0  0  0  0
 20 48  1  0  0  0  0
 21 49  1  0  0  0  0
 21 50  1  0  0  0  0
M  END
> <s_m_source_file>
AV-unprocessed.smi

> <i_m_source_file_index>
1075

> <i_lp_mmshare_version>
43012

> <i_f3d_flags>
0

> <s_epik_input>
W0NIM11jMW5uKFtDSDNdKWMoW0NIM10pYzFbQ0BIXShbQ0gzXSlDKD1PKVtOSF1bQ0BAXTIoW0NIM10pW0NIMl1bQ0gyXVtDQEBIXShbQ0gzXSlbQ0gyXVtDSDJdMg==

> <s_epik_cmdline>
J2VwaWtfcHl0aG9uJywgJy1waCcsICc3LjAnLCAnLXRuJywgJzgnLCAnLW1hJywgJzIwMCcsICctbWV0YWxfYmluZGluZycsICctaW1hZScsICc8aW5maWxlLm1hZT4nLCAnLW9tYWUnLCAnPG91dGZpbGUubWFlPic=

> <r_lp_tautomer_probability>
1

> <r_epik_Ionization_Penalty>
0.00502928

> <r_epik_Ionization_Penalty_Charging>
0

> <r_epik_Ionization_Penalty_Neutral>
0.00502928

> <r_epik_State_Penalty>
0.0036576

> <r_epik_Charging_Adjusted_Penalty>
0.0036576

> <i_epik_Tot_Q>
0

> <i_epik_Tot_abs_Q>
0

> <r_epik_Metal_State_Penalty>
-0

> <b_epik_Metal_Only>
0

> <s_lp_Force_Field>
OPLS_2005

> <r_lp_Energy>
7.42101

> <b_lp_Chiralities_Consistent>
1

> <s_lp_Variant>
AV-unprocessed.smi:1075-4

> <Gold.Version>
5.8.1

> <Gold.Id.Protein>
6NUR|6NUR_protein|mol2

> <Gold.PLP.Fitness>
34.9909

> <Gold.PLP.PLP>
-36.1158

> <Gold.PLP.part.hbond>
-1.9930

> <Gold.PLP.part.metal>
0.0000

> <Gold.PLP.part.buried>
-4.6762

> <Gold.PLP.part.nonpolar>
-29.0568

> <Gold.PLP.part.repulsive>
0.2815

> <Gold.PLP.ligand.clash>
0.0000

> <Gold.PLP.ligand.torsion>
0.6872

> <Gold.PLP.Chemscore.Hbond>
0.0538

> <Gold.PLP.Chemscore.CHOScore>
0.0000

> <Gold.PLP.Chemscore.Metal>
0.0000

> <Gold.Chemscore.Hbonds>
donor molecule, donor type, donor heavy atom, donor atom, acceptor molecule, acceptor atom, score
      P1  H  6934  6946       L1    12  0.02

> <Gold.PLP.Chemscore.Internal.Correction>
0.0881

> <Gold.Rescore>
     Score         DG    S(hbond)    S(metal)    S(lipo)     H(rot)  DE(clash)    DE(int)     intcor
     11.69     -13.68       0.21        0.00      91.06       1.23       0.02       1.96       ----

> <Gold.Chemscore.Fitness>
11.6927

> <Gold.Chemscore.DG>
-13.6781

> <Gold.Chemscore.ZeroCoef>
-5.4800

> <Gold.Chemscore.Hbond>
0.2089

> <Gold.Chemscore.Metal>
0.0000

> <Gold.Chemscore.Lipo>
91.0640

> <Gold.Chemscore.Internal_Hbond>
0.0000

> <Gold.Chemscore.DEClash>
0.0223

> <Gold.Chemscore.DEInternal>
1.9630

> <Gold.Chemscore.Rot>
1.2321

> <Gold.Chemscore.Internal.Correction>
   9.000000E+99

> <Gold.Chemscore.Hbonds>
donor molecule, donor type, donor heavy atom, donor atom, acceptor molecule, acceptor atom, score
      P1  H  6933  6944       L1    12  0.01
      P1  H  6934  6946       L1    12  0.03

> <Gold.Chemscore.Hbond.Weighted>
-0.6977

> <Gold.Chemscore.Metal.Weighted>
-0.0000

> <Gold.Chemscore.Lipo.Weighted>
-10.6545

> <Gold.Chemscore.Internal_Hbond.Weighted>
0.0000

> <Gold.Chemscore.DEClash.Weighted>
0.0223

> <Gold.Chemscore.DEInternal.Weighted>
1.9630

> <Gold.Chemscore.Rot.Weighted>
3.1541

> <Gold.Chemscore.Internal.Correction.Weighted>
   9.000000E+99

> <Gold.Protein.RotatedTorsions>
[ 6907 6896 6895 6894 ] final -178.10 input  -60.11 | X-H torsion
[ 7974 7965 7964 7962 ] final  -33.54 input  175.53 | X-H torsion
[ 8008 7997 7996 7995 ] final -121.01 input   59.86 | X-H torsion
[ 10167 10162 10161 10158 ] final  -43.09 input  -65.29 | X-H torsion
[ 10718 10713 10712 10709 ] final    4.92 input   66.30 | X-H torsion
[ 10763 10752 10751 10750 ] final  -17.39 input  -60.55 | X-H torsion
[ 11005 11000 10999 10996 ] final   26.11 input  -57.11 | X-H torsion

> <Gold.Protein.ActiveResidues>
 VAL166  LYS551  ARG553  GLY616  TRP617  ASP618  TYR619  PRO620  LYS621  CYS622 
 ASP623  PHE694  ASN695  SER759  ASP760  ASP761  ALA762  ILE779  LEU786  VAL792 
 PHE793  MET794  SER795  GLU796  ALA797  LYS798  CYS799  TRP800  GLU811  SER814 

> <Gold.Protein.RotatedAtoms>
  151.6318  133.3331  159.3110 H   0  0  0  0  0  0  0  0  0  0  0  0  # atno 6907 bound_to 6896
  150.8053  134.7177  159.6649 H   0  0  0  0  0  0  0  0  0  0  0  0  # atno 6908 bound_to 6896
  152.4148  134.6066  160.0066 H   0  0  0  0  0  0  0  0  0  0  0  0  # atno 6909 bound_to 6896
  146.0902  140.5929  142.8868 H   0  0  0  0  0  0  0  0  0  0  0  0  # atno 7974 bound_to 7965
  155.1411  140.0402  157.2799 H   0  0  0  0  0  0  0  0  0  0  0  0  # atno 8008 bound_to 7997
  154.6472  140.2561  155.7228 H   0  0  0  0  0  0  0  0  0  0  0  0  # atno 8009 bound_to 7997
  156.2560  140.2843  156.0891 H   0  0  0  0  0  0  0  0  0  0  0  0  # atno 8010 bound_to 7997
  140.6946  143.3002  151.3302 H   0  0  0  0  0  0  0  0  0  0  0  0  # atno 10167 bound_to 10162
  156.8997  130.5717  149.5648 H   0  0  0  0  0  0  0  0  0  0  0  0  # atno 10718 bound_to 10713
  153.5732  135.7007  153.5496 H   0  0  0  0  0  0  0  0  0  0  0  0  # atno 10763 bound_to 10752
  153.3326  135.4043  155.1508 H   0  0  0  0  0  0  0  0  0  0  0  0  # atno 10764 bound_to 10752
  154.8630  135.3722  154.5255 H   0  0  0  0  0  0  0  0  0  0  0  0  # atno 10765 bound_to 10752
  140.3405  134.2338  155.7690 H   0  0  0  0  0  0  0  0  0  0  0  0  # atno 11005 bound_to 11000
  144.7355  140.4795  143.6907 LP  0  0  0  0  0  0  0  0  0  0  0  0  # atno 17320 bound_to 7965
  145.6053  139.1507  143.3106 LP  0  0  0  0  0  0  0  0  0  0  0  0  # atno 17321 bound_to 7965
  139.6387  144.0581  152.2537 LP  0  0  0  0  0  0  0  0  0  0  0  0  # atno 17342 bound_to 10162
  140.0079  144.6245  150.7672 LP  0  0  0  0  0  0  0  0  0  0  0  0  # atno 17343 bound_to 10162
  156.0588  130.5644  150.9148 LP  0  0  0  0  0  0  0  0  0  0  0  0  # atno 17370 bound_to 10713
  157.6033  131.0940  150.8922 LP  0  0  0  0  0  0  0  0  0  0  0  0  # atno 17371 bound_to 10713
  141.2039  133.7899  157.0312 LP  0  0  0  0  0  0  0  0  0  0  0  0  # atno 17394 bound_to 11000
  140.0785  134.9662  157.1585 LP  0  0  0  0  0  0  0  0  0  0  0  0  # atno 17395 bound_to 11000

$$$$
