AV-unprocessed.smi:3176|AV-procd|sdf|12124|dock8
  -GOLD-   2272017563D 1   1.00000     0.00000
 Structure written by MMmdl.
 32 33  0  0  0  0  0  0  0  0  1 V2000
  153.0185  136.6458  160.3458 O   0  0  0  0  0  0  0  0  0  0  0  0
  153.6203  137.1425  161.2987 C   0  0  0  0  0  0  0  0  0  0  0  0
  153.9112  138.4497  161.3845 N   0  0  0  0  0  0  0  0  0  0  0  0
  153.5780  139.4488  160.3755 C   0  0  0  0  0  0  0  0  0  0  0  0
  154.4199  140.7252  160.5424 C   0  0  0  0  0  0  0  0  0  0  0  0
  153.5606  141.9694  160.6608 C   0  0  0  0  0  0  0  0  0  0  0  0
  153.2117  142.4842  161.9277 C   0  0  0  0  0  0  0  0  0  0  0  0
  152.4174  143.6457  161.9846 C   0  0  0  0  0  0  0  0  0  0  0  0
  152.0059  144.2452  160.7787 C   0  0  0  0  0  0  0  0  0  0  0  0
  152.4091  143.6545  159.5645 C   0  0  0  0  0  0  0  0  0  0  0  0
  153.1712  142.5413  159.4987 N   0  0  0  0  0  0  0  0  0  0  0  0
  154.0722  136.2643  162.4706 C   0  0  2  0  0  0  0  0  0  0  0  0
  153.4077  136.6304  163.8108 C   0  0  0  0  0  0  0  0  0  0  0  0
  154.5358  137.2438  164.6167 C   0  0  0  0  0  0  0  0  0  0  0  0
  155.7494  136.5193  164.0531 C   0  0  0  0  0  0  0  0  0  0  0  0
  155.4718  136.4639  162.6627 O   0  0  0  0  0  0  0  0  0  0  0  0
  154.4000  138.7745  162.2061 H   0  0  0  0  0  0  0  0  0  0  0  0
  153.7139  139.0295  159.3771 H   0  0  0  0  0  0  0  0  0  0  0  0
  152.5178  139.6857  160.4711 H   0  0  0  0  0  0  0  0  0  0  0  0
  155.0503  140.6437  161.4292 H   0  0  0  0  0  0  0  0  0  0  0  0
  155.0983  140.8443  159.6964 H   0  0  0  0  0  0  0  0  0  0  0  0
  153.5457  142.0027  162.8353 H   0  0  0  0  0  0  0  0  0  0  0  0
  152.1302  144.0688  162.9359 H   0  0  0  0  0  0  0  0  0  0  0  0
  151.3964  145.1367  160.7842 H   0  0  0  0  0  0  0  0  0  0  0  0
  152.1120  144.0880  158.6208 H   0  0  0  0  0  0  0  0  0  0  0  0
  153.8906  135.2118  162.2462 H   0  0  0  0  0  0  0  0  0  0  0  0
  152.5572  137.3075  163.7170 H   0  0  0  0  0  0  0  0  0  0  0  0
  153.0488  135.7248  164.3013 H   0  0  0  0  0  0  0  0  0  0  0  0
  154.6082  138.3122  164.4081 H   0  0  0  0  0  0  0  0  0  0  0  0
  154.4173  137.1095  165.6923 H   0  0  0  0  0  0  0  0  0  0  0  0
  156.6852  137.0400  164.2569 H   0  0  0  0  0  0  0  0  0  0  0  0
  155.8207  135.5067  164.4535 H   0  0  0  0  0  0  0  0  0  0  0  0
  1  2  2  0  0  0  0
  2  3  1  0  0  0  0
  2 12  1  0  0  0  0
  3  4  1  0  0  0  0
  3 17  1  0  0  0  0
  4  5  1  0  0  0  0
  4 18  1  0  0  0  0
  4 19  1  0  0  0  0
  5  6  1  0  0  0  0
  5 20  1  0  0  0  0
  5 21  1  0  0  0  0
  6 11  1  0  0  0  0
  6  7  2  0  0  0  0
  7  8  1  0  0  0  0
  7 22  1  0  0  0  0
  8  9  2  0  0  0  0
  8 23  1  0  0  0  0
  9 10  1  0  0  0  0
  9 24  1  0  0  0  0
 10 11  2  0  0  0  0
 10 25  1  0  0  0  0
 12 16  1  0  0  0  0
 12 13  1  0  0  0  0
 12 26  1  0  0  0  0
 13 14  1  0  0  0  0
 13 27  1  0  0  0  0
 13 28  1  0  0  0  0
 14 15  1  0  0  0  0
 14 29  1  0  0  0  0
 14 30  1  0  0  0  0
 15 16  1  0  0  0  0
 15 31  1  0  0  0  0
 15 32  1  0  0  0  0
M  END
> <s_m_source_file>
AV-unprocessed.smi

> <i_m_source_file_index>
3176

> <i_lp_mmshare_version>
43012

> <i_f3d_flags>
0

> <s_epik_input>
TzFbQ0gyXVtDSDJdW0NIMl1bQ0BIXTFDKD1PKVtOSF1bQ0gyXVtDSDJdYzJbY0hdW2NIXVtjSF1bY0hdbjI=

> <s_epik_cmdline>
J2VwaWtfcHl0aG9uJywgJy1waCcsICc3LjAnLCAnLXRuJywgJzgnLCAnLW1hJywgJzIwMCcsICctbWV0YWxfYmluZGluZycsICctaW1hZScsICc8aW5maWxlLm1hZT4nLCAnLW9tYWUnLCAnPG91dGZpbGUubWFlPic=

> <r_epik_Ionization_Penalty>
0.0282744

> <r_epik_Ionization_Penalty_Charging>
0

> <r_epik_Ionization_Penalty_Neutral>
0.0282744

> <r_epik_State_Penalty>
0.0231919

> <r_epik_Charging_Adjusted_Penalty>
0.0231919

> <i_epik_Tot_Q>
0

> <i_epik_Tot_abs_Q>
0

> <r_epik_Metal_State_Penalty>
0.02213

> <b_epik_Metal_Only>
0

> <s_lp_Force_Field>
OPLS_2005

> <r_lp_Energy>
16.3652

> <b_lp_Chiralities_Consistent>
1

> <s_lp_Variant>
AV-unprocessed.smi:3176-1

> <Gold.Version>
5.8.1

> <Gold.Id.Protein>
6NUR|6NUR_protein|mol2

> <Gold.PLP.Fitness>
41.2853

> <Gold.PLP.PLP>
-40.0460

> <Gold.PLP.part.hbond>
-0.9920

> <Gold.PLP.part.metal>
0.0000

> <Gold.PLP.part.buried>
-5.0442

> <Gold.PLP.part.nonpolar>
-33.1023

> <Gold.PLP.part.repulsive>
0.0109

> <Gold.PLP.ligand.clash>
0.0000

> <Gold.PLP.ligand.torsion>
0.8882

> <Gold.PLP.Chemscore.Hbond>
1.0000

> <Gold.PLP.Chemscore.CHOScore>
0.0000

> <Gold.PLP.Chemscore.Metal>
0.0000

> <Gold.Chemscore.Hbonds>
donor molecule, donor type, donor heavy atom, donor atom, acceptor molecule, acceptor atom, score
      P1  H  6896  6909       L1     1  1.00

> <Gold.PLP.Chemscore.Internal.Correction>
0.0156

> <Gold.Rescore>
     Score         DG    S(hbond)    S(metal)    S(lipo)     H(rot)  DE(clash)    DE(int)     intcor
     16.60     -17.47       1.00        0.00     107.22       1.52       0.00       0.86       ----

> <Gold.Chemscore.Fitness>
16.6043

> <Gold.Chemscore.DG>
-17.4688

> <Gold.Chemscore.ZeroCoef>
-5.4800

> <Gold.Chemscore.Hbond>
0.9953

> <Gold.Chemscore.Metal>
0.0000

> <Gold.Chemscore.Lipo>
107.2226

> <Gold.Chemscore.Internal_Hbond>
0.0000

> <Gold.Chemscore.DEClash>
0.0000

> <Gold.Chemscore.DEInternal>
0.8645

> <Gold.Chemscore.Rot>
1.5159

> <Gold.Chemscore.Internal.Correction>
   9.000000E+99

> <Gold.Chemscore.Hbonds>
donor molecule, donor type, donor heavy atom, donor atom, acceptor molecule, acceptor atom, score
      P1  H  6896  6909       L1     1  1.00

> <Gold.Chemscore.Hbond.Weighted>
-3.3244

> <Gold.Chemscore.Metal.Weighted>
-0.0000

> <Gold.Chemscore.Lipo.Weighted>
-12.5450

> <Gold.Chemscore.Internal_Hbond.Weighted>
0.0000

> <Gold.Chemscore.DEClash.Weighted>
0.0000

> <Gold.Chemscore.DEInternal.Weighted>
0.8645

> <Gold.Chemscore.Rot.Weighted>
3.8807

> <Gold.Chemscore.Internal.Correction.Weighted>
   9.000000E+99

> <Gold.Protein.RotatedTorsions>
[ 6907 6896 6895 6894 ] final  151.12 input  -60.11 | X-H torsion
[ 7974 7965 7964 7962 ] final  -51.55 input  175.53 | X-H torsion
[ 8008 7997 7996 7995 ] final  -79.55 input   59.86 | X-H torsion
[ 10167 10162 10161 10158 ] final -117.42 input  -65.29 | X-H torsion
[ 10718 10713 10712 10709 ] final -122.12 input   66.30 | X-H torsion
[ 10763 10752 10751 10750 ] final -156.71 input  -60.55 | X-H torsion
[ 11005 11000 10999 10996 ] final  -18.67 input  -57.11 | X-H torsion

> <Gold.Protein.ActiveResidues>
 VAL166  LYS551  ARG553  GLY616  TRP617  ASP618  TYR619  PRO620  LYS621  CYS622 
 ASP623  PHE694  ASN695  SER759  ASP760  ASP761  ALA762  ILE779  LEU786  VAL792 
 PHE793  MET794  SER795  GLU796  ALA797  LYS798  CYS799  TRP800  GLU811  SER814 

> <Gold.Protein.RotatedAtoms>
  152.1050  133.4270  159.4604 H   0  0  0  0  0  0  0  0  0  0  0  0  # atno 6907 bound_to 6896
  150.6865  134.2716  159.4599 H   0  0  0  0  0  0  0  0  0  0  0  0  # atno 6908 bound_to 6896
  152.0579  134.9612  160.0625 H   0  0  0  0  0  0  0  0  0  0  0  0  # atno 6909 bound_to 6896
  145.9177  140.7861  142.9663 H   0  0  0  0  0  0  0  0  0  0  0  0  # atno 7974 bound_to 7965
  154.5796  140.0676  156.9085 H   0  0  0  0  0  0  0  0  0  0  0  0  # atno 8008 bound_to 7997
  155.2486  140.3350  155.4266 H   0  0  0  0  0  0  0  0  0  0  0  0  # atno 8009 bound_to 7997
  156.2180  140.1786  156.7529 H   0  0  0  0  0  0  0  0  0  0  0  0  # atno 8010 bound_to 7997
  140.0686  143.4899  152.1992 H   0  0  0  0  0  0  0  0  0  0  0  0  # atno 10167 bound_to 10162
  156.1393  130.6454  150.9745 H   0  0  0  0  0  0  0  0  0  0  0  0  # atno 10718 bound_to 10713
  154.7692  135.3140  154.8224 H   0  0  0  0  0  0  0  0  0  0  0  0  # atno 10763 bound_to 10752
  153.8964  135.6820  153.4762 H   0  0  0  0  0  0  0  0  0  0  0  0  # atno 10764 bound_to 10752
  153.1303  135.4783  154.9272 H   0  0  0  0  0  0  0  0  0  0  0  0  # atno 10765 bound_to 10752
  140.8291  133.8010  155.9739 H   0  0  0  0  0  0  0  0  0  0  0  0  # atno 11005 bound_to 11000
  144.6749  140.1926  143.7395 LP  0  0  0  0  0  0  0  0  0  0  0  0  # atno 17320 bound_to 7965
  145.8590  139.2213  143.1727 LP  0  0  0  0  0  0  0  0  0  0  0  0  # atno 17321 bound_to 7965
  139.5850  144.7527  151.3543 LP  0  0  0  0  0  0  0  0  0  0  0  0  # atno 17342 bound_to 10162
  140.7137  143.7323  150.7614 LP  0  0  0  0  0  0  0  0  0  0  0  0  # atno 17343 bound_to 10162
  157.6561  131.0889  150.7944 LP  0  0  0  0  0  0  0  0  0  0  0  0  # atno 17370 bound_to 10713
  156.8021  130.4924  149.5368 LP  0  0  0  0  0  0  0  0  0  0  0  0  # atno 17371 bound_to 10713
  140.9017  134.2370  157.5037 LP  0  0  0  0  0  0  0  0  0  0  0  0  # atno 17394 bound_to 11000
  139.8705  134.9710  156.4720 LP  0  0  0  0  0  0  0  0  0  0  0  0  # atno 17395 bound_to 11000

$$$$
