AV-unprocessed.smi:3090|AV-procd|sdf|11777|dock9
  -GOLD-   2272017163D 1   1.00000     0.00000
 Structure written by MMmdl.
 21 21  0  0  0  0  0  0  0  0  1 V2000
  145.5741  136.9515  151.7034 C   0  0  0  0  0  0  0  0  0  0  0  0
  144.9467  135.6513  151.6037 N   0  0  0  0  0  0  0  0  0  0  0  0
  144.8355  134.8306  150.5022 C   0  0  0  0  0  0  0  0  0  0  0  0
  144.1570  133.7083  150.8910 C   0  0  0  0  0  0  0  0  0  0  0  0
  143.7704  132.4969  150.0835 C   0  0  1  0  0  0  0  0  0  0  0  0
  142.3701  132.3033  150.1041 O   0  0  0  0  0  0  0  0  0  0  0  0
  144.2060  132.6661  148.6180 C   0  0  0  0  0  0  0  0  0  0  0  0
  143.4825  133.7456  147.9280 N   0  0  0  0  0  0  0  0  0  0  0  0
  143.9002  133.9443  152.2722 C   0  0  0  0  0  0  0  0  0  0  0  0
  144.3719  135.1059  152.6947 N   0  0  0  0  0  0  0  0  0  0  0  0
  145.9897  137.2420  150.7381 H   0  0  0  0  0  0  0  0  0  0  0  0
  146.3773  136.9186  152.4402 H   0  0  0  0  0  0  0  0  0  0  0  0
  144.8365  137.6938  152.0098 H   0  0  0  0  0  0  0  0  0  0  0  0
  145.2427  135.1085  149.5410 H   0  0  0  0  0  0  0  0  0  0  0  0
  144.2385  131.6043  150.5009 H   0  0  0  0  0  0  0  0  0  0  0  0
  141.9507  133.1282  149.9133 H   0  0  0  0  0  0  0  0  0  0  0  0
  145.2831  132.8274  148.5577 H   0  0  0  0  0  0  0  0  0  0  0  0
  144.0113  131.7337  148.0866 H   0  0  0  0  0  0  0  0  0  0  0  0
  142.6933  134.0611  148.4900 H   0  0  0  0  0  0  0  0  0  0  0  0
  144.0915  134.5503  147.7881 H   0  0  0  0  0  0  0  0  0  0  0  0
  143.3862  133.3072  152.9765 H   0  0  0  0  0  0  0  0  0  0  0  0
  1  2  1  0  0  0  0
  1 11  1  0  0  0  0
  1 12  1  0  0  0  0
  1 13  1  0  0  0  0
  2 10  1  0  0  0  0
  2  3  1  0  0  0  0
  3  4  2  0  0  0  0
  3 14  1  0  0  0  0
  4  5  1  0  0  0  0
  4  9  1  0  0  0  0
  5  6  1  0  0  0  0
  5  7  1  0  0  0  0
  5 15  1  0  0  0  0
  6 16  1  0  0  0  0
  7  8  1  0  0  0  0
  7 17  1  0  0  0  0
  7 18  1  0  0  0  0
  8 19  1  0  0  0  0
  8 20  1  0  0  0  0
  9 10  2  0  0  0  0
  9 21  1  0  0  0  0
M  END
> <s_m_source_file>
AV-unprocessed.smi

> <i_m_source_file_index>
3090

> <i_lp_mmshare_version>
43012

> <i_f3d_flags>
0

> <s_epik_input>
W0NIM11uMVtjSF1jKFtjSF1uMSlbQ0BIXShbT0hdKVtDSDJdW05IMl0=

> <s_epik_cmdline>
J2VwaWtfcHl0aG9uJywgJy1waCcsICc3LjAnLCAnLXRuJywgJzgnLCAnLW1hJywgJzIwMCcsICctbWV0YWxfYmluZGluZycsICctaW1hZScsICc8aW5maWxlLm1hZT4nLCAnLW9tYWUnLCAnPG91dGZpbGUubWFlPic=

> <r_lp_tautomer_probability>
1

> <r_epik_Ionization_Penalty>
2.22426

> <r_epik_Ionization_Penalty_Charging>
0

> <r_epik_Ionization_Penalty_Neutral>
2.22426

> <r_epik_State_Penalty>
2.36938

> <r_epik_Charging_Adjusted_Penalty>
2.36938

> <i_epik_Tot_Q>
0

> <i_epik_Tot_abs_Q>
0

> <r_epik_Metal_State_Penalty>
2.36934

> <b_epik_Metal_Only>
0

> <s_lp_Force_Field>
OPLS_2005

> <r_lp_Energy>
8.04815

> <b_lp_Chiralities_Consistent>
1

> <s_lp_Variant>
AV-unprocessed.smi:3090-4

> <Gold.Version>
5.8.1

> <Gold.Id.Protein>
6NUR|6NUR_protein|mol2

> <Gold.PLP.Fitness>
37.9853

> <Gold.PLP.PLP>
-23.8203

> <Gold.PLP.part.hbond>
-5.3255

> <Gold.PLP.part.metal>
0.0000

> <Gold.PLP.part.buried>
-1.2171

> <Gold.PLP.part.nonpolar>
-17.8263

> <Gold.PLP.part.repulsive>
0.0801

> <Gold.PLP.ligand.clash>
0.0000

> <Gold.PLP.ligand.torsion>
0.0220

> <Gold.PLP.Chemscore.Hbond>
2.7360

> <Gold.PLP.Chemscore.CHOScore>
2.0000

> <Gold.PLP.Chemscore.Metal>
0.0000

> <Gold.Chemscore.Hbonds>
donor molecule, donor type, donor heavy atom, donor atom, acceptor molecule, acceptor atom, score
      L1  H     6    16       P1 10186  1.00
      L1  H     8    19       P1 10186  1.00
      L1  H     8    20       P1  7921  0.70
      L1  C     3    14       P1  7921  1.00
      L1  C     9    21       P1 10957  1.00

> <Gold.PLP.Chemscore.Internal.Correction>
0.0009

> <Gold.Rescore>
     Score         DG    S(hbond)    S(metal)    S(lipo)     H(rot)  DE(clash)    DE(int)     intcor
     15.55     -15.62       2.83        0.00      47.40       1.90       0.05       0.02       ----

> <Gold.Chemscore.Fitness>
15.5491

> <Gold.Chemscore.DG>
-15.6204

> <Gold.Chemscore.ZeroCoef>
-5.4800

> <Gold.Chemscore.Hbond>
2.8347

> <Gold.Chemscore.Metal>
0.0000

> <Gold.Chemscore.Lipo>
47.4048

> <Gold.Chemscore.Internal_Hbond>
0.0000

> <Gold.Chemscore.DEClash>
0.0501

> <Gold.Chemscore.DEInternal>
0.0213

> <Gold.Chemscore.Rot>
1.9039

> <Gold.Chemscore.Internal.Correction>
   9.000000E+99

> <Gold.Chemscore.Hbonds>
donor molecule, donor type, donor heavy atom, donor atom, acceptor molecule, acceptor atom, score
      L1  H     6    16       P1 10186  1.00
      L1  H     8    19       P1 10186  0.96
      L1  H     8    20       P1  7921  0.65

> <Gold.Chemscore.Hbond.Weighted>
-9.4680

> <Gold.Chemscore.Metal.Weighted>
-0.0000

> <Gold.Chemscore.Lipo.Weighted>
-5.5464

> <Gold.Chemscore.Internal_Hbond.Weighted>
0.0000

> <Gold.Chemscore.DEClash.Weighted>
0.0501

> <Gold.Chemscore.DEInternal.Weighted>
0.0213

> <Gold.Chemscore.Rot.Weighted>
4.8739

> <Gold.Chemscore.Internal.Correction.Weighted>
   9.000000E+99

> <Gold.Protein.RotatedTorsions>
[ 6907 6896 6895 6894 ] final  -91.96 input  -60.11 | X-H torsion
[ 7974 7965 7964 7962 ] final -178.01 input  175.53 | X-H torsion
[ 8008 7997 7996 7995 ] final -102.72 input   59.86 | X-H torsion
[ 10167 10162 10161 10158 ] final  158.53 input  -65.29 | X-H torsion
[ 10718 10713 10712 10709 ] final   24.51 input   66.30 | X-H torsion
[ 10763 10752 10751 10750 ] final -121.15 input  -60.55 | X-H torsion
[ 11005 11000 10999 10996 ] final  -22.07 input  -57.11 | X-H torsion

> <Gold.Protein.ActiveResidues>
 VAL166  LYS551  ARG553  GLY616  TRP617  ASP618  TYR619  PRO620  LYS621  CYS622 
 ASP623  PHE694  ASN695  SER759  ASP760  ASP761  ALA762  ILE779  LEU786  VAL792 
 PHE793  MET794  SER795  GLU796  ALA797  LYS798  CYS799  TRP800  GLU811  SER814 

> <Gold.Protein.RotatedAtoms>
  150.6899  134.2197  159.4391 H   0  0  0  0  0  0  0  0  0  0  0  0  # atno 6907 bound_to 6896
  152.0154  134.9850  160.0578 H   0  0  0  0  0  0  0  0  0  0  0  0  # atno 6908 bound_to 6896
  152.1449  133.4451  159.4821 H   0  0  0  0  0  0  0  0  0  0  0  0  # atno 6909 bound_to 6896
  144.7129  140.0934  143.6420 H   0  0  0  0  0  0  0  0  0  0  0  0  # atno 7974 bound_to 7965
  154.8607  140.0427  157.1663 H   0  0  0  0  0  0  0  0  0  0  0  0  # atno 8008 bound_to 7997
  154.8844  140.2977  155.5386 H   0  0  0  0  0  0  0  0  0  0  0  0  # atno 8009 bound_to 7997
  156.2998  140.2405  156.3851 H   0  0  0  0  0  0  0  0  0  0  0  0  # atno 8010 bound_to 7997
  139.4827  144.4816  151.8436 H   0  0  0  0  0  0  0  0  0  0  0  0  # atno 10167 bound_to 10162
  157.1808  130.6802  149.6112 H   0  0  0  0  0  0  0  0  0  0  0  0  # atno 10718 bound_to 10713
  154.8661  135.4178  154.2574 H   0  0  0  0  0  0  0  0  0  0  0  0  # atno 10763 bound_to 10752
  153.3508  135.6998  153.6795 H   0  0  0  0  0  0  0  0  0  0  0  0  # atno 10764 bound_to 10752
  153.5736  135.3586  155.2820 H   0  0  0  0  0  0  0  0  0  0  0  0  # atno 10765 bound_to 10752
  140.8622  133.7780  156.0088 H   0  0  0  0  0  0  0  0  0  0  0  0  # atno 11005 bound_to 11000
  145.9601  139.2794  143.1161 LP  0  0  0  0  0  0  0  0  0  0  0  0  # atno 17320 bound_to 7965
  145.9230  140.9102  143.0395 LP  0  0  0  0  0  0  0  0  0  0  0  0  # atno 17321 bound_to 7965
  140.4293  144.2138  150.5887 LP  0  0  0  0  0  0  0  0  0  0  0  0  # atno 17342 bound_to 10162
  140.4796  143.2384  151.8974 LP  0  0  0  0  0  0  0  0  0  0  0  0  # atno 17343 bound_to 10162
  155.9724  130.4647  150.6228 LP  0  0  0  0  0  0  0  0  0  0  0  0  # atno 17370 bound_to 10713
  157.3954  131.0802  151.1356 LP  0  0  0  0  0  0  0  0  0  0  0  0  # atno 17371 bound_to 10713
  140.8670  134.2772  157.5208 LP  0  0  0  0  0  0  0  0  0  0  0  0  # atno 17394 bound_to 11000
  139.8707  134.9547  156.4185 LP  0  0  0  0  0  0  0  0  0  0  0  0  # atno 17395 bound_to 11000

$$$$
