AV-unprocessed.smi:3150|AV-procd|sdf|12013|dock3
  -GOLD-   2272017423D 1   1.00000     0.00000
 Structure written by MMmdl.
 32 33  0  0  0  0  0  0  0  0  2 V2000
  148.1088  137.3031  156.4585 C   0  0  0  0  0  0  0  0  0  0  0  0
  149.4250  136.7073  156.9793 C   0  0  2  0  0  0  0  0  0  0  0  0
  150.1500  136.2171  155.8537 O   0  0  0  0  0  0  0  0  0  0  0  0
  150.6765  137.2146  154.9870 C   0  0  0  0  0  0  0  0  0  0  0  0
  151.8193  137.9147  155.6903 C   0  0  0  0  0  0  0  0  0  0  0  0
  151.8973  139.4243  155.7248 C   0  0  0  0  0  0  0  0  0  0  0  0
  152.8773  138.6400  154.8902 C   0  0  0  0  0  0  0  0  0  0  0  0
  149.1644  135.5761  157.9872 C   0  0  0  0  0  0  0  0  0  0  0  0
  149.6780  134.4706  157.8094 O   0  0  0  0  0  0  0  0  0  0  0  0
  148.3793  135.8992  159.0312 N   0  0  0  0  0  0  0  0  0  0  0  0
  147.9542  135.0817  160.1146 C   0  0  0  0  0  0  0  0  0  0  0  0
  147.9620  133.7257  160.0621 N   0  0  0  0  0  0  0  0  0  0  0  0
  147.5400  133.0204  161.1315 C   0  0  0  0  0  0  0  0  0  0  0  0
  147.0838  133.6191  162.3189 C   0  0  0  0  0  0  0  0  0  0  0  0
  147.0708  135.0226  162.3891 C   0  0  0  0  0  0  0  0  0  0  0  0
  147.5109  135.7675  161.2764 C   0  0  0  0  0  0  0  0  0  0  0  0
  147.4984  137.1345  161.3458 O   0  5  0  0  0  0  0  0  0  0  0  0
  147.4989  137.6899  157.2757 H   0  0  0  0  0  0  0  0  0  0  0  0
  147.5177  136.5619  155.9193 H   0  0  0  0  0  0  0  0  0  0  0  0
  148.3036  138.1292  155.7744 H   0  0  0  0  0  0  0  0  0  0  0  0
  149.9970  137.5061  157.4559 H   0  0  0  0  0  0  0  0  0  0  0  0
  151.0552  136.7595  154.0709 H   0  0  0  0  0  0  0  0  0  0  0  0
  149.9166  137.9459  154.7084 H   0  0  0  0  0  0  0  0  0  0  0  0
  152.1744  137.3934  156.5775 H   0  0  0  0  0  0  0  0  0  0  0  0
  151.1252  139.9841  155.2005 H   0  0  0  0  0  0  0  0  0  0  0  0
  152.2691  139.8860  156.6373 H   0  0  0  0  0  0  0  0  0  0  0  0
  153.9042  138.5777  155.2446 H   0  0  0  0  0  0  0  0  0  0  0  0
  152.7588  138.6787  153.8090 H   0  0  0  0  0  0  0  0  0  0  0  0
  148.0310  136.8469  159.0574 H   0  0  0  0  0  0  0  0  0  0  0  0
  147.5672  131.9449  161.0371 H   0  0  0  0  0  0  0  0  0  0  0  0
  146.7534  133.0186  163.1531 H   0  0  0  0  0  0  0  0  0  0  0  0
  146.7271  135.5191  163.2850 H   0  0  0  0  0  0  0  0  0  0  0  0
  1  2  1  0  0  0  0
  1 18  1  0  0  0  0
  1 19  1  0  0  0  0
  1 20  1  0  0  0  0
  2  3  1  0  0  0  0
  2  8  1  0  0  0  0
  2 21  1  0  0  0  0
  3  4  1  0  0  0  0
  4  5  1  0  0  0  0
  4 22  1  0  0  0  0
  4 23  1  0  0  0  0
  5  7  1  0  0  0  0
  5  6  1  0  0  0  0
  5 24  1  0  0  0  0
  6  7  1  0  0  0  0
  6 25  1  0  0  0  0
  6 26  1  0  0  0  0
  7 27  1  0  0  0  0
  7 28  1  0  0  0  0
  8  9  2  0  0  0  0
  8 10  1  0  0  0  0
 10 29  1  0  0  0  0
 10 11  1  0  0  0  0
 11 16  2  0  0  0  0
 11 12  1  0  0  0  0
 12 13  2  0  0  0  0
 13 30  1  0  0  0  0
 13 14  1  0  0  0  0
 14 31  1  0  0  0  0
 14 15  2  0  0  0  0
 15 16  1  0  0  0  0
 15 32  1  0  0  0  0
 16 17  1  0  0  0  0
M  CHG  1  17  -1
M  END
> <s_m_source_file>
AV-unprocessed.smi

> <i_m_source_file_index>
3150

> <i_lp_mmshare_version>
43012

> <i_f3d_flags>
0

> <s_epik_input>
W0NIMl0xW0NIMl1bQ0hdMVtDSDJdT1tDQEBIXShbQ0gzXSlDKD1PKVtOSF1jMm5bY0hdW2NIXVtjSF1jMltPSF0=

> <s_epik_cmdline>
J2VwaWtfcHl0aG9uJywgJy1waCcsICc3LjAnLCAnLXRuJywgJzgnLCAnLW1hJywgJzIwMCcsICctbWV0YWxfYmluZGluZycsICctaW1hZScsICc8aW5maWxlLm1hZT4nLCAnLW9tYWUnLCAnPG91dGZpbGUubWFlPic=

> <r_epik_Ionization_Penalty>
4.12024

> <r_epik_Ionization_Penalty_Charging>
2.08551

> <r_epik_Ionization_Penalty_Neutral>
2.03473

> <r_epik_State_Penalty>
2.65726

> <r_epik_Charging_Adjusted_Penalty>
4.74277

> <i_epik_Tot_Q>
-1

> <i_epik_Tot_abs_Q>
1

> <r_epik_Metal_State_Penalty>
0.600747

> <b_epik_Metal_Only>
0

> <s_lp_Force_Field>
OPLS_2005

> <r_lp_Energy>
13.9624

> <b_lp_Chiralities_Consistent>
1

> <s_lp_Variant>
AV-unprocessed.smi:3150-7

> <Gold.Version>
5.8.1

> <Gold.Id.Protein>
6NUR|6NUR_protein|mol2

> <Gold.PLP.Fitness>
42.6300

> <Gold.PLP.PLP>
-29.3036

> <Gold.PLP.part.hbond>
-3.0000

> <Gold.PLP.part.metal>
0.0000

> <Gold.PLP.part.buried>
-4.0934

> <Gold.PLP.part.nonpolar>
-23.0951

> <Gold.PLP.part.repulsive>
0.1830

> <Gold.PLP.ligand.clash>
0.0000

> <Gold.PLP.ligand.torsion>
0.7065

> <Gold.PLP.Chemscore.Hbond>
4.7120

> <Gold.PLP.Chemscore.CHOScore>
0.0000

> <Gold.PLP.Chemscore.Metal>
0.0000

> <Gold.Chemscore.Hbonds>
donor molecule, donor type, donor heavy atom, donor atom, acceptor molecule, acceptor atom, score
      P1  H  6896  6909       L1     9  1.00
      P1  H  6931  6943       L1    17  1.89
      P1  H  6934  6947       L1    17  1.82

> <Gold.PLP.Chemscore.Internal.Correction>
0.6035

> <Gold.Rescore>
     Score         DG    S(hbond)    S(metal)    S(lipo)     H(rot)  DE(clash)    DE(int)     intcor
     15.21     -17.13       2.55        0.00      62.59       1.64       0.00       1.92       ----

> <Gold.Chemscore.Fitness>
15.2118

> <Gold.Chemscore.DG>
-17.1288

> <Gold.Chemscore.ZeroCoef>
-5.4800

> <Gold.Chemscore.Hbond>
2.5510

> <Gold.Chemscore.Metal>
0.0000

> <Gold.Chemscore.Lipo>
62.5950

> <Gold.Chemscore.Internal_Hbond>
0.0000

> <Gold.Chemscore.DEClash>
0.0009

> <Gold.Chemscore.DEInternal>
1.9161

> <Gold.Chemscore.Rot>
1.6387

> <Gold.Chemscore.Internal.Correction>
   9.000000E+99

> <Gold.Chemscore.Hbonds>
donor molecule, donor type, donor heavy atom, donor atom, acceptor molecule, acceptor atom, score
      P1  H  6896  6909       L1     9  0.72
      P1  H  6931  6943       L1    17  0.89
      P1  H  6934  6947       L1    17  0.88

> <Gold.Chemscore.Hbond.Weighted>
-8.5203

> <Gold.Chemscore.Metal.Weighted>
-0.0000

> <Gold.Chemscore.Lipo.Weighted>
-7.3236

> <Gold.Chemscore.Internal_Hbond.Weighted>
0.0000

> <Gold.Chemscore.DEClash.Weighted>
0.0009

> <Gold.Chemscore.DEInternal.Weighted>
1.9161

> <Gold.Chemscore.Rot.Weighted>
4.1950

> <Gold.Chemscore.Internal.Correction.Weighted>
   9.000000E+99

> <Gold.Protein.RotatedTorsions>
[ 6907 6896 6895 6894 ] final   12.46 input  -60.11 | X-H torsion
[ 7974 7965 7964 7962 ] final   50.86 input  175.53 | X-H torsion
[ 8008 7997 7996 7995 ] final   38.66 input   59.86 | X-H torsion
[ 10167 10162 10161 10158 ] final  170.44 input  -65.29 | X-H torsion
[ 10718 10713 10712 10709 ] final  150.55 input   66.30 | X-H torsion
[ 10763 10752 10751 10750 ] final  -68.77 input  -60.55 | X-H torsion
[ 11005 11000 10999 10996 ] final  154.27 input  -57.11 | X-H torsion

> <Gold.Protein.ActiveResidues>
 VAL166  LYS551  ARG553  GLY616  TRP617  ASP618  TYR619  PRO620  LYS621  CYS622 
 ASP623  PHE694  ASN695  SER759  ASP760  ASP761  ALA762  ILE779  LEU786  VAL792 
 PHE793  MET794  SER795  GLU796  ALA797  LYS798  CYS799  TRP800  GLU811  SER814 

> <Gold.Protein.RotatedAtoms>
  151.7707  135.0787  160.0359 H   0  0  0  0  0  0  0  0  0  0  0  0  # atno 6907 bound_to 6896
  152.3290  133.5933  159.5805 H   0  0  0  0  0  0  0  0  0  0  0  0  # atno 6908 bound_to 6896
  150.7412  133.9812  159.3618 H   0  0  0  0  0  0  0  0  0  0  0  0  # atno 6909 bound_to 6896
  145.9971  139.4399  143.0038 H   0  0  0  0  0  0  0  0  0  0  0  0  # atno 7974 bound_to 7965
  155.2239  140.3333  155.4312 H   0  0  0  0  0  0  0  0  0  0  0  0  # atno 8008 bound_to 7997
  156.2322  140.1856  156.7259 H   0  0  0  0  0  0  0  0  0  0  0  0  # atno 8009 bound_to 7997
  154.5998  140.0625  156.9338 H   0  0  0  0  0  0  0  0  0  0  0  0  # atno 8010 bound_to 7997
  139.5019  144.3596  151.9839 H   0  0  0  0  0  0  0  0  0  0  0  0  # atno 10167 bound_to 10162
  157.2820  131.0837  151.1525 H   0  0  0  0  0  0  0  0  0  0  0  0  # atno 10718 bound_to 10713
  154.3938  135.6046  153.5858 H   0  0  0  0  0  0  0  0  0  0  0  0  # atno 10763 bound_to 10752
  152.9787  135.5890  154.4265 H   0  0  0  0  0  0  0  0  0  0  0  0  # atno 10764 bound_to 10752
  154.4054  135.2843  155.2049 H   0  0  0  0  0  0  0  0  0  0  0  0  # atno 10765 bound_to 10752
  140.1474  134.8698  157.2410 H   0  0  0  0  0  0  0  0  0  0  0  0  # atno 11005 bound_to 11000
  145.7544  140.9960  143.1233 LP  0  0  0  0  0  0  0  0  0  0  0  0  # atno 17320 bound_to 7965
  144.6907  139.9253  143.7469 LP  0  0  0  0  0  0  0  0  0  0  0  0  # atno 17321 bound_to 7965
  140.3032  144.3623  150.6054 LP  0  0  0  0  0  0  0  0  0  0  0  0  # atno 17342 bound_to 10162
  140.5857  143.2170  151.7347 LP  0  0  0  0  0  0  0  0  0  0  0  0  # atno 17343 bound_to 10162
  157.2955  130.6817  149.6136 LP  0  0  0  0  0  0  0  0  0  0  0  0  # atno 17370 bound_to 10713
  155.9664  130.4408  150.5313 LP  0  0  0  0  0  0  0  0  0  0  0  0  # atno 17371 bound_to 10713
  140.2646  134.3530  155.7394 LP  0  0  0  0  0  0  0  0  0  0  0  0  # atno 17394 bound_to 11000
  141.2194  133.7389  156.9132 LP  0  0  0  0  0  0  0  0  0  0  0  0  # atno 17395 bound_to 11000

$$$$
