AV-unprocessed.smi:2845|AV-procd|sdf|10946|dock8
  -GOLD-   2272015393D 1   1.00000     0.00000
 Structure written by MMmdl.
 42 44  0  0  0  0  0  0  0  0  1 V2000
  152.9843  142.7765  161.4979 C   0  0  0  0  0  0  0  0  0  0  0  0
  152.3999  142.4815  160.1278 C   0  0  0  0  0  0  0  0  0  0  0  0
  152.7513  141.2782  159.4759 C   0  0  0  0  0  0  0  0  0  0  0  0
  152.2313  140.9664  158.2007 C   0  0  0  0  0  0  0  0  0  0  0  0
  152.4421  139.8635  157.3911 N   0  0  0  0  0  0  0  0  0  0  0  0
  151.6868  140.1577  156.3372 C   0  0  0  0  0  0  0  0  0  0  0  0
  151.0072  141.3202  156.3692 N   0  0  0  0  0  0  0  0  0  0  0  0
  150.1309  141.8444  155.3362 C   0  0  0  0  0  0  0  0  0  0  0  0
  149.2063  140.7651  154.7423 C   0  0  1  0  0  0  0  0  0  0  0  0
  149.9548  139.9088  153.8995 O   0  0  0  0  0  0  0  0  0  0  0  0
  148.5069  139.9390  155.8382 C   0  0  0  0  0  0  0  0  0  0  0  0
  147.4662  140.6900  156.5166 N   0  0  0  0  0  0  0  0  0  0  0  0
  147.0565  141.9497  156.3413 C   0  0  0  0  0  0  0  0  0  0  0  0
  146.0613  142.3100  157.1407 N   0  0  0  0  0  0  0  0  0  0  0  0
  145.9033  141.1394  157.8234 C   0  0  0  0  0  0  0  0  0  0  0  0
  144.6378  140.9645  159.1203 S   0  0  2  0  0  0  0  0  0  0  0  0
  143.4533  142.1950  158.3966 C   0  0  0  0  0  0  0  0  0  0  0  0
  145.2334  141.5988  160.3789 O   0  0  0  0  0  0  0  0  0  0  0  0
  146.7151  140.1350  157.4974 N   0  0  0  0  0  0  0  0  0  0  0  0
  151.3404  141.8976  157.5903 C   0  0  0  0  0  0  0  0  0  0  0  0
  150.9819  143.0976  158.2302 C   0  0  0  0  0  0  0  0  0  0  0  0
  151.5125  143.3944  159.5034 C   0  0  0  0  0  0  0  0  0  0  0  0
  151.1210  144.6939  160.1844 C   0  0  0  0  0  0  0  0  0  0  0  0
  153.6520  141.9795  161.8263 H   0  0  0  0  0  0  0  0  0  0  0  0
  152.1903  142.8742  162.2386 H   0  0  0  0  0  0  0  0  0  0  0  0
  153.5563  143.7043  161.4777 H   0  0  0  0  0  0  0  0  0  0  0  0
  153.4267  140.5819  159.9510 H   0  0  0  0  0  0  0  0  0  0  0  0
  151.6214  139.4883  155.4917 H   0  0  0  0  0  0  0  0  0  0  0  0
  149.5427  142.6634  155.7520 H   0  0  0  0  0  0  0  0  0  0  0  0
  150.7550  142.2765  154.5530 H   0  0  0  0  0  0  0  0  0  0  0  0
  148.4454  141.2511  154.1299 H   0  0  0  0  0  0  0  0  0  0  0  0
  149.5777  139.9333  153.0329 H   0  0  0  0  0  0  0  0  0  0  0  0
  148.0762  139.0273  155.4205 H   0  0  0  0  0  0  0  0  0  0  0  0
  149.2329  139.6248  156.5891 H   0  0  0  0  0  0  0  0  0  0  0  0
  147.4936  142.6152  155.6113 H   0  0  0  0  0  0  0  0  0  0  0  0
  143.6244  142.3273  157.3281 H   0  0  0  0  0  0  0  0  0  0  0  0
  143.5674  143.1610  158.8882 H   0  0  0  0  0  0  0  0  0  0  0  0
  142.4282  141.8532  158.5390 H   0  0  0  0  0  0  0  0  0  0  0  0
  150.3033  143.7835  157.7455 H   0  0  0  0  0  0  0  0  0  0  0  0
  150.4158  145.2637  159.5789 H   0  0  0  0  0  0  0  0  0  0  0  0
  151.9997  145.3175  160.3500 H   0  0  0  0  0  0  0  0  0  0  0  0
  150.6499  144.4951  161.1473 H   0  0  0  0  0  0  0  0  0  0  0  0
  1  2  1  0  0  0  0
  1 24  1  0  0  0  0
  1 25  1  0  0  0  0
  1 26  1  0  0  0  0
  2 22  1  0  0  0  0
  2  3  2  0  0  0  0
  3  4  1  0  0  0  0
  3 27  1  0  0  0  0
  4 20  2  0  0  0  0
  4  5  1  0  0  0  0
  5  6  2  0  0  0  0
  6  7  1  0  0  0  0
  6 28  1  0  0  0  0
  7  8  1  0  0  0  0
  7 20  1  0  0  0  0
  8  9  1  0  0  0  0
  8 29  1  0  0  0  0
  8 30  1  0  0  0  0
  9 10  1  0  0  0  0
  9 11  1  0  0  0  0
  9 31  1  0  0  0  0
 10 32  1  0  0  0  0
 11 12  1  0  0  0  0
 11 33  1  0  0  0  0
 11 34  1  0  0  0  0
 12 19  1  0  0  0  0
 12 13  1  0  0  0  0
 13 14  2  0  0  0  0
 13 35  1  0  0  0  0
 14 15  1  0  0  0  0
 15 16  1  0  0  0  0
 15 19  2  0  0  0  0
 16 17  1  0  0  0  0
 16 18  2  0  0  0  0
 17 36  1  0  0  0  0
 17 37  1  0  0  0  0
 17 38  1  0  0  0  0
 20 21  1  0  0  0  0
 21 22  2  0  0  0  0
 21 39  1  0  0  0  0
 22 23  1  0  0  0  0
 23 40  1  0  0  0  0
 23 41  1  0  0  0  0
 23 42  1  0  0  0  0
M  END
> <s_m_source_file>
AV-unprocessed.smi

> <i_m_source_file_index>
2845

> <i_lp_mmshare_version>
43012

> <i_f3d_flags>
0

> <s_epik_input>
W0NIM11jKFtjSF0xKWMoW0NIM10pW2NIXWMoYzEyKW4oW2NIXW4yKVtDSDJdW0NASF0oW09IXSlbQ0gyXW4zW2NIXW5jKG4zKVtTQF0oPU8pW0NIM10=

> <s_epik_cmdline>
J2VwaWtfcHl0aG9uJywgJy1waCcsICc3LjAnLCAnLXRuJywgJzgnLCAnLW1hJywgJzIwMCcsICctbWV0YWxfYmluZGluZycsICctaW1hZScsICc8aW5maWxlLm1hZT4nLCAnLW9tYWUnLCAnPG91dGZpbGUubWFlPic=

> <r_lp_tautomer_probability>
1

> <r_epik_Ionization_Penalty>
0.0968684

> <r_epik_Ionization_Penalty_Charging>
0

> <r_epik_Ionization_Penalty_Neutral>
0.0968684

> <r_epik_State_Penalty>
0.0870047

> <r_epik_Charging_Adjusted_Penalty>
0.0870047

> <i_epik_Tot_Q>
0

> <i_epik_Tot_abs_Q>
0

> <r_epik_Metal_State_Penalty>
0.0746849

> <b_epik_Metal_Only>
0

> <s_lp_Force_Field>
OPLS_2005

> <r_lp_Energy>
9.68664

> <b_lp_Chiralities_Consistent>
1

> <s_lp_Variant>
AV-unprocessed.smi:2845-4

> <Gold.Version>
5.8.1

> <Gold.Id.Protein>
6NUR|6NUR_protein|mol2

> <Gold.PLP.Fitness>
51.5602

> <Gold.PLP.PLP>
-38.6361

> <Gold.PLP.part.hbond>
-4.0000

> <Gold.PLP.part.metal>
0.0000

> <Gold.PLP.part.buried>
-4.7160

> <Gold.PLP.part.nonpolar>
-29.2709

> <Gold.PLP.part.repulsive>
0.1052

> <Gold.PLP.ligand.clash>
0.0000

> <Gold.PLP.ligand.torsion>
1.3128

> <Gold.PLP.Chemscore.Hbond>
3.8393

> <Gold.PLP.Chemscore.CHOScore>
1.0000

> <Gold.PLP.Chemscore.Metal>
0.0000

> <Gold.Chemscore.Hbonds>
donor molecule, donor type, donor heavy atom, donor atom, acceptor molecule, acceptor atom, score
      L1  H    10    32       P1  7957  1.00
      P1  H  6934  6946       L1    18  1.00
      P1  H  7989  7998       L1    10  0.75
      P1  H  7997  8008       L1     5  0.84
      L1  C    13    35       P1  8028  1.00

> <Gold.PLP.Chemscore.Internal.Correction>
1.0319

> <Gold.Rescore>
     Score         DG    S(hbond)    S(metal)    S(lipo)     H(rot)  DE(clash)    DE(int)     intcor
     15.37     -18.34       2.66        0.00      93.21       2.71       0.65       2.32       ----

> <Gold.Chemscore.Fitness>
15.3694

> <Gold.Chemscore.DG>
-18.3448

> <Gold.Chemscore.ZeroCoef>
-5.4800

> <Gold.Chemscore.Hbond>
2.6643

> <Gold.Chemscore.Metal>
0.0000

> <Gold.Chemscore.Lipo>
93.2127

> <Gold.Chemscore.Internal_Hbond>
0.0000

> <Gold.Chemscore.DEClash>
0.6537

> <Gold.Chemscore.DEInternal>
2.3218

> <Gold.Chemscore.Rot>
2.7108

> <Gold.Chemscore.Internal.Correction>
   9.000000E+99

> <Gold.Chemscore.Hbonds>
donor molecule, donor type, donor heavy atom, donor atom, acceptor molecule, acceptor atom, score
      L1  H    10    32       P1  7957  0.98
      P1  H  6934  6946       L1    18  0.67
      P1  H  7989  7998       L1    10  0.07
      P1  H  7997  8008       L1     5  0.14

> <Gold.Chemscore.Hbond.Weighted>
-8.8986

> <Gold.Chemscore.Metal.Weighted>
-0.0000

> <Gold.Chemscore.Lipo.Weighted>
-10.9059

> <Gold.Chemscore.Internal_Hbond.Weighted>
0.0000

> <Gold.Chemscore.DEClash.Weighted>
0.6537

> <Gold.Chemscore.DEInternal.Weighted>
2.3218

> <Gold.Chemscore.Rot.Weighted>
6.9396

> <Gold.Chemscore.Internal.Correction.Weighted>
   9.000000E+99

> <Gold.Protein.RotatedTorsions>
[ 6907 6896 6895 6894 ] final   40.21 input  -60.11 | X-H torsion
[ 7974 7965 7964 7962 ] final  -67.93 input  175.53 | X-H torsion
[ 8008 7997 7996 7995 ] final  -56.38 input   59.86 | X-H torsion
[ 10167 10162 10161 10158 ] final  109.39 input  -65.29 | X-H torsion
[ 10718 10713 10712 10709 ] final   21.31 input   66.30 | X-H torsion
[ 10763 10752 10751 10750 ] final  -42.41 input  -60.55 | X-H torsion
[ 11005 11000 10999 10996 ] final   98.00 input  -57.11 | X-H torsion

> <Gold.Protein.ActiveResidues>
 VAL166  LYS551  ARG553  GLY616  TRP617  ASP618  TYR619  PRO620  LYS621  CYS622 
 ASP623  PHE694  ASN695  SER759  ASP760  ASP761  ALA762  ILE779  LEU786  VAL792 
 PHE793  MET794  SER795  GLU796  ALA797  LYS798  CYS799  TRP800  GLU811  SER814 

> <Gold.Protein.RotatedAtoms>
  152.1795  134.8766  160.0527 H   0  0  0  0  0  0  0  0  0  0  0  0  # atno 6907 bound_to 6896
  151.9696  133.3716  159.4074 H   0  0  0  0  0  0  0  0  0  0  0  0  # atno 6908 bound_to 6896
  150.6915  134.4078  159.5192 H   0  0  0  0  0  0  0  0  0  0  0  0  # atno 6909 bound_to 6896
  145.7230  140.9030  143.0620 H   0  0  0  0  0  0  0  0  0  0  0  0  # atno 7974 bound_to 7965
  154.4228  140.1131  156.5628 H   0  0  0  0  0  0  0  0  0  0  0  0  # atno 8008 bound_to 7997
  155.6293  140.3495  155.4659 H   0  0  0  0  0  0  0  0  0  0  0  0  # atno 8009 bound_to 7997
  155.9961  140.1189  157.0582 H   0  0  0  0  0  0  0  0  0  0  0  0  # atno 8010 bound_to 7997
  139.6770  144.7121  151.1584 H   0  0  0  0  0  0  0  0  0  0  0  0  # atno 10167 bound_to 10162
  157.1367  130.6614  149.5968 H   0  0  0  0  0  0  0  0  0  0  0  0  # atno 10718 bound_to 10713
  153.9785  135.6720  153.4749 H   0  0  0  0  0  0  0  0  0  0  0  0  # atno 10763 bound_to 10752
  153.0759  135.4949  154.8400 H   0  0  0  0  0  0  0  0  0  0  0  0  # atno 10764 bound_to 10752
  154.7178  135.3110  154.9057 H   0  0  0  0  0  0  0  0  0  0  0  0  # atno 10765 bound_to 10752
  139.8774  134.9028  156.4390 H   0  0  0  0  0  0  0  0  0  0  0  0  # atno 11005 bound_to 11000
  144.6912  139.9228  143.7468 LP  0  0  0  0  0  0  0  0  0  0  0  0  # atno 17320 bound_to 7965
  146.0608  139.3602  143.0582 LP  0  0  0  0  0  0  0  0  0  0  0  0  # atno 17321 bound_to 7965
  140.7639  143.5756  150.8949 LP  0  0  0  0  0  0  0  0  0  0  0  0  # atno 17342 bound_to 10162
  139.9426  143.6365  152.3050 LP  0  0  0  0  0  0  0  0  0  0  0  0  # atno 17343 bound_to 10162
  155.9797  130.4792  150.6728 LP  0  0  0  0  0  0  0  0  0  0  0  0  # atno 17370 bound_to 10713
  157.4344  131.0853  151.1007 LP  0  0  0  0  0  0  0  0  0  0  0  0  # atno 17371 bound_to 10713
  140.9013  133.7778  155.9683 LP  0  0  0  0  0  0  0  0  0  0  0  0  # atno 17394 bound_to 11000
  140.8648  134.2797  157.5218 LP  0  0  0  0  0  0  0  0  0  0  0  0  # atno 17395 bound_to 11000

$$$$
