AV-unprocessed.smi:1187|AV-procd|sdf|4976|dock8
  -GOLD-   22720 3573D 1   1.00000     0.00000
 Structure written by MMmdl.
 38 39  0  0  0  0  0  0  0  0  1 V2000
  150.4637  142.0311  157.9990 C   0  0  0  0  0  0  0  0  0  0  0  0
  150.9998  141.5559  156.7689 O   0  0  0  0  0  0  0  0  0  0  0  0
  150.4130  140.4541  156.1809 C   0  0  0  0  0  0  0  0  0  0  0  0
  149.5421  139.6601  156.9534 C   0  0  0  0  0  0  0  0  0  0  0  0
  148.9416  138.5321  156.3616 C   0  0  0  0  0  0  0  0  0  0  0  0
  149.2397  138.2288  155.0116 C   0  0  0  0  0  0  0  0  0  0  0  0
  148.6898  137.1314  154.2956 N   0  0  0  0  0  0  0  0  0  0  0  0
  147.7575  136.2504  154.6968 C   0  0  0  0  0  0  0  0  0  0  0  0
  147.2007  136.2495  155.7945 O   0  0  0  0  0  0  0  0  0  0  0  0
  147.5117  135.3395  153.7435 N   0  0  0  0  0  0  0  0  0  0  0  0
  146.5526  134.2419  153.8536 C   0  0  0  0  0  0  0  0  0  0  0  0
  146.7791  133.1244  152.8184 C   0  0  0  0  0  0  0  0  0  0  0  0
  147.8187  132.4630  152.8441 O   0  0  0  0  0  0  0  0  0  0  0  0
  145.8075  132.8935  151.9112 N   0  0  0  0  0  0  0  0  0  0  0  0
  144.5362  133.6107  151.8199 C   0  0  0  0  0  0  0  0  0  0  0  0
  143.6876  132.8221  150.8219 C   0  0  0  0  0  0  0  0  0  0  0  0
  144.7081  132.1096  149.9455 C   0  0  0  0  0  0  0  0  0  0  0  0
  145.8940  131.8626  150.8785 C   0  0  0  0  0  0  0  0  0  0  0  0
  150.1116  139.0959  154.3214 C   0  0  0  0  0  0  0  0  0  0  0  0
  150.6910  140.1776  154.8829 N   0  0  0  0  0  0  0  0  0  0  0  0
  151.0339  142.8988  158.3304 H   0  0  0  0  0  0  0  0  0  0  0  0
  150.5282  141.2746  158.7823 H   0  0  0  0  0  0  0  0  0  0  0  0
  149.4241  142.3422  157.8860 H   0  0  0  0  0  0  0  0  0  0  0  0
  149.3358  139.9137  157.9827 H   0  0  0  0  0  0  0  0  0  0  0  0
  148.2602  137.9360  156.9484 H   0  0  0  0  0  0  0  0  0  0  0  0
  149.1032  136.9567  153.3914 H   0  0  0  0  0  0  0  0  0  0  0  0
  148.0137  135.4162  152.8713 H   0  0  0  0  0  0  0  0  0  0  0  0
  146.6448  133.8164  154.8529 H   0  0  0  0  0  0  0  0  0  0  0  0
  145.5373  134.6323  153.7687 H   0  0  0  0  0  0  0  0  0  0  0  0
  144.0324  133.6886  152.7843 H   0  0  0  0  0  0  0  0  0  0  0  0
  144.7220  134.6194  151.4478 H   0  0  0  0  0  0  0  0  0  0  0  0
  143.0886  132.0836  151.3564 H   0  0  0  0  0  0  0  0  0  0  0  0
  143.0071  133.4549  150.2515 H   0  0  0  0  0  0  0  0  0  0  0  0
  144.3190  131.1916  149.5041 H   0  0  0  0  0  0  0  0  0  0  0  0
  145.0140  132.7687  149.1321 H   0  0  0  0  0  0  0  0  0  0  0  0
  146.8402  131.9013  150.3363 H   0  0  0  0  0  0  0  0  0  0  0  0
  145.8121  130.8819  151.3496 H   0  0  0  0  0  0  0  0  0  0  0  0
  150.3589  138.9146  153.2854 H   0  0  0  0  0  0  0  0  0  0  0  0
  1  2  1  0  0  0  0
  1 21  1  0  0  0  0
  1 22  1  0  0  0  0
  1 23  1  0  0  0  0
  2  3  1  0  0  0  0
  3 20  1  0  0  0  0
  3  4  2  0  0  0  0
  4  5  1  0  0  0  0
  4 24  1  0  0  0  0
  5  6  2  0  0  0  0
  5 25  1  0  0  0  0
  6  7  1  0  0  0  0
  6 19  1  0  0  0  0
  7  8  1  0  0  0  0
  7 26  1  0  0  0  0
  8  9  2  0  0  0  0
  8 10  1  0  0  0  0
 10 11  1  0  0  0  0
 10 27  1  0  0  0  0
 11 12  1  0  0  0  0
 11 28  1  0  0  0  0
 11 29  1  0  0  0  0
 12 13  2  0  0  0  0
 12 14  1  0  0  0  0
 14 18  1  0  0  0  0
 14 15  1  0  0  0  0
 15 16  1  0  0  0  0
 15 30  1  0  0  0  0
 15 31  1  0  0  0  0
 16 17  1  0  0  0  0
 16 32  1  0  0  0  0
 16 33  1  0  0  0  0
 17 18  1  0  0  0  0
 17 34  1  0  0  0  0
 17 35  1  0  0  0  0
 18 36  1  0  0  0  0
 18 37  1  0  0  0  0
 19 20  2  0  0  0  0
 19 38  1  0  0  0  0
M  END
> <s_m_source_file>
AV-unprocessed.smi

> <i_m_source_file_index>
1187

> <i_lp_mmshare_version>
43012

> <i_f3d_flags>
0

> <s_epik_input>
W0NIM11PYzFbY0hdW2NIXWMoW2NIXW4xKVtOSF1DKD1PKVtOSF1bQ0gyXUMoPU8pTjJbQ0gyXVtDSDJdW0NIMl1bQ0gyXTI=

> <s_epik_cmdline>
J2VwaWtfcHl0aG9uJywgJy1waCcsICc3LjAnLCAnLXRuJywgJzgnLCAnLW1hJywgJzIwMCcsICctbWV0YWxfYmluZGluZycsICctaW1hZScsICc8aW5maWxlLm1hZT4nLCAnLW9tYWUnLCAnPG91dGZpbGUubWFlPic=

> <r_lp_tautomer_probability>
1

> <r_epik_Ionization_Penalty>
0.000141675

> <r_epik_Ionization_Penalty_Charging>
0

> <r_epik_Ionization_Penalty_Neutral>
0.000141675

> <r_epik_State_Penalty>
-0

> <r_epik_Charging_Adjusted_Penalty>
0

> <i_epik_Tot_Q>
0

> <i_epik_Tot_abs_Q>
0

> <r_epik_Metal_State_Penalty>
-0

> <b_epik_Metal_Only>
0

> <s_lp_Force_Field>
OPLS_2005

> <r_lp_Energy>
27.0256

> <b_lp_Chiralities_Consistent>
1

> <s_lp_Variant>
AV-unprocessed.smi:1187-1

> <Gold.Version>
5.8.1

> <Gold.Id.Protein>
6NUR|6NUR_protein|mol2

> <Gold.PLP.Fitness>
38.8794

> <Gold.PLP.PLP>
-27.5612

> <Gold.PLP.part.hbond>
-3.0000

> <Gold.PLP.part.metal>
0.0000

> <Gold.PLP.part.buried>
-5.5186

> <Gold.PLP.part.nonpolar>
-20.1385

> <Gold.PLP.part.repulsive>
0.2918

> <Gold.PLP.ligand.clash>
0.0000

> <Gold.PLP.ligand.torsion>
0.3314

> <Gold.PLP.Chemscore.Hbond>
2.9920

> <Gold.PLP.Chemscore.CHOScore>
1.0000

> <Gold.PLP.Chemscore.Metal>
0.0000

> <Gold.Chemscore.Hbonds>
donor molecule, donor type, donor heavy atom, donor atom, acceptor molecule, acceptor atom, score
      L1  H     7    26       P1  7948  0.98
      L1  H    10    27       P1  7948  1.00
      P1  H  7989  7998       L1    20  1.00
      L1  C    19    38       P1  7957  1.00

> <Gold.PLP.Chemscore.Internal.Correction>
0.0050

> <Gold.Rescore>
     Score         DG    S(hbond)    S(metal)    S(lipo)     H(rot)  DE(clash)    DE(int)     intcor
     15.87     -17.31       2.75        0.00      57.34       1.58       0.04       1.41       ----

> <Gold.Chemscore.Fitness>
15.8685

> <Gold.Chemscore.DG>
-17.3147

> <Gold.Chemscore.ZeroCoef>
-5.4800

> <Gold.Chemscore.Hbond>
2.7461

> <Gold.Chemscore.Metal>
0.0000

> <Gold.Chemscore.Lipo>
57.3372

> <Gold.Chemscore.Internal_Hbond>
0.0000

> <Gold.Chemscore.DEClash>
0.0402

> <Gold.Chemscore.DEInternal>
1.4059

> <Gold.Chemscore.Rot>
1.5804

> <Gold.Chemscore.Internal.Correction>
   9.000000E+99

> <Gold.Chemscore.Hbonds>
donor molecule, donor type, donor heavy atom, donor atom, acceptor molecule, acceptor atom, score
      L1  H     7    26       P1  7948  0.93
      L1  H    10    27       P1  7948  0.95
      P1  H  7989  7998       L1    20  0.35

> <Gold.Chemscore.Hbond.Weighted>
-9.1721

> <Gold.Chemscore.Metal.Weighted>
-0.0000

> <Gold.Chemscore.Lipo.Weighted>
-6.7085

> <Gold.Chemscore.Internal_Hbond.Weighted>
0.0000

> <Gold.Chemscore.DEClash.Weighted>
0.0402

> <Gold.Chemscore.DEInternal.Weighted>
1.4059

> <Gold.Chemscore.Rot.Weighted>
4.0459

> <Gold.Chemscore.Internal.Correction.Weighted>
   9.000000E+99

> <Gold.Protein.RotatedTorsions>
[ 6907 6896 6895 6894 ] final  -18.72 input  -60.11 | X-H torsion
[ 7974 7965 7964 7962 ] final  -47.32 input  175.53 | X-H torsion
[ 8008 7997 7996 7995 ] final -120.51 input   59.86 | X-H torsion
[ 10167 10162 10161 10158 ] final   22.10 input  -65.29 | X-H torsion
[ 10718 10713 10712 10709 ] final    7.04 input   66.30 | X-H torsion
[ 10763 10752 10751 10750 ] final -166.35 input  -60.55 | X-H torsion
[ 11005 11000 10999 10996 ] final  -50.83 input  -57.11 | X-H torsion

> <Gold.Protein.ActiveResidues>
 VAL166  LYS551  ARG553  GLY616  TRP617  ASP618  TYR619  PRO620  LYS621  CYS622 
 ASP623  PHE694  ASN695  SER759  ASP760  ASP761  ALA762  ILE779  LEU786  VAL792 
 PHE793  MET794  SER795  GLU796  ALA797  LYS798  CYS799  TRP800  GLU811  SER814 

> <Gold.Protein.RotatedAtoms>
  151.2739  135.0693  159.9143 H   0  0  0  0  0  0  0  0  0  0  0  0  # atno 6907 bound_to 6896
  152.5346  134.0102  159.7945 H   0  0  0  0  0  0  0  0  0  0  0  0  # atno 6908 bound_to 6896
  151.0344  133.5711  159.2688 H   0  0  0  0  0  0  0  0  0  0  0  0  # atno 6909 bound_to 6896
  145.9628  140.7462  142.9449 H   0  0  0  0  0  0  0  0  0  0  0  0  # atno 7974 bound_to 7965
  155.1330  140.0400  157.2779 H   0  0  0  0  0  0  0  0  0  0  0  0  # atno 8008 bound_to 7997
  154.6529  140.2573  155.7168 H   0  0  0  0  0  0  0  0  0  0  0  0  # atno 8009 bound_to 7997
  156.2585  140.2832  156.0970 H   0  0  0  0  0  0  0  0  0  0  0  0  # atno 8010 bound_to 7997
  140.5375  143.9735  150.6500 H   0  0  0  0  0  0  0  0  0  0  0  0  # atno 10167 bound_to 10162
  156.9311  130.5826  149.5649 H   0  0  0  0  0  0  0  0  0  0  0  0  # atno 10718 bound_to 10713
  154.6842  135.2959  154.9571 H   0  0  0  0  0  0  0  0  0  0  0  0  # atno 10763 bound_to 10752
  154.0556  135.6638  153.4809 H   0  0  0  0  0  0  0  0  0  0  0  0  # atno 10764 bound_to 10752
  153.0567  135.5140  154.7900 H   0  0  0  0  0  0  0  0  0  0  0  0  # atno 10765 bound_to 10752
  141.0838  133.6647  156.3789 H   0  0  0  0  0  0  0  0  0  0  0  0  # atno 11005 bound_to 11000
  144.6819  140.2619  143.7318 LP  0  0  0  0  0  0  0  0  0  0  0  0  # atno 17320 bound_to 7965
  145.8016  139.1966  143.2045 LP  0  0  0  0  0  0  0  0  0  0  0  0  # atno 17321 bound_to 7965
  140.3127  143.3188  152.0863 LP  0  0  0  0  0  0  0  0  0  0  0  0  # atno 17342 bound_to 10162
  139.4976  144.6626  151.6430 LP  0  0  0  0  0  0  0  0  0  0  0  0  # atno 17343 bound_to 10162
  156.0447  130.5525  150.8853 LP  0  0  0  0  0  0  0  0  0  0  0  0  # atno 17370 bound_to 10713
  157.5846  131.0946  150.9216 LP  0  0  0  0  0  0  0  0  0  0  0  0  # atno 17371 bound_to 10713
  140.5409  134.6121  157.5379 LP  0  0  0  0  0  0  0  0  0  0  0  0  # atno 17394 bound_to 11000
  139.9654  134.7382  156.0150 LP  0  0  0  0  0  0  0  0  0  0  0  0  # atno 17395 bound_to 11000

$$$$
