AV-unprocessed.smi:830|AV-procd|sdf|3870|dock3
  -GOLD-   22720 1323D 1   1.00000     0.00000
 Structure written by MMmdl.
 52 54  0  0  0  0  0  0  0  0  1 V2000
  151.6635  137.8570  155.1601 C   0  0  0  0  0  0  0  0  0  0  0  0
  150.2037  137.5565  155.5398 C   0  0  2  0  0  0  0  0  0  0  0  0
  149.6663  136.4938  154.6920 N   0  0  0  0  0  0  0  0  0  0  0  0
  149.5714  135.1988  155.0236 C   0  0  0  0  0  0  0  0  0  0  0  0
  149.9228  134.7438  156.1124 O   0  0  0  0  0  0  0  0  0  0  0  0
  149.0694  134.4758  154.0094 N   0  0  0  0  0  0  0  0  0  0  0  0
  148.9149  133.0636  153.9450 C   0  0  0  0  0  0  0  0  0  0  0  0
  149.5433  132.2153  154.8886 C   0  0  0  0  0  0  0  0  0  0  0  0
  149.3070  130.8310  154.8357 C   0  0  0  0  0  0  0  0  0  0  0  0
  148.4351  130.3436  153.8480 C   0  0  0  0  0  0  0  0  0  0  0  0
  147.8194  131.1396  152.9511 N   0  0  0  0  0  0  0  0  0  0  0  0
  148.0487  132.4759  152.9785 C   0  0  0  0  0  0  0  0  0  0  0  0
  147.3896  133.2564  152.0001 N   0  0  0  0  0  0  0  0  0  0  0  0
  146.4980  134.3421  152.3949 C   0  0  0  0  0  0  0  0  0  0  0  0
  145.6957  134.6730  151.1395 C   0  0  0  0  0  0  0  0  0  0  0  0
  145.5288  133.3033  150.4895 C   0  0  0  0  0  0  0  0  0  0  0  0
  146.8362  132.5808  150.8296 C   0  0  0  0  0  0  0  0  0  0  0  0
  149.3000  138.7953  155.5214 C   0  0  0  0  0  0  0  0  0  0  0  0
  148.1312  138.7274  155.9053 O   0  0  0  0  0  0  0  0  0  0  0  0
  149.8554  139.9260  155.0588 N   0  0  0  0  0  0  0  0  0  0  0  0
  149.1788  141.2162  154.9634 C   0  0  0  0  0  0  0  0  0  0  0  0
  148.4266  141.5291  156.2691 C   0  0  0  0  0  0  0  0  0  0  0  0
  146.9432  141.3383  155.9532 C   0  0  0  0  0  0  0  0  0  0  0  0
  146.8242  141.7315  154.4840 C   0  0  0  0  0  0  0  0  0  0  0  0
  148.1156  141.2159  153.8452 C   0  0  0  0  0  0  0  0  0  0  0  0
  152.0843  138.6404  155.7910 H   0  0  0  0  0  0  0  0  0  0  0  0
  151.7430  138.1869  154.1235 H   0  0  0  0  0  0  0  0  0  0  0  0
  152.2917  136.9733  155.2765 H   0  0  0  0  0  0  0  0  0  0  0  0
  150.1978  137.1968  156.5709 H   0  0  0  0  0  0  0  0  0  0  0  0
  149.3456  136.7734  153.7763 H   0  0  0  0  0  0  0  0  0  0  0  0
  148.9132  134.9700  153.1429 H   0  0  0  0  0  0  0  0  0  0  0  0
  150.1833  132.6093  155.6635 H   0  0  0  0  0  0  0  0  0  0  0  0
  149.7730  130.1613  155.5432 H   0  0  0  0  0  0  0  0  0  0  0  0
  148.2213  129.2872  153.7790 H   0  0  0  0  0  0  0  0  0  0  0  0
  145.8180  134.0167  153.1831 H   0  0  0  0  0  0  0  0  0  0  0  0
  147.0573  135.2049  152.7577 H   0  0  0  0  0  0  0  0  0  0  0  0
  144.7463  135.1623  151.3584 H   0  0  0  0  0  0  0  0  0  0  0  0
  146.2748  135.3274  150.4864 H   0  0  0  0  0  0  0  0  0  0  0  0
  144.6901  132.7795  150.9500 H   0  0  0  0  0  0  0  0  0  0  0  0
  145.3418  133.3594  149.4168 H   0  0  0  0  0  0  0  0  0  0  0  0
  147.5396  132.6806  150.0027 H   0  0  0  0  0  0  0  0  0  0  0  0
  146.6691  131.5173  151.0060 H   0  0  0  0  0  0  0  0  0  0  0  0
  150.8190  139.8929  154.7583 H   0  0  0  0  0  0  0  0  0  0  0  0
  149.9147  142.0030  154.7863 H   0  0  0  0  0  0  0  0  0  0  0  0
  148.7499  140.9196  157.1142 H   0  0  0  0  0  0  0  0  0  0  0  0
  148.6012  142.5707  156.5419 H   0  0  0  0  0  0  0  0  0  0  0  0
  146.6720  140.2891  156.0773 H   0  0  0  0  0  0  0  0  0  0  0  0
  146.2965  141.9300  156.6013 H   0  0  0  0  0  0  0  0  0  0  0  0
  145.9302  141.3248  154.0103 H   0  0  0  0  0  0  0  0  0  0  0  0
  146.7811  142.8181  154.3986 H   0  0  0  0  0  0  0  0  0  0  0  0
  148.4177  141.8251  152.9929 H   0  0  0  0  0  0  0  0  0  0  0  0
  147.9480  140.2041  153.4717 H   0  0  0  0  0  0  0  0  0  0  0  0
  1  2  1  0  0  0  0
  1 26  1  0  0  0  0
  1 27  1  0  0  0  0
  1 28  1  0  0  0  0
  2  3  1  0  0  0  0
  2 18  1  0  0  0  0
  2 29  1  0  0  0  0
  3  4  1  0  0  0  0
  3 30  1  0  0  0  0
  4  5  2  0  0  0  0
  4  6  1  0  0  0  0
  6  7  1  0  0  0  0
  6 31  1  0  0  0  0
  7 12  1  0  0  0  0
  7  8  2  0  0  0  0
  8  9  1  0  0  0  0
  8 32  1  0  0  0  0
  9 10  2  0  0  0  0
  9 33  1  0  0  0  0
 10 11  1  0  0  0  0
 10 34  1  0  0  0  0
 11 12  2  0  0  0  0
 12 13  1  0  0  0  0
 13 17  1  0  0  0  0
 13 14  1  0  0  0  0
 14 15  1  0  0  0  0
 14 35  1  0  0  0  0
 14 36  1  0  0  0  0
 15 16  1  0  0  0  0
 15 37  1  0  0  0  0
 15 38  1  0  0  0  0
 16 17  1  0  0  0  0
 16 39  1  0  0  0  0
 16 40  1  0  0  0  0
 17 41  1  0  0  0  0
 17 42  1  0  0  0  0
 18 19  2  0  0  0  0
 18 20  1  0  0  0  0
 20 21  1  0  0  0  0
 20 43  1  0  0  0  0
 21 25  1  0  0  0  0
 21 22  1  0  0  0  0
 21 44  1  0  0  0  0
 22 23  1  0  0  0  0
 22 45  1  0  0  0  0
 22 46  1  0  0  0  0
 23 24  1  0  0  0  0
 23 47  1  0  0  0  0
 23 48  1  0  0  0  0
 24 25  1  0  0  0  0
 24 49  1  0  0  0  0
 24 50  1  0  0  0  0
 25 51  1  0  0  0  0
 25 52  1  0  0  0  0
M  END
> <s_m_source_file>
AV-unprocessed.smi

> <i_m_source_file_index>
830

> <i_lp_mmshare_version>
43012

> <i_f3d_flags>
0

> <s_epik_input>
W0NIMl0xW0NIMl1bQ0gyXVtDSDJdW0NIXTFbTkhdQyg9TylbQ0BIXShbQ0gzXSlbTkhdQyg9TylbTkhdYzJbY0hdW2NIXVtjSF1uYzJOM1tDSDJdW0NIMl1bQ0gyXVtDSDJdMw==

> <s_epik_cmdline>
J2VwaWtfcHl0aG9uJywgJy1waCcsICc3LjAnLCAnLXRuJywgJzgnLCAnLW1hJywgJzIwMCcsICctbWV0YWxfYmluZGluZycsICctaW1hZScsICc8aW5maWxlLm1hZT4nLCAnLW9tYWUnLCAnPG91dGZpbGUubWFlPic=

> <r_lp_tautomer_probability>
1

> <r_epik_Ionization_Penalty>
0.0827694

> <r_epik_Ionization_Penalty_Charging>
0

> <r_epik_Ionization_Penalty_Neutral>
0.0827694

> <r_epik_State_Penalty>
0.0729202

> <r_epik_Charging_Adjusted_Penalty>
0.0729202

> <i_epik_Tot_Q>
0

> <i_epik_Tot_abs_Q>
0

> <r_epik_Metal_State_Penalty>
0.0639723

> <b_epik_Metal_Only>
0

> <s_lp_Force_Field>
OPLS_2005

> <r_lp_Energy>
46.0812

> <b_lp_Chiralities_Consistent>
1

> <s_lp_Variant>
AV-unprocessed.smi:830-1

> <Gold.Version>
5.8.1

> <Gold.Id.Protein>
6NUR|6NUR_protein|mol2

> <Gold.PLP.Fitness>
44.6069

> <Gold.PLP.PLP>
-39.9935

> <Gold.PLP.part.hbond>
-2.3257

> <Gold.PLP.part.metal>
0.0000

> <Gold.PLP.part.buried>
-2.4624

> <Gold.PLP.part.nonpolar>
-35.5805

> <Gold.PLP.part.repulsive>
1.2427

> <Gold.PLP.ligand.clash>
0.0168

> <Gold.PLP.ligand.torsion>
0.6963

> <Gold.PLP.Chemscore.Hbond>
1.8480

> <Gold.PLP.Chemscore.CHOScore>
0.0000

> <Gold.PLP.Chemscore.Metal>
0.0000

> <Gold.Chemscore.Hbonds>
donor molecule, donor type, donor heavy atom, donor atom, acceptor molecule, acceptor atom, score
      L1  H     3    30       P1  7948  0.94
      L1  H     6    31       P1  7948  1.00

> <Gold.PLP.Chemscore.Internal.Correction>
0.4787

> <Gold.Rescore>
     Score         DG    S(hbond)    S(metal)    S(lipo)     H(rot)  DE(clash)    DE(int)     intcor
     10.28     -15.57       1.27        0.00      85.74       1.64       0.13       5.16       ----

> <Gold.Chemscore.Fitness>
10.2811

> <Gold.Chemscore.DG>
-15.5707

> <Gold.Chemscore.ZeroCoef>
-5.4800

> <Gold.Chemscore.Hbond>
1.2733

> <Gold.Chemscore.Metal>
0.0000

> <Gold.Chemscore.Lipo>
85.7402

> <Gold.Chemscore.Internal_Hbond>
0.0000

> <Gold.Chemscore.DEClash>
0.1291

> <Gold.Chemscore.DEInternal>
5.1604

> <Gold.Chemscore.Rot>
1.6382

> <Gold.Chemscore.Internal.Correction>
   9.000000E+99

> <Gold.Chemscore.Hbonds>
donor molecule, donor type, donor heavy atom, donor atom, acceptor molecule, acceptor atom, score
      L1  H     3    30       P1  7948  0.82
      L1  H     6    31       P1  7948  0.26

> <Gold.Chemscore.Hbond.Weighted>
-4.2527

> <Gold.Chemscore.Metal.Weighted>
-0.0000

> <Gold.Chemscore.Lipo.Weighted>
-10.0316

> <Gold.Chemscore.Internal_Hbond.Weighted>
0.0000

> <Gold.Chemscore.DEClash.Weighted>
0.1291

> <Gold.Chemscore.DEInternal.Weighted>
5.1604

> <Gold.Chemscore.Rot.Weighted>
4.1937

> <Gold.Chemscore.Internal.Correction.Weighted>
   9.000000E+99

> <Gold.Protein.RotatedTorsions>
[ 6907 6896 6895 6894 ] final  -92.44 input  -60.11 | X-H torsion
[ 7974 7965 7964 7962 ] final  -91.13 input  175.53 | X-H torsion
[ 8008 7997 7996 7995 ] final   28.72 input   59.86 | X-H torsion
[ 10167 10162 10161 10158 ] final   54.39 input  -65.29 | X-H torsion
[ 10718 10713 10712 10709 ] final  122.54 input   66.30 | X-H torsion
[ 10763 10752 10751 10750 ] final  102.75 input  -60.55 | X-H torsion
[ 11005 11000 10999 10996 ] final  -53.39 input  -57.11 | X-H torsion

> <Gold.Protein.ActiveResidues>
 VAL166  LYS551  ARG553  GLY616  TRP617  ASP618  TYR619  PRO620  LYS621  CYS622 
 ASP623  PHE694  ASN695  SER759  ASP760  ASP761  ALA762  ILE779  LEU786  VAL792 
 PHE793  MET794  SER795  GLU796  ALA797  LYS798  CYS799  TRP800  GLU811  SER814 

> <Gold.Protein.RotatedAtoms>
  150.6906  134.2121  159.4363 H   0  0  0  0  0  0  0  0  0  0  0  0  # atno 6907 bound_to 6896
  152.0082  134.9888  160.0576 H   0  0  0  0  0  0  0  0  0  0  0  0  # atno 6908 bound_to 6896
  152.1514  133.4489  159.4852 H   0  0  0  0  0  0  0  0  0  0  0  0  # atno 6909 bound_to 6896
  145.4172  140.9549  143.2201 H   0  0  0  0  0  0  0  0  0  0  0  0  # atno 7974 bound_to 7965
  155.0631  140.3192  155.4654 H   0  0  0  0  0  0  0  0  0  0  0  0  # atno 8008 bound_to 7997
  156.2808  140.2125  156.5702 H   0  0  0  0  0  0  0  0  0  0  0  0  # atno 8009 bound_to 7997
  154.7116  140.0497  157.0543 H   0  0  0  0  0  0  0  0  0  0  0  0  # atno 8010 bound_to 7997
  140.2306  144.3691  150.6416 H   0  0  0  0  0  0  0  0  0  0  0  0  # atno 10167 bound_to 10162
  157.5735  131.1081  150.8323 H   0  0  0  0  0  0  0  0  0  0  0  0  # atno 10718 bound_to 10713
  153.3436  135.4000  155.1591 H   0  0  0  0  0  0  0  0  0  0  0  0  # atno 10763 bound_to 10752
  154.8648  135.3639  154.5313 H   0  0  0  0  0  0  0  0  0  0  0  0  # atno 10764 bound_to 10752
  153.5760  135.7078  153.5544 H   0  0  0  0  0  0  0  0  0  0  0  0  # atno 10765 bound_to 10752
  141.0973  133.6623  156.4164 H   0  0  0  0  0  0  0  0  0  0  0  0  # atno 11005 bound_to 11000
  144.8269  139.5694  143.6961 LP  0  0  0  0  0  0  0  0  0  0  0  0  # atno 17320 bound_to 7965
  146.2675  139.6555  142.9319 LP  0  0  0  0  0  0  0  0  0  0  0  0  # atno 17321 bound_to 7965
  140.6188  143.2174  151.6737 LP  0  0  0  0  0  0  0  0  0  0  0  0  # atno 17342 bound_to 10162
  139.5111  144.3519  152.0644 LP  0  0  0  0  0  0  0  0  0  0  0  0  # atno 17343 bound_to 10162
  156.8789  130.5172  149.5292 LP  0  0  0  0  0  0  0  0  0  0  0  0  # atno 17370 bound_to 10713
  156.0780  130.5797  150.9509 LP  0  0  0  0  0  0  0  0  0  0  0  0  # atno 17371 bound_to 10713
  140.5108  134.6397  157.5283 LP  0  0  0  0  0  0  0  0  0  0  0  0  # atno 17394 bound_to 11000
  139.9814  134.7132  155.9853 LP  0  0  0  0  0  0  0  0  0  0  0  0  # atno 17395 bound_to 11000

$$$$
