AV-unprocessed.smi:614|AV-procd|sdf|3069|dock3
  -GOLD-   2262023593D 1   1.00000     0.00000
 Structure written by MMmdl.
 44 45  0  0  0  0  0  0  0  0  1 V2000
  152.3966  143.0909  161.7053 C   0  0  0  0  0  0  0  0  0  0  0  0
  151.9467  143.5849  160.4219 N   0  0  0  0  0  0  0  0  0  0  0  0
  152.1751  144.8182  159.8460 C   0  0  0  0  0  0  0  0  0  0  0  0
  151.5502  144.8253  158.6312 C   0  0  0  0  0  0  0  0  0  0  0  0
  150.9618  143.5323  158.5585 C   0  0  0  0  0  0  0  0  0  0  0  0
  150.2031  143.1463  157.4237 N   0  0  0  0  0  0  0  0  0  0  0  0
  149.5753  141.9766  157.2147 C   0  0  0  0  0  0  0  0  0  0  0  0
  149.5982  141.0183  157.9861 O   0  0  0  0  0  0  0  0  0  0  0  0
  148.9208  141.9888  156.0408 N   0  0  0  0  0  0  0  0  0  0  0  0
  148.0945  140.9354  155.4310 C   0  0  2  0  0  0  0  0  0  0  0  0
  148.9115  139.6406  155.6519 C   0  0  0  0  0  0  0  0  0  0  0  0
  148.0273  141.1640  153.8898 C   0  0  0  0  0  0  0  0  0  0  0  0
  149.2855  141.1610  153.2454 O   0  0  0  0  0  0  0  0  0  0  0  0
  146.6834  140.8284  156.1172 C   0  0  0  0  0  0  0  0  0  0  0  0
  145.7980  139.6733  155.5807 C   0  0  0  0  0  0  0  0  0  0  0  0
  144.4862  139.5476  156.3729 C   0  0  0  0  0  0  0  0  0  0  0  0
  143.6993  140.8661  156.3646 C   0  0  0  0  0  0  0  0  0  0  0  0
  144.5612  142.0239  156.8884 C   0  0  0  0  0  0  0  0  0  0  0  0
  145.8704  142.1477  156.0921 C   0  0  0  0  0  0  0  0  0  0  0  0
  151.1987  142.7881  159.6301 N   0  0  0  0  0  0  0  0  0  0  0  0
  152.9988  143.8483  162.2080 H   0  0  0  0  0  0  0  0  0  0  0  0
  153.0000  142.1938  161.5644 H   0  0  0  0  0  0  0  0  0  0  0  0
  151.5358  142.8504  162.3299 H   0  0  0  0  0  0  0  0  0  0  0  0
  152.7564  145.5803  160.3440 H   0  0  0  0  0  0  0  0  0  0  0  0
  151.5197  145.6293  157.9110 H   0  0  0  0  0  0  0  0  0  0  0  0
  150.1175  143.8418  156.6977 H   0  0  0  0  0  0  0  0  0  0  0  0
  148.9939  142.8375  155.4996 H   0  0  0  0  0  0  0  0  0  0  0  0
  148.4286  138.7669  155.2153 H   0  0  0  0  0  0  0  0  0  0  0  0
  149.0783  139.4319  156.7085 H   0  0  0  0  0  0  0  0  0  0  0  0
  149.8960  139.7161  155.1876 H   0  0  0  0  0  0  0  0  0  0  0  0
  147.3790  140.4282  153.4119 H   0  0  0  0  0  0  0  0  0  0  0  0
  147.5838  142.1369  153.6752 H   0  0  0  0  0  0  0  0  0  0  0  0
  149.3012  140.4548  152.6180 H   0  0  0  0  0  0  0  0  0  0  0  0
  146.8532  140.6012  157.1697 H   0  0  0  0  0  0  0  0  0  0  0  0
  145.5585  139.8353  154.5300 H   0  0  0  0  0  0  0  0  0  0  0  0
  146.3255  138.7212  155.6334 H   0  0  0  0  0  0  0  0  0  0  0  0
  143.8742  138.7487  155.9535 H   0  0  0  0  0  0  0  0  0  0  0  0
  144.7071  139.2599  157.4014 H   0  0  0  0  0  0  0  0  0  0  0  0
  143.3662  141.0877  155.3499 H   0  0  0  0  0  0  0  0  0  0  0  0
  142.7994  140.7667  156.9721 H   0  0  0  0  0  0  0  0  0  0  0  0
  144.0017  142.9580  156.8304 H   0  0  0  0  0  0  0  0  0  0  0  0
  144.7879  141.8645  157.9433 H   0  0  0  0  0  0  0  0  0  0  0  0
  146.4541  142.9701  156.5044 H   0  0  0  0  0  0  0  0  0  0  0  0
  145.6284  142.4256  155.0666 H   0  0  0  0  0  0  0  0  0  0  0  0
  1  2  1  0  0  0  0
  1 21  1  0  0  0  0
  1 22  1  0  0  0  0
  1 23  1  0  0  0  0
  2 20  1  0  0  0  0
  2  3  1  0  0  0  0
  3  4  2  0  0  0  0
  3 24  1  0  0  0  0
  4  5  1  0  0  0  0
  4 25  1  0  0  0  0
  5  6  1  0  0  0  0
  5 20  2  0  0  0  0
  6  7  1  0  0  0  0
  6 26  1  0  0  0  0
  7  8  2  0  0  0  0
  7  9  1  0  0  0  0
  9 10  1  0  0  0  0
  9 27  1  0  0  0  0
 10 11  1  0  0  0  0
 10 12  1  0  0  0  0
 10 14  1  0  0  0  0
 11 28  1  0  0  0  0
 11 29  1  0  0  0  0
 11 30  1  0  0  0  0
 12 13  1  0  0  0  0
 12 31  1  0  0  0  0
 12 32  1  0  0  0  0
 13 33  1  0  0  0  0
 14 19  1  0  0  0  0
 14 15  1  0  0  0  0
 14 34  1  0  0  0  0
 15 16  1  0  0  0  0
 15 35  1  0  0  0  0
 15 36  1  0  0  0  0
 16 17  1  0  0  0  0
 16 37  1  0  0  0  0
 16 38  1  0  0  0  0
 17 18  1  0  0  0  0
 17 39  1  0  0  0  0
 17 40  1  0  0  0  0
 18 19  1  0  0  0  0
 18 41  1  0  0  0  0
 18 42  1  0  0  0  0
 19 43  1  0  0  0  0
 19 44  1  0  0  0  0
M  END
> <s_m_source_file>
AV-unprocessed.smi

> <i_m_source_file_index>
614

> <i_lp_mmshare_version>
43012

> <i_f3d_flags>
0

> <s_epik_input>
W0NIM11uMVtjSF1bY0hdYyhuMSlbTkhdQyg9TylbTkhdW0NAQF0oW0NIM10pKFtDSDJdW09IXSlbQ0hdMltDSDJdW0NIMl1bQ0gyXVtDSDJdW0NIMl0y

> <s_epik_cmdline>
J2VwaWtfcHl0aG9uJywgJy1waCcsICc3LjAnLCAnLXRuJywgJzgnLCAnLW1hJywgJzIwMCcsICctbWV0YWxfYmluZGluZycsICctaW1hZScsICc8aW5maWxlLm1hZT4nLCAnLW9tYWUnLCAnPG91dGZpbGUubWFlPic=

> <r_lp_tautomer_probability>
1

> <r_epik_Ionization_Penalty>
3.66621e-05

> <r_epik_Ionization_Penalty_Charging>
0

> <r_epik_Ionization_Penalty_Neutral>
3.66621e-05

> <r_epik_State_Penalty>
-0

> <r_epik_Charging_Adjusted_Penalty>
0

> <i_epik_Tot_Q>
0

> <i_epik_Tot_abs_Q>
0

> <r_epik_Metal_State_Penalty>
-0

> <b_epik_Metal_Only>
0

> <s_lp_Force_Field>
OPLS_2005

> <r_lp_Energy>
19.716

> <b_lp_Chiralities_Consistent>
1

> <s_lp_Variant>
AV-unprocessed.smi:614-2

> <Gold.Version>
5.8.1

> <Gold.Id.Protein>
6NUR|6NUR_protein|mol2

> <Gold.PLP.Fitness>
44.2491

> <Gold.PLP.PLP>
-33.6928

> <Gold.PLP.part.hbond>
-4.8050

> <Gold.PLP.part.metal>
0.0000

> <Gold.PLP.part.buried>
-5.8848

> <Gold.PLP.part.nonpolar>
-23.4157

> <Gold.PLP.part.repulsive>
0.1135

> <Gold.PLP.ligand.clash>
0.0000

> <Gold.PLP.ligand.torsion>
0.4136

> <Gold.PLP.Chemscore.Hbond>
3.7569

> <Gold.PLP.Chemscore.CHOScore>
0.0000

> <Gold.PLP.Chemscore.Metal>
0.0000

> <Gold.Chemscore.Hbonds>
donor molecule, donor type, donor heavy atom, donor atom, acceptor molecule, acceptor atom, score
      L1  H     6    26       P1  8028  0.86
      L1  H     9    27       P1  8028  0.85
      L1  H    13    33       P1  7957  0.91
      P1  H  7989  7998       L1    13  0.01
      P1  H  8011  8017       L1    13  1.00

> <Gold.PLP.Chemscore.Internal.Correction>
0.1128

> <Gold.Rescore>
     Score         DG    S(hbond)    S(metal)    S(lipo)     H(rot)  DE(clash)    DE(int)     intcor
     14.31     -17.47       3.18        0.00      56.94       2.07       0.01       3.15       ----

> <Gold.Chemscore.Fitness>
14.3060

> <Gold.Chemscore.DG>
-17.4686

> <Gold.Chemscore.ZeroCoef>
-5.4800

> <Gold.Chemscore.Hbond>
3.1820

> <Gold.Chemscore.Metal>
0.0000

> <Gold.Chemscore.Lipo>
56.9437

> <Gold.Chemscore.Internal_Hbond>
0.0000

> <Gold.Chemscore.DEClash>
0.0108

> <Gold.Chemscore.DEInternal>
3.1518

> <Gold.Chemscore.Rot>
2.0710

> <Gold.Chemscore.Internal.Correction>
   9.000000E+99

> <Gold.Chemscore.Hbonds>
donor molecule, donor type, donor heavy atom, donor atom, acceptor molecule, acceptor atom, score
      L1  H     6    26       P1  8028  0.85
      L1  H     9    27       P1  8028  0.83
      L1  H    13    33       P1  7957  0.83
      P1  H  8011  8017       L1    13  0.29

> <Gold.Chemscore.Hbond.Weighted>
-10.6279

> <Gold.Chemscore.Metal.Weighted>
-0.0000

> <Gold.Chemscore.Lipo.Weighted>
-6.6624

> <Gold.Chemscore.Internal_Hbond.Weighted>
0.0000

> <Gold.Chemscore.DEClash.Weighted>
0.0108

> <Gold.Chemscore.DEInternal.Weighted>
3.1518

> <Gold.Chemscore.Rot.Weighted>
5.3017

> <Gold.Chemscore.Internal.Correction.Weighted>
   9.000000E+99

> <Gold.Protein.RotatedTorsions>
[ 6907 6896 6895 6894 ] final -138.90 input  -60.11 | X-H torsion
[ 7974 7965 7964 7962 ] final  144.79 input  175.53 | X-H torsion
[ 8008 7997 7996 7995 ] final  -12.70 input   59.86 | X-H torsion
[ 10167 10162 10161 10158 ] final -122.86 input  -65.29 | X-H torsion
[ 10718 10713 10712 10709 ] final   53.71 input   66.30 | X-H torsion
[ 10763 10752 10751 10750 ] final   48.05 input  -60.55 | X-H torsion
[ 11005 11000 10999 10996 ] final  179.98 input  -57.11 | X-H torsion

> <Gold.Protein.ActiveResidues>
 VAL166  LYS551  ARG553  GLY616  TRP617  ASP618  TYR619  PRO620  LYS621  CYS622 
 ASP623  PHE694  ASN695  SER759  ASP760  ASP761  ALA762  ILE779  LEU786  VAL792 
 PHE793  MET794  SER795  GLU796  ALA797  LYS798  CYS799  TRP800  GLU811  SER814 

> <Gold.Protein.RotatedAtoms>
  151.0409  133.5707  159.2651 H   0  0  0  0  0  0  0  0  0  0  0  0  # atno 6907 bound_to 6896
  151.2754  135.0697  159.9159 H   0  0  0  0  0  0  0  0  0  0  0  0  # atno 6908 bound_to 6896
  152.5364  134.0132  159.8002 H   0  0  0  0  0  0  0  0  0  0  0  0  # atno 6909 bound_to 6896
  144.8806  139.5705  143.5844 H   0  0  0  0  0  0  0  0  0  0  0  0  # atno 7974 bound_to 7965
  154.5355  140.2269  155.8731 H   0  0  0  0  0  0  0  0  0  0  0  0  # atno 8008 bound_to 7997
  156.1807  140.3101  155.9105 H   0  0  0  0  0  0  0  0  0  0  0  0  # atno 8009 bound_to 7997
  155.3364  140.0448  157.3034 H   0  0  0  0  0  0  0  0  0  0  0  0  # atno 8010 bound_to 7997
  140.0098  143.5454  152.2268 H   0  0  0  0  0  0  0  0  0  0  0  0  # atno 10167 bound_to 10162
  157.5192  130.8553  149.8535 H   0  0  0  0  0  0  0  0  0  0  0  0  # atno 10718 bound_to 10713
  152.9795  135.5957  154.3862 H   0  0  0  0  0  0  0  0  0  0  0  0  # atno 10763 bound_to 10752
  154.3522  135.2767  155.2368 H   0  0  0  0  0  0  0  0  0  0  0  0  # atno 10764 bound_to 10752
  154.4402  135.6015  153.6179 H   0  0  0  0  0  0  0  0  0  0  0  0  # atno 10765 bound_to 10752
  140.4122  134.6681  157.4620 H   0  0  0  0  0  0  0  0  0  0  0  0  # atno 11005 bound_to 11000
  146.2992  139.7372  142.9104 LP  0  0  0  0  0  0  0  0  0  0  0  0  # atno 17320 bound_to 7965
  145.3961  141.0379  143.3096 LP  0  0  0  0  0  0  0  0  0  0  0  0  # atno 17321 bound_to 7965
  139.6213  144.7629  151.2734 LP  0  0  0  0  0  0  0  0  0  0  0  0  # atno 17342 bound_to 10162
  140.7386  143.6643  150.8137 LP  0  0  0  0  0  0  0  0  0  0  0  0  # atno 17343 bound_to 10162
  156.0341  130.3756  150.1607 LP  0  0  0  0  0  0  0  0  0  0  0  0  # atno 17370 bound_to 10713
  156.9795  130.9860  151.3440 LP  0  0  0  0  0  0  0  0  0  0  0  0  # atno 17371 bound_to 10713
  140.0259  134.6477  155.9173 LP  0  0  0  0  0  0  0  0  0  0  0  0  # atno 17394 bound_to 11000
  141.1817  133.6547  156.5046 LP  0  0  0  0  0  0  0  0  0  0  0  0  # atno 17395 bound_to 11000

$$$$
