AV-unprocessed.smi:848|AV-procd|sdf|3940|dock9
  -GOLD-   22720 1403D 1   1.00000     0.00000
 Structure written by MMmdl.
 46 48  0  0  0  0  0  0  0  0  1 V2000
  146.9267  134.7171  162.6593 C   0  0  0  0  0  0  0  0  0  0  0  0
  147.5429  134.9799  161.3006 C   0  0  0  0  0  0  0  0  0  0  0  0
  147.6366  133.9445  160.3493 C   0  0  0  0  0  0  0  0  0  0  0  0
  148.2156  134.1935  159.0896 C   0  0  0  0  0  0  0  0  0  0  0  0
  148.3111  133.0837  158.0629 C   0  0  0  0  0  0  0  0  0  0  0  0
  148.7003  135.4815  158.7851 C   0  0  0  0  0  0  0  0  0  0  0  0
  148.6140  136.5288  159.7250 C   0  0  0  0  0  0  0  0  0  0  0  0
  149.1166  137.7536  159.3418 O   0  0  0  0  0  0  0  0  0  0  0  0
  150.1488  137.7855  158.3636 C   0  0  0  0  0  0  0  0  0  0  0  0
  151.4731  138.2306  159.0066 C   0  0  1  0  0  0  0  0  0  0  0  0
  152.0843  137.1185  159.6298 O   0  0  0  0  0  0  0  0  0  0  0  0
  152.4354  138.9348  158.0280 C   0  0  0  0  0  0  0  0  0  0  0  0
  151.9083  140.2053  157.5478 N   0  0  0  0  0  0  0  0  0  0  0  0
  151.2873  140.4705  156.3702 C   0  0  0  0  0  0  0  0  0  0  0  0
  151.0486  139.3957  155.3475 C   0  0  0  0  0  0  0  0  0  0  0  0
  150.3886  139.8475  154.1822 O   0  0  0  0  0  0  0  0  0  0  0  0
  150.9008  141.7371  156.1964 N   0  0  0  0  0  0  0  0  0  0  0  0
  151.3124  142.3473  157.3643 C   0  0  0  0  0  0  0  0  0  0  0  0
  151.1963  143.6899  157.7902 C   0  0  0  0  0  0  0  0  0  0  0  0
  151.6979  144.0858  159.0475 C   0  0  0  0  0  0  0  0  0  0  0  0
  152.3215  143.1471  159.8949 C   0  0  0  0  0  0  0  0  0  0  0  0
  152.4477  141.8045  159.4894 C   0  0  0  0  0  0  0  0  0  0  0  0
  151.9455  141.4150  158.2333 C   0  0  0  0  0  0  0  0  0  0  0  0
  148.0280  136.2667  160.9891 C   0  0  0  0  0  0  0  0  0  0  0  0
  146.5093  133.7116  162.7200 H   0  0  0  0  0  0  0  0  0  0  0  0
  146.1256  135.4297  162.8569 H   0  0  0  0  0  0  0  0  0  0  0  0
  147.6798  134.8213  163.4407 H   0  0  0  0  0  0  0  0  0  0  0  0
  147.2643  132.9578  160.5848 H   0  0  0  0  0  0  0  0  0  0  0  0
  149.1959  133.2071  157.4377 H   0  0  0  0  0  0  0  0  0  0  0  0
  147.4312  133.0922  157.4193 H   0  0  0  0  0  0  0  0  0  0  0  0
  148.3737  132.1084  158.5467 H   0  0  0  0  0  0  0  0  0  0  0  0
  149.1435  135.6723  157.8183 H   0  0  0  0  0  0  0  0  0  0  0  0
  150.2759  136.7820  157.9541 H   0  0  0  0  0  0  0  0  0  0  0  0
  149.8907  138.4504  157.5375 H   0  0  0  0  0  0  0  0  0  0  0  0
  151.2294  138.9256  159.8109 H   0  0  0  0  0  0  0  0  0  0  0  0
  152.8798  137.4084  160.0496 H   0  0  0  0  0  0  0  0  0  0  0  0
  153.4103  139.0973  158.4873 H   0  0  0  0  0  0  0  0  0  0  0  0
  152.6144  138.2955  157.1627 H   0  0  0  0  0  0  0  0  0  0  0  0
  152.0004  138.9589  155.0476 H   0  0  0  0  0  0  0  0  0  0  0  0
  150.4537  138.6027  155.8010 H   0  0  0  0  0  0  0  0  0  0  0  0
  149.9238  139.1197  153.7992 H   0  0  0  0  0  0  0  0  0  0  0  0
  150.7197  144.4157  157.1481 H   0  0  0  0  0  0  0  0  0  0  0  0
  151.6034  145.1146  159.3628 H   0  0  0  0  0  0  0  0  0  0  0  0
  152.7021  143.4586  160.8566 H   0  0  0  0  0  0  0  0  0  0  0  0
  152.9243  141.0827  160.1358 H   0  0  0  0  0  0  0  0  0  0  0  0
  147.9411  137.0380  161.7391 H   0  0  0  0  0  0  0  0  0  0  0  0
  1  2  1  0  0  0  0
  1 25  1  0  0  0  0
  1 26  1  0  0  0  0
  1 27  1  0  0  0  0
  2 24  1  0  0  0  0
  2  3  2  0  0  0  0
  3  4  1  0  0  0  0
  3 28  1  0  0  0  0
  4  5  1  0  0  0  0
  4  6  2  0  0  0  0
  5 29  1  0  0  0  0
  5 30  1  0  0  0  0
  5 31  1  0  0  0  0
  6  7  1  0  0  0  0
  6 32  1  0  0  0  0
  7  8  1  0  0  0  0
  7 24  2  0  0  0  0
  8  9  1  0  0  0  0
  9 10  1  0  0  0  0
  9 33  1  0  0  0  0
  9 34  1  0  0  0  0
 10 11  1  0  0  0  0
 10 12  1  0  0  0  0
 10 35  1  0  0  0  0
 11 36  1  0  0  0  0
 12 13  1  0  0  0  0
 12 37  1  0  0  0  0
 12 38  1  0  0  0  0
 13 23  1  0  0  0  0
 13 14  1  0  0  0  0
 14 15  1  0  0  0  0
 14 17  2  0  0  0  0
 15 16  1  0  0  0  0
 15 39  1  0  0  0  0
 15 40  1  0  0  0  0
 16 41  1  0  0  0  0
 17 18  1  0  0  0  0
 18 23  2  0  0  0  0
 18 19  1  0  0  0  0
 19 20  2  0  0  0  0
 19 42  1  0  0  0  0
 20 21  1  0  0  0  0
 20 43  1  0  0  0  0
 21 22  2  0  0  0  0
 21 44  1  0  0  0  0
 22 23  1  0  0  0  0
 22 45  1  0  0  0  0
 24 46  1  0  0  0  0
M  END
> <s_m_source_file>
AV-unprocessed.smi

> <i_m_source_file_index>
848

> <i_lp_mmshare_version>
43012

> <i_f3d_flags>
0

> <s_epik_input>
W0NIM11jMVtjSF1jKFtDSDNdKVtjSF1jKFtjSF0xKU9bQ0gyXVtDQEhdKFtPSF0pW0NIMl1uKGMobjIpW0NIMl1bT0hdKWMoYzIzKVtjSF1bY0hdW2NIXVtjSF0z

> <s_epik_cmdline>
J2VwaWtfcHl0aG9uJywgJy1waCcsICc3LjAnLCAnLXRuJywgJzgnLCAnLW1hJywgJzIwMCcsICctbWV0YWxfYmluZGluZycsICctaW1hZScsICc8aW5maWxlLm1hZT4nLCAnLW9tYWUnLCAnPG91dGZpbGUubWFlPic=

> <r_lp_tautomer_probability>
1

> <r_epik_Ionization_Penalty>
0.0554234

> <r_epik_Ionization_Penalty_Charging>
0

> <r_epik_Ionization_Penalty_Neutral>
0.0554234

> <r_epik_State_Penalty>
0.0476717

> <r_epik_Charging_Adjusted_Penalty>
0.0476717

> <i_epik_Tot_Q>
0

> <i_epik_Tot_abs_Q>
0

> <r_epik_Metal_State_Penalty>
4.96399e-05

> <b_epik_Metal_Only>
0

> <s_lp_Force_Field>
OPLS_2005

> <r_lp_Energy>
17.6838

> <b_lp_Chiralities_Consistent>
1

> <s_lp_Variant>
AV-unprocessed.smi:848-2

> <Gold.Version>
5.8.1

> <Gold.Id.Protein>
6NUR|6NUR_protein|mol2

> <Gold.PLP.Fitness>
52.7124

> <Gold.PLP.PLP>
-49.2404

> <Gold.PLP.part.hbond>
-4.2263

> <Gold.PLP.part.metal>
0.0000

> <Gold.PLP.part.buried>
-6.3131

> <Gold.PLP.part.nonpolar>
-40.2180

> <Gold.PLP.part.repulsive>
0.0732

> <Gold.PLP.ligand.clash>
0.0000

> <Gold.PLP.ligand.torsion>
1.3171

> <Gold.PLP.Chemscore.Hbond>
2.0000

> <Gold.PLP.Chemscore.CHOScore>
0.0000

> <Gold.PLP.Chemscore.Metal>
0.0000

> <Gold.Chemscore.Hbonds>
donor molecule, donor type, donor heavy atom, donor atom, acceptor molecule, acceptor atom, score
      P1  H  6896  6909       L1    11  0.99
      P1  H  7989  7998       L1    16  1.00

> <Gold.PLP.Chemscore.Internal.Correction>
0.1062

> <Gold.Rescore>
     Score         DG    S(hbond)    S(metal)    S(lipo)     H(rot)  DE(clash)    DE(int)     intcor
     17.92     -19.57       1.90        0.00     130.98       2.96       0.33       1.32       ----

> <Gold.Chemscore.Fitness>
17.9212

> <Gold.Chemscore.DG>
-19.5704

> <Gold.Chemscore.ZeroCoef>
-5.4800

> <Gold.Chemscore.Hbond>
1.8961

> <Gold.Chemscore.Metal>
0.0000

> <Gold.Chemscore.Lipo>
130.9836

> <Gold.Chemscore.Internal_Hbond>
0.0000

> <Gold.Chemscore.DEClash>
0.3283

> <Gold.Chemscore.DEInternal>
1.3209

> <Gold.Chemscore.Rot>
2.9561

> <Gold.Chemscore.Internal.Correction>
   9.000000E+99

> <Gold.Chemscore.Hbonds>
donor molecule, donor type, donor heavy atom, donor atom, acceptor molecule, acceptor atom, score
      P1  H  6896  6909       L1    11  0.69
      P1  H  7989  7998       L1    16  0.30

> <Gold.Chemscore.Hbond.Weighted>
-6.3330

> <Gold.Chemscore.Metal.Weighted>
-0.0000

> <Gold.Chemscore.Lipo.Weighted>
-15.3251

> <Gold.Chemscore.Internal_Hbond.Weighted>
0.0000

> <Gold.Chemscore.DEClash.Weighted>
0.3283

> <Gold.Chemscore.DEInternal.Weighted>
1.3209

> <Gold.Chemscore.Rot.Weighted>
7.5677

> <Gold.Chemscore.Internal.Correction.Weighted>
   9.000000E+99

> <Gold.Protein.RotatedTorsions>
[ 6907 6896 6895 6894 ] final  132.22 input  -60.11 | X-H torsion
[ 7974 7965 7964 7962 ] final  173.89 input  175.53 | X-H torsion
[ 8008 7997 7996 7995 ] final  -77.96 input   59.86 | X-H torsion
[ 10167 10162 10161 10158 ] final  -75.89 input  -65.29 | X-H torsion
[ 10718 10713 10712 10709 ] final   23.01 input   66.30 | X-H torsion
[ 10763 10752 10751 10750 ] final -164.74 input  -60.55 | X-H torsion
[ 11005 11000 10999 10996 ] final  -52.47 input  -57.11 | X-H torsion

> <Gold.Protein.ActiveResidues>
 VAL166  LYS551  ARG553  GLY616  TRP617  ASP618  TYR619  PRO620  LYS621  CYS622 
 ASP623  PHE694  ASN695  SER759  ASP760  ASP761  ALA762  ILE779  LEU786  VAL792 
 PHE793  MET794  SER795  GLU796  ALA797  LYS798  CYS799  TRP800  GLU811  SER814 

> <Gold.Protein.RotatedAtoms>
  152.3346  133.5997  159.5833 H   0  0  0  0  0  0  0  0  0  0  0  0  # atno 6907 bound_to 6896
  150.7443  133.9815  159.3586 H   0  0  0  0  0  0  0  0  0  0  0  0  # atno 6908 bound_to 6896
  151.7686  135.0793  160.0407 H   0  0  0  0  0  0  0  0  0  0  0  0  # atno 6909 bound_to 6896
  144.7233  139.9715  143.6437 H   0  0  0  0  0  0  0  0  0  0  0  0  # atno 7974 bound_to 7965
  154.5644  140.0702  156.8869 H   0  0  0  0  0  0  0  0  0  0  0  0  # atno 8008 bound_to 7997
  155.2750  140.3368  155.4244 H   0  0  0  0  0  0  0  0  0  0  0  0  # atno 8009 bound_to 7997
  156.2069  140.1743  156.7766 H   0  0  0  0  0  0  0  0  0  0  0  0  # atno 8010 bound_to 7997
  140.4904  143.2382  151.7917 H   0  0  0  0  0  0  0  0  0  0  0  0  # atno 10167 bound_to 10162
  157.1602  130.6713  149.6041 H   0  0  0  0  0  0  0  0  0  0  0  0  # atno 10718 bound_to 10713
  154.6999  135.2986  154.9356 H   0  0  0  0  0  0  0  0  0  0  0  0  # atno 10763 bound_to 10752
  154.0292  135.6672  153.4783 H   0  0  0  0  0  0  0  0  0  0  0  0  # atno 10764 bound_to 10752
  153.0673  135.5080  154.8137 H   0  0  0  0  0  0  0  0  0  0  0  0  # atno 10765 bound_to 10752
  141.0926  133.6630  156.4029 H   0  0  0  0  0  0  0  0  0  0  0  0  # atno 11005 bound_to 11000
  146.0559  139.3556  143.0611 LP  0  0  0  0  0  0  0  0  0  0  0  0  # atno 17320 bound_to 7965
  145.8155  140.9705  143.0926 LP  0  0  0  0  0  0  0  0  0  0  0  0  # atno 17321 bound_to 7965
  139.4850  144.4657  151.9487 LP  0  0  0  0  0  0  0  0  0  0  0  0  # atno 17342 bound_to 10162
  140.3744  144.2815  150.5916 LP  0  0  0  0  0  0  0  0  0  0  0  0  # atno 17343 bound_to 10162
  155.9755  130.4714  150.6464 LP  0  0  0  0  0  0  0  0  0  0  0  0  # atno 17370 bound_to 10713
  157.4139  131.0827  151.1195 LP  0  0  0  0  0  0  0  0  0  0  0  0  # atno 17371 bound_to 10713
  140.5216  134.6299  157.5320 LP  0  0  0  0  0  0  0  0  0  0  0  0  # atno 17394 bound_to 11000
  139.9755  134.7222  155.9958 LP  0  0  0  0  0  0  0  0  0  0  0  0  # atno 17395 bound_to 11000

$$$$
