AV-unprocessed.smi:21|AV-procd|sdf|128|dock1
  -GOLD-   2262015313D 1   1.00000     0.00000
 Structure written by MMmdl.
 62 65  0  0  0  0  0  0  0  0  2 V2000
  141.4003  134.2801  153.0487 C   0  0  0  0  0  0  0  0  0  0  0  0
  141.4947  135.4387  153.8623 O   0  0  0  0  0  0  0  0  0  0  0  0
  142.3396  136.4440  153.3229 C   0  0  2  0  0  0  0  0  0  0  0  0
  143.7832  135.9864  153.1488 C   0  0  0  0  0  0  0  0  0  0  0  0
  144.5895  137.2948  153.1511 C   0  0  2  0  0  0  0  0  0  0  0  0
  146.0690  137.1265  153.5883 C   0  0  0  0  0  0  0  0  0  0  0  0
  146.8867  138.3205  153.3643 N   0  0  0  0  0  0  0  0  0  0  0  0
  146.8493  138.9216  152.0339 C   0  0  0  0  0  0  0  0  0  0  0  0
  148.0166  138.4796  154.1068 C   0  0  0  0  0  0  0  0  0  0  0  0
  148.5885  137.3852  154.6779 N   0  0  0  0  0  0  0  0  0  0  0  0
  149.6642  137.5082  155.4596 C   0  0  0  0  0  0  0  0  0  0  0  0
  150.3192  138.6164  155.8054 N   0  0  0  0  0  0  0  0  0  0  0  0
  149.7663  139.7181  155.2243 C   0  0  0  0  0  0  0  0  0  0  0  0
  148.6344  139.7403  154.3594 C   0  0  0  0  0  0  0  0  0  0  0  0
  148.3896  141.0459  153.9476 N   0  0  0  0  0  0  0  0  0  0  0  0
  149.3052  141.7540  154.5490 C   0  0  0  0  0  0  0  0  0  0  0  0
  150.1539  141.0392  155.3624 N   0  0  0  0  0  0  0  0  0  0  0  0
  151.2435  141.5715  156.1600 C   0  0  0  0  0  0  0  0  0  0  0  0
  150.8348  142.6956  157.1540 C   0  0  1  0  0  0  0  0  0  0  0  0
  149.6195  142.2166  157.9855 C   0  0  0  0  0  0  0  0  0  0  0  0
  148.9775  143.2956  158.6337 O   0  0  0  0  0  0  0  0  0  0  0  0
  152.0059  143.1647  158.0713 C   0  0  2  0  0  0  0  0  0  0  0  0
  152.3368  142.2284  159.2247 C   0  0  0  0  0  0  0  0  0  0  0  0
  153.1402  143.1242  160.1560 C   0  0  0  0  0  0  0  0  0  0  0  0
  152.5124  144.3924  160.0607 O   0  0  0  0  0  0  0  0  0  0  0  0
  151.7705  144.4727  158.8480 C   0  0  0  0  0  0  0  0  0  0  0  0
  143.7809  138.2559  153.9606 N   0  3  2  0  0  0  0  0  0  0  0  0
  144.4325  138.9032  155.1238 C   0  0  0  0  0  0  0  0  0  0  0  0
  142.4993  137.5995  154.3063 C   0  0  0  0  0  0  0  0  0  0  0  0
  141.9440  136.8241  152.3791 H   0  0  0  0  0  0  0  0  0  0  0  0
  144.5746  137.6982  152.1378 H   0  0  0  0  0  0  0  0  0  0  0  0
  140.7063  133.5730  153.5029 H   0  0  0  0  0  0  0  0  0  0  0  0
  142.3642  133.7801  152.9492 H   0  0  0  0  0  0  0  0  0  0  0  0
  141.0273  134.5247  152.0536 H   0  0  0  0  0  0  0  0  0  0  0  0
  144.0723  135.3663  153.9988 H   0  0  0  0  0  0  0  0  0  0  0  0
  143.9303  135.4023  152.2401 H   0  0  0  0  0  0  0  0  0  0  0  0
  146.1100  136.9251  154.6588 H   0  0  0  0  0  0  0  0  0  0  0  0
  146.5062  136.2521  153.1129 H   0  0  0  0  0  0  0  0  0  0  0  0
  147.1527  139.9687  152.0722 H   0  0  0  0  0  0  0  0  0  0  0  0
  145.8399  138.8848  151.6237 H   0  0  0  0  0  0  0  0  0  0  0  0
  147.5126  138.3927  151.3485 H   0  0  0  0  0  0  0  0  0  0  0  0
  150.0500  136.5884  155.8741 H   0  0  0  0  0  0  0  0  0  0  0  0
  149.3733  142.8260  154.4316 H   0  0  0  0  0  0  0  0  0  0  0  0
  151.6830  140.7285  156.6940 H   0  0  0  0  0  0  0  0  0  0  0  0
  152.0174  141.9395  155.4852 H   0  0  0  0  0  0  0  0  0  0  0  0
  150.5022  143.5612  156.5799 H   0  0  0  0  0  0  0  0  0  0  0  0
  148.8995  141.6947  157.3544 H   0  0  0  0  0  0  0  0  0  0  0  0
  149.9194  141.5239  158.7704 H   0  0  0  0  0  0  0  0  0  0  0  0
  149.5855  144.0167  158.6928 H   0  0  0  0  0  0  0  0  0  0  0  0
  152.9073  143.2782  157.4667 H   0  0  0  0  0  0  0  0  0  0  0  0
  151.4247  141.8963  159.7229 H   0  0  0  0  0  0  0  0  0  0  0  0
  152.9027  141.3483  158.9183 H   0  0  0  0  0  0  0  0  0  0  0  0
  153.1556  142.7600  161.1833 H   0  0  0  0  0  0  0  0  0  0  0  0
  154.1703  143.2118  159.8080 H   0  0  0  0  0  0  0  0  0  0  0  0
  152.0867  145.3507  158.2872 H   0  0  0  0  0  0  0  0  0  0  0  0
  150.7185  144.5965  159.1067 H   0  0  0  0  0  0  0  0  0  0  0  0
  144.7588  138.1683  155.8610 H   0  0  0  0  0  0  0  0  0  0  0  0
  143.7315  139.5794  155.6144 H   0  0  0  0  0  0  0  0  0  0  0  0
  145.2904  139.5000  154.8147 H   0  0  0  0  0  0  0  0  0  0  0  0
  141.6645  138.2998  154.2689 H   0  0  0  0  0  0  0  0  0  0  0  0
  142.5559  137.2030  155.3219 H   0  0  0  0  0  0  0  0  0  0  0  0
  143.5461  139.0035  153.3230 H   0  0  0  0  0  0  0  0  0  0  0  0
  1  2  1  0  0  0  0
  1 32  1  0  0  0  0
  1 33  1  0  0  0  0
  1 34  1  0  0  0  0
  2  3  1  0  0  0  0
  3 30  1  0  0  0  0
  3 29  1  0  0  0  0
  3  4  1  0  0  0  0
  4  5  1  0  0  0  0
  4 35  1  0  0  0  0
  4 36  1  0  0  0  0
  5 31  1  0  0  0  0
  5  6  1  0  0  0  0
  5 27  1  0  0  0  0
  6  7  1  0  0  0  0
  6 37  1  0  0  0  0
  6 38  1  0  0  0  0
  7  8  1  0  0  0  0
  7  9  1  0  0  0  0
  8 39  1  0  0  0  0
  8 40  1  0  0  0  0
  8 41  1  0  0  0  0
  9 14  1  0  0  0  0
  9 10  2  0  0  0  0
 10 11  1  0  0  0  0
 11 12  2  0  0  0  0
 11 42  1  0  0  0  0
 12 13  1  0  0  0  0
 13 17  1  0  0  0  0
 13 14  2  0  0  0  0
 14 15  1  0  0  0  0
 15 16  2  0  0  0  0
 16 17  1  0  0  0  0
 16 43  1  0  0  0  0
 17 18  1  0  0  0  0
 18 19  1  0  0  0  0
 18 44  1  0  0  0  0
 18 45  1  0  0  0  0
 19 20  1  0  0  0  0
 19 22  1  0  0  0  0
 19 46  1  0  0  0  0
 20 21  1  0  0  0  0
 20 47  1  0  0  0  0
 20 48  1  0  0  0  0
 21 49  1  0  0  0  0
 22 26  1  0  0  0  0
 22 23  1  0  0  0  0
 22 50  1  0  0  0  0
 23 24  1  0  0  0  0
 23 51  1  0  0  0  0
 23 52  1  0  0  0  0
 24 25  1  0  0  0  0
 24 53  1  0  0  0  0
 24 54  1  0  0  0  0
 25 26  1  0  0  0  0
 26 55  1  0  0  0  0
 26 56  1  0  0  0  0
 27 28  1  0  0  0  0
 27 29  1  0  0  0  0
 27 62  1  0  0  0  0
 28 57  1  0  0  0  0
 28 58  1  0  0  0  0
 28 59  1  0  0  0  0
 29 60  1  0  0  0  0
 29 61  1  0  0  0  0
M  CHG  1  27   1
M  END
> <s_m_source_file>
AV-unprocessed.smi

> <i_m_source_file_index>
21

> <i_lp_mmshare_version>
43012

> <i_f3d_flags>
0

> <s_epik_input>
W0NIM11PW0NASF0xW0NIMl1bQ0BIXShOKFtDSDNdKVtDSDJdMSlbQ0gyXU4oW0NIM10pYyhuW2NIXW4yKWMoYzIzKW5bY0hdbjNbQ0gyXVtDQEhdKFtDSDJdW09IXSlbQ0BASF00W0NIMl1bQ0gyXU9bQ0gyXTQ=

> <s_epik_cmdline>
J2VwaWtfcHl0aG9uJywgJy1waCcsICc3LjAnLCAnLXRuJywgJzgnLCAnLW1hJywgJzIwMCcsICctbWV0YWxfYmluZGluZycsICctaW1hZScsICc8aW5maWxlLm1hZT4nLCAnLW9tYWUnLCAnPG91dGZpbGUubWFlPic=

> <r_lp_tautomer_probability>
1

> <r_epik_Ionization_Penalty>
0.0157465

> <r_epik_Ionization_Penalty_Charging>
0.015354

> <r_epik_Ionization_Penalty_Neutral>
0.000392529

> <r_epik_State_Penalty>
0.0120612

> <r_epik_Charging_Adjusted_Penalty>
0.0274152

> <i_epik_Tot_Q>
1

> <i_epik_Tot_abs_Q>
1

> <r_epik_Metal_State_Penalty>
0.0121253

> <b_epik_Metal_Only>
0

> <s_lp_Force_Field>
OPLS_2005

> <r_lp_Energy>
60.6524

> <b_lp_Chiralities_Consistent>
1

> <s_lp_Variant>
AV-unprocessed.smi:21-8

> <Gold.Version>
5.8.1

> <Gold.Id.Protein>
6NUR|6NUR_protein|mol2

> <Gold.PLP.Fitness>
53.7358

> <Gold.PLP.PLP>
-46.2930

> <Gold.PLP.part.hbond>
-1.6601

> <Gold.PLP.part.metal>
0.0000

> <Gold.PLP.part.buried>
-5.4134

> <Gold.PLP.part.nonpolar>
-39.9486

> <Gold.PLP.part.repulsive>
1.6016

> <Gold.PLP.ligand.clash>
0.0000

> <Gold.PLP.ligand.torsion>
1.1426

> <Gold.PLP.Chemscore.Hbond>
2.0000

> <Gold.PLP.Chemscore.CHOScore>
1.0000

> <Gold.PLP.Chemscore.Metal>
0.0000

> <Gold.Chemscore.Hbonds>
donor molecule, donor type, donor heavy atom, donor atom, acceptor molecule, acceptor atom, score
      L1  H    27    62       P1 10175  2.00
      L1  C    16    43       P1  8028  1.00

> <Gold.PLP.Chemscore.Internal.Correction>
0.7281

> <Gold.Rescore>
     Score         DG    S(hbond)    S(metal)    S(lipo)     H(rot)  DE(clash)    DE(int)     intcor
     11.54     -13.29       1.00        0.00     105.41       3.08       0.55       1.19       ----

> <Gold.Chemscore.Fitness>
11.5433

> <Gold.Chemscore.DG>
-13.2890

> <Gold.Chemscore.ZeroCoef>
-5.4800

> <Gold.Chemscore.Hbond>
1.0032

> <Gold.Chemscore.Metal>
0.0000

> <Gold.Chemscore.Lipo>
105.4064

> <Gold.Chemscore.Internal_Hbond>
0.0000

> <Gold.Chemscore.DEClash>
0.5513

> <Gold.Chemscore.DEInternal>
1.1944

> <Gold.Chemscore.Rot>
3.0758

> <Gold.Chemscore.Internal.Correction>
   9.000000E+99

> <Gold.Chemscore.Hbonds>
donor molecule, donor type, donor heavy atom, donor atom, acceptor molecule, acceptor atom, score
      L1  H    27    62       P1 10175  1.00

> <Gold.Chemscore.Hbond.Weighted>
-3.3506

> <Gold.Chemscore.Metal.Weighted>
-0.0000

> <Gold.Chemscore.Lipo.Weighted>
-12.3326

> <Gold.Chemscore.Internal_Hbond.Weighted>
0.0000

> <Gold.Chemscore.DEClash.Weighted>
0.5513

> <Gold.Chemscore.DEInternal.Weighted>
1.1944

> <Gold.Chemscore.Rot.Weighted>
7.8741

> <Gold.Chemscore.Internal.Correction.Weighted>
   9.000000E+99

> <Gold.Protein.RotatedTorsions>
[ 6907 6896 6895 6894 ] final -146.28 input  -60.11 | X-H torsion
[ 7974 7965 7964 7962 ] final  -82.27 input  175.53 | X-H torsion
[ 8008 7997 7996 7995 ] final -101.09 input   59.86 | X-H torsion
[ 10167 10162 10161 10158 ] final  171.75 input  -65.29 | X-H torsion
[ 10718 10713 10712 10709 ] final  -48.55 input   66.30 | X-H torsion
[ 10763 10752 10751 10750 ] final  -83.01 input  -60.55 | X-H torsion
[ 11005 11000 10999 10996 ] final   17.19 input  -57.11 | X-H torsion

> <Gold.Protein.ActiveResidues>
 VAL166  LYS551  ARG553  GLY616  TRP617  ASP618  TYR619  PRO620  LYS621  CYS622 
 ASP623  PHE694  ASN695  SER759  ASP760  ASP761  ALA762  ILE779  LEU786  VAL792 
 PHE793  MET794  SER795  GLU796  ALA797  LYS798  CYS799  TRP800  GLU811  SER814 

> <Gold.Protein.RotatedAtoms>
  151.1395  133.4981  159.2596 H   0  0  0  0  0  0  0  0  0  0  0  0  # atno 6907 bound_to 6896
  151.1670  135.0300  159.8745 H   0  0  0  0  0  0  0  0  0  0  0  0  # atno 6908 bound_to 6896
  152.5462  134.1263  159.8473 H   0  0  0  0  0  0  0  0  0  0  0  0  # atno 6909 bound_to 6896
  145.5355  140.9516  143.1579 H   0  0  0  0  0  0  0  0  0  0  0  0  # atno 7974 bound_to 7965
  154.8377  140.0436  157.1520 H   0  0  0  0  0  0  0  0  0  0  0  0  # atno 8008 bound_to 7997
  154.9082  140.3010  155.5260 H   0  0  0  0  0  0  0  0  0  0  0  0  # atno 8009 bound_to 7997
  156.2990  140.2363  156.4118 H   0  0  0  0  0  0  0  0  0  0  0  0  # atno 8010 bound_to 7997
  139.5056  144.3451  151.9979 H   0  0  0  0  0  0  0  0  0  0  0  0  # atno 10167 bound_to 10162
  156.1977  130.4155  149.9283 H   0  0  0  0  0  0  0  0  0  0  0  0  # atno 10718 bound_to 10713
  154.5826  135.5571  153.7200 H   0  0  0  0  0  0  0  0  0  0  0  0  # atno 10763 bound_to 10752
  153.0087  135.6324  154.1961 H   0  0  0  0  0  0  0  0  0  0  0  0  # atno 10764 bound_to 10752
  154.1901  135.2883  155.3004 H   0  0  0  0  0  0  0  0  0  0  0  0  # atno 10765 bound_to 10752
  140.4387  134.1344  155.7688 H   0  0  0  0  0  0  0  0  0  0  0  0  # atno 11005 bound_to 11000
  144.7604  139.6972  143.7237 LP  0  0  0  0  0  0  0  0  0  0  0  0  # atno 17320 bound_to 7965
  146.2016  139.5314  142.9740 LP  0  0  0  0  0  0  0  0  0  0  0  0  # atno 17321 bound_to 7965
  140.2888  144.3777  150.6095 LP  0  0  0  0  0  0  0  0  0  0  0  0  # atno 17342 bound_to 10162
  140.5962  143.2167  151.7159 LP  0  0  0  0  0  0  0  0  0  0  0  0  # atno 17343 bound_to 10162
  156.7003  130.8930  151.3598 LP  0  0  0  0  0  0  0  0  0  0  0  0  # atno 17370 bound_to 10713
  157.6967  130.9290  150.0666 LP  0  0  0  0  0  0  0  0  0  0  0  0  # atno 17371 bound_to 10713
  141.1714  133.8600  157.1557 LP  0  0  0  0  0  0  0  0  0  0  0  0  # atno 17394 bound_to 11000
  140.0084  134.9998  157.0343 LP  0  0  0  0  0  0  0  0  0  0  0  0  # atno 17395 bound_to 11000

$$$$
