AV-unprocessed.smi:2328|AV-procd|sdf|9300|dock3
  -GOLD-   2272012523D 1   1.00000     0.00000
 Structure written by MMmdl.
 40 40  0  0  0  0  0  0  0  0  1 V2000
  147.5133  138.4209  156.8082 C   0  0  0  0  0  0  0  0  0  0  0  0
  148.6775  139.4234  156.9106 C   0  0  0  0  0  0  0  0  0  0  0  0
  149.0064  140.2373  155.6125 C   0  0  1  0  0  0  0  0  0  0  0  0
  149.9883  141.3015  155.9198 N   0  0  0  0  0  0  0  0  0  0  0  0
  150.2430  142.0376  157.0225 C   0  0  0  0  0  0  0  0  0  0  0  0
  149.5730  141.8577  158.0382 O   0  0  0  0  0  0  0  0  0  0  0  0
  151.3597  143.0973  157.0370 C   0  0  0  0  0  0  0  0  0  0  0  0
  151.5939  143.6411  158.4364 C   0  0  0  0  0  0  0  0  0  0  0  0
  151.4677  145.0184  158.7126 C   0  0  0  0  0  0  0  0  0  0  0  0
  151.7003  145.4706  160.0257 C   0  0  0  0  0  0  0  0  0  0  0  0
  152.0490  144.5236  161.0093 C   0  0  0  0  0  0  0  0  0  0  0  0
  152.1707  143.2024  160.7571 N   0  0  0  0  0  0  0  0  0  0  0  0
  151.9465  142.7773  159.4954 C   0  0  0  0  0  0  0  0  0  0  0  0
  149.5378  139.2710  154.5116 C   0  0  0  0  0  0  0  0  0  0  0  0
  148.7093  138.3456  154.0126 N   0  0  0  0  0  0  0  0  0  0  0  0
  150.6951  139.3610  154.1053 O   0  0  0  0  0  0  0  0  0  0  0  0
  147.7161  140.9719  155.0842 C   0  0  0  0  0  0  0  0  0  0  0  0
  147.8764  141.7051  153.7332 C   0  0  0  0  0  0  0  0  0  0  0  0
  147.0733  141.9427  156.1030 C   0  0  0  0  0  0  0  0  0  0  0  0
  147.3454  137.9368  157.7704 H   0  0  0  0  0  0  0  0  0  0  0  0
  147.7194  137.6321  156.0860 H   0  0  0  0  0  0  0  0  0  0  0  0
  146.5796  138.9054  156.5239 H   0  0  0  0  0  0  0  0  0  0  0  0
  148.4607  140.0973  157.7373 H   0  0  0  0  0  0  0  0  0  0  0  0
  149.5576  138.8807  157.2534 H   0  0  0  0  0  0  0  0  0  0  0  0
  150.5768  141.5332  155.1329 H   0  0  0  0  0  0  0  0  0  0  0  0
  152.2790  142.6484  156.6601 H   0  0  0  0  0  0  0  0  0  0  0  0
  151.1305  143.9434  156.3939 H   0  0  0  0  0  0  0  0  0  0  0  0
  151.2014  145.7174  157.9334 H   0  0  0  0  0  0  0  0  0  0  0  0
  151.6151  146.5185  160.2730 H   0  0  0  0  0  0  0  0  0  0  0  0
  152.2346  144.8360  162.0263 H   0  0  0  0  0  0  0  0  0  0  0  0
  152.0540  141.7160  159.3250 H   0  0  0  0  0  0  0  0  0  0  0  0
  149.0362  137.7121  153.2975 H   0  0  0  0  0  0  0  0  0  0  0  0
  147.7603  138.2856  154.3521 H   0  0  0  0  0  0  0  0  0  0  0  0
  146.9591  140.2054  154.9181 H   0  0  0  0  0  0  0  0  0  0  0  0
  148.6255  142.4952  153.7793 H   0  0  0  0  0  0  0  0  0  0  0  0
  146.9376  142.1731  153.4360 H   0  0  0  0  0  0  0  0  0  0  0  0
  148.1478  141.0279  152.9247 H   0  0  0  0  0  0  0  0  0  0  0  0
  147.7072  142.8081  156.2957 H   0  0  0  0  0  0  0  0  0  0  0  0
  146.8624  141.4632  157.0586 H   0  0  0  0  0  0  0  0  0  0  0  0
  146.1223  142.3215  155.7275 H   0  0  0  0  0  0  0  0  0  0  0  0
  1  2  1  0  0  0  0
  1 20  1  0  0  0  0
  1 21  1  0  0  0  0
  1 22  1  0  0  0  0
  2  3  1  0  0  0  0
  2 23  1  0  0  0  0
  2 24  1  0  0  0  0
  3  4  1  0  0  0  0
  3 14  1  0  0  0  0
  3 17  1  0  0  0  0
  4  5  1  0  0  0  0
  4 25  1  0  0  0  0
  5  6  2  0  0  0  0
  5  7  1  0  0  0  0
  7  8  1  0  0  0  0
  7 26  1  0  0  0  0
  7 27  1  0  0  0  0
  8 13  1  0  0  0  0
  8  9  2  0  0  0  0
  9 10  1  0  0  0  0
  9 28  1  0  0  0  0
 10 11  2  0  0  0  0
 10 29  1  0  0  0  0
 11 12  1  0  0  0  0
 11 30  1  0  0  0  0
 12 13  2  0  0  0  0
 13 31  1  0  0  0  0
 14 15  1  0  0  0  0
 14 16  2  0  0  0  0
 15 32  1  0  0  0  0
 15 33  1  0  0  0  0
 17 18  1  0  0  0  0
 17 19  1  0  0  0  0
 17 34  1  0  0  0  0
 18 35  1  0  0  0  0
 18 36  1  0  0  0  0
 18 37  1  0  0  0  0
 19 38  1  0  0  0  0
 19 39  1  0  0  0  0
 19 40  1  0  0  0  0
M  END
> <s_m_source_file>
AV-unprocessed.smi

> <i_m_source_file_index>
2328

> <i_lp_mmshare_version>
43012

> <i_f3d_flags>
0

> <s_epik_input>
W0NIM11bQ0gyXVtDQEBdKEMoPU8pW05IMl0pKFtDSF0oW0NIM10pW0NIM10pW05IXUMoPU8pW0NIMl1jMVtjSF1bY0hdW2NIXW5bY0hdMQ==

> <s_epik_cmdline>
J2VwaWtfcHl0aG9uJywgJy1waCcsICc3LjAnLCAnLXRuJywgJzgnLCAnLW1hJywgJzIwMCcsICctbWV0YWxfYmluZGluZycsICctaW1hZScsICc8aW5maWxlLm1hZT4nLCAnLW9tYWUnLCAnPG91dGZpbGUubWFlPic=

> <r_epik_Ionization_Penalty>
0.00378489

> <r_epik_Ionization_Penalty_Charging>
0

> <r_epik_Ionization_Penalty_Neutral>
0.00378489

> <r_epik_State_Penalty>
0.00269972

> <r_epik_Charging_Adjusted_Penalty>
0.00269972

> <i_epik_Tot_Q>
0

> <i_epik_Tot_abs_Q>
0

> <r_epik_Metal_State_Penalty>
-0

> <b_epik_Metal_Only>
0

> <s_lp_Force_Field>
OPLS_2005

> <r_lp_Energy>
14.3821

> <b_lp_Chiralities_Consistent>
1

> <s_lp_Variant>
AV-unprocessed.smi:2328-1

> <Gold.Version>
5.8.1

> <Gold.Id.Protein>
6NUR|6NUR_protein|mol2

> <Gold.PLP.Fitness>
39.4112

> <Gold.PLP.PLP>
-34.7396

> <Gold.PLP.part.hbond>
-2.0000

> <Gold.PLP.part.metal>
0.0000

> <Gold.PLP.part.buried>
-6.1951

> <Gold.PLP.part.nonpolar>
-26.6702

> <Gold.PLP.part.repulsive>
0.4277

> <Gold.PLP.ligand.clash>
0.0000

> <Gold.PLP.ligand.torsion>
0.7980

> <Gold.PLP.Chemscore.Hbond>
2.0000

> <Gold.PLP.Chemscore.CHOScore>
0.0000

> <Gold.PLP.Chemscore.Metal>
0.0000

> <Gold.Chemscore.Hbonds>
donor molecule, donor type, donor heavy atom, donor atom, acceptor molecule, acceptor atom, score
      L1  H    15    32       P1  7948  0.98
      P1  H  7989  7998       L1    16  1.00

> <Gold.PLP.Chemscore.Internal.Correction>
0.2675

> <Gold.Rescore>
     Score         DG    S(hbond)    S(metal)    S(lipo)     H(rot)  DE(clash)    DE(int)     intcor
     13.66     -16.39       1.97        0.00      87.13       2.29       0.42       2.31       ----

> <Gold.Chemscore.Fitness>
13.6624

> <Gold.Chemscore.DG>
-16.3851

> <Gold.Chemscore.ZeroCoef>
-5.4800

> <Gold.Chemscore.Hbond>
1.9696

> <Gold.Chemscore.Metal>
0.0000

> <Gold.Chemscore.Lipo>
87.1314

> <Gold.Chemscore.Internal_Hbond>
0.0000

> <Gold.Chemscore.DEClash>
0.4159

> <Gold.Chemscore.DEInternal>
2.3067

> <Gold.Chemscore.Rot>
2.2921

> <Gold.Chemscore.Internal.Correction>
   9.000000E+99

> <Gold.Chemscore.Hbonds>
donor molecule, donor type, donor heavy atom, donor atom, acceptor molecule, acceptor atom, score
      L1  H    15    32       P1  7948  0.91
      P1  H  7989  7998       L1    16  1.00

> <Gold.Chemscore.Hbond.Weighted>
-6.5784

> <Gold.Chemscore.Metal.Weighted>
-0.0000

> <Gold.Chemscore.Lipo.Weighted>
-10.1944

> <Gold.Chemscore.Internal_Hbond.Weighted>
0.0000

> <Gold.Chemscore.DEClash.Weighted>
0.4159

> <Gold.Chemscore.DEInternal.Weighted>
2.3067

> <Gold.Chemscore.Rot.Weighted>
5.8677

> <Gold.Chemscore.Internal.Correction.Weighted>
   9.000000E+99

> <Gold.Protein.RotatedTorsions>
[ 6907 6896 6895 6894 ] final  -77.03 input  -60.11 | X-H torsion
[ 7974 7965 7964 7962 ] final -133.16 input  175.53 | X-H torsion
[ 8008 7997 7996 7995 ] final   55.32 input   59.86 | X-H torsion
[ 10167 10162 10161 10158 ] final   42.53 input  -65.29 | X-H torsion
[ 10718 10713 10712 10709 ] final -129.03 input   66.30 | X-H torsion
[ 10763 10752 10751 10750 ] final  -85.71 input  -60.55 | X-H torsion
[ 11005 11000 10999 10996 ] final   53.76 input  -57.11 | X-H torsion

> <Gold.Protein.ActiveResidues>
 VAL166  LYS551  ARG553  GLY616  TRP617  ASP618  TYR619  PRO620  LYS621  CYS622 
 ASP623  PHE694  ASN695  SER759  ASP760  ASP761  ALA762  ILE779  LEU786  VAL792 
 PHE793  MET794  SER795  GLU796  ALA797  LYS798  CYS799  TRP800  GLU811  SER814 

> <Gold.Protein.RotatedAtoms>
  150.7010  134.4483  159.5323 H   0  0  0  0  0  0  0  0  0  0  0  0  # atno 6907 bound_to 6896
  152.2180  134.8437  160.0498 H   0  0  0  0  0  0  0  0  0  0  0  0  # atno 6908 bound_to 6896
  151.9297  133.3573  159.3963 H   0  0  0  0  0  0  0  0  0  0  0  0  # atno 6909 bound_to 6896
  144.9218  140.7024  143.4960 H   0  0  0  0  0  0  0  0  0  0  0  0  # atno 7974 bound_to 7965
  155.4992  140.3474  155.4368 H   0  0  0  0  0  0  0  0  0  0  0  0  # atno 8008 bound_to 7997
  156.0925  140.1414  156.9601 H   0  0  0  0  0  0  0  0  0  0  0  0  # atno 8009 bound_to 7997
  154.4643  140.0923  156.6956 H   0  0  0  0  0  0  0  0  0  0  0  0  # atno 8010 bound_to 7997
  140.3535  144.2320  150.6143 H   0  0  0  0  0  0  0  0  0  0  0  0  # atno 10167 bound_to 10162
  156.2008  130.6856  151.0536 H   0  0  0  0  0  0  0  0  0  0  0  0  # atno 10718 bound_to 10713
  154.6142  135.5475  153.7505 H   0  0  0  0  0  0  0  0  0  0  0  0  # atno 10763 bound_to 10752
  153.0208  135.6397  154.1534 H   0  0  0  0  0  0  0  0  0  0  0  0  # atno 10764 bound_to 10752
  154.1471  135.2905  155.3125 H   0  0  0  0  0  0  0  0  0  0  0  0  # atno 10765 bound_to 10752
  140.0741  134.5429  155.9015 H   0  0  0  0  0  0  0  0  0  0  0  0  # atno 11005 bound_to 11000
  145.3283  139.1767  143.4550 LP  0  0  0  0  0  0  0  0  0  0  0  0  # atno 17320 bound_to 7965
  146.3208  140.3309  142.8640 LP  0  0  0  0  0  0  0  0  0  0  0  0  # atno 17321 bound_to 7965
  140.5196  143.2269  151.8409 LP  0  0  0  0  0  0  0  0  0  0  0  0  # atno 17342 bound_to 10162
  139.4823  144.4852  151.9255 LP  0  0  0  0  0  0  0  0  0  0  0  0  # atno 17343 bound_to 10162
  157.6984  131.0785  150.6896 LP  0  0  0  0  0  0  0  0  0  0  0  0  # atno 17370 bound_to 10713
  156.6954  130.4607  149.5588 LP  0  0  0  0  0  0  0  0  0  0  0  0  # atno 17371 bound_to 10713
  141.2023  133.6624  156.5998 LP  0  0  0  0  0  0  0  0  0  0  0  0  # atno 17394 bound_to 11000
  140.3583  134.7709  157.4516 LP  0  0  0  0  0  0  0  0  0  0  0  0  # atno 17395 bound_to 11000

$$$$
