AV-unprocessed.smi:2032|AV-procd|sdf|8254|dock2
  -GOLD-   2272010523D 1   1.00000     0.00000
 Structure written by MMmdl.
 42 43  0  0  0  0  0  0  0  0  3 V2000
  150.8001  141.2353  154.0146 C   0  0  0  0  0  0  0  0  0  0  0  0
  150.6806  139.8153  154.5786 C   0  0  1  0  0  0  0  0  0  0  0  0
  150.0251  138.8461  153.5707 C   0  0  0  0  0  0  0  0  0  0  0  0
  149.9791  137.4589  154.1094 N   0  3  2  0  0  0  0  0  0  0  0  0
  148.9562  137.2169  155.1848 C   0  0  1  0  0  0  0  0  0  0  0  0
  147.5670  136.8822  154.5888 C   0  0  0  0  0  0  0  0  0  0  0  0
  149.3947  136.0926  156.1653 C   0  0  0  0  0  0  0  0  0  0  0  0
  149.4549  136.5399  157.5540 N   0  0  0  0  0  0  0  0  0  0  0  0
  149.3151  135.7553  158.6324 C   0  0  0  0  0  0  0  0  0  0  0  0
  149.0950  134.5500  158.4903 O   0  0  0  0  0  0  0  0  0  0  0  0
  149.4478  136.4139  159.8050 N   0  5  0  0  0  0  0  0  0  0  0  0
  148.5810  136.1843  160.8048 C   0  0  0  0  0  0  0  0  0  0  0  0
  148.4744  136.9792  161.8755 N   0  0  0  0  0  0  0  0  0  0  0  0
  147.5131  136.5492  162.7922 C   0  0  0  0  0  0  0  0  0  0  0  0
  146.8791  135.3953  162.4143 C   0  0  0  0  0  0  0  0  0  0  0  0
  147.4745  134.8103  160.8871 S   0  0  0  0  0  0  0  0  0  0  0  0
  151.3736  137.0582  154.4440 C   0  0  0  0  0  0  0  0  0  0  0  0
  152.0147  138.0427  155.4455 C   0  0  1  0  0  0  0  0  0  0  0  0
  153.4732  137.6824  155.7492 C   0  0  0  0  0  0  0  0  0  0  0  0
  151.9934  139.3510  154.8813 O   0  0  0  0  0  0  0  0  0  0  0  0
  149.8186  141.6482  153.7806 H   0  0  0  0  0  0  0  0  0  0  0  0
  151.3961  141.2502  153.1015 H   0  0  0  0  0  0  0  0  0  0  0  0
  151.2770  141.9014  154.7340 H   0  0  0  0  0  0  0  0  0  0  0  0
  150.0946  139.8627  155.4976 H   0  0  0  0  0  0  0  0  0  0  0  0
  149.0476  139.2034  153.2535 H   0  0  0  0  0  0  0  0  0  0  0  0
  150.6210  138.8307  152.6568 H   0  0  0  0  0  0  0  0  0  0  0  0
  148.8424  138.1343  155.7604 H   0  0  0  0  0  0  0  0  0  0  0  0
  146.8442  136.6120  155.3582 H   0  0  0  0  0  0  0  0  0  0  0  0
  147.6264  136.0470  153.8905 H   0  0  0  0  0  0  0  0  0  0  0  0
  147.1237  137.7315  154.0709 H   0  0  0  0  0  0  0  0  0  0  0  0
  148.6990  135.2550  156.1078 H   0  0  0  0  0  0  0  0  0  0  0  0
  150.3795  135.6943  155.9286 H   0  0  0  0  0  0  0  0  0  0  0  0
  149.6283  137.5217  157.7139 H   0  0  0  0  0  0  0  0  0  0  0  0
  147.3469  137.1259  163.6898 H   0  0  0  0  0  0  0  0  0  0  0  0
  146.1045  134.8555  162.9377 H   0  0  0  0  0  0  0  0  0  0  0  0
  151.4458  136.0325  154.7961 H   0  0  0  0  0  0  0  0  0  0  0  0
  151.9545  137.0691  153.5203 H   0  0  0  0  0  0  0  0  0  0  0  0
  151.4631  138.0444  156.3864 H   0  0  0  0  0  0  0  0  0  0  0  0
  153.5475  136.6889  156.1920 H   0  0  0  0  0  0  0  0  0  0  0  0
  153.9119  138.3917  156.4512 H   0  0  0  0  0  0  0  0  0  0  0  0
  154.0801  137.6915  154.8431 H   0  0  0  0  0  0  0  0  0  0  0  0
  149.6941  136.8689  153.3409 H   0  0  0  0  0  0  0  0  0  0  0  0
  1  2  1  0  0  0  0
  1 21  1  0  0  0  0
  1 22  1  0  0  0  0
  1 23  1  0  0  0  0
  2 20  1  0  0  0  0
  2  3  1  0  0  0  0
  2 24  1  0  0  0  0
  3  4  1  0  0  0  0
  3 25  1  0  0  0  0
  3 26  1  0  0  0  0
  4  5  1  0  0  0  0
  4 17  1  0  0  0  0
  4 42  1  0  0  0  0
  5  6  1  0  0  0  0
  5  7  1  0  0  0  0
  5 27  1  0  0  0  0
  6 28  1  0  0  0  0
  6 29  1  0  0  0  0
  6 30  1  0  0  0  0
  7  8  1  0  0  0  0
  7 31  1  0  0  0  0
  7 32  1  0  0  0  0
  8  9  1  0  0  0  0
  8 33  1  0  0  0  0
  9 10  2  0  0  0  0
  9 11  1  0  0  0  0
 11 12  1  0  0  0  0
 12 16  1  0  0  0  0
 12 13  2  0  0  0  0
 13 14  1  0  0  0  0
 14 15  2  0  0  0  0
 14 34  1  0  0  0  0
 15 16  1  0  0  0  0
 15 35  1  0  0  0  0
 17 18  1  0  0  0  0
 17 36  1  0  0  0  0
 17 37  1  0  0  0  0
 18 19  1  0  0  0  0
 18 20  1  0  0  0  0
 18 38  1  0  0  0  0
 19 39  1  0  0  0  0
 19 40  1  0  0  0  0
 19 41  1  0  0  0  0
M  CHG  1   4   1
M  CHG  1  11  -1
M  END
> <s_m_source_file>
AV-unprocessed.smi

> <i_m_source_file_index>
2032

> <i_lp_mmshare_version>
43012

> <i_f3d_flags>
0

> <s_epik_input>
W0NIM11bQ0BASF0xW0NIMl1OKFtDSDJdW0NASF0oTzEpW0NIM10pW0NASF0oW0NIM10pW0NIMl1bTkhdQyg9TylbTkhdYzJuW2NIXVtjSF1zMg==

> <s_epik_cmdline>
J2VwaWtfcHl0aG9uJywgJy1waCcsICc3LjAnLCAnLXRuJywgJzgnLCAnLW1hJywgJzIwMCcsICctbWV0YWxfYmluZGluZycsICctaW1hZScsICc8aW5maWxlLm1hZT4nLCAnLW9tYWUnLCAnPG91dGZpbGUubWFlPic=

> <r_lp_tautomer_probability>
0.999

> <r_epik_Ionization_Penalty>
6.71699

> <r_epik_Ionization_Penalty_Charging>
5.88592

> <r_epik_Ionization_Penalty_Neutral>
0.831074

> <r_epik_State_Penalty>
6.08365

> <r_epik_Charging_Adjusted_Penalty>
11.9696

> <i_epik_Tot_Q>
0

> <i_epik_Tot_abs_Q>
2

> <r_epik_Metal_State_Penalty>
2.0947

> <b_epik_Metal_Only>
1

> <s_lp_Force_Field>
OPLS_2005

> <r_lp_Energy>
10.9106

> <b_lp_Chiralities_Consistent>
1

> <s_lp_Variant>
AV-unprocessed.smi:2032-24

> <Gold.Version>
5.8.1

> <Gold.Id.Protein>
6NUR|6NUR_protein|mol2

> <Gold.PLP.Fitness>
45.5273

> <Gold.PLP.PLP>
-33.4576

> <Gold.PLP.part.hbond>
-5.6306

> <Gold.PLP.part.metal>
0.0000

> <Gold.PLP.part.buried>
1.7812

> <Gold.PLP.part.nonpolar>
-28.9426

> <Gold.PLP.part.repulsive>
0.1304

> <Gold.PLP.ligand.clash>
0.0000

> <Gold.PLP.ligand.torsion>
2.1144

> <Gold.PLP.Chemscore.Hbond>
5.3947

> <Gold.PLP.Chemscore.CHOScore>
0.0000

> <Gold.PLP.Chemscore.Metal>
0.0000

> <Gold.Chemscore.Hbonds>
donor molecule, donor type, donor heavy atom, donor atom, acceptor molecule, acceptor atom, score
      L1  H     4    42       P1  7948  2.00
      P1  H  6896  6909       L1    10  0.45
      P1  H  6931  6943       L1    13  0.63

> <Gold.PLP.Chemscore.Internal.Correction>
0.1143

> <Gold.Rescore>
     Score         DG    S(hbond)    S(metal)    S(lipo)     H(rot)  DE(clash)    DE(int)     intcor
     15.18     -18.53       2.66        0.00      70.17       1.58       0.17       3.18       ----

> <Gold.Chemscore.Fitness>
15.1781

> <Gold.Chemscore.DG>
-18.5330

> <Gold.Chemscore.ZeroCoef>
-5.4800

> <Gold.Chemscore.Hbond>
2.6603

> <Gold.Chemscore.Metal>
0.0000

> <Gold.Chemscore.Lipo>
70.1729

> <Gold.Chemscore.Internal_Hbond>
0.0000

> <Gold.Chemscore.DEClash>
0.1748

> <Gold.Chemscore.DEInternal>
3.1801

> <Gold.Chemscore.Rot>
1.5791

> <Gold.Chemscore.Internal.Correction>
   9.000000E+99

> <Gold.Chemscore.Hbonds>
donor molecule, donor type, donor heavy atom, donor atom, acceptor molecule, acceptor atom, score
      L1  H     4    42       P1  7948  0.55
      P1  H  6896  6909       L1    10  0.02
      P1  H  6931  6943       L1    13  0.61

> <Gold.Chemscore.Hbond.Weighted>
-8.8853

> <Gold.Chemscore.Metal.Weighted>
-0.0000

> <Gold.Chemscore.Lipo.Weighted>
-8.2102

> <Gold.Chemscore.Internal_Hbond.Weighted>
0.0000

> <Gold.Chemscore.DEClash.Weighted>
0.1748

> <Gold.Chemscore.DEInternal.Weighted>
3.1801

> <Gold.Chemscore.Rot.Weighted>
4.0425

> <Gold.Chemscore.Internal.Correction.Weighted>
   9.000000E+99

> <Gold.Protein.RotatedTorsions>
[ 6907 6896 6895 6894 ] final   25.26 input  -60.11 | X-H torsion
[ 7974 7965 7964 7962 ] final -123.08 input  175.53 | X-H torsion
[ 8008 7997 7996 7995 ] final  119.02 input   59.86 | X-H torsion
[ 10167 10162 10161 10158 ] final   59.14 input  -65.29 | X-H torsion
[ 10718 10713 10712 10709 ] final -166.65 input   66.30 | X-H torsion
[ 10763 10752 10751 10750 ] final  105.60 input  -60.55 | X-H torsion
[ 11005 11000 10999 10996 ] final  -70.92 input  -57.11 | X-H torsion

> <Gold.Protein.ActiveResidues>
 VAL166  LYS551  ARG553  GLY616  TRP617  ASP618  TYR619  PRO620  LYS621  CYS622 
 ASP623  PHE694  ASN695  SER759  ASP760  ASP761  ALA762  ILE779  LEU786  VAL792 
 PHE793  MET794  SER795  GLU796  ALA797  LYS798  CYS799  TRP800  GLU811  SER814 

> <Gold.Protein.RotatedAtoms>
  151.9698  135.0082  160.0551 H   0  0  0  0  0  0  0  0  0  0  0  0  # atno 6907 bound_to 6896
  152.1793  133.4691  159.4958 H   0  0  0  0  0  0  0  0  0  0  0  0  # atno 6908 bound_to 6896
  150.6914  134.1771  159.4277 H   0  0  0  0  0  0  0  0  0  0  0  0  # atno 6909 bound_to 6896
  145.0225  140.8000  143.4372 H   0  0  0  0  0  0  0  0  0  0  0  0  # atno 7974 bound_to 7965
  156.2575  140.2862  156.0926 H   0  0  0  0  0  0  0  0  0  0  0  0  # atno 8008 bound_to 7997
  155.1447  140.0396  157.2824 H   0  0  0  0  0  0  0  0  0  0  0  0  # atno 8009 bound_to 7997
  154.6504  140.2543  155.7226 H   0  0  0  0  0  0  0  0  0  0  0  0  # atno 8010 bound_to 7997
  140.1797  144.4195  150.6621 H   0  0  0  0  0  0  0  0  0  0  0  0  # atno 10167 bound_to 10162
  156.6710  130.9084  151.3043 H   0  0  0  0  0  0  0  0  0  0  0  0  # atno 10718 bound_to 10713
  153.3816  135.3904  155.1861 H   0  0  0  0  0  0  0  0  0  0  0  0  # atno 10763 bound_to 10752
  154.8708  135.3727  154.4850 H   0  0  0  0  0  0  0  0  0  0  0  0  # atno 10764 bound_to 10752
  153.5327  135.7085  153.5736 H   0  0  0  0  0  0  0  0  0  0  0  0  # atno 10765 bound_to 10752
  141.1583  133.6803  156.6827 H   0  0  0  0  0  0  0  0  0  0  0  0  # atno 11005 bound_to 11000
  145.1877  139.2318  143.5259 LP  0  0  0  0  0  0  0  0  0  0  0  0  # atno 17320 bound_to 7965
  146.3487  140.1665  142.8590 LP  0  0  0  0  0  0  0  0  0  0  0  0  # atno 17321 bound_to 7965
  140.6528  143.2229  151.6038 LP  0  0  0  0  0  0  0  0  0  0  0  0  # atno 17342 bound_to 10162
  139.5302  144.2940  152.1129 LP  0  0  0  0  0  0  0  0  0  0  0  0  # atno 17343 bound_to 10162
  157.7077  130.9404  150.0985 LP  0  0  0  0  0  0  0  0  0  0  0  0  # atno 17370 bound_to 10713
  156.1939  130.3656  149.8874 LP  0  0  0  0  0  0  0  0  0  0  0  0  # atno 17371 bound_to 10713
  140.3090  134.8101  157.4161 LP  0  0  0  0  0  0  0  0  0  0  0  0  # atno 17394 bound_to 11000
  140.1195  134.5239  155.8196 LP  0  0  0  0  0  0  0  0  0  0  0  0  # atno 17395 bound_to 11000

$$$$
