AV-unprocessed.smi:779|AV-procd|sdf|3704|dock1
  -GOLD-   22720 1123D 1   1.00000     0.00000
 Structure written by MMmdl.
 21 21  0  0  0  0  0  0  0  0  2 V2000
  148.8791  135.3799  159.3260 O   0  0  0  0  0  0  0  0  0  0  0  0
  148.9019  136.6227  159.4686 C   0  0  0  0  0  0  0  0  0  0  0  0
  148.1610  137.2792  160.2342 O   0  5  0  0  0  0  0  0  0  0  0  0
  149.9727  137.3896  158.5782 C   0  0  0  0  0  0  0  0  0  0  0  0
  150.1541  138.7363  158.6088 C   0  0  0  0  0  0  0  0  0  0  0  0
  151.0915  139.4027  157.8353 N   0  0  0  0  0  0  0  0  0  0  0  0
  151.2774  140.8313  157.9036 C   0  0  0  0  0  0  0  0  0  0  0  0
  150.1358  141.6109  157.2300 C   0  0  0  0  0  0  0  0  0  0  0  0
  150.5066  142.9635  157.0742 O   0  0  0  0  0  0  0  0  0  0  0  0
  151.9306  138.6696  156.9690 C   0  0  0  0  0  0  0  0  0  0  0  0
  152.7986  139.1894  156.2671 O   0  0  0  0  0  0  0  0  0  0  0  0
  151.7432  137.2895  156.9336 N   0  0  0  0  0  0  0  0  0  0  0  0
  150.8097  136.5636  157.6810 C   0  0  0  0  0  0  0  0  0  0  0  0
  150.7760  135.3432  157.5250 O   0  0  0  0  0  0  0  0  0  0  0  0
  152.3385  136.7621  156.3121 H   0  0  0  0  0  0  0  0  0  0  0  0
  149.5401  139.3283  159.2726 H   0  0  0  0  0  0  0  0  0  0  0  0
  151.4127  141.1006  158.9535 H   0  0  0  0  0  0  0  0  0  0  0  0
  152.2301  141.0360  157.4124 H   0  0  0  0  0  0  0  0  0  0  0  0
  149.9130  141.1919  156.2482 H   0  0  0  0  0  0  0  0  0  0  0  0
  149.2212  141.5608  157.8213 H   0  0  0  0  0  0  0  0  0  0  0  0
  149.7430  143.4552  156.8131 H   0  0  0  0  0  0  0  0  0  0  0  0
  1  2  2  0  0  0  0
  2  3  1  0  0  0  0
  2  4  1  0  0  0  0
  4 13  1  0  0  0  0
  4  5  2  0  0  0  0
  5  6  1  0  0  0  0
  5 16  1  0  0  0  0
  6  7  1  0  0  0  0
  6 10  1  0  0  0  0
  7  8  1  0  0  0  0
  7 17  1  0  0  0  0
  7 18  1  0  0  0  0
  8  9  1  0  0  0  0
  8 19  1  0  0  0  0
  8 20  1  0  0  0  0
  9 21  1  0  0  0  0
 10 11  2  0  0  0  0
 10 12  1  0  0  0  0
 12 15  1  0  0  0  0
 12 13  1  0  0  0  0
 13 14  2  0  0  0  0
M  CHG  1   3  -1
M  END
> <s_m_source_file>
AV-unprocessed.smi

> <i_m_source_file_index>
779

> <i_lp_mmshare_version>
43012

> <i_f3d_flags>
0

> <s_epik_input>
Tz1DKFtPSF0pYzFbY0hdbihbQ0gyXVtDSDJdW09IXSljKD1PKVtuSF1jMT1P

> <s_epik_cmdline>
J2VwaWtfcHl0aG9uJywgJy1waCcsICc3LjAnLCAnLXRuJywgJzgnLCAnLW1hJywgJzIwMCcsICctbWV0YWxfYmluZGluZycsICctaW1hZScsICc8aW5maWxlLm1hZT4nLCAnLW9tYWUnLCAnPG91dGZpbGUubWFlPic=

> <r_lp_tautomer_probability>
1

> <r_epik_Ionization_Penalty>
0.00105006

> <r_epik_Ionization_Penalty_Charging>
0.0010499

> <r_epik_Ionization_Penalty_Neutral>
1.56052e-07

> <r_epik_State_Penalty>
-0

> <r_epik_Charging_Adjusted_Penalty>
0.0010499

> <i_epik_Tot_Q>
-1

> <i_epik_Tot_abs_Q>
1

> <r_epik_Metal_State_Penalty>
0.521421

> <b_epik_Metal_Only>
0

> <s_lp_Force_Field>
OPLS_2005

> <r_lp_Energy>
14.2726

> <b_lp_Chiralities_Consistent>
1

> <s_lp_Variant>
AV-unprocessed.smi:779-1

> <Gold.Version>
5.8.1

> <Gold.Id.Protein>
6NUR|6NUR_protein|mol2

> <Gold.PLP.Fitness>
37.0751

> <Gold.PLP.PLP>
-18.0742

> <Gold.PLP.part.hbond>
-6.0000

> <Gold.PLP.part.metal>
0.0000

> <Gold.PLP.part.buried>
-3.5935

> <Gold.PLP.part.nonpolar>
-9.3662

> <Gold.PLP.part.repulsive>
0.0960

> <Gold.PLP.ligand.clash>
0.0000

> <Gold.PLP.ligand.torsion>
0.1814

> <Gold.PLP.Chemscore.Hbond>
6.4531

> <Gold.PLP.Chemscore.CHOScore>
0.0000

> <Gold.PLP.Chemscore.Metal>
0.0000

> <Gold.Chemscore.Hbonds>
donor molecule, donor type, donor heavy atom, donor atom, acceptor molecule, acceptor atom, score
      L1  H     9    21       P1  8028  1.00
      P1  H  6896  6909       L1     1  2.00
      P1  H  6931  6943       L1     3  0.99
      P1  H  6934  6947       L1     3  1.07
      P1  H  7997  8010       L1    11  1.00

> <Gold.PLP.Chemscore.Internal.Correction>
0.0045

> <Gold.Rescore>
     Score         DG    S(hbond)    S(metal)    S(lipo)     H(rot)  DE(clash)    DE(int)     intcor
     13.62     -15.46       4.05        0.00      17.63       2.19       0.01       1.82       ----

> <Gold.Chemscore.Fitness>
13.6223

> <Gold.Chemscore.DG>
-15.4554

> <Gold.Chemscore.ZeroCoef>
-5.4800

> <Gold.Chemscore.Hbond>
4.0477

> <Gold.Chemscore.Metal>
0.0000

> <Gold.Chemscore.Lipo>
17.6330

> <Gold.Chemscore.Internal_Hbond>
0.0000

> <Gold.Chemscore.DEClash>
0.0149

> <Gold.Chemscore.DEInternal>
1.8182

> <Gold.Chemscore.Rot>
2.1902

> <Gold.Chemscore.Internal.Correction>
   9.000000E+99

> <Gold.Chemscore.Hbonds>
donor molecule, donor type, donor heavy atom, donor atom, acceptor molecule, acceptor atom, score
      L1  H     9    21       P1  8028  0.95
      P1  H  6896  6909       L1     1  0.89
      P1  H  6931  6943       L1     3  0.48
      P1  H  6934  6947       L1     3  0.53
      P1  H  7997  8010       L1    11  1.00

> <Gold.Chemscore.Hbond.Weighted>
-13.5192

> <Gold.Chemscore.Metal.Weighted>
-0.0000

> <Gold.Chemscore.Lipo.Weighted>
-2.0631

> <Gold.Chemscore.Internal_Hbond.Weighted>
0.0000

> <Gold.Chemscore.DEClash.Weighted>
0.0149

> <Gold.Chemscore.DEInternal.Weighted>
1.8182

> <Gold.Chemscore.Rot.Weighted>
5.6069

> <Gold.Chemscore.Internal.Correction.Weighted>
   9.000000E+99

> <Gold.Protein.RotatedTorsions>
[ 6907 6896 6895 6894 ] final   40.38 input  -60.11 | X-H torsion
[ 7974 7965 7964 7962 ] final   44.91 input  175.53 | X-H torsion
[ 8008 7997 7996 7995 ] final   70.52 input   59.86 | X-H torsion
[ 10167 10162 10161 10158 ] final  173.66 input  -65.29 | X-H torsion
[ 10718 10713 10712 10709 ] final  -94.95 input   66.30 | X-H torsion
[ 10763 10752 10751 10750 ] final   11.64 input  -60.55 | X-H torsion
[ 11005 11000 10999 10996 ] final  -43.04 input  -57.11 | X-H torsion

> <Gold.Protein.ActiveResidues>
 VAL166  LYS551  ARG553  GLY616  TRP617  ASP618  TYR619  PRO620  LYS621  CYS622 
 ASP623  PHE694  ASN695  SER759  ASP760  ASP761  ALA762  ILE779  LEU786  VAL792 
 PHE793  MET794  SER795  GLU796  ALA797  LYS798  CYS799  TRP800  GLU811  SER814 

> <Gold.Protein.RotatedAtoms>
  152.1818  134.8747  160.0525 H   0  0  0  0  0  0  0  0  0  0  0  0  # atno 6907 bound_to 6896
  151.9669  133.3708  159.4064 H   0  0  0  0  0  0  0  0  0  0  0  0  # atno 6908 bound_to 6896
  150.6919  134.4105  159.5203 H   0  0  0  0  0  0  0  0  0  0  0  0  # atno 6909 bound_to 6896
  146.0527  139.5022  142.9708 H   0  0  0  0  0  0  0  0  0  0  0  0  # atno 7974 bound_to 7965
  155.7400  140.3490  155.5100 H   0  0  0  0  0  0  0  0  0  0  0  0  # atno 8008 bound_to 7997
  155.9103  140.1049  157.1306 H   0  0  0  0  0  0  0  0  0  0  0  0  # atno 8009 bound_to 7997
  154.4055  140.1269  156.4535 H   0  0  0  0  0  0  0  0  0  0  0  0  # atno 8010 bound_to 7997
  139.5115  144.3236  152.0179 H   0  0  0  0  0  0  0  0  0  0  0  0  # atno 10167 bound_to 10162
  156.0035  130.5089  150.6003 H   0  0  0  0  0  0  0  0  0  0  0  0  # atno 10718 bound_to 10713
  153.1905  135.6841  153.8359 H   0  0  0  0  0  0  0  0  0  0  0  0  # atno 10763 bound_to 10752
  153.7660  135.3203  155.3346 H   0  0  0  0  0  0  0  0  0  0  0  0  # atno 10764 bound_to 10752
  154.8114  135.4715  154.0625 H   0  0  0  0  0  0  0  0  0  0  0  0  # atno 10765 bound_to 10752
  141.0356  133.6801  156.2677 H   0  0  0  0  0  0  0  0  0  0  0  0  # atno 11005 bound_to 11000
  145.6697  141.0220  143.1664 LP  0  0  0  0  0  0  0  0  0  0  0  0  # atno 17320 bound_to 7965
  144.7131  139.8296  143.7408 LP  0  0  0  0  0  0  0  0  0  0  0  0  # atno 17321 bound_to 7965
  140.2677  144.3998  150.6162 LP  0  0  0  0  0  0  0  0  0  0  0  0  # atno 17342 bound_to 10162
  140.6111  143.2169  151.6884 LP  0  0  0  0  0  0  0  0  0  0  0  0  # atno 17343 bound_to 10162
  157.3853  131.0787  151.1441 LP  0  0  0  0  0  0  0  0  0  0  0  0  # atno 17370 bound_to 10713
  157.2150  130.6455  149.5789 LP  0  0  0  0  0  0  0  0  0  0  0  0  # atno 17371 bound_to 10713
  140.6327  134.5247  157.5561 LP  0  0  0  0  0  0  0  0  0  0  0  0  # atno 17394 bound_to 11000
  139.9239  134.8095  156.1128 LP  0  0  0  0  0  0  0  0  0  0  0  0  # atno 17395 bound_to 11000

$$$$
