AV-unprocessed.smi:1995|AV-procd|sdf|8083|dock7
  -GOLD-   2272010303D 1   1.00000     0.00000
 Structure written by MMmdl.
 42 43  0  0  0  0  0  0  0  0  3 V2000
  145.9847  139.7573  155.8446 C   0  0  0  0  0  0  0  0  0  0  0  0
  147.3514  139.0680  155.6872 C   0  0  0  0  0  0  0  0  0  0  0  0
  147.5224  138.1483  154.4399 C   0  0  2  0  0  0  0  0  0  0  0  0
  147.2379  138.9693  153.1534 C   0  0  0  0  0  0  0  0  0  0  0  0
  146.4834  136.9868  154.4761 C   0  0  0  0  0  0  0  0  0  0  0  0
  146.6728  136.0398  153.3754 N   0  0  0  0  0  0  0  0  0  0  0  0
  146.0745  134.8492  153.2291 C   0  0  0  0  0  0  0  0  0  0  0  0
  145.1868  134.5015  154.0101 O   0  0  0  0  0  0  0  0  0  0  0  0
  146.5655  134.1212  152.2029 N   0  5  0  0  0  0  0  0  0  0  0  0
  145.7241  133.4759  151.3790 C   0  0  0  0  0  0  0  0  0  0  0  0
  144.3932  133.5342  151.5063 N   0  0  0  0  0  0  0  0  0  0  0  0
  143.7109  132.7876  150.5439 C   0  0  0  0  0  0  0  0  0  0  0  0
  144.5420  132.1410  149.6681 C   0  0  0  0  0  0  0  0  0  0  0  0
  146.2164  132.4523  150.0276 S   0  0  0  0  0  0  0  0  0  0  0  0
  148.9113  137.5575  154.3959 N   0  3  0  0  0  0  0  0  0  0  0  0
  150.0591  138.5061  154.4181 C   0  0  0  0  0  0  0  0  0  0  0  0
  151.3733  137.7524  154.1403 C   0  0  0  0  0  0  0  0  0  0  0  0
  151.5482  136.6992  155.0790 O   0  0  0  0  0  0  0  0  0  0  0  0
  150.4913  135.7512  155.0117 C   0  0  0  0  0  0  0  0  0  0  0  0
  149.1716  136.4539  155.3610 C   0  0  0  0  0  0  0  0  0  0  0  0
  145.9613  140.3451  156.7624 H   0  0  0  0  0  0  0  0  0  0  0  0
  145.1696  139.0369  155.9041 H   0  0  0  0  0  0  0  0  0  0  0  0
  145.7752  140.4419  155.0231 H   0  0  0  0  0  0  0  0  0  0  0  0
  148.1182  139.8432  155.6748 H   0  0  0  0  0  0  0  0  0  0  0  0
  147.5212  138.4945  156.5984 H   0  0  0  0  0  0  0  0  0  0  0  0
  146.1818  139.2243  153.0628 H   0  0  0  0  0  0  0  0  0  0  0  0
  147.5006  138.4142  152.2519 H   0  0  0  0  0  0  0  0  0  0  0  0
  147.7876  139.9110  153.1393 H   0  0  0  0  0  0  0  0  0  0  0  0
  146.4955  136.4726  155.4374 H   0  0  0  0  0  0  0  0  0  0  0  0
  145.4710  137.3790  154.3809 H   0  0  0  0  0  0  0  0  0  0  0  0
  147.3751  136.2817  152.6914 H   0  0  0  0  0  0  0  0  0  0  0  0
  142.6314  132.7714  150.5583 H   0  0  0  0  0  0  0  0  0  0  0  0
  144.2743  131.5032  148.8392 H   0  0  0  0  0  0  0  0  0  0  0  0
  149.9681  139.2765  153.6549 H   0  0  0  0  0  0  0  0  0  0  0  0
  150.1072  139.0104  155.3840 H   0  0  0  0  0  0  0  0  0  0  0  0
  151.3803  137.3503  153.1256 H   0  0  0  0  0  0  0  0  0  0  0  0
  152.2200  138.4349  154.2161 H   0  0  0  0  0  0  0  0  0  0  0  0
  150.4460  135.2967  154.0203 H   0  0  0  0  0  0  0  0  0  0  0  0
  150.6908  134.9496  155.7228 H   0  0  0  0  0  0  0  0  0  0  0  0
  149.2380  136.8475  156.3759 H   0  0  0  0  0  0  0  0  0  0  0  0
  148.3655  135.7231  155.3593 H   0  0  0  0  0  0  0  0  0  0  0  0
  148.9573  137.1259  153.4826 H   0  0  0  0  0  0  0  0  0  0  0  0
  1  2  1  0  0  0  0
  1 21  1  0  0  0  0
  1 22  1  0  0  0  0
  1 23  1  0  0  0  0
  2  3  1  0  0  0  0
  2 24  1  0  0  0  0
  2 25  1  0  0  0  0
  3  4  1  0  0  0  0
  3  5  1  0  0  0  0
  3 15  1  0  0  0  0
  4 26  1  0  0  0  0
  4 27  1  0  0  0  0
  4 28  1  0  0  0  0
  5  6  1  0  0  0  0
  5 29  1  0  0  0  0
  5 30  1  0  0  0  0
  6  7  1  0  0  0  0
  6 31  1  0  0  0  0
  7  8  2  0  0  0  0
  7  9  1  0  0  0  0
  9 10  1  0  0  0  0
 10 14  1  0  0  0  0
 10 11  2  0  0  0  0
 11 12  1  0  0  0  0
 12 13  2  0  0  0  0
 12 32  1  0  0  0  0
 13 14  1  0  0  0  0
 13 33  1  0  0  0  0
 15 20  1  0  0  0  0
 15 16  1  0  0  0  0
 15 42  1  0  0  0  0
 16 17  1  0  0  0  0
 16 34  1  0  0  0  0
 16 35  1  0  0  0  0
 17 18  1  0  0  0  0
 17 36  1  0  0  0  0
 17 37  1  0  0  0  0
 18 19  1  0  0  0  0
 19 20  1  0  0  0  0
 19 38  1  0  0  0  0
 19 39  1  0  0  0  0
 20 40  1  0  0  0  0
 20 41  1  0  0  0  0
M  CHG  1   9  -1
M  CHG  1  15   1
M  END
> <s_m_source_file>
AV-unprocessed.smi

> <i_m_source_file_index>
1995

> <i_lp_mmshare_version>
43012

> <i_f3d_flags>
0

> <s_epik_input>
W0NIMl0xW0NIMl1PW0NIMl1bQ0gyXU4xW0NAQF0oW0NIM10pKFtDSDJdW0NIM10pW0NIMl1bTkhdQyg9TylbTkhdYzJuW2NIXVtjSF1zMg==

> <s_epik_cmdline>
J2VwaWtfcHl0aG9uJywgJy1waCcsICc3LjAnLCAnLXRuJywgJzgnLCAnLW1hJywgJzIwMCcsICctbWV0YWxfYmluZGluZycsICctaW1hZScsICc8aW5maWxlLm1hZT4nLCAnLW9tYWUnLCAnPG91dGZpbGUubWFlPic=

> <r_lp_tautomer_probability>
0.999

> <r_epik_Ionization_Penalty>
8.09417

> <r_epik_Ionization_Penalty_Charging>
6.70334

> <r_epik_Ionization_Penalty_Neutral>
1.39083

> <r_epik_State_Penalty>
6.86521

> <r_epik_Charging_Adjusted_Penalty>
13.5685

> <i_epik_Tot_Q>
0

> <i_epik_Tot_abs_Q>
2

> <r_epik_Metal_State_Penalty>
2.79608

> <b_epik_Metal_Only>
1

> <s_lp_Force_Field>
OPLS_2005

> <r_lp_Energy>
20.9753

> <b_lp_Chiralities_Consistent>
1

> <s_lp_Variant>
AV-unprocessed.smi:1995-8

> <Gold.Version>
5.8.1

> <Gold.Id.Protein>
6NUR|6NUR_protein|mol2

> <Gold.PLP.Fitness>
41.0522

> <Gold.PLP.PLP>
-27.1214

> <Gold.PLP.part.hbond>
-3.0000

> <Gold.PLP.part.metal>
0.0000

> <Gold.PLP.part.buried>
-3.5105

> <Gold.PLP.part.nonpolar>
-22.0369

> <Gold.PLP.part.repulsive>
0.4565

> <Gold.PLP.ligand.clash>
0.0000

> <Gold.PLP.ligand.torsion>
0.6212

> <Gold.PLP.Chemscore.Hbond>
4.0000

> <Gold.PLP.Chemscore.CHOScore>
1.0000

> <Gold.PLP.Chemscore.Metal>
0.0000

> <Gold.Chemscore.Hbonds>
donor molecule, donor type, donor heavy atom, donor atom, acceptor molecule, acceptor atom, score
      L1  H     6    31       P1  7948  1.00
      L1  H    15    42       P1  7948  2.00
      P1  H 10752 10763       L1    18  0.95
      L1  C    12    32       P1 10186  0.99

> <Gold.PLP.Chemscore.Internal.Correction>
0.1732

> <Gold.Rescore>
     Score         DG    S(hbond)    S(metal)    S(lipo)     H(rot)  DE(clash)    DE(int)     intcor
     14.68     -16.84       2.39        0.00      67.27       1.75       0.05       2.11       ----

> <Gold.Chemscore.Fitness>
14.6773

> <Gold.Chemscore.DG>
-16.8437

> <Gold.Chemscore.ZeroCoef>
-5.4800

> <Gold.Chemscore.Hbond>
2.3888

> <Gold.Chemscore.Metal>
0.0000

> <Gold.Chemscore.Lipo>
67.2737

> <Gold.Chemscore.Internal_Hbond>
0.0000

> <Gold.Chemscore.DEClash>
0.0544

> <Gold.Chemscore.DEInternal>
2.1120

> <Gold.Chemscore.Rot>
1.7523

> <Gold.Chemscore.Internal.Correction>
   9.000000E+99

> <Gold.Chemscore.Hbonds>
donor molecule, donor type, donor heavy atom, donor atom, acceptor molecule, acceptor atom, score
      L1  H     6    31       P1  7948  0.99
      L1  H    15    42       P1  7948  1.00
      P1  H 10752 10763       L1    18  0.16

> <Gold.Chemscore.Hbond.Weighted>
-7.9785

> <Gold.Chemscore.Metal.Weighted>
-0.0000

> <Gold.Chemscore.Lipo.Weighted>
-7.8710

> <Gold.Chemscore.Internal_Hbond.Weighted>
0.0000

> <Gold.Chemscore.DEClash.Weighted>
0.0544

> <Gold.Chemscore.DEInternal.Weighted>
2.1120

> <Gold.Chemscore.Rot.Weighted>
4.4858

> <Gold.Chemscore.Internal.Correction.Weighted>
   9.000000E+99

> <Gold.Protein.RotatedTorsions>
[ 6907 6896 6895 6894 ] final  153.86 input  -60.11 | X-H torsion
[ 7974 7965 7964 7962 ] final  -59.38 input  175.53 | X-H torsion
[ 8008 7997 7996 7995 ] final   91.19 input   59.86 | X-H torsion
[ 10167 10162 10161 10158 ] final  -97.50 input  -65.29 | X-H torsion
[ 10718 10713 10712 10709 ] final  146.17 input   66.30 | X-H torsion
[ 10763 10752 10751 10750 ] final   55.79 input  -60.55 | X-H torsion
[ 11005 11000 10999 10996 ] final  129.96 input  -57.11 | X-H torsion

> <Gold.Protein.ActiveResidues>
 VAL166  LYS551  ARG553  GLY616  TRP617  ASP618  TYR619  PRO620  LYS621  CYS622 
 ASP623  PHE694  ASN695  SER759  ASP760  ASP761  ALA762  ILE779  LEU786  VAL792 
 PHE793  MET794  SER795  GLU796  ALA797  LYS798  CYS799  TRP800  GLU811  SER814 

> <Gold.Protein.RotatedAtoms>
  152.0667  133.4087  159.4441 H   0  0  0  0  0  0  0  0  0  0  0  0  # atno 6907 bound_to 6896
  150.6864  134.3138  159.4766 H   0  0  0  0  0  0  0  0  0  0  0  0  # atno 6908 bound_to 6896
  152.0965  134.9371  160.0621 H   0  0  0  0  0  0  0  0  0  0  0  0  # atno 6909 bound_to 6896
  145.8281  140.8497  143.0098 H   0  0  0  0  0  0  0  0  0  0  0  0  # atno 7974 bound_to 7965
  156.0209  140.3340  155.7037 H   0  0  0  0  0  0  0  0  0  0  0  0  # atno 8008 bound_to 7997
  155.6024  140.0657  157.2747 H   0  0  0  0  0  0  0  0  0  0  0  0  # atno 8009 bound_to 7997
  154.4315  140.1808  156.1175 H   0  0  0  0  0  0  0  0  0  0  0  0  # atno 8010 bound_to 7997
  140.2828  143.3271  152.0424 H   0  0  0  0  0  0  0  0  0  0  0  0  # atno 10167 bound_to 10162
  157.3364  131.0928  151.1120 H   0  0  0  0  0  0  0  0  0  0  0  0  # atno 10718 bound_to 10713
  152.9822  135.5698  154.5124 H   0  0  0  0  0  0  0  0  0  0  0  0  # atno 10763 bound_to 10752
  154.4626  135.2782  155.1704 H   0  0  0  0  0  0  0  0  0  0  0  0  # atno 10764 bound_to 10752
  154.3285  135.6254  153.5594 H   0  0  0  0  0  0  0  0  0  0  0  0  # atno 10765 bound_to 10752
  139.9645  134.9594  156.9224 H   0  0  0  0  0  0  0  0  0  0  0  0  # atno 11005 bound_to 11000
  144.6742  140.0632  143.7475 LP  0  0  0  0  0  0  0  0  0  0  0  0  # atno 17320 bound_to 7965
  145.9601  139.2794  143.1160 LP  0  0  0  0  0  0  0  0  0  0  0  0  # atno 17321 bound_to 7965
  139.4958  144.6580  151.6529 LP  0  0  0  0  0  0  0  0  0  0  0  0  # atno 17342 bound_to 10162
  140.5798  143.9966  150.6262 LP  0  0  0  0  0  0  0  0  0  0  0  0  # atno 17343 bound_to 10162
  157.2348  130.6542  149.5865 LP  0  0  0  0  0  0  0  0  0  0  0  0  # atno 17370 bound_to 10713
  155.9702  130.4587  150.6009 LP  0  0  0  0  0  0  0  0  0  0  0  0  # atno 17371 bound_to 10713
  140.5428  134.0704  155.7346 LP  0  0  0  0  0  0  0  0  0  0  0  0  # atno 17394 bound_to 11000
  141.1324  133.9280  157.2508 LP  0  0  0  0  0  0  0  0  0  0  0  0  # atno 17395 bound_to 11000

$$$$
