AV-unprocessed.smi:2751|AV-procd|sdf|10598|dock3
  -GOLD-   2272015 53D 1   1.00000     0.00000
 Structure written by MMmdl.
 35 36  0  0  0  0  0  0  0  0  2 V2000
  147.0044  137.5616  153.9230 O   0  0  0  0  0  0  0  0  0  0  0  0
  146.2438  138.3723  153.3928 C   0  0  0  0  0  0  0  0  0  0  0  0
  146.2258  139.6794  153.6942 N   0  0  0  0  0  0  0  0  0  0  0  0
  147.0857  140.3196  154.6836 C   0  0  0  0  0  0  0  0  0  0  0  0
  148.5142  140.5176  154.1477 C   0  0  0  0  0  0  0  0  0  0  0  0
  149.5609  139.6922  154.9125 C   0  0  1  0  0  0  0  0  0  0  0  0
  149.7236  138.2799  154.3174 C   0  0  0  0  0  0  0  0  0  0  0  0
  150.8315  137.5103  155.0449 C   0  0  0  0  0  0  0  0  0  0  0  0
  152.1189  138.3408  155.0501 C   0  0  0  0  0  0  0  0  0  0  0  0
  151.8431  139.7485  155.6014 C   0  0  0  0  0  0  0  0  0  0  0  0
  150.8120  140.3740  154.8434 O   0  0  0  0  0  0  0  0  0  0  0  0
  145.3335  138.0692  152.4519 N   0  0  0  0  0  0  0  0  0  0  0  0
  145.0679  136.7907  151.8988 C   0  0  0  0  0  0  0  0  0  0  0  0
  145.9627  135.8948  151.4755 N   0  3  0  0  0  0  0  0  0  0  0  0
  145.2985  134.7878  151.0105 C   0  0  0  0  0  0  0  0  0  0  0  0
  143.9621  135.0605  151.1749 C   0  0  0  0  0  0  0  0  0  0  0  0
  143.8029  136.3145  151.7316 O   0  0  0  0  0  0  0  0  0  0  0  0
  145.5704  140.2763  153.2108 H   0  0  0  0  0  0  0  0  0  0  0  0
  146.6536  141.2725  154.9938 H   0  0  0  0  0  0  0  0  0  0  0  0
  147.1075  139.6868  155.5713 H   0  0  0  0  0  0  0  0  0  0  0  0
  148.5383  140.2373  153.0938 H   0  0  0  0  0  0  0  0  0  0  0  0
  148.7866  141.5730  154.1908 H   0  0  0  0  0  0  0  0  0  0  0  0
  149.2528  139.6109  155.9566 H   0  0  0  0  0  0  0  0  0  0  0  0
  148.7846  137.7297  154.3842 H   0  0  0  0  0  0  0  0  0  0  0  0
  149.9683  138.3535  153.2570 H   0  0  0  0  0  0  0  0  0  0  0  0
  150.5235  137.3031  156.0703 H   0  0  0  0  0  0  0  0  0  0  0  0
  151.0024  136.5454  154.5667 H   0  0  0  0  0  0  0  0  0  0  0  0
  152.8865  137.8448  155.6446 H   0  0  0  0  0  0  0  0  0  0  0  0
  152.5099  138.4179  154.0347 H   0  0  0  0  0  0  0  0  0  0  0  0
  151.5604  139.7061  156.6543 H   0  0  0  0  0  0  0  0  0  0  0  0
  152.7447  140.3579  155.5390 H   0  0  0  0  0  0  0  0  0  0  0  0
  146.9718  135.9829  151.4818 H   0  0  0  0  0  0  0  0  0  0  0  0
  145.8324  133.9345  150.6172 H   0  0  0  0  0  0  0  0  0  0  0  0
  143.0570  134.5097  150.9629 H   0  0  0  0  0  0  0  0  0  0  0  0
  144.7715  138.8285  152.0967 H   0  0  0  0  0  0  0  0  0  0  0  0
  1  2  2  0  0  0  0
  2 12  1  0  0  0  0
  2  3  1  0  0  0  0
  3  4  1  0  0  0  0
  3 18  1  0  0  0  0
  4  5  1  0  0  0  0
  4 19  1  0  0  0  0
  4 20  1  0  0  0  0
  5  6  1  0  0  0  0
  5 21  1  0  0  0  0
  5 22  1  0  0  0  0
  6 11  1  0  0  0  0
  6  7  1  0  0  0  0
  6 23  1  0  0  0  0
  7  8  1  0  0  0  0
  7 24  1  0  0  0  0
  7 25  1  0  0  0  0
  8  9  1  0  0  0  0
  8 26  1  0  0  0  0
  8 27  1  0  0  0  0
  9 10  1  0  0  0  0
  9 28  1  0  0  0  0
  9 29  1  0  0  0  0
 10 11  1  0  0  0  0
 10 30  1  0  0  0  0
 10 31  1  0  0  0  0
 12 13  1  0  0  0  0
 12 35  1  0  0  0  0
 13 17  1  0  0  0  0
 13 14  2  0  0  0  0
 14 32  1  0  0  0  0
 14 15  1  0  0  0  0
 15 33  1  0  0  0  0
 15 16  2  0  0  0  0
 16 34  1  0  0  0  0
 16 17  1  0  0  0  0
M  CHG  1  14   1
M  END
> <s_m_source_file>
AV-unprocessed.smi

> <i_m_source_file_index>
2751

> <i_lp_mmshare_version>
43012

> <i_f3d_flags>
0

> <s_epik_input>
bzFbY0hdW2NIXW5jMVtOSF1DKD1PKVtOSF1bQ0gyXVtDSDJdW0NAQEhdMltDSDJdW0NIMl1bQ0gyXVtDSDJdTzI=

> <s_epik_cmdline>
J2VwaWtfcHl0aG9uJywgJy1waCcsICc3LjAnLCAnLXRuJywgJzgnLCAnLW1hJywgJzIwMCcsICctbWV0YWxfYmluZGluZycsICctaW1hZScsICc8aW5maWxlLm1hZT4nLCAnLW9tYWUnLCAnPG91dGZpbGUubWFlPic=

> <r_epik_Ionization_Penalty>
6.63408

> <r_epik_Ionization_Penalty_Charging>
6.57733

> <r_epik_Ionization_Penalty_Neutral>
0.0567487

> <r_epik_State_Penalty>
1.8175

> <r_epik_Charging_Adjusted_Penalty>
8.39483

> <i_epik_Tot_Q>
1

> <i_epik_Tot_abs_Q>
1

> <r_epik_Metal_State_Penalty>
1.83396

> <b_epik_Metal_Only>
0

> <s_lp_Force_Field>
OPLS_2005

> <r_lp_Energy>
17.5714

> <b_lp_Chiralities_Consistent>
1

> <s_lp_Variant>
AV-unprocessed.smi:2751-4

> <Gold.Version>
5.8.1

> <Gold.Id.Protein>
6NUR|6NUR_protein|mol2

> <Gold.PLP.Fitness>
43.0313

> <Gold.PLP.PLP>
-27.6179

> <Gold.PLP.part.hbond>
-4.9171

> <Gold.PLP.part.metal>
0.0000

> <Gold.PLP.part.buried>
-2.9061

> <Gold.PLP.part.nonpolar>
-22.4888

> <Gold.PLP.part.repulsive>
2.2388

> <Gold.PLP.ligand.clash>
0.0000

> <Gold.PLP.ligand.torsion>
1.2010

> <Gold.PLP.Chemscore.Hbond>
4.9420

> <Gold.PLP.Chemscore.CHOScore>
0.9876

> <Gold.PLP.Chemscore.Metal>
0.0000

> <Gold.Chemscore.Hbonds>
donor molecule, donor type, donor heavy atom, donor atom, acceptor molecule, acceptor atom, score
      L1  H     3    18       P1 10175  0.94
      L1  H    12    35       P1 10175  0.99
      L1  H    14    32       P1  7948  2.00
      P1  H  7989  7998       L1    11  1.00
      L1  C    16    34       P1 10186  1.00

> <Gold.PLP.Chemscore.Internal.Correction>
0.0266

> <Gold.Rescore>
     Score         DG    S(hbond)    S(metal)    S(lipo)     H(rot)  DE(clash)    DE(int)     intcor
     15.79     -17.41       2.85        0.00      56.82       1.66       0.21       1.41       ----

> <Gold.Chemscore.Fitness>
15.7913

> <Gold.Chemscore.DG>
-17.4117

> <Gold.Chemscore.ZeroCoef>
-5.4800

> <Gold.Chemscore.Hbond>
2.8523

> <Gold.Chemscore.Metal>
0.0000

> <Gold.Chemscore.Lipo>
56.8200

> <Gold.Chemscore.Internal_Hbond>
0.0000

> <Gold.Chemscore.DEClash>
0.2118

> <Gold.Chemscore.DEInternal>
1.4085

> <Gold.Chemscore.Rot>
1.6575

> <Gold.Chemscore.Internal.Correction>
   9.000000E+99

> <Gold.Chemscore.Hbonds>
donor molecule, donor type, donor heavy atom, donor atom, acceptor molecule, acceptor atom, score
      L1  H     3    18       P1 10175  0.83
      L1  H    12    35       P1 10175  0.92
      L1  H    14    32       P1  7948  0.97
      P1  H  7989  7998       L1    11  0.34

> <Gold.Chemscore.Hbond.Weighted>
-9.5268

> <Gold.Chemscore.Metal.Weighted>
-0.0000

> <Gold.Chemscore.Lipo.Weighted>
-6.6479

> <Gold.Chemscore.Internal_Hbond.Weighted>
0.0000

> <Gold.Chemscore.DEClash.Weighted>
0.2118

> <Gold.Chemscore.DEInternal.Weighted>
1.4085

> <Gold.Chemscore.Rot.Weighted>
4.2431

> <Gold.Chemscore.Internal.Correction.Weighted>
   9.000000E+99

> <Gold.Protein.RotatedTorsions>
[ 6907 6896 6895 6894 ] final  174.69 input  -60.11 | X-H torsion
[ 7974 7965 7964 7962 ] final  113.32 input  175.53 | X-H torsion
[ 8008 7997 7996 7995 ] final  -94.44 input   59.86 | X-H torsion
[ 10167 10162 10161 10158 ] final -110.21 input  -65.29 | X-H torsion
[ 10718 10713 10712 10709 ] final   30.81 input   66.30 | X-H torsion
[ 10763 10752 10751 10750 ] final  168.35 input  -60.55 | X-H torsion
[ 11005 11000 10999 10996 ] final -173.75 input  -57.11 | X-H torsion

> <Gold.Protein.ActiveResidues>
 VAL166  LYS551  ARG553  GLY616  TRP617  ASP618  TYR619  PRO620  LYS621  CYS622 
 ASP623  PHE694  ASN695  SER759  ASP760  ASP761  ALA762  ILE779  LEU786  VAL792 
 PHE793  MET794  SER795  GLU796  ALA797  LYS798  CYS799  TRP800  GLU811  SER814 

> <Gold.Protein.RotatedAtoms>
  151.7483  133.3326  159.3384 H   0  0  0  0  0  0  0  0  0  0  0  0  # atno 6907 bound_to 6896
  150.7545  134.6216  159.6148 H   0  0  0  0  0  0  0  0  0  0  0  0  # atno 6908 bound_to 6896
  152.3485  134.7039  160.0295 H   0  0  0  0  0  0  0  0  0  0  0  0  # atno 6909 bound_to 6896
  145.2185  139.2873  143.4231 H   0  0  0  0  0  0  0  0  0  0  0  0  # atno 7974 bound_to 7965
  154.7484  140.0489  157.0872 H   0  0  0  0  0  0  0  0  0  0  0  0  # atno 8008 bound_to 7997
  155.0088  140.3133  155.4818 H   0  0  0  0  0  0  0  0  0  0  0  0  # atno 8009 bound_to 7997
  156.2880  140.2188  156.5202 H   0  0  0  0  0  0  0  0  0  0  0  0  # atno 8010 bound_to 7997
  140.1469  143.4231  152.1522 H   0  0  0  0  0  0  0  0  0  0  0  0  # atno 10167 bound_to 10162
  157.2643  130.7177  149.6470 H   0  0  0  0  0  0  0  0  0  0  0  0  # atno 10718 bound_to 10713
  154.3673  135.2753  155.2286 H   0  0  0  0  0  0  0  0  0  0  0  0  # atno 10763 bound_to 10752
  154.4449  135.5945  153.6157 H   0  0  0  0  0  0  0  0  0  0  0  0  # atno 10764 bound_to 10752
  152.9840  135.6028  154.3900 H   0  0  0  0  0  0  0  0  0  0  0  0  # atno 10765 bound_to 10752
  140.4823  134.6064  157.4924 H   0  0  0  0  0  0  0  0  0  0  0  0  # atno 11005 bound_to 11000
  146.3381  140.2483  142.8598 LP  0  0  0  0  0  0  0  0  0  0  0  0  # atno 17320 bound_to 7965
  144.9788  140.8440  143.5410 LP  0  0  0  0  0  0  0  0  0  0  0  0  # atno 17321 bound_to 7965
  139.5444  144.7286  151.4629 LP  0  0  0  0  0  0  0  0  0  0  0  0  # atno 17342 bound_to 10162
  140.6726  143.8260  150.7018 LP  0  0  0  0  0  0  0  0  0  0  0  0  # atno 17343 bound_to 10162
  155.9663  130.4387  150.5230 LP  0  0  0  0  0  0  0  0  0  0  0  0  # atno 17370 bound_to 10713
  157.3141  131.0669  151.1980 LP  0  0  0  0  0  0  0  0  0  0  0  0  # atno 17371 bound_to 10713
  139.9819  134.7123  155.9844 LP  0  0  0  0  0  0  0  0  0  0  0  0  # atno 17394 bound_to 11000
  141.1525  133.6546  156.4058 LP  0  0  0  0  0  0  0  0  0  0  0  0  # atno 17395 bound_to 11000

$$$$
