AV-unprocessed.smi:1648|AV-procd|sdf|6634|dock7
  -GOLD-   22720 7333D 1   1.00000     0.00000
 Structure written by MMmdl.
 41 41  0  0  0  0  0  0  0  0  1 V2000
  145.0984  143.3126  155.6798 C   0  0  0  0  0  0  0  0  0  0  0  0
  146.1100  142.1866  155.4573 C   0  0  0  0  0  0  0  0  0  0  0  0
  145.8050  141.0345  155.7558 O   0  0  0  0  0  0  0  0  0  0  0  0
  147.3117  142.4754  154.9283 N   0  0  0  0  0  0  0  0  0  0  0  0
  148.4043  141.5423  154.6419 C   0  0  1  0  0  0  0  0  0  0  0  0
  149.1187  141.2353  155.9707 C   0  0  0  0  0  0  0  0  0  0  0  0
  149.2131  140.0749  156.3738 O   0  0  0  0  0  0  0  0  0  0  0  0
  149.6166  142.2901  156.6358 N   0  0  0  0  0  0  0  0  0  0  0  0
  150.3107  142.2388  157.9215 C   0  0  1  0  0  0  0  0  0  0  0  0
  151.3098  141.0744  157.8989 C   0  0  0  0  0  0  0  0  0  0  0  0
  151.0158  143.5793  158.2222 C   0  0  0  0  0  0  0  0  0  0  0  0
  151.7327  143.5687  159.4851 N   0  0  0  0  0  0  0  0  0  0  0  0
  151.4121  144.2746  160.6375 C   0  0  0  0  0  0  0  0  0  0  0  0
  152.3750  143.9630  161.5705 C   0  0  0  0  0  0  0  0  0  0  0  0
  153.2825  143.0587  161.0236 N   0  0  0  0  0  0  0  0  0  0  0  0
  152.8329  142.8669  159.7906 C   0  0  0  0  0  0  0  0  0  0  0  0
  147.8058  140.2336  154.0468 C   0  0  0  0  0  0  0  0  0  0  0  0
  148.8746  139.1548  153.7720 C   0  0  0  0  0  0  0  0  0  0  0  0
  147.0167  140.5028  152.7503 C   0  0  0  0  0  0  0  0  0  0  0  0
  145.5379  144.1337  156.2452 H   0  0  0  0  0  0  0  0  0  0  0  0
  144.2358  142.9478  156.2382 H   0  0  0  0  0  0  0  0  0  0  0  0
  144.7431  143.6987  154.7242 H   0  0  0  0  0  0  0  0  0  0  0  0
  147.4729  143.4360  154.6621 H   0  0  0  0  0  0  0  0  0  0  0  0
  149.1045  141.9720  153.9234 H   0  0  0  0  0  0  0  0  0  0  0  0
  149.4940  143.2042  156.2248 H   0  0  0  0  0  0  0  0  0  0  0  0
  149.5962  142.0305  158.7200 H   0  0  0  0  0  0  0  0  0  0  0  0
  151.8302  140.9856  158.8529 H   0  0  0  0  0  0  0  0  0  0  0  0
  152.0620  141.2098  157.1209 H   0  0  0  0  0  0  0  0  0  0  0  0
  150.8034  140.1267  157.7122 H   0  0  0  0  0  0  0  0  0  0  0  0
  151.7364  143.8080  157.4359 H   0  0  0  0  0  0  0  0  0  0  0  0
  150.2944  144.3980  158.2312 H   0  0  0  0  0  0  0  0  0  0  0  0
  150.5564  144.9312  160.6925 H   0  0  0  0  0  0  0  0  0  0  0  0
  152.4819  144.3142  162.5861 H   0  0  0  0  0  0  0  0  0  0  0  0
  153.3206  142.2039  159.0916 H   0  0  0  0  0  0  0  0  0  0  0  0
  147.0997  139.8137  154.7656 H   0  0  0  0  0  0  0  0  0  0  0  0
  149.6440  139.5257  153.0944 H   0  0  0  0  0  0  0  0  0  0  0  0
  148.4300  138.2709  153.3138 H   0  0  0  0  0  0  0  0  0  0  0  0
  149.3671  138.8201  154.6852 H   0  0  0  0  0  0  0  0  0  0  0  0
  147.6523  140.9543  151.9881 H   0  0  0  0  0  0  0  0  0  0  0  0
  146.1719  141.1710  152.9179 H   0  0  0  0  0  0  0  0  0  0  0  0
  146.6114  139.5782  152.3382 H   0  0  0  0  0  0  0  0  0  0  0  0
  1  2  1  0  0  0  0
  1 20  1  0  0  0  0
  1 21  1  0  0  0  0
  1 22  1  0  0  0  0
  2  3  2  0  0  0  0
  2  4  1  0  0  0  0
  4  5  1  0  0  0  0
  4 23  1  0  0  0  0
  5  6  1  0  0  0  0
  5 17  1  0  0  0  0
  5 24  1  0  0  0  0
  6  7  2  0  0  0  0
  6  8  1  0  0  0  0
  8  9  1  0  0  0  0
  8 25  1  0  0  0  0
  9 10  1  0  0  0  0
  9 11  1  0  0  0  0
  9 26  1  0  0  0  0
 10 27  1  0  0  0  0
 10 28  1  0  0  0  0
 10 29  1  0  0  0  0
 11 12  1  0  0  0  0
 11 30  1  0  0  0  0
 11 31  1  0  0  0  0
 12 16  1  0  0  0  0
 12 13  1  0  0  0  0
 13 14  2  0  0  0  0
 13 32  1  0  0  0  0
 14 15  1  0  0  0  0
 14 33  1  0  0  0  0
 15 16  2  0  0  0  0
 16 34  1  0  0  0  0
 17 18  1  0  0  0  0
 17 19  1  0  0  0  0
 17 35  1  0  0  0  0
 18 36  1  0  0  0  0
 18 37  1  0  0  0  0
 18 38  1  0  0  0  0
 19 39  1  0  0  0  0
 19 40  1  0  0  0  0
 19 41  1  0  0  0  0
M  END
> <s_m_source_file>
AV-unprocessed.smi

> <i_m_source_file_index>
1648

> <i_lp_mmshare_version>
43012

> <i_f3d_flags>
0

> <s_epik_input>
W0NIM11DKD1PKVtOSF1bQ0BASF0oW0NIXShbQ0gzXSlbQ0gzXSlDKD1PKVtOSF1bQ0BIXShbQ0gzXSlbQ0gyXW4xW2NIXVtjSF1uW2NIXTE=

> <s_epik_cmdline>
J2VwaWtfcHl0aG9uJywgJy1waCcsICc3LjAnLCAnLXRuJywgJzgnLCAnLW1hJywgJzIwMCcsICctbWV0YWxfYmluZGluZycsICctaW1hZScsICc8aW5maWxlLm1hZT4nLCAnLW9tYWUnLCAnPG91dGZpbGUubWFlPic=

> <r_lp_tautomer_probability>
1

> <r_epik_Ionization_Penalty>
0.628885

> <r_epik_Ionization_Penalty_Charging>
0.628884

> <r_epik_Ionization_Penalty_Neutral>
4.35155e-07

> <r_epik_State_Penalty>
0.64556

> <r_epik_Charging_Adjusted_Penalty>
1.27444

> <i_epik_Tot_Q>
0

> <i_epik_Tot_abs_Q>
0

> <r_epik_Metal_State_Penalty>
0.30874

> <b_epik_Metal_Only>
0

> <s_lp_Force_Field>
OPLS_2005

> <r_lp_Energy>
9.11872

> <b_lp_Chiralities_Consistent>
1

> <s_lp_Variant>
AV-unprocessed.smi:1648-8

> <Gold.Version>
5.8.1

> <Gold.Id.Protein>
6NUR|6NUR_protein|mol2

> <Gold.PLP.Fitness>
39.4750

> <Gold.PLP.PLP>
-36.0582

> <Gold.PLP.part.hbond>
-2.0000

> <Gold.PLP.part.metal>
0.0000

> <Gold.PLP.part.buried>
-2.5989

> <Gold.PLP.part.nonpolar>
-31.3657

> <Gold.PLP.part.repulsive>
0.3156

> <Gold.PLP.ligand.clash>
0.0000

> <Gold.PLP.ligand.torsion>
0.5314

> <Gold.PLP.Chemscore.Hbond>
1.4480

> <Gold.PLP.Chemscore.CHOScore>
0.0000

> <Gold.PLP.Chemscore.Metal>
0.0000

> <Gold.Chemscore.Hbonds>
donor molecule, donor type, donor heavy atom, donor atom, acceptor molecule, acceptor atom, score
      L1  H     4    23       P1  8028  0.39
      L1  H     8    25       P1  8028  1.00

> <Gold.PLP.Chemscore.Internal.Correction>
0.1356

> <Gold.Rescore>
     Score         DG    S(hbond)    S(metal)    S(lipo)     H(rot)  DE(clash)    DE(int)     intcor
      5.18     -11.16       0.99        0.00      75.34       2.52       0.24       5.73       ----

> <Gold.Chemscore.Fitness>
5.1805

> <Gold.Chemscore.DG>
-11.1553

> <Gold.Chemscore.ZeroCoef>
-5.4800

> <Gold.Chemscore.Hbond>
0.9927

> <Gold.Chemscore.Metal>
0.0000

> <Gold.Chemscore.Lipo>
75.3413

> <Gold.Chemscore.Internal_Hbond>
0.0000

> <Gold.Chemscore.DEClash>
0.2411

> <Gold.Chemscore.DEInternal>
5.7337

> <Gold.Chemscore.Rot>
2.5216

> <Gold.Chemscore.Internal.Correction>
   9.000000E+99

> <Gold.Chemscore.Hbonds>
donor molecule, donor type, donor heavy atom, donor atom, acceptor molecule, acceptor atom, score
      L1  H     4    23       P1  8028  0.09
      L1  H     8    25       P1  8028  1.00

> <Gold.Chemscore.Hbond.Weighted>
-3.3156

> <Gold.Chemscore.Metal.Weighted>
-0.0000

> <Gold.Chemscore.Lipo.Weighted>
-8.8149

> <Gold.Chemscore.Internal_Hbond.Weighted>
0.0000

> <Gold.Chemscore.DEClash.Weighted>
0.2411

> <Gold.Chemscore.DEInternal.Weighted>
5.7337

> <Gold.Chemscore.Rot.Weighted>
6.4553

> <Gold.Chemscore.Internal.Correction.Weighted>
   9.000000E+99

> <Gold.Protein.RotatedTorsions>
[ 6907 6896 6895 6894 ] final  146.98 input  -60.11 | X-H torsion
[ 7974 7965 7964 7962 ] final  128.13 input  175.53 | X-H torsion
[ 8008 7997 7996 7995 ] final  -57.65 input   59.86 | X-H torsion
[ 10167 10162 10161 10158 ] final -122.44 input  -65.29 | X-H torsion
[ 10718 10713 10712 10709 ] final  -41.91 input   66.30 | X-H torsion
[ 10763 10752 10751 10750 ] final  114.21 input  -60.55 | X-H torsion
[ 11005 11000 10999 10996 ] final  -29.63 input  -57.11 | X-H torsion

> <Gold.Protein.ActiveResidues>
 VAL166  LYS551  ARG553  GLY616  TRP617  ASP618  TYR619  PRO620  LYS621  CYS622 
 ASP623  PHE694  ASN695  SER759  ASP760  ASP761  ALA762  ILE779  LEU786  VAL792 
 PHE793  MET794  SER795  GLU796  ALA797  LYS798  CYS799  TRP800  GLU811  SER814 

> <Gold.Protein.RotatedAtoms>
  152.1608  133.4580  159.4859 H   0  0  0  0  0  0  0  0  0  0  0  0  # atno 6907 bound_to 6896
  150.6906  134.2074  159.4355 H   0  0  0  0  0  0  0  0  0  0  0  0  # atno 6908 bound_to 6896
  151.9976  134.9945  160.0614 H   0  0  0  0  0  0  0  0  0  0  0  0  # atno 6909 bound_to 6896
  145.0429  139.3947  143.5093 H   0  0  0  0  0  0  0  0  0  0  0  0  # atno 7974 bound_to 7965
  154.4277  140.1102  156.5832 H   0  0  0  0  0  0  0  0  0  0  0  0  # atno 8008 bound_to 7997
  155.6090  140.3494  155.4598 H   0  0  0  0  0  0  0  0  0  0  0  0  # atno 8009 bound_to 7997
  156.0114  140.1220  157.0440 H   0  0  0  0  0  0  0  0  0  0  0  0  # atno 8010 bound_to 7997
  140.0142  143.5410  152.2249 H   0  0  0  0  0  0  0  0  0  0  0  0  # atno 10167 bound_to 10162
  156.2653  130.4201  149.8498 H   0  0  0  0  0  0  0  0  0  0  0  0  # atno 10718 bound_to 10713
  153.5039  135.3632  155.2553 H   0  0  0  0  0  0  0  0  0  0  0  0  # atno 10763 bound_to 10752
  154.8746  135.4006  154.3447 H   0  0  0  0  0  0  0  0  0  0  0  0  # atno 10764 bound_to 10752
  153.4087  135.7077  153.6440 H   0  0  0  0  0  0  0  0  0  0  0  0  # atno 10765 bound_to 10752
  140.9313  133.7336  156.0941 H   0  0  0  0  0  0  0  0  0  0  0  0  # atno 11005 bound_to 11000
  146.3511  140.0040  142.8673 LP  0  0  0  0  0  0  0  0  0  0  0  0  # atno 17320 bound_to 7965
  145.1624  140.9680  143.4369 LP  0  0  0  0  0  0  0  0  0  0  0  0  # atno 17321 bound_to 7965
  139.6184  144.7624  151.2795 LP  0  0  0  0  0  0  0  0  0  0  0  0  # atno 17342 bound_to 10162
  140.7369  143.6694  150.8095 LP  0  0  0  0  0  0  0  0  0  0  0  0  # atno 17343 bound_to 10162
  156.5998  130.8542  151.3429 LP  0  0  0  0  0  0  0  0  0  0  0  0  # atno 17370 bound_to 10713
  157.7265  130.9630  150.1658 LP  0  0  0  0  0  0  0  0  0  0  0  0  # atno 17371 bound_to 10713
  140.7858  134.3673  157.5476 LP  0  0  0  0  0  0  0  0  0  0  0  0  # atno 17394 bound_to 11000
  139.8797  134.9110  156.3027 LP  0  0  0  0  0  0  0  0  0  0  0  0  # atno 17395 bound_to 11000

$$$$
