AV-unprocessed.smi:509|AV-procd|sdf|2760|dock8
  -GOLD-   2262023223D 1   1.00000     0.00000
 Structure written by MMmdl.
 46 48  0  0  0  0  0  0  0  0  2 V2000
  150.7142  132.3432  155.5932 C   0  0  0  0  0  0  0  0  0  0  0  0
  149.7874  132.3877  154.5233 O   0  0  0  0  0  0  0  0  0  0  0  0
  149.3490  133.7061  154.2382 C   0  0  0  0  0  0  0  0  0  0  0  0
  148.5233  134.2374  155.4176 C   0  0  0  0  0  0  0  0  0  0  0  0
  148.0526  135.6020  155.1828 N   0  0  0  0  0  0  0  0  0  0  0  0
  146.7777  136.0581  155.0300 C   0  0  0  0  0  0  0  0  0  0  0  0
  145.6599  135.2249  155.1131 N   0  0  0  0  0  0  0  0  0  0  0  0
  144.6343  135.0370  154.0876 C   0  0  0  0  0  0  0  0  0  0  0  0
  143.2172  135.1402  154.6812 C   0  0  0  0  0  0  0  0  0  0  0  0
  143.0458  134.1625  155.7757 N   0  3  0  0  0  0  0  0  0  0  0  0
  144.1109  134.2581  156.7953 C   0  0  0  0  0  0  0  0  0  0  0  0
  145.5023  134.1951  156.1386 C   0  0  0  0  0  0  0  0  0  0  0  0
  146.6874  137.3587  154.7418 N   0  0  0  0  0  0  0  0  0  0  0  0
  148.0094  137.7740  154.7343 C   0  0  0  0  0  0  0  0  0  0  0  0
  148.8432  136.7386  154.9863 C   0  0  0  0  0  0  0  0  0  0  0  0
  150.3048  136.8846  154.9914 C   0  0  0  0  0  0  0  0  0  0  0  0
  151.0480  135.9221  155.1878 O   0  0  0  0  0  0  0  0  0  0  0  0
  150.7419  138.1600  154.7502 N   0  0  0  0  0  0  0  0  0  0  0  0
  152.2038  138.3584  154.7518 C   0  0  0  0  0  0  0  0  0  0  0  0
  149.9250  139.2438  154.4762 C   0  0  0  0  0  0  0  0  0  0  0  0
  150.3933  140.3576  154.2253 O   0  0  0  0  0  0  0  0  0  0  0  0
  148.5661  139.0539  154.4811 N   0  0  0  0  0  0  0  0  0  0  0  0
  147.6681  140.1786  154.2031 C   0  0  0  0  0  0  0  0  0  0  0  0
  151.0132  131.3110  155.7757 H   0  0  0  0  0  0  0  0  0  0  0  0
  150.2757  132.7346  156.5119 H   0  0  0  0  0  0  0  0  0  0  0  0
  151.6120  132.9174  155.3603 H   0  0  0  0  0  0  0  0  0  0  0  0
  150.2090  134.3550  154.0681 H   0  0  0  0  0  0  0  0  0  0  0  0
  148.7497  133.7131  153.3265 H   0  0  0  0  0  0  0  0  0  0  0  0
  147.6889  133.5699  155.6023 H   0  0  0  0  0  0  0  0  0  0  0  0
  149.1072  134.2122  156.3364 H   0  0  0  0  0  0  0  0  0  0  0  0
  144.7691  135.7462  153.2720 H   0  0  0  0  0  0  0  0  0  0  0  0
  144.7713  134.0521  153.6388 H   0  0  0  0  0  0  0  0  0  0  0  0
  143.0377  136.1433  155.0700 H   0  0  0  0  0  0  0  0  0  0  0  0
  142.4661  134.9550  153.9131 H   0  0  0  0  0  0  0  0  0  0  0  0
  142.1466  134.3012  156.2138 H   0  0  0  0  0  0  0  0  0  0  0  0
  143.9954  135.1944  157.3422 H   0  0  0  0  0  0  0  0  0  0  0  0
  143.9921  133.4505  157.5177 H   0  0  0  0  0  0  0  0  0  0  0  0
  145.6668  133.2141  155.6905 H   0  0  0  0  0  0  0  0  0  0  0  0
  146.2695  134.3188  156.9041 H   0  0  0  0  0  0  0  0  0  0  0  0
  152.5163  139.3984  154.8529 H   0  0  0  0  0  0  0  0  0  0  0  0
  152.6321  137.9775  153.8238 H   0  0  0  0  0  0  0  0  0  0  0  0
  152.6806  137.8325  155.5810 H   0  0  0  0  0  0  0  0  0  0  0  0
  147.8768  141.0156  154.8712 H   0  0  0  0  0  0  0  0  0  0  0  0
  146.6170  139.9216  154.3335 H   0  0  0  0  0  0  0  0  0  0  0  0
  147.7968  140.5221  153.1759 H   0  0  0  0  0  0  0  0  0  0  0  0
  143.0767  133.2351  155.3767 H   0  0  0  0  0  0  0  0  0  0  0  0
  1  2  1  0  0  0  0
  1 24  1  0  0  0  0
  1 25  1  0  0  0  0
  1 26  1  0  0  0  0
  2  3  1  0  0  0  0
  3  4  1  0  0  0  0
  3 27  1  0  0  0  0
  3 28  1  0  0  0  0
  4  5  1  0  0  0  0
  4 29  1  0  0  0  0
  4 30  1  0  0  0  0
  5 15  1  0  0  0  0
  5  6  1  0  0  0  0
  6  7  1  0  0  0  0
  6 13  2  0  0  0  0
  7 12  1  0  0  0  0
  7  8  1  0  0  0  0
  8  9  1  0  0  0  0
  8 31  1  0  0  0  0
  8 32  1  0  0  0  0
  9 10  1  0  0  0  0
  9 33  1  0  0  0  0
  9 34  1  0  0  0  0
 10 11  1  0  0  0  0
 10 35  1  0  0  0  0
 10 46  1  0  0  0  0
 11 12  1  0  0  0  0
 11 36  1  0  0  0  0
 11 37  1  0  0  0  0
 12 38  1  0  0  0  0
 12 39  1  0  0  0  0
 13 14  1  0  0  0  0
 14 22  1  0  0  0  0
 14 15  2  0  0  0  0
 15 16  1  0  0  0  0
 16 17  2  0  0  0  0
 16 18  1  0  0  0  0
 18 19  1  0  0  0  0
 18 20  1  0  0  0  0
 19 40  1  0  0  0  0
 19 41  1  0  0  0  0
 19 42  1  0  0  0  0
 20 21  2  0  0  0  0
 20 22  1  0  0  0  0
 22 23  1  0  0  0  0
 23 43  1  0  0  0  0
 23 44  1  0  0  0  0
 23 45  1  0  0  0  0
M  CHG  1  10   1
M  END
> <s_m_source_file>
AV-unprocessed.smi

> <i_m_source_file_index>
509

> <i_lp_mmshare_version>
43012

> <i_f3d_flags>
0

> <s_epik_input>
W0NIM11uMWMoPU8pbihbQ0gzXSljKD1PKWMoYzEyKW4oW0NIMl1bQ0gyXU9bQ0gzXSljKG4yKU4zW0NIMl1bQ0gyXVtOSF1bQ0gyXVtDSDJdMw==

> <s_epik_cmdline>
J2VwaWtfcHl0aG9uJywgJy1waCcsICc3LjAnLCAnLXRuJywgJzgnLCAnLW1hJywgJzIwMCcsICctbWV0YWxfYmluZGluZycsICctaW1hZScsICc8aW5maWxlLm1hZT4nLCAnLW9tYWUnLCAnPG91dGZpbGUubWFlPic=

> <r_epik_Ionization_Penalty>
0.00857468

> <r_epik_Ionization_Penalty_Charging>
0.00857162

> <r_epik_Ionization_Penalty_Neutral>
3.06002e-06

> <r_epik_State_Penalty>
0.00646614

> <r_epik_Charging_Adjusted_Penalty>
0.0150378

> <i_epik_Tot_Q>
1

> <i_epik_Tot_abs_Q>
1

> <r_epik_Metal_State_Penalty>
0.00646904

> <b_epik_Metal_Only>
0

> <s_lp_Force_Field>
OPLS_2005

> <r_lp_Energy>
52.9694

> <b_lp_Chiralities_Consistent>
1

> <s_lp_Variant>
AV-unprocessed.smi:509-1

> <Gold.Version>
5.8.1

> <Gold.Id.Protein>
6NUR|6NUR_protein|mol2

> <Gold.PLP.Fitness>
40.3041

> <Gold.PLP.PLP>
-26.7205

> <Gold.PLP.part.hbond>
-3.7309

> <Gold.PLP.part.metal>
0.0000

> <Gold.PLP.part.buried>
-5.0762

> <Gold.PLP.part.nonpolar>
-19.3533

> <Gold.PLP.part.repulsive>
0.3608

> <Gold.PLP.ligand.clash>
0.0000

> <Gold.PLP.ligand.torsion>
0.8719

> <Gold.PLP.Chemscore.Hbond>
4.9913

> <Gold.PLP.Chemscore.CHOScore>
0.0000

> <Gold.PLP.Chemscore.Metal>
0.0000

> <Gold.Chemscore.Hbonds>
donor molecule, donor type, donor heavy atom, donor atom, acceptor molecule, acceptor atom, score
      L1  H    10    35       P1 11000  1.00
      L1  H    10    46       P1 10957  2.00
      P1  H  7989  7998       L1    21  0.97
      P1  H 10752 10765       L1    17  1.00

> <Gold.PLP.Chemscore.Internal.Correction>
0.3535

> <Gold.Rescore>
     Score         DG    S(hbond)    S(metal)    S(lipo)     H(rot)  DE(clash)    DE(int)     intcor
     18.02     -19.03       3.90        0.00      37.63       1.51       0.00       1.02       ----

> <Gold.Chemscore.Fitness>
18.0183

> <Gold.Chemscore.DG>
-19.0344

> <Gold.Chemscore.ZeroCoef>
-5.4800

> <Gold.Chemscore.Hbond>
3.8962

> <Gold.Chemscore.Metal>
0.0000

> <Gold.Chemscore.Lipo>
37.6332

> <Gold.Chemscore.Internal_Hbond>
0.0000

> <Gold.Chemscore.DEClash>
0.0000

> <Gold.Chemscore.DEInternal>
1.0162

> <Gold.Chemscore.Rot>
1.5086

> <Gold.Chemscore.Internal.Correction>
   9.000000E+99

> <Gold.Chemscore.Hbonds>
donor molecule, donor type, donor heavy atom, donor atom, acceptor molecule, acceptor atom, score
      L1  H    10    35       P1 11000  0.65
      L1  H    10    46       P1 10957  0.99
      P1  H  7989  7998       L1    21  0.86
      P1  H 10752 10765       L1    17  0.96

> <Gold.Chemscore.Hbond.Weighted>
-13.0134

> <Gold.Chemscore.Metal.Weighted>
-0.0000

> <Gold.Chemscore.Lipo.Weighted>
-4.4031

> <Gold.Chemscore.Internal_Hbond.Weighted>
0.0000

> <Gold.Chemscore.DEClash.Weighted>
0.0000

> <Gold.Chemscore.DEInternal.Weighted>
1.0162

> <Gold.Chemscore.Rot.Weighted>
3.8620

> <Gold.Chemscore.Internal.Correction.Weighted>
   9.000000E+99

> <Gold.Protein.RotatedTorsions>
[ 6907 6896 6895 6894 ] final  122.34 input  -60.11 | X-H torsion
[ 7974 7965 7964 7962 ] final  -79.66 input  175.53 | X-H torsion
[ 8008 7997 7996 7995 ] final   91.45 input   59.86 | X-H torsion
[ 10167 10162 10161 10158 ] final  -21.21 input  -65.29 | X-H torsion
[ 10718 10713 10712 10709 ] final  158.19 input   66.30 | X-H torsion
[ 10763 10752 10751 10750 ] final -176.42 input  -60.55 | X-H torsion
[ 11005 11000 10999 10996 ] final  106.54 input  -57.11 | X-H torsion

> <Gold.Protein.ActiveResidues>
 VAL166  LYS551  ARG553  GLY616  TRP617  ASP618  TYR619  PRO620  LYS621  CYS622 
 ASP623  PHE694  ASN695  SER759  ASP760  ASP761  ALA762  ILE779  LEU786  VAL792 
 PHE793  MET794  SER795  GLU796  ALA797  LYS798  CYS799  TRP800  GLU811  SER814 

> <Gold.Protein.RotatedAtoms>
  152.4251  133.7181  159.6517 H   0  0  0  0  0  0  0  0  0  0  0  0  # atno 6907 bound_to 6896
  150.8127  133.8381  159.3180 H   0  0  0  0  0  0  0  0  0  0  0  0  # atno 6908 bound_to 6896
  151.6087  135.1044  160.0128 H   0  0  0  0  0  0  0  0  0  0  0  0  # atno 6909 bound_to 6896
  145.5703  140.9467  143.1399 H   0  0  0  0  0  0  0  0  0  0  0  0  # atno 7974 bound_to 7965
  156.0239  140.3337  155.7068 H   0  0  0  0  0  0  0  0  0  0  0  0  # atno 8008 bound_to 7997
  155.5982  140.0653  157.2758 H   0  0  0  0  0  0  0  0  0  0  0  0  # atno 8009 bound_to 7997
  154.4327  140.1815  156.1133 H   0  0  0  0  0  0  0  0  0  0  0  0  # atno 8010 bound_to 7997
  140.7281  143.4649  151.0328 H   0  0  0  0  0  0  0  0  0  0  0  0  # atno 10167 bound_to 10162
  157.1813  131.0633  151.2130 H   0  0  0  0  0  0  0  0  0  0  0  0  # atno 10718 bound_to 10713
  154.5726  135.2829  155.0812 H   0  0  0  0  0  0  0  0  0  0  0  0  # atno 10763 bound_to 10752
  154.2179  135.6396  153.5139 H   0  0  0  0  0  0  0  0  0  0  0  0  # atno 10764 bound_to 10752
  153.0062  135.5507  154.6354 H   0  0  0  0  0  0  0  0  0  0  0  0  # atno 10765 bound_to 10752
  139.8815  134.9372  156.5682 H   0  0  0  0  0  0  0  0  0  0  0  0  # atno 11005 bound_to 11000
  144.7441  139.7368  143.7299 LP  0  0  0  0  0  0  0  0  0  0  0  0  # atno 17320 bound_to 7965
  146.1789  139.4972  142.9879 LP  0  0  0  0  0  0  0  0  0  0  0  0  # atno 17321 bound_to 7965
  139.8336  143.7657  152.3180 LP  0  0  0  0  0  0  0  0  0  0  0  0  # atno 17342 bound_to 10162
  139.7782  144.7454  151.0126 LP  0  0  0  0  0  0  0  0  0  0  0  0  # atno 17343 bound_to 10162
  157.3950  130.7302  149.6725 LP  0  0  0  0  0  0  0  0  0  0  0  0  # atno 17370 bound_to 10713
  155.9724  130.4136  150.4091 LP  0  0  0  0  0  0  0  0  0  0  0  0  # atno 17371 bound_to 10713
  140.8118  133.8423  155.8817 LP  0  0  0  0  0  0  0  0  0  0  0  0  # atno 17394 bound_to 11000
  140.9499  134.1792  157.4735 LP  0  0  0  0  0  0  0  0  0  0  0  0  # atno 17395 bound_to 11000

$$$$
