AV-unprocessed.smi:338|AV-procd|sdf|2377|dock1
  -GOLD-   2262022303D 1   1.00000     0.00000
 Structure written by MMmdl.
 42 44  0  0  0  0  0  0  0  0  2 V2000
  147.7101  131.3047  160.7872 C   0  0  0  0  0  0  0  0  0  0  0  0
  147.8594  132.6003  159.9915 C   0  0  0  0  0  0  0  0  0  0  0  0
  148.0256  132.5288  158.7742 O   0  0  0  0  0  0  0  0  0  0  0  0
  147.7919  133.8885  160.7397 C   0  0  0  0  0  0  0  0  0  0  0  0
  147.4017  133.9379  162.0982 C   0  0  0  0  0  0  0  0  0  0  0  0
  147.3498  135.1684  162.7779 C   0  0  0  0  0  0  0  0  0  0  0  0
  147.6861  136.3592  162.1095 C   0  0  0  0  0  0  0  0  0  0  0  0
  148.0782  136.3375  160.7568 C   0  0  0  0  0  0  0  0  0  0  0  0
  148.3905  137.5497  160.1796 O   0  0  0  0  0  0  0  0  0  0  0  0
  148.9403  137.5521  158.8686 C   0  0  0  0  0  0  0  0  0  0  0  0
  150.3521  138.1523  158.9268 C   0  0  1  0  0  0  0  0  0  0  0  0
  151.2624  137.1378  159.3030 O   0  0  0  0  0  0  0  0  0  0  0  0
  150.7873  138.7648  157.5804 C   0  0  0  0  0  0  0  0  0  0  0  0
  150.5761  140.2165  157.5224 N   0  0  0  0  0  0  0  0  0  0  0  0
  149.7308  140.9486  156.7474 C   0  0  0  0  0  0  0  0  0  0  0  0
  149.9141  142.2603  157.0660 N   0  3  0  0  0  0  0  0  0  0  0  0
  150.8909  142.3671  158.0589 C   0  0  0  0  0  0  0  0  0  0  0  0
  151.4200  143.4814  158.7029 C   0  0  0  0  0  0  0  0  0  0  0  0
  152.4124  143.2383  159.6754 C   0  0  0  0  0  0  0  0  0  0  0  0
  152.8430  141.9292  159.9755 C   0  0  0  0  0  0  0  0  0  0  0  0
  152.2996  140.8066  159.3165 C   0  0  0  0  0  0  0  0  0  0  0  0
  151.3195  141.0565  158.3570 C   0  0  0  0  0  0  0  0  0  0  0  0
  148.1293  135.0932  160.0788 C   0  0  0  0  0  0  0  0  0  0  0  0
  148.5149  131.2089  161.5163 H   0  0  0  0  0  0  0  0  0  0  0  0
  147.7489  130.4417  160.1219 H   0  0  0  0  0  0  0  0  0  0  0  0
  146.7550  131.2862  161.3123 H   0  0  0  0  0  0  0  0  0  0  0  0
  147.1381  133.0429  162.6415 H   0  0  0  0  0  0  0  0  0  0  0  0
  147.0512  135.1989  163.8155 H   0  0  0  0  0  0  0  0  0  0  0  0
  147.6422  137.2990  162.6401 H   0  0  0  0  0  0  0  0  0  0  0  0
  148.9933  136.5271  158.4975 H   0  0  0  0  0  0  0  0  0  0  0  0
  148.3146  138.1295  158.1856 H   0  0  0  0  0  0  0  0  0  0  0  0
  150.3770  138.9163  159.7045 H   0  0  0  0  0  0  0  0  0  0  0  0
  152.1407  137.4487  159.1431 H   0  0  0  0  0  0  0  0  0  0  0  0
  151.8478  138.5799  157.4042 H   0  0  0  0  0  0  0  0  0  0  0  0
  150.2508  138.3074  156.7480 H   0  0  0  0  0  0  0  0  0  0  0  0
  149.0428  140.5594  156.0107 H   0  0  0  0  0  0  0  0  0  0  0  0
  151.0928  144.4852  158.4749 H   0  0  0  0  0  0  0  0  0  0  0  0
  152.8528  144.0730  160.2014 H   0  0  0  0  0  0  0  0  0  0  0  0
  153.6059  141.7826  160.7263 H   0  0  0  0  0  0  0  0  0  0  0  0
  152.6353  139.8072  159.5512 H   0  0  0  0  0  0  0  0  0  0  0  0
  148.4279  135.0487  159.0425 H   0  0  0  0  0  0  0  0  0  0  0  0
  149.4093  143.0240  156.6348 H   0  0  0  0  0  0  0  0  0  0  0  0
  1  2  1  0  0  0  0
  1 24  1  0  0  0  0
  1 25  1  0  0  0  0
  1 26  1  0  0  0  0
  2  3  2  0  0  0  0
  2  4  1  0  0  0  0
  4 23  1  0  0  0  0
  4  5  2  0  0  0  0
  5  6  1  0  0  0  0
  5 27  1  0  0  0  0
  6  7  2  0  0  0  0
  6 28  1  0  0  0  0
  7  8  1  0  0  0  0
  7 29  1  0  0  0  0
  8  9  1  0  0  0  0
  8 23  2  0  0  0  0
  9 10  1  0  0  0  0
 10 11  1  0  0  0  0
 10 30  1  0  0  0  0
 10 31  1  0  0  0  0
 11 12  1  0  0  0  0
 11 13  1  0  0  0  0
 11 32  1  0  0  0  0
 12 33  1  0  0  0  0
 13 14  1  0  0  0  0
 13 34  1  0  0  0  0
 13 35  1  0  0  0  0
 14 22  1  0  0  0  0
 14 15  1  0  0  0  0
 15 16  2  0  0  0  0
 15 36  1  0  0  0  0
 16 17  1  0  0  0  0
 16 42  1  0  0  0  0
 17 22  2  0  0  0  0
 17 18  1  0  0  0  0
 18 19  2  0  0  0  0
 18 37  1  0  0  0  0
 19 20  1  0  0  0  0
 19 38  1  0  0  0  0
 20 21  2  0  0  0  0
 20 39  1  0  0  0  0
 21 22  1  0  0  0  0
 21 40  1  0  0  0  0
 23 41  1  0  0  0  0
M  CHG  1  16   1
M  END
> <s_m_source_file>
AV-unprocessed.smi

> <i_m_source_file_index>
338

> <i_lp_mmshare_version>
43012

> <i_f3d_flags>
0

> <s_epik_input>
W0NIM11DKD1PKWMxW2NIXVtjSF1bY0hdYyhbY0hdMSlPW0NIMl1bQ0BIXShbT0hdKVtDSDJdbihbY0hdbjIpYyhjMjMpW2NIXVtjSF1bY0hdW2NIXTM=

> <s_epik_cmdline>
J2VwaWtfcHl0aG9uJywgJy1waCcsICc3LjAnLCAnLXRuJywgJzgnLCAnLW1hJywgJzIwMCcsICctbWV0YWxfYmluZGluZycsICctaW1hZScsICc8aW5maWxlLm1hZT4nLCAnLW9tYWUnLCAnPG91dGZpbGUubWFlPic=

> <r_lp_tautomer_probability>
0.99995

> <r_epik_Ionization_Penalty>
1.35015

> <r_epik_Ionization_Penalty_Charging>
1.35015

> <r_epik_Ionization_Penalty_Neutral>
2.3993e-06

> <r_epik_State_Penalty>
1.42814

> <r_epik_Charging_Adjusted_Penalty>
2.77829

> <i_epik_Tot_Q>
1

> <i_epik_Tot_abs_Q>
1

> <r_epik_Metal_State_Penalty>
5.46522

> <b_epik_Metal_Only>
0

> <s_lp_Force_Field>
OPLS_2005

> <r_lp_Energy>
25.8652

> <b_lp_Chiralities_Consistent>
1

> <s_lp_Variant>
AV-unprocessed.smi:338-4

> <Gold.Version>
5.8.1

> <Gold.Id.Protein>
6NUR|6NUR_protein|mol2

> <Gold.PLP.Fitness>
54.3118

> <Gold.PLP.PLP>
-45.8615

> <Gold.PLP.part.hbond>
-3.9504

> <Gold.PLP.part.metal>
0.0000

> <Gold.PLP.part.buried>
-4.6053

> <Gold.PLP.part.nonpolar>
-38.2313

> <Gold.PLP.part.repulsive>
0.0190

> <Gold.PLP.ligand.clash>
0.0000

> <Gold.PLP.ligand.torsion>
1.2849

> <Gold.PLP.Chemscore.Hbond>
3.6233

> <Gold.PLP.Chemscore.CHOScore>
0.0000

> <Gold.PLP.Chemscore.Metal>
0.0000

> <Gold.Chemscore.Hbonds>
donor molecule, donor type, donor heavy atom, donor atom, acceptor molecule, acceptor atom, score
      L1  H    16    42       P1  8028  2.00
      P1  H  6896  6908       L1    12  0.88
      P1  H  6931  6943       L1     9  0.28
      P1  H  6934  6947       L1     9  0.46

> <Gold.PLP.Chemscore.Internal.Correction>
0.1502

> <Gold.Rescore>
     Score         DG    S(hbond)    S(metal)    S(lipo)     H(rot)  DE(clash)    DE(int)     intcor
     18.08     -19.37       1.99        0.00     116.37       2.48       0.04       1.25       ----

> <Gold.Chemscore.Fitness>
18.0790

> <Gold.Chemscore.DG>
-19.3693

> <Gold.Chemscore.ZeroCoef>
-5.4800

> <Gold.Chemscore.Hbond>
1.9860

> <Gold.Chemscore.Metal>
0.0000

> <Gold.Chemscore.Lipo>
116.3715

> <Gold.Chemscore.Internal_Hbond>
0.0000

> <Gold.Chemscore.DEClash>
0.0431

> <Gold.Chemscore.DEInternal>
1.2472

> <Gold.Chemscore.Rot>
2.4842

> <Gold.Chemscore.Internal.Correction>
   9.000000E+99

> <Gold.Chemscore.Hbonds>
donor molecule, donor type, donor heavy atom, donor atom, acceptor molecule, acceptor atom, score
      L1  H    16    42       P1  8028  0.93
      P1  H  6896  6908       L1    12  0.60
      P1  H  6931  6943       L1     9  0.02
      P1  H  6934  6947       L1     9  0.34

> <Gold.Chemscore.Hbond.Weighted>
-6.6333

> <Gold.Chemscore.Metal.Weighted>
-0.0000

> <Gold.Chemscore.Lipo.Weighted>
-13.6155

> <Gold.Chemscore.Internal_Hbond.Weighted>
0.0000

> <Gold.Chemscore.DEClash.Weighted>
0.0431

> <Gold.Chemscore.DEInternal.Weighted>
1.2472

> <Gold.Chemscore.Rot.Weighted>
6.3594

> <Gold.Chemscore.Internal.Correction.Weighted>
   9.000000E+99

> <Gold.Protein.RotatedTorsions>
[ 6907 6896 6895 6894 ] final -133.70 input  -60.11 | X-H torsion
[ 7974 7965 7964 7962 ] final -136.96 input  175.53 | X-H torsion
[ 8008 7997 7996 7995 ] final   10.42 input   59.86 | X-H torsion
[ 10167 10162 10161 10158 ] final  110.29 input  -65.29 | X-H torsion
[ 10718 10713 10712 10709 ] final -129.14 input   66.30 | X-H torsion
[ 10763 10752 10751 10750 ] final  168.55 input  -60.55 | X-H torsion
[ 11005 11000 10999 10996 ] final  -87.13 input  -57.11 | X-H torsion

> <Gold.Protein.ActiveResidues>
 VAL166  LYS551  ARG553  GLY616  TRP617  ASP618  TYR619  PRO620  LYS621  CYS622 
 ASP623  PHE694  ASN695  SER759  ASP760  ASP761  ALA762  ILE779  LEU786  VAL792 
 PHE793  MET794  SER795  GLU796  ALA797  LYS798  CYS799  TRP800  GLU811  SER814 

> <Gold.Protein.RotatedAtoms>
  150.9772  133.6283  159.2728 H   0  0  0  0  0  0  0  0  0  0  0  0  # atno 6907 bound_to 6896
  151.3551  135.0891  159.9425 H   0  0  0  0  0  0  0  0  0  0  0  0  # atno 6908 bound_to 6896
  152.5203  133.9356  159.7656 H   0  0  0  0  0  0  0  0  0  0  0  0  # atno 6909 bound_to 6896
  144.8883  140.6605  143.5162 H   0  0  0  0  0  0  0  0  0  0  0  0  # atno 7974 bound_to 7965
  154.7931  140.2839  155.5977 H   0  0  0  0  0  0  0  0  0  0  0  0  # atno 8008 bound_to 7997
  156.2967  140.2601  156.2712 H   0  0  0  0  0  0  0  0  0  0  0  0  # atno 8009 bound_to 7997
  154.9646  140.0377  157.2196 H   0  0  0  0  0  0  0  0  0  0  0  0  # atno 8010 bound_to 7997
  139.6699  144.7126  151.1706 H   0  0  0  0  0  0  0  0  0  0  0  0  # atno 10167 bound_to 10162
  156.2018  130.6862  151.0547 H   0  0  0  0  0  0  0  0  0  0  0  0  # atno 10718 bound_to 10713
  154.3701  135.2753  155.2271 H   0  0  0  0  0  0  0  0  0  0  0  0  # atno 10763 bound_to 10752
  154.4422  135.5951  153.6140 H   0  0  0  0  0  0  0  0  0  0  0  0  # atno 10764 bound_to 10752
  152.9839  135.6021  154.3932 H   0  0  0  0  0  0  0  0  0  0  0  0  # atno 10765 bound_to 10752
  141.1621  133.7493  156.9261 H   0  0  0  0  0  0  0  0  0  0  0  0  # atno 11005 bound_to 11000
  145.3829  139.1633  143.4270 LP  0  0  0  0  0  0  0  0  0  0  0  0  # atno 17320 bound_to 7965
  146.3038  140.3912  142.8694 LP  0  0  0  0  0  0  0  0  0  0  0  0  # atno 17321 bound_to 7965
  140.7614  143.5860  150.8845 LP  0  0  0  0  0  0  0  0  0  0  0  0  # atno 17342 bound_to 10162
  139.9524  143.6256  152.3025 LP  0  0  0  0  0  0  0  0  0  0  0  0  # atno 17343 bound_to 10162
  157.6990  131.0783  150.6881 LP  0  0  0  0  0  0  0  0  0  0  0  0  # atno 17370 bound_to 10713
  156.6938  130.4603  149.5592 LP  0  0  0  0  0  0  0  0  0  0  0  0  # atno 17371 bound_to 10713
  140.1418  134.9288  157.2477 LP  0  0  0  0  0  0  0  0  0  0  0  0  # atno 17394 bound_to 11000
  140.2828  134.3330  155.7338 LP  0  0  0  0  0  0  0  0  0  0  0  0  # atno 17395 bound_to 11000

$$$$
