AV-unprocessed.smi:2007|AV-procd|sdf|8140|dock4
  -GOLD-   2272010373D 1   1.00000     0.00000
 Structure written by MMmdl.
 36 37  0  0  0  0  0  0  0  0  3 V2000
  150.6382  137.3899  155.1453 C   0  0  0  0  0  0  0  0  0  0  0  0
  149.6282  136.4577  155.8275 C   0  0  1  0  0  0  0  0  0  0  0  0
  149.8015  134.9940  155.3608 C   0  0  0  0  0  0  0  0  0  0  0  0
  148.7862  134.5924  154.3549 N   0  3  0  0  0  0  0  0  0  0  0  0
  148.8923  133.1762  153.9318 C   0  0  0  0  0  0  0  0  0  0  0  0
  147.8884  132.8932  152.8023 C   0  0  0  0  0  0  0  0  0  0  0  0
  146.5724  133.1991  153.2497 O   0  0  0  0  0  0  0  0  0  0  0  0
  146.4330  134.5712  153.6021 C   0  0  0  0  0  0  0  0  0  0  0  0
  147.3965  134.9127  154.7517 C   0  0  0  0  0  0  0  0  0  0  0  0
  149.7798  136.5580  157.2808 N   0  0  0  0  0  0  0  0  0  0  0  0
  148.9154  136.1181  158.2082 C   0  0  0  0  0  0  0  0  0  0  0  0
  147.8326  135.6380  157.8659 O   0  0  0  0  0  0  0  0  0  0  0  0
  149.3740  136.2310  159.4736 N   0  5  0  0  0  0  0  0  0  0  0  0
  148.5555  135.9703  160.5059 C   0  0  0  0  0  0  0  0  0  0  0  0
  148.3116  136.8524  161.4824 N   0  0  0  0  0  0  0  0  0  0  0  0
  147.4306  136.3743  162.4542 C   0  0  0  0  0  0  0  0  0  0  0  0
  146.9896  135.1012  162.2083 C   0  0  0  0  0  0  0  0  0  0  0  0
  147.6708  134.4609  160.7401 S   0  0  0  0  0  0  0  0  0  0  0  0
  150.5313  137.3563  154.0608 H   0  0  0  0  0  0  0  0  0  0  0  0
  151.6645  137.1115  155.3877 H   0  0  0  0  0  0  0  0  0  0  0  0
  150.4911  138.4241  155.4585 H   0  0  0  0  0  0  0  0  0  0  0  0
  148.6348  136.8048  155.5404 H   0  0  0  0  0  0  0  0  0  0  0  0
  150.8052  134.8246  154.9678 H   0  0  0  0  0  0  0  0  0  0  0  0
  149.7048  134.3486  156.2353 H   0  0  0  0  0  0  0  0  0  0  0  0
  149.9025  132.9576  153.5865 H   0  0  0  0  0  0  0  0  0  0  0  0
  148.6967  132.5211  154.7819 H   0  0  0  0  0  0  0  0  0  0  0  0
  148.1296  133.4769  151.9120 H   0  0  0  0  0  0  0  0  0  0  0  0
  147.9299  131.8423  152.5157 H   0  0  0  0  0  0  0  0  0  0  0  0
  146.6263  135.2025  152.7329 H   0  0  0  0  0  0  0  0  0  0  0  0
  145.4029  134.7559  153.9068 H   0  0  0  0  0  0  0  0  0  0  0  0
  147.1312  134.3530  155.6499 H   0  0  0  0  0  0  0  0  0  0  0  0
  147.3140  135.9729  154.9940 H   0  0  0  0  0  0  0  0  0  0  0  0
  150.6449  136.9556  157.6176 H   0  0  0  0  0  0  0  0  0  0  0  0
  147.1709  137.0100  163.2877 H   0  0  0  0  0  0  0  0  0  0  0  0
  146.3089  134.5040  162.7961 H   0  0  0  0  0  0  0  0  0  0  0  0
  148.9768  135.1546  153.5362 H   0  0  0  0  0  0  0  0  0  0  0  0
  1  2  1  0  0  0  0
  1 19  1  0  0  0  0
  1 20  1  0  0  0  0
  1 21  1  0  0  0  0
  2  3  1  0  0  0  0
  2 10  1  0  0  0  0
  2 22  1  0  0  0  0
  3  4  1  0  0  0  0
  3 23  1  0  0  0  0
  3 24  1  0  0  0  0
  4  9  1  0  0  0  0
  4  5  1  0  0  0  0
  4 36  1  0  0  0  0
  5  6  1  0  0  0  0
  5 25  1  0  0  0  0
  5 26  1  0  0  0  0
  6  7  1  0  0  0  0
  6 27  1  0  0  0  0
  6 28  1  0  0  0  0
  7  8  1  0  0  0  0
  8  9  1  0  0  0  0
  8 29  1  0  0  0  0
  8 30  1  0  0  0  0
  9 31  1  0  0  0  0
  9 32  1  0  0  0  0
 10 11  1  0  0  0  0
 10 33  1  0  0  0  0
 11 12  2  0  0  0  0
 11 13  1  0  0  0  0
 13 14  1  0  0  0  0
 14 18  1  0  0  0  0
 14 15  2  0  0  0  0
 15 16  1  0  0  0  0
 16 17  2  0  0  0  0
 16 34  1  0  0  0  0
 17 18  1  0  0  0  0
 17 35  1  0  0  0  0
M  CHG  1   4   1
M  CHG  1  13  -1
M  END
> <s_m_source_file>
AV-unprocessed.smi

> <i_m_source_file_index>
2007

> <i_lp_mmshare_version>
43012

> <i_f3d_flags>
0

> <s_epik_input>
W0NIMl0xW0NIMl1PW0NIMl1bQ0gyXU4xW0NIMl1bQ0BASF0oW0NIM10pW05IXUMoPU8pW05IXWMybltjSF1bY0hdczI=

> <s_epik_cmdline>
J2VwaWtfcHl0aG9uJywgJy1waCcsICc3LjAnLCAnLXRuJywgJzgnLCAnLW1hJywgJzIwMCcsICctbWV0YWxfYmluZGluZycsICctaW1hZScsICc8aW5maWxlLm1hZT4nLCAnLW9tYWUnLCAnPG91dGZpbGUubWFlPic=

> <r_lp_tautomer_probability>
0.999

> <r_epik_Ionization_Penalty>
6.49226

> <r_epik_Ionization_Penalty_Charging>
5.74393

> <r_epik_Ionization_Penalty_Neutral>
0.748321

> <r_epik_State_Penalty>
5.94164

> <r_epik_Charging_Adjusted_Penalty>
11.6856

> <i_epik_Tot_Q>
0

> <i_epik_Tot_abs_Q>
2

> <r_epik_Metal_State_Penalty>
1.97606

> <b_epik_Metal_Only>
1

> <s_lp_Force_Field>
OPLS_2005

> <r_lp_Energy>
10.1675

> <b_lp_Chiralities_Consistent>
1

> <s_lp_Variant>
AV-unprocessed.smi:2007-8

> <Gold.Version>
5.8.1

> <Gold.Id.Protein>
6NUR|6NUR_protein|mol2

> <Gold.PLP.Fitness>
40.8055

> <Gold.PLP.PLP>
-28.3386

> <Gold.PLP.part.hbond>
-3.4204

> <Gold.PLP.part.metal>
0.0000

> <Gold.PLP.part.buried>
-4.3613

> <Gold.PLP.part.nonpolar>
-21.3529

> <Gold.PLP.part.repulsive>
0.1702

> <Gold.PLP.ligand.clash>
0.0000

> <Gold.PLP.ligand.torsion>
1.3103

> <Gold.PLP.Chemscore.Hbond>
5.0000

> <Gold.PLP.Chemscore.CHOScore>
0.0000

> <Gold.PLP.Chemscore.Metal>
0.0000

> <Gold.Chemscore.Hbonds>
donor molecule, donor type, donor heavy atom, donor atom, acceptor molecule, acceptor atom, score
      L1  H     4    36       P1  7948  2.00
      P1  H  6896  6909       L1    13  1.89
      P1  H  6931  6943       L1    15  1.00

> <Gold.PLP.Chemscore.Internal.Correction>
0.0876

> <Gold.Rescore>
     Score         DG    S(hbond)    S(metal)    S(lipo)     H(rot)  DE(clash)    DE(int)     intcor
     14.76     -16.16       2.65        0.00      50.68       1.60       0.00       1.40       ----

> <Gold.Chemscore.Fitness>
14.7552

> <Gold.Chemscore.DG>
-16.1562

> <Gold.Chemscore.ZeroCoef>
-5.4800

> <Gold.Chemscore.Hbond>
2.6467

> <Gold.Chemscore.Metal>
0.0000

> <Gold.Chemscore.Lipo>
50.6834

> <Gold.Chemscore.Internal_Hbond>
0.0000

> <Gold.Chemscore.DEClash>
0.0038

> <Gold.Chemscore.DEInternal>
1.3972

> <Gold.Chemscore.Rot>
1.5991

> <Gold.Chemscore.Internal.Correction>
   9.000000E+99

> <Gold.Chemscore.Hbonds>
donor molecule, donor type, donor heavy atom, donor atom, acceptor molecule, acceptor atom, score
      L1  H     4    36       P1  7948  0.49
      P1  H  6896  6909       L1    13  0.33
      P1  H  6931  6943       L1    15  0.85

> <Gold.Chemscore.Hbond.Weighted>
-8.8399

> <Gold.Chemscore.Metal.Weighted>
-0.0000

> <Gold.Chemscore.Lipo.Weighted>
-5.9300

> <Gold.Chemscore.Internal_Hbond.Weighted>
0.0000

> <Gold.Chemscore.DEClash.Weighted>
0.0038

> <Gold.Chemscore.DEInternal.Weighted>
1.3972

> <Gold.Chemscore.Rot.Weighted>
4.0936

> <Gold.Chemscore.Internal.Correction.Weighted>
   9.000000E+99

> <Gold.Protein.RotatedTorsions>
[ 6907 6896 6895 6894 ] final   84.84 input  -60.11 | X-H torsion
[ 7974 7965 7964 7962 ] final -112.04 input  175.53 | X-H torsion
[ 8008 7997 7996 7995 ] final   56.70 input   59.86 | X-H torsion
[ 10167 10162 10161 10158 ] final  -54.03 input  -65.29 | X-H torsion
[ 10718 10713 10712 10709 ] final   48.51 input   66.30 | X-H torsion
[ 10763 10752 10751 10750 ] final  -82.61 input  -60.55 | X-H torsion
[ 11005 11000 10999 10996 ] final -116.73 input  -57.11 | X-H torsion

> <Gold.Protein.ActiveResidues>
 VAL166  LYS551  ARG553  GLY616  TRP617  ASP618  TYR619  PRO620  LYS621  CYS622 
 ASP623  PHE694  ASN695  SER759  ASP760  ASP761  ALA762  ILE779  LEU786  VAL792 
 PHE793  MET794  SER795  GLU796  ALA797  LYS798  CYS799  TRP800  GLU811  SER814 

> <Gold.Protein.RotatedAtoms>
  152.5361  134.2678  159.8959 H   0  0  0  0  0  0  0  0  0  0  0  0  # atno 6907 bound_to 6896
  151.2636  133.4283  159.2625 H   0  0  0  0  0  0  0  0  0  0  0  0  # atno 6908 bound_to 6896
  151.0431  134.9635  159.8228 H   0  0  0  0  0  0  0  0  0  0  0  0  # atno 6909 bound_to 6896
  145.1488  140.8818  143.3658 H   0  0  0  0  0  0  0  0  0  0  0  0  # atno 7974 bound_to 7965
  155.5217  140.3480  155.4408 H   0  0  0  0  0  0  0  0  0  0  0  0  # atno 8008 bound_to 7997
  156.0780  140.1379  156.9775 H   0  0  0  0  0  0  0  0  0  0  0  0  # atno 8009 bound_to 7997
  154.4564  140.0952  156.6744 H   0  0  0  0  0  0  0  0  0  0  0  0  # atno 8010 bound_to 7997
  140.6453  143.2531  151.4878 H   0  0  0  0  0  0  0  0  0  0  0  0  # atno 10167 bound_to 10162
  157.4694  130.8246  149.7971 H   0  0  0  0  0  0  0  0  0  0  0  0  # atno 10718 bound_to 10713
  154.5778  135.5585  153.7156 H   0  0  0  0  0  0  0  0  0  0  0  0  # atno 10763 bound_to 10752
  153.0071  135.6312  154.2025 H   0  0  0  0  0  0  0  0  0  0  0  0  # atno 10764 bound_to 10752
  154.1965  135.2880  155.2985 H   0  0  0  0  0  0  0  0  0  0  0  0  # atno 10765 bound_to 10752
  141.0402  133.9847  157.3006 H   0  0  0  0  0  0  0  0  0  0  0  0  # atno 11005 bound_to 11000
  145.0453  139.3226  143.5956 LP  0  0  0  0  0  0  0  0  0  0  0  0  # atno 17320 bound_to 7965
  146.3497  139.9841  142.8692 LP  0  0  0  0  0  0  0  0  0  0  0  0  # atno 17321 bound_to 7965
  139.5663  144.2035  152.1770 LP  0  0  0  0  0  0  0  0  0  0  0  0  # atno 17342 bound_to 10162
  140.1317  144.5282  150.6798 LP  0  0  0  0  0  0  0  0  0  0  0  0  # atno 17343 bound_to 10162
  156.0066  130.3853  150.2410 LP  0  0  0  0  0  0  0  0  0  0  0  0  # atno 17370 bound_to 10713
  157.0591  131.0085  151.3228 LP  0  0  0  0  0  0  0  0  0  0  0  0  # atno 17371 bound_to 10713
  139.9270  135.0201  156.8269 LP  0  0  0  0  0  0  0  0  0  0  0  0  # atno 17394 bound_to 11000
  140.6248  133.9960  155.7635 LP  0  0  0  0  0  0  0  0  0  0  0  0  # atno 17395 bound_to 11000

$$$$
