AV-unprocessed.smi:196|AV-procd|sdf|1538|dock8
  -GOLD-   2262019393D 1   1.00000     0.00000
 Structure written by MMmdl.
 47 50  0  0  0  0  0  0  0  0  1 V2000
  154.6387  138.8135  162.7921 C   0  0  0  0  0  0  0  0  0  0  0  0
  153.8645  137.4916  162.9210 C   0  0  2  0  0  0  0  0  0  0  0  0
  153.8263  137.0624  164.2743 O   0  0  0  0  0  0  0  0  0  0  0  0
  153.4565  135.6957  164.2635 C   0  0  0  0  0  0  0  0  0  0  0  0
  154.3140  135.1264  163.1395 C   0  0  0  0  0  0  0  0  0  0  0  0
  154.4066  136.2727  162.1274 C   0  0  2  0  0  0  0  0  0  0  0  0
  155.7700  136.4387  161.7732 O   0  0  0  0  0  0  0  0  0  0  0  0
  153.6034  135.9762  160.8370 C   0  0  0  0  0  0  0  0  0  0  0  0
  153.3969  137.1482  159.9994 N   0  0  0  0  0  0  0  0  0  0  0  0
  154.3378  138.0945  159.6577 C   0  0  0  0  0  0  0  0  0  0  0  0
  153.9055  139.0628  158.8971 N   0  0  0  0  0  0  0  0  0  0  0  0
  152.5677  138.7540  158.6898 C   0  0  0  0  0  0  0  0  0  0  0  0
  151.5174  139.3728  157.9624 C   0  0  0  0  0  0  0  0  0  0  0  0
  151.7203  140.5364  157.2897 N   0  0  0  0  0  0  0  0  0  0  0  0
  150.8806  141.6079  157.8147 C   0  0  0  0  0  0  0  0  0  0  0  0
  149.6963  141.7501  156.8447 C   0  0  2  0  0  0  0  0  0  0  0  0
  148.5712  141.2824  157.3862 F   0  0  0  0  0  0  0  0  0  0  0  0
  150.0805  140.9206  155.6131 C   0  0  0  0  0  0  0  0  0  0  0  0
  151.5720  140.6160  155.8295 C   0  0  2  0  0  0  0  0  0  0  0  0
  152.1440  139.4513  154.9927 C   0  0  0  0  0  0  0  0  0  0  0  0
  151.2730  138.7274  154.2851 N   0  0  0  0  0  0  0  0  0  0  0  0
  153.3531  139.2305  154.9438 O   0  0  0  0  0  0  0  0  0  0  0  0
  150.2938  138.7794  157.9949 N   0  0  0  0  0  0  0  0  0  0  0  0
  150.1170  137.6431  158.6750 C   0  0  0  0  0  0  0  0  0  0  0  0
  151.0073  136.9496  159.3874 N   0  0  0  0  0  0  0  0  0  0  0  0
  152.2314  137.5511  159.3707 C   0  0  0  0  0  0  0  0  0  0  0  0
  149.5212  142.7964  156.5926 H   0  0  0  0  0  0  0  0  0  0  0  0
  152.1424  141.4951  155.5236 H   0  0  0  0  0  0  0  0  0  0  0  0
  154.6777  139.1470  161.7548 H   0  0  0  0  0  0  0  0  0  0  0  0
  155.6617  138.7176  163.1566 H   0  0  0  0  0  0  0  0  0  0  0  0
  154.1568  139.5996  163.3734 H   0  0  0  0  0  0  0  0  0  0  0  0
  152.8267  137.6721  162.6396 H   0  0  0  0  0  0  0  0  0  0  0  0
  153.6473  135.2175  165.2245 H   0  0  0  0  0  0  0  0  0  0  0  0
  152.3938  135.6013  164.0337 H   0  0  0  0  0  0  0  0  0  0  0  0
  155.2975  134.8780  163.5425 H   0  0  0  0  0  0  0  0  0  0  0  0
  153.8936  134.2101  162.7236 H   0  0  0  0  0  0  0  0  0  0  0  0
  156.1393  135.5876  161.5946 H   0  0  0  0  0  0  0  0  0  0  0  0
  154.1090  135.2155  160.2402 H   0  0  0  0  0  0  0  0  0  0  0  0
  152.6272  135.5615  161.0916 H   0  0  0  0  0  0  0  0  0  0  0  0
  155.3616  138.0482  159.9991 H   0  0  0  0  0  0  0  0  0  0  0  0
  150.5470  141.4389  158.8410 H   0  0  0  0  0  0  0  0  0  0  0  0
  151.4715  142.5246  157.8245 H   0  0  0  0  0  0  0  0  0  0  0  0
  149.4943  140.0014  155.5717 H   0  0  0  0  0  0  0  0  0  0  0  0
  149.9017  141.4652  154.6854 H   0  0  0  0  0  0  0  0  0  0  0  0
  151.5990  137.9582  153.7182 H   0  0  0  0  0  0  0  0  0  0  0  0
  150.2903  138.9566  154.3167 H   0  0  0  0  0  0  0  0  0  0  0  0
  149.1187  137.2321  158.6454 H   0  0  0  0  0  0  0  0  0  0  0  0
  1  2  1  0  0  0  0
  1 29  1  0  0  0  0
  1 30  1  0  0  0  0
  1 31  1  0  0  0  0
  2  6  1  0  0  0  0
  2  3  1  0  0  0  0
  2 32  1  0  0  0  0
  3  4  1  0  0  0  0
  4  5  1  0  0  0  0
  4 33  1  0  0  0  0
  4 34  1  0  0  0  0
  5  6  1  0  0  0  0
  5 35  1  0  0  0  0
  5 36  1  0  0  0  0
  6  7  1  0  0  0  0
  6  8  1  0  0  0  0
  7 37  1  0  0  0  0
  8  9  1  0  0  0  0
  8 38  1  0  0  0  0
  8 39  1  0  0  0  0
  9 26  1  0  0  0  0
  9 10  1  0  0  0  0
 10 11  2  0  0  0  0
 10 40  1  0  0  0  0
 11 12  1  0  0  0  0
 12 26  2  0  0  0  0
 12 13  1  0  0  0  0
 13 14  1  0  0  0  0
 13 23  2  0  0  0  0
 14 19  1  0  0  0  0
 14 15  1  0  0  0  0
 15 16  1  0  0  0  0
 15 41  1  0  0  0  0
 15 42  1  0  0  0  0
 16 27  1  0  0  0  0
 16 17  1  0  0  0  0
 16 18  1  0  0  0  0
 18 19  1  0  0  0  0
 18 43  1  0  0  0  0
 18 44  1  0  0  0  0
 19 28  1  0  0  0  0
 19 20  1  0  0  0  0
 20 21  1  0  0  0  0
 20 22  2  0  0  0  0
 21 45  1  0  0  0  0
 21 46  1  0  0  0  0
 23 24  1  0  0  0  0
 24 25  2  0  0  0  0
 24 47  1  0  0  0  0
 25 26  1  0  0  0  0
M  END
> <s_m_source_file>
AV-unprocessed.smi

> <i_m_source_file_index>
196

> <i_lp_mmshare_version>
43012

> <i_f3d_flags>
0

> <s_epik_input>
W0NIMl0xW0NIMl1PW0NAQEhdKFtDSDNdKVtDQEBdMShbT0hdKVtDSDJdbihbY0hdbjIpYyhjMjMpbltjSF1uYzNONFtDSDJdW0NASF0oRilbQ0gyXVtDQEhdNEMoPU8pW05IMl0=

> <s_epik_cmdline>
J2VwaWtfcHl0aG9uJywgJy1waCcsICc3LjAnLCAnLXRuJywgJzgnLCAnLW1hJywgJzIwMCcsICctbWV0YWxfYmluZGluZycsICctaW1hZScsICc8aW5maWxlLm1hZT4nLCAnLW9tYWUnLCAnPG91dGZpbGUubWFlPic=

> <r_lp_tautomer_probability>
1

> <r_epik_Ionization_Penalty>
0.000857933

> <r_epik_Ionization_Penalty_Charging>
0

> <r_epik_Ionization_Penalty_Neutral>
0.000857933

> <r_epik_State_Penalty>
0.000462053

> <r_epik_Charging_Adjusted_Penalty>
0.000462053

> <i_epik_Tot_Q>
0

> <i_epik_Tot_abs_Q>
0

> <r_epik_Metal_State_Penalty>
-0

> <b_epik_Metal_Only>
0

> <s_lp_Force_Field>
OPLS_2005

> <r_lp_Energy>
50.5725

> <b_lp_Chiralities_Consistent>
1

> <s_lp_Variant>
AV-unprocessed.smi:196-11

> <Gold.Version>
5.8.1

> <Gold.Id.Protein>
6NUR|6NUR_protein|mol2

> <Gold.PLP.Fitness>
46.3058

> <Gold.PLP.PLP>
-38.0927

> <Gold.PLP.part.hbond>
-3.2293

> <Gold.PLP.part.metal>
0.0000

> <Gold.PLP.part.buried>
-4.5963

> <Gold.PLP.part.nonpolar>
-29.6923

> <Gold.PLP.part.repulsive>
0.1825

> <Gold.PLP.ligand.clash>
0.0000

> <Gold.PLP.ligand.torsion>
0.4286

> <Gold.PLP.Chemscore.Hbond>
3.0000

> <Gold.PLP.Chemscore.CHOScore>
0.0000

> <Gold.PLP.Chemscore.Metal>
0.0000

> <Gold.Chemscore.Hbonds>
donor molecule, donor type, donor heavy atom, donor atom, acceptor molecule, acceptor atom, score
      P1  H  6896  6907       L1    25  1.00
      P1  H  7997  8008       L1    22  1.00
      P1  H  7997  8010       L1    11  0.55

> <Gold.PLP.Chemscore.Internal.Correction>
0.0703

> <Gold.Rescore>
     Score         DG    S(hbond)    S(metal)    S(lipo)     H(rot)  DE(clash)    DE(int)     intcor
     15.01     -15.45       2.89        0.00      69.30       3.04       0.03       0.42       ----

> <Gold.Chemscore.Fitness>
15.0051

> <Gold.Chemscore.DG>
-15.4491

> <Gold.Chemscore.ZeroCoef>
-5.4800

> <Gold.Chemscore.Hbond>
2.8882

> <Gold.Chemscore.Metal>
0.0000

> <Gold.Chemscore.Lipo>
69.3010

> <Gold.Chemscore.Internal_Hbond>
0.0000

> <Gold.Chemscore.DEClash>
0.0289

> <Gold.Chemscore.DEInternal>
0.4150

> <Gold.Chemscore.Rot>
3.0413

> <Gold.Chemscore.Internal.Correction>
   9.000000E+99

> <Gold.Chemscore.Hbonds>
donor molecule, donor type, donor heavy atom, donor atom, acceptor molecule, acceptor atom, score
      P1  H  6896  6907       L1    25  0.70
      P1  H  7997  8008       L1    22  0.99
      P1  H  7997  8010       L1    11  0.52

> <Gold.Chemscore.Hbond.Weighted>
-9.6465

> <Gold.Chemscore.Metal.Weighted>
-0.0000

> <Gold.Chemscore.Lipo.Weighted>
-8.1082

> <Gold.Chemscore.Internal_Hbond.Weighted>
0.0000

> <Gold.Chemscore.DEClash.Weighted>
0.0289

> <Gold.Chemscore.DEInternal.Weighted>
0.4150

> <Gold.Chemscore.Rot.Weighted>
7.7856

> <Gold.Chemscore.Internal.Correction.Weighted>
   9.000000E+99

> <Gold.Protein.RotatedTorsions>
[ 6907 6896 6895 6894 ] final  -21.65 input  -60.11 | X-H torsion
[ 7974 7965 7964 7962 ] final  103.47 input  175.53 | X-H torsion
[ 8008 7997 7996 7995 ] final   -4.10 input   59.86 | X-H torsion
[ 10167 10162 10161 10158 ] final  120.90 input  -65.29 | X-H torsion
[ 10718 10713 10712 10709 ] final  167.39 input   66.30 | X-H torsion
[ 10763 10752 10751 10750 ] final  109.08 input  -60.55 | X-H torsion
[ 11005 11000 10999 10996 ] final  -30.68 input  -57.11 | X-H torsion

> <Gold.Protein.ActiveResidues>
 VAL166  LYS551  ARG553  GLY616  TRP617  ASP618  TYR619  PRO620  LYS621  CYS622 
 ASP623  PHE694  ASN695  SER759  ASP760  ASP761  ALA762  ILE779  LEU786  VAL792 
 PHE793  MET794  SER795  GLU796  ALA797  LYS798  CYS799  TRP800  GLU811  SER814 

> <Gold.Protein.RotatedAtoms>
  151.2302  135.0551  159.8984 H   0  0  0  0  0  0  0  0  0  0  0  0  # atno 6907 bound_to 6896
  152.5406  134.0545  159.8135 H   0  0  0  0  0  0  0  0  0  0  0  0  # atno 6908 bound_to 6896
  151.0724  133.5407  159.2658 H   0  0  0  0  0  0  0  0  0  0  0  0  # atno 6909 bound_to 6896
  145.3454  139.2452  143.3587 H   0  0  0  0  0  0  0  0  0  0  0  0  # atno 7974 bound_to 7965
  154.6179  140.2492  155.7586 H   0  0  0  0  0  0  0  0  0  0  0  0  # atno 8008 bound_to 7997
  156.2409  140.2933  156.0392 H   0  0  0  0  0  0  0  0  0  0  0  0  # atno 8009 bound_to 7997
  155.1945  140.0392  157.2897 H   0  0  0  0  0  0  0  0  0  0  0  0  # atno 8010 bound_to 7997
  139.5953  144.7039  151.3192 H   0  0  0  0  0  0  0  0  0  0  0  0  # atno 10167 bound_to 10162
  157.0522  131.0316  151.2677 H   0  0  0  0  0  0  0  0  0  0  0  0  # atno 10718 bound_to 10713
  153.4297  135.3791  155.2163 H   0  0  0  0  0  0  0  0  0  0  0  0  # atno 10763 bound_to 10752
  154.8749  135.3837  154.4282 H   0  0  0  0  0  0  0  0  0  0  0  0  # atno 10764 bound_to 10752
  153.4813  135.7088  153.5999 H   0  0  0  0  0  0  0  0  0  0  0  0  # atno 10765 bound_to 10752
  140.9403  133.7283  156.1066 H   0  0  0  0  0  0  0  0  0  0  0  0  # atno 11005 bound_to 11000
  146.2990  140.4060  142.8711 LP  0  0  0  0  0  0  0  0  0  0  0  0  # atno 17320 bound_to 7965
  144.8758  140.7334  143.6018 LP  0  0  0  0  0  0  0  0  0  0  0  0  # atno 17321 bound_to 7965
  140.7206  143.7145  150.7743 LP  0  0  0  0  0  0  0  0  0  0  0  0  # atno 17342 bound_to 10162
  140.0710  143.5061  152.2580 LP  0  0  0  0  0  0  0  0  0  0  0  0  # atno 17343 bound_to 10162
  157.5021  130.7886  149.7616 LP  0  0  0  0  0  0  0  0  0  0  0  0  # atno 17370 bound_to 10713
  156.0004  130.3883  150.2628 LP  0  0  0  0  0  0  0  0  0  0  0  0  # atno 17371 bound_to 10713
  140.7743  134.3798  157.5501 LP  0  0  0  0  0  0  0  0  0  0  0  0  # atno 17394 bound_to 11000
  139.8819  134.9041  156.2871 LP  0  0  0  0  0  0  0  0  0  0  0  0  # atno 17395 bound_to 11000

$$$$
