AV-unprocessed.smi:1952|AV-procd|sdf|7886|dock10
  -GOLD-   2272010 43D 1   1.00000     0.00000
 Structure written by MMmdl.
 40 41  0  0  0  0  0  0  0  0  2 V2000
  151.9585  141.6553  157.5354 C   0  0  0  0  0  0  0  0  0  0  0  0
  151.6056  140.7404  156.4130 C   0  0  0  0  0  0  0  0  0  0  0  0
  150.4332  140.4726  155.7636 C   0  0  0  0  0  0  0  0  0  0  0  0
  150.8148  139.4975  154.8041 C   0  0  0  0  0  0  0  0  0  0  0  0
  149.8649  138.9461  153.9064 N   0  0  0  0  0  0  0  0  0  0  0  0
  148.5767  139.2997  153.7625 C   0  0  0  0  0  0  0  0  0  0  0  0
  148.0131  140.1966  154.3903 O   0  0  0  0  0  0  0  0  0  0  0  0
  147.9604  138.5410  152.8433 N   0  0  0  0  0  0  0  0  0  0  0  0
  146.5705  138.6787  152.4046 C   0  0  1  0  0  0  0  0  0  0  0  0
  146.5340  138.6883  150.8702 C   0  0  0  0  0  0  0  0  0  0  0  0
  145.6775  137.5527  152.9768 C   0  0  0  0  0  0  0  0  0  0  0  0
  146.1193  136.1928  152.5757 N   0  3  0  0  0  0  0  0  0  0  0  0
  146.2018  135.2391  153.7086 C   0  0  0  0  0  0  0  0  0  0  0  0
  146.7425  133.8844  153.2227 C   0  0  0  0  0  0  0  0  0  0  0  0
  145.9035  133.3821  152.1894 O   0  0  0  0  0  0  0  0  0  0  0  0
  145.8716  134.2477  151.0611 C   0  0  0  0  0  0  0  0  0  0  0  0
  145.3100  135.6189  151.4754 C   0  0  0  0  0  0  0  0  0  0  0  0
  152.1043  139.2013  154.8582 N   0  0  0  0  0  0  0  0  0  0  0  0
  152.6173  139.9951  155.8908 O   0  0  0  0  0  0  0  0  0  0  0  0
  151.1507  142.3603  157.7326 H   0  0  0  0  0  0  0  0  0  0  0  0
  152.8562  142.2280  157.3018 H   0  0  0  0  0  0  0  0  0  0  0  0
  152.1451  141.0903  158.4489 H   0  0  0  0  0  0  0  0  0  0  0  0
  149.4612  140.9046  155.9504 H   0  0  0  0  0  0  0  0  0  0  0  0
  150.2036  138.2030  153.3131 H   0  0  0  0  0  0  0  0  0  0  0  0
  148.5062  137.8274  152.3821 H   0  0  0  0  0  0  0  0  0  0  0  0
  146.1888  139.6463  152.7338 H   0  0  0  0  0  0  0  0  0  0  0  0
  145.5175  138.8320  150.5027 H   0  0  0  0  0  0  0  0  0  0  0  0
  146.9073  137.7508  150.4564 H   0  0  0  0  0  0  0  0  0  0  0  0
  147.1448  139.4969  150.4669 H   0  0  0  0  0  0  0  0  0  0  0  0
  145.6316  137.6122  154.0652 H   0  0  0  0  0  0  0  0  0  0  0  0
  144.6583  137.7167  152.6229 H   0  0  0  0  0  0  0  0  0  0  0  0
  146.8537  135.6292  154.4895 H   0  0  0  0  0  0  0  0  0  0  0  0
  145.2138  135.1087  154.1532 H   0  0  0  0  0  0  0  0  0  0  0  0
  147.7684  133.9799  152.8632 H   0  0  0  0  0  0  0  0  0  0  0  0
  146.7582  133.1687  154.0450 H   0  0  0  0  0  0  0  0  0  0  0  0
  146.8723  134.3487  150.6377 H   0  0  0  0  0  0  0  0  0  0  0  0
  145.2432  133.8005  150.2906 H   0  0  0  0  0  0  0  0  0  0  0  0
  144.2719  135.5197  151.7969 H   0  0  0  0  0  0  0  0  0  0  0  0
  145.3189  136.2915  150.6170 H   0  0  0  0  0  0  0  0  0  0  0  0
  147.0566  136.2944  152.2120 H   0  0  0  0  0  0  0  0  0  0  0  0
  1  2  1  0  0  0  0
  1 20  1  0  0  0  0
  1 21  1  0  0  0  0
  1 22  1  0  0  0  0
  2 19  1  0  0  0  0
  2  3  2  0  0  0  0
  3  4  1  0  0  0  0
  3 23  1  0  0  0  0
  4  5  1  0  0  0  0
  4 18  2  0  0  0  0
  5  6  1  0  0  0  0
  5 24  1  0  0  0  0
  6  7  2  0  0  0  0
  6  8  1  0  0  0  0
  8  9  1  0  0  0  0
  8 25  1  0  0  0  0
  9 10  1  0  0  0  0
  9 11  1  0  0  0  0
  9 26  1  0  0  0  0
 10 27  1  0  0  0  0
 10 28  1  0  0  0  0
 10 29  1  0  0  0  0
 11 12  1  0  0  0  0
 11 30  1  0  0  0  0
 11 31  1  0  0  0  0
 12 17  1  0  0  0  0
 12 13  1  0  0  0  0
 12 40  1  0  0  0  0
 13 14  1  0  0  0  0
 13 32  1  0  0  0  0
 13 33  1  0  0  0  0
 14 15  1  0  0  0  0
 14 34  1  0  0  0  0
 14 35  1  0  0  0  0
 15 16  1  0  0  0  0
 16 17  1  0  0  0  0
 16 36  1  0  0  0  0
 16 37  1  0  0  0  0
 17 38  1  0  0  0  0
 17 39  1  0  0  0  0
 18 19  1  0  0  0  0
M  CHG  1  12   1
M  END
> <s_m_source_file>
AV-unprocessed.smi

> <i_m_source_file_index>
1952

> <i_lp_mmshare_version>
43012

> <i_f3d_flags>
0

> <s_epik_input>
W0NIM11jMVtjSF1jKG5vMSlbTkhdQyg9TylbTkhdW0NASF0oW0NIM10pW0NIMl1OMltDSDJdW0NIMl1PW0NIMl1bQ0gyXTI=

> <s_epik_cmdline>
J2VwaWtfcHl0aG9uJywgJy1waCcsICc3LjAnLCAnLXRuJywgJzgnLCAnLW1hJywgJzIwMCcsICctbWV0YWxfYmluZGluZycsICctaW1hZScsICc8aW5maWxlLm1hZT4nLCAnLW9tYWUnLCAnPG91dGZpbGUubWFlPic=

> <r_epik_Ionization_Penalty>
0.707079

> <r_epik_Ionization_Penalty_Charging>
0.707039

> <r_epik_Ionization_Penalty_Neutral>
4.01892e-05

> <r_epik_State_Penalty>
0.730276

> <r_epik_Charging_Adjusted_Penalty>
1.43732

> <i_epik_Tot_Q>
1

> <i_epik_Tot_abs_Q>
1

> <r_epik_Metal_State_Penalty>
0.744847

> <b_epik_Metal_Only>
0

> <s_lp_Force_Field>
OPLS_2005

> <r_lp_Energy>
19.2195

> <b_lp_Chiralities_Consistent>
1

> <s_lp_Variant>
AV-unprocessed.smi:1952-4

> <Gold.Version>
5.8.1

> <Gold.Id.Protein>
6NUR|6NUR_protein|mol2

> <Gold.PLP.Fitness>
40.2182

> <Gold.PLP.PLP>
-29.7657

> <Gold.PLP.part.hbond>
-5.6404

> <Gold.PLP.part.metal>
0.0000

> <Gold.PLP.part.buried>
1.9531

> <Gold.PLP.part.nonpolar>
-25.3052

> <Gold.PLP.part.repulsive>
0.4050

> <Gold.PLP.ligand.clash>
0.0000

> <Gold.PLP.ligand.torsion>
0.7837

> <Gold.PLP.Chemscore.Hbond>
4.0000

> <Gold.PLP.Chemscore.CHOScore>
0.0000

> <Gold.PLP.Chemscore.Metal>
0.0000

> <Gold.Chemscore.Hbonds>
donor molecule, donor type, donor heavy atom, donor atom, acceptor molecule, acceptor atom, score
      L1  H     8    25       P1  7948  1.00
      L1  H    12    40       P1  7948  2.00
      P1  H  7997  8008       L1    19  1.00

> <Gold.PLP.Chemscore.Internal.Correction>
0.0198

> <Gold.Rescore>
     Score         DG    S(hbond)    S(metal)    S(lipo)     H(rot)  DE(clash)    DE(int)     intcor
     15.28     -18.45       2.91        0.00      63.05       1.61       1.24       1.93       ----

> <Gold.Chemscore.Fitness>
15.2765

> <Gold.Chemscore.DG>
-18.4485

> <Gold.Chemscore.ZeroCoef>
-5.4800

> <Gold.Chemscore.Hbond>
2.9064

> <Gold.Chemscore.Metal>
0.0000

> <Gold.Chemscore.Lipo>
63.0508

> <Gold.Chemscore.Internal_Hbond>
0.0000

> <Gold.Chemscore.DEClash>
1.2403

> <Gold.Chemscore.DEInternal>
1.9316

> <Gold.Chemscore.Rot>
1.6078

> <Gold.Chemscore.Internal.Correction>
   9.000000E+99

> <Gold.Chemscore.Hbonds>
donor molecule, donor type, donor heavy atom, donor atom, acceptor molecule, acceptor atom, score
      L1  H     8    25       P1  7948  0.99
      L1  H    12    40       P1  7948  1.00
      P1  H  7997  8008       L1    19  0.99

> <Gold.Chemscore.Hbond.Weighted>
-9.7074

> <Gold.Chemscore.Metal.Weighted>
-0.0000

> <Gold.Chemscore.Lipo.Weighted>
-7.3769

> <Gold.Chemscore.Internal_Hbond.Weighted>
0.0000

> <Gold.Chemscore.DEClash.Weighted>
1.2403

> <Gold.Chemscore.DEInternal.Weighted>
1.9316

> <Gold.Chemscore.Rot.Weighted>
4.1158

> <Gold.Chemscore.Internal.Correction.Weighted>
   9.000000E+99

> <Gold.Protein.RotatedTorsions>
[ 6907 6896 6895 6894 ] final  161.58 input  -60.11 | X-H torsion
[ 7974 7965 7964 7962 ] final   80.30 input  175.53 | X-H torsion
[ 8008 7997 7996 7995 ] final  -41.25 input   59.86 | X-H torsion
[ 10167 10162 10161 10158 ] final  -70.54 input  -65.29 | X-H torsion
[ 10718 10713 10712 10709 ] final  102.86 input   66.30 | X-H torsion
[ 10763 10752 10751 10750 ] final  -97.93 input  -60.55 | X-H torsion
[ 11005 11000 10999 10996 ] final -171.60 input  -57.11 | X-H torsion

> <Gold.Protein.ActiveResidues>
 VAL166  LYS551  ARG553  GLY616  TRP617  ASP618  TYR619  PRO620  LYS621  CYS622 
 ASP623  PHE694  ASN695  SER759  ASP760  ASP761  ALA762  ILE779  LEU786  VAL792 
 PHE793  MET794  SER795  GLU796  ALA797  LYS798  CYS799  TRP800  GLU811  SER814 

> <Gold.Protein.RotatedAtoms>
  151.9535  133.3673  159.4008 H   0  0  0  0  0  0  0  0  0  0  0  0  # atno 6907 bound_to 6896
  150.6976  134.4315  159.5260 H   0  0  0  0  0  0  0  0  0  0  0  0  # atno 6908 bound_to 6896
  152.1992  134.8603  160.0560 H   0  0  0  0  0  0  0  0  0  0  0  0  # atno 6909 bound_to 6896
  145.6530  139.2452  143.1966 H   0  0  0  0  0  0  0  0  0  0  0  0  # atno 7974 bound_to 7965
  154.4005  140.1504  156.3161 H   0  0  0  0  0  0  0  0  0  0  0  0  # atno 8008 bound_to 7997
  155.8572  140.3455  155.5710 H   0  0  0  0  0  0  0  0  0  0  0  0  # atno 8009 bound_to 7997
  155.7920  140.0858  157.1994 H   0  0  0  0  0  0  0  0  0  0  0  0  # atno 8010 bound_to 7997
  140.5344  143.2319  151.7203 H   0  0  0  0  0  0  0  0  0  0  0  0  # atno 10167 bound_to 10162
  157.6790  131.0764  150.5468 H   0  0  0  0  0  0  0  0  0  0  0  0  # atno 10718 bound_to 10713
  154.7371  135.5028  153.9060 H   0  0  0  0  0  0  0  0  0  0  0  0  # atno 10763 bound_to 10752
  153.1006  135.6684  153.9688 H   0  0  0  0  0  0  0  0  0  0  0  0  # atno 10764 bound_to 10752
  153.9475  135.3061  155.3419 H   0  0  0  0  0  0  0  0  0  0  0  0  # atno 10765 bound_to 10752
  140.5064  134.5844  157.5005 H   0  0  0  0  0  0  0  0  0  0  0  0  # atno 11005 bound_to 11000
  146.1188  140.7335  142.9467 LP  0  0  0  0  0  0  0  0  0  0  0  0  # atno 17320 bound_to 7965
  144.7116  140.4058  143.7076 LP  0  0  0  0  0  0  0  0  0  0  0  0  # atno 17321 bound_to 7965
  139.4966  144.4065  152.0126 LP  0  0  0  0  0  0  0  0  0  0  0  0  # atno 17342 bound_to 10162
  140.3169  144.3473  150.6019 LP  0  0  0  0  0  0  0  0  0  0  0  0  # atno 17343 bound_to 10162
  156.5773  130.4295  149.5992 LP  0  0  0  0  0  0  0  0  0  0  0  0  # atno 17370 bound_to 10713
  156.2690  130.7006  151.1798 LP  0  0  0  0  0  0  0  0  0  0  0  0  # atno 17371 bound_to 10713
  139.9684  134.7335  156.0092 LP  0  0  0  0  0  0  0  0  0  0  0  0  # atno 17394 bound_to 11000
  141.1408  133.6565  156.3725 LP  0  0  0  0  0  0  0  0  0  0  0  0  # atno 17395 bound_to 11000

$$$$
