AV-unprocessed.smi:2525|AV-procd|sdf|9932|dock7
  -GOLD-   2272013573D 1   1.00000     0.00000
 Structure written by MMmdl.
 44 45  0  0  0  0  0  0  0  0  1 V2000
  152.6448  144.8361  158.1874 C   0  0  0  0  0  0  0  0  0  0  0  0
  152.7559  143.3035  158.2952 C   0  0  0  0  0  0  0  0  0  0  0  0
  152.2333  142.6514  159.6071 C   0  0  0  0  0  0  0  0  0  0  0  0
  150.7312  142.9700  159.7702 C   0  0  0  0  0  0  0  0  0  0  0  0
  150.4203  144.4243  160.1603 C   0  0  0  0  0  0  0  0  0  0  0  0
  152.6289  141.1753  159.8923 C   0  0  1  0  0  0  0  0  0  0  0  0
  152.9199  140.3654  158.7159 N   0  0  0  0  0  0  0  0  0  0  0  0
  151.9934  139.8220  157.9124 C   0  0  0  0  0  0  0  0  0  0  0  0
  150.7827  139.9768  158.0696 O   0  0  0  0  0  0  0  0  0  0  0  0
  152.5121  138.9840  156.7425 C   0  0  0  0  0  0  0  0  0  0  0  0
  151.5979  139.0282  155.6142 N   0  0  0  0  0  0  0  0  0  0  0  0
  151.1605  137.9878  154.8204 C   0  0  0  0  0  0  0  0  0  0  0  0
  150.3374  138.6001  153.9190 C   0  0  0  0  0  0  0  0  0  0  0  0
  150.3071  139.9654  154.1972 N   0  0  0  0  0  0  0  0  0  0  0  0
  151.0671  140.2104  155.2180 N   0  0  0  0  0  0  0  0  0  0  0  0
  153.9033  141.6648  160.5863 C   0  0  2  0  0  0  0  0  0  0  0  0
  154.4909  140.8568  161.7369 C   0  0  0  0  0  0  0  0  0  0  0  0
  153.1242  142.9677  160.8433 C   0  0  2  0  0  0  0  0  0  0  0  0
  152.3876  142.9289  162.0614 O   0  0  0  0  0  0  0  0  0  0  0  0
  153.1848  143.1952  163.2026 C   0  0  0  0  0  0  0  0  0  0  0  0
  152.9172  145.1649  157.1844 H   0  0  0  0  0  0  0  0  0  0  0  0
  153.3182  145.3422  158.8783 H   0  0  0  0  0  0  0  0  0  0  0  0
  151.6355  145.1932  158.3817 H   0  0  0  0  0  0  0  0  0  0  0  0
  152.2342  142.8823  157.4363 H   0  0  0  0  0  0  0  0  0  0  0  0
  153.7985  143.0271  158.1365 H   0  0  0  0  0  0  0  0  0  0  0  0
  150.1784  142.7068  158.8693 H   0  0  0  0  0  0  0  0  0  0  0  0
  150.3011  142.3254  160.5373 H   0  0  0  0  0  0  0  0  0  0  0  0
  149.3510  144.5550  160.3274 H   0  0  0  0  0  0  0  0  0  0  0  0
  150.7138  145.1263  159.3805 H   0  0  0  0  0  0  0  0  0  0  0  0
  150.9331  144.7090  161.0791 H   0  0  0  0  0  0  0  0  0  0  0  0
  151.9564  140.6935  160.6066 H   0  0  0  0  0  0  0  0  0  0  0  0
  153.8926  140.1899  158.5094 H   0  0  0  0  0  0  0  0  0  0  0  0
  153.4854  139.3545  156.4183 H   0  0  0  0  0  0  0  0  0  0  0  0
  152.6522  137.9500  157.0627 H   0  0  0  0  0  0  0  0  0  0  0  0
  151.4622  136.9598  154.9582 H   0  0  0  0  0  0  0  0  0  0  0  0
  149.7718  138.1778  153.1015 H   0  0  0  0  0  0  0  0  0  0  0  0
  154.6797  141.8631  159.8451 H   0  0  0  0  0  0  0  0  0  0  0  0
  153.7433  140.6411  162.5006 H   0  0  0  0  0  0  0  0  0  0  0  0
  155.3122  141.3901  162.2156 H   0  0  0  0  0  0  0  0  0  0  0  0
  154.8810  139.9018  161.3840 H   0  0  0  0  0  0  0  0  0  0  0  0
  153.7153  143.8774  160.7219 H   0  0  0  0  0  0  0  0  0  0  0  0
  152.5747  143.1116  164.1018 H   0  0  0  0  0  0  0  0  0  0  0  0
  153.5912  144.2065  163.1657 H   0  0  0  0  0  0  0  0  0  0  0  0
  154.0119  142.4906  163.2898 H   0  0  0  0  0  0  0  0  0  0  0  0
  1  2  1  0  0  0  0
  1 21  1  0  0  0  0
  1 22  1  0  0  0  0
  1 23  1  0  0  0  0
  2  3  1  0  0  0  0
  2 24  1  0  0  0  0
  2 25  1  0  0  0  0
  3 18  1  0  0  0  0
  3  4  1  0  0  0  0
  3  6  1  0  0  0  0
  4  5  1  0  0  0  0
  4 26  1  0  0  0  0
  4 27  1  0  0  0  0
  5 28  1  0  0  0  0
  5 29  1  0  0  0  0
  5 30  1  0  0  0  0
  6  7  1  0  0  0  0
  6 16  1  0  0  0  0
  6 31  1  0  0  0  0
  7  8  1  0  0  0  0
  7 32  1  0  0  0  0
  8  9  2  0  0  0  0
  8 10  1  0  0  0  0
 10 11  1  0  0  0  0
 10 33  1  0  0  0  0
 10 34  1  0  0  0  0
 11 15  1  0  0  0  0
 11 12  1  0  0  0  0
 12 13  2  0  0  0  0
 12 35  1  0  0  0  0
 13 14  1  0  0  0  0
 13 36  1  0  0  0  0
 14 15  2  0  0  0  0
 16 17  1  0  0  0  0
 16 18  1  0  0  0  0
 16 37  1  0  0  0  0
 17 38  1  0  0  0  0
 17 39  1  0  0  0  0
 17 40  1  0  0  0  0
 18 19  1  0  0  0  0
 18 41  1  0  0  0  0
 19 20  1  0  0  0  0
 20 42  1  0  0  0  0
 20 43  1  0  0  0  0
 20 44  1  0  0  0  0
M  END
> <s_m_source_file>
AV-unprocessed.smi

> <i_m_source_file_index>
2525

> <i_lp_mmshare_version>
43012

> <i_f3d_flags>
0

> <s_epik_input>
W0NIM11PW0NAQEhdMVtDQEhdKFtDSDNdKVtDQEBIXShDMShbQ0gyXVtDSDNdKVtDSDJdW0NIM10pW05IXUMoPU8pW0NIMl1uMltjSF1bY0hdbm4y

> <s_epik_cmdline>
J2VwaWtfcHl0aG9uJywgJy1waCcsICc3LjAnLCAnLXRuJywgJzgnLCAnLW1hJywgJzIwMCcsICctbWV0YWxfYmluZGluZycsICctaW1hZScsICc8aW5maWxlLm1hZT4nLCAnLW9tYWUnLCAnPG91dGZpbGUubWFlPic=

> <r_lp_tautomer_probability>
1

> <r_epik_Ionization_Penalty>
1.18045e-06

> <r_epik_Ionization_Penalty_Charging>
0

> <r_epik_Ionization_Penalty_Neutral>
1.18045e-06

> <r_epik_State_Penalty>
-0

> <r_epik_Charging_Adjusted_Penalty>
0

> <i_epik_Tot_Q>
0

> <i_epik_Tot_abs_Q>
0

> <r_epik_Metal_State_Penalty>
-0

> <b_epik_Metal_Only>
0

> <s_lp_Force_Field>
OPLS_2005

> <r_lp_Energy>
28.9829

> <b_lp_Chiralities_Consistent>
1

> <s_lp_Variant>
AV-unprocessed.smi:2525-7

> <Gold.Version>
5.8.1

> <Gold.Id.Protein>
6NUR|6NUR_protein|mol2

> <Gold.PLP.Fitness>
44.0907

> <Gold.PLP.PLP>
-40.7059

> <Gold.PLP.part.hbond>
-2.0000

> <Gold.PLP.part.metal>
0.0000

> <Gold.PLP.part.buried>
-2.7134

> <Gold.PLP.part.nonpolar>
-35.3521

> <Gold.PLP.part.repulsive>
0.9304

> <Gold.PLP.ligand.clash>
0.0000

> <Gold.PLP.ligand.torsion>
1.0799

> <Gold.PLP.Chemscore.Hbond>
0.0000

> <Gold.PLP.Chemscore.CHOScore>
1.6189

> <Gold.PLP.Chemscore.Metal>
0.0000

> <Gold.Chemscore.Hbonds>
donor molecule, donor type, donor heavy atom, donor atom, acceptor molecule, acceptor atom, score
      L1  C    13    36       P1  7948  1.00
      L1  C    13    36       P1  7957  0.36

> <Gold.PLP.Chemscore.Internal.Correction>
0.6879

> <Gold.Rescore>
     Score         DG    S(hbond)    S(metal)    S(lipo)     H(rot)  DE(clash)    DE(int)     intcor
     12.00     -15.33       0.00        0.00     127.56       1.98       0.78       2.55       ----

> <Gold.Chemscore.Fitness>
12.0048

> <Gold.Chemscore.DG>
-15.3318

> <Gold.Chemscore.ZeroCoef>
-5.4800

> <Gold.Chemscore.Hbond>
0.0000

> <Gold.Chemscore.Metal>
0.0000

> <Gold.Chemscore.Lipo>
127.5615

> <Gold.Chemscore.Internal_Hbond>
0.0000

> <Gold.Chemscore.DEClash>
0.7769

> <Gold.Chemscore.DEInternal>
2.5501

> <Gold.Chemscore.Rot>
1.9817

> <Gold.Chemscore.Internal.Correction>
   9.000000E+99

> <Gold.Chemscore.Hbond.Weighted>
-0.0002

> <Gold.Chemscore.Metal.Weighted>
-0.0000

> <Gold.Chemscore.Lipo.Weighted>
-14.9247

> <Gold.Chemscore.Internal_Hbond.Weighted>
0.0000

> <Gold.Chemscore.DEClash.Weighted>
0.7769

> <Gold.Chemscore.DEInternal.Weighted>
2.5501

> <Gold.Chemscore.Rot.Weighted>
5.0731

> <Gold.Chemscore.Internal.Correction.Weighted>
   9.000000E+99

> <Gold.Protein.RotatedTorsions>
[ 6907 6896 6895 6894 ] final -120.02 input  -60.11 | X-H torsion
[ 7974 7965 7964 7962 ] final   84.35 input  175.53 | X-H torsion
[ 8008 7997 7996 7995 ] final -121.97 input   59.86 | X-H torsion
[ 10167 10162 10161 10158 ] final   86.77 input  -65.29 | X-H torsion
[ 10718 10713 10712 10709 ] final -134.44 input   66.30 | X-H torsion
[ 10763 10752 10751 10750 ] final -148.78 input  -60.55 | X-H torsion
[ 11005 11000 10999 10996 ] final  -21.44 input  -57.11 | X-H torsion

> <Gold.Protein.ActiveResidues>
 VAL166  LYS551  ARG553  GLY616  TRP617  ASP618  TYR619  PRO620  LYS621  CYS622 
 ASP623  PHE694  ASN695  SER759  ASP760  ASP761  ALA762  ILE779  LEU786  VAL792 
 PHE793  MET794  SER795  GLU796  ALA797  LYS798  CYS799  TRP800  GLU811  SER814 

> <Gold.Protein.RotatedAtoms>
  150.8356  133.8019  159.3080 H   0  0  0  0  0  0  0  0  0  0  0  0  # atno 6907 bound_to 6896
  151.5735  135.1060  160.0010 H   0  0  0  0  0  0  0  0  0  0  0  0  # atno 6908 bound_to 6896
  152.4429  133.7440  159.6713 H   0  0  0  0  0  0  0  0  0  0  0  0  # atno 6909 bound_to 6896
  145.5999  139.2351  143.2252 H   0  0  0  0  0  0  0  0  0  0  0  0  # atno 7974 bound_to 7965
  155.1567  140.0405  157.2833 H   0  0  0  0  0  0  0  0  0  0  0  0  # atno 8008 bound_to 7997
  154.6365  140.2537  155.7345 H   0  0  0  0  0  0  0  0  0  0  0  0  # atno 8009 bound_to 7997
  156.2511  140.2864  156.0740 H   0  0  0  0  0  0  0  0  0  0  0  0  # atno 8010 bound_to 7997
  139.8841  144.6423  150.8810 H   0  0  0  0  0  0  0  0  0  0  0  0  # atno 10167 bound_to 10162
  156.2555  130.7178  151.1093 H   0  0  0  0  0  0  0  0  0  0  0  0  # atno 10718 bound_to 10713
  154.8214  135.3326  154.7027 H   0  0  0  0  0  0  0  0  0  0  0  0  # atno 10763 bound_to 10752
  153.7659  135.6929  153.4920 H   0  0  0  0  0  0  0  0  0  0  0  0  # atno 10764 bound_to 10752
  153.2078  135.4493  155.0292 H   0  0  0  0  0  0  0  0  0  0  0  0  # atno 10765 bound_to 10752
  140.8562  133.7821  156.0022 H   0  0  0  0  0  0  0  0  0  0  0  0  # atno 11005 bound_to 11000
  146.1584  140.6824  142.9289 LP  0  0  0  0  0  0  0  0  0  0  0  0  # atno 17320 bound_to 7965
  144.7314  140.4684  143.6935 LP  0  0  0  0  0  0  0  0  0  0  0  0  # atno 17321 bound_to 7965
  140.7739  143.3562  151.1917 LP  0  0  0  0  0  0  0  0  0  0  0  0  # atno 17342 bound_to 10162
  139.7169  143.9286  152.2970 LP  0  0  0  0  0  0  0  0  0  0  0  0  # atno 17343 bound_to 10162
  157.7231  131.0668  150.6052 LP  0  0  0  0  0  0  0  0  0  0  0  0  # atno 17370 bound_to 10713
  156.6135  130.4386  149.5850 LP  0  0  0  0  0  0  0  0  0  0  0  0  # atno 17371 bound_to 10713
  140.8735  134.2698  157.5179 LP  0  0  0  0  0  0  0  0  0  0  0  0  # atno 17394 bound_to 11000
  139.8705  134.9579  156.4283 LP  0  0  0  0  0  0  0  0  0  0  0  0  # atno 17395 bound_to 11000

$$$$
