AV-unprocessed.smi:1264|AV-procd|sdf|5313|dock6
  -GOLD-   22720 4433D 1   1.00000     0.00000
 Structure written by MMmdl.
 43 43  0  0  0  0  0  0  0  0  1 V2000
  150.6592  137.3762  154.7105 C   0  0  0  0  0  0  0  0  0  0  0  0
  150.1155  138.6126  155.2508 N   0  0  0  0  0  0  0  0  0  0  0  0
  150.7709  139.7819  155.2632 C   0  0  0  0  0  0  0  0  0  0  0  0
  151.9067  139.9201  154.8047 O   0  0  0  0  0  0  0  0  0  0  0  0
  150.0169  140.9789  155.8674 C   0  0  2  0  0  0  0  0  0  0  0  0
  149.2121  141.6516  154.7297 C   0  0  0  0  0  0  0  0  0  0  0  0
  147.7252  141.2377  154.6390 C   0  0  0  0  0  0  0  0  0  0  0  0
  147.5129  139.9856  153.7715 C   0  0  0  0  0  0  0  0  0  0  0  0
  146.8734  142.4035  154.1134 C   0  0  0  0  0  0  0  0  0  0  0  0
  150.9761  141.9449  156.4010 N   0  0  0  0  0  0  0  0  0  0  0  0
  150.9208  142.5006  157.6211 C   0  0  0  0  0  0  0  0  0  0  0  0
  150.0141  142.2863  158.4256 O   0  0  0  0  0  0  0  0  0  0  0  0
  152.0754  143.4273  157.9984 C   0  0  0  0  0  0  0  0  0  0  0  0
  152.3467  143.3094  159.4761 C   0  0  0  0  0  0  0  0  0  0  0  0
  152.1808  144.2988  160.4890 C   0  0  0  0  0  0  0  0  0  0  0  0
  151.6968  145.7144  160.3568 C   0  0  0  0  0  0  0  0  0  0  0  0
  152.5229  143.8443  161.6828 N   0  0  0  0  0  0  0  0  0  0  0  0
  152.9331  142.5222  161.4876 O   0  0  0  0  0  0  0  0  0  0  0  0
  152.8228  142.2295  160.1672 C   0  0  0  0  0  0  0  0  0  0  0  0
  153.2245  140.8552  159.7508 C   0  0  0  0  0  0  0  0  0  0  0  0
  149.9473  136.5635  154.8531 H   0  0  0  0  0  0  0  0  0  0  0  0
  151.5888  137.1073  155.2137 H   0  0  0  0  0  0  0  0  0  0  0  0
  150.8568  137.4742  153.6425 H   0  0  0  0  0  0  0  0  0  0  0  0
  149.1856  138.5778  155.6432 H   0  0  0  0  0  0  0  0  0  0  0  0
  149.3469  140.6278  156.6540 H   0  0  0  0  0  0  0  0  0  0  0  0
  149.2641  142.7355  154.8494 H   0  0  0  0  0  0  0  0  0  0  0  0
  149.6902  141.4374  153.7721 H   0  0  0  0  0  0  0  0  0  0  0  0
  147.3639  141.0109  155.6426 H   0  0  0  0  0  0  0  0  0  0  0  0
  147.8997  140.1313  152.7625 H   0  0  0  0  0  0  0  0  0  0  0  0
  146.4532  139.7425  153.6884 H   0  0  0  0  0  0  0  0  0  0  0  0
  148.0066  139.1123  154.1974 H   0  0  0  0  0  0  0  0  0  0  0  0
  147.1710  142.6884  153.1037 H   0  0  0  0  0  0  0  0  0  0  0  0
  146.9725  143.2827  154.7504 H   0  0  0  0  0  0  0  0  0  0  0  0
  145.8161  142.1379  154.0859 H   0  0  0  0  0  0  0  0  0  0  0  0
  151.7631  142.1738  155.8115 H   0  0  0  0  0  0  0  0  0  0  0  0
  152.9590  143.1801  157.4088 H   0  0  0  0  0  0  0  0  0  0  0  0
  151.8072  144.4479  157.7228 H   0  0  0  0  0  0  0  0  0  0  0  0
  151.2560  145.8969  159.3770 H   0  0  0  0  0  0  0  0  0  0  0  0
  152.5170  146.4208  160.4866 H   0  0  0  0  0  0  0  0  0  0  0  0
  150.9386  145.9434  161.1063 H   0  0  0  0  0  0  0  0  0  0  0  0
  153.6614  140.8640  158.7520 H   0  0  0  0  0  0  0  0  0  0  0  0
  152.3613  140.1897  159.7372 H   0  0  0  0  0  0  0  0  0  0  0  0
  153.9634  140.4392  160.4362 H   0  0  0  0  0  0  0  0  0  0  0  0
  1  2  1  0  0  0  0
  1 21  1  0  0  0  0
  1 22  1  0  0  0  0
  1 23  1  0  0  0  0
  2  3  1  0  0  0  0
  2 24  1  0  0  0  0
  3  4  2  0  0  0  0
  3  5  1  0  0  0  0
  5  6  1  0  0  0  0
  5 10  1  0  0  0  0
  5 25  1  0  0  0  0
  6  7  1  0  0  0  0
  6 26  1  0  0  0  0
  6 27  1  0  0  0  0
  7  8  1  0  0  0  0
  7  9  1  0  0  0  0
  7 28  1  0  0  0  0
  8 29  1  0  0  0  0
  8 30  1  0  0  0  0
  8 31  1  0  0  0  0
  9 32  1  0  0  0  0
  9 33  1  0  0  0  0
  9 34  1  0  0  0  0
 10 11  1  0  0  0  0
 10 35  1  0  0  0  0
 11 12  2  0  0  0  0
 11 13  1  0  0  0  0
 13 14  1  0  0  0  0
 13 36  1  0  0  0  0
 13 37  1  0  0  0  0
 14 19  2  0  0  0  0
 14 15  1  0  0  0  0
 15 16  1  0  0  0  0
 15 17  2  0  0  0  0
 16 38  1  0  0  0  0
 16 39  1  0  0  0  0
 16 40  1  0  0  0  0
 17 18  1  0  0  0  0
 18 19  1  0  0  0  0
 19 20  1  0  0  0  0
 20 41  1  0  0  0  0
 20 42  1  0  0  0  0
 20 43  1  0  0  0  0
M  END
> <s_m_source_file>
AV-unprocessed.smi

> <i_m_source_file_index>
1264

> <i_lp_mmshare_version>
43012

> <i_f3d_flags>
0

> <s_epik_input>
W0NIM11bTkhdQyg9TylbQ0BIXShbQ0gyXVtDSF0oW0NIM10pW0NIM10pW05IXUMoPU8pW0NIMl1jMWMoW0NIM10pbm9jMVtDSDNd

> <s_epik_cmdline>
J2VwaWtfcHl0aG9uJywgJy1waCcsICc3LjAnLCAnLXRuJywgJzgnLCAnLW1hJywgJzIwMCcsICctbWV0YWxfYmluZGluZycsICctaW1hZScsICc8aW5maWxlLm1hZT4nLCAnLW9tYWUnLCAnPG91dGZpbGUubWFlPic=

> <r_lp_tautomer_probability>
1

> <r_epik_Ionization_Penalty>
6.00781e-08

> <r_epik_Ionization_Penalty_Charging>
0

> <r_epik_Ionization_Penalty_Neutral>
6.00781e-08

> <r_epik_State_Penalty>
-0

> <r_epik_Charging_Adjusted_Penalty>
0

> <i_epik_Tot_Q>
0

> <i_epik_Tot_abs_Q>
0

> <r_epik_Metal_State_Penalty>
-0

> <b_epik_Metal_Only>
0

> <s_lp_Force_Field>
OPLS_2005

> <r_lp_Energy>
-0.565017

> <b_lp_Chiralities_Consistent>
1

> <s_lp_Variant>
AV-unprocessed.smi:1264-1

> <Gold.Version>
5.8.1

> <Gold.Id.Protein>
6NUR|6NUR_protein|mol2

> <Gold.PLP.Fitness>
43.0468

> <Gold.PLP.PLP>
-44.4550

> <Gold.PLP.part.hbond>
-0.9455

> <Gold.PLP.part.metal>
0.0000

> <Gold.PLP.part.buried>
-5.6067

> <Gold.PLP.part.nonpolar>
-38.8852

> <Gold.PLP.part.repulsive>
0.4891

> <Gold.PLP.ligand.clash>
0.0000

> <Gold.PLP.ligand.torsion>
2.1148

> <Gold.PLP.Chemscore.Hbond>
0.9120

> <Gold.PLP.Chemscore.CHOScore>
0.0000

> <Gold.PLP.Chemscore.Metal>
0.0000

> <Gold.Chemscore.Hbonds>
donor molecule, donor type, donor heavy atom, donor atom, acceptor molecule, acceptor atom, score
      P1  H  7989  7998       L1     4  0.93

> <Gold.PLP.Chemscore.Internal.Correction>
0.0853

> <Gold.Rescore>
     Score         DG    S(hbond)    S(metal)    S(lipo)     H(rot)  DE(clash)    DE(int)     intcor
     14.33     -15.69       0.97        0.00     105.43       2.09       0.20       1.16       ----

> <Gold.Chemscore.Fitness>
14.3292

> <Gold.Chemscore.DG>
-15.6921

> <Gold.Chemscore.ZeroCoef>
-5.4800

> <Gold.Chemscore.Hbond>
0.9686

> <Gold.Chemscore.Metal>
0.0000

> <Gold.Chemscore.Lipo>
105.4298

> <Gold.Chemscore.Internal_Hbond>
0.0000

> <Gold.Chemscore.DEClash>
0.1988

> <Gold.Chemscore.DEInternal>
1.1641

> <Gold.Chemscore.Rot>
2.0931

> <Gold.Chemscore.Internal.Correction>
   9.000000E+99

> <Gold.Chemscore.Hbonds>
donor molecule, donor type, donor heavy atom, donor atom, acceptor molecule, acceptor atom, score
      P1  H  7989  7998       L1     4  0.35

> <Gold.Chemscore.Hbond.Weighted>
-3.2352

> <Gold.Chemscore.Metal.Weighted>
-0.0000

> <Gold.Chemscore.Lipo.Weighted>
-12.3353

> <Gold.Chemscore.Internal_Hbond.Weighted>
0.0000

> <Gold.Chemscore.DEClash.Weighted>
0.1988

> <Gold.Chemscore.DEInternal.Weighted>
1.1641

> <Gold.Chemscore.Rot.Weighted>
5.3584

> <Gold.Chemscore.Internal.Correction.Weighted>
   9.000000E+99

> <Gold.Protein.RotatedTorsions>
[ 6907 6896 6895 6894 ] final   33.77 input  -60.11 | X-H torsion
[ 7974 7965 7964 7962 ] final  101.76 input  175.53 | X-H torsion
[ 8008 7997 7996 7995 ] final -132.52 input   59.86 | X-H torsion
[ 10167 10162 10161 10158 ] final -148.78 input  -65.29 | X-H torsion
[ 10718 10713 10712 10709 ] final  100.38 input   66.30 | X-H torsion
[ 10763 10752 10751 10750 ] final   23.94 input  -60.55 | X-H torsion
[ 11005 11000 10999 10996 ] final  128.48 input  -57.11 | X-H torsion

> <Gold.Protein.ActiveResidues>
 VAL166  LYS551  ARG553  GLY616  TRP617  ASP618  TYR619  PRO620  LYS621  CYS622 
 ASP623  PHE694  ASN695  SER759  ASP760  ASP761  ALA762  ILE779  LEU786  VAL792 
 PHE793  MET794  SER795  GLU796  ALA797  LYS798  CYS799  TRP800  GLU811  SER814 

> <Gold.Protein.RotatedAtoms>
  152.0932  134.9393  160.0571 H   0  0  0  0  0  0  0  0  0  0  0  0  # atno 6907 bound_to 6896
  152.0636  133.4069  159.4437 H   0  0  0  0  0  0  0  0  0  0  0  0  # atno 6908 bound_to 6896
  150.6837  134.3092  159.4782 H   0  0  0  0  0  0  0  0  0  0  0  0  # atno 6909 bound_to 6896
  145.3680  139.2404  143.3470 H   0  0  0  0  0  0  0  0  0  0  0  0  # atno 7974 bound_to 7965
  155.3303  140.0466  157.3042 H   0  0  0  0  0  0  0  0  0  0  0  0  # atno 8008 bound_to 7997
  154.5332  140.2263  155.8734 H   0  0  0  0  0  0  0  0  0  0  0  0  # atno 8009 bound_to 7997
  156.1809  140.3074  155.9153 H   0  0  0  0  0  0  0  0  0  0  0  0  # atno 8010 bound_to 7997
  139.7501  143.8531  152.2584 H   0  0  0  0  0  0  0  0  0  0  0  0  # atno 10167 bound_to 10162
  157.6855  131.0697  150.5092 H   0  0  0  0  0  0  0  0  0  0  0  0  # atno 10718 bound_to 10713
  153.0801  135.6616  154.0063 H   0  0  0  0  0  0  0  0  0  0  0  0  # atno 10763 bound_to 10752
  153.9687  135.2966  155.3430 H   0  0  0  0  0  0  0  0  0  0  0  0  # atno 10764 bound_to 10752
  154.7198  135.5169  153.8866 H   0  0  0  0  0  0  0  0  0  0  0  0  # atno 10765 bound_to 10752
  139.9563  134.9612  156.9007 H   0  0  0  0  0  0  0  0  0  0  0  0  # atno 11005 bound_to 11000
  146.2898  140.4326  142.8744 LP  0  0  0  0  0  0  0  0  0  0  0  0  # atno 17320 bound_to 7965
  144.8597  140.7122  143.6115 LP  0  0  0  0  0  0  0  0  0  0  0  0  # atno 17321 bound_to 7965
  139.8507  144.7166  150.9218 LP  0  0  0  0  0  0  0  0  0  0  0  0  # atno 17342 bound_to 10162
  140.7797  143.3902  151.1323 LP  0  0  0  0  0  0  0  0  0  0  0  0  # atno 17343 bound_to 10162
  156.5410  130.4208  149.6154 LP  0  0  0  0  0  0  0  0  0  0  0  0  # atno 17370 bound_to 10713
  156.2985  130.7164  151.2030 LP  0  0  0  0  0  0  0  0  0  0  0  0  # atno 17371 bound_to 10713
  140.5602  134.0542  155.7396 LP  0  0  0  0  0  0  0  0  0  0  0  0  # atno 17394 bound_to 11000
  141.1234  133.9423  157.2683 LP  0  0  0  0  0  0  0  0  0  0  0  0  # atno 17395 bound_to 11000

$$$$
