AV-unprocessed.smi:1766|AV-procd|sdf|7136|dock4
  -GOLD-   22720 8373D 1   1.00000     0.00000
 Structure written by MMmdl.
 39 41  0  0  0  0  0  0  0  0  1 V2000
  151.7523  138.1670  154.7185 N   0  0  0  0  0  0  0  0  0  0  0  0
  152.5273  139.2216  154.9860 C   0  0  0  0  0  0  0  0  0  0  0  0
  153.5900  139.4172  154.4003 O   0  0  0  0  0  0  0  0  0  0  0  0
  152.0359  140.1974  156.0615 C   0  0  0  0  0  0  0  0  0  0  0  0
  150.6485  140.6629  155.7030 C   0  0  0  0  0  0  0  0  0  0  0  0
  150.1172  140.4175  154.5023 N   0  0  0  0  0  0  0  0  0  0  0  0
  148.8663  140.9931  154.5936 C   0  0  0  0  0  0  0  0  0  0  0  0
  147.8142  141.0556  153.6521 C   0  0  0  0  0  0  0  0  0  0  0  0
  146.6049  141.7049  153.9752 C   0  0  0  0  0  0  0  0  0  0  0  0
  146.4317  142.3011  155.2409 C   0  0  0  0  0  0  0  0  0  0  0  0
  147.4692  142.2529  156.1915 C   0  0  0  0  0  0  0  0  0  0  0  0
  148.6742  141.6011  155.8652 C   0  0  0  0  0  0  0  0  0  0  0  0
  149.8617  141.3719  156.5561 N   0  0  0  0  0  0  0  0  0  0  0  0
  150.1527  141.8167  157.9141 C   0  0  0  0  0  0  0  0  0  0  0  0
  151.3567  142.7774  157.9809 C   0  0  1  0  0  0  0  0  0  0  0  0
  150.9142  144.0669  157.6102 O   0  0  0  0  0  0  0  0  0  0  0  0
  152.0274  142.7675  159.3480 C   0  0  0  0  0  0  0  0  0  0  0  0
  151.8817  143.8753  160.2108 C   0  0  0  0  0  0  0  0  0  0  0  0
  152.5251  143.8898  161.4633 C   0  0  0  0  0  0  0  0  0  0  0  0
  153.3172  142.7960  161.8614 C   0  0  0  0  0  0  0  0  0  0  0  0
  153.9373  142.8109  163.0649 F   0  0  0  0  0  0  0  0  0  0  0  0
  153.4657  141.6876  161.0063 C   0  0  0  0  0  0  0  0  0  0  0  0
  152.8239  141.6732  159.7527 C   0  0  0  0  0  0  0  0  0  0  0  0
  152.0431  137.4953  154.0230 H   0  0  0  0  0  0  0  0  0  0  0  0
  150.8835  138.0392  155.2169 H   0  0  0  0  0  0  0  0  0  0  0  0
  152.0624  139.7034  157.0308 H   0  0  0  0  0  0  0  0  0  0  0  0
  152.6971  141.0626  156.1275 H   0  0  0  0  0  0  0  0  0  0  0  0
  147.9371  140.6005  152.6805 H   0  0  0  0  0  0  0  0  0  0  0  0
  145.8065  141.7453  153.2490 H   0  0  0  0  0  0  0  0  0  0  0  0
  145.5017  142.7946  155.4821 H   0  0  0  0  0  0  0  0  0  0  0  0
  147.3359  142.7065  157.1622 H   0  0  0  0  0  0  0  0  0  0  0  0
  149.2595  142.2829  158.3295 H   0  0  0  0  0  0  0  0  0  0  0  0
  150.3384  140.9403  158.5360 H   0  0  0  0  0  0  0  0  0  0  0  0
  152.0913  142.4855  157.2321 H   0  0  0  0  0  0  0  0  0  0  0  0
  150.1513  143.9734  157.0603 H   0  0  0  0  0  0  0  0  0  0  0  0
  151.2849  144.7239  159.9101 H   0  0  0  0  0  0  0  0  0  0  0  0
  152.4132  144.7421  162.1170 H   0  0  0  0  0  0  0  0  0  0  0  0
  154.0755  140.8495  161.3100 H   0  0  0  0  0  0  0  0  0  0  0  0
  152.9531  140.8232  159.0988 H   0  0  0  0  0  0  0  0  0  0  0  0
  1  2  1  0  0  0  0
  1 24  1  0  0  0  0
  1 25  1  0  0  0  0
  2  3  2  0  0  0  0
  2  4  1  0  0  0  0
  4  5  1  0  0  0  0
  4 26  1  0  0  0  0
  4 27  1  0  0  0  0
  5 13  1  0  0  0  0
  5  6  2  0  0  0  0
  6  7  1  0  0  0  0
  7 12  2  0  0  0  0
  7  8  1  0  0  0  0
  8  9  2  0  0  0  0
  8 28  1  0  0  0  0
  9 10  1  0  0  0  0
  9 29  1  0  0  0  0
 10 11  2  0  0  0  0
 10 30  1  0  0  0  0
 11 12  1  0  0  0  0
 11 31  1  0  0  0  0
 12 13  1  0  0  0  0
 13 14  1  0  0  0  0
 14 15  1  0  0  0  0
 14 32  1  0  0  0  0
 14 33  1  0  0  0  0
 15 16  1  0  0  0  0
 15 17  1  0  0  0  0
 15 34  1  0  0  0  0
 16 35  1  0  0  0  0
 17 23  1  0  0  0  0
 17 18  2  0  0  0  0
 18 19  1  0  0  0  0
 18 36  1  0  0  0  0
 19 20  2  0  0  0  0
 19 37  1  0  0  0  0
 20 21  1  0  0  0  0
 20 22  1  0  0  0  0
 22 23  2  0  0  0  0
 22 38  1  0  0  0  0
 23 39  1  0  0  0  0
M  END
> <s_m_source_file>
AV-unprocessed.smi

> <i_m_source_file_index>
1766

> <i_lp_mmshare_version>
43012

> <i_f3d_flags>
0

> <s_epik_input>
W2NIXTFbY0hdW2NIXVtjSF1jKGMxMiluKGMobjIpW0NIMl1DKD1PKVtOSDJdKVtDSDJdW0NASF0oW09IXSljM1tjSF1bY0hdYyhGKVtjSF1bY0hdMw==

> <s_epik_cmdline>
J2VwaWtfcHl0aG9uJywgJy1waCcsICc3LjAnLCAnLXRuJywgJzgnLCAnLW1hJywgJzIwMCcsICctbWV0YWxfYmluZGluZycsICctaW1hZScsICc8aW5maWxlLm1hZT4nLCAnLW9tYWUnLCAnPG91dGZpbGUubWFlPic=

> <r_epik_Ionization_Penalty>
0.0366901

> <r_epik_Ionization_Penalty_Charging>
0

> <r_epik_Ionization_Penalty_Neutral>
0.0366901

> <r_epik_State_Penalty>
0.0306642

> <r_epik_Charging_Adjusted_Penalty>
0.0306642

> <i_epik_Tot_Q>
0

> <i_epik_Tot_abs_Q>
0

> <r_epik_Metal_State_Penalty>
0.028853

> <b_epik_Metal_Only>
0

> <s_lp_Force_Field>
OPLS_2005

> <r_lp_Energy>
12.7053

> <b_lp_Chiralities_Consistent>
1

> <s_lp_Variant>
AV-unprocessed.smi:1766-2

> <Gold.Version>
5.8.1

> <Gold.Id.Protein>
6NUR|6NUR_protein|mol2

> <Gold.PLP.Fitness>
62.6118

> <Gold.PLP.PLP>
-55.0152

> <Gold.PLP.part.hbond>
-3.2024

> <Gold.PLP.part.metal>
0.0000

> <Gold.PLP.part.buried>
-4.3234

> <Gold.PLP.part.nonpolar>
-48.3480

> <Gold.PLP.part.repulsive>
0.2592

> <Gold.PLP.ligand.clash>
0.0000

> <Gold.PLP.ligand.torsion>
0.7013

> <Gold.PLP.Chemscore.Hbond>
2.9840

> <Gold.PLP.Chemscore.CHOScore>
0.0000

> <Gold.PLP.Chemscore.Metal>
0.0000

> <Gold.Chemscore.Hbonds>
donor molecule, donor type, donor heavy atom, donor atom, acceptor molecule, acceptor atom, score
      L1  H    16    35       P1  8028  0.98
      P1  H  7989  7998       L1     6  0.79
      P1  H  7997  8009       L1     3  1.00

> <Gold.PLP.Chemscore.Internal.Correction>
0.0471

> <Gold.Rescore>
     Score         DG    S(hbond)    S(metal)    S(lipo)     H(rot)  DE(clash)    DE(int)     intcor
     16.37     -19.96       2.22        0.00     125.83       2.99       2.87       0.73       ----

> <Gold.Chemscore.Fitness>
16.3684

> <Gold.Chemscore.DG>
-19.9649

> <Gold.Chemscore.ZeroCoef>
-5.4800

> <Gold.Chemscore.Hbond>
2.2181

> <Gold.Chemscore.Metal>
0.0000

> <Gold.Chemscore.Lipo>
125.8253

> <Gold.Chemscore.Internal_Hbond>
0.0000

> <Gold.Chemscore.DEClash>
2.8668

> <Gold.Chemscore.DEInternal>
0.7297

> <Gold.Chemscore.Rot>
2.9864

> <Gold.Chemscore.Internal.Correction>
   9.000000E+99

> <Gold.Chemscore.Hbonds>
donor molecule, donor type, donor heavy atom, donor atom, acceptor molecule, acceptor atom, score
      L1  H    16    35       P1  8028  0.84
      P1  H  7989  7998       L1     6  0.13
      P1  H  7997  8009       L1     3  0.60

> <Gold.Chemscore.Hbond.Weighted>
-7.4084

> <Gold.Chemscore.Metal.Weighted>
-0.0000

> <Gold.Chemscore.Lipo.Weighted>
-14.7216

> <Gold.Chemscore.Internal_Hbond.Weighted>
0.0000

> <Gold.Chemscore.DEClash.Weighted>
2.8668

> <Gold.Chemscore.DEInternal.Weighted>
0.7297

> <Gold.Chemscore.Rot.Weighted>
7.6451

> <Gold.Chemscore.Internal.Correction.Weighted>
   9.000000E+99

> <Gold.Protein.RotatedTorsions>
[ 6907 6896 6895 6894 ] final  -13.71 input  -60.11 | X-H torsion
[ 7974 7965 7964 7962 ] final   91.65 input  175.53 | X-H torsion
[ 8008 7997 7996 7995 ] final -113.35 input   59.86 | X-H torsion
[ 10167 10162 10161 10158 ] final   16.00 input  -65.29 | X-H torsion
[ 10718 10713 10712 10709 ] final  -44.43 input   66.30 | X-H torsion
[ 10763 10752 10751 10750 ] final   19.09 input  -60.55 | X-H torsion
[ 11005 11000 10999 10996 ] final -107.34 input  -57.11 | X-H torsion

> <Gold.Protein.ActiveResidues>
 VAL166  LYS551  ARG553  GLY616  TRP617  ASP618  TYR619  PRO620  LYS621  CYS622 
 ASP623  PHE694  ASN695  SER759  ASP760  ASP761  ALA762  ILE779  LEU786  VAL792 
 PHE793  MET794  SER795  GLU796  ALA797  LYS798  CYS799  TRP800  GLU811  SER814 

> <Gold.Protein.RotatedAtoms>
  151.3507  135.0884  159.9401 H   0  0  0  0  0  0  0  0  0  0  0  0  # atno 6907 bound_to 6896
  152.5188  133.9355  159.7611 H   0  0  0  0  0  0  0  0  0  0  0  0  # atno 6908 bound_to 6896
  150.9730  133.6270  159.2764 H   0  0  0  0  0  0  0  0  0  0  0  0  # atno 6909 bound_to 6896
  145.5029  139.2276  143.2767 H   0  0  0  0  0  0  0  0  0  0  0  0  # atno 7974 bound_to 7965
  155.0194  140.0393  157.2431 H   0  0  0  0  0  0  0  0  0  0  0  0  # atno 8008 bound_to 7997
  154.7391  140.2745  155.6365 H   0  0  0  0  0  0  0  0  0  0  0  0  # atno 8009 bound_to 7997
  156.2860  140.2669  156.2113 H   0  0  0  0  0  0  0  0  0  0  0  0  # atno 8010 bound_to 7997
  140.5828  143.8948  150.6804 H   0  0  0  0  0  0  0  0  0  0  0  0  # atno 10167 bound_to 10162
  156.2386  130.4178  149.8788 H   0  0  0  0  0  0  0  0  0  0  0  0  # atno 10718 bound_to 10713
  153.1192  135.6715  153.9365 H   0  0  0  0  0  0  0  0  0  0  0  0  # atno 10763 bound_to 10752
  153.8885  135.3050  155.3448 H   0  0  0  0  0  0  0  0  0  0  0  0  # atno 10764 bound_to 10752
  154.7605  135.4990  153.9535 H   0  0  0  0  0  0  0  0  0  0  0  0  # atno 10765 bound_to 10752
  141.0959  133.8972  157.1964 H   0  0  0  0  0  0  0  0  0  0  0  0  # atno 11005 bound_to 11000
  146.2215  140.5831  142.9015 LP  0  0  0  0  0  0  0  0  0  0  0  0  # atno 17320 bound_to 7965
  144.7770  140.5760  143.6631 LP  0  0  0  0  0  0  0  0  0  0  0  0  # atno 17321 bound_to 7965
  140.2452  143.3634  152.1453 LP  0  0  0  0  0  0  0  0  0  0  0  0  # atno 17342 bound_to 10162
  139.5180  144.6999  151.5523 LP  0  0  0  0  0  0  0  0  0  0  0  0  # atno 17343 bound_to 10162
  156.6377  130.8692  151.3508 LP  0  0  0  0  0  0  0  0  0  0  0  0  # atno 17370 bound_to 10713
  157.7165  130.9504  150.1276 LP  0  0  0  0  0  0  0  0  0  0  0  0  # atno 17371 bound_to 10713
  139.9796  135.0102  156.9716 LP  0  0  0  0  0  0  0  0  0  0  0  0  # atno 17394 bound_to 11000
  140.5141  134.0973  155.7277 LP  0  0  0  0  0  0  0  0  0  0  0  0  # atno 17395 bound_to 11000

$$$$
