AV-unprocessed.smi:163|AV-procd|sdf|1381|dock6
  -GOLD-   2262019113D 1   1.00000     0.00000
 Structure written by MMmdl.
 48 51  0  0  0  0  0  0  0  0  1 V2000
  152.5473  143.5036  159.3447 N   0  0  0  0  0  0  0  0  0  0  0  0
  151.8898  142.5973  159.0517 C   0  0  0  0  0  0  0  0  0  0  0  0
  151.0549  141.4441  158.6756 C   0  0  0  0  0  0  0  0  0  0  0  0
  151.6753  140.5679  157.5794 C   0  0  0  0  0  0  0  0  0  0  0  0
  152.8198  140.1401  157.7351 O   0  0  0  0  0  0  0  0  0  0  0  0
  150.9417  140.2925  156.4757 N   0  0  0  0  0  0  0  0  0  0  0  0
  151.3642  139.4202  155.3736 C   0  0  0  0  0  0  0  0  0  0  0  0
  150.4711  138.1661  155.3576 C   0  0  0  0  0  0  0  0  0  0  0  0
  149.0558  138.5387  155.3035 N   0  0  0  0  0  0  0  0  0  0  0  0
  148.1974  137.5359  154.9846 C   0  0  0  0  0  0  0  0  0  0  0  0
  148.2678  136.3500  155.6473 N   0  0  0  0  0  0  0  0  0  0  0  0
  147.4336  135.3523  155.3402 C   0  0  0  0  0  0  0  0  0  0  0  0
  146.4654  135.3267  154.4227 N   0  0  0  0  0  0  0  0  0  0  0  0
  146.3806  136.5162  153.7610 C   0  0  0  0  0  0  0  0  0  0  0  0
  147.1997  137.6612  153.9757 C   0  0  0  0  0  0  0  0  0  0  0  0
  146.8083  138.6859  153.1218 N   0  0  0  0  0  0  0  0  0  0  0  0
  145.8254  138.1726  152.4343 C   0  0  0  0  0  0  0  0  0  0  0  0
  145.4957  136.8763  152.7594 N   0  0  0  0  0  0  0  0  0  0  0  0
  144.4484  136.0657  152.1562 C   0  0  0  0  0  0  0  0  0  0  0  0
  144.9186  135.2259  150.9414 C   0  0  2  0  0  0  0  0  0  0  0  0
  145.2490  136.0961  149.8743 O   0  0  0  0  0  0  0  0  0  0  0  0
  143.8922  134.2013  150.4542 C   0  0  0  0  0  0  0  0  0  0  0  0
  144.3526  132.9168  151.1268 C   0  0  0  0  0  0  0  0  0  0  0  0
  145.7620  133.0079  151.0174 O   0  0  0  0  0  0  0  0  0  0  0  0
  146.1391  134.3513  151.2962 C   0  0  0  0  0  0  0  0  0  0  0  0
  148.6220  139.5254  156.2970 C   0  0  0  0  0  0  0  0  0  0  0  0
  149.5579  140.7487  156.2973 C   0  0  0  0  0  0  0  0  0  0  0  0
  150.8926  140.8536  159.5776 H   0  0  0  0  0  0  0  0  0  0  0  0
  150.0929  141.8350  158.3428 H   0  0  0  0  0  0  0  0  0  0  0  0
  151.2589  139.9618  154.4324 H   0  0  0  0  0  0  0  0  0  0  0  0
  152.4105  139.1239  155.4249 H   0  0  0  0  0  0  0  0  0  0  0  0
  150.7537  137.5374  154.5150 H   0  0  0  0  0  0  0  0  0  0  0  0
  150.6432  137.5756  156.2585 H   0  0  0  0  0  0  0  0  0  0  0  0
  147.5607  134.4446  155.9117 H   0  0  0  0  0  0  0  0  0  0  0  0
  145.3051  138.7314  151.6696 H   0  0  0  0  0  0  0  0  0  0  0  0
  144.0410  135.4120  152.9287 H   0  0  0  0  0  0  0  0  0  0  0  0
  143.6337  136.7276  151.8597 H   0  0  0  0  0  0  0  0  0  0  0  0
  145.6823  135.5930  149.2016 H   0  0  0  0  0  0  0  0  0  0  0  0
  142.8573  134.4496  150.6845 H   0  0  0  0  0  0  0  0  0  0  0  0
  143.9604  134.0705  149.3728 H   0  0  0  0  0  0  0  0  0  0  0  0
  144.0602  132.8951  152.1780 H   0  0  0  0  0  0  0  0  0  0  0  0
  143.9666  132.0214  150.6391 H   0  0  0  0  0  0  0  0  0  0  0  0
  147.0347  134.6125  150.7307 H   0  0  0  0  0  0  0  0  0  0  0  0
  146.3901  134.4291  152.3551 H   0  0  0  0  0  0  0  0  0  0  0  0
  147.6024  139.8485  156.0825 H   0  0  0  0  0  0  0  0  0  0  0  0
  148.6146  139.0634  157.2855 H   0  0  0  0  0  0  0  0  0  0  0  0
  149.2400  141.4558  157.0645 H   0  0  0  0  0  0  0  0  0  0  0  0
  149.4776  141.2809  155.3484 H   0  0  0  0  0  0  0  0  0  0  0  0
  1  2  3  0  0  0  0
  2  3  1  0  0  0  0
  3  4  1  0  0  0  0
  3 28  1  0  0  0  0
  3 29  1  0  0  0  0
  4  5  2  0  0  0  0
  4  6  1  0  0  0  0
  6 27  1  0  0  0  0
  6  7  1  0  0  0  0
  7  8  1  0  0  0  0
  7 30  1  0  0  0  0
  7 31  1  0  0  0  0
  8  9  1  0  0  0  0
  8 32  1  0  0  0  0
  8 33  1  0  0  0  0
  9 10  1  0  0  0  0
  9 26  1  0  0  0  0
 10 15  1  0  0  0  0
 10 11  2  0  0  0  0
 11 12  1  0  0  0  0
 12 13  2  0  0  0  0
 12 34  1  0  0  0  0
 13 14  1  0  0  0  0
 14 18  1  0  0  0  0
 14 15  2  0  0  0  0
 15 16  1  0  0  0  0
 16 17  2  0  0  0  0
 17 18  1  0  0  0  0
 17 35  1  0  0  0  0
 18 19  1  0  0  0  0
 19 20  1  0  0  0  0
 19 36  1  0  0  0  0
 19 37  1  0  0  0  0
 20 25  1  0  0  0  0
 20 21  1  0  0  0  0
 20 22  1  0  0  0  0
 21 38  1  0  0  0  0
 22 23  1  0  0  0  0
 22 39  1  0  0  0  0
 22 40  1  0  0  0  0
 23 24  1  0  0  0  0
 23 41  1  0  0  0  0
 23 42  1  0  0  0  0
 24 25  1  0  0  0  0
 25 43  1  0  0  0  0
 25 44  1  0  0  0  0
 26 27  1  0  0  0  0
 26 45  1  0  0  0  0
 26 46  1  0  0  0  0
 27 47  1  0  0  0  0
 27 48  1  0  0  0  0
M  END
> <s_m_source_file>
AV-unprocessed.smi

> <i_m_source_file_index>
163

> <i_lp_mmshare_version>
43012

> <i_f3d_flags>
0

> <s_epik_input>
TiNDW0NIMl1DKD1PKU4xW0NIMl1bQ0gyXU4oW0NIMl1bQ0gyXTEpYyhuW2NIXW4yKWMoYzIzKW5bY0hdbjNbQ0gyXVtDQEBdNChbT0hdKVtDSDJdW0NIMl1PW0NIMl00

> <s_epik_cmdline>
J2VwaWtfcHl0aG9uJywgJy1waCcsICc3LjAnLCAnLXRuJywgJzgnLCAnLW1hJywgJzIwMCcsICctbWV0YWxfYmluZGluZycsICctaW1hZScsICc8aW5maWxlLm1hZT4nLCAnLW9tYWUnLCAnPG91dGZpbGUubWFlPic=

> <r_lp_tautomer_probability>
1

> <r_epik_Ionization_Penalty>
0.000981096

> <r_epik_Ionization_Penalty_Charging>
0

> <r_epik_Ionization_Penalty_Neutral>
0.000981096

> <r_epik_State_Penalty>
0.000482875

> <r_epik_Charging_Adjusted_Penalty>
0.000482875

> <i_epik_Tot_Q>
0

> <i_epik_Tot_abs_Q>
0

> <r_epik_Metal_State_Penalty>
-0

> <b_epik_Metal_Only>
0

> <s_lp_Force_Field>
OPLS_2005

> <r_lp_Energy>
51.4692

> <b_lp_Chiralities_Consistent>
1

> <s_lp_Variant>
AV-unprocessed.smi:163-2

> <Gold.Version>
5.8.1

> <Gold.Id.Protein>
6NUR|6NUR_protein|mol2

> <Gold.PLP.Fitness>
41.0795

> <Gold.PLP.PLP>
-31.0627

> <Gold.PLP.part.hbond>
-3.0000

> <Gold.PLP.part.metal>
0.0000

> <Gold.PLP.part.buried>
-2.7331

> <Gold.PLP.part.nonpolar>
-26.5304

> <Gold.PLP.part.repulsive>
0.5919

> <Gold.PLP.ligand.clash>
0.0000

> <Gold.PLP.ligand.torsion>
0.9330

> <Gold.PLP.Chemscore.Hbond>
1.9920

> <Gold.PLP.Chemscore.CHOScore>
1.7969

> <Gold.PLP.Chemscore.Metal>
0.0000

> <Gold.Chemscore.Hbonds>
donor molecule, donor type, donor heavy atom, donor atom, acceptor molecule, acceptor atom, score
      L1  H    21    38       P1  7921  1.00
      P1  H  7997  8010       L1     5  1.00
      L1  C    17    35       P1 10171  1.00
      L1  C    17    35       P1 10175  0.75

> <Gold.PLP.Chemscore.Internal.Correction>
0.5160

> <Gold.Rescore>
     Score         DG    S(hbond)    S(metal)    S(lipo)     H(rot)  DE(clash)    DE(int)     intcor
     10.46     -11.69       1.95        0.00      56.99       2.72       0.35       0.87       ----

> <Gold.Chemscore.Fitness>
10.4611

> <Gold.Chemscore.DG>
-11.6887

> <Gold.Chemscore.ZeroCoef>
-5.4800

> <Gold.Chemscore.Hbond>
1.9495

> <Gold.Chemscore.Metal>
0.0000

> <Gold.Chemscore.Lipo>
56.9931

> <Gold.Chemscore.Internal_Hbond>
0.0000

> <Gold.Chemscore.DEClash>
0.3527

> <Gold.Chemscore.DEInternal>
0.8748

> <Gold.Chemscore.Rot>
2.7230

> <Gold.Chemscore.Internal.Correction>
   9.000000E+99

> <Gold.Chemscore.Hbonds>
donor molecule, donor type, donor heavy atom, donor atom, acceptor molecule, acceptor atom, score
      L1  H    21    38       P1  7921  1.00
      P1  H  7997  8010       L1     5  0.96

> <Gold.Chemscore.Hbond.Weighted>
-6.5114

> <Gold.Chemscore.Metal.Weighted>
-0.0000

> <Gold.Chemscore.Lipo.Weighted>
-6.6682

> <Gold.Chemscore.Internal_Hbond.Weighted>
0.0000

> <Gold.Chemscore.DEClash.Weighted>
0.3527

> <Gold.Chemscore.DEInternal.Weighted>
0.8748

> <Gold.Chemscore.Rot.Weighted>
6.9709

> <Gold.Chemscore.Internal.Correction.Weighted>
   9.000000E+99

> <Gold.Protein.RotatedTorsions>
[ 6907 6896 6895 6894 ] final -156.05 input  -60.11 | X-H torsion
[ 7974 7965 7964 7962 ] final  118.75 input  175.53 | X-H torsion
[ 8008 7997 7996 7995 ] final   48.18 input   59.86 | X-H torsion
[ 10167 10162 10161 10158 ] final  145.76 input  -65.29 | X-H torsion
[ 10718 10713 10712 10709 ] final    9.41 input   66.30 | X-H torsion
[ 10763 10752 10751 10750 ] final   45.41 input  -60.55 | X-H torsion
[ 11005 11000 10999 10996 ] final  145.92 input  -57.11 | X-H torsion

> <Gold.Protein.ActiveResidues>
 VAL166  LYS551  ARG553  GLY616  TRP617  ASP618  TYR619  PRO620  LYS621  CYS622 
 ASP623  PHE694  ASN695  SER759  ASP760  ASP761  ALA762  ILE779  LEU786  VAL792 
 PHE793  MET794  SER795  GLU796  ALA797  LYS798  CYS799  TRP800  GLU811  SER814 

> <Gold.Protein.RotatedAtoms>
  151.2818  133.4206  159.2627 H   0  0  0  0  0  0  0  0  0  0  0  0  # atno 6907 bound_to 6896
  151.0354  134.9569  159.8143 H   0  0  0  0  0  0  0  0  0  0  0  0  # atno 6908 bound_to 6896
  152.5354  134.2778  159.9048 H   0  0  0  0  0  0  0  0  0  0  0  0  # atno 6909 bound_to 6896
  145.1514  139.3208  143.4564 H   0  0  0  0  0  0  0  0  0  0  0  0  # atno 7974 bound_to 7965
  155.3814  140.3429  155.4247 H   0  0  0  0  0  0  0  0  0  0  0  0  # atno 8008 bound_to 7997
  156.1608  140.1600  156.8648 H   0  0  0  0  0  0  0  0  0  0  0  0  # atno 8009 bound_to 7997
  154.5138  140.0783  156.8024 H   0  0  0  0  0  0  0  0  0  0  0  0  # atno 8010 bound_to 7997
  139.4920  144.5878  151.6742 H   0  0  0  0  0  0  0  0  0  0  0  0  # atno 10167 bound_to 10162
  156.9659  130.5951  149.5665 H   0  0  0  0  0  0  0  0  0  0  0  0  # atno 10718 bound_to 10713
  152.9825  135.6040  154.3433 H   0  0  0  0  0  0  0  0  0  0  0  0  # atno 10763 bound_to 10752
  154.3128  135.2771  155.2559 H   0  0  0  0  0  0  0  0  0  0  0  0  # atno 10764 bound_to 10752
  154.4761  135.5929  153.6412 H   0  0  0  0  0  0  0  0  0  0  0  0  # atno 10765 bound_to 10752
  140.0751  134.9129  157.1410 H   0  0  0  0  0  0  0  0  0  0  0  0  # atno 11005 bound_to 11000
  146.3494  140.1590  142.8591 LP  0  0  0  0  0  0  0  0  0  0  0  0  # atno 17320 bound_to 7965
  145.0427  140.8957  143.5043 LP  0  0  0  0  0  0  0  0  0  0  0  0  # atno 17321 bound_to 7965
  140.5498  144.0443  150.6122 LP  0  0  0  0  0  0  0  0  0  0  0  0  # atno 17342 bound_to 10162
  140.3494  143.2972  152.0504 LP  0  0  0  0  0  0  0  0  0  0  0  0  # atno 17343 bound_to 10162
  156.0302  130.5394  150.8515 LP  0  0  0  0  0  0  0  0  0  0  0  0  # atno 17370 bound_to 10713
  157.5626  131.0946  150.9537 LP  0  0  0  0  0  0  0  0  0  0  0  0  # atno 17371 bound_to 10713
  140.3569  134.2537  155.7191 LP  0  0  0  0  0  0  0  0  0  0  0  0  # atno 17394 bound_to 11000
  141.2026  133.7932  157.0380 LP  0  0  0  0  0  0  0  0  0  0  0  0  # atno 17395 bound_to 11000

$$$$
