AV-unprocessed.smi:809|AV-procd|sdf|3807|dock7
  -GOLD-   22720 1243D 1   1.00000     0.00000
 Structure written by MMmdl.
 39 40  0  0  0  0  0  0  0  0  3 V2000
  148.3500  124.0042  149.0786 C   0  0  0  0  0  0  0  0  0  0  0  0
  148.4164  124.7493  150.3748 C   0  0  0  0  0  0  0  0  0  0  0  0
  148.5995  124.2113  151.6218 C   0  0  0  0  0  0  0  0  0  0  0  0
  148.6160  125.4388  152.8555 S   0  0  0  0  0  0  0  0  0  0  0  0
  148.3605  126.6707  151.6175 C   0  0  0  0  0  0  0  0  0  0  0  0
  148.2657  127.9898  151.8504 N   0  5  0  0  0  0  0  0  0  0  0  0
  147.0654  128.5399  152.1415 C   0  0  0  0  0  0  0  0  0  0  0  0
  146.2700  128.1502  152.9991 O   0  0  0  0  0  0  0  0  0  0  0  0
  146.7670  129.6038  151.3836 N   0  0  0  0  0  0  0  0  0  0  0  0
  145.5248  130.3712  151.4260 C   0  0  0  0  0  0  0  0  0  0  0  0
  145.6937  131.8594  151.0150 C   0  0  1  0  0  0  0  0  0  0  0  0
  146.3608  131.8743  149.7653 O   0  0  0  0  0  0  0  0  0  0  0  0
  144.3061  132.5024  150.7914 C   0  0  0  0  0  0  0  0  0  0  0  0
  144.3868  134.0072  150.4766 C   0  0  0  0  0  0  0  0  0  0  0  0
  145.1356  134.7322  151.5310 N   0  3  2  0  0  0  0  0  0  0  0  0
  145.1178  136.1969  151.3281 C   0  0  0  0  0  0  0  0  0  0  0  0
  146.5100  134.2014  151.6938 C   0  0  0  0  0  0  0  0  0  0  0  0
  146.4896  132.7024  152.0415 C   0  0  0  0  0  0  0  0  0  0  0  0
  148.2887  126.1406  150.3913 N   0  0  0  0  0  0  0  0  0  0  0  0
  149.2851  123.4807  148.8800 H   0  0  0  0  0  0  0  0  0  0  0  0
  148.1618  124.6724  148.2376 H   0  0  0  0  0  0  0  0  0  0  0  0
  147.5517  123.2621  149.0941 H   0  0  0  0  0  0  0  0  0  0  0  0
  148.7263  123.1733  151.8895 H   0  0  0  0  0  0  0  0  0  0  0  0
  147.4555  129.8887  150.7026 H   0  0  0  0  0  0  0  0  0  0  0  0
  144.7399  129.8815  150.8463 H   0  0  0  0  0  0  0  0  0  0  0  0
  145.1949  130.3204  152.4638 H   0  0  0  0  0  0  0  0  0  0  0  0
  147.1184  131.3128  149.8129 H   0  0  0  0  0  0  0  0  0  0  0  0
  143.7731  131.9856  149.9919 H   0  0  0  0  0  0  0  0  0  0  0  0
  143.6993  132.3726  151.6888 H   0  0  0  0  0  0  0  0  0  0  0  0
  144.8636  134.1701  149.5088 H   0  0  0  0  0  0  0  0  0  0  0  0
  143.3777  134.4144  150.4019 H   0  0  0  0  0  0  0  0  0  0  0  0
  145.6176  136.4691  150.3976 H   0  0  0  0  0  0  0  0  0  0  0  0
  145.6226  136.7059  152.1496 H   0  0  0  0  0  0  0  0  0  0  0  0
  144.0931  136.5677  151.2877 H   0  0  0  0  0  0  0  0  0  0  0  0
  147.0800  134.3715  150.7791 H   0  0  0  0  0  0  0  0  0  0  0  0
  147.0201  134.7481  152.4880 H   0  0  0  0  0  0  0  0  0  0  0  0
  146.0478  132.5752  153.0307 H   0  0  0  0  0  0  0  0  0  0  0  0
  147.5177  132.3462  152.1194 H   0  0  0  0  0  0  0  0  0  0  0  0
  144.6544  134.5572  152.4018 H   0  0  0  0  0  0  0  0  0  0  0  0
  1  2  1  0  0  0  0
  1 20  1  0  0  0  0
  1 21  1  0  0  0  0
  1 22  1  0  0  0  0
  2 19  1  0  0  0  0
  2  3  2  0  0  0  0
  3  4  1  0  0  0  0
  3 23  1  0  0  0  0
  4  5  1  0  0  0  0
  5  6  1  0  0  0  0
  5 19  2  0  0  0  0
  6  7  1  0  0  0  0
  7  8  2  0  0  0  0
  7  9  1  0  0  0  0
  9 10  1  0  0  0  0
  9 24  1  0  0  0  0
 10 11  1  0  0  0  0
 10 25  1  0  0  0  0
 10 26  1  0  0  0  0
 11 18  1  0  0  0  0
 11 12  1  0  0  0  0
 11 13  1  0  0  0  0
 12 27  1  0  0  0  0
 13 14  1  0  0  0  0
 13 28  1  0  0  0  0
 13 29  1  0  0  0  0
 14 15  1  0  0  0  0
 14 30  1  0  0  0  0
 14 31  1  0  0  0  0
 15 16  1  0  0  0  0
 15 17  1  0  0  0  0
 15 39  1  0  0  0  0
 16 32  1  0  0  0  0
 16 33  1  0  0  0  0
 16 34  1  0  0  0  0
 17 18  1  0  0  0  0
 17 35  1  0  0  0  0
 17 36  1  0  0  0  0
 18 37  1  0  0  0  0
 18 38  1  0  0  0  0
M  CHG  1   6  -1
M  CHG  1  15   1
M  END
> <s_m_source_file>
AV-unprocessed.smi

> <i_m_source_file_index>
809

> <i_lp_mmshare_version>
43012

> <i_f3d_flags>
0

> <s_epik_input>
W0NIM11jMVtjSF1zYyhuMSlbTkhdQyg9TylbTkhdW0NIMl1DMihbT0hdKVtDSDJdW0NIMl1OKFtDSDNdKVtDSDJdW0NIMl0y

> <s_epik_cmdline>
J2VwaWtfcHl0aG9uJywgJy1waCcsICc3LjAnLCAnLXRuJywgJzgnLCAnLW1hJywgJzIwMCcsICctbWV0YWxfYmluZGluZycsICctaW1hZScsICc8aW5maWxlLm1hZT4nLCAnLW9tYWUnLCAnPG91dGZpbGUubWFlPic=

> <r_lp_tautomer_probability>
0.999

> <r_epik_Ionization_Penalty>
8.50704

> <r_epik_Ionization_Penalty_Charging>
6.65046

> <r_epik_Ionization_Penalty_Neutral>
1.85657

> <r_epik_State_Penalty>
6.64992

> <r_epik_Charging_Adjusted_Penalty>
13.3004

> <i_epik_Tot_Q>
0

> <i_epik_Tot_abs_Q>
2

> <r_epik_Metal_State_Penalty>
2.57297

> <b_epik_Metal_Only>
1

> <s_lp_Force_Field>
OPLS_2005

> <r_lp_Energy>
10.5193

> <b_lp_Chiralities_Consistent>
1

> <s_lp_Variant>
AV-unprocessed.smi:809-3

> <Gold.Version>
5.8.1

> <Gold.Id.Protein>
6NUR|6NUR_protein|mol2

> <Gold.PLP.Fitness>
38.5452

> <Gold.PLP.PLP>
-35.4592

> <Gold.PLP.part.hbond>
-2.0000

> <Gold.PLP.part.metal>
0.0000

> <Gold.PLP.part.buried>
-6.6543

> <Gold.PLP.part.nonpolar>
-27.2086

> <Gold.PLP.part.repulsive>
0.4433

> <Gold.PLP.ligand.clash>
0.0000

> <Gold.PLP.ligand.torsion>
1.4637

> <Gold.PLP.Chemscore.Hbond>
2.0000

> <Gold.PLP.Chemscore.CHOScore>
0.0000

> <Gold.PLP.Chemscore.Metal>
0.0000

> <Gold.Chemscore.Hbonds>
donor molecule, donor type, donor heavy atom, donor atom, acceptor molecule, acceptor atom, score
      L1  H     9    24       P1 10747  1.00
      L1  H    12    27       P1 10747  1.00

> <Gold.PLP.Chemscore.Internal.Correction>
0.0134

> <Gold.Rescore>
     Score         DG    S(hbond)    S(metal)    S(lipo)     H(rot)  DE(clash)    DE(int)     intcor
     14.23     -15.67       1.96        0.00      71.04       1.82       0.03       1.42       ----

> <Gold.Chemscore.Fitness>
14.2287

> <Gold.Chemscore.DG>
-15.6750

> <Gold.Chemscore.ZeroCoef>
-5.4800

> <Gold.Chemscore.Hbond>
1.9578

> <Gold.Chemscore.Metal>
0.0000

> <Gold.Chemscore.Lipo>
71.0413

> <Gold.Chemscore.Internal_Hbond>
0.0000

> <Gold.Chemscore.DEClash>
0.0288

> <Gold.Chemscore.DEInternal>
1.4175

> <Gold.Chemscore.Rot>
1.8186

> <Gold.Chemscore.Internal.Correction>
   9.000000E+99

> <Gold.Chemscore.Hbonds>
donor molecule, donor type, donor heavy atom, donor atom, acceptor molecule, acceptor atom, score
      L1  H     9    24       P1 10747  0.95
      L1  H    12    27       P1 10747  0.97

> <Gold.Chemscore.Hbond.Weighted>
-6.5389

> <Gold.Chemscore.Metal.Weighted>
-0.0000

> <Gold.Chemscore.Lipo.Weighted>
-8.3118

> <Gold.Chemscore.Internal_Hbond.Weighted>
0.0000

> <Gold.Chemscore.DEClash.Weighted>
0.0288

> <Gold.Chemscore.DEInternal.Weighted>
1.4175

> <Gold.Chemscore.Rot.Weighted>
4.6557

> <Gold.Chemscore.Internal.Correction.Weighted>
   9.000000E+99

> <Gold.Protein.RotatedTorsions>
[ 6907 6896 6895 6894 ] final  136.69 input  -60.11 | X-H torsion
[ 7974 7965 7964 7962 ] final  -19.53 input  175.53 | X-H torsion
[ 8008 7997 7996 7995 ] final  -56.00 input   59.86 | X-H torsion
[ 10167 10162 10161 10158 ] final   11.51 input  -65.29 | X-H torsion
[ 10718 10713 10712 10709 ] final   51.13 input   66.30 | X-H torsion
[ 10763 10752 10751 10750 ] final   99.92 input  -60.55 | X-H torsion
[ 11005 11000 10999 10996 ] final  124.93 input  -57.11 | X-H torsion

> <Gold.Protein.ActiveResidues>
 VAL166  LYS551  ARG553  GLY616  TRP617  ASP618  TYR619  PRO620  LYS621  CYS622 
 ASP623  PHE694  ASN695  SER759  ASP760  ASP761  ALA762  ILE779  LEU786  VAL792 
 PHE793  MET794  SER795  GLU796  ALA797  LYS798  CYS799  TRP800  GLU811  SER814 

> <Gold.Protein.RotatedAtoms>
  152.2865  133.5520  159.5530 H   0  0  0  0  0  0  0  0  0  0  0  0  # atno 6907 bound_to 6896
  150.7217  134.0489  159.3800 H   0  0  0  0  0  0  0  0  0  0  0  0  # atno 6908 bound_to 6896
  151.8397  135.0594  160.0497 H   0  0  0  0  0  0  0  0  0  0  0  0  # atno 6909 bound_to 6896
  146.1836  140.4075  142.8485 H   0  0  0  0  0  0  0  0  0  0  0  0  # atno 7974 bound_to 7965
  154.4214  140.1140  156.5568 H   0  0  0  0  0  0  0  0  0  0  0  0  # atno 8008 bound_to 7997
  155.6353  140.3496  155.4677 H   0  0  0  0  0  0  0  0  0  0  0  0  # atno 8009 bound_to 7997
  155.9915  140.1180  157.0623 H   0  0  0  0  0  0  0  0  0  0  0  0  # atno 8010 bound_to 7997
  140.6127  143.8373  150.7084 H   0  0  0  0  0  0  0  0  0  0  0  0  # atno 10167 bound_to 10162
  157.4951  130.8401  149.8249 H   0  0  0  0  0  0  0  0  0  0  0  0  # atno 10718 bound_to 10713
  153.3075  135.4096  155.1307 H   0  0  0  0  0  0  0  0  0  0  0  0  # atno 10763 bound_to 10752
  154.8566  135.3556  154.5768 H   0  0  0  0  0  0  0  0  0  0  0  0  # atno 10764 bound_to 10752
  153.6196  135.7065  153.5374 H   0  0  0  0  0  0  0  0  0  0  0  0  # atno 10765 bound_to 10752
  139.9382  134.9638  156.8482 H   0  0  0  0  0  0  0  0  0  0  0  0  # atno 11005 bound_to 11000
  144.8358  140.6779  143.6261 LP  0  0  0  0  0  0  0  0  0  0  0  0  # atno 17320 bound_to 7965
  145.4004  139.1599  143.4181 LP  0  0  0  0  0  0  0  0  0  0  0  0  # atno 17321 bound_to 7965
  140.1945  143.4009  152.1838 LP  0  0  0  0  0  0  0  0  0  0  0  0  # atno 17342 bound_to 10162
  139.5374  144.7223  151.4847 LP  0  0  0  0  0  0  0  0  0  0  0  0  # atno 17343 bound_to 10162
  156.0196  130.3800  150.2004 LP  0  0  0  0  0  0  0  0  0  0  0  0  # atno 17370 bound_to 10713
  157.0193  130.9974  151.3344 LP  0  0  0  0  0  0  0  0  0  0  0  0  # atno 17371 bound_to 10713
  140.6020  134.0162  155.7541 LP  0  0  0  0  0  0  0  0  0  0  0  0  # atno 17394 bound_to 11000
  141.1005  133.9775  157.3087 LP  0  0  0  0  0  0  0  0  0  0  0  0  # atno 17395 bound_to 11000

$$$$
