AV-unprocessed.smi:419|AV-procd|sdf|2530|dock2
  -GOLD-   2262022483D 1   1.00000     0.00000
 Structure written by MMmdl.
 44 46  0  0  0  0  0  0  0  0  1 V2000
  143.7866  145.0937  155.1158 C   0  0  0  0  0  0  0  0  0  0  0  0
  144.1362  144.0763  156.0430 O   0  0  0  0  0  0  0  0  0  0  0  0
  145.2679  143.3307  155.7916 C   0  0  0  0  0  0  0  0  0  0  0  0
  145.6546  143.1842  154.4451 C   0  0  0  0  0  0  0  0  0  0  0  0
  146.7979  142.4389  154.1002 C   0  0  0  0  0  0  0  0  0  0  0  0
  147.5834  141.8221  155.0935 C   0  0  0  0  0  0  0  0  0  0  0  0
  148.6867  141.1124  154.6700 O   0  0  0  0  0  0  0  0  0  0  0  0
  149.5451  140.5516  155.6552 C   0  0  0  0  0  0  0  0  0  0  0  0
  150.3466  141.6831  156.3195 C   0  0  2  0  0  0  0  0  0  0  0  0
  150.4244  142.7448  155.3891 O   0  0  0  0  0  0  0  0  0  0  0  0
  151.7872  141.2436  156.6530 C   0  0  0  0  0  0  0  0  0  0  0  0
  152.1931  141.6751  157.9899 N   0  0  0  0  0  0  0  0  0  0  0  0
  152.8704  140.9384  158.9026 C   0  0  0  0  0  0  0  0  0  0  0  0
  153.2525  139.7780  158.7520 O   0  0  0  0  0  0  0  0  0  0  0  0
  153.0532  141.7013  160.0055 N   0  0  0  0  0  0  0  0  0  0  0  0
  153.7369  141.3179  161.2347 C   0  0  0  0  0  0  0  0  0  0  0  0
  152.4797  142.9613  159.7929 C   0  0  0  0  0  0  0  0  0  0  0  0
  152.4077  144.0931  160.6229 C   0  0  0  0  0  0  0  0  0  0  0  0
  151.7453  145.2313  160.1063 C   0  0  0  0  0  0  0  0  0  0  0  0
  151.1808  145.2151  158.8043 C   0  0  0  0  0  0  0  0  0  0  0  0
  151.2689  144.0617  157.9898 C   0  0  0  0  0  0  0  0  0  0  0  0
  151.9354  142.9458  158.5258 C   0  0  0  0  0  0  0  0  0  0  0  0
  147.1987  141.9665  156.4493 C   0  0  0  0  0  0  0  0  0  0  0  0
  146.0544  142.7119  156.7944 C   0  0  0  0  0  0  0  0  0  0  0  0
  142.8761  145.5896  155.4517 H   0  0  0  0  0  0  0  0  0  0  0  0
  143.5903  144.6804  154.1254 H   0  0  0  0  0  0  0  0  0  0  0  0
  144.5672  145.8522  155.0432 H   0  0  0  0  0  0  0  0  0  0  0  0
  145.0681  143.6494  153.6663 H   0  0  0  0  0  0  0  0  0  0  0  0
  147.0755  142.3409  153.0610 H   0  0  0  0  0  0  0  0  0  0  0  0
  148.9241  140.0599  156.4057 H   0  0  0  0  0  0  0  0  0  0  0  0
  150.2121  139.7994  155.2295 H   0  0  0  0  0  0  0  0  0  0  0  0
  149.8315  142.0129  157.2230 H   0  0  0  0  0  0  0  0  0  0  0  0
  149.8791  143.4522  155.6984 H   0  0  0  0  0  0  0  0  0  0  0  0
  151.8534  140.1547  156.6303 H   0  0  0  0  0  0  0  0  0  0  0  0
  152.4905  141.5925  155.8960 H   0  0  0  0  0  0  0  0  0  0  0  0
  153.1153  141.5455  162.1008 H   0  0  0  0  0  0  0  0  0  0  0  0
  154.6727  141.8687  161.3309 H   0  0  0  0  0  0  0  0  0  0  0  0
  153.9663  140.2518  161.2599 H   0  0  0  0  0  0  0  0  0  0  0  0
  152.8387  144.0966  161.6131 H   0  0  0  0  0  0  0  0  0  0  0  0
  151.6678  146.1230  160.7107 H   0  0  0  0  0  0  0  0  0  0  0  0
  150.6773  146.0943  158.4302 H   0  0  0  0  0  0  0  0  0  0  0  0
  150.8390  144.0449  156.9993 H   0  0  0  0  0  0  0  0  0  0  0  0
  147.7660  141.5144  157.2483 H   0  0  0  0  0  0  0  0  0  0  0  0
  145.8013  142.7944  157.8404 H   0  0  0  0  0  0  0  0  0  0  0  0
  1  2  1  0  0  0  0
  1 25  1  0  0  0  0
  1 26  1  0  0  0  0
  1 27  1  0  0  0  0
  2  3  1  0  0  0  0
  3 24  1  0  0  0  0
  3  4  2  0  0  0  0
  4  5  1  0  0  0  0
  4 28  1  0  0  0  0
  5  6  2  0  0  0  0
  5 29  1  0  0  0  0
  6  7  1  0  0  0  0
  6 23  1  0  0  0  0
  7  8  1  0  0  0  0
  8  9  1  0  0  0  0
  8 30  1  0  0  0  0
  8 31  1  0  0  0  0
  9 10  1  0  0  0  0
  9 11  1  0  0  0  0
  9 32  1  0  0  0  0
 10 33  1  0  0  0  0
 11 12  1  0  0  0  0
 11 34  1  0  0  0  0
 11 35  1  0  0  0  0
 12 22  1  0  0  0  0
 12 13  1  0  0  0  0
 13 14  2  0  0  0  0
 13 15  1  0  0  0  0
 15 16  1  0  0  0  0
 15 17  1  0  0  0  0
 16 36  1  0  0  0  0
 16 37  1  0  0  0  0
 16 38  1  0  0  0  0
 17 22  2  0  0  0  0
 17 18  1  0  0  0  0
 18 19  2  0  0  0  0
 18 39  1  0  0  0  0
 19 20  1  0  0  0  0
 19 40  1  0  0  0  0
 20 21  2  0  0  0  0
 20 41  1  0  0  0  0
 21 22  1  0  0  0  0
 21 42  1  0  0  0  0
 23 24  2  0  0  0  0
 23 43  1  0  0  0  0
 24 44  1  0  0  0  0
M  END
> <s_m_source_file>
AV-unprocessed.smi

> <i_m_source_file_index>
419

> <i_lp_mmshare_version>
43012

> <i_f3d_flags>
0

> <s_epik_input>
W0NIM11PYzFbY0hdW2NIXWMoW2NIXVtjSF0xKU9bQ0gyXVtDQEhdKFtPSF0pW0NIMl1uKGMoPU8pbjJbQ0gzXSljKGMyMylbY0hdW2NIXVtjSF1bY0hdMw==

> <s_epik_cmdline>
J2VwaWtfcHl0aG9uJywgJy1waCcsICc3LjAnLCAnLXRuJywgJzgnLCAnLW1hJywgJzIwMCcsICctbWV0YWxfYmluZGluZycsICctaW1hZScsICc8aW5maWxlLm1hZT4nLCAnLW9tYWUnLCAnPG91dGZpbGUubWFlPic=

> <r_lp_tautomer_probability>
1

> <r_epik_Ionization_Penalty>
2.40131e-06

> <r_epik_Ionization_Penalty_Charging>
2.01037e-09

> <r_epik_Ionization_Penalty_Neutral>
2.3993e-06

> <r_epik_State_Penalty>
-0

> <r_epik_Charging_Adjusted_Penalty>
2.01037e-09

> <i_epik_Tot_Q>
0

> <i_epik_Tot_abs_Q>
0

> <r_epik_Metal_State_Penalty>
-0

> <b_epik_Metal_Only>
0

> <s_lp_Force_Field>
OPLS_2005

> <r_lp_Energy>
51.0107

> <b_lp_Chiralities_Consistent>
1

> <s_lp_Variant>
AV-unprocessed.smi:419-1

> <Gold.Version>
5.8.1

> <Gold.Id.Protein>
6NUR|6NUR_protein|mol2

> <Gold.PLP.Fitness>
50.2824

> <Gold.PLP.PLP>
-48.5365

> <Gold.PLP.part.hbond>
-2.2885

> <Gold.PLP.part.metal>
0.0000

> <Gold.PLP.part.buried>
-4.5652

> <Gold.PLP.part.nonpolar>
-41.2697

> <Gold.PLP.part.repulsive>
0.2027

> <Gold.PLP.ligand.clash>
0.3876

> <Gold.PLP.ligand.torsion>
1.7718

> <Gold.PLP.Chemscore.Hbond>
1.7638

> <Gold.PLP.Chemscore.CHOScore>
0.0000

> <Gold.PLP.Chemscore.Metal>
0.0000

> <Gold.Chemscore.Hbonds>
donor molecule, donor type, donor heavy atom, donor atom, acceptor molecule, acceptor atom, score
      L1  H    10    33       P1  8028  1.00
      P1  H  7997  8010       L1    14  0.57

> <Gold.PLP.Chemscore.Internal.Correction>
0.3859

> <Gold.Rescore>
     Score         DG    S(hbond)    S(metal)    S(lipo)     H(rot)  DE(clash)    DE(int)     intcor
     13.54     -16.47       0.98        0.00     118.47       2.40       0.07       2.86       ----

> <Gold.Chemscore.Fitness>
13.5447

> <Gold.Chemscore.DG>
-16.4655

> <Gold.Chemscore.ZeroCoef>
-5.4800

> <Gold.Chemscore.Hbond>
0.9750

> <Gold.Chemscore.Metal>
0.0000

> <Gold.Chemscore.Lipo>
118.4670

> <Gold.Chemscore.Internal_Hbond>
0.0000

> <Gold.Chemscore.DEClash>
0.0650

> <Gold.Chemscore.DEInternal>
2.8558

> <Gold.Chemscore.Rot>
2.3952

> <Gold.Chemscore.Internal.Correction>
   9.000000E+99

> <Gold.Chemscore.Hbonds>
donor molecule, donor type, donor heavy atom, donor atom, acceptor molecule, acceptor atom, score
      L1  H    10    33       P1  8028  0.98
      P1  H  7997  8010       L1    14  0.17

> <Gold.Chemscore.Hbond.Weighted>
-3.2565

> <Gold.Chemscore.Metal.Weighted>
-0.0000

> <Gold.Chemscore.Lipo.Weighted>
-13.8606

> <Gold.Chemscore.Internal_Hbond.Weighted>
0.0000

> <Gold.Chemscore.DEClash.Weighted>
0.0650

> <Gold.Chemscore.DEInternal.Weighted>
2.8558

> <Gold.Chemscore.Rot.Weighted>
6.1316

> <Gold.Chemscore.Internal.Correction.Weighted>
   9.000000E+99

> <Gold.Protein.RotatedTorsions>
[ 6907 6896 6895 6894 ] final -138.78 input  -60.11 | X-H torsion
[ 7974 7965 7964 7962 ] final   -0.13 input  175.53 | X-H torsion
[ 8008 7997 7996 7995 ] final   17.93 input   59.86 | X-H torsion
[ 10167 10162 10161 10158 ] final -137.17 input  -65.29 | X-H torsion
[ 10718 10713 10712 10709 ] final  135.21 input   66.30 | X-H torsion
[ 10763 10752 10751 10750 ] final   82.70 input  -60.55 | X-H torsion
[ 11005 11000 10999 10996 ] final   17.48 input  -57.11 | X-H torsion

> <Gold.Protein.ActiveResidues>
 VAL166  LYS551  ARG553  GLY616  TRP617  ASP618  TYR619  PRO620  LYS621  CYS622 
 ASP623  PHE694  ASN695  SER759  ASP760  ASP761  ALA762  ILE779  LEU786  VAL792 
 PHE793  MET794  SER795  GLU796  ALA797  LYS798  CYS799  TRP800  GLU811  SER814 

> <Gold.Protein.RotatedAtoms>
  151.0394  133.5719  159.2652 H   0  0  0  0  0  0  0  0  0  0  0  0  # atno 6907 bound_to 6896
  151.2772  135.0702  159.9165 H   0  0  0  0  0  0  0  0  0  0  0  0  # atno 6908 bound_to 6896
  152.5361  134.0114  159.7994 H   0  0  0  0  0  0  0  0  0  0  0  0  # atno 6909 bound_to 6896
  146.2430  140.1223  142.8340 H   0  0  0  0  0  0  0  0  0  0  0  0  # atno 7974 bound_to 7965
  154.8986  140.2997  155.5330 H   0  0  0  0  0  0  0  0  0  0  0  0  # atno 8008 bound_to 7997
  156.3019  140.2411  156.3946 H   0  0  0  0  0  0  0  0  0  0  0  0  # atno 8009 bound_to 7997
  154.8544  140.0408  157.1614 H   0  0  0  0  0  0  0  0  0  0  0  0  # atno 8010 bound_to 7997
  139.8604  143.7084  152.2650 H   0  0  0  0  0  0  0  0  0  0  0  0  # atno 10167 bound_to 10162
  157.4594  131.1072  150.9938 H   0  0  0  0  0  0  0  0  0  0  0  0  # atno 10718 bound_to 10713
  153.1226  135.4718  154.9220 H   0  0  0  0  0  0  0  0  0  0  0  0  # atno 10763 bound_to 10752
  154.7590  135.3126  154.8418 H   0  0  0  0  0  0  0  0  0  0  0  0  # atno 10764 bound_to 10752
  153.8979  135.6878  153.4810 H   0  0  0  0  0  0  0  0  0  0  0  0  # atno 10765 bound_to 10752
  140.4355  134.1376  155.7685 H   0  0  0  0  0  0  0  0  0  0  0  0  # atno 11005 bound_to 11000
  145.0396  140.8935  143.5061 LP  0  0  0  0  0  0  0  0  0  0  0  0  # atno 17320 bound_to 7965
  145.1301  139.2637  143.5543 LP  0  0  0  0  0  0  0  0  0  0  0  0  # atno 17321 bound_to 7965
  139.7379  144.7567  151.0698 LP  0  0  0  0  0  0  0  0  0  0  0  0  # atno 17342 bound_to 10162
  140.7776  143.5008  150.9774 LP  0  0  0  0  0  0  0  0  0  0  0  0  # atno 17343 bound_to 10162
  157.0741  130.5876  149.5408 LP  0  0  0  0  0  0  0  0  0  0  0  0  # atno 17370 bound_to 10713
  156.0022  130.5103  150.7703 LP  0  0  0  0  0  0  0  0  0  0  0  0  # atno 17371 bound_to 10713
  141.1728  133.8575  157.1518 LP  0  0  0  0  0  0  0  0  0  0  0  0  # atno 17394 bound_to 11000
  140.0105  134.9990  157.0385 LP  0  0  0  0  0  0  0  0  0  0  0  0  # atno 17395 bound_to 11000

$$$$
