AV-unprocessed.smi:1971|AV-procd|sdf|7973|dock7
  -GOLD-   2272010143D 1   1.00000     0.00000
 Structure written by MMmdl.
 42 43  0  0  0  0  0  0  0  0  2 V2000
  151.7781  145.2910  159.7958 C   0  0  0  0  0  0  0  0  0  0  0  0
  152.4935  143.9336  159.8502 C   0  0  0  0  0  0  0  0  0  0  0  0
  151.7300  142.8140  159.3031 N   0  0  0  0  0  0  0  0  0  0  0  0
  152.4139  141.5328  159.4731 C   0  0  0  0  0  0  0  0  0  0  0  0
  151.5946  140.3674  158.8872 C   0  0  0  0  0  0  0  0  0  0  0  0
  151.3174  140.5363  157.4521 N   0  0  0  0  0  0  0  0  0  0  0  0
  150.5213  139.4207  156.8865 C   0  0  1  0  0  0  0  0  0  0  0  0
  150.0611  139.6944  155.4317 C   0  0  0  0  0  0  0  0  0  0  0  0
  151.2578  138.0514  156.9391 C   0  0  0  0  0  0  0  0  0  0  0  0
  150.4360  136.9830  157.5060 N   0  0  0  0  0  0  0  0  0  0  0  0
  150.0049  136.8904  158.7726 C   0  0  0  0  0  0  0  0  0  0  0  0
  150.2901  137.7688  159.5897 O   0  0  0  0  0  0  0  0  0  0  0  0
  149.2781  135.7760  159.0167 N   0  5  0  0  0  0  0  0  0  0  0  0
  148.5467  135.6822  160.1390 C   0  0  0  0  0  0  0  0  0  0  0  0
  148.2832  136.7306  160.9273 N   0  0  0  0  0  0  0  0  0  0  0  0
  147.4987  136.4077  162.0360 C   0  0  0  0  0  0  0  0  0  0  0  0
  147.1490  135.0844  162.0884 C   0  0  0  0  0  0  0  0  0  0  0  0
  147.7972  134.1991  160.7376 S   0  0  0  0  0  0  0  0  0  0  0  0
  150.6560  141.8404  157.2876 C   0  0  0  0  0  0  0  0  0  0  0  0
  151.4821  142.9981  157.8765 C   0  0  0  0  0  0  0  0  0  0  0  0
  152.4472  146.0888  160.1187 H   0  0  0  0  0  0  0  0  0  0  0  0
  150.9049  145.3183  160.4471 H   0  0  0  0  0  0  0  0  0  0  0  0
  151.4523  145.5232  158.7817 H   0  0  0  0  0  0  0  0  0  0  0  0
  153.4227  144.0328  159.2875 H   0  0  0  0  0  0  0  0  0  0  0  0
  152.7876  143.7168  160.8782 H   0  0  0  0  0  0  0  0  0  0  0  0
  153.3957  141.5650  158.9982 H   0  0  0  0  0  0  0  0  0  0  0  0
  152.5851  141.3350  160.5306 H   0  0  0  0  0  0  0  0  0  0  0  0
  152.1727  139.4627  159.0625 H   0  0  0  0  0  0  0  0  0  0  0  0
  150.6597  140.2594  159.4395 H   0  0  0  0  0  0  0  0  0  0  0  0
  149.6176  139.3160  157.4889 H   0  0  0  0  0  0  0  0  0  0  0  0
  149.4923  138.8652  155.0140 H   0  0  0  0  0  0  0  0  0  0  0  0
  150.9136  139.8706  154.7750 H   0  0  0  0  0  0  0  0  0  0  0  0
  149.3940  140.5515  155.3590 H   0  0  0  0  0  0  0  0  0  0  0  0
  151.6362  137.7891  155.9499 H   0  0  0  0  0  0  0  0  0  0  0  0
  152.1255  138.0965  157.5940 H   0  0  0  0  0  0  0  0  0  0  0  0
  150.1747  136.2361  156.8795 H   0  0  0  0  0  0  0  0  0  0  0  0
  147.2353  137.1843  162.7385 H   0  0  0  0  0  0  0  0  0  0  0  0
  146.5524  134.5793  162.8328 H   0  0  0  0  0  0  0  0  0  0  0  0
  150.5090  142.0662  156.2334 H   0  0  0  0  0  0  0  0  0  0  0  0
  149.6676  141.8205  157.7492 H   0  0  0  0  0  0  0  0  0  0  0  0
  150.9469  143.9345  157.7144 H   0  0  0  0  0  0  0  0  0  0  0  0
  152.4280  143.0837  157.3387 H   0  0  0  0  0  0  0  0  0  0  0  0
  1  2  1  0  0  0  0
  1 21  1  0  0  0  0
  1 22  1  0  0  0  0
  1 23  1  0  0  0  0
  2  3  1  0  0  0  0
  2 24  1  0  0  0  0
  2 25  1  0  0  0  0
  3 20  1  0  0  0  0
  3  4  1  0  0  0  0
  4  5  1  0  0  0  0
  4 26  1  0  0  0  0
  4 27  1  0  0  0  0
  5  6  1  0  0  0  0
  5 28  1  0  0  0  0
  5 29  1  0  0  0  0
  6  7  1  0  0  0  0
  6 19  1  0  0  0  0
  7  8  1  0  0  0  0
  7  9  1  0  0  0  0
  7 30  1  0  0  0  0
  8 31  1  0  0  0  0
  8 32  1  0  0  0  0
  8 33  1  0  0  0  0
  9 10  1  0  0  0  0
  9 34  1  0  0  0  0
  9 35  1  0  0  0  0
 10 11  1  0  0  0  0
 10 36  1  0  0  0  0
 11 12  2  0  0  0  0
 11 13  1  0  0  0  0
 13 14  1  0  0  0  0
 14 18  1  0  0  0  0
 14 15  2  0  0  0  0
 15 16  1  0  0  0  0
 16 17  2  0  0  0  0
 16 37  1  0  0  0  0
 17 18  1  0  0  0  0
 17 38  1  0  0  0  0
 19 20  1  0  0  0  0
 19 39  1  0  0  0  0
 19 40  1  0  0  0  0
 20 41  1  0  0  0  0
 20 42  1  0  0  0  0
M  CHG  1  13  -1
M  END
> <s_m_source_file>
AV-unprocessed.smi

> <i_m_source_file_index>
1971

> <i_lp_mmshare_version>
43012

> <i_f3d_flags>
0

> <s_epik_input>
W0NIM11bQ0gyXU4xW0NIMl1bQ0gyXU4oW0NIMl1bQ0gyXTEpW0NASF0oW0NIM10pW0NIMl1bTkhdQyg9TylbTkhdYzJuW2NIXVtjSF1zMg==

> <s_epik_cmdline>
J2VwaWtfcHl0aG9uJywgJy1waCcsICc3LjAnLCAnLXRuJywgJzgnLCAnLW1hJywgJzIwMCcsICctbWV0YWxfYmluZGluZycsICctaW1hZScsICc8aW5maWxlLm1hZT4nLCAnLW9tYWUnLCAnPG91dGZpbGUubWFlPic=

> <r_lp_tautomer_probability>
0.999

> <r_epik_Ionization_Penalty>
9.52272

> <r_epik_Ionization_Penalty_Charging>
5.92713

> <r_epik_Ionization_Penalty_Neutral>
3.59559

> <r_epik_State_Penalty>
7.69531

> <r_epik_Charging_Adjusted_Penalty>
13.6224

> <i_epik_Tot_Q>
-1

> <i_epik_Tot_abs_Q>
1

> <r_epik_Metal_State_Penalty>
3.66212

> <b_epik_Metal_Only>
1

> <s_lp_Force_Field>
OPLS_2005

> <r_lp_Energy>
38.2579

> <b_lp_Chiralities_Consistent>
1

> <s_lp_Variant>
AV-unprocessed.smi:1971-12

> <Gold.Version>
5.8.1

> <Gold.Id.Protein>
6NUR|6NUR_protein|mol2

> <Gold.PLP.Fitness>
43.0326

> <Gold.PLP.PLP>
-36.5896

> <Gold.PLP.part.hbond>
-3.6703

> <Gold.PLP.part.metal>
0.0000

> <Gold.PLP.part.buried>
-5.5235

> <Gold.PLP.part.nonpolar>
-29.0504

> <Gold.PLP.part.repulsive>
0.0606

> <Gold.PLP.ligand.clash>
0.0000

> <Gold.PLP.ligand.torsion>
0.8161

> <Gold.PLP.Chemscore.Hbond>
2.6686

> <Gold.PLP.Chemscore.CHOScore>
0.0000

> <Gold.PLP.Chemscore.Metal>
0.0000

> <Gold.Chemscore.Hbonds>
donor molecule, donor type, donor heavy atom, donor atom, acceptor molecule, acceptor atom, score
      P1  H  6896  6907       L1    13  1.70
      P1  H  6931  6943       L1    15  0.50

> <Gold.PLP.Chemscore.Internal.Correction>
0.0693

> <Gold.Rescore>
     Score         DG    S(hbond)    S(metal)    S(lipo)     H(rot)  DE(clash)    DE(int)     intcor
     11.06     -13.54       0.38        0.00      95.37       1.70       0.07       2.42       ----

> <Gold.Chemscore.Fitness>
11.0551

> <Gold.Chemscore.DG>
-13.5410

> <Gold.Chemscore.ZeroCoef>
-5.4800

> <Gold.Chemscore.Hbond>
0.3785

> <Gold.Chemscore.Metal>
0.0000

> <Gold.Chemscore.Lipo>
95.3700

> <Gold.Chemscore.Internal_Hbond>
0.0000

> <Gold.Chemscore.DEClash>
0.0655

> <Gold.Chemscore.DEInternal>
2.4204

> <Gold.Chemscore.Rot>
1.7037

> <Gold.Chemscore.Internal.Correction>
   9.000000E+99

> <Gold.Chemscore.Hbonds>
donor molecule, donor type, donor heavy atom, donor atom, acceptor molecule, acceptor atom, score
      P1  H  6896  6907       L1    13  0.05
      P1  H  6931  6943       L1    15  0.02

> <Gold.Chemscore.Hbond.Weighted>
-1.2641

> <Gold.Chemscore.Metal.Weighted>
-0.0000

> <Gold.Chemscore.Lipo.Weighted>
-11.1583

> <Gold.Chemscore.Internal_Hbond.Weighted>
0.0000

> <Gold.Chemscore.DEClash.Weighted>
0.0655

> <Gold.Chemscore.DEInternal.Weighted>
2.4204

> <Gold.Chemscore.Rot.Weighted>
4.3614

> <Gold.Chemscore.Internal.Correction.Weighted>
   9.000000E+99

> <Gold.Protein.RotatedTorsions>
[ 6907 6896 6895 6894 ] final  -76.79 input  -60.11 | X-H torsion
[ 7974 7965 7964 7962 ] final  -71.86 input  175.53 | X-H torsion
[ 8008 7997 7996 7995 ] final -100.65 input   59.86 | X-H torsion
[ 10167 10162 10161 10158 ] final  -81.47 input  -65.29 | X-H torsion
[ 10718 10713 10712 10709 ] final  141.97 input   66.30 | X-H torsion
[ 10763 10752 10751 10750 ] final  165.50 input  -60.55 | X-H torsion
[ 11005 11000 10999 10996 ] final  -95.89 input  -57.11 | X-H torsion

> <Gold.Protein.ActiveResidues>
 VAL166  LYS551  ARG553  GLY616  TRP617  ASP618  TYR619  PRO620  LYS621  CYS622 
 ASP623  PHE694  ASN695  SER759  ASP760  ASP761  ALA762  ILE779  LEU786  VAL792 
 PHE793  MET794  SER795  GLU796  ALA797  LYS798  CYS799  TRP800  GLU811  SER814 

> <Gold.Protein.RotatedAtoms>
  150.7017  134.4520  159.5340 H   0  0  0  0  0  0  0  0  0  0  0  0  # atno 6907 bound_to 6896
  152.2210  134.8410  160.0495 H   0  0  0  0  0  0  0  0  0  0  0  0  # atno 6908 bound_to 6896
  151.9260  133.3563  159.3950 H   0  0  0  0  0  0  0  0  0  0  0  0  # atno 6909 bound_to 6896
  145.6727  140.9215  143.0874 H   0  0  0  0  0  0  0  0  0  0  0  0  # atno 7974 bound_to 7965
  154.8316  140.0439  157.1481 H   0  0  0  0  0  0  0  0  0  0  0  0  # atno 8008 bound_to 7997
  154.9146  140.3018  155.5228 H   0  0  0  0  0  0  0  0  0  0  0  0  # atno 8009 bound_to 7997
  156.2987  140.2352  156.4189 H   0  0  0  0  0  0  0  0  0  0  0  0  # atno 8010 bound_to 7997
  140.4409  143.2515  151.8627 H   0  0  0  0  0  0  0  0  0  0  0  0  # atno 10167 bound_to 10162
  157.3859  131.0998  151.0694 H   0  0  0  0  0  0  0  0  0  0  0  0  # atno 10718 bound_to 10713
  154.3250  135.2755  155.2501 H   0  0  0  0  0  0  0  0  0  0  0  0  # atno 10763 bound_to 10752
  154.4838  135.5851  153.6412 H   0  0  0  0  0  0  0  0  0  0  0  0  # atno 10764 bound_to 10752
  152.9872  135.6118  154.3437 H   0  0  0  0  0  0  0  0  0  0  0  0  # atno 10765 bound_to 10752
  141.1428  133.8059  157.0497 H   0  0  0  0  0  0  0  0  0  0  0  0  # atno 11005 bound_to 11000
  144.7052  139.8593  143.7432 LP  0  0  0  0  0  0  0  0  0  0  0  0  # atno 17320 bound_to 7965
  146.1032  139.4029  143.0334 LP  0  0  0  0  0  0  0  0  0  0  0  0  # atno 17321 bound_to 7965
  139.4789  144.5230  151.8775 LP  0  0  0  0  0  0  0  0  0  0  0  0  # atno 17342 bound_to 10162
  140.4319  144.2104  150.5888 LP  0  0  0  0  0  0  0  0  0  0  0  0  # atno 17343 bound_to 10162
  157.1746  130.6282  149.5651 LP  0  0  0  0  0  0  0  0  0  0  0  0  # atno 17370 bound_to 10713
  155.9786  130.4774  150.6668 LP  0  0  0  0  0  0  0  0  0  0  0  0  # atno 17371 bound_to 10713
  140.0639  134.9739  157.1353 LP  0  0  0  0  0  0  0  0  0  0  0  0  # atno 17394 bound_to 11000
  140.3807  134.2290  155.7171 LP  0  0  0  0  0  0  0  0  0  0  0  0  # atno 17395 bound_to 11000

$$$$
