AV-unprocessed.smi:1268|AV-procd|sdf|5325|dock4
  -GOLD-   22720 4453D 1   1.00000     0.00000
 Structure written by MMmdl.
 39 40  0  0  0  0  0  0  0  0  3 V2000
  150.0456  136.1515  159.1015 O   0  0  0  0  0  0  0  0  0  0  0  0
  148.8979  136.2744  158.6683 C   0  0  0  0  0  0  0  0  0  0  0  0
  148.6380  136.0104  157.3816 N   0  0  0  0  0  0  0  0  0  0  0  0
  149.6147  135.5532  156.4012 C   0  0  0  0  0  0  0  0  0  0  0  0
  149.0548  135.6846  154.9751 C   0  0  2  0  0  0  0  0  0  0  0  0
  148.8389  137.0581  154.7141 O   0  0  0  0  0  0  0  0  0  0  0  0
  147.6990  134.9649  154.8323 C   0  0  0  0  0  0  0  0  0  0  0  0
  147.0586  135.2116  153.5148 N   0  3  0  0  0  0  0  0  0  0  0  0
  146.0353  136.2872  153.5780 C   0  0  0  0  0  0  0  0  0  0  0  0
  145.4976  136.6259  152.1774 C   0  0  0  0  0  0  0  0  0  0  0  0
  144.9319  135.3773  151.4892 C   0  0  0  0  0  0  0  0  0  0  0  0
  145.9909  134.2679  151.4654 C   0  0  0  0  0  0  0  0  0  0  0  0
  146.5194  133.9785  152.8807 C   0  0  0  0  0  0  0  0  0  0  0  0
  147.8099  136.6608  159.3715 N   0  5  0  0  0  0  0  0  0  0  0  0
  147.6798  136.3023  160.6594 C   0  0  0  0  0  0  0  0  0  0  0  0
  147.5825  137.1879  161.6575 N   0  0  0  0  0  0  0  0  0  0  0  0
  147.4470  136.5951  162.9143 C   0  0  0  0  0  0  0  0  0  0  0  0
  147.4311  135.2263  162.8714 C   0  0  0  0  0  0  0  0  0  0  0  0
  147.5876  134.6373  161.2410 S   0  0  0  0  0  0  0  0  0  0  0  0
  147.6868  136.1305  157.0664 H   0  0  0  0  0  0  0  0  0  0  0  0
  150.5012  136.1792  156.5114 H   0  0  0  0  0  0  0  0  0  0  0  0
  149.9261  134.5263  156.6018 H   0  0  0  0  0  0  0  0  0  0  0  0
  149.7780  135.2886  154.2621 H   0  0  0  0  0  0  0  0  0  0  0  0
  148.8390  137.1867  153.7768 H   0  0  0  0  0  0  0  0  0  0  0  0
  147.8157  133.8901  154.9790 H   0  0  0  0  0  0  0  0  0  0  0  0
  147.0425  135.3090  155.6336 H   0  0  0  0  0  0  0  0  0  0  0  0
  145.2188  135.9766  154.2319 H   0  0  0  0  0  0  0  0  0  0  0  0
  146.4709  137.1852  154.0177 H   0  0  0  0  0  0  0  0  0  0  0  0
  144.7265  137.3935  152.2495 H   0  0  0  0  0  0  0  0  0  0  0  0
  146.2990  137.0479  151.5697 H   0  0  0  0  0  0  0  0  0  0  0  0
  144.0459  135.0309  152.0229 H   0  0  0  0  0  0  0  0  0  0  0  0
  144.6128  135.6174  150.4744 H   0  0  0  0  0  0  0  0  0  0  0  0
  145.5691  133.3607  151.0318 H   0  0  0  0  0  0  0  0  0  0  0  0
  146.8183  134.5640  150.8191 H   0  0  0  0  0  0  0  0  0  0  0  0
  147.2917  133.2129  152.8186 H   0  0  0  0  0  0  0  0  0  0  0  0
  145.7202  133.5695  153.5010 H   0  0  0  0  0  0  0  0  0  0  0  0
  147.3662  137.2255  163.7873 H   0  0  0  0  0  0  0  0  0  0  0  0
  147.3362  134.5325  163.6928 H   0  0  0  0  0  0  0  0  0  0  0  0
  147.7913  135.5587  152.9118 H   0  0  0  0  0  0  0  0  0  0  0  0
  1  2  2  0  0  0  0
  2  3  1  0  0  0  0
  2 14  1  0  0  0  0
  3  4  1  0  0  0  0
  3 20  1  0  0  0  0
  4  5  1  0  0  0  0
  4 21  1  0  0  0  0
  4 22  1  0  0  0  0
  5  6  1  0  0  0  0
  5  7  1  0  0  0  0
  5 23  1  0  0  0  0
  6 24  1  0  0  0  0
  7  8  1  0  0  0  0
  7 25  1  0  0  0  0
  7 26  1  0  0  0  0
  8 13  1  0  0  0  0
  8  9  1  0  0  0  0
  8 39  1  0  0  0  0
  9 10  1  0  0  0  0
  9 27  1  0  0  0  0
  9 28  1  0  0  0  0
 10 11  1  0  0  0  0
 10 29  1  0  0  0  0
 10 30  1  0  0  0  0
 11 12  1  0  0  0  0
 11 31  1  0  0  0  0
 11 32  1  0  0  0  0
 12 13  1  0  0  0  0
 12 33  1  0  0  0  0
 12 34  1  0  0  0  0
 13 35  1  0  0  0  0
 13 36  1  0  0  0  0
 14 15  1  0  0  0  0
 15 19  1  0  0  0  0
 15 16  2  0  0  0  0
 16 17  1  0  0  0  0
 17 18  2  0  0  0  0
 17 37  1  0  0  0  0
 18 19  1  0  0  0  0
 18 38  1  0  0  0  0
M  CHG  1   8   1
M  CHG  1  14  -1
M  END
> <s_m_source_file>
AV-unprocessed.smi

> <i_m_source_file_index>
1268

> <i_lp_mmshare_version>
43012

> <i_f3d_flags>
0

> <s_epik_input>
czFbY0hdW2NIXW5jMVtOSF1DKD1PKVtOSF1bQ0gyXVtDQEhdKFtPSF0pW0NIMl1OMltDSDJdW0NIMl1bQ0gyXVtDSDJdW0NIMl0y

> <s_epik_cmdline>
J2VwaWtfcHl0aG9uJywgJy1waCcsICc3LjAnLCAnLXRuJywgJzgnLCAnLW1hJywgJzIwMCcsICctbWV0YWxfYmluZGluZycsICctaW1hZScsICc8aW5maWxlLm1hZT4nLCAnLW9tYWUnLCAnPG91dGZpbGUubWFlPic=

> <r_lp_tautomer_probability>
0.999

> <r_epik_Ionization_Penalty>
6.36291

> <r_epik_Ionization_Penalty_Charging>
5.4816

> <r_epik_Ionization_Penalty_Neutral>
0.881305

> <r_epik_State_Penalty>
5.4805

> <r_epik_Charging_Adjusted_Penalty>
10.9621

> <i_epik_Tot_Q>
0

> <i_epik_Tot_abs_Q>
2

> <r_epik_Metal_State_Penalty>
1.48871

> <b_epik_Metal_Only>
1

> <s_lp_Force_Field>
OPLS_2005

> <r_lp_Energy>
11.3564

> <b_lp_Chiralities_Consistent>
1

> <s_lp_Variant>
AV-unprocessed.smi:1268-3

> <Gold.Version>
5.8.1

> <Gold.Id.Protein>
6NUR|6NUR_protein|mol2

> <Gold.PLP.Fitness>
45.6677

> <Gold.PLP.PLP>
-31.1343

> <Gold.PLP.part.hbond>
-5.0000

> <Gold.PLP.part.metal>
0.0000

> <Gold.PLP.part.buried>
-3.5786

> <Gold.PLP.part.nonpolar>
-22.8251

> <Gold.PLP.part.repulsive>
0.0392

> <Gold.PLP.ligand.clash>
0.0000

> <Gold.PLP.ligand.torsion>
1.5191

> <Gold.PLP.Chemscore.Hbond>
5.8080

> <Gold.PLP.Chemscore.CHOScore>
0.0000

> <Gold.PLP.Chemscore.Metal>
0.0000

> <Gold.Chemscore.Hbonds>
donor molecule, donor type, donor heavy atom, donor atom, acceptor molecule, acceptor atom, score
      L1  H     6    24       P1  7948  0.68
      L1  H     8    39       P1  7948  2.00
      P1  H  6896  6909       L1     1  1.00
      P1  H  6931  6943       L1    16  0.98
      P1  H  6934  6947       L1    16  0.77

> <Gold.PLP.Chemscore.Internal.Correction>
0.1475

> <Gold.Rescore>
     Score         DG    S(hbond)    S(metal)    S(lipo)     H(rot)  DE(clash)    DE(int)     intcor
     17.81     -19.26       3.93        0.00      59.88       2.48       0.00       1.44       ----

> <Gold.Chemscore.Fitness>
17.8101

> <Gold.Chemscore.DG>
-19.2575

> <Gold.Chemscore.ZeroCoef>
-5.4800

> <Gold.Chemscore.Hbond>
3.9308

> <Gold.Chemscore.Metal>
0.0000

> <Gold.Chemscore.Lipo>
59.8810

> <Gold.Chemscore.Internal_Hbond>
0.0000

> <Gold.Chemscore.DEClash>
0.0038

> <Gold.Chemscore.DEInternal>
1.4435

> <Gold.Chemscore.Rot>
2.4834

> <Gold.Chemscore.Internal.Correction>
   9.000000E+99

> <Gold.Chemscore.Hbonds>
donor molecule, donor type, donor heavy atom, donor atom, acceptor molecule, acceptor atom, score
      L1  H     6    24       P1  7948  0.67
      L1  H     8    39       P1  7948  1.00
      P1  H  6896  6909       L1     1  0.97
      P1  H  6931  6943       L1    16  0.26
      P1  H  6934  6947       L1    16  0.58

> <Gold.Chemscore.Hbond.Weighted>
-13.1289

> <Gold.Chemscore.Metal.Weighted>
-0.0000

> <Gold.Chemscore.Lipo.Weighted>
-7.0061

> <Gold.Chemscore.Internal_Hbond.Weighted>
0.0000

> <Gold.Chemscore.DEClash.Weighted>
0.0038

> <Gold.Chemscore.DEInternal.Weighted>
1.4435

> <Gold.Chemscore.Rot.Weighted>
6.3575

> <Gold.Chemscore.Internal.Correction.Weighted>
   9.000000E+99

> <Gold.Protein.RotatedTorsions>
[ 6907 6896 6895 6894 ] final   57.82 input  -60.11 | X-H torsion
[ 7974 7965 7964 7962 ] final   24.71 input  175.53 | X-H torsion
[ 8008 7997 7996 7995 ] final -124.15 input   59.86 | X-H torsion
[ 10167 10162 10161 10158 ] final  151.14 input  -65.29 | X-H torsion
[ 10718 10713 10712 10709 ] final   17.12 input   66.30 | X-H torsion
[ 10763 10752 10751 10750 ] final -132.17 input  -60.55 | X-H torsion
[ 11005 11000 10999 10996 ] final  -13.50 input  -57.11 | X-H torsion

> <Gold.Protein.ActiveResidues>
 VAL166  LYS551  ARG553  GLY616  TRP617  ASP618  TYR619  PRO620  LYS621  CYS622 
 ASP623  PHE694  ASN695  SER759  ASP760  ASP761  ALA762  ILE779  LEU786  VAL792 
 PHE793  MET794  SER795  GLU796  ALA797  LYS798  CYS799  TRP800  GLU811  SER814 

> <Gold.Protein.RotatedAtoms>
  152.3767  134.6653  160.0157 H   0  0  0  0  0  0  0  0  0  0  0  0  # atno 6907 bound_to 6896
  151.6929  133.3305  159.3255 H   0  0  0  0  0  0  0  0  0  0  0  0  # atno 6908 bound_to 6896
  150.7715  134.6618  159.6388 H   0  0  0  0  0  0  0  0  0  0  0  0  # atno 6909 bound_to 6896
  146.1924  139.7567  142.8822 H   0  0  0  0  0  0  0  0  0  0  0  0  # atno 7974 bound_to 7965
  155.1921  140.0413  157.2902 H   0  0  0  0  0  0  0  0  0  0  0  0  # atno 8008 bound_to 7997
  154.6131  140.2482  155.7615 H   0  0  0  0  0  0  0  0  0  0  0  0  # atno 8009 bound_to 7997
  156.2391  140.2910  156.0403 H   0  0  0  0  0  0  0  0  0  0  0  0  # atno 8010 bound_to 7997
  139.4843  144.5465  151.7475 H   0  0  0  0  0  0  0  0  0  0  0  0  # atno 10167 bound_to 10162
  157.0776  130.6374  149.5819 H   0  0  0  0  0  0  0  0  0  0  0  0  # atno 10718 bound_to 10713
  154.8745  135.3806  154.4366 H   0  0  0  0  0  0  0  0  0  0  0  0  # atno 10763 bound_to 10752
  153.5055  135.7030  153.5814 H   0  0  0  0  0  0  0  0  0  0  0  0  # atno 10764 bound_to 10752
  153.4126  135.3921  155.2026 H   0  0  0  0  0  0  0  0  0  0  0  0  # atno 10765 bound_to 10752
  140.7768  133.8395  155.9256 H   0  0  0  0  0  0  0  0  0  0  0  0  # atno 11005 bound_to 11000
  145.3750  141.0349  143.3209 LP  0  0  0  0  0  0  0  0  0  0  0  0  # atno 17320 bound_to 7965
  144.8513  139.5317  143.6855 LP  0  0  0  0  0  0  0  0  0  0  0  0  # atno 17321 bound_to 7965
  140.5012  144.1166  150.5971 LP  0  0  0  0  0  0  0  0  0  0  0  0  # atno 17342 bound_to 10162
  140.4060  143.2680  151.9891 LP  0  0  0  0  0  0  0  0  0  0  0  0  # atno 17343 bound_to 10162
  155.9933  130.4993  150.7373 LP  0  0  0  0  0  0  0  0  0  0  0  0  # atno 17370 bound_to 10713
  157.4827  131.0904  151.0518 LP  0  0  0  0  0  0  0  0  0  0  0  0  # atno 17371 bound_to 10713
  140.9521  134.1765  157.4719 LP  0  0  0  0  0  0  0  0  0  0  0  0  # atno 17394 bound_to 11000
  139.8748  134.9913  156.5543 LP  0  0  0  0  0  0  0  0  0  0  0  0  # atno 17395 bound_to 11000

$$$$
