AV-unprocessed.smi:1513|AV-procd|sdf|6111|dock4
  -GOLD-   22720 6243D 1   1.00000     0.00000
 Structure written by MMmdl.
 33 34  0  0  0  0  0  0  0  0  2 V2000
  156.3479  139.2987  159.0129 N   0  5  0  0  0  0  0  0  0  0  0  0
  155.5207  139.7527  160.3202 S   0  0  0  0  0  0  0  0  0  0  0  0
  154.7959  138.6554  160.9792 O   0  0  0  0  0  0  0  0  0  0  0  0
  156.2446  140.7153  161.1647 O   0  0  0  0  0  0  0  0  0  0  0  0
  154.3291  140.6614  159.4755 N   0  0  0  0  0  0  0  0  0  0  0  0
  153.2897  141.3791  160.2115 C   0  0  0  0  0  0  0  0  0  0  0  0
  152.6114  142.4527  159.3737 C   0  0  0  0  0  0  0  0  0  0  0  0
  152.6526  143.7991  159.7923 C   0  0  0  0  0  0  0  0  0  0  0  0
  152.0293  144.7818  159.0013 C   0  0  0  0  0  0  0  0  0  0  0  0
  151.3867  144.3767  157.8168 C   0  0  0  0  0  0  0  0  0  0  0  0
  151.3377  143.0932  157.4033 N   0  0  0  0  0  0  0  0  0  0  0  0
  151.9360  142.1448  158.1645 C   0  0  0  0  0  0  0  0  0  0  0  0
  151.8573  140.8156  157.7202 N   0  0  0  0  0  0  0  0  0  0  0  0
  151.1320  139.9364  158.6281 C   0  0  0  0  0  0  0  0  0  0  0  0
  151.2508  138.4781  158.1525 C   0  0  0  0  0  0  0  0  0  0  0  0
  150.7969  138.3757  156.8049 O   0  0  0  0  0  0  0  0  0  0  0  0
  151.5665  139.1836  155.9181 C   0  0  0  0  0  0  0  0  0  0  0  0
  151.4460  140.6603  156.3320 C   0  0  0  0  0  0  0  0  0  0  0  0
  157.3264  139.1520  159.2883 H   0  0  0  0  0  0  0  0  0  0  0  0
  154.6816  141.1345  158.6443 H   0  0  0  0  0  0  0  0  0  0  0  0
  152.5588  140.6583  160.5788 H   0  0  0  0  0  0  0  0  0  0  0  0
  153.7263  141.8521  161.0914 H   0  0  0  0  0  0  0  0  0  0  0  0
  153.1552  144.0785  160.7066 H   0  0  0  0  0  0  0  0  0  0  0  0
  152.0443  145.8207  159.2959 H   0  0  0  0  0  0  0  0  0  0  0  0
  150.8981  145.1025  157.1837 H   0  0  0  0  0  0  0  0  0  0  0  0
  151.5303  140.0341  159.6386 H   0  0  0  0  0  0  0  0  0  0  0  0
  150.0822  140.2310  158.6636 H   0  0  0  0  0  0  0  0  0  0  0  0
  152.2805  138.1265  158.2287 H   0  0  0  0  0  0  0  0  0  0  0  0
  150.6458  137.8269  158.7831 H   0  0  0  0  0  0  0  0  0  0  0  0
  152.6091  138.8610  155.9275 H   0  0  0  0  0  0  0  0  0  0  0  0
  151.1988  139.0467  154.9013 H   0  0  0  0  0  0  0  0  0  0  0  0
  150.4155  140.9975  156.2113 H   0  0  0  0  0  0  0  0  0  0  0  0
  152.0699  141.2832  155.6900 H   0  0  0  0  0  0  0  0  0  0  0  0
  1  2  1  0  0  0  0
  1 19  1  0  0  0  0
  2  3  2  0  0  0  0
  2  4  2  0  0  0  0
  2  5  1  0  0  0  0
  5  6  1  0  0  0  0
  5 20  1  0  0  0  0
  6  7  1  0  0  0  0
  6 21  1  0  0  0  0
  6 22  1  0  0  0  0
  7 12  1  0  0  0  0
  7  8  2  0  0  0  0
  8  9  1  0  0  0  0
  8 23  1  0  0  0  0
  9 10  2  0  0  0  0
  9 24  1  0  0  0  0
 10 11  1  0  0  0  0
 10 25  1  0  0  0  0
 11 12  2  0  0  0  0
 12 13  1  0  0  0  0
 13 18  1  0  0  0  0
 13 14  1  0  0  0  0
 14 15  1  0  0  0  0
 14 26  1  0  0  0  0
 14 27  1  0  0  0  0
 15 16  1  0  0  0  0
 15 28  1  0  0  0  0
 15 29  1  0  0  0  0
 16 17  1  0  0  0  0
 17 18  1  0  0  0  0
 17 30  1  0  0  0  0
 17 31  1  0  0  0  0
 18 32  1  0  0  0  0
 18 33  1  0  0  0  0
M  CHG  1   1  -1
M  END
> <s_m_source_file>
AV-unprocessed.smi

> <i_m_source_file_index>
1513

> <i_lp_mmshare_version>
43012

> <i_f3d_flags>
0

> <s_epik_input>
W05IMl1TKD1PKSg9TylbTkhdW0NIMl1jMVtjSF1bY0hdW2NIXW5jMU4yW0NIMl1bQ0gyXU9bQ0gyXVtDSDJdMg==

> <s_epik_cmdline>
J2VwaWtfcHl0aG9uJywgJy1waCcsICc3LjAnLCAnLXRuJywgJzgnLCAnLW1hJywgJzIwMCcsICctbWV0YWxfYmluZGluZycsICctaW1hZScsICc8aW5maWxlLm1hZT4nLCAnLW9tYWUnLCAnPG91dGZpbGUubWFlPic=

> <r_lp_tautomer_probability>
1

> <r_epik_Ionization_Penalty>
2.76303

> <r_epik_Ionization_Penalty_Charging>
2.75358

> <r_epik_Ionization_Penalty_Neutral>
0.00945191

> <r_epik_State_Penalty>
2.93489

> <r_epik_Charging_Adjusted_Penalty>
5.68847

> <i_epik_Tot_Q>
-1

> <i_epik_Tot_abs_Q>
1

> <r_epik_Metal_State_Penalty>
0.838637

> <b_epik_Metal_Only>
1

> <s_lp_Force_Field>
OPLS_2005

> <r_lp_Energy>
17.6636

> <b_lp_Chiralities_Consistent>
1

> <s_lp_Variant>
AV-unprocessed.smi:1513-4

> <Gold.Version>
5.8.1

> <Gold.Id.Protein>
6NUR|6NUR_protein|mol2

> <Gold.PLP.Fitness>
42.1213

> <Gold.PLP.PLP>
-33.6609

> <Gold.PLP.part.hbond>
-2.8948

> <Gold.PLP.part.metal>
0.0000

> <Gold.PLP.part.buried>
-4.0778

> <Gold.PLP.part.nonpolar>
-27.4503

> <Gold.PLP.part.repulsive>
0.1162

> <Gold.PLP.ligand.clash>
0.0000

> <Gold.PLP.ligand.torsion>
0.2899

> <Gold.PLP.Chemscore.Hbond>
2.0000

> <Gold.PLP.Chemscore.CHOScore>
0.9517

> <Gold.PLP.Chemscore.Metal>
0.0000

> <Gold.Chemscore.Hbonds>
donor molecule, donor type, donor heavy atom, donor atom, acceptor molecule, acceptor atom, score
      P1  H  7997  8008       L1     1  2.00
      L1  C    10    25       P1  8028  0.97

> <Gold.PLP.Chemscore.Internal.Correction>
0.1851

> <Gold.Rescore>
     Score         DG    S(hbond)    S(metal)    S(lipo)     H(rot)  DE(clash)    DE(int)     intcor
     11.33     -11.67       0.98        0.00      78.64       2.45       0.01       0.33       ----

> <Gold.Chemscore.Fitness>
11.3313

> <Gold.Chemscore.DG>
-11.6742

> <Gold.Chemscore.ZeroCoef>
-5.4800

> <Gold.Chemscore.Hbond>
0.9753

> <Gold.Chemscore.Metal>
0.0000

> <Gold.Chemscore.Lipo>
78.6400

> <Gold.Chemscore.Internal_Hbond>
0.0000

> <Gold.Chemscore.DEClash>
0.0089

> <Gold.Chemscore.DEInternal>
0.3340

> <Gold.Chemscore.Rot>
2.4470

> <Gold.Chemscore.Internal.Correction>
   9.000000E+99

> <Gold.Chemscore.Hbonds>
donor molecule, donor type, donor heavy atom, donor atom, acceptor molecule, acceptor atom, score
      P1  H  7997  8008       L1     1  0.76

> <Gold.Chemscore.Hbond.Weighted>
-3.2575

> <Gold.Chemscore.Metal.Weighted>
-0.0000

> <Gold.Chemscore.Lipo.Weighted>
-9.2009

> <Gold.Chemscore.Internal_Hbond.Weighted>
0.0000

> <Gold.Chemscore.DEClash.Weighted>
0.0089

> <Gold.Chemscore.DEInternal.Weighted>
0.3340

> <Gold.Chemscore.Rot.Weighted>
6.2642

> <Gold.Chemscore.Internal.Correction.Weighted>
   9.000000E+99

> <Gold.Protein.RotatedTorsions>
[ 6907 6896 6895 6894 ] final  121.14 input  -60.11 | X-H torsion
[ 7974 7965 7964 7962 ] final  -77.76 input  175.53 | X-H torsion
[ 8008 7997 7996 7995 ] final -143.44 input   59.86 | X-H torsion
[ 10167 10162 10161 10158 ] final -173.14 input  -65.29 | X-H torsion
[ 10718 10713 10712 10709 ] final -150.29 input   66.30 | X-H torsion
[ 10763 10752 10751 10750 ] final   59.87 input  -60.55 | X-H torsion
[ 11005 11000 10999 10996 ] final   40.52 input  -57.11 | X-H torsion

> <Gold.Protein.ActiveResidues>
 VAL166  LYS551  ARG553  GLY616  TRP617  ASP618  TYR619  PRO620  LYS621  CYS622 
 ASP623  PHE694  ASN695  SER759  ASP760  ASP761  ALA762  ILE779  LEU786  VAL792 
 PHE793  MET794  SER795  GLU796  ALA797  LYS798  CYS799  TRP800  GLU811  SER814 

> <Gold.Protein.RotatedAtoms>
  152.4344  133.7335  159.6600 H   0  0  0  0  0  0  0  0  0  0  0  0  # atno 6907 bound_to 6896
  150.8227  133.8215  159.3138 H   0  0  0  0  0  0  0  0  0  0  0  0  # atno 6908 bound_to 6896
  151.5892  135.1056  160.0087 H   0  0  0  0  0  0  0  0  0  0  0  0  # atno 6909 bound_to 6896
  145.5955  140.9420  143.1269 H   0  0  0  0  0  0  0  0  0  0  0  0  # atno 7974 bound_to 7965
  155.5106  140.0583  157.2924 H   0  0  0  0  0  0  0  0  0  0  0  0  # atno 8008 bound_to 7997
  154.4553  140.1970  156.0346 H   0  0  0  0  0  0  0  0  0  0  0  0  # atno 8009 bound_to 7997
  156.0786  140.3250  155.7670 H   0  0  0  0  0  0  0  0  0  0  0  0  # atno 8010 bound_to 7997
  139.5705  144.1654  152.1376 H   0  0  0  0  0  0  0  0  0  0  0  0  # atno 10167 bound_to 10162
  156.4442  130.8137  151.2367 H   0  0  0  0  0  0  0  0  0  0  0  0  # atno 10718 bound_to 10713
  152.9905  135.5556  154.5782 H   0  0  0  0  0  0  0  0  0  0  0  0  # atno 10763 bound_to 10752
  154.5168  135.2805  155.1298 H   0  0  0  0  0  0  0  0  0  0  0  0  # atno 10764 bound_to 10752
  154.2667  135.6371  153.5347 H   0  0  0  0  0  0  0  0  0  0  0  0  # atno 10765 bound_to 10752
  140.1923  134.3972  155.8140 H   0  0  0  0  0  0  0  0  0  0  0  0  # atno 11005 bound_to 11000
  144.7332  139.7662  143.7339 LP  0  0  0  0  0  0  0  0  0  0  0  0  # atno 17320 bound_to 7965
  146.1615  139.4731  142.9985 LP  0  0  0  0  0  0  0  0  0  0  0  0  # atno 17321 bound_to 7965
  140.1185  144.5394  150.6878 LP  0  0  0  0  0  0  0  0  0  0  0  0  # atno 17342 bound_to 10162
  140.6989  143.2422  151.4921 LP  0  0  0  0  0  0  0  0  0  0  0  0  # atno 17343 bound_to 10162
  157.7505  131.0158  150.3520 LP  0  0  0  0  0  0  0  0  0  0  0  0  # atno 17370 bound_to 10713
  156.3885  130.3893  149.7048 LP  0  0  0  0  0  0  0  0  0  0  0  0  # atno 17371 bound_to 10713
  141.2226  133.7052  156.8116 LP  0  0  0  0  0  0  0  0  0  0  0  0  # atno 17394 bound_to 11000
  140.2146  134.8802  157.3312 LP  0  0  0  0  0  0  0  0  0  0  0  0  # atno 17395 bound_to 11000

$$$$
