AV-unprocessed.smi:549|AV-procd|sdf|2893|dock9
  -GOLD-   2262023383D 1   1.00000     0.00000
 Structure written by MMmdl.
 44 45  0  0  0  0  0  0  0  0  2 V2000
  151.4545  142.7719  157.4249 C   0  0  0  0  0  0  0  0  0  0  0  0
  150.3420  142.8495  156.4935 N   0  0  0  0  0  0  0  0  0  0  0  0
  149.8827  141.7006  155.8367 C   0  0  0  0  0  0  0  0  0  0  0  0
  150.4308  140.4083  156.0125 C   0  0  0  0  0  0  0  0  0  0  0  0
  149.8847  139.3221  155.2980 C   0  0  0  0  0  0  0  0  0  0  0  0
  148.8068  139.5339  154.4119 C   0  0  0  0  0  0  0  0  0  0  0  0
  148.2827  138.4040  153.7261 N   0  0  0  0  0  0  0  0  0  0  0  0
  147.0060  138.1378  153.3993 C   0  0  0  0  0  0  0  0  0  0  0  0
  146.0464  138.8765  153.6178 O   0  0  0  0  0  0  0  0  0  0  0  0
  146.9002  136.9551  152.7767 N   0  0  0  0  0  0  0  0  0  0  0  0
  145.6534  136.3721  152.2888 C   0  0  0  0  0  0  0  0  0  0  0  0
  145.3379  135.0863  153.0669 C   0  0  0  0  0  0  0  0  0  0  0  0
  144.0573  134.4131  152.5422 C   0  0  0  0  0  0  0  0  0  0  0  0
  144.1233  134.1747  151.0863 N   0  0  0  0  0  0  0  0  0  0  0  0
  144.4858  132.5835  150.4814 S   0  0  0  0  0  0  0  0  0  0  0  0
  144.9485  131.6268  151.9828 C   0  0  0  0  0  0  0  0  0  0  0  0
  143.2422  132.0140  149.9402 O   0  0  0  0  0  0  0  0  0  0  0  0
  145.6740  132.6895  149.6207 O   0  0  0  0  0  0  0  0  0  0  0  0
  144.4642  135.3651  150.2815 C   0  0  0  0  0  0  0  0  0  0  0  0
  145.7472  136.0466  150.7883 C   0  0  0  0  0  0  0  0  0  0  0  0
  148.2934  140.8477  154.2835 C   0  0  0  0  0  0  0  0  0  0  0  0
  148.8444  141.8602  154.9875 N   0  3  0  0  0  0  0  0  0  0  0  0
  151.6603  143.7590  157.8391 H   0  0  0  0  0  0  0  0  0  0  0  0
  152.3557  142.4185  156.9230 H   0  0  0  0  0  0  0  0  0  0  0  0
  151.2230  142.0987  158.2509 H   0  0  0  0  0  0  0  0  0  0  0  0
  149.9196  143.7474  156.3060 H   0  0  0  0  0  0  0  0  0  0  0  0
  151.2581  140.2342  156.6843 H   0  0  0  0  0  0  0  0  0  0  0  0
  150.2975  138.3324  155.4300 H   0  0  0  0  0  0  0  0  0  0  0  0
  148.9674  137.7306  153.4147 H   0  0  0  0  0  0  0  0  0  0  0  0
  147.7403  136.4141  152.6329 H   0  0  0  0  0  0  0  0  0  0  0  0
  144.8391  137.0812  152.4518 H   0  0  0  0  0  0  0  0  0  0  0  0
  146.1763  134.3940  152.9969 H   0  0  0  0  0  0  0  0  0  0  0  0
  145.2188  135.3131  154.1270 H   0  0  0  0  0  0  0  0  0  0  0  0
  143.8751  133.4790  153.0728 H   0  0  0  0  0  0  0  0  0  0  0  0
  143.1990  135.0544  152.7464 H   0  0  0  0  0  0  0  0  0  0  0  0
  145.1980  130.6071  151.6907 H   0  0  0  0  0  0  0  0  0  0  0  0
  144.1117  131.5996  152.6784 H   0  0  0  0  0  0  0  0  0  0  0  0
  145.8165  132.0794  152.4588 H   0  0  0  0  0  0  0  0  0  0  0  0
  144.5666  135.0971  149.2303 H   0  0  0  0  0  0  0  0  0  0  0  0
  143.6326  136.0684  150.3390 H   0  0  0  0  0  0  0  0  0  0  0  0
  145.9183  136.9588  150.2157 H   0  0  0  0  0  0  0  0  0  0  0  0
  146.6083  135.4059  150.6008 H   0  0  0  0  0  0  0  0  0  0  0  0
  147.4604  141.1349  153.6601 H   0  0  0  0  0  0  0  0  0  0  0  0
  148.4511  142.7945  154.8713 H   0  0  0  0  0  0  0  0  0  0  0  0
  1  2  1  0  0  0  0
  1 23  1  0  0  0  0
  1 24  1  0  0  0  0
  1 25  1  0  0  0  0
  2  3  1  0  0  0  0
  2 26  1  0  0  0  0
  3 22  1  0  0  0  0
  3  4  2  0  0  0  0
  4  5  1  0  0  0  0
  4 27  1  0  0  0  0
  5  6  2  0  0  0  0
  5 28  1  0  0  0  0
  6  7  1  0  0  0  0
  6 21  1  0  0  0  0
  7  8  1  0  0  0  0
  7 29  1  0  0  0  0
  8  9  2  0  0  0  0
  8 10  1  0  0  0  0
 10 11  1  0  0  0  0
 10 30  1  0  0  0  0
 11 20  1  0  0  0  0
 11 12  1  0  0  0  0
 11 31  1  0  0  0  0
 12 13  1  0  0  0  0
 12 32  1  0  0  0  0
 12 33  1  0  0  0  0
 13 14  1  0  0  0  0
 13 34  1  0  0  0  0
 13 35  1  0  0  0  0
 14 15  1  0  0  0  0
 14 19  1  0  0  0  0
 15 16  1  0  0  0  0
 15 17  2  0  0  0  0
 15 18  2  0  0  0  0
 16 36  1  0  0  0  0
 16 37  1  0  0  0  0
 16 38  1  0  0  0  0
 19 20  1  0  0  0  0
 19 39  1  0  0  0  0
 19 40  1  0  0  0  0
 20 41  1  0  0  0  0
 20 42  1  0  0  0  0
 21 22  2  0  0  0  0
 21 43  1  0  0  0  0
 22 44  1  0  0  0  0
M  CHG  1  22   1
M  END
> <s_m_source_file>
AV-unprocessed.smi

> <i_m_source_file_index>
549

> <i_lp_mmshare_version>
43012

> <i_f3d_flags>
0

> <s_epik_input>
W0NIM11bTkhdYzFbY0hdW2NIXWMoW2NIXW4xKVtOSF1DKD1PKVtOSF1bQ0hdMltDSDJdW0NIMl1OKFMoPU8pKD1PKVtDSDNdKVtDSDJdW0NIMl0y

> <s_epik_cmdline>
J2VwaWtfcHl0aG9uJywgJy1waCcsICc3LjAnLCAnLXRuJywgJzgnLCAnLW1hJywgJzIwMCcsICctbWV0YWxfYmluZGluZycsICctaW1hZScsICc8aW5maWxlLm1hZT4nLCAnLW9tYWUnLCAnPG91dGZpbGUubWFlPic=

> <r_lp_tautomer_probability>
0.999994

> <r_epik_Ionization_Penalty>
0.450019

> <r_epik_Ionization_Penalty_Charging>
0.449999

> <r_epik_Ionization_Penalty_Neutral>
1.96337e-05

> <r_epik_State_Penalty>
0.452724

> <r_epik_Charging_Adjusted_Penalty>
0.902724

> <i_epik_Tot_Q>
1

> <i_epik_Tot_abs_Q>
1

> <r_epik_Metal_State_Penalty>
0.680753

> <b_epik_Metal_Only>
0

> <s_lp_Force_Field>
OPLS_2005

> <r_lp_Energy>
8.99887

> <b_lp_Chiralities_Consistent>
1

> <s_lp_Variant>
AV-unprocessed.smi:549-2

> <Gold.Version>
5.8.1

> <Gold.Id.Protein>
6NUR|6NUR_protein|mol2

> <Gold.PLP.Fitness>
46.0902

> <Gold.PLP.PLP>
-31.9335

> <Gold.PLP.part.hbond>
-3.9371

> <Gold.PLP.part.metal>
0.0000

> <Gold.PLP.part.buried>
-5.7128

> <Gold.PLP.part.nonpolar>
-26.1070

> <Gold.PLP.part.repulsive>
3.5886

> <Gold.PLP.ligand.clash>
0.0000

> <Gold.PLP.ligand.torsion>
1.4707

> <Gold.PLP.Chemscore.Hbond>
5.0155

> <Gold.PLP.Chemscore.CHOScore>
0.0000

> <Gold.PLP.Chemscore.Metal>
0.0000

> <Gold.Chemscore.Hbonds>
donor molecule, donor type, donor heavy atom, donor atom, acceptor molecule, acceptor atom, score
      L1  H     2    26       P1  8028  2.00
      L1  H     7    29       P1  7948  0.49
      L1  H    10    30       P1  7948  0.74
      L1  H    22    44       P1  8028  1.20
      P1  H 10785 10796       L1    17  0.52

> <Gold.PLP.Chemscore.Internal.Correction>
2.0517

> <Gold.Rescore>
     Score         DG    S(hbond)    S(metal)    S(lipo)     H(rot)  DE(clash)    DE(int)     intcor
     18.03     -21.57       3.31        0.00      64.89       1.00       1.29       2.25       ----

> <Gold.Chemscore.Fitness>
18.0312

> <Gold.Chemscore.DG>
-21.5741

> <Gold.Chemscore.ZeroCoef>
-5.4800

> <Gold.Chemscore.Hbond>
3.3119

> <Gold.Chemscore.Metal>
0.0000

> <Gold.Chemscore.Lipo>
64.8916

> <Gold.Chemscore.Internal_Hbond>
0.0000

> <Gold.Chemscore.DEClash>
1.2928

> <Gold.Chemscore.DEInternal>
2.2501

> <Gold.Chemscore.Rot>
1.0000

> <Gold.Chemscore.Internal.Correction>
   9.000000E+99

> <Gold.Chemscore.Hbonds>
donor molecule, donor type, donor heavy atom, donor atom, acceptor molecule, acceptor atom, score
      L1  H     2    26       P1  8028  0.94
      L1  H     7    29       P1  7948  0.49
      L1  H    10    30       P1  7948  0.71
      L1  H    22    44       P1  8028  0.58
      P1  H 10785 10796       L1    17  0.51

> <Gold.Chemscore.Hbond.Weighted>
-11.0617

> <Gold.Chemscore.Metal.Weighted>
-0.0000

> <Gold.Chemscore.Lipo.Weighted>
-7.5923

> <Gold.Chemscore.Internal_Hbond.Weighted>
0.0000

> <Gold.Chemscore.DEClash.Weighted>
1.2928

> <Gold.Chemscore.DEInternal.Weighted>
2.2501

> <Gold.Chemscore.Rot.Weighted>
2.5600

> <Gold.Chemscore.Internal.Correction.Weighted>
   9.000000E+99

> <Gold.Protein.RotatedTorsions>
[ 6907 6896 6895 6894 ] final -125.67 input  -60.11 | X-H torsion
[ 7974 7965 7964 7962 ] final   76.11 input  175.53 | X-H torsion
[ 8008 7997 7996 7995 ] final  105.69 input   59.86 | X-H torsion
[ 10167 10162 10161 10158 ] final -154.81 input  -65.29 | X-H torsion
[ 10718 10713 10712 10709 ] final  126.98 input   66.30 | X-H torsion
[ 10763 10752 10751 10750 ] final -169.45 input  -60.55 | X-H torsion
[ 11005 11000 10999 10996 ] final   88.01 input  -57.11 | X-H torsion

> <Gold.Protein.ActiveResidues>
 VAL166  LYS551  ARG553  GLY616  TRP617  ASP618  TYR619  PRO620  LYS621  CYS622 
 ASP623  PHE694  ASN695  SER759  ASP760  ASP761  ALA762  ILE779  LEU786  VAL792 
 PHE793  MET794  SER795  GLU796  ALA797  LYS798  CYS799  TRP800  GLU811  SER814 

> <Gold.Protein.RotatedAtoms>
  150.8891  133.7268  159.2909 H   0  0  0  0  0  0  0  0  0  0  0  0  # atno 6907 bound_to 6896
  151.4824  135.1051  159.9791 H   0  0  0  0  0  0  0  0  0  0  0  0  # atno 6908 bound_to 6896
  152.4809  133.8204  159.7106 H   0  0  0  0  0  0  0  0  0  0  0  0  # atno 6909 bound_to 6896
  145.7070  139.2602  143.1672 H   0  0  0  0  0  0  0  0  0  0  0  0  # atno 7974 bound_to 7965
  156.1680  140.3126  155.8923 H   0  0  0  0  0  0  0  0  0  0  0  0  # atno 8008 bound_to 7997
  155.3646  140.0478  157.3063 H   0  0  0  0  0  0  0  0  0  0  0  0  # atno 8009 bound_to 7997
  154.5212  140.2199  155.8983 H   0  0  0  0  0  0  0  0  0  0  0  0  # atno 8010 bound_to 7997
  139.6983  143.9305  152.2417 H   0  0  0  0  0  0  0  0  0  0  0  0  # atno 10167 bound_to 10162
  157.5372  131.1097  150.8916 H   0  0  0  0  0  0  0  0  0  0  0  0  # atno 10718 bound_to 10713
  154.6521  135.2913  154.9973 H   0  0  0  0  0  0  0  0  0  0  0  0  # atno 10763 bound_to 10752
  154.1062  135.6569  153.4881 H   0  0  0  0  0  0  0  0  0  0  0  0  # atno 10764 bound_to 10752
  153.0382  135.5254  154.7434 H   0  0  0  0  0  0  0  0  0  0  0  0  # atno 10765 bound_to 10752
  139.8906  134.8460  156.2940 H   0  0  0  0  0  0  0  0  0  0  0  0  # atno 11005 bound_to 11000
  146.0747  140.7831  142.9671 LP  0  0  0  0  0  0  0  0  0  0  0  0  # atno 17320 bound_to 7965
  144.6952  140.3396  143.7201 LP  0  0  0  0  0  0  0  0  0  0  0  0  # atno 17321 bound_to 7965
  139.9141  144.6839  150.8531 LP  0  0  0  0  0  0  0  0  0  0  0  0  # atno 17342 bound_to 10162
  140.7702  143.3422  151.2184 LP  0  0  0  0  0  0  0  0  0  0  0  0  # atno 17343 bound_to 10162
  156.9480  130.5409  149.5281 LP  0  0  0  0  0  0  0  0  0  0  0  0  # atno 17370 bound_to 10713
  156.0468  130.5543  150.8899 LP  0  0  0  0  0  0  0  0  0  0  0  0  # atno 17371 bound_to 10713
  140.9957  133.7181  156.0883 LP  0  0  0  0  0  0  0  0  0  0  0  0  # atno 17394 bound_to 11000
  140.7565  134.3987  157.5533 LP  0  0  0  0  0  0  0  0  0  0  0  0  # atno 17395 bound_to 11000

$$$$
