AV-unprocessed.smi:1236|AV-procd|sdf|5182|dock7
  -GOLD-   22720 4263D 1   1.00000     0.00000
 Structure written by MMmdl.
 40 41  0  0  0  0  0  0  0  0  2 V2000
  149.4387  139.9568  154.1649 C   0  0  0  0  0  0  0  0  0  0  0  0
  148.4727  141.0885  154.5407 C   0  0  1  0  0  0  0  0  0  0  0  0
  147.1875  140.5324  155.1979 C   0  0  0  0  0  0  0  0  0  0  0  0
  146.1616  141.5766  155.4477 N   0  3  0  0  0  0  0  0  0  0  0  0
  145.9277  142.4680  154.2860 C   0  0  0  0  0  0  0  0  0  0  0  0
  144.9243  143.5707  154.6607 C   0  0  0  0  0  0  0  0  0  0  0  0
  143.7095  142.9753  155.1005 O   0  0  0  0  0  0  0  0  0  0  0  0
  143.8979  142.1713  156.2591 C   0  0  0  0  0  0  0  0  0  0  0  0
  144.8787  141.0281  155.9453 C   0  0  0  0  0  0  0  0  0  0  0  0
  149.1637  142.0289  155.4245 N   0  0  0  0  0  0  0  0  0  0  0  0
  149.9335  141.7031  156.4744 C   0  0  0  0  0  0  0  0  0  0  0  0
  150.1699  140.5409  156.8049 O   0  0  0  0  0  0  0  0  0  0  0  0
  150.4091  142.7991  157.0909 N   0  0  0  0  0  0  0  0  0  0  0  0
  151.2987  142.8649  158.1964 C   0  0  0  0  0  0  0  0  0  0  0  0
  151.4881  144.1567  158.7374 C   0  0  0  0  0  0  0  0  0  0  0  0
  152.3542  144.3280  159.8350 C   0  0  0  0  0  0  0  0  0  0  0  0
  153.0104  143.2018  160.3628 C   0  0  0  0  0  0  0  0  0  0  0  0
  152.7677  141.9517  159.7642 C   0  0  0  0  0  0  0  0  0  0  0  0
  151.9388  141.7855  158.7117 N   0  0  0  0  0  0  0  0  0  0  0  0
  148.9704  139.2545  153.4744 H   0  0  0  0  0  0  0  0  0  0  0  0
  149.7569  139.3951  155.0439 H   0  0  0  0  0  0  0  0  0  0  0  0
  150.3327  140.3479  153.6778 H   0  0  0  0  0  0  0  0  0  0  0  0
  148.2105  141.5983  153.6127 H   0  0  0  0  0  0  0  0  0  0  0  0
  146.7557  139.7356  154.5903 H   0  0  0  0  0  0  0  0  0  0  0  0
  147.4659  140.0711  156.1467 H   0  0  0  0  0  0  0  0  0  0  0  0
  146.8623  142.9241  153.9610 H   0  0  0  0  0  0  0  0  0  0  0  0
  145.5470  141.8861  153.4451 H   0  0  0  0  0  0  0  0  0  0  0  0
  145.3308  144.2197  155.4384 H   0  0  0  0  0  0  0  0  0  0  0  0
  144.7169  144.2010  153.7957 H   0  0  0  0  0  0  0  0  0  0  0  0
  144.2651  142.7835  157.0845 H   0  0  0  0  0  0  0  0  0  0  0  0
  142.9342  141.7655  156.5673 H   0  0  0  0  0  0  0  0  0  0  0  0
  144.4511  140.3584  155.1977 H   0  0  0  0  0  0  0  0  0  0  0  0
  145.0509  140.4383  156.8467 H   0  0  0  0  0  0  0  0  0  0  0  0
  149.0266  143.0102  155.2297 H   0  0  0  0  0  0  0  0  0  0  0  0
  150.1129  143.6898  156.7197 H   0  0  0  0  0  0  0  0  0  0  0  0
  150.9762  145.0117  158.3203 H   0  0  0  0  0  0  0  0  0  0  0  0
  152.5113  145.3069  160.2634 H   0  0  0  0  0  0  0  0  0  0  0  0
  153.6819  143.2934  161.2038 H   0  0  0  0  0  0  0  0  0  0  0  0
  153.2521  141.0618  160.1382 H   0  0  0  0  0  0  0  0  0  0  0  0
  146.5255  142.1575  156.1899 H   0  0  0  0  0  0  0  0  0  0  0  0
  1  2  1  0  0  0  0
  1 20  1  0  0  0  0
  1 21  1  0  0  0  0
  1 22  1  0  0  0  0
  2  3  1  0  0  0  0
  2 10  1  0  0  0  0
  2 23  1  0  0  0  0
  3  4  1  0  0  0  0
  3 24  1  0  0  0  0
  3 25  1  0  0  0  0
  4  9  1  0  0  0  0
  4  5  1  0  0  0  0
  4 40  1  0  0  0  0
  5  6  1  0  0  0  0
  5 26  1  0  0  0  0
  5 27  1  0  0  0  0
  6  7  1  0  0  0  0
  6 28  1  0  0  0  0
  6 29  1  0  0  0  0
  7  8  1  0  0  0  0
  8  9  1  0  0  0  0
  8 30  1  0  0  0  0
  8 31  1  0  0  0  0
  9 32  1  0  0  0  0
  9 33  1  0  0  0  0
 10 11  1  0  0  0  0
 10 34  1  0  0  0  0
 11 12  2  0  0  0  0
 11 13  1  0  0  0  0
 13 14  1  0  0  0  0
 13 35  1  0  0  0  0
 14 19  1  0  0  0  0
 14 15  2  0  0  0  0
 15 16  1  0  0  0  0
 15 36  1  0  0  0  0
 16 17  2  0  0  0  0
 16 37  1  0  0  0  0
 17 18  1  0  0  0  0
 17 38  1  0  0  0  0
 18 19  2  0  0  0  0
 18 39  1  0  0  0  0
M  CHG  1   4   1
M  END
> <s_m_source_file>
AV-unprocessed.smi

> <i_m_source_file_index>
1236

> <i_lp_mmshare_version>
43012

> <i_f3d_flags>
0

> <s_epik_input>
W0NIMl0xW0NIMl1PW0NIMl1bQ0gyXU4xW0NIMl1bQ0BASF0oW0NIM10pW05IXUMoPU8pW05IXWMyW2NIXVtjSF1bY0hdW2NIXW4y

> <s_epik_cmdline>
J2VwaWtfcHl0aG9uJywgJy1waCcsICc3LjAnLCAnLXRuJywgJzgnLCAnLW1hJywgJzIwMCcsICctbWV0YWxfYmluZGluZycsICctaW1hZScsICc8aW5maWxlLm1hZT4nLCAnLW9tYWUnLCAnPG91dGZpbGUubWFlPic=

> <r_epik_Ionization_Penalty>
0.602564

> <r_epik_Ionization_Penalty_Charging>
0.602531

> <r_epik_Ionization_Penalty_Neutral>
3.36306e-05

> <r_epik_State_Penalty>
0.617039

> <r_epik_Charging_Adjusted_Penalty>
1.21957

> <i_epik_Tot_Q>
1

> <i_epik_Tot_abs_Q>
1

> <r_epik_Metal_State_Penalty>
0.617041

> <b_epik_Metal_Only>
0

> <s_lp_Force_Field>
OPLS_2005

> <r_lp_Energy>
24.274

> <b_lp_Chiralities_Consistent>
1

> <s_lp_Variant>
AV-unprocessed.smi:1236-4

> <Gold.Version>
5.8.1

> <Gold.Id.Protein>
6NUR|6NUR_protein|mol2

> <Gold.PLP.Fitness>
40.7851

> <Gold.PLP.PLP>
-35.5046

> <Gold.PLP.part.hbond>
-2.0000

> <Gold.PLP.part.metal>
0.0000

> <Gold.PLP.part.buried>
-5.6752

> <Gold.PLP.part.nonpolar>
-29.2494

> <Gold.PLP.part.repulsive>
0.3752

> <Gold.PLP.ligand.clash>
0.0000

> <Gold.PLP.ligand.torsion>
0.2898

> <Gold.PLP.Chemscore.Hbond>
1.9440

> <Gold.PLP.Chemscore.CHOScore>
0.0000

> <Gold.PLP.Chemscore.Metal>
0.0000

> <Gold.Chemscore.Hbonds>
donor molecule, donor type, donor heavy atom, donor atom, acceptor molecule, acceptor atom, score
      L1  H    10    34       P1  8028  1.00
      L1  H    13    35       P1  8028  1.00

> <Gold.PLP.Chemscore.Internal.Correction>
0.0281

> <Gold.Rescore>
     Score         DG    S(hbond)    S(metal)    S(lipo)     H(rot)  DE(clash)    DE(int)     intcor
     14.00     -16.97       1.92        0.00      77.61       1.56       0.01       2.95       ----

> <Gold.Chemscore.Fitness>
14.0044

> <Gold.Chemscore.DG>
-16.9694

> <Gold.Chemscore.ZeroCoef>
-5.4800

> <Gold.Chemscore.Hbond>
1.9158

> <Gold.Chemscore.Metal>
0.0000

> <Gold.Chemscore.Lipo>
77.6090

> <Gold.Chemscore.Internal_Hbond>
0.0000

> <Gold.Chemscore.DEClash>
0.0144

> <Gold.Chemscore.DEInternal>
2.9505

> <Gold.Chemscore.Rot>
1.5584

> <Gold.Chemscore.Internal.Correction>
   9.000000E+99

> <Gold.Chemscore.Hbonds>
donor molecule, donor type, donor heavy atom, donor atom, acceptor molecule, acceptor atom, score
      L1  H    10    34       P1  8028  0.99
      L1  H    13    35       P1  8028  0.95

> <Gold.Chemscore.Hbond.Weighted>
-6.3987

> <Gold.Chemscore.Metal.Weighted>
-0.0000

> <Gold.Chemscore.Lipo.Weighted>
-9.0802

> <Gold.Chemscore.Internal_Hbond.Weighted>
0.0000

> <Gold.Chemscore.DEClash.Weighted>
0.0144

> <Gold.Chemscore.DEInternal.Weighted>
2.9505

> <Gold.Chemscore.Rot.Weighted>
3.9896

> <Gold.Chemscore.Internal.Correction.Weighted>
   9.000000E+99

> <Gold.Protein.RotatedTorsions>
[ 6907 6896 6895 6894 ] final   -2.00 input  -60.11 | X-H torsion
[ 7974 7965 7964 7962 ] final   14.67 input  175.53 | X-H torsion
[ 8008 7997 7996 7995 ] final    5.58 input   59.86 | X-H torsion
[ 10167 10162 10161 10158 ] final -136.05 input  -65.29 | X-H torsion
[ 10718 10713 10712 10709 ] final  178.73 input   66.30 | X-H torsion
[ 10763 10752 10751 10750 ] final  100.10 input  -60.55 | X-H torsion
[ 11005 11000 10999 10996 ] final   81.41 input  -57.11 | X-H torsion

> <Gold.Protein.ActiveResidues>
 VAL166  LYS551  ARG553  GLY616  TRP617  ASP618  TYR619  PRO620  LYS621  CYS622 
 ASP623  PHE694  ASN695  SER759  ASP760  ASP761  ALA762  ILE779  LEU786  VAL792 
 PHE793  MET794  SER795  GLU796  ALA797  LYS798  CYS799  TRP800  GLU811  SER814 

> <Gold.Protein.RotatedAtoms>
  151.5369  135.1068  159.9916 H   0  0  0  0  0  0  0  0  0  0  0  0  # atno 6907 bound_to 6896
  152.4553  133.7706  159.6807 H   0  0  0  0  0  0  0  0  0  0  0  0  # atno 6908 bound_to 6896
  150.8495  133.7744  159.3055 H   0  0  0  0  0  0  0  0  0  0  0  0  # atno 6909 bound_to 6896
  146.2299  139.9007  142.8539 H   0  0  0  0  0  0  0  0  0  0  0  0  # atno 7974 bound_to 7965
  154.7301  140.2729  155.6463 H   0  0  0  0  0  0  0  0  0  0  0  0  # atno 8008 bound_to 7997
  156.2847  140.2717  156.1924 H   0  0  0  0  0  0  0  0  0  0  0  0  # atno 8009 bound_to 7997
  155.0392  140.0371  157.2493 H   0  0  0  0  0  0  0  0  0  0  0  0  # atno 8010 bound_to 7997
  139.8717  143.6949  152.2639 H   0  0  0  0  0  0  0  0  0  0  0  0  # atno 10167 bound_to 10162
  156.8863  130.9832  151.3055 H   0  0  0  0  0  0  0  0  0  0  0  0  # atno 10718 bound_to 10713
  153.3097  135.4090  155.1325 H   0  0  0  0  0  0  0  0  0  0  0  0  # atno 10763 bound_to 10752
  154.8572  135.3561  154.5739 H   0  0  0  0  0  0  0  0  0  0  0  0  # atno 10764 bound_to 10752
  153.6168  135.7066  153.5384 H   0  0  0  0  0  0  0  0  0  0  0  0  # atno 10765 bound_to 10752
  139.9099  134.7994  156.2037 H   0  0  0  0  0  0  0  0  0  0  0  0  # atno 11005 bound_to 11000
  145.2326  140.9979  143.3982 LP  0  0  0  0  0  0  0  0  0  0  0  0  # atno 17320 bound_to 7965
  144.9518  139.4075  143.6399 LP  0  0  0  0  0  0  0  0  0  0  0  0  # atno 17321 bound_to 7965
  139.7278  144.7589  151.0851 LP  0  0  0  0  0  0  0  0  0  0  0  0  # atno 17342 bound_to 10162
  140.7759  143.5126  150.9634 LP  0  0  0  0  0  0  0  0  0  0  0  0  # atno 17343 bound_to 10162
  157.6110  130.8583  149.8952 LP  0  0  0  0  0  0  0  0  0  0  0  0  # atno 17370 bound_to 10713
  156.0652  130.3693  150.0895 LP  0  0  0  0  0  0  0  0  0  0  0  0  # atno 17371 bound_to 10713
  141.0509  133.6889  156.1769 LP  0  0  0  0  0  0  0  0  0  0  0  0  # atno 17394 bound_to 11000
  140.6812  134.4765  157.5589 LP  0  0  0  0  0  0  0  0  0  0  0  0  # atno 17395 bound_to 11000

$$$$
