AV-unprocessed.smi:3031|AV-procd|sdf|11556|dock3
  -GOLD-   2272016523D 1   1.00000     0.00000
 Structure written by MMmdl.
 46 47  0  0  0  0  0  0  0  0  1 V2000
  144.4826  132.2994  148.6538 C   0  0  0  0  0  0  0  0  0  0  0  0
  144.8440  132.9975  149.9329 C   0  0  0  0  0  0  0  0  0  0  0  0
  144.1591  134.0739  150.5644 C   0  0  0  0  0  0  0  0  0  0  0  0
  144.7458  134.4720  151.6810 N   0  0  0  0  0  0  0  0  0  0  0  0
  145.8126  133.6549  151.8138 N   0  0  0  0  0  0  0  0  0  0  0  0
  146.7196  133.8271  152.9368 C   0  0  0  0  0  0  0  0  0  0  0  0
  146.4687  135.1198  153.7515 C   0  0  1  0  0  0  0  0  0  0  0  0
  147.3758  135.1589  154.9894 C   0  0  0  0  0  0  0  0  0  0  0  0
  146.6941  136.3427  152.9736 N   0  0  0  0  0  0  0  0  0  0  0  0
  146.6411  137.6025  153.7135 C   0  0  0  0  0  0  0  0  0  0  0  0
  147.0155  138.7971  152.8162 C   0  0  1  0  0  0  0  0  0  0  0  0
  145.8955  139.0731  152.0021 O   0  0  0  0  0  0  0  0  0  0  0  0
  147.3292  140.0941  153.5971 C   0  0  0  0  0  0  0  0  0  0  0  0
  148.5144  140.0546  154.4553 N   0  0  0  0  0  0  0  0  0  0  0  0
  149.1613  141.3596  154.5250 C   0  0  0  0  0  0  0  0  0  0  0  0
  150.3960  141.3375  155.4425 C   0  0  0  0  0  0  0  0  0  0  0  0
  151.3093  140.3437  154.9887 O   0  0  0  0  0  0  0  0  0  0  0  0
  150.7295  139.0439  154.9436 C   0  0  0  0  0  0  0  0  0  0  0  0
  149.4948  139.0598  154.0255 C   0  0  0  0  0  0  0  0  0  0  0  0
  145.9046  132.7666  150.7623 C   0  0  0  0  0  0  0  0  0  0  0  0
  143.4080  132.3200  148.4718 H   0  0  0  0  0  0  0  0  0  0  0  0
  144.7855  131.2523  148.6647 H   0  0  0  0  0  0  0  0  0  0  0  0
  144.9632  132.7652  147.7934 H   0  0  0  0  0  0  0  0  0  0  0  0
  143.2606  134.5791  150.2422 H   0  0  0  0  0  0  0  0  0  0  0  0
  146.5849  132.9549  153.5781 H   0  0  0  0  0  0  0  0  0  0  0  0
  147.7528  133.7887  152.5869 H   0  0  0  0  0  0  0  0  0  0  0  0
  145.4423  135.1166  154.1194 H   0  0  0  0  0  0  0  0  0  0  0  0
  147.1968  134.2991  155.6357 H   0  0  0  0  0  0  0  0  0  0  0  0
  147.1936  136.0556  155.5830 H   0  0  0  0  0  0  0  0  0  0  0  0
  148.4303  135.1524  154.7104 H   0  0  0  0  0  0  0  0  0  0  0  0
  147.5897  136.2773  152.4989 H   0  0  0  0  0  0  0  0  0  0  0  0
  145.6338  137.7562  154.0968 H   0  0  0  0  0  0  0  0  0  0  0  0
  147.3066  137.5668  154.5770 H   0  0  0  0  0  0  0  0  0  0  0  0
  147.8322  138.5281  152.1463 H   0  0  0  0  0  0  0  0  0  0  0  0
  145.7785  140.0101  151.9628 H   0  0  0  0  0  0  0  0  0  0  0  0
  147.4304  140.9204  152.8911 H   0  0  0  0  0  0  0  0  0  0  0  0
  146.4581  140.3349  154.2085 H   0  0  0  0  0  0  0  0  0  0  0  0
  149.4600  141.6787  153.5252 H   0  0  0  0  0  0  0  0  0  0  0  0
  148.4539  142.1043  154.8920 H   0  0  0  0  0  0  0  0  0  0  0  0
  150.8920  142.3081  155.4355 H   0  0  0  0  0  0  0  0  0  0  0  0
  150.1067  141.1314  156.4744 H   0  0  0  0  0  0  0  0  0  0  0  0
  151.4699  138.3349  154.5731 H   0  0  0  0  0  0  0  0  0  0  0  0
  150.4561  138.7252  155.9509 H   0  0  0  0  0  0  0  0  0  0  0  0
  149.0524  138.0646  154.0245 H   0  0  0  0  0  0  0  0  0  0  0  0
  149.8075  139.2654  153.0006 H   0  0  0  0  0  0  0  0  0  0  0  0
  146.7092  132.0493  150.6913 H   0  0  0  0  0  0  0  0  0  0  0  0
  1  2  1  0  0  0  0
  1 21  1  0  0  0  0
  1 22  1  0  0  0  0
  1 23  1  0  0  0  0
  2 20  2  0  0  0  0
  2  3  1  0  0  0  0
  3  4  2  0  0  0  0
  3 24  1  0  0  0  0
  4  5  1  0  0  0  0
  5  6  1  0  0  0  0
  5 20  1  0  0  0  0
  6  7  1  0  0  0  0
  6 25  1  0  0  0  0
  6 26  1  0  0  0  0
  7  8  1  0  0  0  0
  7  9  1  0  0  0  0
  7 27  1  0  0  0  0
  8 28  1  0  0  0  0
  8 29  1  0  0  0  0
  8 30  1  0  0  0  0
  9 10  1  0  0  0  0
  9 31  1  0  0  0  0
 10 11  1  0  0  0  0
 10 32  1  0  0  0  0
 10 33  1  0  0  0  0
 11 12  1  0  0  0  0
 11 13  1  0  0  0  0
 11 34  1  0  0  0  0
 12 35  1  0  0  0  0
 13 14  1  0  0  0  0
 13 36  1  0  0  0  0
 13 37  1  0  0  0  0
 14 19  1  0  0  0  0
 14 15  1  0  0  0  0
 15 16  1  0  0  0  0
 15 38  1  0  0  0  0
 15 39  1  0  0  0  0
 16 17  1  0  0  0  0
 16 40  1  0  0  0  0
 16 41  1  0  0  0  0
 17 18  1  0  0  0  0
 18 19  1  0  0  0  0
 18 42  1  0  0  0  0
 18 43  1  0  0  0  0
 19 44  1  0  0  0  0
 19 45  1  0  0  0  0
 20 46  1  0  0  0  0
M  END
> <s_m_source_file>
AV-unprocessed.smi

> <i_m_source_file_index>
3031

> <i_lp_mmshare_version>
43012

> <i_f3d_flags>
0

> <s_epik_input>
W0NIM11jMVtjSF1ubihbY0hdMSlbQ0gyXVtDQEhdKFtDSDNdKVtOSF1bQ0gyXVtDQEhdKFtPSF0pW0NIMl1OMltDSDJdW0NIMl1PW0NIMl1bQ0gyXTI=

> <s_epik_cmdline>
J2VwaWtfcHl0aG9uJywgJy1waCcsICc3LjAnLCAnLXRuJywgJzgnLCAnLW1hJywgJzIwMCcsICctbWV0YWxfYmluZGluZycsICctaW1hZScsICc8aW5maWxlLm1hZT4nLCAnLW9tYWUnLCAnPG91dGZpbGUubWFlPic=

> <r_lp_tautomer_probability>
1

> <r_epik_Ionization_Penalty>
2.8101

> <r_epik_Ionization_Penalty_Charging>
0

> <r_epik_Ionization_Penalty_Neutral>
2.8101

> <r_epik_State_Penalty>
2.12351

> <r_epik_Charging_Adjusted_Penalty>
2.12351

> <i_epik_Tot_Q>
0

> <i_epik_Tot_abs_Q>
0

> <r_epik_Metal_State_Penalty>
2.12345

> <b_epik_Metal_Only>
0

> <s_lp_Force_Field>
OPLS_2005

> <r_lp_Energy>
29.6213

> <b_lp_Chiralities_Consistent>
1

> <s_lp_Variant>
AV-unprocessed.smi:3031-16

> <Gold.Version>
5.8.1

> <Gold.Id.Protein>
6NUR|6NUR_protein|mol2

> <Gold.PLP.Fitness>
45.0296

> <Gold.PLP.PLP>
-33.1470

> <Gold.PLP.part.hbond>
-3.5170

> <Gold.PLP.part.metal>
0.0000

> <Gold.PLP.part.buried>
-3.0195

> <Gold.PLP.part.nonpolar>
-27.0947

> <Gold.PLP.part.repulsive>
0.2478

> <Gold.PLP.ligand.clash>
0.0000

> <Gold.PLP.ligand.torsion>
0.7589

> <Gold.PLP.Chemscore.Hbond>
2.3840

> <Gold.PLP.Chemscore.CHOScore>
2.0000

> <Gold.PLP.Chemscore.Metal>
0.0000

> <Gold.Chemscore.Hbonds>
donor molecule, donor type, donor heavy atom, donor atom, acceptor molecule, acceptor atom, score
      L1  H     9    31       P1  7948  0.93
      L1  H    12    35       P1 10175  0.11
      P1  H  7989  7998       L1    17  1.00
      L1  C     3    24       P1 10186  1.00
      L1  C    20    46       P1 10747  0.85

> <Gold.PLP.Chemscore.Internal.Correction>
0.2484

> <Gold.Rescore>
     Score         DG    S(hbond)    S(metal)    S(lipo)     H(rot)  DE(clash)    DE(int)     intcor
     17.71     -18.51       2.69        0.00      89.88       2.53       0.08       0.73       ----

> <Gold.Chemscore.Fitness>
17.7053

> <Gold.Chemscore.DG>
-18.5088

> <Gold.Chemscore.ZeroCoef>
-5.4800

> <Gold.Chemscore.Hbond>
2.6940

> <Gold.Chemscore.Metal>
0.0000

> <Gold.Chemscore.Lipo>
89.8804

> <Gold.Chemscore.Internal_Hbond>
0.0000

> <Gold.Chemscore.DEClash>
0.0784

> <Gold.Chemscore.DEInternal>
0.7251

> <Gold.Chemscore.Rot>
2.5333

> <Gold.Chemscore.Internal.Correction>
   9.000000E+99

> <Gold.Chemscore.Hbonds>
donor molecule, donor type, donor heavy atom, donor atom, acceptor molecule, acceptor atom, score
      L1  H     9    31       P1  7948  0.89
      L1  H    12    35       P1 10175  0.06
      P1  H  7989  7998       L1    17  0.23

> <Gold.Chemscore.Hbond.Weighted>
-8.9979

> <Gold.Chemscore.Metal.Weighted>
-0.0000

> <Gold.Chemscore.Lipo.Weighted>
-10.5160

> <Gold.Chemscore.Internal_Hbond.Weighted>
0.0000

> <Gold.Chemscore.DEClash.Weighted>
0.0784

> <Gold.Chemscore.DEInternal.Weighted>
0.7251

> <Gold.Chemscore.Rot.Weighted>
6.4852

> <Gold.Chemscore.Internal.Correction.Weighted>
   9.000000E+99

> <Gold.Protein.RotatedTorsions>
[ 6907 6896 6895 6894 ] final   99.28 input  -60.11 | X-H torsion
[ 7974 7965 7964 7962 ] final    8.04 input  175.53 | X-H torsion
[ 8008 7997 7996 7995 ] final  -81.04 input   59.86 | X-H torsion
[ 10167 10162 10161 10158 ] final  -21.01 input  -65.29 | X-H torsion
[ 10718 10713 10712 10709 ] final  -25.06 input   66.30 | X-H torsion
[ 10763 10752 10751 10750 ] final   38.72 input  -60.55 | X-H torsion
[ 11005 11000 10999 10996 ] final   61.12 input  -57.11 | X-H torsion

> <Gold.Protein.ActiveResidues>
 VAL166  LYS551  ARG553  GLY616  TRP617  ASP618  TYR619  PRO620  LYS621  CYS622 
 ASP623  PHE694  ASN695  SER759  ASP760  ASP761  ALA762  ILE779  LEU786  VAL792 
 PHE793  MET794  SER795  GLU796  ALA797  LYS798  CYS799  TRP800  GLU811  SER814 

> <Gold.Protein.RotatedAtoms>
  152.5395  134.0453  159.8085 H   0  0  0  0  0  0  0  0  0  0  0  0  # atno 6907 bound_to 6896
  151.0603  133.5542  159.2642 H   0  0  0  0  0  0  0  0  0  0  0  0  # atno 6908 bound_to 6896
  151.2444  135.0608  159.9091 H   0  0  0  0  0  0  0  0  0  0  0  0  # atno 6909 bound_to 6896
  146.2420  139.9993  142.8417 H   0  0  0  0  0  0  0  0  0  0  0  0  # atno 7974 bound_to 7965
  154.5943  140.0654  156.9282 H   0  0  0  0  0  0  0  0  0  0  0  0  # atno 8008 bound_to 7997
  155.2240  140.3332  155.4293 H   0  0  0  0  0  0  0  0  0  0  0  0  # atno 8009 bound_to 7997
  156.2277  140.1826  156.7306 H   0  0  0  0  0  0  0  0  0  0  0  0  # atno 8010 bound_to 7997
  140.7279  143.4668  151.0303 H   0  0  0  0  0  0  0  0  0  0  0  0  # atno 10167 bound_to 10162
  156.4693  130.4521  149.6879 H   0  0  0  0  0  0  0  0  0  0  0  0  # atno 10718 bound_to 10713
  152.9991  135.6241  154.2349 H   0  0  0  0  0  0  0  0  0  0  0  0  # atno 10763 bound_to 10752
  154.2091  135.2800  155.2966 H   0  0  0  0  0  0  0  0  0  0  0  0  # atno 10764 bound_to 10752
  154.5621  135.5702  153.7076 H   0  0  0  0  0  0  0  0  0  0  0  0  # atno 10765 bound_to 10752
  140.0183  134.6191  155.9677 H   0  0  0  0  0  0  0  0  0  0  0  0  # atno 11005 bound_to 11000
  145.1430  140.9582  143.4477 LP  0  0  0  0  0  0  0  0  0  0  0  0  # atno 17320 bound_to 7965
  145.0277  139.3368  143.6040 LP  0  0  0  0  0  0  0  0  0  0  0  0  # atno 17321 bound_to 7965
  139.8357  143.7631  152.3180 LP  0  0  0  0  0  0  0  0  0  0  0  0  # atno 17342 bound_to 10162
  139.7763  144.7460  151.0153 LP  0  0  0  0  0  0  0  0  0  0  0  0  # atno 17343 bound_to 10162
  156.3635  130.7493  151.2468 LP  0  0  0  0  0  0  0  0  0  0  0  0  # atno 17370 bound_to 10713
  157.7492  131.0343  150.4313 LP  0  0  0  0  0  0  0  0  0  0  0  0  # atno 17371 bound_to 10713
  141.1757  133.6540  156.4821 LP  0  0  0  0  0  0  0  0  0  0  0  0  # atno 17394 bound_to 11000
  140.4432  134.6997  157.5002 LP  0  0  0  0  0  0  0  0  0  0  0  0  # atno 17395 bound_to 11000

$$$$
