AV-unprocessed.smi:1531|AV-procd|sdf|6157|dock4
  -GOLD-   22720 6303D 1   1.00000     0.00000
 Structure written by MMmdl.
 44 45  0  0  0  0  0  0  0  0  1 V2000
  147.6713  142.0436  154.2498 C   0  0  0  0  0  0  0  0  0  0  0  0
  148.4419  140.7246  154.0983 C   0  0  0  0  0  0  0  0  0  0  0  0
  149.7543  140.6614  154.9129 C   0  0  1  0  0  0  0  0  0  0  0  0
  149.4655  140.7579  156.4271 C   0  0  0  0  0  0  0  0  0  0  0  0
  150.7576  140.7517  157.2594 C   0  0  0  0  0  0  0  0  0  0  0  0
  151.6105  139.5119  156.9559 C   0  0  0  0  0  0  0  0  0  0  0  0
  151.9150  139.4045  155.4530 C   0  0  0  0  0  0  0  0  0  0  0  0
  150.6337  139.4227  154.5945 C   0  0  1  0  0  0  0  0  0  0  0  0
  149.8821  138.1796  154.7739 N   0  0  0  0  0  0  0  0  0  0  0  0
  150.3809  136.9384  154.6894 C   0  0  0  0  0  0  0  0  0  0  0  0
  151.5631  136.6888  154.4532 O   0  0  0  0  0  0  0  0  0  0  0  0
  149.4249  136.0185  154.8970 N   0  0  0  0  0  0  0  0  0  0  0  0
  149.5622  134.6086  154.8506 C   0  0  0  0  0  0  0  0  0  0  0  0
  150.3027  133.8362  155.7826 C   0  0  0  0  0  0  0  0  0  0  0  0
  150.2439  132.5462  155.4896 N   0  0  0  0  0  0  0  0  0  0  0  0
  149.4705  132.4720  154.3772 N   0  0  0  0  0  0  0  0  0  0  0  0
  149.1886  131.1781  153.7817 C   0  0  0  0  0  0  0  0  0  0  0  0
  147.6818  130.9312  153.6829 C   0  0  0  0  0  0  0  0  0  0  0  0
  147.1769  130.7141  152.4652 N   0  0  0  0  0  0  0  0  0  0  0  0
  146.9817  130.9348  154.6931 O   0  0  0  0  0  0  0  0  0  0  0  0
  149.0387  133.7158  153.9589 C   0  0  0  0  0  0  0  0  0  0  0  0
  146.7129  141.9907  153.7330 H   0  0  0  0  0  0  0  0  0  0  0  0
  148.2228  142.8825  153.8249 H   0  0  0  0  0  0  0  0  0  0  0  0
  147.4712  142.2665  155.2980 H   0  0  0  0  0  0  0  0  0  0  0  0
  147.7890  139.9135  154.4224 H   0  0  0  0  0  0  0  0  0  0  0  0
  148.6400  140.5395  153.0421 H   0  0  0  0  0  0  0  0  0  0  0  0
  150.3364  141.5450  154.6461 H   0  0  0  0  0  0  0  0  0  0  0  0
  148.9053  141.6686  156.6417 H   0  0  0  0  0  0  0  0  0  0  0  0
  148.8285  139.9288  156.7381 H   0  0  0  0  0  0  0  0  0  0  0  0
  151.3337  141.6531  157.0464 H   0  0  0  0  0  0  0  0  0  0  0  0
  150.5153  140.7841  158.3221 H   0  0  0  0  0  0  0  0  0  0  0  0
  152.5422  139.5557  157.5203 H   0  0  0  0  0  0  0  0  0  0  0  0
  151.0888  138.6152  157.2927 H   0  0  0  0  0  0  0  0  0  0  0  0
  152.5515  140.2404  155.1599 H   0  0  0  0  0  0  0  0  0  0  0  0
  152.4928  138.5013  155.2526 H   0  0  0  0  0  0  0  0  0  0  0  0
  150.9508  139.4998  153.5534 H   0  0  0  0  0  0  0  0  0  0  0  0
  148.8975  138.2782  154.9741 H   0  0  0  0  0  0  0  0  0  0  0  0
  148.4976  136.3633  155.0975 H   0  0  0  0  0  0  0  0  0  0  0  0
  150.8677  134.1606  156.6440 H   0  0  0  0  0  0  0  0  0  0  0  0
  149.6434  131.1392  152.7909 H   0  0  0  0  0  0  0  0  0  0  0  0
  149.6561  130.3933  154.3788 H   0  0  0  0  0  0  0  0  0  0  0  0
  146.1885  130.5429  152.3499 H   0  0  0  0  0  0  0  0  0  0  0  0
  147.7895  130.7188  151.6622 H   0  0  0  0  0  0  0  0  0  0  0  0
  148.4109  133.8420  153.0894 H   0  0  0  0  0  0  0  0  0  0  0  0
  1  2  1  0  0  0  0
  1 22  1  0  0  0  0
  1 23  1  0  0  0  0
  1 24  1  0  0  0  0
  2  3  1  0  0  0  0
  2 25  1  0  0  0  0
  2 26  1  0  0  0  0
  3  8  1  0  0  0  0
  3  4  1  0  0  0  0
  3 27  1  0  0  0  0
  4  5  1  0  0  0  0
  4 28  1  0  0  0  0
  4 29  1  0  0  0  0
  5  6  1  0  0  0  0
  5 30  1  0  0  0  0
  5 31  1  0  0  0  0
  6  7  1  0  0  0  0
  6 32  1  0  0  0  0
  6 33  1  0  0  0  0
  7  8  1  0  0  0  0
  7 34  1  0  0  0  0
  7 35  1  0  0  0  0
  8  9  1  0  0  0  0
  8 36  1  0  0  0  0
  9 10  1  0  0  0  0
  9 37  1  0  0  0  0
 10 11  2  0  0  0  0
 10 12  1  0  0  0  0
 12 13  1  0  0  0  0
 12 38  1  0  0  0  0
 13 21  2  0  0  0  0
 13 14  1  0  0  0  0
 14 15  2  0  0  0  0
 14 39  1  0  0  0  0
 15 16  1  0  0  0  0
 16 17  1  0  0  0  0
 16 21  1  0  0  0  0
 17 18  1  0  0  0  0
 17 40  1  0  0  0  0
 17 41  1  0  0  0  0
 18 19  1  0  0  0  0
 18 20  2  0  0  0  0
 19 42  1  0  0  0  0
 19 43  1  0  0  0  0
 21 44  1  0  0  0  0
M  END
> <s_m_source_file>
AV-unprocessed.smi

> <i_m_source_file_index>
1531

> <i_lp_mmshare_version>
43012

> <i_f3d_flags>
0

> <s_epik_input>
W0NIM11bQ0gyXVtDQEBIXTFbQ0gyXVtDSDJdW0NIMl1bQ0gyXVtDQEhdMVtOSF1DKD1PKVtOSF1jMltjSF1ubihbY0hdMilbQ0gyXUMoPU8pW05IMl0=

> <s_epik_cmdline>
J2VwaWtfcHl0aG9uJywgJy1waCcsICc3LjAnLCAnLXRuJywgJzgnLCAnLW1hJywgJzIwMCcsICctbWV0YWxfYmluZGluZycsICctaW1hZScsICc8aW5maWxlLm1hZT4nLCAnLW9tYWUnLCAnPG91dGZpbGUubWFlPic=

> <r_lp_tautomer_probability>
1

> <r_epik_Ionization_Penalty>
4.83437e-05

> <r_epik_Ionization_Penalty_Charging>
0

> <r_epik_Ionization_Penalty_Neutral>
4.83437e-05

> <r_epik_State_Penalty>
-0

> <r_epik_Charging_Adjusted_Penalty>
0

> <i_epik_Tot_Q>
0

> <i_epik_Tot_abs_Q>
0

> <r_epik_Metal_State_Penalty>
-0

> <b_epik_Metal_Only>
0

> <s_lp_Force_Field>
OPLS_2005

> <r_lp_Energy>
14.4879

> <b_lp_Chiralities_Consistent>
1

> <s_lp_Variant>
AV-unprocessed.smi:1531-2

> <Gold.Version>
5.8.1

> <Gold.Id.Protein>
6NUR|6NUR_protein|mol2

> <Gold.PLP.Fitness>
42.1900

> <Gold.PLP.PLP>
-36.9079

> <Gold.PLP.part.hbond>
-2.7867

> <Gold.PLP.part.metal>
0.0000

> <Gold.PLP.part.buried>
-2.7161

> <Gold.PLP.part.nonpolar>
-31.8365

> <Gold.PLP.part.repulsive>
0.3130

> <Gold.PLP.ligand.clash>
0.0000

> <Gold.PLP.ligand.torsion>
0.7430

> <Gold.PLP.Chemscore.Hbond>
2.0000

> <Gold.PLP.Chemscore.CHOScore>
0.2409

> <Gold.PLP.Chemscore.Metal>
0.0000

> <Gold.Chemscore.Hbonds>
donor molecule, donor type, donor heavy atom, donor atom, acceptor molecule, acceptor atom, score
      L1  H    19    43       P1 10747  1.00
      P1  H 10752 10765       L1    11  1.00
      L1  C    21    44       P1  7948  0.28

> <Gold.PLP.Chemscore.Internal.Correction>
0.0454

> <Gold.Rescore>
     Score         DG    S(hbond)    S(metal)    S(lipo)     H(rot)  DE(clash)    DE(int)     intcor
     13.26     -15.23       1.99        0.00      73.11       2.13       0.07       1.91       ----

> <Gold.Chemscore.Fitness>
13.2594

> <Gold.Chemscore.DG>
-15.2338

> <Gold.Chemscore.ZeroCoef>
-5.4800

> <Gold.Chemscore.Hbond>
1.9944

> <Gold.Chemscore.Metal>
0.0000

> <Gold.Chemscore.Lipo>
73.1141

> <Gold.Chemscore.Internal_Hbond>
0.0000

> <Gold.Chemscore.DEClash>
0.0653

> <Gold.Chemscore.DEInternal>
1.9091

> <Gold.Chemscore.Rot>
2.1335

> <Gold.Chemscore.Internal.Correction>
   9.000000E+99

> <Gold.Chemscore.Hbonds>
donor molecule, donor type, donor heavy atom, donor atom, acceptor molecule, acceptor atom, score
      L1  H    19    43       P1 10747  1.00
      P1  H 10752 10765       L1    11  1.00

> <Gold.Chemscore.Hbond.Weighted>
-6.6613

> <Gold.Chemscore.Metal.Weighted>
-0.0000

> <Gold.Chemscore.Lipo.Weighted>
-8.5543

> <Gold.Chemscore.Internal_Hbond.Weighted>
0.0000

> <Gold.Chemscore.DEClash.Weighted>
0.0653

> <Gold.Chemscore.DEInternal.Weighted>
1.9091

> <Gold.Chemscore.Rot.Weighted>
5.4618

> <Gold.Chemscore.Internal.Correction.Weighted>
   9.000000E+99

> <Gold.Protein.RotatedTorsions>
[ 6907 6896 6895 6894 ] final -110.26 input  -60.11 | X-H torsion
[ 7974 7965 7964 7962 ] final   -1.70 input  175.53 | X-H torsion
[ 8008 7997 7996 7995 ] final   50.42 input   59.86 | X-H torsion
[ 10167 10162 10161 10158 ] final  100.50 input  -65.29 | X-H torsion
[ 10718 10713 10712 10709 ] final   90.07 input   66.30 | X-H torsion
[ 10763 10752 10751 10750 ] final  157.88 input  -60.55 | X-H torsion
[ 11005 11000 10999 10996 ] final   95.35 input  -57.11 | X-H torsion

> <Gold.Protein.ActiveResidues>
 VAL166  LYS551  ARG553  GLY616  TRP617  ASP618  TYR619  PRO620  LYS621  CYS622 
 ASP623  PHE694  ASN695  SER759  ASP760  ASP761  ALA762  ILE779  LEU786  VAL792 
 PHE793  MET794  SER795  GLU796  ALA797  LYS798  CYS799  TRP800  GLU811  SER814 

> <Gold.Protein.RotatedAtoms>
  150.7614  133.9407  159.3455 H   0  0  0  0  0  0  0  0  0  0  0  0  # atno 6907 bound_to 6896
  151.7315  135.0872  160.0310 H   0  0  0  0  0  0  0  0  0  0  0  0  # atno 6908 bound_to 6896
  152.3586  133.6231  159.6034 H   0  0  0  0  0  0  0  0  0  0  0  0  # atno 6909 bound_to 6896
  146.2414  140.1460  142.8334 H   0  0  0  0  0  0  0  0  0  0  0  0  # atno 7974 bound_to 7965
  155.4185  140.3445  155.4269 H   0  0  0  0  0  0  0  0  0  0  0  0  # atno 8008 bound_to 7997
  156.1407  140.1541  156.8956 H   0  0  0  0  0  0  0  0  0  0  0  0  # atno 8009 bound_to 7997
  154.4969  140.0825  156.7695 H   0  0  0  0  0  0  0  0  0  0  0  0  # atno 8010 bound_to 7997
  139.7521  144.6980  151.0416 H   0  0  0  0  0  0  0  0  0  0  0  0  # atno 10167 bound_to 10162
  157.6958  131.0357  150.3522 H   0  0  0  0  0  0  0  0  0  0  0  0  # atno 10718 bound_to 10713
  154.2072  135.2787  155.2971 H   0  0  0  0  0  0  0  0  0  0  0  0  # atno 10763 bound_to 10752
  154.5807  135.5590  153.7186 H   0  0  0  0  0  0  0  0  0  0  0  0  # atno 10764 bound_to 10752
  153.0073  135.6344  154.2210 H   0  0  0  0  0  0  0  0  0  0  0  0  # atno 10765 bound_to 10752
  139.8790  134.8894  156.3997 H   0  0  0  0  0  0  0  0  0  0  0  0  # atno 11005 bound_to 11000
  145.0207  140.8791  143.5168 LP  0  0  0  0  0  0  0  0  0  0  0  0  # atno 17320 bound_to 7965
  145.1508  139.2515  143.5442 LP  0  0  0  0  0  0  0  0  0  0  0  0  # atno 17321 bound_to 7965
  140.7799  143.4796  151.0036 LP  0  0  0  0  0  0  0  0  0  0  0  0  # atno 17342 bound_to 10162
  139.8483  143.7471  152.3179 LP  0  0  0  0  0  0  0  0  0  0  0  0  # atno 17343 bound_to 10162
  156.3969  130.3908  149.6988 LP  0  0  0  0  0  0  0  0  0  0  0  0  # atno 17370 bound_to 10713
  156.4319  130.7819  151.2839 LP  0  0  0  0  0  0  0  0  0  0  0  0  # atno 17371 bound_to 10713
  140.9275  133.7602  155.9983 LP  0  0  0  0  0  0  0  0  0  0  0  0  # atno 17394 bound_to 11000
  140.8369  134.3113  157.5328 LP  0  0  0  0  0  0  0  0  0  0  0  0  # atno 17395 bound_to 11000

$$$$
