AV-unprocessed.smi:675|AV-procd|sdf|3306|dock5
  -GOLD-   22720 0263D 1   1.00000     0.00000
 Structure written by MMmdl.
 28 29  0  0  0  0  0  0  0  0  2 V2000
  151.1125  135.7942  155.1382 O   0  0  0  0  0  0  0  0  0  0  0  0
  151.1377  136.9519  155.5536 C   0  0  0  0  0  0  0  0  0  0  0  0
  151.7733  137.9601  154.8876 N   0  5  0  0  0  0  0  0  0  0  0  0
  151.8126  139.2539  155.3336 C   0  0  0  0  0  0  0  0  0  0  0  0
  152.3945  140.1442  154.7140 O   0  0  0  0  0  0  0  0  0  0  0  0
  151.1834  139.5644  156.5056 N   0  0  0  0  0  0  0  0  0  0  0  0
  151.1806  140.9224  157.0685 C   0  0  0  0  0  0  0  0  0  0  0  0
  151.9315  140.9911  158.4158 C   0  0  1  0  0  0  0  0  0  0  0  0
  153.2704  140.5816  158.2124 O   0  0  0  0  0  0  0  0  0  0  0  0
  151.8509  142.3968  159.0100 C   0  0  0  0  0  0  0  0  0  0  0  0
  151.0953  143.3976  158.3548 C   0  0  0  0  0  0  0  0  0  0  0  0
  151.0032  144.6955  158.8913 C   0  0  0  0  0  0  0  0  0  0  0  0
  151.6607  145.0069  160.0947 C   0  0  0  0  0  0  0  0  0  0  0  0
  152.4039  144.0166  160.7626 C   0  0  0  0  0  0  0  0  0  0  0  0
  152.4996  142.7148  160.2306 C   0  0  0  0  0  0  0  0  0  0  0  0
  153.4078  141.5344  161.1099 Cl  0  0  0  0  0  0  0  0  0  0  0  0
  150.5156  138.5628  157.2310 C   0  0  0  0  0  0  0  0  0  0  0  0
  150.4674  137.2847  156.8089 C   0  0  0  0  0  0  0  0  0  0  0  0
  149.6413  136.0749  157.7249 Cl  0  0  0  0  0  0  0  0  0  0  0  0
  151.5563  141.6718  156.3693 H   0  0  0  0  0  0  0  0  0  0  0  0
  150.1369  141.1989  157.2278 H   0  0  0  0  0  0  0  0  0  0  0  0
  151.5023  140.2809  159.1218 H   0  0  0  0  0  0  0  0  0  0  0  0
  153.2769  139.8772  157.5831 H   0  0  0  0  0  0  0  0  0  0  0  0
  150.5750  143.1755  157.4347 H   0  0  0  0  0  0  0  0  0  0  0  0
  150.4251  145.4512  158.3801 H   0  0  0  0  0  0  0  0  0  0  0  0
  151.5903  146.0020  160.5081 H   0  0  0  0  0  0  0  0  0  0  0  0
  152.9002  144.2569  161.6913 H   0  0  0  0  0  0  0  0  0  0  0  0
  150.0522  138.8963  158.1480 H   0  0  0  0  0  0  0  0  0  0  0  0
  1  2  2  0  0  0  0
  2 18  1  0  0  0  0
  2  3  1  0  0  0  0
  3  4  1  0  0  0  0
  4  5  2  0  0  0  0
  4  6  1  0  0  0  0
  6  7  1  0  0  0  0
  6 17  1  0  0  0  0
  7  8  1  0  0  0  0
  7 20  1  0  0  0  0
  7 21  1  0  0  0  0
  8  9  1  0  0  0  0
  8 10  1  0  0  0  0
  8 22  1  0  0  0  0
  9 23  1  0  0  0  0
 10 15  1  0  0  0  0
 10 11  2  0  0  0  0
 11 12  1  0  0  0  0
 11 24  1  0  0  0  0
 12 13  2  0  0  0  0
 12 25  1  0  0  0  0
 13 14  1  0  0  0  0
 13 26  1  0  0  0  0
 14 15  2  0  0  0  0
 14 27  1  0  0  0  0
 15 16  1  0  0  0  0
 17 18  2  0  0  0  0
 17 28  1  0  0  0  0
 18 19  1  0  0  0  0
M  CHG  1   3  -1
M  END
> <s_m_source_file>
AV-unprocessed.smi

> <i_m_source_file_index>
675

> <i_lp_mmshare_version>
43012

> <i_f3d_flags>
0

> <s_epik_input>
Tz1jMVtuSF1jKD1PKW4oW2NIXWMxQ2wpW0NIMl1bQ0BIXShbT0hdKWMyW2NIXVtjSF1bY0hdW2NIXWMyQ2w=

> <s_epik_cmdline>
J2VwaWtfcHl0aG9uJywgJy1waCcsICc3LjAnLCAnLXRuJywgJzgnLCAnLW1hJywgJzIwMCcsICctbWV0YWxfYmluZGluZycsICctaW1hZScsICc8aW5maWxlLm1hZT4nLCAnLW9tYWUnLCAnPG91dGZpbGUubWFlPic=

> <r_epik_Ionization_Penalty>
1.79791

> <r_epik_Ionization_Penalty_Charging>
3.23819e-08

> <r_epik_Ionization_Penalty_Neutral>
1.79791

> <r_epik_State_Penalty>
1.91135

> <r_epik_Charging_Adjusted_Penalty>
1.91135

> <i_epik_Tot_Q>
-1

> <i_epik_Tot_abs_Q>
1

> <r_epik_Metal_State_Penalty>
0.014155

> <b_epik_Metal_Only>
0

> <s_lp_Force_Field>
OPLS_2005

> <r_lp_Energy>
23.2972

> <b_lp_Chiralities_Consistent>
1

> <s_lp_Variant>
AV-unprocessed.smi:675-4

> <Gold.Version>
5.8.1

> <Gold.Id.Protein>
6NUR|6NUR_protein|mol2

> <Gold.PLP.Fitness>
44.7585

> <Gold.PLP.PLP>
-37.8061

> <Gold.PLP.part.hbond>
-4.3451

> <Gold.PLP.part.metal>
0.0000

> <Gold.PLP.part.buried>
-2.3077

> <Gold.PLP.part.nonpolar>
-30.3778

> <Gold.PLP.part.repulsive>
0.1748

> <Gold.PLP.ligand.clash>
0.0000

> <Gold.PLP.ligand.torsion>
0.0448

> <Gold.PLP.Chemscore.Hbond>
2.3441

> <Gold.PLP.Chemscore.CHOScore>
0.0000

> <Gold.PLP.Chemscore.Metal>
0.0000

> <Gold.Chemscore.Hbonds>
donor molecule, donor type, donor heavy atom, donor atom, acceptor molecule, acceptor atom, score
      P1  H  7989  7998       L1     5  0.54
      P1  H  7997  8008       L1     5  0.11
      P1  H 10752 10764       L1     1  1.00

> <Gold.PLP.Chemscore.Internal.Correction>
0.0097

> <Gold.Rescore>
     Score         DG    S(hbond)    S(metal)    S(lipo)     H(rot)  DE(clash)    DE(int)     intcor
     14.85     -16.66       1.63        0.00      95.63       2.13       0.50       1.31       ----

> <Gold.Chemscore.Fitness>
14.8478

> <Gold.Chemscore.DG>
-16.6641

> <Gold.Chemscore.ZeroCoef>
-5.4800

> <Gold.Chemscore.Hbond>
1.6294

> <Gold.Chemscore.Metal>
0.0000

> <Gold.Chemscore.Lipo>
95.6308

> <Gold.Chemscore.Internal_Hbond>
0.0000

> <Gold.Chemscore.DEClash>
0.5034

> <Gold.Chemscore.DEInternal>
1.3128

> <Gold.Chemscore.Rot>
2.1278

> <Gold.Chemscore.Internal.Correction>
   9.000000E+99

> <Gold.Chemscore.Hbonds>
donor molecule, donor type, donor heavy atom, donor atom, acceptor molecule, acceptor atom, score
      P1  H  7989  7998       L1     5  0.54
      P1  H  7997  8008       L1     5  0.06
      P1  H 10752 10764       L1     1  0.25

> <Gold.Chemscore.Hbond.Weighted>
-5.4424

> <Gold.Chemscore.Metal.Weighted>
-0.0000

> <Gold.Chemscore.Lipo.Weighted>
-11.1888

> <Gold.Chemscore.Internal_Hbond.Weighted>
0.0000

> <Gold.Chemscore.DEClash.Weighted>
0.5034

> <Gold.Chemscore.DEInternal.Weighted>
1.3128

> <Gold.Chemscore.Rot.Weighted>
5.4470

> <Gold.Chemscore.Internal.Correction.Weighted>
   9.000000E+99

> <Gold.Protein.RotatedTorsions>
[ 6907 6896 6895 6894 ] final  -53.96 input  -60.11 | X-H torsion
[ 7974 7965 7964 7962 ] final  153.77 input  175.53 | X-H torsion
[ 8008 7997 7996 7995 ] final   -5.92 input   59.86 | X-H torsion
[ 10167 10162 10161 10158 ] final   95.43 input  -65.29 | X-H torsion
[ 10718 10713 10712 10709 ] final  -49.32 input   66.30 | X-H torsion
[ 10763 10752 10751 10750 ] final  -47.80 input  -60.55 | X-H torsion
[ 11005 11000 10999 10996 ] final  -98.07 input  -57.11 | X-H torsion

> <Gold.Protein.ActiveResidues>
 VAL166  LYS551  ARG553  GLY616  TRP617  ASP618  TYR619  PRO620  LYS621  CYS622 
 ASP623  PHE694  ASN695  SER759  ASP760  ASP761  ALA762  ILE779  LEU786  VAL792 
 PHE793  MET794  SER795  GLU796  ALA797  LYS798  CYS799  TRP800  GLU811  SER814 

> <Gold.Protein.RotatedAtoms>
  150.8380  134.7661  159.6908 H   0  0  0  0  0  0  0  0  0  0  0  0  # atno 6907 bound_to 6896
  152.4473  134.5464  159.9864 H   0  0  0  0  0  0  0  0  0  0  0  0  # atno 6908 bound_to 6896
  151.5611  133.3365  159.3007 H   0  0  0  0  0  0  0  0  0  0  0  0  # atno 6909 bound_to 6896
  144.8132  139.6844  143.6132 H   0  0  0  0  0  0  0  0  0  0  0  0  # atno 7974 bound_to 7965
  154.5990  140.2446  155.7818 H   0  0  0  0  0  0  0  0  0  0  0  0  # atno 8008 bound_to 7997
  156.2298  140.2970  156.0112 H   0  0  0  0  0  0  0  0  0  0  0  0  # atno 8009 bound_to 7997
  155.2244  140.0401  157.2943 H   0  0  0  0  0  0  0  0  0  0  0  0  # atno 8010 bound_to 7997
  139.7989  144.6822  150.9792 H   0  0  0  0  0  0  0  0  0  0  0  0  # atno 10167 bound_to 10162
  156.1904  130.4152  149.9379 H   0  0  0  0  0  0  0  0  0  0  0  0  # atno 10718 bound_to 10713
  154.0674  135.6609  153.4819 H   0  0  0  0  0  0  0  0  0  0  0  0  # atno 10763 bound_to 10752
  153.0404  135.5149  154.7600 H   0  0  0  0  0  0  0  0  0  0  0  0  # atno 10764 bound_to 10752
  154.6655  135.3021  154.9778 H   0  0  0  0  0  0  0  0  0  0  0  0  # atno 10765 bound_to 10752
  141.1357  133.8218  157.0791 H   0  0  0  0  0  0  0  0  0  0  0  0  # atno 11005 bound_to 11000
  146.2433  139.6046  142.9476 LP  0  0  0  0  0  0  0  0  0  0  0  0  # atno 17320 bound_to 7965
  145.5274  141.0429  143.2402 LP  0  0  0  0  0  0  0  0  0  0  0  0  # atno 17321 bound_to 7965
  140.7820  143.4302  151.0706 LP  0  0  0  0  0  0  0  0  0  0  0  0  # atno 17342 bound_to 10162
  139.7975  143.8130  152.3159 LP  0  0  0  0  0  0  0  0  0  0  0  0  # atno 17343 bound_to 10162
  156.7121  130.8974  151.3610 LP  0  0  0  0  0  0  0  0  0  0  0  0  # atno 17370 bound_to 10713
  157.6925  130.9248  150.0554 LP  0  0  0  0  0  0  0  0  0  0  0  0  # atno 17371 bound_to 10713
  140.0463  134.9828  157.1055 LP  0  0  0  0  0  0  0  0  0  0  0  0  # atno 17394 bound_to 11000
  140.4058  134.2034  155.7163 LP  0  0  0  0  0  0  0  0  0  0  0  0  # atno 17395 bound_to 11000

$$$$
