AV-unprocessed.smi:2310|AV-procd|sdf|9256|dock9
  -GOLD-   2272012473D 1   1.00000     0.00000
 Structure written by MMmdl.
 45 46  0  0  0  0  0  0  0  0  1 V2000
  144.2187  135.3958  150.8899 C   0  0  0  0  0  0  0  0  0  0  0  0
  145.6004  136.0467  151.0486 C   0  0  0  0  0  0  0  0  0  0  0  0
  145.5855  137.3433  151.8799 C   0  0  1  0  0  0  0  0  0  0  0  0
  144.6464  137.2185  153.0896 C   0  0  0  0  0  0  0  0  0  0  0  0
  145.0065  136.1153  153.9948 C   0  0  0  0  0  0  0  0  0  0  0  0
  145.2887  135.2478  154.7060 N   0  0  0  0  0  0  0  0  0  0  0  0
  146.9364  137.6690  152.3398 N   0  0  0  0  0  0  0  0  0  0  0  0
  147.2587  138.6449  153.2019 C   0  0  0  0  0  0  0  0  0  0  0  0
  146.4358  139.4100  153.7039 O   0  0  0  0  0  0  0  0  0  0  0  0
  148.5851  138.6817  153.4173 N   0  0  0  0  0  0  0  0  0  0  0  0
  149.3222  139.5649  154.2560 C   0  0  0  0  0  0  0  0  0  0  0  0
  148.8177  140.8194  154.6765 C   0  0  0  0  0  0  0  0  0  0  0  0
  149.5978  141.6267  155.5244 C   0  0  0  0  0  0  0  0  0  0  0  0
  150.8572  141.1552  155.9417 C   0  0  0  0  0  0  0  0  0  0  0  0
  151.6342  141.9590  156.7896 N   0  0  0  0  0  0  0  0  0  0  0  0
  151.1333  143.3068  157.0035 C   0  0  0  0  0  0  0  0  0  0  0  0
  151.8955  143.8357  158.2208 C   0  0  0  0  0  0  0  0  0  0  0  0
  152.3690  142.5801  158.9635 C   0  0  0  0  0  0  0  0  0  0  0  0
  151.8710  141.4077  158.1136 C   0  0  0  0  0  0  0  0  0  0  0  0
  151.3431  139.9517  155.5584 N   0  0  0  0  0  0  0  0  0  0  0  0
  150.5966  139.1751  154.7425 C   0  0  0  0  0  0  0  0  0  0  0  0
  151.2457  137.8470  154.3860 C   0  0  0  0  0  0  0  0  0  0  0  0
  144.2943  134.4566  150.3417 H   0  0  0  0  0  0  0  0  0  0  0  0
  143.5304  136.0409  150.3434 H   0  0  0  0  0  0  0  0  0  0  0  0
  143.7738  135.1783  151.8612 H   0  0  0  0  0  0  0  0  0  0  0  0
  146.2684  135.3276  151.5244 H   0  0  0  0  0  0  0  0  0  0  0  0
  146.0230  136.2442  150.0626 H   0  0  0  0  0  0  0  0  0  0  0  0
  145.1952  138.1414  151.2460 H   0  0  0  0  0  0  0  0  0  0  0  0
  144.6666  138.1360  153.6782 H   0  0  0  0  0  0  0  0  0  0  0  0
  143.6162  137.0687  152.7652 H   0  0  0  0  0  0  0  0  0  0  0  0
  147.6855  137.0991  151.9749 H   0  0  0  0  0  0  0  0  0  0  0  0
  149.1423  138.0494  152.8617 H   0  0  0  0  0  0  0  0  0  0  0  0
  147.8425  141.1722  154.3790 H   0  0  0  0  0  0  0  0  0  0  0  0
  149.2294  142.5876  155.8527 H   0  0  0  0  0  0  0  0  0  0  0  0
  151.2976  143.9309  156.1246 H   0  0  0  0  0  0  0  0  0  0  0  0
  150.0624  143.2918  157.2115 H   0  0  0  0  0  0  0  0  0  0  0  0
  152.7565  144.4242  157.9015 H   0  0  0  0  0  0  0  0  0  0  0  0
  151.2676  144.4751  158.8419 H   0  0  0  0  0  0  0  0  0  0  0  0
  153.4581  142.5719  159.0225 H   0  0  0  0  0  0  0  0  0  0  0  0
  151.9810  142.5292  159.9811 H   0  0  0  0  0  0  0  0  0  0  0  0
  150.9469  141.0070  158.5329 H   0  0  0  0  0  0  0  0  0  0  0  0
  152.6020  140.5994  158.0773 H   0  0  0  0  0  0  0  0  0  0  0  0
  150.6617  137.2513  153.6859 H   0  0  0  0  0  0  0  0  0  0  0  0
  151.3930  137.2518  155.2875 H   0  0  0  0  0  0  0  0  0  0  0  0
  152.2228  138.0203  153.9337 H   0  0  0  0  0  0  0  0  0  0  0  0
  1  2  1  0  0  0  0
  1 23  1  0  0  0  0
  1 24  1  0  0  0  0
  1 25  1  0  0  0  0
  2  3  1  0  0  0  0
  2 26  1  0  0  0  0
  2 27  1  0  0  0  0
  3  4  1  0  0  0  0
  3  7  1  0  0  0  0
  3 28  1  0  0  0  0
  4  5  1  0  0  0  0
  4 29  1  0  0  0  0
  4 30  1  0  0  0  0
  5  6  3  0  0  0  0
  7  8  1  0  0  0  0
  7 31  1  0  0  0  0
  8  9  2  0  0  0  0
  8 10  1  0  0  0  0
 10 11  1  0  0  0  0
 10 32  1  0  0  0  0
 11 21  1  0  0  0  0
 11 12  2  0  0  0  0
 12 13  1  0  0  0  0
 12 33  1  0  0  0  0
 13 14  2  0  0  0  0
 13 34  1  0  0  0  0
 14 15  1  0  0  0  0
 14 20  1  0  0  0  0
 15 19  1  0  0  0  0
 15 16  1  0  0  0  0
 16 17  1  0  0  0  0
 16 35  1  0  0  0  0
 16 36  1  0  0  0  0
 17 18  1  0  0  0  0
 17 37  1  0  0  0  0
 17 38  1  0  0  0  0
 18 19  1  0  0  0  0
 18 39  1  0  0  0  0
 18 40  1  0  0  0  0
 19 41  1  0  0  0  0
 19 42  1  0  0  0  0
 20 21  2  0  0  0  0
 21 22  1  0  0  0  0
 22 43  1  0  0  0  0
 22 44  1  0  0  0  0
 22 45  1  0  0  0  0
M  END
> <s_m_source_file>
AV-unprocessed.smi

> <i_m_source_file_index>
2310

> <i_lp_mmshare_version>
43012

> <i_f3d_flags>
0

> <s_epik_input>
TiNDW0NIMl1bQ0BASF0oW0NIMl1bQ0gzXSlbTkhdQyg9TylbTkhdYzFbY0hdW2NIXWMobmMxW0NIM10pTjJbQ0gyXVtDSDJdW0NIMl1bQ0gyXTI=

> <s_epik_cmdline>
J2VwaWtfcHl0aG9uJywgJy1waCcsICc3LjAnLCAnLXRuJywgJzgnLCAnLW1hJywgJzIwMCcsICctbWV0YWxfYmluZGluZycsICctaW1hZScsICc8aW5maWxlLm1hZT4nLCAnLW9tYWUnLCAnPG91dGZpbGUubWFlPic=

> <r_lp_tautomer_probability>
1

> <r_epik_Ionization_Penalty>
0.281354

> <r_epik_Ionization_Penalty_Charging>
0

> <r_epik_Ionization_Penalty_Neutral>
0.281354

> <r_epik_State_Penalty>
0.273364

> <r_epik_Charging_Adjusted_Penalty>
0.273364

> <i_epik_Tot_Q>
0

> <i_epik_Tot_abs_Q>
0

> <r_epik_Metal_State_Penalty>
0.18752

> <b_epik_Metal_Only>
0

> <s_lp_Force_Field>
OPLS_2005

> <r_lp_Energy>
36.0303

> <b_lp_Chiralities_Consistent>
1

> <s_lp_Variant>
AV-unprocessed.smi:2310-2

> <Gold.Version>
5.8.1

> <Gold.Id.Protein>
6NUR|6NUR_protein|mol2

> <Gold.PLP.Fitness>
40.9609

> <Gold.PLP.PLP>
-37.6884

> <Gold.PLP.part.hbond>
-3.2888

> <Gold.PLP.part.metal>
0.0000

> <Gold.PLP.part.buried>
0.9688

> <Gold.PLP.part.nonpolar>
-37.3043

> <Gold.PLP.part.repulsive>
0.3933

> <Gold.PLP.ligand.clash>
1.2834

> <Gold.PLP.ligand.torsion>
0.4456

> <Gold.PLP.Chemscore.Hbond>
1.7997

> <Gold.PLP.Chemscore.CHOScore>
0.0000

> <Gold.PLP.Chemscore.Metal>
0.0000

> <Gold.Chemscore.Hbonds>
donor molecule, donor type, donor heavy atom, donor atom, acceptor molecule, acceptor atom, score
      L1  H     7    31       P1  7948  0.98
      L1  H    10    32       P1  7948  0.78

> <Gold.PLP.Chemscore.Internal.Correction>
0.0480

> <Gold.Rescore>
     Score         DG    S(hbond)    S(metal)    S(lipo)     H(rot)  DE(clash)    DE(int)     intcor
     16.37     -18.04       1.94        0.00      88.11       1.65       0.03       1.64       ----

> <Gold.Chemscore.Fitness>
16.3682

> <Gold.Chemscore.DG>
-18.0368

> <Gold.Chemscore.ZeroCoef>
-5.4800

> <Gold.Chemscore.Hbond>
1.9389

> <Gold.Chemscore.Metal>
0.0000

> <Gold.Chemscore.Lipo>
88.1060

> <Gold.Chemscore.Internal_Hbond>
0.0000

> <Gold.Chemscore.DEClash>
0.0270

> <Gold.Chemscore.DEInternal>
1.6416

> <Gold.Chemscore.Rot>
1.6514

> <Gold.Chemscore.Internal.Correction>
   9.000000E+99

> <Gold.Chemscore.Hbonds>
donor molecule, donor type, donor heavy atom, donor atom, acceptor molecule, acceptor atom, score
      L1  H     7    31       P1  7948  0.91
      L1  H    10    32       P1  7948  0.72

> <Gold.Chemscore.Hbond.Weighted>
-6.4760

> <Gold.Chemscore.Metal.Weighted>
-0.0000

> <Gold.Chemscore.Lipo.Weighted>
-10.3084

> <Gold.Chemscore.Internal_Hbond.Weighted>
0.0000

> <Gold.Chemscore.DEClash.Weighted>
0.0270

> <Gold.Chemscore.DEInternal.Weighted>
1.6416

> <Gold.Chemscore.Rot.Weighted>
4.2276

> <Gold.Chemscore.Internal.Correction.Weighted>
   9.000000E+99

> <Gold.Protein.RotatedTorsions>
[ 6907 6896 6895 6894 ] final  -89.72 input  -60.11 | X-H torsion
[ 7974 7965 7964 7962 ] final -131.26 input  175.53 | X-H torsion
[ 8008 7997 7996 7995 ] final  -82.27 input   59.86 | X-H torsion
[ 10167 10162 10161 10158 ] final  158.71 input  -65.29 | X-H torsion
[ 10718 10713 10712 10709 ] final  109.81 input   66.30 | X-H torsion
[ 10763 10752 10751 10750 ] final    6.69 input  -60.55 | X-H torsion
[ 11005 11000 10999 10996 ] final  115.19 input  -57.11 | X-H torsion

> <Gold.Protein.ActiveResidues>
 VAL166  LYS551  ARG553  GLY616  TRP617  ASP618  TYR619  PRO620  LYS621  CYS622 
 ASP623  PHE694  ASN695  SER759  ASP760  ASP761  ALA762  ILE779  LEU786  VAL792 
 PHE793  MET794  SER795  GLU796  ALA797  LYS798  CYS799  TRP800  GLU811  SER814 

> <Gold.Protein.RotatedAtoms>
  150.6876  134.2543  159.4523 H   0  0  0  0  0  0  0  0  0  0  0  0  # atno 6907 bound_to 6896
  152.0478  134.9669  160.0584 H   0  0  0  0  0  0  0  0  0  0  0  0  # atno 6908 bound_to 6896
  152.1146  133.4284  159.4684 H   0  0  0  0  0  0  0  0  0  0  0  0  # atno 6909 bound_to 6896
  144.9396  140.7223  143.4855 H   0  0  0  0  0  0  0  0  0  0  0  0  # atno 7974 bound_to 7965
  154.6069  140.0635  156.9443 H   0  0  0  0  0  0  0  0  0  0  0  0  # atno 8008 bound_to 7997
  155.2038  140.3317  155.4321 H   0  0  0  0  0  0  0  0  0  0  0  0  # atno 8009 bound_to 7997
  156.2353  140.1860  156.7119 H   0  0  0  0  0  0  0  0  0  0  0  0  # atno 8010 bound_to 7997
  139.4828  144.4798  151.8459 H   0  0  0  0  0  0  0  0  0  0  0  0  # atno 10167 bound_to 10162
  157.6524  131.0921  150.6510 H   0  0  0  0  0  0  0  0  0  0  0  0  # atno 10718 bound_to 10713
  153.2448  135.6907  153.7743 H   0  0  0  0  0  0  0  0  0  0  0  0  # atno 10763 bound_to 10752
  153.6859  135.3321  155.3191 H   0  0  0  0  0  0  0  0  0  0  0  0  # atno 10764 bound_to 10752
  154.8370  135.4533  154.1384 H   0  0  0  0  0  0  0  0  0  0  0  0  # atno 10765 bound_to 10752
  139.9002  134.9580  156.7007 H   0  0  0  0  0  0  0  0  0  0  0  0  # atno 11005 bound_to 11000
  145.3012  139.1850  143.4688 LP  0  0  0  0  0  0  0  0  0  0  0  0  # atno 17320 bound_to 7965
  146.3280  140.3004  142.8620 LP  0  0  0  0  0  0  0  0  0  0  0  0  # atno 17321 bound_to 7965
  140.4274  144.2162  150.5887 LP  0  0  0  0  0  0  0  0  0  0  0  0  # atno 17342 bound_to 10162
  140.4814  143.2378  151.8950 LP  0  0  0  0  0  0  0  0  0  0  0  0  # atno 17343 bound_to 10162
  156.6819  130.4570  149.5625 LP  0  0  0  0  0  0  0  0  0  0  0  0  # atno 17370 bound_to 10713
  156.1923  130.6567  151.1075 LP  0  0  0  0  0  0  0  0  0  0  0  0  # atno 17371 bound_to 10713
  140.7152  133.9188  155.8110 LP  0  0  0  0  0  0  0  0  0  0  0  0  # atno 17394 bound_to 11000
  141.0269  134.0810  157.4058 LP  0  0  0  0  0  0  0  0  0  0  0  0  # atno 17395 bound_to 11000

$$$$
