AV-unprocessed.smi:1227|AV-procd|sdf|5146|dock10
  -GOLD-   22720 4213D 1   1.00000     0.00000
 Structure written by MMmdl.
 44 45  0  0  0  0  0  0  0  0  1 V2000
  146.8977  132.7751  152.2878 C   0  0  0  0  0  0  0  0  0  0  0  0
  147.9589  133.4956  152.9051 O   0  0  0  0  0  0  0  0  0  0  0  0
  148.7690  132.8336  153.8082 C   0  0  0  0  0  0  0  0  0  0  0  0
  148.5664  131.5061  154.0015 N   0  0  0  0  0  0  0  0  0  0  0  0
  149.3521  130.8576  154.8848 C   0  0  0  0  0  0  0  0  0  0  0  0
  150.3700  131.4920  155.6192 C   0  0  0  0  0  0  0  0  0  0  0  0
  150.5824  132.8688  155.4215 C   0  0  0  0  0  0  0  0  0  0  0  0
  149.7714  133.5638  154.4900 C   0  0  0  0  0  0  0  0  0  0  0  0
  149.8801  134.9564  154.2134 N   0  0  0  0  0  0  0  0  0  0  0  0
  150.5704  135.9083  154.8645 C   0  0  0  0  0  0  0  0  0  0  0  0
  151.2732  135.7330  155.8593 O   0  0  0  0  0  0  0  0  0  0  0  0
  150.4075  137.1033  154.2798 N   0  0  0  0  0  0  0  0  0  0  0  0
  151.0091  138.3494  154.7385 C   0  0  0  0  0  0  0  0  0  0  0  0
  150.2363  138.9520  155.9271 C   0  0  0  0  0  0  0  0  0  0  0  0
  150.8971  140.1651  156.4308 N   0  0  0  0  0  0  0  0  0  0  0  0
  152.2534  139.9750  156.9680 C   0  0  0  0  0  0  0  0  0  0  0  0
  152.3423  140.2748  158.4771 C   0  0  0  0  0  0  0  0  0  0  0  0
  152.4711  141.7683  158.8120 C   0  0  0  0  0  0  0  0  0  0  0  0
  151.2612  142.6168  158.3954 C   0  0  0  0  0  0  0  0  0  0  0  0
  151.0142  142.6157  156.8778 C   0  0  0  0  0  0  0  0  0  0  0  0
  150.2663  141.3635  156.4025 C   0  0  0  0  0  0  0  0  0  0  0  0
  149.1123  141.4968  155.9928 O   0  0  0  0  0  0  0  0  0  0  0  0
  146.3580  133.4377  151.6113 H   0  0  0  0  0  0  0  0  0  0  0  0
  146.1849  132.4055  153.0262 H   0  0  0  0  0  0  0  0  0  0  0  0
  147.2726  131.9362  151.6999 H   0  0  0  0  0  0  0  0  0  0  0  0
  149.1603  129.8025  155.0132 H   0  0  0  0  0  0  0  0  0  0  0  0
  150.9722  130.9358  156.3223 H   0  0  0  0  0  0  0  0  0  0  0  0
  151.3531  133.3555  155.9969 H   0  0  0  0  0  0  0  0  0  0  0  0
  149.3898  135.2621  153.3855 H   0  0  0  0  0  0  0  0  0  0  0  0
  149.8182  137.1570  153.4618 H   0  0  0  0  0  0  0  0  0  0  0  0
  152.0382  138.1338  155.0268 H   0  0  0  0  0  0  0  0  0  0  0  0
  151.0617  139.0635  153.9149 H   0  0  0  0  0  0  0  0  0  0  0  0
  149.2069  139.1658  155.6379 H   0  0  0  0  0  0  0  0  0  0  0  0
  150.1491  138.2120  156.7247 H   0  0  0  0  0  0  0  0  0  0  0  0
  152.5751  138.9439  156.8189 H   0  0  0  0  0  0  0  0  0  0  0  0
  152.9687  140.5793  156.4086 H   0  0  0  0  0  0  0  0  0  0  0  0
  151.4886  139.8409  158.9997 H   0  0  0  0  0  0  0  0  0  0  0  0
  153.2221  139.7682  158.8752 H   0  0  0  0  0  0  0  0  0  0  0  0
  152.6186  141.8743  159.8872 H   0  0  0  0  0  0  0  0  0  0  0  0
  153.3732  142.1684  158.3473 H   0  0  0  0  0  0  0  0  0  0  0  0
  150.3697  142.2794  158.9264 H   0  0  0  0  0  0  0  0  0  0  0  0
  151.4296  143.6436  158.7215 H   0  0  0  0  0  0  0  0  0  0  0  0
  150.4066  143.4849  156.6221 H   0  0  0  0  0  0  0  0  0  0  0  0
  151.9468  142.7353  156.3253 H   0  0  0  0  0  0  0  0  0  0  0  0
  1  2  1  0  0  0  0
  1 23  1  0  0  0  0
  1 24  1  0  0  0  0
  1 25  1  0  0  0  0
  2  3  1  0  0  0  0
  3  8  1  0  0  0  0
  3  4  2  0  0  0  0
  4  5  1  0  0  0  0
  5  6  2  0  0  0  0
  5 26  1  0  0  0  0
  6  7  1  0  0  0  0
  6 27  1  0  0  0  0
  7  8  2  0  0  0  0
  7 28  1  0  0  0  0
  8  9  1  0  0  0  0
  9 10  1  0  0  0  0
  9 29  1  0  0  0  0
 10 11  2  0  0  0  0
 10 12  1  0  0  0  0
 12 13  1  0  0  0  0
 12 30  1  0  0  0  0
 13 14  1  0  0  0  0
 13 31  1  0  0  0  0
 13 32  1  0  0  0  0
 14 15  1  0  0  0  0
 14 33  1  0  0  0  0
 14 34  1  0  0  0  0
 15 21  1  0  0  0  0
 15 16  1  0  0  0  0
 16 17  1  0  0  0  0
 16 35  1  0  0  0  0
 16 36  1  0  0  0  0
 17 18  1  0  0  0  0
 17 37  1  0  0  0  0
 17 38  1  0  0  0  0
 18 19  1  0  0  0  0
 18 39  1  0  0  0  0
 18 40  1  0  0  0  0
 19 20  1  0  0  0  0
 19 41  1  0  0  0  0
 19 42  1  0  0  0  0
 20 21  1  0  0  0  0
 20 43  1  0  0  0  0
 20 44  1  0  0  0  0
 21 22  2  0  0  0  0
M  END
> <s_m_source_file>
AV-unprocessed.smi

> <i_m_source_file_index>
1227

> <i_lp_mmshare_version>
43012

> <i_f3d_flags>
0

> <s_epik_input>
W0NIM11PYzFuW2NIXVtjSF1bY0hdYzFbTkhdQyg9TylbTkhdW0NIMl1bQ0gyXU4yW0NIMl1bQ0gyXVtDSDJdW0NIMl1bQ0gyXUMyPU8=

> <s_epik_cmdline>
J2VwaWtfcHl0aG9uJywgJy1waCcsICc3LjAnLCAnLXRuJywgJzgnLCAnLW1hJywgJzIwMCcsICctbWV0YWxfYmluZGluZycsICctaW1hZScsICc8aW5maWxlLm1hZT4nLCAnLW9tYWUnLCAnPG91dGZpbGUubWFlPic=

> <r_lp_tautomer_probability>
1

> <r_epik_Ionization_Penalty>
8.86757e-05

> <r_epik_Ionization_Penalty_Charging>
0

> <r_epik_Ionization_Penalty_Neutral>
8.86757e-05

> <r_epik_State_Penalty>
-0

> <r_epik_Charging_Adjusted_Penalty>
0

> <i_epik_Tot_Q>
0

> <i_epik_Tot_abs_Q>
0

> <r_epik_Metal_State_Penalty>
-0

> <b_epik_Metal_Only>
0

> <s_lp_Force_Field>
OPLS_2005

> <r_lp_Energy>
20.5681

> <b_lp_Chiralities_Consistent>
1

> <s_lp_Variant>
AV-unprocessed.smi:1227-1

> <Gold.Version>
5.8.1

> <Gold.Id.Protein>
6NUR|6NUR_protein|mol2

> <Gold.PLP.Fitness>
43.0713

> <Gold.PLP.PLP>
-35.3000

> <Gold.PLP.part.hbond>
-4.4863

> <Gold.PLP.part.metal>
0.0000

> <Gold.PLP.part.buried>
-3.3090

> <Gold.PLP.part.nonpolar>
-28.7708

> <Gold.PLP.part.repulsive>
1.1215

> <Gold.PLP.ligand.clash>
0.0000

> <Gold.PLP.ligand.torsion>
0.1910

> <Gold.PLP.Chemscore.Hbond>
2.7100

> <Gold.PLP.Chemscore.CHOScore>
0.0000

> <Gold.PLP.Chemscore.Metal>
0.0000

> <Gold.Chemscore.Hbonds>
donor molecule, donor type, donor heavy atom, donor atom, acceptor molecule, acceptor atom, score
      L1  H     9    29       P1  7948  0.75
      L1  H    12    30       P1  7948  0.98
      P1  H 10752 10764       L1    11  0.90

> <Gold.PLP.Chemscore.Internal.Correction>
0.0232

> <Gold.Rescore>
     Score         DG    S(hbond)    S(metal)    S(lipo)     H(rot)  DE(clash)    DE(int)     intcor
     15.22     -16.87       2.07        0.00      77.37       1.79       0.32       1.33       ----

> <Gold.Chemscore.Fitness>
15.2225

> <Gold.Chemscore.DG>
-16.8716

> <Gold.Chemscore.ZeroCoef>
-5.4800

> <Gold.Chemscore.Hbond>
2.0715

> <Gold.Chemscore.Metal>
0.0000

> <Gold.Chemscore.Lipo>
77.3733

> <Gold.Chemscore.Internal_Hbond>
0.0000

> <Gold.Chemscore.DEClash>
0.3185

> <Gold.Chemscore.DEInternal>
1.3306

> <Gold.Chemscore.Rot>
1.7890

> <Gold.Chemscore.Internal.Correction>
   9.000000E+99

> <Gold.Chemscore.Hbonds>
donor molecule, donor type, donor heavy atom, donor atom, acceptor molecule, acceptor atom, score
      L1  H     9    29       P1  7948  0.09
      L1  H    12    30       P1  7948  0.50
      P1  H 10752 10764       L1    11  0.17

> <Gold.Chemscore.Hbond.Weighted>
-6.9188

> <Gold.Chemscore.Metal.Weighted>
-0.0000

> <Gold.Chemscore.Lipo.Weighted>
-9.0527

> <Gold.Chemscore.Internal_Hbond.Weighted>
0.0000

> <Gold.Chemscore.DEClash.Weighted>
0.3185

> <Gold.Chemscore.DEInternal.Weighted>
1.3306

> <Gold.Chemscore.Rot.Weighted>
4.5799

> <Gold.Chemscore.Internal.Correction.Weighted>
   9.000000E+99

> <Gold.Protein.RotatedTorsions>
[ 6907 6896 6895 6894 ] final -136.72 input  -60.11 | X-H torsion
[ 7974 7965 7964 7962 ] final -131.06 input  175.53 | X-H torsion
[ 8008 7997 7996 7995 ] final   78.68 input   59.86 | X-H torsion
[ 10167 10162 10161 10158 ] final  -31.46 input  -65.29 | X-H torsion
[ 10718 10713 10712 10709 ] final -157.70 input   66.30 | X-H torsion
[ 10763 10752 10751 10750 ] final  -38.31 input  -60.55 | X-H torsion
[ 11005 11000 10999 10996 ] final  164.40 input  -57.11 | X-H torsion

> <Gold.Protein.ActiveResidues>
 VAL166  LYS551  ARG553  GLY616  TRP617  ASP618  TYR619  PRO620  LYS621  CYS622 
 ASP623  PHE694  ASN695  SER759  ASP760  ASP761  ALA762  ILE779  LEU786  VAL792 
 PHE793  MET794  SER795  GLU796  ALA797  LYS798  CYS799  TRP800  GLU811  SER814 

> <Gold.Protein.RotatedAtoms>
  151.0136  133.5942  159.2679 H   0  0  0  0  0  0  0  0  0  0  0  0  # atno 6907 bound_to 6896
  151.3085  135.0787  159.9273 H   0  0  0  0  0  0  0  0  0  0  0  0  # atno 6908 bound_to 6896
  152.5306  133.9805  159.7858 H   0  0  0  0  0  0  0  0  0  0  0  0  # atno 6909 bound_to 6896
  144.9415  140.7244  143.4843 H   0  0  0  0  0  0  0  0  0  0  0  0  # atno 7974 bound_to 7965
  155.8591  140.3454  155.5744 H   0  0  0  0  0  0  0  0  0  0  0  0  # atno 8008 bound_to 7997
  155.7953  140.0877  157.2006 H   0  0  0  0  0  0  0  0  0  0  0  0  # atno 8009 bound_to 7997
  154.4011  140.1475  156.3198 H   0  0  0  0  0  0  0  0  0  0  0  0  # atno 8010 bound_to 7997
  140.7236  143.3769  151.1672 H   0  0  0  0  0  0  0  0  0  0  0  0  # atno 10167 bound_to 10162
  156.5439  130.8575  151.2758 H   0  0  0  0  0  0  0  0  0  0  0  0  # atno 10718 bound_to 10713
  153.9108  135.6792  153.4751 H   0  0  0  0  0  0  0  0  0  0  0  0  # atno 10763 bound_to 10752
  153.1080  135.4796  154.8982 H   0  0  0  0  0  0  0  0  0  0  0  0  # atno 10764 bound_to 10752
  154.7528  135.3189  154.8481 H   0  0  0  0  0  0  0  0  0  0  0  0  # atno 10765 bound_to 10752
  140.2455  134.8017  157.3452 H   0  0  0  0  0  0  0  0  0  0  0  0  # atno 11005 bound_to 11000
  145.2983  139.1859  143.4703 LP  0  0  0  0  0  0  0  0  0  0  0  0  # atno 17320 bound_to 7965
  146.3287  140.2970  142.8618 LP  0  0  0  0  0  0  0  0  0  0  0  0  # atno 17321 bound_to 7965
  139.7351  143.9011  152.3032 LP  0  0  0  0  0  0  0  0  0  0  0  0  # atno 17342 bound_to 10162
  139.8814  144.7016  150.8874 LP  0  0  0  0  0  0  0  0  0  0  0  0  # atno 17343 bound_to 10162
  157.7400  130.9842  150.2351 LP  0  0  0  0  0  0  0  0  0  0  0  0  # atno 17370 bound_to 10713
  156.2946  130.3750  149.7808 LP  0  0  0  0  0  0  0  0  0  0  0  0  # atno 17371 bound_to 10713
  140.1610  134.4729  155.7895 LP  0  0  0  0  0  0  0  0  0  0  0  0  # atno 17394 bound_to 11000
  141.2206  133.6901  156.7543 LP  0  0  0  0  0  0  0  0  0  0  0  0  # atno 17395 bound_to 11000

$$$$
