AV-unprocessed.smi:2945|AV-procd|sdf|11278|dock3
  -GOLD-   2272016173D 1   1.00000     0.00000
 Structure written by MMmdl.
 36 37  0  0  0  0  0  0  0  0  1 V2000
  139.9864  138.9174  153.3814 C   0  0  0  0  0  0  0  0  0  0  0  0
  140.4355  137.5003  153.4880 C   0  0  0  0  0  0  0  0  0  0  0  0
  141.6280  136.8811  153.2398 C   0  0  0  0  0  0  0  0  0  0  0  0
  141.3548  135.5232  153.5535 C   0  0  0  0  0  0  0  0  0  0  0  0
  142.3611  134.5321  153.4283 N   0  0  0  0  0  0  0  0  0  0  0  0
  143.5964  134.6761  152.9196 C   0  0  0  0  0  0  0  0  0  0  0  0
  144.0658  135.7281  152.4848 O   0  0  0  0  0  0  0  0  0  0  0  0
  144.2667  133.5147  152.9482 N   0  0  0  0  0  0  0  0  0  0  0  0
  145.6322  133.2902  152.4684 C   0  0  2  0  0  0  0  0  0  0  0  0
  145.7399  133.7113  150.9888 C   0  0  0  0  0  0  0  0  0  0  0  0
  144.9717  132.7591  150.0559 C   0  0  0  0  0  0  0  0  0  0  0  0
  145.4252  131.3046  150.2503 C   0  0  0  0  0  0  0  0  0  0  0  0
  145.2997  130.8702  151.7196 C   0  0  0  0  0  0  0  0  0  0  0  0
  146.0746  131.8168  152.6599 C   0  0  2  0  0  0  0  0  0  0  0  0
  145.9968  131.3496  154.1234 C   0  0  0  0  0  0  0  0  0  0  0  0
  140.1079  135.3302  153.9550 N   0  0  0  0  0  0  0  0  0  0  0  0
  139.5121  136.5964  153.9147 O   0  0  0  0  0  0  0  0  0  0  0  0
  140.8192  139.5721  153.1241 H   0  0  0  0  0  0  0  0  0  0  0  0
  139.5658  139.2624  154.3260 H   0  0  0  0  0  0  0  0  0  0  0  0
  139.2223  139.0233  152.6111 H   0  0  0  0  0  0  0  0  0  0  0  0
  142.5465  137.3304  152.8921 H   0  0  0  0  0  0  0  0  0  0  0  0
  142.1100  133.6105  153.7532 H   0  0  0  0  0  0  0  0  0  0  0  0
  143.7922  132.7098  153.3300 H   0  0  0  0  0  0  0  0  0  0  0  0
  146.3196  133.9231  153.0322 H   0  0  0  0  0  0  0  0  0  0  0  0
  145.3796  134.7327  150.8598 H   0  0  0  0  0  0  0  0  0  0  0  0
  146.7906  133.7230  150.6965 H   0  0  0  0  0  0  0  0  0  0  0  0
  143.9008  132.8373  150.2464 H   0  0  0  0  0  0  0  0  0  0  0  0
  145.1205  133.0580  149.0180 H   0  0  0  0  0  0  0  0  0  0  0  0
  144.8344  130.6437  149.6155 H   0  0  0  0  0  0  0  0  0  0  0  0
  146.4611  131.1992  149.9257 H   0  0  0  0  0  0  0  0  0  0  0  0
  144.2470  130.8410  152.0033 H   0  0  0  0  0  0  0  0  0  0  0  0
  145.6730  129.8513  151.8282 H   0  0  0  0  0  0  0  0  0  0  0  0
  147.1260  131.7623  152.3732 H   0  0  0  0  0  0  0  0  0  0  0  0
  144.9679  131.3110  154.4820 H   0  0  0  0  0  0  0  0  0  0  0  0
  146.5533  132.0204  154.7782 H   0  0  0  0  0  0  0  0  0  0  0  0
  146.4210  130.3518  154.2374 H   0  0  0  0  0  0  0  0  0  0  0  0
  1  2  1  0  0  0  0
  1 18  1  0  0  0  0
  1 19  1  0  0  0  0
  1 20  1  0  0  0  0
  2 17  1  0  0  0  0
  2  3  2  0  0  0  0
  3  4  1  0  0  0  0
  3 21  1  0  0  0  0
  4  5  1  0  0  0  0
  4 16  2  0  0  0  0
  5  6  1  0  0  0  0
  5 22  1  0  0  0  0
  6  7  2  0  0  0  0
  6  8  1  0  0  0  0
  8  9  1  0  0  0  0
  8 23  1  0  0  0  0
  9 14  1  0  0  0  0
  9 10  1  0  0  0  0
  9 24  1  0  0  0  0
 10 11  1  0  0  0  0
 10 25  1  0  0  0  0
 10 26  1  0  0  0  0
 11 12  1  0  0  0  0
 11 27  1  0  0  0  0
 11 28  1  0  0  0  0
 12 13  1  0  0  0  0
 12 29  1  0  0  0  0
 12 30  1  0  0  0  0
 13 14  1  0  0  0  0
 13 31  1  0  0  0  0
 13 32  1  0  0  0  0
 14 15  1  0  0  0  0
 14 33  1  0  0  0  0
 15 34  1  0  0  0  0
 15 35  1  0  0  0  0
 15 36  1  0  0  0  0
 16 17  1  0  0  0  0
M  END
> <s_m_source_file>
AV-unprocessed.smi

> <i_m_source_file_index>
2945

> <i_lp_mmshare_version>
43012

> <i_f3d_flags>
0

> <s_epik_input>
W0NIM11jMVtjSF1jKG5vMSlbTkhdQyg9TylbTkhdW0NAQEhdMltDSDJdW0NIMl1bQ0gyXVtDSDJdW0NASF0yW0NIM10=

> <s_epik_cmdline>
J2VwaWtfcHl0aG9uJywgJy1waCcsICc3LjAnLCAnLXRuJywgJzgnLCAnLW1hJywgJzIwMCcsICctbWV0YWxfYmluZGluZycsICctaW1hZScsICc8aW5maWxlLm1hZT4nLCAnLW9tYWUnLCAnPG91dGZpbGUubWFlPic=

> <r_lp_tautomer_probability>
1

> <r_epik_Ionization_Penalty>
2.357e-05

> <r_epik_Ionization_Penalty_Charging>
0

> <r_epik_Ionization_Penalty_Neutral>
2.357e-05

> <r_epik_State_Penalty>
-0

> <r_epik_Charging_Adjusted_Penalty>
0

> <i_epik_Tot_Q>
0

> <i_epik_Tot_abs_Q>
0

> <r_epik_Metal_State_Penalty>
-0

> <b_epik_Metal_Only>
0

> <s_lp_Force_Field>
OPLS_2005

> <r_lp_Energy>
7.46694

> <b_lp_Chiralities_Consistent>
1

> <s_lp_Variant>
AV-unprocessed.smi:2945-3

> <Gold.Version>
5.8.1

> <Gold.Id.Protein>
6NUR|6NUR_protein|mol2

> <Gold.PLP.Fitness>
35.9721

> <Gold.PLP.PLP>
-27.1685

> <Gold.PLP.part.hbond>
-3.8512

> <Gold.PLP.part.metal>
0.0000

> <Gold.PLP.part.buried>
-6.3036

> <Gold.PLP.part.nonpolar>
-18.7126

> <Gold.PLP.part.repulsive>
0.3559

> <Gold.PLP.ligand.clash>
0.0000

> <Gold.PLP.ligand.torsion>
0.0153

> <Gold.PLP.Chemscore.Hbond>
2.9425

> <Gold.PLP.Chemscore.CHOScore>
0.0000

> <Gold.PLP.Chemscore.Metal>
0.0000

> <Gold.Chemscore.Hbonds>
donor molecule, donor type, donor heavy atom, donor atom, acceptor molecule, acceptor atom, score
      L1  H     5    22       P1 10957  0.65
      L1  H     8    23       P1 10957  0.94
      P1  H 11000 11005       L1    16  1.00

> <Gold.PLP.Chemscore.Internal.Correction>
0.0067

> <Gold.Rescore>
     Score         DG    S(hbond)    S(metal)    S(lipo)     H(rot)  DE(clash)    DE(int)     intcor
     16.80     -19.25       2.67        0.00      63.32       1.00       0.19       2.27       ----

> <Gold.Chemscore.Fitness>
16.7973

> <Gold.Chemscore.DG>
-19.2510

> <Gold.Chemscore.ZeroCoef>
-5.4800

> <Gold.Chemscore.Hbond>
2.6715

> <Gold.Chemscore.Metal>
0.0000

> <Gold.Chemscore.Lipo>
63.3178

> <Gold.Chemscore.Internal_Hbond>
0.0000

> <Gold.Chemscore.DEClash>
0.1850

> <Gold.Chemscore.DEInternal>
2.2687

> <Gold.Chemscore.Rot>
1.0000

> <Gold.Chemscore.Internal.Correction>
   9.000000E+99

> <Gold.Chemscore.Hbonds>
donor molecule, donor type, donor heavy atom, donor atom, acceptor molecule, acceptor atom, score
      L1  H     5    22       P1 10957  0.62
      L1  H     8    23       P1 10957  0.39
      P1  H 11000 11005       L1    16  0.54

> <Gold.Chemscore.Hbond.Weighted>
-8.9228

> <Gold.Chemscore.Metal.Weighted>
-0.0000

> <Gold.Chemscore.Lipo.Weighted>
-7.4082

> <Gold.Chemscore.Internal_Hbond.Weighted>
0.0000

> <Gold.Chemscore.DEClash.Weighted>
0.1850

> <Gold.Chemscore.DEInternal.Weighted>
2.2687

> <Gold.Chemscore.Rot.Weighted>
2.5600

> <Gold.Chemscore.Internal.Correction.Weighted>
   9.000000E+99

> <Gold.Protein.RotatedTorsions>
[ 6907 6896 6895 6894 ] final   44.80 input  -60.11 | X-H torsion
[ 7974 7965 7964 7962 ] final  -40.21 input  175.53 | X-H torsion
[ 8008 7997 7996 7995 ] final   35.53 input   59.86 | X-H torsion
[ 10167 10162 10161 10158 ] final  -49.21 input  -65.29 | X-H torsion
[ 10718 10713 10712 10709 ] final  -32.66 input   66.30 | X-H torsion
[ 10763 10752 10751 10750 ] final -137.80 input  -60.55 | X-H torsion
[ 11005 11000 10999 10996 ] final   39.45 input  -57.11 | X-H torsion

> <Gold.Protein.ActiveResidues>
 VAL166  LYS551  ARG553  GLY616  TRP617  ASP618  TYR619  PRO620  LYS621  CYS622 
 ASP623  PHE694  ASN695  SER759  ASP760  ASP761  ALA762  ILE779  LEU786  VAL792 
 PHE793  MET794  SER795  GLU796  ALA797  LYS798  CYS799  TRP800  GLU811  SER814 

> <Gold.Protein.RotatedAtoms>
  152.2369  134.8267  160.0465 H   0  0  0  0  0  0  0  0  0  0  0  0  # atno 6907 bound_to 6896
  151.8996  133.3530  159.3834 H   0  0  0  0  0  0  0  0  0  0  0  0  # atno 6908 bound_to 6896
  150.7042  134.4768  159.5495 H   0  0  0  0  0  0  0  0  0  0  0  0  # atno 6909 bound_to 6896
  146.0325  140.6713  142.9126 H   0  0  0  0  0  0  0  0  0  0  0  0  # atno 7974 bound_to 7965
  155.1726  140.3293  155.4390 H   0  0  0  0  0  0  0  0  0  0  0  0  # atno 8008 bound_to 7997
  156.2505  140.1941  156.6779 H   0  0  0  0  0  0  0  0  0  0  0  0  # atno 8009 bound_to 7997
  154.6327  140.0580  156.9737 H   0  0  0  0  0  0  0  0  0  0  0  0  # atno 8010 bound_to 7997
  140.6696  143.2707  151.4182 H   0  0  0  0  0  0  0  0  0  0  0  0  # atno 10167 bound_to 10162
  156.3722  130.4341  149.7536 H   0  0  0  0  0  0  0  0  0  0  0  0  # atno 10718 bound_to 10713
  154.8653  135.3631  154.5282 H   0  0  0  0  0  0  0  0  0  0  0  0  # atno 10763 bound_to 10752
  153.5909  135.7015  153.5428 H   0  0  0  0  0  0  0  0  0  0  0  0  # atno 10764 bound_to 10752
  153.3375  135.4107  155.1507 H   0  0  0  0  0  0  0  0  0  0  0  0  # atno 10765 bound_to 10752
  140.2027  134.3851  155.8088 H   0  0  0  0  0  0  0  0  0  0  0  0  # atno 11005 bound_to 11000
  144.7037  140.3762  143.7135 LP  0  0  0  0  0  0  0  0  0  0  0  0  # atno 17320 bound_to 7965
  145.7017  139.1663  143.2589 LP  0  0  0  0  0  0  0  0  0  0  0  0  # atno 17321 bound_to 7965
  139.5958  144.1401  152.2142 LP  0  0  0  0  0  0  0  0  0  0  0  0  # atno 17342 bound_to 10162
  140.0769  144.5733  150.7150 LP  0  0  0  0  0  0  0  0  0  0  0  0  # atno 17343 bound_to 10162
  156.4659  130.7973  151.2993 LP  0  0  0  0  0  0  0  0  0  0  0  0  # atno 17370 bound_to 10713
  157.7485  131.0051  150.3101 LP  0  0  0  0  0  0  0  0  0  0  0  0  # atno 17371 bound_to 10713
  141.2227  133.7102  156.8285 LP  0  0  0  0  0  0  0  0  0  0  0  0  # atno 17394 bound_to 11000
  140.2037  134.8878  157.3197 LP  0  0  0  0  0  0  0  0  0  0  0  0  # atno 17395 bound_to 11000

$$$$
