AV-unprocessed.smi:1047|AV-procd|sdf|4562|dock8
  -GOLD-   22720 3 03D 1   1.00000     0.00000
 Structure written by MMmdl.
 57 59  0  0  0  0  0  0  0  0  3 V2000
  144.5639  133.0684  150.3842 C   0  0  0  0  0  0  0  0  0  0  0  0
  145.8538  132.4838  150.9761 C   0  0  0  0  0  0  0  0  0  0  0  0
  145.7862  132.3478  152.4552 N   0  3  1  0  0  0  0  0  0  0  0  0
  146.8742  131.5343  153.0550 C   0  0  0  0  0  0  0  0  0  0  0  0
  148.1863  132.3349  153.1560 C   0  0  0  0  0  0  0  0  0  0  0  0
  147.9588  133.5428  153.8728 O   0  0  0  0  0  0  0  0  0  0  0  0
  147.0077  134.3904  153.2356 C   0  0  2  0  0  0  0  0  0  0  0  0
  146.8990  135.6818  154.0610 C   0  0  0  0  0  0  0  0  0  0  0  0
  147.0327  136.8820  153.2105 N   0  3  0  0  0  0  0  0  0  0  0  0
  147.3375  138.1174  153.9606 C   0  0  0  0  0  0  0  0  0  0  0  0
  147.4847  139.3254  153.0208 C   0  0  2  0  0  0  0  0  0  0  0  0
  148.0829  138.8903  151.8144 O   0  0  0  0  0  0  0  0  0  0  0  0
  148.3498  140.4360  153.6482 C   0  0  0  0  0  0  0  0  0  0  0  0
  149.5002  139.9098  154.3609 N   0  0  0  0  0  0  0  0  0  0  0  0
  150.2554  138.8484  154.0168 C   0  0  0  0  0  0  0  0  0  0  0  0
  151.2720  138.5401  154.8163 N   0  0  0  0  0  0  0  0  0  0  0  0
  151.1589  139.5092  155.7982 C   0  0  0  0  0  0  0  0  0  0  0  0
  151.9386  139.7401  156.9524 C   0  0  0  0  0  0  0  0  0  0  0  0
  151.6340  140.8034  157.8317 C   0  0  0  0  0  0  0  0  0  0  0  0
  152.4981  141.0134  159.0629 C   0  0  0  0  0  0  0  0  0  0  0  0
  150.5334  141.6558  157.5619 C   0  0  0  0  0  0  0  0  0  0  0  0
  150.1828  142.7988  158.4980 C   0  0  0  0  0  0  0  0  0  0  0  0
  149.7467  141.4423  156.4105 C   0  0  0  0  0  0  0  0  0  0  0  0
  150.0594  140.3803  155.5438 C   0  0  0  0  0  0  0  0  0  0  0  0
  145.6574  133.6439  153.1666 C   0  0  0  0  0  0  0  0  0  0  0  0
  144.6780  133.2414  149.3139 H   0  0  0  0  0  0  0  0  0  0  0  0
  144.3158  134.0239  150.8472 H   0  0  0  0  0  0  0  0  0  0  0  0
  143.7131  132.4003  150.5133 H   0  0  0  0  0  0  0  0  0  0  0  0
  146.0895  131.5289  150.5061 H   0  0  0  0  0  0  0  0  0  0  0  0
  146.6692  133.1607  150.7181 H   0  0  0  0  0  0  0  0  0  0  0  0
  146.5606  131.2376  154.0568 H   0  0  0  0  0  0  0  0  0  0  0  0
  147.0292  130.6088  152.5016 H   0  0  0  0  0  0  0  0  0  0  0  0
  148.9381  131.7502  153.6866 H   0  0  0  0  0  0  0  0  0  0  0  0
  148.5989  132.5533  152.1705 H   0  0  0  0  0  0  0  0  0  0  0  0
  147.3485  134.6379  152.2284 H   0  0  0  0  0  0  0  0  0  0  0  0
  145.9319  135.7217  154.5638 H   0  0  0  0  0  0  0  0  0  0  0  0
  147.6650  135.6943  154.8378 H   0  0  0  0  0  0  0  0  0  0  0  0
  147.7847  136.7271  152.5531 H   0  0  0  0  0  0  0  0  0  0  0  0
  146.5298  138.2991  154.6710 H   0  0  0  0  0  0  0  0  0  0  0  0
  148.2501  137.9779  154.5427 H   0  0  0  0  0  0  0  0  0  0  0  0
  146.4983  139.7293  152.7882 H   0  0  0  0  0  0  0  0  0  0  0  0
  148.3526  137.9900  151.9210 H   0  0  0  0  0  0  0  0  0  0  0  0
  148.7108  141.1161  152.8757 H   0  0  0  0  0  0  0  0  0  0  0  0
  147.7576  141.0377  154.3397 H   0  0  0  0  0  0  0  0  0  0  0  0
  150.0501  138.2728  153.1259 H   0  0  0  0  0  0  0  0  0  0  0  0
  152.7751  139.0886  157.1587 H   0  0  0  0  0  0  0  0  0  0  0  0
  151.9091  140.8771  159.9702 H   0  0  0  0  0  0  0  0  0  0  0  0
  152.9188  142.0191  159.0697 H   0  0  0  0  0  0  0  0  0  0  0  0
  153.3273  140.3063  159.0924 H   0  0  0  0  0  0  0  0  0  0  0  0
  149.2949  143.3332  158.1591 H   0  0  0  0  0  0  0  0  0  0  0  0
  151.0038  143.5138  158.5532 H   0  0  0  0  0  0  0  0  0  0  0  0
  149.9827  142.4224  159.5017 H   0  0  0  0  0  0  0  0  0  0  0  0
  148.9061  142.0845  156.1929 H   0  0  0  0  0  0  0  0  0  0  0  0
  144.8925  134.2622  152.6952 H   0  0  0  0  0  0  0  0  0  0  0  0
  145.3024  133.4410  154.1781 H   0  0  0  0  0  0  0  0  0  0  0  0
  146.1757  137.0185  152.6936 H   0  0  0  0  0  0  0  0  0  0  0  0
  144.9245  131.8506  152.6320 H   0  0  0  0  0  0  0  0  0  0  0  0
  1  2  1  0  0  0  0
  1 26  1  0  0  0  0
  1 27  1  0  0  0  0
  1 28  1  0  0  0  0
  2  3  1  0  0  0  0
  2 29  1  0  0  0  0
  2 30  1  0  0  0  0
  3 25  1  0  0  0  0
  3  4  1  0  0  0  0
  3 57  1  0  0  0  0
  4  5  1  0  0  0  0
  4 31  1  0  0  0  0
  4 32  1  0  0  0  0
  5  6  1  0  0  0  0
  5 33  1  0  0  0  0
  5 34  1  0  0  0  0
  6  7  1  0  0  0  0
  7  8  1  0  0  0  0
  7 25  1  0  0  0  0
  7 35  1  0  0  0  0
  8  9  1  0  0  0  0
  8 36  1  0  0  0  0
  8 37  1  0  0  0  0
  9 10  1  0  0  0  0
  9 38  1  0  0  0  0
  9 56  1  0  0  0  0
 10 11  1  0  0  0  0
 10 39  1  0  0  0  0
 10 40  1  0  0  0  0
 11 12  1  0  0  0  0
 11 13  1  0  0  0  0
 11 41  1  0  0  0  0
 12 42  1  0  0  0  0
 13 14  1  0  0  0  0
 13 43  1  0  0  0  0
 13 44  1  0  0  0  0
 14 24  1  0  0  0  0
 14 15  1  0  0  0  0
 15 16  2  0  0  0  0
 15 45  1  0  0  0  0
 16 17  1  0  0  0  0
 17 24  2  0  0  0  0
 17 18  1  0  0  0  0
 18 19  2  0  0  0  0
 18 46  1  0  0  0  0
 19 20  1  0  0  0  0
 19 21  1  0  0  0  0
 20 47  1  0  0  0  0
 20 48  1  0  0  0  0
 20 49  1  0  0  0  0
 21 22  1  0  0  0  0
 21 23  2  0  0  0  0
 22 50  1  0  0  0  0
 22 51  1  0  0  0  0
 22 52  1  0  0  0  0
 23 24  1  0  0  0  0
 23 53  1  0  0  0  0
 25 54  1  0  0  0  0
 25 55  1  0  0  0  0
M  CHG  1   3   1
M  CHG  1   9   1
M  END
> <s_m_source_file>
AV-unprocessed.smi

> <i_m_source_file_index>
1047

> <i_lp_mmshare_version>
43012

> <i_f3d_flags>
0

> <s_epik_input>
W0NIM11bQ0gyXU4xW0NIMl1bQ0gyXU9bQ0BIXShbQ0gyXTEpW0NIMl1bTkhdW0NIMl1bQ0BIXShbT0hdKVtDSDJdbihbY0hdbjIpYyhjMjMpW2NIXWMoW0NIM10pYyhbY0hdMylbQ0gzXQ==

> <s_epik_cmdline>
J2VwaWtfcHl0aG9uJywgJy1waCcsICc3LjAnLCAnLXRuJywgJzgnLCAnLW1hJywgJzIwMCcsICctbWV0YWxfYmluZGluZycsICctaW1hZScsICc8aW5maWxlLm1hZT4nLCAnLW9tYWUnLCAnPG91dGZpbGUubWFlPic=

> <r_epik_Ionization_Penalty>
0.528991

> <r_epik_Ionization_Penalty_Charging>
0.438567

> <r_epik_Ionization_Penalty_Neutral>
0.0904237

> <r_epik_State_Penalty>
0.533036

> <r_epik_Charging_Adjusted_Penalty>
0.971603

> <i_epik_Tot_Q>
2

> <i_epik_Tot_abs_Q>
2

> <r_epik_Metal_State_Penalty>
0.448985

> <b_epik_Metal_Only>
0

> <s_lp_Force_Field>
OPLS_2005

> <r_lp_Energy>
30.7538

> <b_lp_Chiralities_Consistent>
1

> <s_lp_Variant>
AV-unprocessed.smi:1047-3

> <Gold.Version>
5.8.1

> <Gold.Id.Protein>
6NUR|6NUR_protein|mol2

> <Gold.PLP.Fitness>
50.3032

> <Gold.PLP.PLP>
-39.7753

> <Gold.PLP.part.hbond>
-3.0773

> <Gold.PLP.part.metal>
0.0000

> <Gold.PLP.part.buried>
-3.4792

> <Gold.PLP.part.nonpolar>
-33.4086

> <Gold.PLP.part.repulsive>
0.2499

> <Gold.PLP.ligand.clash>
0.0000

> <Gold.PLP.ligand.torsion>
1.5904

> <Gold.PLP.Chemscore.Hbond>
3.0000

> <Gold.PLP.Chemscore.CHOScore>
1.5165

> <Gold.PLP.Chemscore.Metal>
0.0000

> <Gold.Chemscore.Hbonds>
donor molecule, donor type, donor heavy atom, donor atom, acceptor molecule, acceptor atom, score
      L1  H     9    38       P1  7948  1.56
      L1  H    12    42       P1  7948  1.00
      L1  C    15    45       P1  7948  0.85
      L1  C    15    45       P1  7957  0.37

> <Gold.PLP.Chemscore.Internal.Correction>
0.1589

> <Gold.Rescore>
     Score         DG    S(hbond)    S(metal)    S(lipo)     H(rot)  DE(clash)    DE(int)     intcor
     14.41     -16.92       1.99        0.00      99.94       2.70       0.18       2.33       ----

> <Gold.Chemscore.Fitness>
14.4080

> <Gold.Chemscore.DG>
-16.9224

> <Gold.Chemscore.ZeroCoef>
-5.4800

> <Gold.Chemscore.Hbond>
1.9934

> <Gold.Chemscore.Metal>
0.0000

> <Gold.Chemscore.Lipo>
99.9360

> <Gold.Chemscore.Internal_Hbond>
0.0000

> <Gold.Chemscore.DEClash>
0.1849

> <Gold.Chemscore.DEInternal>
2.3296

> <Gold.Chemscore.Rot>
2.6985

> <Gold.Chemscore.Internal.Correction>
   9.000000E+99

> <Gold.Chemscore.Hbonds>
donor molecule, donor type, donor heavy atom, donor atom, acceptor molecule, acceptor atom, score
      L1  H     9    38       P1  7948  0.77
      L1  H    12    42       P1  7948  1.00

> <Gold.Chemscore.Hbond.Weighted>
-6.6581

> <Gold.Chemscore.Metal.Weighted>
-0.0000

> <Gold.Chemscore.Lipo.Weighted>
-11.6925

> <Gold.Chemscore.Internal_Hbond.Weighted>
0.0000

> <Gold.Chemscore.DEClash.Weighted>
0.1849

> <Gold.Chemscore.DEInternal.Weighted>
2.3296

> <Gold.Chemscore.Rot.Weighted>
6.9081

> <Gold.Chemscore.Internal.Correction.Weighted>
   9.000000E+99

> <Gold.Protein.RotatedTorsions>
[ 6907 6896 6895 6894 ] final -134.50 input  -60.11 | X-H torsion
[ 7974 7965 7964 7962 ] final   68.81 input  175.53 | X-H torsion
[ 8008 7997 7996 7995 ] final    1.27 input   59.86 | X-H torsion
[ 10167 10162 10161 10158 ] final  -28.23 input  -65.29 | X-H torsion
[ 10718 10713 10712 10709 ] final  -70.96 input   66.30 | X-H torsion
[ 10763 10752 10751 10750 ] final  -34.64 input  -60.55 | X-H torsion
[ 11005 11000 10999 10996 ] final   27.80 input  -57.11 | X-H torsion

> <Gold.Protein.ActiveResidues>
 VAL166  LYS551  ARG553  GLY616  TRP617  ASP618  TYR619  PRO620  LYS621  CYS622 
 ASP623  PHE694  ASN695  SER759  ASP760  ASP761  ALA762  ILE779  LEU786  VAL792 
 PHE793  MET794  SER795  GLU796  ALA797  LYS798  CYS799  TRP800  GLU811  SER814 

> <Gold.Protein.RotatedAtoms>
  150.9866  133.6191  159.2714 H   0  0  0  0  0  0  0  0  0  0  0  0  # atno 6907 bound_to 6896
  151.3427  135.0866  159.9386 H   0  0  0  0  0  0  0  0  0  0  0  0  # atno 6908 bound_to 6896
  152.5233  133.9474  159.7710 H   0  0  0  0  0  0  0  0  0  0  0  0  # atno 6909 bound_to 6896
  145.7981  139.2968  143.1171 H   0  0  0  0  0  0  0  0  0  0  0  0  # atno 7974 bound_to 7965
  154.6778  140.2626  155.6940 H   0  0  0  0  0  0  0  0  0  0  0  0  # atno 8008 bound_to 7997
  156.2685  140.2816  156.1233 H   0  0  0  0  0  0  0  0  0  0  0  0  # atno 8009 bound_to 7997
  155.1076  140.0375  157.2705 H   0  0  0  0  0  0  0  0  0  0  0  0  # atno 8010 bound_to 7997
  140.7271  143.4027  151.1238 H   0  0  0  0  0  0  0  0  0  0  0  0  # atno 10167 bound_to 10162
  156.0384  130.4342  150.2373 H   0  0  0  0  0  0  0  0  0  0  0  0  # atno 10718 bound_to 10713
  153.8500  135.6850  153.4793 H   0  0  0  0  0  0  0  0  0  0  0  0  # atno 10763 bound_to 10752
  153.1403  135.4660  154.9483 H   0  0  0  0  0  0  0  0  0  0  0  0  # atno 10764 bound_to 10752
  154.7806  135.3268  154.7944 H   0  0  0  0  0  0  0  0  0  0  0  0  # atno 10765 bound_to 10752
  140.3224  134.2529  155.7715 H   0  0  0  0  0  0  0  0  0  0  0  0  # atno 11005 bound_to 11000
  145.9907  140.8605  143.0068 LP  0  0  0  0  0  0  0  0  0  0  0  0  # atno 17320 bound_to 7965
  144.6772  140.2211  143.7366 LP  0  0  0  0  0  0  0  0  0  0  0  0  # atno 17321 bound_to 7965
  139.7649  143.8580  152.3108 LP  0  0  0  0  0  0  0  0  0  0  0  0  # atno 17342 bound_to 10162
  139.8479  144.7179  150.9250 LP  0  0  0  0  0  0  0  0  0  0  0  0  # atno 17343 bound_to 10162
  157.0470  131.0052  151.3265 LP  0  0  0  0  0  0  0  0  0  0  0  0  # atno 17370 bound_to 10713
  157.5168  130.7973  149.7765 LP  0  0  0  0  0  0  0  0  0  0  0  0  # atno 17371 bound_to 10713
  141.2083  133.7780  157.0065 LP  0  0  0  0  0  0  0  0  0  0  0  0  # atno 17394 bound_to 11000
  140.0931  134.9581  157.1806 LP  0  0  0  0  0  0  0  0  0  0  0  0  # atno 17395 bound_to 11000

$$$$
