AV-unprocessed.smi:1978|AV-procd|sdf|8015|dock5
  -GOLD-   2272010203D 1   1.00000     0.00000
 Structure written by MMmdl.
 44 45  0  0  0  0  0  0  0  0  3 V2000
  151.2283  144.7936  160.7080 C   0  0  0  0  0  0  0  0  0  0  0  0
  150.8941  143.6465  159.8176 C   0  0  0  0  0  0  0  0  0  0  0  0
  151.1971  143.3604  158.5165 C   0  0  0  0  0  0  0  0  0  0  0  0
  150.5540  142.1120  158.3039 C   0  0  0  0  0  0  0  0  0  0  0  0
  150.6270  141.4671  157.0411 N   0  0  0  0  0  0  0  0  0  0  0  0
  150.5552  140.1533  156.7601 C   0  0  0  0  0  0  0  0  0  0  0  0
  150.4361  139.3254  157.6707 O   0  0  0  0  0  0  0  0  0  0  0  0
  150.6254  139.9102  155.4226 N   0  5  0  0  0  0  0  0  0  0  0  0
  150.2818  138.6410  154.7804 C   0  0  0  0  0  0  0  0  0  0  0  0
  148.7529  138.3975  154.8554 C   0  0  1  0  0  0  0  0  0  0  0  0
  147.9289  139.3098  153.9069 C   0  0  0  0  0  0  0  0  0  0  0  0
  148.4681  136.9380  154.6770 N   0  3  2  0  0  0  0  0  0  0  0  0
  147.0471  136.5078  154.8364 C   0  0  0  0  0  0  0  0  0  0  0  0
  146.8433  135.0768  154.3146 C   0  0  0  0  0  0  0  0  0  0  0  0
  147.7988  134.0964  155.0050 C   0  0  0  0  0  0  0  0  0  0  0  0
  149.2487  134.5757  154.8448 C   0  0  0  0  0  0  0  0  0  0  0  0
  149.4431  136.0224  155.3455 C   0  0  2  0  0  0  0  0  0  0  0  0
  149.4212  136.1183  156.8854 C   0  0  0  0  0  0  0  0  0  0  0  0
  149.9191  141.6741  159.3813 N   0  0  0  0  0  0  0  0  0  0  0  0
  150.1342  142.6551  160.3566 O   0  0  0  0  0  0  0  0  0  0  0  0
  151.7518  145.5752  160.1571 H   0  0  0  0  0  0  0  0  0  0  0  0
  151.8689  144.4714  161.5290 H   0  0  0  0  0  0  0  0  0  0  0  0
  150.3237  145.2286  161.1334 H   0  0  0  0  0  0  0  0  0  0  0  0
  151.7814  143.9519  157.8275 H   0  0  0  0  0  0  0  0  0  0  0  0
  150.7271  142.0793  156.2452 H   0  0  0  0  0  0  0  0  0  0  0  0
  150.5978  138.6178  153.7372 H   0  0  0  0  0  0  0  0  0  0  0  0
  150.7835  137.7945  155.2522 H   0  0  0  0  0  0  0  0  0  0  0  0
  148.4594  138.6583  155.8736 H   0  0  0  0  0  0  0  0  0  0  0  0
  148.0455  140.3655  154.1589 H   0  0  0  0  0  0  0  0  0  0  0  0
  146.8631  139.0959  153.9790 H   0  0  0  0  0  0  0  0  0  0  0  0
  148.2108  139.1979  152.8586 H   0  0  0  0  0  0  0  0  0  0  0  0
  146.7427  136.5680  155.8814 H   0  0  0  0  0  0  0  0  0  0  0  0
  146.3914  137.1771  154.2787 H   0  0  0  0  0  0  0  0  0  0  0  0
  145.8105  134.7653  154.4735 H   0  0  0  0  0  0  0  0  0  0  0  0
  147.0109  135.0538  153.2370 H   0  0  0  0  0  0  0  0  0  0  0  0
  147.5452  134.0114  156.0622 H   0  0  0  0  0  0  0  0  0  0  0  0
  147.6848  133.0994  154.5784 H   0  0  0  0  0  0  0  0  0  0  0  0
  149.9275  133.8994  155.3655 H   0  0  0  0  0  0  0  0  0  0  0  0
  149.5232  134.5239  153.7902 H   0  0  0  0  0  0  0  0  0  0  0  0
  150.4407  136.3246  155.0229 H   0  0  0  0  0  0  0  0  0  0  0  0
  150.1425  135.4282  157.3236 H   0  0  0  0  0  0  0  0  0  0  0  0
  148.4447  135.8755  157.3030 H   0  0  0  0  0  0  0  0  0  0  0  0
  149.6922  137.1159  157.2295 H   0  0  0  0  0  0  0  0  0  0  0  0
  148.6575  136.7972  153.6945 H   0  0  0  0  0  0  0  0  0  0  0  0
  1  2  1  0  0  0  0
  1 21  1  0  0  0  0
  1 22  1  0  0  0  0
  1 23  1  0  0  0  0
  2 20  1  0  0  0  0
  2  3  2  0  0  0  0
  3  4  1  0  0  0  0
  3 24  1  0  0  0  0
  4  5  1  0  0  0  0
  4 19  2  0  0  0  0
  5  6  1  0  0  0  0
  5 25  1  0  0  0  0
  6  7  2  0  0  0  0
  6  8  1  0  0  0  0
  8  9  1  0  0  0  0
  9 10  1  0  0  0  0
  9 26  1  0  0  0  0
  9 27  1  0  0  0  0
 10 11  1  0  0  0  0
 10 12  1  0  0  0  0
 10 28  1  0  0  0  0
 11 29  1  0  0  0  0
 11 30  1  0  0  0  0
 11 31  1  0  0  0  0
 12 17  1  0  0  0  0
 12 13  1  0  0  0  0
 12 44  1  0  0  0  0
 13 14  1  0  0  0  0
 13 32  1  0  0  0  0
 13 33  1  0  0  0  0
 14 15  1  0  0  0  0
 14 34  1  0  0  0  0
 14 35  1  0  0  0  0
 15 16  1  0  0  0  0
 15 36  1  0  0  0  0
 15 37  1  0  0  0  0
 16 17  1  0  0  0  0
 16 38  1  0  0  0  0
 16 39  1  0  0  0  0
 17 18  1  0  0  0  0
 17 40  1  0  0  0  0
 18 41  1  0  0  0  0
 18 42  1  0  0  0  0
 18 43  1  0  0  0  0
 19 20  1  0  0  0  0
M  CHG  1   8  -1
M  CHG  1  12   1
M  END
> <s_m_source_file>
AV-unprocessed.smi

> <i_m_source_file_index>
1978

> <i_lp_mmshare_version>
43012

> <i_f3d_flags>
0

> <s_epik_input>
W0NIM11jMVtjSF1jKG5vMSlbTkhdQyg9TylbTkhdW0NIMl1bQ0BIXShbQ0gzXSlOMltDSDJdW0NIMl1bQ0gyXVtDSDJdW0NASF0yW0NIM10=

> <s_epik_cmdline>
J2VwaWtfcHl0aG9uJywgJy1waCcsICc3LjAnLCAnLXRuJywgJzgnLCAnLW1hJywgJzIwMCcsICctbWV0YWxfYmluZGluZycsICctaW1hZScsICc8aW5maWxlLm1hZT4nLCAnLW9tYWUnLCAnPG91dGZpbGUubWFlPic=

> <r_epik_Ionization_Penalty>
6.7666

> <r_epik_Ionization_Penalty_Charging>
6.7666

> <r_epik_Ionization_Penalty_Neutral>
5.77131e-06

> <r_epik_State_Penalty>
6.79217

> <r_epik_Charging_Adjusted_Penalty>
13.5588

> <i_epik_Tot_Q>
0

> <i_epik_Tot_abs_Q>
2

> <r_epik_Metal_State_Penalty>
2.72569

> <b_epik_Metal_Only>
1

> <s_lp_Force_Field>
OPLS_2005

> <r_lp_Energy>
20.871

> <b_lp_Chiralities_Consistent>
1

> <s_lp_Variant>
AV-unprocessed.smi:1978-24

> <Gold.Version>
5.8.1

> <Gold.Id.Protein>
6NUR|6NUR_protein|mol2

> <Gold.PLP.Fitness>
43.2935

> <Gold.PLP.PLP>
-35.1167

> <Gold.PLP.part.hbond>
-2.3734

> <Gold.PLP.part.metal>
0.0000

> <Gold.PLP.part.buried>
-5.9975

> <Gold.PLP.part.nonpolar>
-27.7404

> <Gold.PLP.part.repulsive>
0.2311

> <Gold.PLP.ligand.clash>
0.0000

> <Gold.PLP.ligand.torsion>
0.5450

> <Gold.PLP.Chemscore.Hbond>
3.0000

> <Gold.PLP.Chemscore.CHOScore>
0.0000

> <Gold.PLP.Chemscore.Metal>
0.0000

> <Gold.Chemscore.Hbonds>
donor molecule, donor type, donor heavy atom, donor atom, acceptor molecule, acceptor atom, score
      L1  H    12    44       P1  7948  2.00
      P1  H  7989  7998       L1     8  0.12

> <Gold.PLP.Chemscore.Internal.Correction>
0.2668

> <Gold.Rescore>
     Score         DG    S(hbond)    S(metal)    S(lipo)     H(rot)  DE(clash)    DE(int)     intcor
     14.96     -16.99       1.86        0.00      78.49       1.52       0.04       1.99       ----

> <Gold.Chemscore.Fitness>
14.9575

> <Gold.Chemscore.DG>
-16.9886

> <Gold.Chemscore.ZeroCoef>
-5.4800

> <Gold.Chemscore.Hbond>
1.8606

> <Gold.Chemscore.Metal>
0.0000

> <Gold.Chemscore.Lipo>
78.4861

> <Gold.Chemscore.Internal_Hbond>
0.0000

> <Gold.Chemscore.DEClash>
0.0440

> <Gold.Chemscore.DEInternal>
1.9870

> <Gold.Chemscore.Rot>
1.5190

> <Gold.Chemscore.Internal.Correction>
   9.000000E+99

> <Gold.Chemscore.Hbonds>
donor molecule, donor type, donor heavy atom, donor atom, acceptor molecule, acceptor atom, score
      L1  H    12    44       P1  7948  0.99
      P1  H  7989  7998       L1     8  0.02

> <Gold.Chemscore.Hbond.Weighted>
-6.2143

> <Gold.Chemscore.Metal.Weighted>
-0.0000

> <Gold.Chemscore.Lipo.Weighted>
-9.1829

> <Gold.Chemscore.Internal_Hbond.Weighted>
0.0000

> <Gold.Chemscore.DEClash.Weighted>
0.0440

> <Gold.Chemscore.DEInternal.Weighted>
1.9870

> <Gold.Chemscore.Rot.Weighted>
3.8886

> <Gold.Chemscore.Internal.Correction.Weighted>
   9.000000E+99

> <Gold.Protein.RotatedTorsions>
[ 6907 6896 6895 6894 ] final  100.72 input  -60.11 | X-H torsion
[ 7974 7965 7964 7962 ] final   88.13 input  175.53 | X-H torsion
[ 8008 7997 7996 7995 ] final  142.27 input   59.86 | X-H torsion
[ 10167 10162 10161 10158 ] final  -90.23 input  -65.29 | X-H torsion
[ 10718 10713 10712 10709 ] final   68.44 input   66.30 | X-H torsion
[ 10763 10752 10751 10750 ] final  137.80 input  -60.55 | X-H torsion
[ 11005 11000 10999 10996 ] final  -44.94 input  -57.11 | X-H torsion

> <Gold.Protein.ActiveResidues>
 VAL166  LYS551  ARG553  GLY616  TRP617  ASP618  TYR619  PRO620  LYS621  CYS622 
 ASP623  PHE694  ASN695  SER759  ASP760  ASP761  ALA762  ILE779  LEU786  VAL792 
 PHE793  MET794  SER795  GLU796  ALA797  LYS798  CYS799  TRP800  GLU811  SER814 

> <Gold.Protein.RotatedAtoms>
  152.5366  134.0235  159.7992 H   0  0  0  0  0  0  0  0  0  0  0  0  # atno 6907 bound_to 6896
  151.0417  133.5692  159.2657 H   0  0  0  0  0  0  0  0  0  0  0  0  # atno 6908 bound_to 6896
  151.2659  135.0676  159.9169 H   0  0  0  0  0  0  0  0  0  0  0  0  # atno 6909 bound_to 6896
  145.5498  139.2294  143.2519 H   0  0  0  0  0  0  0  0  0  0  0  0  # atno 7974 bound_to 7965
  156.2952  140.2293  156.4700 H   0  0  0  0  0  0  0  0  0  0  0  0  # atno 8008 bound_to 7997
  154.7944  140.0452  157.1246 H   0  0  0  0  0  0  0  0  0  0  0  0  # atno 8009 bound_to 7997
  154.9607  140.3054  155.5035 H   0  0  0  0  0  0  0  0  0  0  0  0  # atno 8010 bound_to 7997
  140.3570  143.2861  151.9660 H   0  0  0  0  0  0  0  0  0  0  0  0  # atno 10167 bound_to 10162
  157.6289  130.9373  150.0377 H   0  0  0  0  0  0  0  0  0  0  0  0  # atno 10718 bound_to 10713
  153.8791  135.3046  155.3444 H   0  0  0  0  0  0  0  0  0  0  0  0  # atno 10763 bound_to 10752
  154.7770  135.4856  153.9768 H   0  0  0  0  0  0  0  0  0  0  0  0  # atno 10764 bound_to 10752
  153.1362  135.6814  153.9196 H   0  0  0  0  0  0  0  0  0  0  0  0  # atno 10765 bound_to 10752
  141.0483  133.6752  156.2943 H   0  0  0  0  0  0  0  0  0  0  0  0  # atno 11005 bound_to 11000
  146.1924  140.6321  142.9139 LP  0  0  0  0  0  0  0  0  0  0  0  0  # atno 17320 bound_to 7965
  144.7535  140.5250  143.6785 LP  0  0  0  0  0  0  0  0  0  0  0  0  # atno 17321 bound_to 7965
  139.4819  144.6026  151.7578 LP  0  0  0  0  0  0  0  0  0  0  0  0  # atno 17342 bound_to 10162
  140.5164  144.0946  150.6009 LP  0  0  0  0  0  0  0  0  0  0  0  0  # atno 17343 bound_to 10162
  156.1479  130.3642  149.9482 LP  0  0  0  0  0  0  0  0  0  0  0  0  # atno 17370 bound_to 10713
  156.7509  130.9115  151.3637 LP  0  0  0  0  0  0  0  0  0  0  0  0  # atno 17371 bound_to 10713
  140.6104  134.5464  157.5532 LP  0  0  0  0  0  0  0  0  0  0  0  0  # atno 17394 bound_to 11000
  139.9330  134.7928  156.0879 LP  0  0  0  0  0  0  0  0  0  0  0  0  # atno 17395 bound_to 11000

$$$$
