AV-unprocessed.smi:2143|AV-procd|sdf|8727|dock2
  -GOLD-   2272011493D 1   1.00000     0.00000
 Structure written by MMmdl.
 44 45  0  0  0  0  0  0  0  0  1 V2000
  151.6621  144.8455  160.0903 C   0  0  0  0  0  0  0  0  0  0  0  0
  151.9774  143.3416  160.1935 C   0  0  1  0  0  0  0  0  0  0  0  0
  152.3170  142.7915  158.7939 C   0  0  0  0  0  0  0  0  0  0  0  0
  152.6091  141.2877  158.8263 C   0  0  0  0  0  0  0  0  0  0  0  0
  153.7518  140.9818  159.7985 C   0  0  0  0  0  0  0  0  0  0  0  0
  153.4380  141.5027  161.2148 C   0  0  1  0  0  0  0  0  0  0  0  0
  154.5728  141.2220  162.0931 N   0  0  0  0  0  0  0  0  0  0  0  0
  154.9703  140.0019  162.4850 C   0  0  0  0  0  0  0  0  0  0  0  0
  154.3966  138.9642  162.1512 O   0  0  0  0  0  0  0  0  0  0  0  0
  156.1938  139.9574  163.4102 C   0  0  0  0  0  0  0  0  0  0  0  0
  155.9147  140.4803  164.7539 N   0  0  0  0  0  0  0  0  0  0  0  0
  155.9924  139.6378  165.8476 C   0  0  0  0  0  0  0  0  0  0  0  0
  155.7700  140.0429  167.1171 C   0  0  0  0  0  0  0  0  0  0  0  0
  155.4238  141.4281  167.4117 C   0  0  0  0  0  0  0  0  0  0  0  0
  155.2321  141.8426  168.5554 O   0  0  0  0  0  0  0  0  0  0  0  0
  155.3365  142.2653  166.2734 N   0  0  0  0  0  0  0  0  0  0  0  0
  155.0176  143.6652  166.4631 C   0  0  0  0  0  0  0  0  0  0  0  0
  155.5852  141.8388  164.9500 C   0  0  0  0  0  0  0  0  0  0  0  0
  155.5268  142.6154  163.9932 O   0  0  0  0  0  0  0  0  0  0  0  0
  153.1092  143.0207  161.2116 C   0  0  2  0  0  0  0  0  0  0  0  0
  152.7646  143.5169  162.6331 C   0  0  0  0  0  0  0  0  0  0  0  0
  152.5536  145.4213  159.8406 H   0  0  0  0  0  0  0  0  0  0  0  0
  151.2529  145.2411  161.0192 H   0  0  0  0  0  0  0  0  0  0  0  0
  150.9185  145.0365  159.3160 H   0  0  0  0  0  0  0  0  0  0  0  0
  151.0688  142.8404  160.5314 H   0  0  0  0  0  0  0  0  0  0  0  0
  151.4910  142.9813  158.1074 H   0  0  0  0  0  0  0  0  0  0  0  0
  153.1807  143.3209  158.3887 H   0  0  0  0  0  0  0  0  0  0  0  0
  151.7130  140.7422  159.1252 H   0  0  0  0  0  0  0  0  0  0  0  0
  152.8679  140.9375  157.8267 H   0  0  0  0  0  0  0  0  0  0  0  0
  153.9280  139.9057  159.8219 H   0  0  0  0  0  0  0  0  0  0  0  0
  154.6730  141.4370  159.4315 H   0  0  0  0  0  0  0  0  0  0  0  0
  152.5603  140.9728  161.5906 H   0  0  0  0  0  0  0  0  0  0  0  0
  155.0998  142.0183  162.4212 H   0  0  0  0  0  0  0  0  0  0  0  0
  156.5701  138.9349  163.4794 H   0  0  0  0  0  0  0  0  0  0  0  0
  156.9934  140.5345  162.9438 H   0  0  0  0  0  0  0  0  0  0  0  0
  156.2506  138.6018  165.6824 H   0  0  0  0  0  0  0  0  0  0  0  0
  155.8530  139.3326  167.9266 H   0  0  0  0  0  0  0  0  0  0  0  0
  154.3087  143.9655  165.6894 H   0  0  0  0  0  0  0  0  0  0  0  0
  155.9552  144.2172  166.3820 H   0  0  0  0  0  0  0  0  0  0  0  0
  154.5503  143.8257  167.4346 H   0  0  0  0  0  0  0  0  0  0  0  0
  154.0055  143.5532  160.8886 H   0  0  0  0  0  0  0  0  0  0  0  0
  151.8439  143.0604  162.9972 H   0  0  0  0  0  0  0  0  0  0  0  0
  152.6378  144.5981  162.6651 H   0  0  0  0  0  0  0  0  0  0  0  0
  153.5528  143.2840  163.3486 H   0  0  0  0  0  0  0  0  0  0  0  0
  1  2  1  0  0  0  0
  1 22  1  0  0  0  0
  1 23  1  0  0  0  0
  1 24  1  0  0  0  0
  2 20  1  0  0  0  0
  2  3  1  0  0  0  0
  2 25  1  0  0  0  0
  3  4  1  0  0  0  0
  3 26  1  0  0  0  0
  3 27  1  0  0  0  0
  4  5  1  0  0  0  0
  4 28  1  0  0  0  0
  4 29  1  0  0  0  0
  5  6  1  0  0  0  0
  5 30  1  0  0  0  0
  5 31  1  0  0  0  0
  6  7  1  0  0  0  0
  6 20  1  0  0  0  0
  6 32  1  0  0  0  0
  7  8  1  0  0  0  0
  7 33  1  0  0  0  0
  8  9  2  0  0  0  0
  8 10  1  0  0  0  0
 10 11  1  0  0  0  0
 10 34  1  0  0  0  0
 10 35  1  0  0  0  0
 11 18  1  0  0  0  0
 11 12  1  0  0  0  0
 12 13  2  0  0  0  0
 12 36  1  0  0  0  0
 13 14  1  0  0  0  0
 13 37  1  0  0  0  0
 14 15  2  0  0  0  0
 14 16  1  0  0  0  0
 16 17  1  0  0  0  0
 16 18  1  0  0  0  0
 17 38  1  0  0  0  0
 17 39  1  0  0  0  0
 17 40  1  0  0  0  0
 18 19  2  0  0  0  0
 20 21  1  0  0  0  0
 20 41  1  0  0  0  0
 21 42  1  0  0  0  0
 21 43  1  0  0  0  0
 21 44  1  0  0  0  0
M  END
> <s_m_source_file>
AV-unprocessed.smi

> <i_m_source_file_index>
2143

> <i_lp_mmshare_version>
43012

> <i_f3d_flags>
0

> <s_epik_input>
W0NIM11bQ0BASF0xW0NIMl1bQ0gyXVtDSDJdW0NASF0oW0NASF0xW0NIM10pW05IXUMoPU8pW0NIMl1uMltjSF1bY0hdYyg9TyluKFtDSDNdKWMyPU8=

> <s_epik_cmdline>
J2VwaWtfcHl0aG9uJywgJy1waCcsICc3LjAnLCAnLXRuJywgJzgnLCAnLW1hJywgJzIwMCcsICctbWV0YWxfYmluZGluZycsICctaW1hZScsICc8aW5maWxlLm1hZT4nLCAnLW9tYWUnLCAnPG91dGZpbGUubWFlPic=

> <r_lp_tautomer_probability>
1

> <r_epik_Ionization_Penalty>
3.18445e-08

> <r_epik_Ionization_Penalty_Charging>
1.27977e-08

> <r_epik_Ionization_Penalty_Neutral>
1.90469e-08

> <r_epik_State_Penalty>
-0

> <r_epik_Charging_Adjusted_Penalty>
1.27977e-08

> <i_epik_Tot_Q>
0

> <i_epik_Tot_abs_Q>
0

> <r_epik_Metal_State_Penalty>
-0

> <b_epik_Metal_Only>
0

> <s_lp_Force_Field>
OPLS_2005

> <r_lp_Energy>
20.3985

> <b_lp_Chiralities_Consistent>
1

> <s_lp_Variant>
AV-unprocessed.smi:2143-6

> <Gold.Version>
5.8.1

> <Gold.Id.Protein>
6NUR|6NUR_protein|mol2

> <Gold.PLP.Fitness>
46.1367

> <Gold.PLP.PLP>
-46.5442

> <Gold.PLP.part.hbond>
-1.2303

> <Gold.PLP.part.metal>
0.0000

> <Gold.PLP.part.buried>
-4.2682

> <Gold.PLP.part.nonpolar>
-40.3491

> <Gold.PLP.part.repulsive>
0.1425

> <Gold.PLP.ligand.clash>
0.0000

> <Gold.PLP.ligand.torsion>
0.2118

> <Gold.PLP.Chemscore.Hbond>
0.0000

> <Gold.PLP.Chemscore.CHOScore>
0.0000

> <Gold.PLP.Chemscore.Metal>
0.0000

> <Gold.PLP.Chemscore.Internal.Correction>
0.0160

> <Gold.Rescore>
     Score         DG    S(hbond)    S(metal)    S(lipo)     H(rot)  DE(clash)    DE(int)     intcor
     10.10     -14.35       0.00        0.00     108.92       1.51       2.32       1.93       ----

> <Gold.Chemscore.Fitness>
10.1049

> <Gold.Chemscore.DG>
-14.3499

> <Gold.Chemscore.ZeroCoef>
-5.4800

> <Gold.Chemscore.Hbond>
0.0000

> <Gold.Chemscore.Metal>
0.0000

> <Gold.Chemscore.Lipo>
108.9177

> <Gold.Chemscore.Internal_Hbond>
0.0000

> <Gold.Chemscore.DEClash>
2.3190

> <Gold.Chemscore.DEInternal>
1.9260

> <Gold.Chemscore.Rot>
1.5131

> <Gold.Chemscore.Internal.Correction>
   9.000000E+99

> <Gold.Chemscore.Hbond.Weighted>
-0.0000

> <Gold.Chemscore.Metal.Weighted>
-0.0000

> <Gold.Chemscore.Lipo.Weighted>
-12.7434

> <Gold.Chemscore.Internal_Hbond.Weighted>
0.0000

> <Gold.Chemscore.DEClash.Weighted>
2.3190

> <Gold.Chemscore.DEInternal.Weighted>
1.9260

> <Gold.Chemscore.Rot.Weighted>
3.8734

> <Gold.Chemscore.Internal.Correction.Weighted>
   9.000000E+99

> <Gold.Protein.RotatedTorsions>
[ 6907 6896 6895 6894 ] final  157.27 input  -60.11 | X-H torsion
[ 7974 7965 7964 7962 ] final -153.07 input  175.53 | X-H torsion
[ 8008 7997 7996 7995 ] final -113.55 input   59.86 | X-H torsion
[ 10167 10162 10161 10158 ] final  -14.79 input  -65.29 | X-H torsion
[ 10718 10713 10712 10709 ] final   -3.89 input   66.30 | X-H torsion
[ 10763 10752 10751 10750 ] final  -79.37 input  -60.55 | X-H torsion
[ 11005 11000 10999 10996 ] final   -1.96 input  -57.11 | X-H torsion

> <Gold.Protein.ActiveResidues>
 VAL166  LYS551  ARG553  GLY616  TRP617  ASP618  TYR619  PRO620  LYS621  CYS622 
 ASP623  PHE694  ASN695  SER759  ASP760  ASP761  ALA762  ILE779  LEU786  VAL792 
 PHE793  MET794  SER795  GLU796  ALA797  LYS798  CYS799  TRP800  GLU811  SER814 

> <Gold.Protein.RotatedAtoms>
  152.0175  133.3885  159.4244 H   0  0  0  0  0  0  0  0  0  0  0  0  # atno 6907 bound_to 6896
  150.6893  134.3662  159.4981 H   0  0  0  0  0  0  0  0  0  0  0  0  # atno 6908 bound_to 6896
  152.1431  134.9046  160.0603 H   0  0  0  0  0  0  0  0  0  0  0  0  # atno 6909 bound_to 6896
  144.7760  140.4576  143.5873 H   0  0  0  0  0  0  0  0  0  0  0  0  # atno 7974 bound_to 7965
  155.0225  140.0393  157.2443 H   0  0  0  0  0  0  0  0  0  0  0  0  # atno 8008 bound_to 7997
  154.7366  140.2741  155.6386 H   0  0  0  0  0  0  0  0  0  0  0  0  # atno 8009 bound_to 7997
  156.2854  140.2674  156.2081 H   0  0  0  0  0  0  0  0  0  0  0  0  # atno 8010 bound_to 7997
  140.7207  143.5285  150.9548 H   0  0  0  0  0  0  0  0  0  0  0  0  # atno 10167 bound_to 10162
  156.7694  130.5295  149.5770 H   0  0  0  0  0  0  0  0  0  0  0  0  # atno 10718 bound_to 10713
  154.5377  135.5698  153.6813 H   0  0  0  0  0  0  0  0  0  0  0  0  # atno 10763 bound_to 10752
  152.9955  135.6220  154.2543 H   0  0  0  0  0  0  0  0  0  0  0  0  # atno 10764 bound_to 10752
  154.2473  135.2860  155.2810 H   0  0  0  0  0  0  0  0  0  0  0  0  # atno 10765 bound_to 10752
  140.6530  133.9387  155.8391 H   0  0  0  0  0  0  0  0  0  0  0  0  # atno 11005 bound_to 11000
  145.6185  139.1521  143.3036 LP  0  0  0  0  0  0  0  0  0  0  0  0  # atno 17320 bound_to 7965
  146.1939  140.6297  142.9133 LP  0  0  0  0  0  0  0  0  0  0  0  0  # atno 17321 bound_to 7965
  139.9005  143.6842  152.3132 LP  0  0  0  0  0  0  0  0  0  0  0  0  # atno 17342 bound_to 10162
  139.7189  144.7606  151.0987 LP  0  0  0  0  0  0  0  0  0  0  0  0  # atno 17343 bound_to 10162
  156.1288  130.6163  151.0302 LP  0  0  0  0  0  0  0  0  0  0  0  0  # atno 17370 bound_to 10713
  157.6698  131.0864  150.7640 LP  0  0  0  0  0  0  0  0  0  0  0  0  # atno 17371 bound_to 10713
  141.0522  134.0468  157.3769 LP  0  0  0  0  0  0  0  0  0  0  0  0  # atno 17394 bound_to 11000
  139.9039  135.0173  156.7397 LP  0  0  0  0  0  0  0  0  0  0  0  0  # atno 17395 bound_to 11000

$$$$
