AV-unprocessed.smi:2850|AV-procd|sdf|10966|dock9
  -GOLD-   2272015423D 1   1.00000     0.00000
 Structure written by MMmdl.
 45 46  0  0  0  0  0  0  0  0  2 V2000
  149.2229  132.2597  154.6674 C   0  0  0  0  0  0  0  0  0  0  0  0
  150.5923  132.3863  155.8506 S   0  0  0  0  0  0  0  0  0  0  0  0
  150.9530  134.1042  156.0532 C   0  0  0  0  0  0  0  0  0  0  0  0
  150.2478  135.0752  155.3200 C   0  0  0  0  0  0  0  0  0  0  0  0
  150.5932  136.4193  155.5432 C   0  0  0  0  0  0  0  0  0  0  0  0
  151.6123  136.6881  156.4792 C   0  0  0  0  0  0  0  0  0  0  0  0
  151.9716  138.0216  156.7223 N   0  0  0  0  0  0  0  0  0  0  0  0
  151.1890  139.1343  156.1975 C   0  0  0  0  0  0  0  0  0  0  0  0
  150.5921  140.0123  157.3109 C   0  0  1  0  0  0  0  0  0  0  0  0
  150.4130  141.4727  156.8485 C   0  0  0  0  0  0  0  0  0  0  0  0
  149.7705  142.2969  157.9016 N   0  3  2  0  0  0  0  0  0  0  0  0
  150.6956  142.6877  159.0001 C   0  0  0  0  0  0  0  0  0  0  0  0
  152.0257  143.2784  158.4851 C   0  0  0  0  0  0  0  0  0  0  0  0
  153.1499  143.1584  159.5276 C   0  0  0  0  0  0  0  0  0  0  0  0
  151.8371  144.7446  158.0685 C   0  0  0  0  0  0  0  0  0  0  0  0
  148.5023  141.6676  158.3508 C   0  0  0  0  0  0  0  0  0  0  0  0
  148.7089  140.1895  158.7331 C   0  0  0  0  0  0  0  0  0  0  0  0
  149.3099  139.4924  157.6488 O   0  0  0  0  0  0  0  0  0  0  0  0
  152.2510  135.6946  157.1489 N   0  0  0  0  0  0  0  0  0  0  0  0
  151.9252  134.4141  156.9412 N   0  0  0  0  0  0  0  0  0  0  0  0
  148.9589  131.2139  154.5117 H   0  0  0  0  0  0  0  0  0  0  0  0
  149.5046  132.6902  153.7065 H   0  0  0  0  0  0  0  0  0  0  0  0
  148.3444  132.7847  155.0430 H   0  0  0  0  0  0  0  0  0  0  0  0
  149.4753  134.8022  154.6162 H   0  0  0  0  0  0  0  0  0  0  0  0
  150.0902  137.2149  155.0132 H   0  0  0  0  0  0  0  0  0  0  0  0
  152.8423  138.2235  157.1928 H   0  0  0  0  0  0  0  0  0  0  0  0
  151.8151  139.7341  155.5357 H   0  0  0  0  0  0  0  0  0  0  0  0
  150.3899  138.7307  155.5751 H   0  0  0  0  0  0  0  0  0  0  0  0
  151.2429  139.9839  158.1862 H   0  0  0  0  0  0  0  0  0  0  0  0
  151.3683  141.9090  156.5542 H   0  0  0  0  0  0  0  0  0  0  0  0
  149.7804  141.4988  155.9600 H   0  0  0  0  0  0  0  0  0  0  0  0
  150.2016  143.3920  159.6697 H   0  0  0  0  0  0  0  0  0  0  0  0
  150.9280  141.8122  159.6084 H   0  0  0  0  0  0  0  0  0  0  0  0
  152.3378  142.7361  157.5930 H   0  0  0  0  0  0  0  0  0  0  0  0
  152.8969  143.6876  160.4469 H   0  0  0  0  0  0  0  0  0  0  0  0
  154.0816  143.5798  159.1489 H   0  0  0  0  0  0  0  0  0  0  0  0
  153.3475  142.1177  159.7853 H   0  0  0  0  0  0  0  0  0  0  0  0
  151.5280  145.3609  158.9133 H   0  0  0  0  0  0  0  0  0  0  0  0
  151.0771  144.8388  157.2924 H   0  0  0  0  0  0  0  0  0  0  0  0
  152.7625  145.1635  157.6723 H   0  0  0  0  0  0  0  0  0  0  0  0
  148.0555  142.2185  159.1774 H   0  0  0  0  0  0  0  0  0  0  0  0
  147.7881  141.7247  157.5280 H   0  0  0  0  0  0  0  0  0  0  0  0
  149.3205  140.0887  159.6304 H   0  0  0  0  0  0  0  0  0  0  0  0
  147.7483  139.7256  158.9570 H   0  0  0  0  0  0  0  0  0  0  0  0
  149.5188  143.1662  157.4528 H   0  0  0  0  0  0  0  0  0  0  0  0
  1  2  1  0  0  0  0
  1 21  1  0  0  0  0
  1 22  1  0  0  0  0
  1 23  1  0  0  0  0
  2  3  1  0  0  0  0
  3 20  1  0  0  0  0
  3  4  2  0  0  0  0
  4  5  1  0  0  0  0
  4 24  1  0  0  0  0
  5  6  2  0  0  0  0
  5 25  1  0  0  0  0
  6  7  1  0  0  0  0
  6 19  1  0  0  0  0
  7  8  1  0  0  0  0
  7 26  1  0  0  0  0
  8  9  1  0  0  0  0
  8 27  1  0  0  0  0
  8 28  1  0  0  0  0
  9 18  1  0  0  0  0
  9 10  1  0  0  0  0
  9 29  1  0  0  0  0
 10 11  1  0  0  0  0
 10 30  1  0  0  0  0
 10 31  1  0  0  0  0
 11 12  1  0  0  0  0
 11 16  1  0  0  0  0
 11 45  1  0  0  0  0
 12 13  1  0  0  0  0
 12 32  1  0  0  0  0
 12 33  1  0  0  0  0
 13 14  1  0  0  0  0
 13 15  1  0  0  0  0
 13 34  1  0  0  0  0
 14 35  1  0  0  0  0
 14 36  1  0  0  0  0
 14 37  1  0  0  0  0
 15 38  1  0  0  0  0
 15 39  1  0  0  0  0
 15 40  1  0  0  0  0
 16 17  1  0  0  0  0
 16 41  1  0  0  0  0
 16 42  1  0  0  0  0
 17 18  1  0  0  0  0
 17 43  1  0  0  0  0
 17 44  1  0  0  0  0
 19 20  2  0  0  0  0
M  CHG  1  11   1
M  END
> <s_m_source_file>
AV-unprocessed.smi

> <i_m_source_file_index>
2850

> <i_lp_mmshare_version>
43012

> <i_f3d_flags>
0

> <s_epik_input>
W0NIM11TYzFbY0hdW2NIXWMobm4xKVtOSF1bQ0gyXVtDQEBIXTJbQ0gyXU4oW0NIMl1bQ0gyXU8yKVtDSDJdW0NIXShbQ0gzXSlbQ0gzXQ==

> <s_epik_cmdline>
J2VwaWtfcHl0aG9uJywgJy1waCcsICc3LjAnLCAnLXRuJywgJzgnLCAnLW1hJywgJzIwMCcsICctbWV0YWxfYmluZGluZycsICctaW1hZScsICc8aW5maWxlLm1hZT4nLCAnLW9tYWUnLCAnPG91dGZpbGUubWFlPic=

> <r_lp_tautomer_probability>
0.999978

> <r_epik_Ionization_Penalty>
0.0874875

> <r_epik_Ionization_Penalty_Charging>
0.0831532

> <r_epik_Ionization_Penalty_Neutral>
0.00433433

> <r_epik_State_Penalty>
0.0738301

> <r_epik_Charging_Adjusted_Penalty>
0.156983

> <i_epik_Tot_Q>
1

> <i_epik_Tot_abs_Q>
1

> <r_epik_Metal_State_Penalty>
0.073888

> <b_epik_Metal_Only>
0

> <s_lp_Force_Field>
OPLS_2005

> <r_lp_Energy>
26.339

> <b_lp_Chiralities_Consistent>
1

> <s_lp_Variant>
AV-unprocessed.smi:2850-2

> <Gold.Version>
5.8.1

> <Gold.Id.Protein>
6NUR|6NUR_protein|mol2

> <Gold.PLP.Fitness>
40.9898

> <Gold.PLP.PLP>
-36.1716

> <Gold.PLP.part.hbond>
-2.2211

> <Gold.PLP.part.metal>
0.0000

> <Gold.PLP.part.buried>
-4.6679

> <Gold.PLP.part.nonpolar>
-29.3227

> <Gold.PLP.part.repulsive>
0.1023

> <Gold.PLP.ligand.clash>
0.0000

> <Gold.PLP.ligand.torsion>
0.6266

> <Gold.PLP.Chemscore.Hbond>
1.9840

> <Gold.PLP.Chemscore.CHOScore>
0.0000

> <Gold.PLP.Chemscore.Metal>
0.0000

> <Gold.PLP.Chemscore.Internal.Correction>
0.1194

> <Gold.Rescore>
     Score         DG    S(hbond)    S(metal)    S(lipo)     H(rot)  DE(clash)    DE(int)     intcor
     14.88     -15.67       0.98        0.00      94.24       1.60       0.08       0.71       ----

> <Gold.Chemscore.Fitness>
14.8845

> <Gold.Chemscore.DG>
-15.6659

> <Gold.Chemscore.ZeroCoef>
-5.4800

> <Gold.Chemscore.Hbond>
0.9752

> <Gold.Chemscore.Metal>
0.0000

> <Gold.Chemscore.Lipo>
94.2353

> <Gold.Chemscore.Internal_Hbond>
0.0000

> <Gold.Chemscore.DEClash>
0.0755

> <Gold.Chemscore.DEInternal>
0.7059

> <Gold.Chemscore.Rot>
1.6003

> <Gold.Chemscore.Internal.Correction>
   9.000000E+99

> <Gold.Chemscore.Hbonds>
donor molecule, donor type, donor heavy atom, donor atom, acceptor molecule, acceptor atom, score
      L1  H    11    45       P1  8028  0.05

> <Gold.Chemscore.Hbond.Weighted>
-3.2572

> <Gold.Chemscore.Metal.Weighted>
-0.0000

> <Gold.Chemscore.Lipo.Weighted>
-11.0255

> <Gold.Chemscore.Internal_Hbond.Weighted>
0.0000

> <Gold.Chemscore.DEClash.Weighted>
0.0755

> <Gold.Chemscore.DEInternal.Weighted>
0.7059

> <Gold.Chemscore.Rot.Weighted>
4.0968

> <Gold.Chemscore.Internal.Correction.Weighted>
   9.000000E+99

> <Gold.Protein.RotatedTorsions>
[ 6907 6896 6895 6894 ] final  -80.88 input  -60.11 | X-H torsion
[ 7974 7965 7964 7962 ] final   61.24 input  175.53 | X-H torsion
[ 8008 7997 7996 7995 ] final  -89.72 input   59.86 | X-H torsion
[ 10167 10162 10161 10158 ] final  116.93 input  -65.29 | X-H torsion
[ 10718 10713 10712 10709 ] final   56.30 input   66.30 | X-H torsion
[ 10763 10752 10751 10750 ] final  -33.60 input  -60.55 | X-H torsion
[ 11005 11000 10999 10996 ] final -123.39 input  -57.11 | X-H torsion

> <Gold.Protein.ActiveResidues>
 VAL166  LYS551  ARG553  GLY616  TRP617  ASP618  TYR619  PRO620  LYS621  CYS622 
 ASP623  PHE694  ASN695  SER759  ASP760  ASP761  ALA762  ILE779  LEU786  VAL792 
 PHE793  MET794  SER795  GLU796  ALA797  LYS798  CYS799  TRP800  GLU811  SER814 

> <Gold.Protein.RotatedAtoms>
  150.6921  134.3902  159.5072 H   0  0  0  0  0  0  0  0  0  0  0  0  # atno 6907 bound_to 6896
  152.1692  134.8846  160.0545 H   0  0  0  0  0  0  0  0  0  0  0  0  # atno 6908 bound_to 6896
  151.9878  133.3745  159.4169 H   0  0  0  0  0  0  0  0  0  0  0  0  # atno 6909 bound_to 6896
  145.8870  139.3483  143.0672 H   0  0  0  0  0  0  0  0  0  0  0  0  # atno 7974 bound_to 7965
  154.6900  140.0538  157.0354 H   0  0  0  0  0  0  0  0  0  0  0  0  # atno 8008 bound_to 7997
  155.0830  140.3211  155.4577 H   0  0  0  0  0  0  0  0  0  0  0  0  # atno 8009 bound_to 7997
  156.2725  140.2061  156.5958 H   0  0  0  0  0  0  0  0  0  0  0  0  # atno 8010 bound_to 7997
  139.6213  144.7101  151.2628 H   0  0  0  0  0  0  0  0  0  0  0  0  # atno 10167 bound_to 10162
  157.5419  130.8703  149.8834 H   0  0  0  0  0  0  0  0  0  0  0  0  # atno 10718 bound_to 10713
  153.8329  135.6864  153.4812 H   0  0  0  0  0  0  0  0  0  0  0  0  # atno 10763 bound_to 10752
  153.1500  135.4622  154.9620 H   0  0  0  0  0  0  0  0  0  0  0  0  # atno 10764 bound_to 10752
  154.7879  135.3291  154.7790 H   0  0  0  0  0  0  0  0  0  0  0  0  # atno 10765 bound_to 10752
  140.9922  134.0522  157.3640 H   0  0  0  0  0  0  0  0  0  0  0  0  # atno 11005 bound_to 11000
  145.8955  140.9276  143.0530 LP  0  0  0  0  0  0  0  0  0  0  0  0  # atno 17320 bound_to 7965
  144.6729  140.0962  143.7463 LP  0  0  0  0  0  0  0  0  0  0  0  0  # atno 17321 bound_to 7965
  140.7384  143.6650  150.8131 LP  0  0  0  0  0  0  0  0  0  0  0  0  # atno 17342 bound_to 10162
  140.0261  143.5492  152.2780 LP  0  0  0  0  0  0  0  0  0  0  0  0  # atno 17343 bound_to 10162
  156.0503  130.3719  150.1216 LP  0  0  0  0  0  0  0  0  0  0  0  0  # atno 17370 bound_to 10713
  156.9396  130.9740  151.3518 LP  0  0  0  0  0  0  0  0  0  0  0  0  # atno 17371 bound_to 10713
  139.8998  135.0160  156.7211 LP  0  0  0  0  0  0  0  0  0  0  0  0  # atno 17394 bound_to 11000
  140.7022  133.9296  155.8031 LP  0  0  0  0  0  0  0  0  0  0  0  0  # atno 17395 bound_to 11000

$$$$
