AV-unprocessed.smi:1867|AV-procd|sdf|7580|dock10
  -GOLD-   22720 9293D 1   1.00000     0.00000
 Structure written by MMmdl.
 52 55  0  0  0  0  0  0  0  0  4 V2000
  146.5112  141.2948  153.7364 O   0  0  0  0  0  0  0  0  0  0  0  0
  147.0854  140.3496  153.1989 C   0  0  0  0  0  0  0  0  0  0  0  0
  148.3725  140.0855  153.5350 N   0  0  0  0  0  0  0  0  0  0  0  0
  149.1985  140.7293  154.4946 C   0  0  0  0  0  0  0  0  0  0  0  0
  150.3233  140.0268  154.9739 C   0  0  0  0  0  0  0  0  0  0  0  0
  151.1596  140.6206  155.9412 C   0  0  0  0  0  0  0  0  0  0  0  0
  150.8562  141.9129  156.4312 C   0  0  0  0  0  0  0  0  0  0  0  0
  151.6442  142.5650  157.3986 N   0  0  0  0  0  0  0  0  0  0  0  0
  152.0402  141.8970  158.6285 C   0  0  0  0  0  0  0  0  0  0  0  0
  152.6989  142.9916  159.4663 C   0  0  0  0  0  0  0  0  0  0  0  0
  151.9229  144.2464  159.0648 C   0  0  0  0  0  0  0  0  0  0  0  0
  151.5555  144.0055  157.5957 C   0  0  0  0  0  0  0  0  0  0  0  0
  149.7516  142.5398  155.9607 N   0  3  0  0  0  0  0  0  0  0  0  0
  148.9261  142.0088  155.0329 C   0  0  0  0  0  0  0  0  0  0  0  0
  146.4589  139.5845  152.2542 N   0  5  0  0  0  0  0  0  0  0  0  0
  146.7579  138.2098  151.8244 C   0  0  2  0  0  0  0  0  0  0  0  0
  146.0762  137.8375  150.4993 C   0  0  0  0  0  0  0  0  0  0  0  0
  145.8660  136.3154  150.5846 C   0  0  0  0  0  0  0  0  0  0  0  0
  146.2624  135.9240  151.9568 N   0  3  2  0  0  0  0  0  0  0  0  0
  145.6146  134.7109  152.5188 C   0  0  0  0  0  0  0  0  0  0  0  0
  144.2022  134.9880  153.0578 C   0  0  0  0  0  0  0  0  0  0  0  0
  144.2254  136.1532  154.0516 C   0  0  0  0  0  0  0  0  0  0  0  0
  144.7947  137.3982  153.3629 C   0  0  0  0  0  0  0  0  0  0  0  0
  146.2263  137.1418  152.8009 C   0  0  2  0  0  0  0  0  0  0  0  0
  148.8231  139.3683  152.9865 H   0  0  0  0  0  0  0  0  0  0  0  0
  150.5502  139.0389  154.5998 H   0  0  0  0  0  0  0  0  0  0  0  0
  152.0190  140.0742  156.3004 H   0  0  0  0  0  0  0  0  0  0  0  0
  151.1556  141.5067  159.1339 H   0  0  0  0  0  0  0  0  0  0  0  0
  152.7236  141.0691  158.4364 H   0  0  0  0  0  0  0  0  0  0  0  0
  152.6610  142.7884  160.5369 H   0  0  0  0  0  0  0  0  0  0  0  0
  153.7461  143.0986  159.1790 H   0  0  0  0  0  0  0  0  0  0  0  0
  151.0128  144.3165  159.6623 H   0  0  0  0  0  0  0  0  0  0  0  0
  152.4914  145.1649  159.2135 H   0  0  0  0  0  0  0  0  0  0  0  0
  152.2697  144.4962  156.9335 H   0  0  0  0  0  0  0  0  0  0  0  0
  150.5605  144.3934  157.3756 H   0  0  0  0  0  0  0  0  0  0  0  0
  148.0776  142.6231  154.7705 H   0  0  0  0  0  0  0  0  0  0  0  0
  147.8314  138.0477  151.7088 H   0  0  0  0  0  0  0  0  0  0  0  0
  145.1093  138.3344  150.4037 H   0  0  0  0  0  0  0  0  0  0  0  0
  146.6784  138.1243  149.6367 H   0  0  0  0  0  0  0  0  0  0  0  0
  144.8213  136.0689  150.3894 H   0  0  0  0  0  0  0  0  0  0  0  0
  146.4754  135.7771  149.8574 H   0  0  0  0  0  0  0  0  0  0  0  0
  145.5940  133.9215  151.7666 H   0  0  0  0  0  0  0  0  0  0  0  0
  146.2418  134.3462  153.3331 H   0  0  0  0  0  0  0  0  0  0  0  0
  143.5243  135.2176  152.2351 H   0  0  0  0  0  0  0  0  0  0  0  0
  143.8080  134.0938  153.5413 H   0  0  0  0  0  0  0  0  0  0  0  0
  143.2185  136.3547  154.4188 H   0  0  0  0  0  0  0  0  0  0  0  0
  144.8321  135.8950  154.9204 H   0  0  0  0  0  0  0  0  0  0  0  0
  144.0982  137.6950  152.5754 H   0  0  0  0  0  0  0  0  0  0  0  0
  144.8098  138.2223  154.0785 H   0  0  0  0  0  0  0  0  0  0  0  0
  146.9156  137.0151  153.6369 H   0  0  0  0  0  0  0  0  0  0  0  0
  147.2440  135.7009  151.8762 H   0  0  0  0  0  0  0  0  0  0  0  0
  149.5278  143.4654  156.3264 H   0  0  0  0  0  0  0  0  0  0  0  0
  1  2  2  0  0  0  0
  2  3  1  0  0  0  0
  2 15  1  0  0  0  0
  3  4  1  0  0  0  0
  3 25  1  0  0  0  0
  4 14  1  0  0  0  0
  4  5  2  0  0  0  0
  5  6  1  0  0  0  0
  5 26  1  0  0  0  0
  6  7  2  0  0  0  0
  6 27  1  0  0  0  0
  7  8  1  0  0  0  0
  7 13  1  0  0  0  0
  8 12  1  0  0  0  0
  8  9  1  0  0  0  0
  9 10  1  0  0  0  0
  9 28  1  0  0  0  0
  9 29  1  0  0  0  0
 10 11  1  0  0  0  0
 10 30  1  0  0  0  0
 10 31  1  0  0  0  0
 11 12  1  0  0  0  0
 11 32  1  0  0  0  0
 11 33  1  0  0  0  0
 12 34  1  0  0  0  0
 12 35  1  0  0  0  0
 13 14  2  0  0  0  0
 13 52  1  0  0  0  0
 14 36  1  0  0  0  0
 15 16  1  0  0  0  0
 16 24  1  0  0  0  0
 16 17  1  0  0  0  0
 16 37  1  0  0  0  0
 17 18  1  0  0  0  0
 17 38  1  0  0  0  0
 17 39  1  0  0  0  0
 18 19  1  0  0  0  0
 18 40  1  0  0  0  0
 18 41  1  0  0  0  0
 19 24  1  0  0  0  0
 19 20  1  0  0  0  0
 19 51  1  0  0  0  0
 20 21  1  0  0  0  0
 20 42  1  0  0  0  0
 20 43  1  0  0  0  0
 21 22  1  0  0  0  0
 21 44  1  0  0  0  0
 21 45  1  0  0  0  0
 22 23  1  0  0  0  0
 22 46  1  0  0  0  0
 22 47  1  0  0  0  0
 23 24  1  0  0  0  0
 23 48  1  0  0  0  0
 23 49  1  0  0  0  0
 24 50  1  0  0  0  0
M  CHG  1  13   1
M  CHG  1  15  -1
M  CHG  1  19   1
M  END
> <s_m_source_file>
AV-unprocessed.smi

> <i_m_source_file_index>
1867

> <i_lp_mmshare_version>
43012

> <i_f3d_flags>
0

> <s_epik_input>
W0NIMl0xW0NIMl1bQ0gyXVtDSDJdW0NASF0oTjEyKVtDQEBIXShbQ0gyXVtDSDJdMilbTkhdQyg9TylbTkhdYzNbY0hdW2NIXWMobltjSF0zKU40W0NIMl1bQ0gyXVtDSDJdW0NIMl00

> <s_epik_cmdline>
J2VwaWtfcHl0aG9uJywgJy1waCcsICc3LjAnLCAnLXRuJywgJzgnLCAnLW1hJywgJzIwMCcsICctbWV0YWxfYmluZGluZycsICctaW1hZScsICc8aW5maWxlLm1hZT4nLCAnLW9tYWUnLCAnPG91dGZpbGUubWFlPic=

> <r_lp_tautomer_probability>
0.999994

> <r_epik_Ionization_Penalty>
8.56137

> <r_epik_Ionization_Penalty_Charging>
8.56136

> <r_epik_Ionization_Penalty_Neutral>
3.91889e-06

> <r_epik_State_Penalty>
8.16255

> <r_epik_Charging_Adjusted_Penalty>
16.7239

> <i_epik_Tot_Q>
1

> <i_epik_Tot_abs_Q>
3

> <r_epik_Metal_State_Penalty>
4.14279

> <b_epik_Metal_Only>
1

> <s_lp_Force_Field>
OPLS_2005

> <r_lp_Energy>
70.2226

> <b_lp_Chiralities_Consistent>
1

> <s_lp_Variant>
AV-unprocessed.smi:1867-21

> <Gold.Version>
5.8.1

> <Gold.Id.Protein>
6NUR|6NUR_protein|mol2

> <Gold.PLP.Fitness>
49.1186

> <Gold.PLP.PLP>
-40.0575

> <Gold.PLP.part.hbond>
-2.4404

> <Gold.PLP.part.metal>
0.0000

> <Gold.PLP.part.buried>
7.2272

> <Gold.PLP.part.nonpolar>
-46.6836

> <Gold.PLP.part.repulsive>
2.0826

> <Gold.PLP.ligand.clash>
0.0000

> <Gold.PLP.ligand.torsion>
0.9340

> <Gold.PLP.Chemscore.Hbond>
3.5636

> <Gold.PLP.Chemscore.CHOScore>
0.0000

> <Gold.PLP.Chemscore.Metal>
0.0000

> <Gold.Chemscore.Hbonds>
donor molecule, donor type, donor heavy atom, donor atom, acceptor molecule, acceptor atom, score
      L1  H     3    25       P1  7957  0.26
      L1  H    13    52       P1  8028  1.31
      L1  H    19    51       P1  7948  2.00

> <Gold.PLP.Chemscore.Internal.Correction>
0.2384

> <Gold.Rescore>
     Score         DG    S(hbond)    S(metal)    S(lipo)     H(rot)  DE(clash)    DE(int)     intcor
     15.27     -22.78       1.72        0.00     120.53       1.00       5.37       2.14       ----

> <Gold.Chemscore.Fitness>
15.2710

> <Gold.Chemscore.DG>
-22.7762

> <Gold.Chemscore.ZeroCoef>
-5.4800

> <Gold.Chemscore.Hbond>
1.7228

> <Gold.Chemscore.Metal>
0.0000

> <Gold.Chemscore.Lipo>
120.5320

> <Gold.Chemscore.Internal_Hbond>
0.0000

> <Gold.Chemscore.DEClash>
5.3671

> <Gold.Chemscore.DEInternal>
2.1381

> <Gold.Chemscore.Rot>
1.0000

> <Gold.Chemscore.Internal.Correction>
   9.000000E+99

> <Gold.Chemscore.Hbonds>
donor molecule, donor type, donor heavy atom, donor atom, acceptor molecule, acceptor atom, score
      L1  H     3    25       P1  7957  0.25
      L1  H    13    52       P1  8028  0.61
      L1  H    19    51       P1  7948  0.95

> <Gold.Chemscore.Hbond.Weighted>
-5.7540

> <Gold.Chemscore.Metal.Weighted>
-0.0000

> <Gold.Chemscore.Lipo.Weighted>
-14.1022

> <Gold.Chemscore.Internal_Hbond.Weighted>
0.0000

> <Gold.Chemscore.DEClash.Weighted>
5.3671

> <Gold.Chemscore.DEInternal.Weighted>
2.1381

> <Gold.Chemscore.Rot.Weighted>
2.5600

> <Gold.Chemscore.Internal.Correction.Weighted>
   9.000000E+99

> <Gold.Protein.RotatedTorsions>
[ 6907 6896 6895 6894 ] final  -42.39 input  -60.11 | X-H torsion
[ 7974 7965 7964 7962 ] final -133.05 input  175.53 | X-H torsion
[ 8008 7997 7996 7995 ] final   39.31 input   59.86 | X-H torsion
[ 10167 10162 10161 10158 ] final  -17.27 input  -65.29 | X-H torsion
[ 10718 10713 10712 10709 ] final  131.72 input   66.30 | X-H torsion
[ 10763 10752 10751 10750 ] final   54.46 input  -60.55 | X-H torsion
[ 11005 11000 10999 10996 ] final   16.76 input  -57.11 | X-H torsion

> <Gold.Protein.ActiveResidues>
 VAL166  LYS551  ARG553  GLY616  TRP617  ASP618  TYR619  PRO620  LYS621  CYS622 
 ASP623  PHE694  ASN695  SER759  ASP760  ASP761  ALA762  ILE779  LEU786  VAL792 
 PHE793  MET794  SER795  GLU796  ALA797  LYS798  CYS799  TRP800  GLU811  SER814 

> <Gold.Protein.RotatedAtoms>
  150.9558  134.8953  159.7699 H   0  0  0  0  0  0  0  0  0  0  0  0  # atno 6907 bound_to 6896
  152.5137  134.3742  159.9338 H   0  0  0  0  0  0  0  0  0  0  0  0  # atno 6908 bound_to 6896
  151.3756  133.3799  159.2739 H   0  0  0  0  0  0  0  0  0  0  0  0  # atno 6909 bound_to 6896
  144.9228  140.7035  143.4954 H   0  0  0  0  0  0  0  0  0  0  0  0  # atno 7974 bound_to 7965
  155.2346  140.3341  155.4299 H   0  0  0  0  0  0  0  0  0  0  0  0  # atno 8008 bound_to 7997
  156.2281  140.1838  156.7358 H   0  0  0  0  0  0  0  0  0  0  0  0  # atno 8009 bound_to 7997
  154.5932  140.0634  156.9253 H   0  0  0  0  0  0  0  0  0  0  0  0  # atno 8010 bound_to 7997
  140.7245  143.5032  150.9842 H   0  0  0  0  0  0  0  0  0  0  0  0  # atno 10167 bound_to 10162
  157.4941  131.1092  150.9517 H   0  0  0  0  0  0  0  0  0  0  0  0  # atno 10718 bound_to 10713
  152.9805  135.5744  154.4908 H   0  0  0  0  0  0  0  0  0  0  0  0  # atno 10763 bound_to 10752
  154.4443  135.2776  155.1828 H   0  0  0  0  0  0  0  0  0  0  0  0  # atno 10764 bound_to 10752
  154.3483  135.6214  153.5683 H   0  0  0  0  0  0  0  0  0  0  0  0  # atno 10765 bound_to 10752
  140.4435  134.1297  155.7693 H   0  0  0  0  0  0  0  0  0  0  0  0  # atno 11005 bound_to 11000
  145.3268  139.1772  143.4558 LP  0  0  0  0  0  0  0  0  0  0  0  0  # atno 17320 bound_to 7965
  146.3212  140.3292  142.8639 LP  0  0  0  0  0  0  0  0  0  0  0  0  # atno 17321 bound_to 7965
  139.8743  143.7153  152.3163 LP  0  0  0  0  0  0  0  0  0  0  0  0  # atno 17342 bound_to 10162
  139.7413  144.7559  151.0649 LP  0  0  0  0  0  0  0  0  0  0  0  0  # atno 17343 bound_to 10162
  157.0209  130.5673  149.5331 LP  0  0  0  0  0  0  0  0  0  0  0  0  # atno 17370 bound_to 10713
  156.0190  130.5285  150.8220 LP  0  0  0  0  0  0  0  0  0  0  0  0  # atno 17371 bound_to 10713
  141.1695  133.8637  157.1614 LP  0  0  0  0  0  0  0  0  0  0  0  0  # atno 17394 bound_to 11000
  140.0054  135.0011  157.0280 LP  0  0  0  0  0  0  0  0  0  0  0  0  # atno 17395 bound_to 11000

$$$$
