AV-unprocessed.smi:83|AV-procd|sdf|801|dock8
  -GOLD-   2262017183D 1   1.00000     0.00000
 Structure written by MMmdl.
 56 59  0  0  0  0  0  0  0  0  1 V2000
  152.4436  143.3302  160.2938 C   0  0  0  0  0  0  0  0  0  0  0  0
  151.8081  143.4538  158.9079 C   0  0  0  0  0  0  0  0  0  0  0  0
  151.6207  144.5746  158.4343 O   0  0  0  0  0  0  0  0  0  0  0  0
  151.4728  142.3238  158.2535 N   0  0  0  0  0  0  0  0  0  0  0  0
  151.6705  140.9618  158.7465 C   0  0  0  0  0  0  0  0  0  0  0  0
  151.3141  140.0462  157.5738 C   0  0  0  0  0  0  0  0  0  0  0  0
  150.3404  140.8717  156.7399 C   0  0  2  0  0  0  0  0  0  0  0  0
  150.2308  140.4138  155.2722 C   0  0  0  0  0  0  0  0  0  0  0  0
  148.8504  140.4078  154.7838 N   0  0  0  0  0  0  0  0  0  0  0  0
  148.3805  141.5631  154.0302 C   0  0  0  0  0  0  0  0  0  0  0  0
  148.1933  139.2204  154.6742 C   0  0  0  0  0  0  0  0  0  0  0  0
  148.4754  138.2504  155.5841 N   0  0  0  0  0  0  0  0  0  0  0  0
  147.8682  137.0625  155.5274 C   0  0  0  0  0  0  0  0  0  0  0  0
  146.9579  136.6331  154.6537 N   0  0  0  0  0  0  0  0  0  0  0  0
  146.6689  137.5943  153.7318 C   0  0  0  0  0  0  0  0  0  0  0  0
  147.2294  138.9039  153.6681 C   0  0  0  0  0  0  0  0  0  0  0  0
  146.6899  139.5834  152.5796 N   0  0  0  0  0  0  0  0  0  0  0  0
  145.8602  138.7335  152.0410 C   0  0  0  0  0  0  0  0  0  0  0  0
  145.7844  137.5138  152.6709 N   0  0  0  0  0  0  0  0  0  0  0  0
  144.9485  136.3913  152.2831 C   0  0  0  0  0  0  0  0  0  0  0  0
  145.4759  135.6752  151.0251 C   0  0  2  0  0  0  0  0  0  0  0  0
  145.0095  136.3169  149.8532 O   0  0  0  0  0  0  0  0  0  0  0  0
  145.1278  134.1728  151.0037 C   0  0  2  0  0  0  0  0  0  0  0  0
  145.8395  133.3199  149.9505 C   0  0  0  0  0  0  0  0  0  0  0  0
  144.9002  132.1389  149.8493 C   0  0  0  0  0  0  0  0  0  0  0  0
  143.5353  132.8119  149.9778 C   0  0  0  0  0  0  0  0  0  0  0  0
  143.7326  133.9447  150.8206 O   0  0  0  0  0  0  0  0  0  0  0  0
  150.8477  142.3053  156.9340 C   0  0  0  0  0  0  0  0  0  0  0  0
  151.7961  142.7696  160.9684 H   0  0  0  0  0  0  0  0  0  0  0  0
  152.6097  144.3156  160.7303 H   0  0  0  0  0  0  0  0  0  0  0  0
  153.4071  142.8241  160.2314 H   0  0  0  0  0  0  0  0  0  0  0  0
  152.6936  140.7882  159.0826 H   0  0  0  0  0  0  0  0  0  0  0  0
  150.9981  140.7845  159.5872 H   0  0  0  0  0  0  0  0  0  0  0  0
  152.2131  139.8323  156.9938 H   0  0  0  0  0  0  0  0  0  0  0  0
  150.8915  139.0944  157.8969 H   0  0  0  0  0  0  0  0  0  0  0  0
  149.3603  140.7928  157.2134 H   0  0  0  0  0  0  0  0  0  0  0  0
  150.8804  141.0185  154.6394 H   0  0  0  0  0  0  0  0  0  0  0  0
  150.6164  139.3972  155.1893 H   0  0  0  0  0  0  0  0  0  0  0  0
  147.2962  141.6581  154.0956 H   0  0  0  0  0  0  0  0  0  0  0  0
  148.6654  141.4823  152.9809 H   0  0  0  0  0  0  0  0  0  0  0  0
  148.8159  142.4807  154.4267 H   0  0  0  0  0  0  0  0  0  0  0  0
  148.1542  136.3544  156.2912 H   0  0  0  0  0  0  0  0  0  0  0  0
  145.2776  138.9735  151.1633 H   0  0  0  0  0  0  0  0  0  0  0  0
  144.9068  135.6951  153.1217 H   0  0  0  0  0  0  0  0  0  0  0  0
  143.9299  136.7487  152.1255 H   0  0  0  0  0  0  0  0  0  0  0  0
  146.5632  135.7618  151.0106 H   0  0  0  0  0  0  0  0  0  0  0  0
  144.7122  137.1836  150.0838 H   0  0  0  0  0  0  0  0  0  0  0  0
  145.3685  133.7554  151.9831 H   0  0  0  0  0  0  0  0  0  0  0  0
  145.8908  133.8281  148.9867 H   0  0  0  0  0  0  0  0  0  0  0  0
  146.8517  133.0396  150.2434 H   0  0  0  0  0  0  0  0  0  0  0  0
  145.0134  131.5772  148.9217 H   0  0  0  0  0  0  0  0  0  0  0  0
  145.0637  131.4571  150.6853 H   0  0  0  0  0  0  0  0  0  0  0  0
  143.1923  133.1626  149.0036 H   0  0  0  0  0  0  0  0  0  0  0  0
  142.7766  132.1413  150.3820 H   0  0  0  0  0  0  0  0  0  0  0  0
  150.0330  143.0273  156.8551 H   0  0  0  0  0  0  0  0  0  0  0  0
  151.6010  142.5612  156.1876 H   0  0  0  0  0  0  0  0  0  0  0  0
  1  2  1  0  0  0  0
  1 29  1  0  0  0  0
  1 30  1  0  0  0  0
  1 31  1  0  0  0  0
  2  3  2  0  0  0  0
  2  4  1  0  0  0  0
  4 28  1  0  0  0  0
  4  5  1  0  0  0  0
  5  6  1  0  0  0  0
  5 32  1  0  0  0  0
  5 33  1  0  0  0  0
  6  7  1  0  0  0  0
  6 34  1  0  0  0  0
  6 35  1  0  0  0  0
  7  8  1  0  0  0  0
  7 28  1  0  0  0  0
  7 36  1  0  0  0  0
  8  9  1  0  0  0  0
  8 37  1  0  0  0  0
  8 38  1  0  0  0  0
  9 10  1  0  0  0  0
  9 11  1  0  0  0  0
 10 39  1  0  0  0  0
 10 40  1  0  0  0  0
 10 41  1  0  0  0  0
 11 16  1  0  0  0  0
 11 12  2  0  0  0  0
 12 13  1  0  0  0  0
 13 14  2  0  0  0  0
 13 42  1  0  0  0  0
 14 15  1  0  0  0  0
 15 19  1  0  0  0  0
 15 16  2  0  0  0  0
 16 17  1  0  0  0  0
 17 18  2  0  0  0  0
 18 19  1  0  0  0  0
 18 43  1  0  0  0  0
 19 20  1  0  0  0  0
 20 21  1  0  0  0  0
 20 44  1  0  0  0  0
 20 45  1  0  0  0  0
 21 22  1  0  0  0  0
 21 23  1  0  0  0  0
 21 46  1  0  0  0  0
 22 47  1  0  0  0  0
 23 27  1  0  0  0  0
 23 24  1  0  0  0  0
 23 48  1  0  0  0  0
 24 25  1  0  0  0  0
 24 49  1  0  0  0  0
 24 50  1  0  0  0  0
 25 26  1  0  0  0  0
 25 51  1  0  0  0  0
 25 52  1  0  0  0  0
 26 27  1  0  0  0  0
 26 53  1  0  0  0  0
 26 54  1  0  0  0  0
 28 55  1  0  0  0  0
 28 56  1  0  0  0  0
M  END
> <s_m_source_file>
AV-unprocessed.smi

> <i_m_source_file_index>
83

> <i_lp_mmshare_version>
43012

> <i_f3d_flags>
0

> <s_epik_input>
W0NIM11DKD1PKU4xW0NIMl1bQ0gyXVtDQEhdKFtDSDJdMSlbQ0gyXU4oW0NIM10pYyhuW2NIXW4yKWMoYzIzKW5bY0hdbjNbQ0gyXVtDQEhdKFtPSF0pW0NAQEhdNFtDSDJdW0NIMl1bQ0gyXU80

> <s_epik_cmdline>
J2VwaWtfcHl0aG9uJywgJy1waCcsICc3LjAnLCAnLXRuJywgJzgnLCAnLW1hJywgJzIwMCcsICctbWV0YWxfYmluZGluZycsICctaW1hZScsICc8aW5maWxlLm1hZT4nLCAnLW9tYWUnLCAnPG91dGZpbGUubWFlPic=

> <r_lp_tautomer_probability>
1

> <r_epik_Ionization_Penalty>
0.00109752

> <r_epik_Ionization_Penalty_Charging>
0

> <r_epik_Ionization_Penalty_Neutral>
0.00109752

> <r_epik_State_Penalty>
0.000634803

> <r_epik_Charging_Adjusted_Penalty>
0.000634803

> <i_epik_Tot_Q>
0

> <i_epik_Tot_abs_Q>
0

> <r_epik_Metal_State_Penalty>
-0

> <b_epik_Metal_Only>
0

> <s_lp_Force_Field>
OPLS_2005

> <r_lp_Energy>
56.4298

> <b_lp_Chiralities_Consistent>
1

> <s_lp_Variant>
AV-unprocessed.smi:83-2

> <Gold.Version>
5.8.1

> <Gold.Id.Protein>
6NUR|6NUR_protein|mol2

> <Gold.PLP.Fitness>
51.0973

> <Gold.PLP.PLP>
-47.8304

> <Gold.PLP.part.hbond>
-2.0000

> <Gold.PLP.part.metal>
0.0000

> <Gold.PLP.part.buried>
-3.7899

> <Gold.PLP.part.nonpolar>
-43.2952

> <Gold.PLP.part.repulsive>
0.7513

> <Gold.PLP.ligand.clash>
0.0000

> <Gold.PLP.ligand.torsion>
1.7281

> <Gold.PLP.Chemscore.Hbond>
1.0000

> <Gold.PLP.Chemscore.CHOScore>
1.1076

> <Gold.PLP.Chemscore.Metal>
0.0000

> <Gold.Chemscore.Hbonds>
donor molecule, donor type, donor heavy atom, donor atom, acceptor molecule, acceptor atom, score
      L1  H    22    47       P1 10171  1.00
      L1  C    18    43       P1 10171  0.85
      L1  C    18    43       P1 10175  0.28

> <Gold.PLP.Chemscore.Internal.Correction>
0.4003

> <Gold.Rescore>
     Score         DG    S(hbond)    S(metal)    S(lipo)     H(rot)  DE(clash)    DE(int)     intcor
      9.85     -12.70       0.70        0.00      99.08       2.62       0.22       2.63       ----

> <Gold.Chemscore.Fitness>
9.8512

> <Gold.Chemscore.DG>
-12.7006

> <Gold.Chemscore.ZeroCoef>
-5.4800

> <Gold.Chemscore.Hbond>
0.6957

> <Gold.Chemscore.Metal>
0.0000

> <Gold.Chemscore.Lipo>
99.0751

> <Gold.Chemscore.Internal_Hbond>
0.0000

> <Gold.Chemscore.DEClash>
0.2209

> <Gold.Chemscore.DEInternal>
2.6285

> <Gold.Chemscore.Rot>
2.6152

> <Gold.Chemscore.Internal.Correction>
   9.000000E+99

> <Gold.Chemscore.Hbonds>
donor molecule, donor type, donor heavy atom, donor atom, acceptor molecule, acceptor atom, score
      L1  H    22    47       P1 10171  0.96

> <Gold.Chemscore.Hbond.Weighted>
-2.3237

> <Gold.Chemscore.Metal.Weighted>
-0.0000

> <Gold.Chemscore.Lipo.Weighted>
-11.5918

> <Gold.Chemscore.Internal_Hbond.Weighted>
0.0000

> <Gold.Chemscore.DEClash.Weighted>
0.2209

> <Gold.Chemscore.DEInternal.Weighted>
2.6285

> <Gold.Chemscore.Rot.Weighted>
6.6949

> <Gold.Chemscore.Internal.Correction.Weighted>
   9.000000E+99

> <Gold.Protein.RotatedTorsions>
[ 6907 6896 6895 6894 ] final  139.92 input  -60.11 | X-H torsion
[ 7974 7965 7964 7962 ] final -159.52 input  175.53 | X-H torsion
[ 8008 7997 7996 7995 ] final  100.94 input   59.86 | X-H torsion
[ 10167 10162 10161 10158 ] final   52.08 input  -65.29 | X-H torsion
[ 10718 10713 10712 10709 ] final  150.31 input   66.30 | X-H torsion
[ 10763 10752 10751 10750 ] final -154.89 input  -60.55 | X-H torsion
[ 11005 11000 10999 10996 ] final  141.85 input  -57.11 | X-H torsion

> <Gold.Protein.ActiveResidues>
 VAL166  LYS551  ARG553  GLY616  TRP617  ASP618  TYR619  PRO620  LYS621  CYS622 
 ASP623  PHE694  ASN695  SER759  ASP760  ASP761  ALA762  ILE779  LEU786  VAL792 
 PHE793  MET794  SER795  GLU796  ALA797  LYS798  CYS799  TRP800  GLU811  SER814 

> <Gold.Protein.RotatedAtoms>
  152.2492  133.5201  159.5315 H   0  0  0  0  0  0  0  0  0  0  0  0  # atno 6907 bound_to 6896
  150.7088  134.0983  159.3965 H   0  0  0  0  0  0  0  0  0  0  0  0  # atno 6908 bound_to 6896
  151.8903  135.0419  160.0548 H   0  0  0  0  0  0  0  0  0  0  0  0  # atno 6909 bound_to 6896
  144.7462  140.3673  143.6083 H   0  0  0  0  0  0  0  0  0  0  0  0  # atno 7974 bound_to 7965
  156.1252  140.3205  155.8266 H   0  0  0  0  0  0  0  0  0  0  0  0  # atno 8008 bound_to 7997
  155.4433  140.0527  157.3025 H   0  0  0  0  0  0  0  0  0  0  0  0  # atno 8009 bound_to 7997
  154.4857  140.2071  155.9675 H   0  0  0  0  0  0  0  0  0  0  0  0  # atno 8010 bound_to 7997
  140.2552  144.3435  150.6335 H   0  0  0  0  0  0  0  0  0  0  0  0  # atno 10167 bound_to 10162
  157.2851  131.0842  151.1503 H   0  0  0  0  0  0  0  0  0  0  0  0  # atno 10718 bound_to 10713
  154.7827  135.3180  154.7955 H   0  0  0  0  0  0  0  0  0  0  0  0  # atno 10763 bound_to 10752
  153.8663  135.6848  153.4782 H   0  0  0  0  0  0  0  0  0  0  0  0  # atno 10764 bound_to 10752
  153.1468  135.4716  154.9516 H   0  0  0  0  0  0  0  0  0  0  0  0  # atno 10765 bound_to 10752
  140.0433  134.9294  157.0883 H   0  0  0  0  0  0  0  0  0  0  0  0  # atno 11005 bound_to 11000
  145.7114  139.1686  143.2536 LP  0  0  0  0  0  0  0  0  0  0  0  0  # atno 17320 bound_to 7965
  146.1344  140.7143  142.9397 LP  0  0  0  0  0  0  0  0  0  0  0  0  # atno 17321 bound_to 7965
  140.6010  143.2167  151.7073 LP  0  0  0  0  0  0  0  0  0  0  0  0  # atno 17342 bound_to 10162
  139.5034  144.3793  152.0392 LP  0  0  0  0  0  0  0  0  0  0  0  0  # atno 17343 bound_to 10162
  157.2922  130.6802  149.6120 LP  0  0  0  0  0  0  0  0  0  0  0  0  # atno 17370 bound_to 10713
  155.9665  130.4417  150.5352 LP  0  0  0  0  0  0  0  0  0  0  0  0  # atno 17371 bound_to 10713
  140.4035  134.2058  155.7163 LP  0  0  0  0  0  0  0  0  0  0  0  0  # atno 17394 bound_to 11000
  141.1894  133.8239  157.0959 LP  0  0  0  0  0  0  0  0  0  0  0  0  # atno 17395 bound_to 11000

$$$$
