AV-unprocessed.smi:281|AV-procd|sdf|2101|dock3
  -GOLD-   2262021393D 1   1.00000     0.00000
 Structure written by MMmdl.
 55 59  0  0  0  0  0  0  0  0  1 V2000
  147.3139  133.3378  157.5279 C   0  0  0  0  0  0  0  0  0  0  0  0
  147.4170  134.6119  158.3722 C   0  0  2  0  0  0  0  0  0  0  0  0
  148.7834  135.2978  158.2152 C   0  0  0  0  0  0  0  0  0  0  0  0
  148.8625  136.4407  159.1117 N   0  0  0  0  0  0  0  0  0  0  0  0
  149.9563  137.2056  158.9125 C   0  0  0  0  0  0  0  0  0  0  0  0
  151.1978  136.6720  159.0574 N   0  0  0  0  0  0  0  0  0  0  0  0
  152.2771  137.4346  158.8572 C   0  0  0  0  0  0  0  0  0  0  0  0
  152.3371  138.7235  158.5138 N   0  0  0  0  0  0  0  0  0  0  0  0
  151.0901  139.2566  158.3647 C   0  0  0  0  0  0  0  0  0  0  0  0
  149.8563  138.5721  158.5453 C   0  0  0  0  0  0  0  0  0  0  0  0
  148.7918  139.4335  158.3145 N   0  0  0  0  0  0  0  0  0  0  0  0
  149.3650  140.5673  158.0142 C   0  0  0  0  0  0  0  0  0  0  0  0
  150.7424  140.5489  158.0122 N   0  0  0  0  0  0  0  0  0  0  0  0
  151.6300  141.6613  157.7110 C   0  0  0  0  0  0  0  0  0  0  0  0
  151.5924  142.7833  158.7747 C   0  0  1  0  0  0  0  0  0  0  0  0
  151.6491  142.2010  160.0652 O   0  0  0  0  0  0  0  0  0  0  0  0
  152.7269  143.7977  158.6525 C   0  0  0  0  0  0  0  0  0  0  0  0
  152.0789  145.0925  159.1220 C   0  0  0  0  0  0  0  0  0  0  0  0
  150.7801  145.0045  158.5624 O   0  0  0  0  0  0  0  0  0  0  0  0
  150.3272  143.6607  158.6892 C   0  0  0  0  0  0  0  0  0  0  0  0
  148.6378  136.0741  160.5037 C   0  0  0  0  0  0  0  0  0  0  0  0
  147.2862  135.3426  160.6729 C   0  0  2  0  0  0  0  0  0  0  0  0
  146.0650  136.2618  160.5221 C   0  0  0  0  0  0  0  0  0  0  0  0
  145.5058  136.3878  161.9333 C   0  0  0  0  0  0  0  0  0  0  0  0
  145.8016  135.1237  162.4965 O   0  0  0  0  0  0  0  0  0  0  0  0
  147.1332  134.8099  162.1181 C   0  0  1  0  0  0  0  0  0  0  0  0
  147.4128  133.3136  162.3180 C   0  0  0  0  0  0  0  0  0  0  0  0
  147.2194  134.2543  159.7413 O   0  0  0  0  0  0  0  0  0  0  0  0
  147.4482  133.5576  156.4684 H   0  0  0  0  0  0  0  0  0  0  0  0
  146.3372  132.8686  157.6487 H   0  0  0  0  0  0  0  0  0  0  0  0
  148.0716  132.6093  157.8180 H   0  0  0  0  0  0  0  0  0  0  0  0
  146.6313  135.2976  158.0534 H   0  0  0  0  0  0  0  0  0  0  0  0
  149.5861  134.5950  158.4442 H   0  0  0  0  0  0  0  0  0  0  0  0
  148.9228  135.6244  157.1835 H   0  0  0  0  0  0  0  0  0  0  0  0
  153.2288  136.9417  158.9905 H   0  0  0  0  0  0  0  0  0  0  0  0
  148.7936  141.4537  157.7805 H   0  0  0  0  0  0  0  0  0  0  0  0
  152.6432  141.2682  157.6162 H   0  0  0  0  0  0  0  0  0  0  0  0
  151.3651  142.0604  156.7308 H   0  0  0  0  0  0  0  0  0  0  0  0
  150.7678  142.0087  160.3469 H   0  0  0  0  0  0  0  0  0  0  0  0
  153.6206  143.5321  159.2193 H   0  0  0  0  0  0  0  0  0  0  0  0
  153.0181  143.9140  157.6080 H   0  0  0  0  0  0  0  0  0  0  0  0
  152.0115  145.1288  160.2105 H   0  0  0  0  0  0  0  0  0  0  0  0
  152.6083  145.9806  158.7762 H   0  0  0  0  0  0  0  0  0  0  0  0
  149.7034  143.4103  157.8304 H   0  0  0  0  0  0  0  0  0  0  0  0
  149.7044  143.5708  159.5807 H   0  0  0  0  0  0  0  0  0  0  0  0
  149.4472  135.4225  160.8370 H   0  0  0  0  0  0  0  0  0  0  0  0
  148.6675  136.9664  161.1308 H   0  0  0  0  0  0  0  0  0  0  0  0
  146.2980  137.2310  160.0798 H   0  0  0  0  0  0  0  0  0  0  0  0
  145.3088  135.7878  159.8955 H   0  0  0  0  0  0  0  0  0  0  0  0
  146.0192  137.1725  162.4914 H   0  0  0  0  0  0  0  0  0  0  0  0
  144.4358  136.5957  161.9467 H   0  0  0  0  0  0  0  0  0  0  0  0
  147.7865  135.3765  162.7847 H   0  0  0  0  0  0  0  0  0  0  0  0
  148.4270  133.0608  162.0083 H   0  0  0  0  0  0  0  0  0  0  0  0
  146.7205  132.6969  161.7445 H   0  0  0  0  0  0  0  0  0  0  0  0
  147.3068  133.0377  163.3673 H   0  0  0  0  0  0  0  0  0  0  0  0
  1  2  1  0  0  0  0
  1 29  1  0  0  0  0
  1 30  1  0  0  0  0
  1 31  1  0  0  0  0
  2 28  1  0  0  0  0
  2  3  1  0  0  0  0
  2 32  1  0  0  0  0
  3  4  1  0  0  0  0
  3 33  1  0  0  0  0
  3 34  1  0  0  0  0
  4  5  1  0  0  0  0
  4 21  1  0  0  0  0
  5 10  1  0  0  0  0
  5  6  2  0  0  0  0
  6  7  1  0  0  0  0
  7  8  2  0  0  0  0
  7 35  1  0  0  0  0
  8  9  1  0  0  0  0
  9 13  1  0  0  0  0
  9 10  2  0  0  0  0
 10 11  1  0  0  0  0
 11 12  2  0  0  0  0
 12 13  1  0  0  0  0
 12 36  1  0  0  0  0
 13 14  1  0  0  0  0
 14 15  1  0  0  0  0
 14 37  1  0  0  0  0
 14 38  1  0  0  0  0
 15 20  1  0  0  0  0
 15 16  1  0  0  0  0
 15 17  1  0  0  0  0
 16 39  1  0  0  0  0
 17 18  1  0  0  0  0
 17 40  1  0  0  0  0
 17 41  1  0  0  0  0
 18 19  1  0  0  0  0
 18 42  1  0  0  0  0
 18 43  1  0  0  0  0
 19 20  1  0  0  0  0
 20 44  1  0  0  0  0
 20 45  1  0  0  0  0
 21 22  1  0  0  0  0
 21 46  1  0  0  0  0
 21 47  1  0  0  0  0
 22 26  1  0  0  0  0
 22 23  1  0  0  0  0
 22 28  1  0  0  0  0
 23 24  1  0  0  0  0
 23 48  1  0  0  0  0
 23 49  1  0  0  0  0
 24 25  1  0  0  0  0
 24 50  1  0  0  0  0
 24 51  1  0  0  0  0
 25 26  1  0  0  0  0
 26 27  1  0  0  0  0
 26 52  1  0  0  0  0
 27 53  1  0  0  0  0
 27 54  1  0  0  0  0
 27 55  1  0  0  0  0
M  END
> <s_m_source_file>
AV-unprocessed.smi

> <i_m_source_file_index>
281

> <i_lp_mmshare_version>
43012

> <i_f3d_flags>
0

> <s_epik_input>
W0NIM11bQ0BASF0xT1tDSDJdW0NIMl1bQ0BAXTEyW0NIMl1OKFtDSDJdW0NASF0oTzIpW0NIM10pYyhuW2NIXW4zKWMoYzM0KW5bY0hdbjRbQ0gyXVtDQEBdNShbT0hdKVtDSDJdW0NIMl1PW0NIMl01

> <s_epik_cmdline>
J2VwaWtfcHl0aG9uJywgJy1waCcsICc3LjAnLCAnLXRuJywgJzgnLCAnLW1hJywgJzIwMCcsICctbWV0YWxfYmluZGluZycsICctaW1hZScsICc8aW5maWxlLm1hZT4nLCAnLW9tYWUnLCAnPG91dGZpbGUubWFlPic=

> <r_lp_tautomer_probability>
1

> <r_epik_Ionization_Penalty>
0.00571331

> <r_epik_Ionization_Penalty_Charging>
0

> <r_epik_Ionization_Penalty_Neutral>
0.00571331

> <r_epik_State_Penalty>
0.00399586

> <r_epik_Charging_Adjusted_Penalty>
0.00399586

> <i_epik_Tot_Q>
0

> <i_epik_Tot_abs_Q>
0

> <r_epik_Metal_State_Penalty>
-0

> <b_epik_Metal_Only>
0

> <s_lp_Force_Field>
OPLS_2005

> <r_lp_Energy>
53.2983

> <b_lp_Chiralities_Consistent>
1

> <s_lp_Variant>
AV-unprocessed.smi:281-1

> <Gold.Version>
5.8.1

> <Gold.Id.Protein>
6NUR|6NUR_protein|mol2

> <Gold.PLP.Fitness>
43.5733

> <Gold.PLP.PLP>
-41.1166

> <Gold.PLP.part.hbond>
-2.8212

> <Gold.PLP.part.metal>
0.0000

> <Gold.PLP.part.buried>
-8.7996

> <Gold.PLP.part.nonpolar>
-31.5984

> <Gold.PLP.part.repulsive>
0.1772

> <Gold.PLP.ligand.clash>
0.0000

> <Gold.PLP.ligand.torsion>
0.3195

> <Gold.PLP.Chemscore.Hbond>
0.9920

> <Gold.PLP.Chemscore.CHOScore>
0.0000

> <Gold.PLP.Chemscore.Metal>
0.0000

> <Gold.Chemscore.Hbonds>
donor molecule, donor type, donor heavy atom, donor atom, acceptor molecule, acceptor atom, score
      P1  H  6896  6907       L1     6  0.98

> <Gold.PLP.Chemscore.Internal.Correction>
0.1196

> <Gold.Rescore>
     Score         DG    S(hbond)    S(metal)    S(lipo)     H(rot)  DE(clash)    DE(int)     intcor
     15.17     -15.46       0.91        0.00     105.21       2.09       0.02       0.27       ----

> <Gold.Chemscore.Fitness>
15.1683

> <Gold.Chemscore.DG>
-15.4577

> <Gold.Chemscore.ZeroCoef>
-5.4800

> <Gold.Chemscore.Hbond>
0.9057

> <Gold.Chemscore.Metal>
0.0000

> <Gold.Chemscore.Lipo>
105.2146

> <Gold.Chemscore.Internal_Hbond>
0.0000

> <Gold.Chemscore.DEClash>
0.0183

> <Gold.Chemscore.DEInternal>
0.2712

> <Gold.Chemscore.Rot>
2.0927

> <Gold.Chemscore.Internal.Correction>
   9.000000E+99

> <Gold.Chemscore.Hbonds>
donor molecule, donor type, donor heavy atom, donor atom, acceptor molecule, acceptor atom, score
      P1  H  6896  6907       L1     6  0.77

> <Gold.Chemscore.Hbond.Weighted>
-3.0250

> <Gold.Chemscore.Metal.Weighted>
-0.0000

> <Gold.Chemscore.Lipo.Weighted>
-12.3101

> <Gold.Chemscore.Internal_Hbond.Weighted>
0.0000

> <Gold.Chemscore.DEClash.Weighted>
0.0183

> <Gold.Chemscore.DEInternal.Weighted>
0.2712

> <Gold.Chemscore.Rot.Weighted>
5.3573

> <Gold.Chemscore.Internal.Correction.Weighted>
   9.000000E+99

> <Gold.Protein.RotatedTorsions>
[ 6907 6896 6895 6894 ] final  -26.79 input  -60.11 | X-H torsion
[ 7974 7965 7964 7962 ] final  -59.71 input  175.53 | X-H torsion
[ 8008 7997 7996 7995 ] final  -92.72 input   59.86 | X-H torsion
[ 10167 10162 10161 10158 ] final  -15.23 input  -65.29 | X-H torsion
[ 10718 10713 10712 10709 ] final  -19.70 input   66.30 | X-H torsion
[ 10763 10752 10751 10750 ] final   39.83 input  -60.55 | X-H torsion
[ 11005 11000 10999 10996 ] final  -98.58 input  -57.11 | X-H torsion

> <Gold.Protein.ActiveResidues>
 VAL166  LYS551  ARG553  GLY616  TRP617  ASP618  TYR619  PRO620  LYS621  CYS622 
 ASP623  PHE694  ASN695  SER759  ASP760  ASP761  ALA762  ILE779  LEU786  VAL792 
 PHE793  MET794  SER795  GLU796  ALA797  LYS798  CYS799  TRP800  GLU811  SER814 

> <Gold.Protein.RotatedAtoms>
  151.1560  135.0250  159.8688 H   0  0  0  0  0  0  0  0  0  0  0  0  # atno 6907 bound_to 6896
  152.5452  134.1334  159.8459 H   0  0  0  0  0  0  0  0  0  0  0  0  # atno 6908 bound_to 6896
  151.1424  133.4916  159.2629 H   0  0  0  0  0  0  0  0  0  0  0  0  # atno 6909 bound_to 6896
  145.8242  140.8521  143.0117 H   0  0  0  0  0  0  0  0  0  0  0  0  # atno 7974 bound_to 7965
  154.7267  140.0506  157.0689 H   0  0  0  0  0  0  0  0  0  0  0  0  # atno 8008 bound_to 7997
  155.0356  140.3163  155.4724 H   0  0  0  0  0  0  0  0  0  0  0  0  # atno 8009 bound_to 7997
  156.2831  140.2142  156.5478 H   0  0  0  0  0  0  0  0  0  0  0  0  # atno 8010 bound_to 7997
  140.7215  143.5240  150.9600 H   0  0  0  0  0  0  0  0  0  0  0  0  # atno 10167 bound_to 10162
  156.5420  130.4680  149.6494 H   0  0  0  0  0  0  0  0  0  0  0  0  # atno 10718 bound_to 10713
  152.9955  135.6209  154.2529 H   0  0  0  0  0  0  0  0  0  0  0  0  # atno 10763 bound_to 10752
  154.2267  135.2794  155.2907 H   0  0  0  0  0  0  0  0  0  0  0  0  # atno 10764 bound_to 10752
  154.5484  135.5740  153.6958 H   0  0  0  0  0  0  0  0  0  0  0  0  # atno 10765 bound_to 10752
  141.1339  133.8256  157.0859 H   0  0  0  0  0  0  0  0  0  0  0  0  # atno 11005 bound_to 11000
  144.6745  140.0578  143.7477 LP  0  0  0  0  0  0  0  0  0  0  0  0  # atno 17320 bound_to 7965
  145.9642  139.2822  143.1138 LP  0  0  0  0  0  0  0  0  0  0  0  0  # atno 17321 bound_to 7965
  139.8958  143.6897  152.3139 LP  0  0  0  0  0  0  0  0  0  0  0  0  # atno 17342 bound_to 10162
  139.7229  144.7599  151.0926 LP  0  0  0  0  0  0  0  0  0  0  0  0  # atno 17343 bound_to 10162
  156.2962  130.7152  151.2013 LP  0  0  0  0  0  0  0  0  0  0  0  0  # atno 17370 bound_to 10713
  157.7403  131.0518  150.5172 LP  0  0  0  0  0  0  0  0  0  0  0  0  # atno 17371 bound_to 10713
  140.0423  134.9848  157.0984 LP  0  0  0  0  0  0  0  0  0  0  0  0  # atno 17394 bound_to 11000
  140.4117  134.1974  155.7163 LP  0  0  0  0  0  0  0  0  0  0  0  0  # atno 17395 bound_to 11000

$$$$
