AV-unprocessed.smi:2552|AV-procd|sdf|10016|dock7
  -GOLD-   2272014 63D 1   1.00000     0.00000
 Structure written by MMmdl.
 34 36  0  0  0  0  0  0  0  0  1 V2000
  146.2193  137.7939  158.0170 C   0  0  0  0  0  0  0  0  0  0  0  0
  147.2152  138.0237  156.9730 N   0  0  0  0  0  0  0  0  0  0  0  0
  146.8914  137.4807  155.7239 N   0  0  0  0  0  0  0  0  0  0  0  0
  147.6827  137.6135  154.7055 C   0  0  0  0  0  0  0  0  0  0  0  0
  148.9303  138.3483  154.8914 C   0  0  0  0  0  0  0  0  0  0  0  0
  150.0266  138.7050  154.0588 C   0  0  0  0  0  0  0  0  0  0  0  0
  150.9497  139.4013  154.7198 N   0  0  0  0  0  0  0  0  0  0  0  0
  150.4872  139.5126  155.9923 N   0  0  0  0  0  0  0  0  0  0  0  0
  151.2700  140.2230  156.9916 C   0  0  0  0  0  0  0  0  0  0  0  0
  151.1600  141.7555  156.8583 C   0  0  1  0  0  0  0  0  0  0  0  0
  149.8132  142.1260  156.6293 O   0  0  0  0  0  0  0  0  0  0  0  0
  151.7562  142.4552  158.0724 C   0  0  0  0  0  0  0  0  0  0  0  0
  152.1110  141.7136  159.2219 C   0  0  0  0  0  0  0  0  0  0  0  0
  152.6707  142.3587  160.3416 C   0  0  0  0  0  0  0  0  0  0  0  0
  152.8841  143.7498  160.3188 C   0  0  0  0  0  0  0  0  0  0  0  0
  152.5399  144.4941  159.1747 C   0  0  0  0  0  0  0  0  0  0  0  0
  151.9797  143.8511  158.0533 C   0  0  0  0  0  0  0  0  0  0  0  0
  151.6618  144.5831  156.9586 F   0  0  0  0  0  0  0  0  0  0  0  0
  149.2654  138.8799  156.0926 C   0  0  0  0  0  0  0  0  0  0  0  0
  148.3559  138.7240  157.2519 C   0  0  0  0  0  0  0  0  0  0  0  0
  148.6260  139.1942  158.3571 O   0  0  0  0  0  0  0  0  0  0  0  0
  145.8483  138.7418  158.4093 H   0  0  0  0  0  0  0  0  0  0  0  0
  146.6519  137.2279  158.8431 H   0  0  0  0  0  0  0  0  0  0  0  0
  145.3600  137.2327  157.6459 H   0  0  0  0  0  0  0  0  0  0  0  0
  147.4287  137.1897  153.7340 H   0  0  0  0  0  0  0  0  0  0  0  0
  150.1825  138.4868  153.0126 H   0  0  0  0  0  0  0  0  0  0  0  0
  150.9473  139.9057  157.9847 H   0  0  0  0  0  0  0  0  0  0  0  0
  152.3097  139.9089  156.8943 H   0  0  0  0  0  0  0  0  0  0  0  0
  151.7108  142.0735  155.9729 H   0  0  0  0  0  0  0  0  0  0  0  0
  149.8026  142.9749  156.2146 H   0  0  0  0  0  0  0  0  0  0  0  0
  151.9579  140.6446  159.2492 H   0  0  0  0  0  0  0  0  0  0  0  0
  152.9382  141.7852  161.2169 H   0  0  0  0  0  0  0  0  0  0  0  0
  153.3140  144.2452  161.1770 H   0  0  0  0  0  0  0  0  0  0  0  0
  152.7076  145.5607  159.1553 H   0  0  0  0  0  0  0  0  0  0  0  0
  1  2  1  0  0  0  0
  1 22  1  0  0  0  0
  1 23  1  0  0  0  0
  1 24  1  0  0  0  0
  2 20  1  0  0  0  0
  2  3  1  0  0  0  0
  3  4  2  0  0  0  0
  4  5  1  0  0  0  0
  4 25  1  0  0  0  0
  5 19  2  0  0  0  0
  5  6  1  0  0  0  0
  6  7  2  0  0  0  0
  6 26  1  0  0  0  0
  7  8  1  0  0  0  0
  8  9  1  0  0  0  0
  8 19  1  0  0  0  0
  9 10  1  0  0  0  0
  9 27  1  0  0  0  0
  9 28  1  0  0  0  0
 10 11  1  0  0  0  0
 10 12  1  0  0  0  0
 10 29  1  0  0  0  0
 11 30  1  0  0  0  0
 12 17  1  0  0  0  0
 12 13  2  0  0  0  0
 13 14  1  0  0  0  0
 13 31  1  0  0  0  0
 14 15  2  0  0  0  0
 14 32  1  0  0  0  0
 15 16  1  0  0  0  0
 15 33  1  0  0  0  0
 16 17  2  0  0  0  0
 16 34  1  0  0  0  0
 17 18  1  0  0  0  0
 19 20  1  0  0  0  0
 20 21  2  0  0  0  0
M  END
> <s_m_source_file>
AV-unprocessed.smi

> <i_m_source_file_index>
2552

> <i_lp_mmshare_version>
43012

> <i_f3d_flags>
0

> <s_epik_input>
W2NIXTFubihbQ0gzXSljKD1PKWMoYzEyKW4obltjSF0yKVtDSDJdW0NASF0oW09IXSljM1tjSF1bY0hdW2NIXVtjSF1jM0Y=

> <s_epik_cmdline>
J2VwaWtfcHl0aG9uJywgJy1waCcsICc3LjAnLCAnLXRuJywgJzgnLCAnLW1hJywgJzIwMCcsICctbWV0YWxfYmluZGluZycsICctaW1hZScsICc8aW5maWxlLm1hZT4nLCAnLW9tYWUnLCAnPG91dGZpbGUubWFlPic=

> <r_lp_tautomer_probability>
1

> <r_epik_Ionization_Penalty>
6.28011e-06

> <r_epik_Ionization_Penalty_Charging>
1.65421e-10

> <r_epik_Ionization_Penalty_Neutral>
6.27995e-06

> <r_epik_State_Penalty>
-0

> <r_epik_Charging_Adjusted_Penalty>
1.65421e-10

> <i_epik_Tot_Q>
0

> <i_epik_Tot_abs_Q>
0

> <r_epik_Metal_State_Penalty>
-0

> <b_epik_Metal_Only>
0

> <s_lp_Force_Field>
OPLS_2005

> <r_lp_Energy>
28.1215

> <b_lp_Chiralities_Consistent>
1

> <s_lp_Variant>
AV-unprocessed.smi:2552-2

> <Gold.Version>
5.8.1

> <Gold.Id.Protein>
6NUR|6NUR_protein|mol2

> <Gold.PLP.Fitness>
45.2410

> <Gold.PLP.PLP>
-33.7018

> <Gold.PLP.part.hbond>
-2.9887

> <Gold.PLP.part.metal>
0.0000

> <Gold.PLP.part.buried>
-3.3353

> <Gold.PLP.part.nonpolar>
-28.3133

> <Gold.PLP.part.repulsive>
0.1109

> <Gold.PLP.ligand.clash>
0.0000

> <Gold.PLP.ligand.torsion>
0.5014

> <Gold.PLP.Chemscore.Hbond>
2.0000

> <Gold.PLP.Chemscore.CHOScore>
2.1730

> <Gold.PLP.Chemscore.Metal>
0.0000

> <Gold.Chemscore.Hbonds>
donor molecule, donor type, donor heavy atom, donor atom, acceptor molecule, acceptor atom, score
      L1  H    11    30       P1  8028  0.96
      P1  H  7989  7998       L1     7  1.00
      L1  C     4    25       P1  7948  0.83
      L1  C     6    26       P1  7948  0.35
      L1  C     6    26       P1  7957  0.91

> <Gold.PLP.Chemscore.Internal.Correction>
0.0230

> <Gold.Rescore>
     Score         DG    S(hbond)    S(metal)    S(lipo)     H(rot)  DE(clash)    DE(int)     intcor
     16.15     -17.64       1.81        0.00      96.54       2.02       0.96       0.53       ----

> <Gold.Chemscore.Fitness>
16.1516

> <Gold.Chemscore.DG>
-17.6447

> <Gold.Chemscore.ZeroCoef>
-5.4800

> <Gold.Chemscore.Hbond>
1.8073

> <Gold.Chemscore.Metal>
0.0000

> <Gold.Chemscore.Lipo>
96.5362

> <Gold.Chemscore.Internal_Hbond>
0.0000

> <Gold.Chemscore.DEClash>
0.9630

> <Gold.Chemscore.DEInternal>
0.5301

> <Gold.Chemscore.Rot>
2.0181

> <Gold.Chemscore.Internal.Correction>
   9.000000E+99

> <Gold.Chemscore.Hbonds>
donor molecule, donor type, donor heavy atom, donor atom, acceptor molecule, acceptor atom, score
      L1  H    11    30       P1  8028  0.88
      P1  H  7989  7998       L1     7  0.61

> <Gold.Chemscore.Hbond.Weighted>
-6.0363

> <Gold.Chemscore.Metal.Weighted>
-0.0000

> <Gold.Chemscore.Lipo.Weighted>
-11.2947

> <Gold.Chemscore.Internal_Hbond.Weighted>
0.0000

> <Gold.Chemscore.DEClash.Weighted>
0.9630

> <Gold.Chemscore.DEInternal.Weighted>
0.5301

> <Gold.Chemscore.Rot.Weighted>
5.1663

> <Gold.Chemscore.Internal.Correction.Weighted>
   9.000000E+99

> <Gold.Protein.RotatedTorsions>
[ 6907 6896 6895 6894 ] final -162.59 input  -60.11 | X-H torsion
[ 7974 7965 7964 7962 ] final   71.29 input  175.53 | X-H torsion
[ 8008 7997 7996 7995 ] final  -33.80 input   59.86 | X-H torsion
[ 10167 10162 10161 10158 ] final  145.49 input  -65.29 | X-H torsion
[ 10718 10713 10712 10709 ] final  102.51 input   66.30 | X-H torsion
[ 10763 10752 10751 10750 ] final   36.95 input  -60.55 | X-H torsion
[ 11005 11000 10999 10996 ] final  109.04 input  -57.11 | X-H torsion

> <Gold.Protein.ActiveResidues>
 VAL166  LYS551  ARG553  GLY616  TRP617  ASP618  TYR619  PRO620  LYS621  CYS622 
 ASP623  PHE694  ASN695  SER759  ASP760  ASP761  ALA762  ILE779  LEU786  VAL792 
 PHE793  MET794  SER795  GLU796  ALA797  LYS798  CYS799  TRP800  GLU811  SER814 

> <Gold.Protein.RotatedAtoms>
  151.3826  133.3816  159.2711 H   0  0  0  0  0  0  0  0  0  0  0  0  # atno 6907 bound_to 6896
  150.9565  134.8960  159.7715 H   0  0  0  0  0  0  0  0  0  0  0  0  # atno 6908 bound_to 6896
  152.5133  134.3784  159.9395 H   0  0  0  0  0  0  0  0  0  0  0  0  # atno 6909 bound_to 6896
  145.7677  139.2829  143.1339 H   0  0  0  0  0  0  0  0  0  0  0  0  # atno 7974 bound_to 7965
  154.4138  140.1701  156.1946 H   0  0  0  0  0  0  0  0  0  0  0  0  # atno 8008 bound_to 7997
  155.9575  140.3396  155.6438 H   0  0  0  0  0  0  0  0  0  0  0  0  # atno 8009 bound_to 7997
  155.6791  140.0720  157.2482 H   0  0  0  0  0  0  0  0  0  0  0  0  # atno 8010 bound_to 7997
  139.4925  144.5898  151.6704 H   0  0  0  0  0  0  0  0  0  0  0  0  # atno 10167 bound_to 10162
  157.6800  131.0755  150.5414 H   0  0  0  0  0  0  0  0  0  0  0  0  # atno 10718 bound_to 10713
  153.0056  135.6291  154.2067 H   0  0  0  0  0  0  0  0  0  0  0  0  # atno 10763 bound_to 10752
  154.1810  135.2813  155.3053 H   0  0  0  0  0  0  0  0  0  0  0  0  # atno 10764 bound_to 10752
  154.5834  135.5640  153.7267 H   0  0  0  0  0  0  0  0  0  0  0  0  # atno 10765 bound_to 10752
  139.8854  134.9447  156.6064 H   0  0  0  0  0  0  0  0  0  0  0  0  # atno 11005 bound_to 11000
  146.0201  140.8356  142.9927 LP  0  0  0  0  0  0  0  0  0  0  0  0  # atno 17320 bound_to 7965
  144.6818  140.2616  143.7318 LP  0  0  0  0  0  0  0  0  0  0  0  0  # atno 17321 bound_to 7965
  140.5522  144.0406  150.6132 LP  0  0  0  0  0  0  0  0  0  0  0  0  # atno 17342 bound_to 10162
  140.3464  143.2989  152.0533 LP  0  0  0  0  0  0  0  0  0  0  0  0  # atno 17343 bound_to 10162
  156.5721  130.4282  149.6015 LP  0  0  0  0  0  0  0  0  0  0  0  0  # atno 17370 bound_to 10713
  156.2732  130.7029  151.1832 LP  0  0  0  0  0  0  0  0  0  0  0  0  # atno 17371 bound_to 10713
  140.7845  133.8633  155.8594 LP  0  0  0  0  0  0  0  0  0  0  0  0  # atno 17394 bound_to 11000
  140.9732  134.1504  157.4559 LP  0  0  0  0  0  0  0  0  0  0  0  0  # atno 17395 bound_to 11000

$$$$
