AV-unprocessed.smi:148|AV-procd|sdf|1214|dock4
  -GOLD-   2262018393D 1   1.00000     0.00000
 Structure written by MMmdl.
 63 67  0  0  0  0  0  0  0  0  1 V2000
  145.5773  132.9352  162.0588 O   0  0  0  0  0  0  0  0  0  0  0  0
  146.8808  133.4636  161.9292 C   0  0  0  0  0  0  0  0  0  0  0  0
  146.8572  134.8556  161.2542 C   0  0  2  0  0  0  0  0  0  0  0  0
  148.2845  135.3283  160.8715 C   0  0  0  0  0  0  0  0  0  0  0  0
  148.2712  136.4331  159.9287 N   0  0  0  0  0  0  0  0  0  0  0  0
  147.1588  137.0676  159.4252 C   0  0  0  0  0  0  0  0  0  0  0  0
  147.4038  138.0283  158.5768 N   0  0  0  0  0  0  0  0  0  0  0  0
  148.7908  138.0592  158.4898 C   0  0  0  0  0  0  0  0  0  0  0  0
  149.7269  138.8353  157.7481 C   0  0  0  0  0  0  0  0  0  0  0  0
  149.4034  139.8064  156.8628 N   0  0  0  0  0  0  0  0  0  0  0  0
  148.9976  139.1930  155.5973 C   0  0  0  0  0  0  0  0  0  0  0  0
  148.3958  140.2253  154.6345 C   0  0  0  0  0  0  0  0  0  0  0  0
  149.3684  141.3901  154.4239 C   0  0  0  0  0  0  0  0  0  0  0  0
  149.7350  142.0053  155.7801 C   0  0  0  0  0  0  0  0  0  0  0  0
  150.3320  140.9472  156.7445 C   0  0  1  0  0  0  0  0  0  0  0  0
  150.7721  141.5509  158.1184 C   0  0  1  0  0  0  0  0  0  0  0  0
  152.1297  141.0308  158.6329 C   0  0  0  0  0  0  0  0  0  0  0  0
  152.7832  142.1886  159.4039 C   0  0  0  0  0  0  0  0  0  0  0  0
  151.7345  143.3004  159.4667 C   0  0  0  0  0  0  0  0  0  0  0  0
  150.8842  143.0837  158.2161 C   0  0  2  0  0  0  0  0  0  0  0  0
  149.6295  143.7174  158.3484 O   0  0  0  0  0  0  0  0  0  0  0  0
  151.0470  138.5979  157.9458 N   0  0  0  0  0  0  0  0  0  0  0  0
  151.4347  137.6379  158.7904 C   0  0  0  0  0  0  0  0  0  0  0  0
  150.6805  136.8201  159.5283 N   0  0  0  0  0  0  0  0  0  0  0  0
  149.3523  137.0723  159.3477 C   0  0  0  0  0  0  0  0  0  0  0  0
  146.0681  135.8930  162.1008 C   0  0  2  0  0  0  0  0  0  0  0  0
  144.7809  136.4267  161.4685 C   0  0  0  0  0  0  0  0  0  0  0  0
  144.8958  137.9445  161.6119 C   0  0  0  0  0  0  0  0  0  0  0  0
  145.8047  138.1214  162.6862 O   0  0  0  0  0  0  0  0  0  0  0  0
  146.8321  137.1614  162.5052 C   0  0  0  0  0  0  0  0  0  0  0  0
  145.5152  132.4895  162.8898 H   0  0  0  0  0  0  0  0  0  0  0  0
  147.3507  133.5152  162.9117 H   0  0  0  0  0  0  0  0  0  0  0  0
  147.4558  132.7487  161.3414 H   0  0  0  0  0  0  0  0  0  0  0  0
  146.3061  134.7410  160.3193 H   0  0  0  0  0  0  0  0  0  0  0  0
  148.8432  135.6557  161.7472 H   0  0  0  0  0  0  0  0  0  0  0  0
  148.8576  134.5133  160.4307 H   0  0  0  0  0  0  0  0  0  0  0  0
  146.1531  136.7868  159.7027 H   0  0  0  0  0  0  0  0  0  0  0  0
  149.8653  138.7215  155.1333 H   0  0  0  0  0  0  0  0  0  0  0  0
  148.2680  138.4023  155.7805 H   0  0  0  0  0  0  0  0  0  0  0  0
  148.1604  139.7537  153.6802 H   0  0  0  0  0  0  0  0  0  0  0  0
  147.4543  140.5992  155.0391 H   0  0  0  0  0  0  0  0  0  0  0  0
  150.2690  141.0386  153.9188 H   0  0  0  0  0  0  0  0  0  0  0  0
  148.9185  142.1437  153.7768 H   0  0  0  0  0  0  0  0  0  0  0  0
  150.4289  142.8289  155.6192 H   0  0  0  0  0  0  0  0  0  0  0  0
  148.8316  142.4408  156.2058 H   0  0  0  0  0  0  0  0  0  0  0  0
  151.2328  140.5648  156.2642 H   0  0  0  0  0  0  0  0  0  0  0  0
  150.0650  141.2421  158.8889 H   0  0  0  0  0  0  0  0  0  0  0  0
  151.9824  140.1630  159.2771 H   0  0  0  0  0  0  0  0  0  0  0  0
  152.7885  140.7101  157.8274 H   0  0  0  0  0  0  0  0  0  0  0  0
  153.1179  141.8882  160.3973 H   0  0  0  0  0  0  0  0  0  0  0  0
  153.6586  142.5413  158.8572 H   0  0  0  0  0  0  0  0  0  0  0  0
  151.1247  143.1704  160.3623 H   0  0  0  0  0  0  0  0  0  0  0  0
  152.1780  144.2957  159.5086 H   0  0  0  0  0  0  0  0  0  0  0  0
  151.4120  143.5034  157.3613 H   0  0  0  0  0  0  0  0  0  0  0  0
  149.2776  143.8705  157.4842 H   0  0  0  0  0  0  0  0  0  0  0  0
  152.5020  137.5032  158.8851 H   0  0  0  0  0  0  0  0  0  0  0  0
  145.7577  135.4077  163.0273 H   0  0  0  0  0  0  0  0  0  0  0  0
  144.6368  136.1318  160.4298 H   0  0  0  0  0  0  0  0  0  0  0  0
  143.9180  136.0606  162.0264 H   0  0  0  0  0  0  0  0  0  0  0  0
  145.3173  138.3854  160.7071 H   0  0  0  0  0  0  0  0  0  0  0  0
  143.9372  138.4237  161.8115 H   0  0  0  0  0  0  0  0  0  0  0  0
  147.4163  137.0256  163.4155 H   0  0  0  0  0  0  0  0  0  0  0  0
  147.5025  137.5156  161.7232 H   0  0  0  0  0  0  0  0  0  0  0  0
  1  2  1  0  0  0  0
  1 31  1  0  0  0  0
  2  3  1  0  0  0  0
  2 32  1  0  0  0  0
  2 33  1  0  0  0  0
  3  4  1  0  0  0  0
  3 26  1  0  0  0  0
  3 34  1  0  0  0  0
  4  5  1  0  0  0  0
  4 35  1  0  0  0  0
  4 36  1  0  0  0  0
  5 25  1  0  0  0  0
  5  6  1  0  0  0  0
  6  7  2  0  0  0  0
  6 37  1  0  0  0  0
  7  8  1  0  0  0  0
  8 25  2  0  0  0  0
  8  9  1  0  0  0  0
  9 10  1  0  0  0  0
  9 22  2  0  0  0  0
 10 15  1  0  0  0  0
 10 11  1  0  0  0  0
 11 12  1  0  0  0  0
 11 38  1  0  0  0  0
 11 39  1  0  0  0  0
 12 13  1  0  0  0  0
 12 40  1  0  0  0  0
 12 41  1  0  0  0  0
 13 14  1  0  0  0  0
 13 42  1  0  0  0  0
 13 43  1  0  0  0  0
 14 15  1  0  0  0  0
 14 44  1  0  0  0  0
 14 45  1  0  0  0  0
 15 16  1  0  0  0  0
 15 46  1  0  0  0  0
 16 20  1  0  0  0  0
 16 17  1  0  0  0  0
 16 47  1  0  0  0  0
 17 18  1  0  0  0  0
 17 48  1  0  0  0  0
 17 49  1  0  0  0  0
 18 19  1  0  0  0  0
 18 50  1  0  0  0  0
 18 51  1  0  0  0  0
 19 20  1  0  0  0  0
 19 52  1  0  0  0  0
 19 53  1  0  0  0  0
 20 21  1  0  0  0  0
 20 54  1  0  0  0  0
 21 55  1  0  0  0  0
 22 23  1  0  0  0  0
 23 24  2  0  0  0  0
 23 56  1  0  0  0  0
 24 25  1  0  0  0  0
 26 30  1  0  0  0  0
 26 27  1  0  0  0  0
 26 57  1  0  0  0  0
 27 28  1  0  0  0  0
 27 58  1  0  0  0  0
 27 59  1  0  0  0  0
 28 29  1  0  0  0  0
 28 60  1  0  0  0  0
 28 61  1  0  0  0  0
 29 30  1  0  0  0  0
 30 62  1  0  0  0  0
 30 63  1  0  0  0  0
M  END
> <s_m_source_file>
AV-unprocessed.smi

> <i_m_source_file_index>
148

> <i_lp_mmshare_version>
43012

> <i_f3d_flags>
0

> <s_epik_input>
W0NIMl0xT1tDSDJdW0NIMl1bQ0BIXTFbQ0BIXShbQ0gyXVtPSF0pW0NIMl1uKFtjSF1uMiljKGMyMyluW2NIXW5jM040W0NIMl1bQ0gyXVtDSDJdW0NIMl1bQ0BIXTRbQ0BASF01W0NIMl1bQ0gyXVtDSDJdW0NASF01W09IXQ==

> <s_epik_cmdline>
J2VwaWtfcHl0aG9uJywgJy1waCcsICc3LjAnLCAnLXRuJywgJzgnLCAnLW1hJywgJzIwMCcsICctbWV0YWxfYmluZGluZycsICctaW1hZScsICc8aW5maWxlLm1hZT4nLCAnLW9tYWUnLCAnPG91dGZpbGUubWFlPic=

> <r_lp_tautomer_probability>
1

> <r_epik_Ionization_Penalty>
0.00556303

> <r_epik_Ionization_Penalty_Charging>
0

> <r_epik_Ionization_Penalty_Neutral>
0.00556303

> <r_epik_State_Penalty>
0.00401767

> <r_epik_Charging_Adjusted_Penalty>
0.00401767

> <i_epik_Tot_Q>
0

> <i_epik_Tot_abs_Q>
0

> <r_epik_Metal_State_Penalty>
-0

> <b_epik_Metal_Only>
0

> <s_lp_Force_Field>
OPLS_2005

> <r_lp_Energy>
68.8384

> <b_lp_Chiralities_Consistent>
1

> <s_lp_Variant>
AV-unprocessed.smi:148-13

> <Gold.Version>
5.8.1

> <Gold.Id.Protein>
6NUR|6NUR_protein|mol2

> <Gold.PLP.Fitness>
46.0321

> <Gold.PLP.PLP>
-46.3298

> <Gold.PLP.part.hbond>
-5.6945

> <Gold.PLP.part.metal>
0.0000

> <Gold.PLP.part.buried>
-0.5356

> <Gold.PLP.part.nonpolar>
-39.3651

> <Gold.PLP.part.repulsive>
0.0000

> <Gold.PLP.ligand.clash>
0.0000

> <Gold.PLP.ligand.torsion>
3.3797

> <Gold.PLP.Chemscore.Hbond>
2.0000

> <Gold.PLP.Chemscore.CHOScore>
0.0000

> <Gold.PLP.Chemscore.Metal>
0.0000

> <Gold.Chemscore.Hbonds>
donor molecule, donor type, donor heavy atom, donor atom, acceptor molecule, acceptor atom, score
      L1  H    21    55       P1  8028  0.95
      P1  H  6896  6909       L1    24  1.00

> <Gold.PLP.Chemscore.Internal.Correction>
0.4617

> <Gold.Rescore>
     Score         DG    S(hbond)    S(metal)    S(lipo)     H(rot)  DE(clash)    DE(int)     intcor
      9.44     -16.76       1.77        0.00     118.66       3.32       0.74       6.59       ----

> <Gold.Chemscore.Fitness>
9.4383

> <Gold.Chemscore.DG>
-16.7609

> <Gold.Chemscore.ZeroCoef>
-5.4800

> <Gold.Chemscore.Hbond>
1.7656

> <Gold.Chemscore.Metal>
0.0000

> <Gold.Chemscore.Lipo>
118.6647

> <Gold.Chemscore.Internal_Hbond>
0.0000

> <Gold.Chemscore.DEClash>
0.7371

> <Gold.Chemscore.DEInternal>
6.5855

> <Gold.Chemscore.Rot>
3.3203

> <Gold.Chemscore.Internal.Correction>
   9.000000E+99

> <Gold.Chemscore.Hbonds>
donor molecule, donor type, donor heavy atom, donor atom, acceptor molecule, acceptor atom, score
      L1  H    21    55       P1  8028  0.20
      P1  H  6896  6909       L1    24  0.77

> <Gold.Chemscore.Hbond.Weighted>
-5.8972

> <Gold.Chemscore.Metal.Weighted>
-0.0000

> <Gold.Chemscore.Lipo.Weighted>
-13.8838

> <Gold.Chemscore.Internal_Hbond.Weighted>
0.0000

> <Gold.Chemscore.DEClash.Weighted>
0.7371

> <Gold.Chemscore.DEInternal.Weighted>
6.5855

> <Gold.Chemscore.Rot.Weighted>
8.5000

> <Gold.Chemscore.Internal.Correction.Weighted>
   9.000000E+99

> <Gold.Protein.RotatedTorsions>
[ 6907 6896 6895 6894 ] final   80.29 input  -60.11 | X-H torsion
[ 7974 7965 7964 7962 ] final  -72.08 input  175.53 | X-H torsion
[ 8008 7997 7996 7995 ] final  -56.27 input   59.86 | X-H torsion
[ 10167 10162 10161 10158 ] final  152.41 input  -65.29 | X-H torsion
[ 10718 10713 10712 10709 ] final -164.18 input   66.30 | X-H torsion
[ 10763 10752 10751 10750 ] final  161.04 input  -60.55 | X-H torsion
[ 11005 11000 10999 10996 ] final   -2.91 input  -57.11 | X-H torsion

> <Gold.Protein.ActiveResidues>
 VAL166  LYS551  ARG553  GLY616  TRP617  ASP618  TYR619  PRO620  LYS621  CYS622 
 ASP623  PHE694  ASN695  SER759  ASP760  ASP761  ALA762  ILE779  LEU786  VAL792 
 PHE793  MET794  SER795  GLU796  ALA797  LYS798  CYS799  TRP800  GLU811  SER814 

> <Gold.Protein.RotatedAtoms>
  152.5229  134.3380  159.9206 H   0  0  0  0  0  0  0  0  0  0  0  0  # atno 6907 bound_to 6896
  151.3329  133.3987  159.2672 H   0  0  0  0  0  0  0  0  0  0  0  0  # atno 6908 bound_to 6896
  150.9865  134.9227  159.7933 H   0  0  0  0  0  0  0  0  0  0  0  0  # atno 6909 bound_to 6896
  145.6697  140.9225  143.0889 H   0  0  0  0  0  0  0  0  0  0  0  0  # atno 7974 bound_to 7965
  154.4224  140.1133  156.5611 H   0  0  0  0  0  0  0  0  0  0  0  0  # atno 8008 bound_to 7997
  155.6310  140.3495  155.4664 H   0  0  0  0  0  0  0  0  0  0  0  0  # atno 8009 bound_to 7997
  155.9948  140.1187  157.0594 H   0  0  0  0  0  0  0  0  0  0  0  0  # atno 8010 bound_to 7997
  139.4833  144.5360  151.7645 H   0  0  0  0  0  0  0  0  0  0  0  0  # atno 10167 bound_to 10162
  156.6353  130.8946  151.2985 H   0  0  0  0  0  0  0  0  0  0  0  0  # atno 10718 bound_to 10713
  154.2568  135.2770  155.2794 H   0  0  0  0  0  0  0  0  0  0  0  0  # atno 10763 bound_to 10752
  154.5418  135.5700  153.6849 H   0  0  0  0  0  0  0  0  0  0  0  0  # atno 10764 bound_to 10752
  152.9970  135.6253  154.2717 H   0  0  0  0  0  0  0  0  0  0  0  0  # atno 10765 bound_to 10752
  140.6636  133.9298  155.8451 H   0  0  0  0  0  0  0  0  0  0  0  0  # atno 11005 bound_to 11000
  144.7061  139.8556  143.7429 LP  0  0  0  0  0  0  0  0  0  0  0  0  # atno 17320 bound_to 7965
  146.1056  139.4055  143.0320 LP  0  0  0  0  0  0  0  0  0  0  0  0  # atno 17321 bound_to 7965
  140.4892  144.1335  150.5947 LP  0  0  0  0  0  0  0  0  0  0  0  0  # atno 17342 bound_to 10162
  140.4190  143.2620  151.9739 LP  0  0  0  0  0  0  0  0  0  0  0  0  # atno 17343 bound_to 10162
  157.7187  130.9531  150.1355 LP  0  0  0  0  0  0  0  0  0  0  0  0  # atno 17370 bound_to 10713
  156.2202  130.3673  149.8565 LP  0  0  0  0  0  0  0  0  0  0  0  0  # atno 17371 bound_to 10713
  141.0446  134.0572  157.3859 LP  0  0  0  0  0  0  0  0  0  0  0  0  # atno 17394 bound_to 11000
  139.9005  135.0162  156.7243 LP  0  0  0  0  0  0  0  0  0  0  0  0  # atno 17395 bound_to 11000

$$$$
