AV-unprocessed.smi:239|AV-procd|sdf|1823|dock6
  -GOLD-   2262020423D 1   1.00000     0.00000
 Structure written by MMmdl.
 54 58  0  0  0  0  0  0  0  0  1 V2000
  148.8110  140.6840  154.1706 C   0  0  0  0  0  0  0  0  0  0  0  0
  149.7659  139.7941  154.9724 C   0  0  1  0  0  0  0  0  0  0  0  0
  149.5501  138.3006  154.6702 C   0  0  0  0  0  0  0  0  0  0  0  0
  150.5549  137.5036  155.3654 N   0  0  0  0  0  0  0  0  0  0  0  0
  150.3572  136.1665  155.4729 C   0  0  0  0  0  0  0  0  0  0  0  0
  151.3399  135.3703  155.9727 N   0  0  0  0  0  0  0  0  0  0  0  0
  151.1474  134.0529  156.0874 C   0  0  0  0  0  0  0  0  0  0  0  0
  150.0699  133.3356  155.7633 N   0  0  0  0  0  0  0  0  0  0  0  0
  149.0847  134.1274  155.2508 C   0  0  0  0  0  0  0  0  0  0  0  0
  149.1437  135.5385  155.0747 C   0  0  0  0  0  0  0  0  0  0  0  0
  147.9557  135.9956  154.5161 N   0  0  0  0  0  0  0  0  0  0  0  0
  147.2350  134.9169  154.3736 C   0  0  0  0  0  0  0  0  0  0  0  0
  147.8388  133.7493  154.7819 N   0  0  0  0  0  0  0  0  0  0  0  0
  147.2712  132.4108  154.7256 C   0  0  0  0  0  0  0  0  0  0  0  0
  146.9563  131.9244  153.2891 C   0  0  0  0  0  0  0  0  0  0  0  0
  148.1320  132.0843  152.5134 O   0  0  0  0  0  0  0  0  0  0  0  0
  146.5368  130.4384  153.2437 C   0  0  0  0  0  0  0  0  0  0  0  0
  146.0278  130.0205  151.8529 C   0  0  0  0  0  0  0  0  0  0  0  0
  144.9678  130.8754  151.4421 O   0  0  0  0  0  0  0  0  0  0  0  0
  145.3767  132.2306  151.3024 C   0  0  0  0  0  0  0  0  0  0  0  0
  145.8400  132.7836  152.6620 C   0  0  0  0  0  0  0  0  0  0  0  0
  151.9220  137.9024  155.0508 C   0  0  0  0  0  0  0  0  0  0  0  0
  152.1182  139.4083  155.3041 C   0  0  2  0  0  0  0  0  0  0  0  0
  152.2044  139.7522  156.7845 C   0  0  0  0  0  0  0  0  0  0  0  0
  151.0276  139.5144  157.6999 C   0  0  0  0  0  0  0  0  0  0  0  0
  151.4407  140.9252  157.3527 C   0  0  0  0  0  0  0  0  0  0  0  0
  151.1038  140.1605  154.6340 O   0  0  0  0  0  0  0  0  0  0  0  0
  147.7712  140.4523  154.4024 H   0  0  0  0  0  0  0  0  0  0  0  0
  148.9536  140.5490  153.0981 H   0  0  0  0  0  0  0  0  0  0  0  0
  148.9759  141.7371  154.3994 H   0  0  0  0  0  0  0  0  0  0  0  0
  149.5930  139.9804  156.0327 H   0  0  0  0  0  0  0  0  0  0  0  0
  148.5492  138.0028  154.9862 H   0  0  0  0  0  0  0  0  0  0  0  0
  149.6220  138.1176  153.5970 H   0  0  0  0  0  0  0  0  0  0  0  0
  151.9756  133.4933  156.4965 H   0  0  0  0  0  0  0  0  0  0  0  0
  146.2394  134.9412  153.9548 H   0  0  0  0  0  0  0  0  0  0  0  0
  147.9708  131.7264  155.2073 H   0  0  0  0  0  0  0  0  0  0  0  0
  146.3672  132.3983  155.3361 H   0  0  0  0  0  0  0  0  0  0  0  0
  148.1241  131.4423  151.8199 H   0  0  0  0  0  0  0  0  0  0  0  0
  147.3620  129.7898  153.5401 H   0  0  0  0  0  0  0  0  0  0  0  0
  145.7385  130.2692  153.9677 H   0  0  0  0  0  0  0  0  0  0  0  0
  146.8332  130.0407  151.1171 H   0  0  0  0  0  0  0  0  0  0  0  0
  145.6585  128.9954  151.8862 H   0  0  0  0  0  0  0  0  0  0  0  0
  146.1670  132.3089  150.5543 H   0  0  0  0  0  0  0  0  0  0  0  0
  144.5336  132.8140  150.9318 H   0  0  0  0  0  0  0  0  0  0  0  0
  144.9813  132.8056  153.3345 H   0  0  0  0  0  0  0  0  0  0  0  0
  146.1680  133.8183  152.5533 H   0  0  0  0  0  0  0  0  0  0  0  0
  152.6539  137.3336  155.6237 H   0  0  0  0  0  0  0  0  0  0  0  0
  152.1092  137.6812  153.9993 H   0  0  0  0  0  0  0  0  0  0  0  0
  153.0648  139.7024  154.8491 H   0  0  0  0  0  0  0  0  0  0  0  0
  153.1842  139.5797  157.2257 H   0  0  0  0  0  0  0  0  0  0  0  0
  150.1096  139.1349  157.2555 H   0  0  0  0  0  0  0  0  0  0  0  0
  151.2392  139.1608  158.7069 H   0  0  0  0  0  0  0  0  0  0  0  0
  151.9289  141.5123  158.1279 H   0  0  0  0  0  0  0  0  0  0  0  0
  150.7948  141.4863  156.6803 H   0  0  0  0  0  0  0  0  0  0  0  0
  1  2  1  0  0  0  0
  1 28  1  0  0  0  0
  1 29  1  0  0  0  0
  1 30  1  0  0  0  0
  2 27  1  0  0  0  0
  2  3  1  0  0  0  0
  2 31  1  0  0  0  0
  3  4  1  0  0  0  0
  3 32  1  0  0  0  0
  3 33  1  0  0  0  0
  4  5  1  0  0  0  0
  4 22  1  0  0  0  0
  5 10  1  0  0  0  0
  5  6  2  0  0  0  0
  6  7  1  0  0  0  0
  7  8  2  0  0  0  0
  7 34  1  0  0  0  0
  8  9  1  0  0  0  0
  9 13  1  0  0  0  0
  9 10  2  0  0  0  0
 10 11  1  0  0  0  0
 11 12  2  0  0  0  0
 12 13  1  0  0  0  0
 12 35  1  0  0  0  0
 13 14  1  0  0  0  0
 14 15  1  0  0  0  0
 14 36  1  0  0  0  0
 14 37  1  0  0  0  0
 15 21  1  0  0  0  0
 15 16  1  0  0  0  0
 15 17  1  0  0  0  0
 16 38  1  0  0  0  0
 17 18  1  0  0  0  0
 17 39  1  0  0  0  0
 17 40  1  0  0  0  0
 18 19  1  0  0  0  0
 18 41  1  0  0  0  0
 18 42  1  0  0  0  0
 19 20  1  0  0  0  0
 20 21  1  0  0  0  0
 20 43  1  0  0  0  0
 20 44  1  0  0  0  0
 21 45  1  0  0  0  0
 21 46  1  0  0  0  0
 22 23  1  0  0  0  0
 22 47  1  0  0  0  0
 22 48  1  0  0  0  0
 23 24  1  0  0  0  0
 23 27  1  0  0  0  0
 23 49  1  0  0  0  0
 24 26  1  0  0  0  0
 24 25  1  0  0  0  0
 24 50  1  0  0  0  0
 25 26  1  0  0  0  0
 25 51  1  0  0  0  0
 25 52  1  0  0  0  0
 26 53  1  0  0  0  0
 26 54  1  0  0  0  0
M  END
> <s_m_source_file>
AV-unprocessed.smi

> <i_m_source_file_index>
239

> <i_lp_mmshare_version>
43012

> <i_f3d_flags>
0

> <s_epik_input>
W0NIMl0xW0NIMl1bQ0hdMVtDQEBIXShPMilbQ0gyXU4oW0NIMl1bQ0BIXTJbQ0gzXSljKG5bY0hdbjMpYyhjMzQpbltjSF1uNFtDSDJdQzUoW09IXSlbQ0gyXVtDSDJdT1tDSDJdW0NIMl01

> <s_epik_cmdline>
J2VwaWtfcHl0aG9uJywgJy1waCcsICc3LjAnLCAnLXRuJywgJzgnLCAnLW1hJywgJzIwMCcsICctbWV0YWxfYmluZGluZycsICctaW1hZScsICc8aW5maWxlLm1hZT4nLCAnLW9tYWUnLCAnPG91dGZpbGUubWFlPic=

> <r_lp_tautomer_probability>
1

> <r_epik_Ionization_Penalty>
9.13091e-05

> <r_epik_Ionization_Penalty_Charging>
0

> <r_epik_Ionization_Penalty_Neutral>
9.13091e-05

> <r_epik_State_Penalty>
-0

> <r_epik_Charging_Adjusted_Penalty>
0

> <i_epik_Tot_Q>
0

> <i_epik_Tot_abs_Q>
0

> <r_epik_Metal_State_Penalty>
-0

> <b_epik_Metal_Only>
0

> <s_lp_Force_Field>
OPLS_2005

> <r_lp_Energy>
39.3472

> <b_lp_Chiralities_Consistent>
1

> <s_lp_Variant>
AV-unprocessed.smi:239-4

> <Gold.Version>
5.8.1

> <Gold.Id.Protein>
6NUR|6NUR_protein|mol2

> <Gold.PLP.Fitness>
44.8348

> <Gold.PLP.PLP>
-36.7077

> <Gold.PLP.part.hbond>
-2.9534

> <Gold.PLP.part.metal>
0.0000

> <Gold.PLP.part.buried>
-6.1104

> <Gold.PLP.part.nonpolar>
-29.2899

> <Gold.PLP.part.repulsive>
2.1603

> <Gold.PLP.ligand.clash>
0.0000

> <Gold.PLP.ligand.torsion>
1.1343

> <Gold.PLP.Chemscore.Hbond>
2.9920

> <Gold.PLP.Chemscore.CHOScore>
0.0000

> <Gold.PLP.Chemscore.Metal>
0.0000

> <Gold.Chemscore.Hbonds>
donor molecule, donor type, donor heavy atom, donor atom, acceptor molecule, acceptor atom, score
      L1  H    16    38       P1 10747  0.90
      P1  H  7989  7998       L1    27  0.76
      P1  H 10752 10764       L1     6  0.99

> <Gold.PLP.Chemscore.Internal.Correction>
1.4197

> <Gold.Rescore>
     Score         DG    S(hbond)    S(metal)    S(lipo)     H(rot)  DE(clash)    DE(int)     intcor
     13.79     -17.62       2.37        0.00      85.01       2.24       0.12       3.71       ----

> <Gold.Chemscore.Fitness>
13.7934

> <Gold.Chemscore.DG>
-17.6245

> <Gold.Chemscore.ZeroCoef>
-5.4800

> <Gold.Chemscore.Hbond>
2.3741

> <Gold.Chemscore.Metal>
0.0000

> <Gold.Chemscore.Lipo>
85.0085

> <Gold.Chemscore.Internal_Hbond>
0.0000

> <Gold.Chemscore.DEClash>
0.1214

> <Gold.Chemscore.DEInternal>
3.7097

> <Gold.Chemscore.Rot>
2.2387

> <Gold.Chemscore.Internal.Correction>
   9.000000E+99

> <Gold.Chemscore.Hbonds>
donor molecule, donor type, donor heavy atom, donor atom, acceptor molecule, acceptor atom, score
      L1  H    16    38       P1 10747  0.88
      P1  H  7989  7998       L1    27  0.60
      P1  H 10752 10764       L1     6  0.26

> <Gold.Chemscore.Hbond.Weighted>
-7.9296

> <Gold.Chemscore.Metal.Weighted>
-0.0000

> <Gold.Chemscore.Lipo.Weighted>
-9.9460

> <Gold.Chemscore.Internal_Hbond.Weighted>
0.0000

> <Gold.Chemscore.DEClash.Weighted>
0.1214

> <Gold.Chemscore.DEInternal.Weighted>
3.7097

> <Gold.Chemscore.Rot.Weighted>
5.7311

> <Gold.Chemscore.Internal.Correction.Weighted>
   9.000000E+99

> <Gold.Protein.RotatedTorsions>
[ 6907 6896 6895 6894 ] final  129.82 input  -60.11 | X-H torsion
[ 7974 7965 7964 7962 ] final   59.25 input  175.53 | X-H torsion
[ 8008 7997 7996 7995 ] final -153.51 input   59.86 | X-H torsion
[ 10167 10162 10161 10158 ] final -125.04 input  -65.29 | X-H torsion
[ 10718 10713 10712 10709 ] final  169.31 input   66.30 | X-H torsion
[ 10763 10752 10751 10750 ] final  -24.85 input  -60.55 | X-H torsion
[ 11005 11000 10999 10996 ] final   21.81 input  -57.11 | X-H torsion

> <Gold.Protein.ActiveResidues>
 VAL166  LYS551  ARG553  GLY616  TRP617  ASP618  TYR619  PRO620  LYS621  CYS622 
 ASP623  PHE694  ASN695  SER759  ASP760  ASP761  ALA762  ILE779  LEU786  VAL792 
 PHE793  MET794  SER795  GLU796  ALA797  LYS798  CYS799  TRP800  GLU811  SER814 

> <Gold.Protein.RotatedAtoms>
  152.3587  133.6269  159.5998 H   0  0  0  0  0  0  0  0  0  0  0  0  # atno 6907 bound_to 6896
  150.7586  133.9459  159.3479 H   0  0  0  0  0  0  0  0  0  0  0  0  # atno 6908 bound_to 6896
  151.7300  135.0877  160.0349 H   0  0  0  0  0  0  0  0  0  0  0  0  # atno 6909 bound_to 6896
  145.9093  139.3641  143.0545 H   0  0  0  0  0  0  0  0  0  0  0  0  # atno 7974 bound_to 7965
  155.6720  140.0734  157.2516 H   0  0  0  0  0  0  0  0  0  0  0  0  # atno 8008 bound_to 7997
  154.4121  140.1697  156.1940 H   0  0  0  0  0  0  0  0  0  0  0  0  # atno 8009 bound_to 7997
  155.9609  140.3370  155.6492 H   0  0  0  0  0  0  0  0  0  0  0  0  # atno 8010 bound_to 7997
  139.9864  143.5688  152.2359 H   0  0  0  0  0  0  0  0  0  0  0  0  # atno 10167 bound_to 10162
  157.0244  131.0241  151.2764 H   0  0  0  0  0  0  0  0  0  0  0  0  # atno 10718 bound_to 10713
  153.6904  135.6962  153.5091 H   0  0  0  0  0  0  0  0  0  0  0  0  # atno 10763 bound_to 10752
  153.2417  135.4304  155.0704 H   0  0  0  0  0  0  0  0  0  0  0  0  # atno 10764 bound_to 10752
  154.8374  135.3509  154.6446 H   0  0  0  0  0  0  0  0  0  0  0  0  # atno 10765 bound_to 10752
  140.3875  134.1855  155.7663 H   0  0  0  0  0  0  0  0  0  0  0  0  # atno 11005 bound_to 11000
  145.8692  140.9430  143.0659 LP  0  0  0  0  0  0  0  0  0  0  0  0  # atno 17320 bound_to 7965
  144.6742  140.0632  143.7475 LP  0  0  0  0  0  0  0  0  0  0  0  0  # atno 17321 bound_to 7965
  139.6372  144.7651  151.2413 LP  0  0  0  0  0  0  0  0  0  0  0  0  # atno 17342 bound_to 10162
  140.7471  143.6378  150.8363 LP  0  0  0  0  0  0  0  0  0  0  0  0  # atno 17343 bound_to 10162
  157.5225  130.8007  149.7825 LP  0  0  0  0  0  0  0  0  0  0  0  0  # atno 17370 bound_to 10713
  156.0091  130.3841  150.2327 LP  0  0  0  0  0  0  0  0  0  0  0  0  # atno 17371 bound_to 10713
  141.1902  133.8221  157.0926 LP  0  0  0  0  0  0  0  0  0  0  0  0  # atno 17394 bound_to 11000
  140.0432  134.9844  157.1000 LP  0  0  0  0  0  0  0  0  0  0  0  0  # atno 17395 bound_to 11000

$$$$
