AV-unprocessed.smi:2165|AV-procd|sdf|8812|dock10
  -GOLD-   2272012 03D 1   1.00000     0.00000
 Structure written by MMmdl.
 36 37  0  0  0  0  0  0  0  0  1 V2000
  144.2840  139.9116  155.8518 C   0  0  0  0  0  0  0  0  0  0  0  0
  145.5057  139.7327  155.0953 N   0  0  0  0  0  0  0  0  0  0  0  0
  145.7084  138.5253  154.3836 C   0  0  0  0  0  0  0  0  0  0  0  0
  144.8852  137.6094  154.3794 O   0  0  0  0  0  0  0  0  0  0  0  0
  146.9739  138.4566  153.6621 C   0  0  0  0  0  0  0  0  0  0  0  0
  147.8525  139.4823  153.7006 C   0  0  0  0  0  0  0  0  0  0  0  0
  147.6312  140.6496  154.4087 N   0  0  0  0  0  0  0  0  0  0  0  0
  148.6375  141.7188  154.3885 C   0  0  0  0  0  0  0  0  0  0  0  0
  149.8615  141.3916  155.2534 C   0  0  0  0  0  0  0  0  0  0  0  0
  150.5658  140.4147  154.9953 O   0  0  0  0  0  0  0  0  0  0  0  0
  150.0934  142.2144  156.2870 N   0  0  0  0  0  0  0  0  0  0  0  0
  151.2227  142.1120  157.2034 C   0  0  0  0  0  0  0  0  0  0  0  0
  151.2341  143.2729  158.2122 C   0  0  2  0  0  0  0  0  0  0  0  0
  151.7538  144.5900  157.6399 C   0  0  0  0  0  0  0  0  0  0  0  0
  152.2815  145.3267  158.8626 C   0  0  0  0  0  0  0  0  0  0  0  0
  152.3480  144.2502  159.9500 C   0  0  0  0  0  0  0  0  0  0  0  0
  152.1510  143.0218  159.2651 O   0  0  0  0  0  0  0  0  0  0  0  0
  146.4306  140.7986  155.1361 C   0  0  0  0  0  0  0  0  0  0  0  0
  146.2082  141.8264  155.7817 O   0  0  0  0  0  0  0  0  0  0  0  0
  143.5948  139.0826  155.6955 H   0  0  0  0  0  0  0  0  0  0  0  0
  143.8192  140.8374  155.5077 H   0  0  0  0  0  0  0  0  0  0  0  0
  144.5659  139.9750  156.9042 H   0  0  0  0  0  0  0  0  0  0  0  0
  147.2101  137.5723  153.0887 H   0  0  0  0  0  0  0  0  0  0  0  0
  148.7744  139.3828  153.1462 H   0  0  0  0  0  0  0  0  0  0  0  0
  148.9451  141.9183  153.3601 H   0  0  0  0  0  0  0  0  0  0  0  0
  148.2034  142.6507  154.7528 H   0  0  0  0  0  0  0  0  0  0  0  0
  149.4627  142.9905  156.4271 H   0  0  0  0  0  0  0  0  0  0  0  0
  151.1543  141.1582  157.7274 H   0  0  0  0  0  0  0  0  0  0  0  0
  152.1562  142.0914  156.6389 H   0  0  0  0  0  0  0  0  0  0  0  0
  150.2400  143.4276  158.6365 H   0  0  0  0  0  0  0  0  0  0  0  0
  152.5742  144.4035  156.9454 H   0  0  0  0  0  0  0  0  0  0  0  0
  150.9834  145.1477  157.1069 H   0  0  0  0  0  0  0  0  0  0  0  0
  153.2633  145.7571  158.6619 H   0  0  0  0  0  0  0  0  0  0  0  0
  151.6148  146.1360  159.1626 H   0  0  0  0  0  0  0  0  0  0  0  0
  153.2953  144.2541  160.4890 H   0  0  0  0  0  0  0  0  0  0  0  0
  151.5439  144.3877  160.6745 H   0  0  0  0  0  0  0  0  0  0  0  0
  1  2  1  0  0  0  0
  1 20  1  0  0  0  0
  1 21  1  0  0  0  0
  1 22  1  0  0  0  0
  2 18  1  0  0  0  0
  2  3  1  0  0  0  0
  3  4  2  0  0  0  0
  3  5  1  0  0  0  0
  5  6  2  0  0  0  0
  5 23  1  0  0  0  0
  6  7  1  0  0  0  0
  6 24  1  0  0  0  0
  7  8  1  0  0  0  0
  7 18  1  0  0  0  0
  8  9  1  0  0  0  0
  8 25  1  0  0  0  0
  8 26  1  0  0  0  0
  9 10  2  0  0  0  0
  9 11  1  0  0  0  0
 11 12  1  0  0  0  0
 11 27  1  0  0  0  0
 12 13  1  0  0  0  0
 12 28  1  0  0  0  0
 12 29  1  0  0  0  0
 13 17  1  0  0  0  0
 13 14  1  0  0  0  0
 13 30  1  0  0  0  0
 14 15  1  0  0  0  0
 14 31  1  0  0  0  0
 14 32  1  0  0  0  0
 15 16  1  0  0  0  0
 15 33  1  0  0  0  0
 15 34  1  0  0  0  0
 16 17  1  0  0  0  0
 16 35  1  0  0  0  0
 16 36  1  0  0  0  0
 18 19  2  0  0  0  0
M  END
> <s_m_source_file>
AV-unprocessed.smi

> <i_m_source_file_index>
2165

> <i_lp_mmshare_version>
43012

> <i_f3d_flags>
0

> <s_epik_input>
W0NIM11uMWMoPU8pW2NIXVtjSF1uKGMxPU8pW0NIMl1DKD1PKVtOSF1bQ0gyXVtDQEBIXTJbQ0gyXVtDSDJdW0NIMl1PMg==

> <s_epik_cmdline>
J2VwaWtfcHl0aG9uJywgJy1waCcsICc3LjAnLCAnLXRuJywgJzgnLCAnLW1hJywgJzIwMCcsICctbWV0YWxfYmluZGluZycsICctaW1hZScsICc8aW5maWxlLm1hZT4nLCAnLW9tYWUnLCAnPG91dGZpbGUubWFlPic=

> <r_lp_tautomer_probability>
1

> <r_epik_Ionization_Penalty>
3.89869e-08

> <r_epik_Ionization_Penalty_Charging>
1.21279e-08

> <r_epik_Ionization_Penalty_Neutral>
2.6859e-08

> <r_epik_State_Penalty>
-0

> <r_epik_Charging_Adjusted_Penalty>
1.21279e-08

> <i_epik_Tot_Q>
0

> <i_epik_Tot_abs_Q>
0

> <r_epik_Metal_State_Penalty>
-0

> <b_epik_Metal_Only>
0

> <s_lp_Force_Field>
OPLS_2005

> <r_lp_Energy>
24.9398

> <b_lp_Chiralities_Consistent>
1

> <s_lp_Variant>
AV-unprocessed.smi:2165-1

> <Gold.Version>
5.8.1

> <Gold.Id.Protein>
6NUR|6NUR_protein|mol2

> <Gold.PLP.Fitness>
40.7146

> <Gold.PLP.PLP>
-32.7668

> <Gold.PLP.part.hbond>
-2.0000

> <Gold.PLP.part.metal>
0.0000

> <Gold.PLP.part.buried>
-2.9248

> <Gold.PLP.part.nonpolar>
-26.6789

> <Gold.PLP.part.repulsive>
0.3399

> <Gold.PLP.ligand.clash>
0.0000

> <Gold.PLP.ligand.torsion>
0.3045

> <Gold.PLP.Chemscore.Hbond>
1.8480

> <Gold.PLP.Chemscore.CHOScore>
1.0000

> <Gold.PLP.Chemscore.Metal>
0.0000

> <Gold.Chemscore.Hbonds>
donor molecule, donor type, donor heavy atom, donor atom, acceptor molecule, acceptor atom, score
      L1  H    11    27       P1  8028  0.86
      P1  H  7989  7998       L1    10  1.00
      L1  C     6    24       P1  7957  1.00

> <Gold.PLP.Chemscore.Internal.Correction>
0.0128

> <Gold.Rescore>
     Score         DG    S(hbond)    S(metal)    S(lipo)     H(rot)  DE(clash)    DE(int)     intcor
     14.75     -15.21       1.60        0.00      78.40       1.87       0.12       0.34       ----

> <Gold.Chemscore.Fitness>
14.7509

> <Gold.Chemscore.DG>
-15.2117

> <Gold.Chemscore.ZeroCoef>
-5.4800

> <Gold.Chemscore.Hbond>
1.5993

> <Gold.Chemscore.Metal>
0.0000

> <Gold.Chemscore.Lipo>
78.3966

> <Gold.Chemscore.Internal_Hbond>
0.0000

> <Gold.Chemscore.DEClash>
0.1249

> <Gold.Chemscore.DEInternal>
0.3359

> <Gold.Chemscore.Rot>
1.8681

> <Gold.Chemscore.Internal.Correction>
   9.000000E+99

> <Gold.Chemscore.Hbonds>
donor molecule, donor type, donor heavy atom, donor atom, acceptor molecule, acceptor atom, score
      L1  H    11    27       P1  8028  0.83
      P1  H  7989  7998       L1    10  0.58

> <Gold.Chemscore.Hbond.Weighted>
-5.3415

> <Gold.Chemscore.Metal.Weighted>
-0.0000

> <Gold.Chemscore.Lipo.Weighted>
-9.1724

> <Gold.Chemscore.Internal_Hbond.Weighted>
0.0000

> <Gold.Chemscore.DEClash.Weighted>
0.1249

> <Gold.Chemscore.DEInternal.Weighted>
0.3359

> <Gold.Chemscore.Rot.Weighted>
4.7822

> <Gold.Chemscore.Internal.Correction.Weighted>
   9.000000E+99

> <Gold.Protein.RotatedTorsions>
[ 6907 6896 6895 6894 ] final   91.84 input  -60.11 | X-H torsion
[ 7974 7965 7964 7962 ] final -145.60 input  175.53 | X-H torsion
[ 8008 7997 7996 7995 ] final  -45.21 input   59.86 | X-H torsion
[ 10167 10162 10161 10158 ] final    9.48 input  -65.29 | X-H torsion
[ 10718 10713 10712 10709 ] final  160.07 input   66.30 | X-H torsion
[ 10763 10752 10751 10750 ] final  -35.84 input  -60.55 | X-H torsion
[ 11005 11000 10999 10996 ] final   41.60 input  -57.11 | X-H torsion

> <Gold.Protein.ActiveResidues>
 VAL166  LYS551  ARG553  GLY616  TRP617  ASP618  TYR619  PRO620  LYS621  CYS622 
 ASP623  PHE694  ASN695  SER759  ASP760  ASP761  ALA762  ILE779  LEU786  VAL792 
 PHE793  MET794  SER795  GLU796  ALA797  LYS798  CYS799  TRP800  GLU811  SER814 

> <Gold.Protein.RotatedAtoms>
  152.5451  134.1594  159.8551 H   0  0  0  0  0  0  0  0  0  0  0  0  # atno 6907 bound_to 6896
  151.1614  133.4836  159.2601 H   0  0  0  0  0  0  0  0  0  0  0  0  # atno 6908 bound_to 6896
  151.1369  135.0170  159.8663 H   0  0  0  0  0  0  0  0  0  0  0  0  # atno 6909 bound_to 6896
  144.8216  140.5563  143.5574 H   0  0  0  0  0  0  0  0  0  0  0  0  # atno 7974 bound_to 7965
  154.4000  140.1402  156.3810 H   0  0  0  0  0  0  0  0  0  0  0  0  # atno 8008 bound_to 7997
  155.8003  140.3476  155.5378 H   0  0  0  0  0  0  0  0  0  0  0  0  # atno 8009 bound_to 7997
  155.8490  140.0938  157.1677 H   0  0  0  0  0  0  0  0  0  0  0  0  # atno 8010 bound_to 7997
  140.6252  143.8116  150.7225 H   0  0  0  0  0  0  0  0  0  0  0  0  # atno 10167 bound_to 10162
  157.1555  131.0574  151.2258 H   0  0  0  0  0  0  0  0  0  0  0  0  # atno 10718 bound_to 10713
  153.8699  135.6832  153.4775 H   0  0  0  0  0  0  0  0  0  0  0  0  # atno 10763 bound_to 10752
  153.1293  135.4705  154.9321 H   0  0  0  0  0  0  0  0  0  0  0  0  # atno 10764 bound_to 10752
  154.7719  135.3241  154.8122 H   0  0  0  0  0  0  0  0  0  0  0  0  # atno 10765 bound_to 10752
  140.1818  134.4094  155.8195 H   0  0  0  0  0  0  0  0  0  0  0  0  # atno 11005 bound_to 11000
  145.5092  139.1480  143.3614 LP  0  0  0  0  0  0  0  0  0  0  0  0  # atno 17320 bound_to 7965
  146.2521  140.5233  142.8889 LP  0  0  0  0  0  0  0  0  0  0  0  0  # atno 17321 bound_to 7965
  140.1715  143.4190  152.1997 LP  0  0  0  0  0  0  0  0  0  0  0  0  # atno 17342 bound_to 10162
  139.5474  144.7310  151.4541 LP  0  0  0  0  0  0  0  0  0  0  0  0  # atno 17343 bound_to 10162
  157.4181  130.7422  149.6891 LP  0  0  0  0  0  0  0  0  0  0  0  0  # atno 17370 bound_to 10713
  155.9763  130.4078  150.3790 LP  0  0  0  0  0  0  0  0  0  0  0  0  # atno 17371 bound_to 10713
  141.2223  133.7004  156.7944 LP  0  0  0  0  0  0  0  0  0  0  0  0  # atno 17394 bound_to 11000
  140.2258  134.8723  157.3425 LP  0  0  0  0  0  0  0  0  0  0  0  0  # atno 17395 bound_to 11000

$$$$
