AV-unprocessed.smi:1240|AV-procd|sdf|5204|dock10
  -GOLD-   22720 4293D 1   1.00000     0.00000
 Structure written by MMmdl.
 48 50  0  0  0  0  0  0  0  0  2 V2000
  145.1844  138.1459  153.3750 O   0  0  0  0  0  0  0  0  0  0  0  0
  146.2901  137.6100  153.4431 C   0  0  0  0  0  0  0  0  0  0  0  0
  146.4977  136.3045  153.2218 N   0  0  0  0  0  0  0  0  0  0  0  0
  145.4690  135.3241  152.8839 C   0  0  0  0  0  0  0  0  0  0  0  0
  146.0529  133.8879  152.8057 C   0  0  1  0  0  0  0  0  0  0  0  0
  146.2941  133.2666  154.2179 C   0  0  2  0  0  0  0  0  0  0  0  0
  147.1080  134.1026  155.2106 C   0  0  0  0  0  0  0  0  0  0  0  0
  148.1619  133.1284  155.7354 C   0  0  0  0  0  0  0  0  0  0  0  0
  147.5739  131.8515  155.5517 O   0  0  0  0  0  0  0  0  0  0  0  0
  146.9356  131.8704  154.2855 C   0  0  0  0  0  0  0  0  0  0  0  0
  145.3902  132.9992  151.8289 N   0  0  0  0  0  0  0  0  0  0  0  0
  146.2970  132.4874  150.8030 C   0  0  0  0  0  0  0  0  0  0  0  0
  145.6096  131.4530  149.8978 C   0  0  0  0  0  0  0  0  0  0  0  0
  144.4596  132.0426  149.3016 O   0  0  0  0  0  0  0  0  0  0  0  0
  143.5205  132.5045  150.2665 C   0  0  0  0  0  0  0  0  0  0  0  0
  144.1833  133.5326  151.2008 C   0  0  0  0  0  0  0  0  0  0  0  0
  147.4356  138.2337  153.7685 N   0  0  0  0  0  0  0  0  0  0  0  0
  147.6407  139.6048  154.0830 C   0  0  0  0  0  0  0  0  0  0  0  0
  148.6620  139.9163  155.0079 C   0  0  0  0  0  0  0  0  0  0  0  0
  148.9137  141.2632  155.3398 C   0  0  0  0  0  0  0  0  0  0  0  0
  148.1853  142.2445  154.7658 N   0  3  0  0  0  0  0  0  0  0  0  0
  147.2090  141.9976  153.8663 C   0  0  0  0  0  0  0  0  0  0  0  0
  146.9119  140.6703  153.4950 C   0  0  0  0  0  0  0  0  0  0  0  0
  147.4411  135.9541  153.3037 H   0  0  0  0  0  0  0  0  0  0  0  0
  144.6435  135.3564  153.5960 H   0  0  0  0  0  0  0  0  0  0  0  0
  145.0547  135.6316  151.9251 H   0  0  0  0  0  0  0  0  0  0  0  0
  147.0647  134.0183  152.4183 H   0  0  0  0  0  0  0  0  0  0  0  0
  145.3101  133.1506  154.6755 H   0  0  0  0  0  0  0  0  0  0  0  0
  147.5710  134.9936  154.7881 H   0  0  0  0  0  0  0  0  0  0  0  0
  146.4642  134.4334  156.0267 H   0  0  0  0  0  0  0  0  0  0  0  0
  149.0767  133.1923  155.1441 H   0  0  0  0  0  0  0  0  0  0  0  0
  148.4172  133.3077  156.7800 H   0  0  0  0  0  0  0  0  0  0  0  0
  146.1991  131.0700  154.2169 H   0  0  0  0  0  0  0  0  0  0  0  0
  147.6743  131.6998  153.5052 H   0  0  0  0  0  0  0  0  0  0  0  0
  146.6612  133.3017  150.1771 H   0  0  0  0  0  0  0  0  0  0  0  0
  147.1710  132.0328  151.2706 H   0  0  0  0  0  0  0  0  0  0  0  0
  146.2900  131.1241  149.1124 H   0  0  0  0  0  0  0  0  0  0  0  0
  145.3237  130.5673  150.4672 H   0  0  0  0  0  0  0  0  0  0  0  0
  142.6710  132.9534  149.7516 H   0  0  0  0  0  0  0  0  0  0  0  0
  143.1363  131.6591  150.8393 H   0  0  0  0  0  0  0  0  0  0  0  0
  143.4518  133.8046  151.9565 H   0  0  0  0  0  0  0  0  0  0  0  0
  144.4188  134.4347  150.6357 H   0  0  0  0  0  0  0  0  0  0  0  0
  148.2484  137.6422  153.8617 H   0  0  0  0  0  0  0  0  0  0  0  0
  149.2469  139.1318  155.4664 H   0  0  0  0  0  0  0  0  0  0  0  0
  149.6714  141.5822  156.0409 H   0  0  0  0  0  0  0  0  0  0  0  0
  146.7010  142.8635  153.4673 H   0  0  0  0  0  0  0  0  0  0  0  0
  146.1409  140.4989  152.7596 H   0  0  0  0  0  0  0  0  0  0  0  0
  148.3842  143.2130  155.0182 H   0  0  0  0  0  0  0  0  0  0  0  0
  1  2  2  0  0  0  0
  2  3  1  0  0  0  0
  2 17  1  0  0  0  0
  3  4  1  0  0  0  0
  3 24  1  0  0  0  0
  4  5  1  0  0  0  0
  4 25  1  0  0  0  0
  4 26  1  0  0  0  0
  5  6  1  0  0  0  0
  5 11  1  0  0  0  0
  5 27  1  0  0  0  0
  6 10  1  0  0  0  0
  6  7  1  0  0  0  0
  6 28  1  0  0  0  0
  7  8  1  0  0  0  0
  7 29  1  0  0  0  0
  7 30  1  0  0  0  0
  8  9  1  0  0  0  0
  8 31  1  0  0  0  0
  8 32  1  0  0  0  0
  9 10  1  0  0  0  0
 10 33  1  0  0  0  0
 10 34  1  0  0  0  0
 11 16  1  0  0  0  0
 11 12  1  0  0  0  0
 12 13  1  0  0  0  0
 12 35  1  0  0  0  0
 12 36  1  0  0  0  0
 13 14  1  0  0  0  0
 13 37  1  0  0  0  0
 13 38  1  0  0  0  0
 14 15  1  0  0  0  0
 15 16  1  0  0  0  0
 15 39  1  0  0  0  0
 15 40  1  0  0  0  0
 16 41  1  0  0  0  0
 16 42  1  0  0  0  0
 17 18  1  0  0  0  0
 17 43  1  0  0  0  0
 18 23  1  0  0  0  0
 18 19  2  0  0  0  0
 19 20  1  0  0  0  0
 19 44  1  0  0  0  0
 20 21  2  0  0  0  0
 20 45  1  0  0  0  0
 21 22  1  0  0  0  0
 21 48  1  0  0  0  0
 22 23  2  0  0  0  0
 22 46  1  0  0  0  0
 23 47  1  0  0  0  0
M  CHG  1  21   1
M  END
> <s_m_source_file>
AV-unprocessed.smi

> <i_m_source_file_index>
1240

> <i_lp_mmshare_version>
43012

> <i_f3d_flags>
0

> <s_epik_input>
W2NIXTFbY0hdbltjSF1bY0hdYzFbTkhdQyg9TylbTkhdW0NIMl1bQ0BIXShbQ0BASF0yW0NIMl1bQ0gyXU9bQ0gyXTIpTjNbQ0gyXVtDSDJdT1tDSDJdW0NIMl0z

> <s_epik_cmdline>
J2VwaWtfcHl0aG9uJywgJy1waCcsICc3LjAnLCAnLXRuJywgJzgnLCAnLW1hJywgJzIwMCcsICctbWV0YWxfYmluZGluZycsICctaW1hZScsICc8aW5maWxlLm1hZT4nLCAnLW9tYWUnLCAnPG91dGZpbGUubWFlPic=

> <r_epik_Ionization_Penalty>
1.15944

> <r_epik_Ionization_Penalty_Charging>
1.0344

> <r_epik_Ionization_Penalty_Neutral>
0.125034

> <r_epik_State_Penalty>
1.2199

> <r_epik_Charging_Adjusted_Penalty>
2.25431

> <i_epik_Tot_Q>
1

> <i_epik_Tot_abs_Q>
1

> <r_epik_Metal_State_Penalty>
1.3155

> <b_epik_Metal_Only>
0

> <s_lp_Force_Field>
OPLS_2005

> <r_lp_Energy>
64.7191

> <b_lp_Chiralities_Consistent>
1

> <s_lp_Variant>
AV-unprocessed.smi:1240-10

> <Gold.Version>
5.8.1

> <Gold.Id.Protein>
6NUR|6NUR_protein|mol2

> <Gold.PLP.Fitness>
46.3717

> <Gold.PLP.PLP>
-39.4616

> <Gold.PLP.part.hbond>
-3.3059

> <Gold.PLP.part.metal>
0.0000

> <Gold.PLP.part.buried>
-6.1683

> <Gold.PLP.part.nonpolar>
-32.9147

> <Gold.PLP.part.repulsive>
0.7885

> <Gold.PLP.ligand.clash>
0.0000

> <Gold.PLP.ligand.torsion>
1.9995

> <Gold.PLP.Chemscore.Hbond>
3.5323

> <Gold.PLP.Chemscore.CHOScore>
0.0000

> <Gold.PLP.Chemscore.Metal>
0.0000

> <Gold.Chemscore.Hbonds>
donor molecule, donor type, donor heavy atom, donor atom, acceptor molecule, acceptor atom, score
      L1  H     3    24       P1  7948  0.40
      L1  H    21    48       P1  8028  2.00
      P1  H 10785 10796       L1    14  0.09

> <Gold.PLP.Chemscore.Internal.Correction>
0.3124

> <Gold.Rescore>
     Score         DG    S(hbond)    S(metal)    S(lipo)     H(rot)  DE(clash)    DE(int)     intcor
     18.90     -21.58       2.68        0.00      98.24       1.69       0.45       2.23       ----

> <Gold.Chemscore.Fitness>
18.9029

> <Gold.Chemscore.DG>
-21.5820

> <Gold.Chemscore.ZeroCoef>
-5.4800

> <Gold.Chemscore.Hbond>
2.6758

> <Gold.Chemscore.Metal>
0.0000

> <Gold.Chemscore.Lipo>
98.2403

> <Gold.Chemscore.Internal_Hbond>
0.0000

> <Gold.Chemscore.DEClash>
0.4472

> <Gold.Chemscore.DEInternal>
2.2318

> <Gold.Chemscore.Rot>
1.6912

> <Gold.Chemscore.Internal.Correction>
   9.000000E+99

> <Gold.Chemscore.Hbonds>
donor molecule, donor type, donor heavy atom, donor atom, acceptor molecule, acceptor atom, score
      L1  H     3    24       P1  7948  0.40
      L1  H    21    48       P1  8028  0.99

> <Gold.Chemscore.Hbond.Weighted>
-8.9373

> <Gold.Chemscore.Metal.Weighted>
-0.0000

> <Gold.Chemscore.Lipo.Weighted>
-11.4941

> <Gold.Chemscore.Internal_Hbond.Weighted>
0.0000

> <Gold.Chemscore.DEClash.Weighted>
0.4472

> <Gold.Chemscore.DEInternal.Weighted>
2.2318

> <Gold.Chemscore.Rot.Weighted>
4.3295

> <Gold.Chemscore.Internal.Correction.Weighted>
   9.000000E+99

> <Gold.Protein.RotatedTorsions>
[ 6907 6896 6895 6894 ] final -131.73 input  -60.11 | X-H torsion
[ 7974 7965 7964 7962 ] final -134.93 input  175.53 | X-H torsion
[ 8008 7997 7996 7995 ] final  -16.56 input   59.86 | X-H torsion
[ 10167 10162 10161 10158 ] final  131.11 input  -65.29 | X-H torsion
[ 10718 10713 10712 10709 ] final -152.24 input   66.30 | X-H torsion
[ 10763 10752 10751 10750 ] final -153.54 input  -60.55 | X-H torsion
[ 11005 11000 10999 10996 ] final  -60.19 input  -57.11 | X-H torsion

> <Gold.Protein.ActiveResidues>
 VAL166  LYS551  ARG553  GLY616  TRP617  ASP618  TYR619  PRO620  LYS621  CYS622 
 ASP623  PHE694  ASN695  SER759  ASP760  ASP761  ALA762  ILE779  LEU786  VAL792 
 PHE793  MET794  SER795  GLU796  ALA797  LYS798  CYS799  TRP800  GLU811  SER814 

> <Gold.Protein.RotatedAtoms>
  150.9543  133.6515  159.2765 H   0  0  0  0  0  0  0  0  0  0  0  0  # atno 6907 bound_to 6896
  151.3860  135.0947  159.9521 H   0  0  0  0  0  0  0  0  0  0  0  0  # atno 6908 bound_to 6896
  152.5122  133.9067  159.7522 H   0  0  0  0  0  0  0  0  0  0  0  0  # atno 6909 bound_to 6896
  144.9058  140.6831  143.5056 H   0  0  0  0  0  0  0  0  0  0  0  0  # atno 7974 bound_to 7965
  154.5044  140.2166  155.9281 H   0  0  0  0  0  0  0  0  0  0  0  0  # atno 8008 bound_to 7997
  156.1475  140.3168  155.8561 H   0  0  0  0  0  0  0  0  0  0  0  0  # atno 8009 bound_to 7997
  155.4003  140.0484  157.3027 H   0  0  0  0  0  0  0  0  0  0  0  0  # atno 8010 bound_to 7997
  139.5399  144.6720  151.4661 H   0  0  0  0  0  0  0  0  0  0  0  0  # atno 10167 bound_to 10162
  156.4699  130.8253  151.2483 H   0  0  0  0  0  0  0  0  0  0  0  0  # atno 10718 bound_to 10713
  154.7920  135.3210  154.7754 H   0  0  0  0  0  0  0  0  0  0  0  0  # atno 10763 bound_to 10752
  153.8441  135.6868  153.4804 H   0  0  0  0  0  0  0  0  0  0  0  0  # atno 10764 bound_to 10752
  153.1595  135.4666  154.9692 H   0  0  0  0  0  0  0  0  0  0  0  0  # atno 10765 bound_to 10752
  141.1278  133.6620  156.5186 H   0  0  0  0  0  0  0  0  0  0  0  0  # atno 11005 bound_to 11000
  145.3537  139.1699  143.4420 LP  0  0  0  0  0  0  0  0  0  0  0  0  # atno 17320 bound_to 7965
  146.3133  140.3592  142.8663 LP  0  0  0  0  0  0  0  0  0  0  0  0  # atno 17321 bound_to 7965
  140.6623  143.8471  150.6902 LP  0  0  0  0  0  0  0  0  0  0  0  0  # atno 17342 bound_to 10162
  140.1870  143.4068  152.1891 LP  0  0  0  0  0  0  0  0  0  0  0  0  # atno 17343 bound_to 10162
  157.7492  131.0079  150.3209 LP  0  0  0  0  0  0  0  0  0  0  0  0  # atno 17370 bound_to 10713
  156.3629  130.3850  149.7237 LP  0  0  0  0  0  0  0  0  0  0  0  0  # atno 17371 bound_to 10713
  140.4311  134.7101  157.4942 LP  0  0  0  0  0  0  0  0  0  0  0  0  # atno 17394 bound_to 11000
  140.0293  134.6430  155.9128 LP  0  0  0  0  0  0  0  0  0  0  0  0  # atno 17395 bound_to 11000

$$$$
