AV-unprocessed.smi:962|AV-procd|sdf|4275|dock3
  -GOLD-   22720 2183D 1   1.00000     0.00000
 Structure written by MMmdl.
 42 43  0  0  0  0  0  0  0  0  1 V2000
  145.6680  136.6923  162.0414 C   0  0  0  0  0  0  0  0  0  0  0  0
  146.9927  135.9019  161.9849 C   0  0  0  0  0  0  0  0  0  0  0  0
  147.9345  136.4739  163.0631 C   0  0  0  0  0  0  0  0  0  0  0  0
  146.6787  134.4241  162.2900 C   0  0  0  0  0  0  0  0  0  0  0  0
  147.6441  136.0230  160.6224 C   0  0  0  0  0  0  0  0  0  0  0  0
  147.9526  135.0162  159.7361 C   0  0  0  0  0  0  0  0  0  0  0  0
  148.6539  135.6233  158.2626 S   0  0  0  0  0  0  0  0  0  0  0  0
  148.5161  137.2532  158.9076 C   0  0  0  0  0  0  0  0  0  0  0  0
  148.8711  138.4784  158.1279 C   0  0  0  0  0  0  0  0  0  0  0  0
  150.3831  138.7791  158.0899 C   0  0  0  0  0  0  0  0  0  0  0  0
  150.6714  140.1982  158.2885 N   0  0  0  0  0  0  0  0  0  0  0  0
  151.8989  140.7411  158.3847 C   0  0  0  0  0  0  0  0  0  0  0  0
  152.9345  140.0978  158.2095 O   0  0  0  0  0  0  0  0  0  0  0  0
  151.8969  142.0544  158.6994 N   0  0  0  0  0  0  0  0  0  0  0  0
  150.7389  142.9533  158.6910 C   0  0  0  0  0  0  0  0  0  0  0  0
  151.1910  144.2189  159.4199 C   0  0  0  0  0  0  0  0  0  0  0  0
  152.7018  144.2343  159.2375 C   0  0  0  0  0  0  0  0  0  0  0  0
  153.0851  142.7558  159.1815 C   0  0  0  0  0  0  0  0  0  0  0  0
  147.9861  137.2898  160.1312 N   0  0  0  0  0  0  0  0  0  0  0  0
  145.1947  136.6041  163.0199 H   0  0  0  0  0  0  0  0  0  0  0  0
  144.9527  136.3288  161.3024 H   0  0  0  0  0  0  0  0  0  0  0  0
  145.8276  137.7552  161.8553 H   0  0  0  0  0  0  0  0  0  0  0  0
  148.1743  137.5191  162.8633 H   0  0  0  0  0  0  0  0  0  0  0  0
  148.8764  135.9260  163.1071 H   0  0  0  0  0  0  0  0  0  0  0  0
  147.4835  136.4224  164.0546 H   0  0  0  0  0  0  0  0  0  0  0  0
  146.1936  134.3134  163.2605 H   0  0  0  0  0  0  0  0  0  0  0  0
  147.5839  133.8162  162.3107 H   0  0  0  0  0  0  0  0  0  0  0  0
  146.0135  133.9973  161.5384 H   0  0  0  0  0  0  0  0  0  0  0  0
  147.7996  133.9535  159.8506 H   0  0  0  0  0  0  0  0  0  0  0  0
  148.4866  138.3750  157.1127 H   0  0  0  0  0  0  0  0  0  0  0  0
  148.3443  139.3244  158.5702 H   0  0  0  0  0  0  0  0  0  0  0  0
  150.8926  138.1787  158.8455 H   0  0  0  0  0  0  0  0  0  0  0  0
  150.7970  138.4690  157.1305 H   0  0  0  0  0  0  0  0  0  0  0  0
  149.8782  140.8065  158.4307 H   0  0  0  0  0  0  0  0  0  0  0  0
  150.4727  143.1805  157.6576 H   0  0  0  0  0  0  0  0  0  0  0  0
  149.8684  142.5135  159.1805 H   0  0  0  0  0  0  0  0  0  0  0  0
  150.7089  145.1210  159.0423 H   0  0  0  0  0  0  0  0  0  0  0  0
  150.9536  144.1334  160.4812 H   0  0  0  0  0  0  0  0  0  0  0  0
  152.9496  144.7125  158.2888 H   0  0  0  0  0  0  0  0  0  0  0  0
  153.2193  144.7761  160.0299 H   0  0  0  0  0  0  0  0  0  0  0  0
  153.3344  142.3869  160.1777 H   0  0  0  0  0  0  0  0  0  0  0  0
  153.9478  142.5925  158.5336 H   0  0  0  0  0  0  0  0  0  0  0  0
  1  2  1  0  0  0  0
  1 20  1  0  0  0  0
  1 21  1  0  0  0  0
  1 22  1  0  0  0  0
  2  3  1  0  0  0  0
  2  4  1  0  0  0  0
  2  5  1  0  0  0  0
  3 23  1  0  0  0  0
  3 24  1  0  0  0  0
  3 25  1  0  0  0  0
  4 26  1  0  0  0  0
  4 27  1  0  0  0  0
  4 28  1  0  0  0  0
  5 19  1  0  0  0  0
  5  6  2  0  0  0  0
  6  7  1  0  0  0  0
  6 29  1  0  0  0  0
  7  8  1  0  0  0  0
  8  9  1  0  0  0  0
  8 19  2  0  0  0  0
  9 10  1  0  0  0  0
  9 30  1  0  0  0  0
  9 31  1  0  0  0  0
 10 11  1  0  0  0  0
 10 32  1  0  0  0  0
 10 33  1  0  0  0  0
 11 12  1  0  0  0  0
 11 34  1  0  0  0  0
 12 13  2  0  0  0  0
 12 14  1  0  0  0  0
 14 18  1  0  0  0  0
 14 15  1  0  0  0  0
 15 16  1  0  0  0  0
 15 35  1  0  0  0  0
 15 36  1  0  0  0  0
 16 17  1  0  0  0  0
 16 37  1  0  0  0  0
 16 38  1  0  0  0  0
 17 18  1  0  0  0  0
 17 39  1  0  0  0  0
 17 40  1  0  0  0  0
 18 41  1  0  0  0  0
 18 42  1  0  0  0  0
M  END
> <s_m_source_file>
AV-unprocessed.smi

> <i_m_source_file_index>
962

> <i_lp_mmshare_version>
43012

> <i_f3d_flags>
0

> <s_epik_input>
W0NIM11DKFtDSDNdKShbQ0gzXSljMVtjSF1zYyhuMSlbQ0gyXVtDSDJdW05IXUMoPU8pTjJbQ0gyXVtDSDJdW0NIMl1bQ0gyXTI=

> <s_epik_cmdline>
J2VwaWtfcHl0aG9uJywgJy1waCcsICc3LjAnLCAnLXRuJywgJzgnLCAnLW1hJywgJzIwMCcsICctbWV0YWxfYmluZGluZycsICctaW1hZScsICc8aW5maWxlLm1hZT4nLCAnLW9tYWUnLCAnPG91dGZpbGUubWFlPic=

> <r_epik_Ionization_Penalty>
0.00160156

> <r_epik_Ionization_Penalty_Charging>
0

> <r_epik_Ionization_Penalty_Neutral>
0.00160156

> <r_epik_State_Penalty>
0.00103428

> <r_epik_Charging_Adjusted_Penalty>
0.00103428

> <i_epik_Tot_Q>
0

> <i_epik_Tot_abs_Q>
0

> <r_epik_Metal_State_Penalty>
-0

> <b_epik_Metal_Only>
0

> <s_lp_Force_Field>
OPLS_2005

> <r_lp_Energy>
25.7371

> <b_lp_Chiralities_Consistent>
1

> <s_lp_Variant>
AV-unprocessed.smi:962-1

> <Gold.Version>
5.8.1

> <Gold.Id.Protein>
6NUR|6NUR_protein|mol2

> <Gold.PLP.Fitness>
46.1781

> <Gold.PLP.PLP>
-40.6588

> <Gold.PLP.part.hbond>
-3.0000

> <Gold.PLP.part.metal>
0.0000

> <Gold.PLP.part.buried>
-4.2032

> <Gold.PLP.part.nonpolar>
-33.4424

> <Gold.PLP.part.repulsive>
0.1512

> <Gold.PLP.ligand.clash>
0.0000

> <Gold.PLP.ligand.torsion>
0.6525

> <Gold.PLP.Chemscore.Hbond>
2.2600

> <Gold.PLP.Chemscore.CHOScore>
0.0000

> <Gold.PLP.Chemscore.Metal>
0.0000

> <Gold.Chemscore.Hbonds>
donor molecule, donor type, donor heavy atom, donor atom, acceptor molecule, acceptor atom, score
      P1  H  6931  6943       L1    19  0.26
      P1  H  6934  6947       L1    19  0.67
      P1  H  7997  8009       L1    13  0.99

> <Gold.PLP.Chemscore.Internal.Correction>
0.0443

> <Gold.Rescore>
     Score         DG    S(hbond)    S(metal)    S(lipo)     H(rot)  DE(clash)    DE(int)     intcor
     20.16     -20.87       1.91        0.00     107.99       1.41       0.18       0.53       ----

> <Gold.Chemscore.Fitness>
20.1624

> <Gold.Chemscore.DG>
-20.8720

> <Gold.Chemscore.ZeroCoef>
-5.4800

> <Gold.Chemscore.Hbond>
1.9101

> <Gold.Chemscore.Metal>
0.0000

> <Gold.Chemscore.Lipo>
107.9867

> <Gold.Chemscore.Internal_Hbond>
0.0000

> <Gold.Chemscore.DEClash>
0.1782

> <Gold.Chemscore.DEInternal>
0.5314

> <Gold.Chemscore.Rot>
1.4149

> <Gold.Chemscore.Internal.Correction>
   9.000000E+99

> <Gold.Chemscore.Hbonds>
donor molecule, donor type, donor heavy atom, donor atom, acceptor molecule, acceptor atom, score
      P1  H  6931  6943       L1    19  0.11
      P1  H  6934  6947       L1    19  0.62
      P1  H  7997  8009       L1    13  0.88

> <Gold.Chemscore.Hbond.Weighted>
-6.3798

> <Gold.Chemscore.Metal.Weighted>
-0.0000

> <Gold.Chemscore.Lipo.Weighted>
-12.6344

> <Gold.Chemscore.Internal_Hbond.Weighted>
0.0000

> <Gold.Chemscore.DEClash.Weighted>
0.1782

> <Gold.Chemscore.DEInternal.Weighted>
0.5314

> <Gold.Chemscore.Rot.Weighted>
3.6222

> <Gold.Chemscore.Internal.Correction.Weighted>
   9.000000E+99

> <Gold.Protein.RotatedTorsions>
[ 6907 6896 6895 6894 ] final -162.86 input  -60.11 | X-H torsion
[ 7974 7965 7964 7962 ] final  -26.48 input  175.53 | X-H torsion
[ 8008 7997 7996 7995 ] final  153.55 input   59.86 | X-H torsion
[ 10167 10162 10161 10158 ] final -115.29 input  -65.29 | X-H torsion
[ 10718 10713 10712 10709 ] final  154.98 input   66.30 | X-H torsion
[ 10763 10752 10751 10750 ] final   34.10 input  -60.55 | X-H torsion
[ 11005 11000 10999 10996 ] final -158.15 input  -57.11 | X-H torsion

> <Gold.Protein.ActiveResidues>
 VAL166  LYS551  ARG553  GLY616  TRP617  ASP618  TYR619  PRO620  LYS621  CYS622 
 ASP623  PHE694  ASN695  SER759  ASP760  ASP761  ALA762  ILE779  LEU786  VAL792 
 PHE793  MET794  SER795  GLU796  ALA797  LYS798  CYS799  TRP800  GLU811  SER814 

> <Gold.Protein.RotatedAtoms>
  151.3869  133.3802  159.2716 H   0  0  0  0  0  0  0  0  0  0  0  0  # atno 6907 bound_to 6896
  150.9535  134.8933  159.7697 H   0  0  0  0  0  0  0  0  0  0  0  0  # atno 6908 bound_to 6896
  152.5121  134.3825  159.9408 H   0  0  0  0  0  0  0  0  0  0  0  0  # atno 6909 bound_to 6896
  146.1423  140.5025  142.8647 H   0  0  0  0  0  0  0  0  0  0  0  0  # atno 7974 bound_to 7965
  156.2576  140.1990  156.6508 H   0  0  0  0  0  0  0  0  0  0  0  0  # atno 8008 bound_to 7997
  154.6538  140.0569  157.0011 H   0  0  0  0  0  0  0  0  0  0  0  0  # atno 8009 bound_to 7997
  155.1378  140.3240  155.4462 H   0  0  0  0  0  0  0  0  0  0  0  0  # atno 8010 bound_to 7997
  140.0916  143.4694  152.1866 H   0  0  0  0  0  0  0  0  0  0  0  0  # atno 10167 bound_to 10162
  157.2244  131.0725  151.1892 H   0  0  0  0  0  0  0  0  0  0  0  0  # atno 10718 bound_to 10713
  153.0180  135.6369  154.1616 H   0  0  0  0  0  0  0  0  0  0  0  0  # atno 10763 bound_to 10752
  154.1353  135.2838  155.3176 H   0  0  0  0  0  0  0  0  0  0  0  0  # atno 10764 bound_to 10752
  154.6164  135.5539  153.7589 H   0  0  0  0  0  0  0  0  0  0  0  0  # atno 10765 bound_to 10752
  140.6568  134.4392  157.5235 H   0  0  0  0  0  0  0  0  0  0  0  0  # atno 11005 bound_to 11000
  144.7806  140.5832  143.6608 LP  0  0  0  0  0  0  0  0  0  0  0  0  # atno 17320 bound_to 7965
  145.5019  139.1483  143.3652 LP  0  0  0  0  0  0  0  0  0  0  0  0  # atno 17321 bound_to 7965
  139.5721  144.7468  151.3862 LP  0  0  0  0  0  0  0  0  0  0  0  0  # atno 17342 bound_to 10162
  140.7025  143.7596  150.7427 LP  0  0  0  0  0  0  0  0  0  0  0  0  # atno 17343 bound_to 10162
  157.3543  130.7098  149.6460 LP  0  0  0  0  0  0  0  0  0  0  0  0  # atno 17370 bound_to 10713
  155.9680  130.4244  150.4605 LP  0  0  0  0  0  0  0  0  0  0  0  0  # atno 17371 bound_to 10713
  139.9026  134.8520  156.1832 LP  0  0  0  0  0  0  0  0  0  0  0  0  # atno 17394 bound_to 11000
  141.0495  133.6896  156.1745 LP  0  0  0  0  0  0  0  0  0  0  0  0  # atno 17395 bound_to 11000

$$$$
