AV-unprocessed.smi:3101|AV-procd|sdf|11810|dock1
  -GOLD-   2272017183D 1   1.00000     0.00000
 Structure written by MMmdl.
 28 29  0  0  0  0  0  0  0  0  1 V2000
  153.1136  141.8600  159.8358 C   0  0  0  0  0  0  0  0  0  0  0  0
  152.9028  143.3720  159.6363 C   0  0  2  0  0  0  0  0  0  0  0  0
  152.1579  144.0581  160.7632 C   0  0  0  0  0  0  0  0  0  0  0  0
  151.7917  145.3848  160.1083 C   0  0  0  0  0  0  0  0  0  0  0  0
  151.5456  145.0807  158.7377 O   0  0  0  0  0  0  0  0  0  0  0  0
  152.1164  143.8193  158.3843 C   0  0  2  0  0  0  0  0  0  0  0  0
  150.9648  142.8936  157.9568 C   0  0  0  0  0  0  0  0  0  0  0  0
  150.0784  142.6025  158.7609 O   0  0  0  0  0  0  0  0  0  0  0  0
  151.0034  142.4679  156.6809 N   0  0  0  0  0  0  0  0  0  0  0  0
  150.0922  141.6060  156.0158 C   0  0  0  0  0  0  0  0  0  0  0  0
  148.7819  141.5690  156.5481 C   0  0  0  0  0  0  0  0  0  0  0  0
  147.8027  140.7989  156.0239 N   0  0  0  0  0  0  0  0  0  0  0  0
  148.1330  140.0511  154.9494 C   0  0  0  0  0  0  0  0  0  0  0  0
  149.4325  140.0754  154.4052 C   0  0  0  0  0  0  0  0  0  0  0  0
  150.4062  140.8478  154.9341 N   0  0  0  0  0  0  0  0  0  0  0  0
  152.1738  141.3326  160.0016 H   0  0  0  0  0  0  0  0  0  0  0  0
  153.7475  141.6709  160.7023 H   0  0  0  0  0  0  0  0  0  0  0  0
  153.6005  141.4155  158.9674 H   0  0  0  0  0  0  0  0  0  0  0  0
  153.8924  143.8277  159.5704 H   0  0  0  0  0  0  0  0  0  0  0  0
  151.2573  143.5041  161.0305 H   0  0  0  0  0  0  0  0  0  0  0  0
  152.7615  144.1830  161.6626 H   0  0  0  0  0  0  0  0  0  0  0  0
  150.9268  145.8579  160.5737 H   0  0  0  0  0  0  0  0  0  0  0  0
  152.6304  146.0797  160.1656 H   0  0  0  0  0  0  0  0  0  0  0  0
  152.8013  143.9604  157.5465 H   0  0  0  0  0  0  0  0  0  0  0  0
  151.7788  142.7962  156.1239 H   0  0  0  0  0  0  0  0  0  0  0  0
  148.5122  142.1655  157.4077 H   0  0  0  0  0  0  0  0  0  0  0  0
  147.3583  139.4320  154.5220 H   0  0  0  0  0  0  0  0  0  0  0  0
  149.6909  139.4752  153.5454 H   0  0  0  0  0  0  0  0  0  0  0  0
  1  2  1  0  0  0  0
  1 16  1  0  0  0  0
  1 17  1  0  0  0  0
  1 18  1  0  0  0  0
  2  6  1  0  0  0  0
  2  3  1  0  0  0  0
  2 19  1  0  0  0  0
  3  4  1  0  0  0  0
  3 20  1  0  0  0  0
  3 21  1  0  0  0  0
  4  5  1  0  0  0  0
  4 22  1  0  0  0  0
  4 23  1  0  0  0  0
  5  6  1  0  0  0  0
  6  7  1  0  0  0  0
  6 24  1  0  0  0  0
  7  8  2  0  0  0  0
  7  9  1  0  0  0  0
  9 10  1  0  0  0  0
  9 25  1  0  0  0  0
 10 15  1  0  0  0  0
 10 11  2  0  0  0  0
 11 12  1  0  0  0  0
 11 26  1  0  0  0  0
 12 13  2  0  0  0  0
 13 14  1  0  0  0  0
 13 27  1  0  0  0  0
 14 15  2  0  0  0  0
 14 28  1  0  0  0  0
M  END
> <s_m_source_file>
AV-unprocessed.smi

> <i_m_source_file_index>
3101

> <i_lp_mmshare_version>
43012

> <i_f3d_flags>
0

> <s_epik_input>
W0NIM11bQ0BASF0xW0NIMl1bQ0gyXU9bQ0BIXTFDKD1PKVtOSF1jMltjSF1uW2NIXVtjSF1uMg==

> <s_epik_cmdline>
J2VwaWtfcHl0aG9uJywgJy1waCcsICc3LjAnLCAnLXRuJywgJzgnLCAnLW1hJywgJzIwMCcsICctbWV0YWxfYmluZGluZycsICctaW1hZScsICc8aW5maWxlLm1hZT4nLCAnLW9tYWUnLCAnPG91dGZpbGUubWFlPic=

> <r_lp_tautomer_probability>
1

> <r_epik_Ionization_Penalty>
2.83174e-06

> <r_epik_Ionization_Penalty_Charging>
0

> <r_epik_Ionization_Penalty_Neutral>
2.83174e-06

> <r_epik_State_Penalty>
-0

> <r_epik_Charging_Adjusted_Penalty>
0

> <i_epik_Tot_Q>
0

> <i_epik_Tot_abs_Q>
0

> <r_epik_Metal_State_Penalty>
-0

> <b_epik_Metal_Only>
0

> <s_lp_Force_Field>
OPLS_2005

> <r_lp_Energy>
27.4183

> <b_lp_Chiralities_Consistent>
1

> <s_lp_Variant>
AV-unprocessed.smi:3101-3

> <Gold.Version>
5.8.1

> <Gold.Id.Protein>
6NUR|6NUR_protein|mol2

> <Gold.PLP.Fitness>
37.9072

> <Gold.PLP.PLP>
-32.8177

> <Gold.PLP.part.hbond>
-1.3496

> <Gold.PLP.part.metal>
0.0000

> <Gold.PLP.part.buried>
-4.4651

> <Gold.PLP.part.nonpolar>
-26.8398

> <Gold.PLP.part.repulsive>
0.4070

> <Gold.PLP.ligand.clash>
0.0000

> <Gold.PLP.ligand.torsion>
0.1661

> <Gold.PLP.Chemscore.Hbond>
0.8320

> <Gold.PLP.Chemscore.CHOScore>
0.9716

> <Gold.PLP.Chemscore.Metal>
0.0000

> <Gold.Chemscore.Hbonds>
donor molecule, donor type, donor heavy atom, donor atom, acceptor molecule, acceptor atom, score
      P1  H  7989  7998       L1    15  0.80
      L1  C    14    28       P1  7957  1.00

> <Gold.PLP.Chemscore.Internal.Correction>
0.0110

> <Gold.Rescore>
     Score         DG    S(hbond)    S(metal)    S(lipo)     H(rot)  DE(clash)    DE(int)     intcor
     12.59     -14.20       0.84        0.00      72.45       1.00       0.01       1.60       ----

> <Gold.Chemscore.Fitness>
12.5862

> <Gold.Chemscore.DG>
-14.2000

> <Gold.Chemscore.ZeroCoef>
-5.4800

> <Gold.Chemscore.Hbond>
0.8395

> <Gold.Chemscore.Metal>
0.0000

> <Gold.Chemscore.Lipo>
72.4457

> <Gold.Chemscore.Internal_Hbond>
0.0000

> <Gold.Chemscore.DEClash>
0.0149

> <Gold.Chemscore.DEInternal>
1.5990

> <Gold.Chemscore.Rot>
1.0000

> <Gold.Chemscore.Internal.Correction>
   9.000000E+99

> <Gold.Chemscore.Hbonds>
donor molecule, donor type, donor heavy atom, donor atom, acceptor molecule, acceptor atom, score
      P1  H  7989  7998       L1    15  0.24

> <Gold.Chemscore.Hbond.Weighted>
-2.8039

> <Gold.Chemscore.Metal.Weighted>
-0.0000

> <Gold.Chemscore.Lipo.Weighted>
-8.4761

> <Gold.Chemscore.Internal_Hbond.Weighted>
0.0000

> <Gold.Chemscore.DEClash.Weighted>
0.0149

> <Gold.Chemscore.DEInternal.Weighted>
1.5990

> <Gold.Chemscore.Rot.Weighted>
2.5600

> <Gold.Chemscore.Internal.Correction.Weighted>
   9.000000E+99

> <Gold.Protein.RotatedTorsions>
[ 6907 6896 6895 6894 ] final -116.18 input  -60.11 | X-H torsion
[ 7974 7965 7964 7962 ] final    1.26 input  175.53 | X-H torsion
[ 8008 7997 7996 7995 ] final   39.31 input   59.86 | X-H torsion
[ 10167 10162 10161 10158 ] final -115.16 input  -65.29 | X-H torsion
[ 10718 10713 10712 10709 ] final   71.15 input   66.30 | X-H torsion
[ 10763 10752 10751 10750 ] final -128.27 input  -60.55 | X-H torsion
[ 11005 11000 10999 10996 ] final  -30.16 input  -57.11 | X-H torsion

> <Gold.Protein.ActiveResidues>
 VAL166  LYS551  ARG553  GLY616  TRP617  ASP618  TYR619  PRO620  LYS621  CYS622 
 ASP623  PHE694  ASN695  SER759  ASP760  ASP761  ALA762  ILE779  LEU786  VAL792 
 PHE793  MET794  SER795  GLU796  ALA797  LYS798  CYS799  TRP800  GLU811  SER814 

> <Gold.Protein.RotatedAtoms>
  150.8035  133.8553  159.3216 H   0  0  0  0  0  0  0  0  0  0  0  0  # atno 6907 bound_to 6896
  151.6359  135.1016  160.0141 H   0  0  0  0  0  0  0  0  0  0  0  0  # atno 6908 bound_to 6896
  152.4124  133.6945  159.6445 H   0  0  0  0  0  0  0  0  0  0  0  0  # atno 6909 bound_to 6896
  146.2439  140.1014  142.8347 H   0  0  0  0  0  0  0  0  0  0  0  0  # atno 7974 bound_to 7965
  155.2345  140.3341  155.4299 H   0  0  0  0  0  0  0  0  0  0  0  0  # atno 8008 bound_to 7997
  156.2281  140.1838  156.7357 H   0  0  0  0  0  0  0  0  0  0  0  0  # atno 8009 bound_to 7997
  154.5933  140.0634  156.9253 H   0  0  0  0  0  0  0  0  0  0  0  0  # atno 8010 bound_to 7997
  140.0931  143.4681  152.1858 H   0  0  0  0  0  0  0  0  0  0  0  0  # atno 10167 bound_to 10162
  157.6437  130.9514  150.0750 H   0  0  0  0  0  0  0  0  0  0  0  0  # atno 10718 bound_to 10713
  154.8756  135.3934  154.3730 H   0  0  0  0  0  0  0  0  0  0  0  0  # atno 10763 bound_to 10752
  153.4487  135.7028  153.6128 H   0  0  0  0  0  0  0  0  0  0  0  0  # atno 10764 bound_to 10752
  153.4677  135.3797  155.2342 H   0  0  0  0  0  0  0  0  0  0  0  0  # atno 10765 bound_to 10752
  140.9359  133.7309  156.1004 H   0  0  0  0  0  0  0  0  0  0  0  0  # atno 11005 bound_to 11000
  145.0565  140.9056  143.4964 LP  0  0  0  0  0  0  0  0  0  0  0  0  # atno 17320 bound_to 7965
  145.1122  139.2749  143.5631 LP  0  0  0  0  0  0  0  0  0  0  0  0  # atno 17321 bound_to 7965
  139.5713  144.7464  151.3882 LP  0  0  0  0  0  0  0  0  0  0  0  0  # atno 17342 bound_to 10162
  140.7018  143.7613  150.7415 LP  0  0  0  0  0  0  0  0  0  0  0  0  # atno 17343 bound_to 10162
  156.1743  130.3647  149.9122 LP  0  0  0  0  0  0  0  0  0  0  0  0  # atno 17370 bound_to 10713
  156.7090  130.8962  151.3607 LP  0  0  0  0  0  0  0  0  0  0  0  0  # atno 17371 bound_to 10713
  140.7800  134.3736  157.5489 LP  0  0  0  0  0  0  0  0  0  0  0  0  # atno 17394 bound_to 11000
  139.8808  134.9076  156.2948 LP  0  0  0  0  0  0  0  0  0  0  0  0  # atno 17395 bound_to 11000

$$$$
