AV-unprocessed.smi:63|AV-procd|sdf|607|dock4
  -GOLD-   2262016503D 1   1.00000     0.00000
 Structure written by MMmdl.
 29 30  0  0  0  0  0  0  0  0  1 V2000
  154.1117  140.6191  161.1458 C   0  0  0  0  0  0  0  0  0  0  0  0
  153.3711  140.6707  159.8260 C   0  0  0  0  0  0  0  0  0  0  0  0
  152.3760  141.6384  159.5963 C   0  0  0  0  0  0  0  0  0  0  0  0
  151.7321  141.6162  158.3475 C   0  0  0  0  0  0  0  0  0  0  0  0
  152.1251  140.6293  157.4147 C   0  0  0  0  0  0  0  0  0  0  0  0
  151.5036  140.5615  156.1495 N   0  0  0  0  0  0  0  0  0  0  0  0
  150.4492  141.5342  155.8804 C   0  0  0  0  0  0  0  0  0  0  0  0
  149.3987  140.8068  155.0373 C   0  0  0  0  0  0  0  0  0  0  0  0
  150.1701  139.6419  154.4269 C   0  0  0  0  0  0  0  0  0  0  0  0
  151.1703  139.2796  155.5296 C   0  0  1  0  0  0  0  0  0  0  0  0
  152.4065  138.5249  155.0002 C   0  0  0  0  0  0  0  0  0  0  0  0
  152.0037  137.4437  154.1869 O   0  0  0  0  0  0  0  0  0  0  0  0
  153.0973  139.7296  157.7132 N   0  0  0  0  0  0  0  0  0  0  0  0
  153.7129  139.7468  158.9002 N   0  0  0  0  0  0  0  0  0  0  0  0
  154.4755  141.6109  161.4158 H   0  0  0  0  0  0  0  0  0  0  0  0
  154.9682  139.9453  161.0968 H   0  0  0  0  0  0  0  0  0  0  0  0
  153.4469  140.2698  161.9360 H   0  0  0  0  0  0  0  0  0  0  0  0
  152.1158  142.3696  160.3474 H   0  0  0  0  0  0  0  0  0  0  0  0
  150.9648  142.3407  158.1175 H   0  0  0  0  0  0  0  0  0  0  0  0
  150.0047  141.9340  156.7928 H   0  0  0  0  0  0  0  0  0  0  0  0
  150.8787  142.3659  155.3208 H   0  0  0  0  0  0  0  0  0  0  0  0
  148.6101  140.4224  155.6856 H   0  0  0  0  0  0  0  0  0  0  0  0
  148.9353  141.4507  154.2893 H   0  0  0  0  0  0  0  0  0  0  0  0
  149.5265  138.8074  154.1475 H   0  0  0  0  0  0  0  0  0  0  0  0
  150.6935  139.9796  153.5310 H   0  0  0  0  0  0  0  0  0  0  0  0
  150.6586  138.6660  156.2731 H   0  0  0  0  0  0  0  0  0  0  0  0
  153.0504  139.1895  154.4233 H   0  0  0  0  0  0  0  0  0  0  0  0
  153.0097  138.1248  155.8145 H   0  0  0  0  0  0  0  0  0  0  0  0
  151.2183  137.6931  153.7244 H   0  0  0  0  0  0  0  0  0  0  0  0
  1  2  1  0  0  0  0
  1 15  1  0  0  0  0
  1 16  1  0  0  0  0
  1 17  1  0  0  0  0
  2 14  1  0  0  0  0
  2  3  2  0  0  0  0
  3  4  1  0  0  0  0
  3 18  1  0  0  0  0
  4  5  2  0  0  0  0
  4 19  1  0  0  0  0
  5  6  1  0  0  0  0
  5 13  1  0  0  0  0
  6 10  1  0  0  0  0
  6  7  1  0  0  0  0
  7  8  1  0  0  0  0
  7 20  1  0  0  0  0
  7 21  1  0  0  0  0
  8  9  1  0  0  0  0
  8 22  1  0  0  0  0
  8 23  1  0  0  0  0
  9 10  1  0  0  0  0
  9 24  1  0  0  0  0
  9 25  1  0  0  0  0
 10 11  1  0  0  0  0
 10 26  1  0  0  0  0
 11 12  1  0  0  0  0
 11 27  1  0  0  0  0
 11 28  1  0  0  0  0
 12 29  1  0  0  0  0
 13 14  2  0  0  0  0
M  END
> <s_m_source_file>
AV-unprocessed.smi

> <i_m_source_file_index>
63

> <i_lp_mmshare_version>
43012

> <i_f3d_flags>
0

> <s_epik_input>
W0NIM11jMVtjSF1bY0hdYyhubjEpTjJbQ0gyXVtDSDJdW0NIMl1bQ0BIXTJbQ0gyXVtPSF0=

> <s_epik_cmdline>
J2VwaWtfcHl0aG9uJywgJy1waCcsICc3LjAnLCAnLXRuJywgJzgnLCAnLW1hJywgJzIwMCcsICctbWV0YWxfYmluZGluZycsICctaW1hZScsICc8aW5maWxlLm1hZT4nLCAnLW9tYWUnLCAnPG91dGZpbGUubWFlPic=

> <r_lp_tautomer_probability>
1

> <r_epik_Ionization_Penalty>
4.30639e-05

> <r_epik_Ionization_Penalty_Charging>
0

> <r_epik_Ionization_Penalty_Neutral>
4.30639e-05

> <r_epik_State_Penalty>
-0

> <r_epik_Charging_Adjusted_Penalty>
0

> <i_epik_Tot_Q>
0

> <i_epik_Tot_abs_Q>
0

> <r_epik_Metal_State_Penalty>
-0

> <b_epik_Metal_Only>
0

> <s_lp_Force_Field>
OPLS_2005

> <r_lp_Energy>
32.9321

> <b_lp_Chiralities_Consistent>
1

> <s_lp_Variant>
AV-unprocessed.smi:63-1

> <Gold.Version>
5.8.1

> <Gold.Id.Protein>
6NUR|6NUR_protein|mol2

> <Gold.PLP.Fitness>
34.8629

> <Gold.PLP.PLP>
-29.3638

> <Gold.PLP.part.hbond>
-3.5275

> <Gold.PLP.part.metal>
0.0000

> <Gold.PLP.part.buried>
-2.7530

> <Gold.PLP.part.nonpolar>
-22.7043

> <Gold.PLP.part.repulsive>
0.0000

> <Gold.PLP.ligand.clash>
0.0000

> <Gold.PLP.ligand.torsion>
0.3437

> <Gold.PLP.Chemscore.Hbond>
1.9440

> <Gold.PLP.Chemscore.CHOScore>
0.0000

> <Gold.PLP.Chemscore.Metal>
0.0000

> <Gold.Chemscore.Hbonds>
donor molecule, donor type, donor heavy atom, donor atom, acceptor molecule, acceptor atom, score
      P1  H  7997  8008       L1    13  1.00
      P1  H 10752 10765       L1    12  0.93

> <Gold.PLP.Chemscore.Internal.Correction>
0.3545

> <Gold.Rescore>
     Score         DG    S(hbond)    S(metal)    S(lipo)     H(rot)  DE(clash)    DE(int)     intcor
     12.95     -13.79       1.37        0.00      69.38       1.71       0.06       0.78       ----

> <Gold.Chemscore.Fitness>
12.9475

> <Gold.Chemscore.DG>
-13.7893

> <Gold.Chemscore.ZeroCoef>
-5.4800

> <Gold.Chemscore.Hbond>
1.3711

> <Gold.Chemscore.Metal>
0.0000

> <Gold.Chemscore.Lipo>
69.3772

> <Gold.Chemscore.Internal_Hbond>
0.0000

> <Gold.Chemscore.DEClash>
0.0621

> <Gold.Chemscore.DEInternal>
0.7796

> <Gold.Chemscore.Rot>
1.7138

> <Gold.Chemscore.Internal.Correction>
   9.000000E+99

> <Gold.Chemscore.Hbonds>
donor molecule, donor type, donor heavy atom, donor atom, acceptor molecule, acceptor atom, score
      P1  H  7997  8008       L1    13  0.15
      P1  H 10752 10765       L1    12  0.86

> <Gold.Chemscore.Hbond.Weighted>
-4.5793

> <Gold.Chemscore.Metal.Weighted>
-0.0000

> <Gold.Chemscore.Lipo.Weighted>
-8.1171

> <Gold.Chemscore.Internal_Hbond.Weighted>
0.0000

> <Gold.Chemscore.DEClash.Weighted>
0.0621

> <Gold.Chemscore.DEInternal.Weighted>
0.7796

> <Gold.Chemscore.Rot.Weighted>
4.3872

> <Gold.Chemscore.Internal.Correction.Weighted>
   9.000000E+99

> <Gold.Protein.RotatedTorsions>
[ 6907 6896 6895 6894 ] final    2.36 input  -60.11 | X-H torsion
[ 7974 7965 7964 7962 ] final   85.26 input  175.53 | X-H torsion
[ 8008 7997 7996 7995 ] final  -63.26 input   59.86 | X-H torsion
[ 10167 10162 10161 10158 ] final -170.12 input  -65.29 | X-H torsion
[ 10718 10713 10712 10709 ] final -139.36 input   66.30 | X-H torsion
[ 10763 10752 10751 10750 ] final  154.37 input  -60.55 | X-H torsion
[ 11005 11000 10999 10996 ] final   14.47 input  -57.11 | X-H torsion

> <Gold.Protein.ActiveResidues>
 VAL166  LYS551  ARG553  GLY616  TRP617  ASP618  TYR619  PRO620  LYS621  CYS622 
 ASP623  PHE694  ASN695  SER759  ASP760  ASP761  ALA762  ILE779  LEU786  VAL792 
 PHE793  MET794  SER795  GLU796  ALA797  LYS798  CYS799  TRP800  GLU811  SER814 

> <Gold.Protein.RotatedAtoms>
  151.6075  135.1043  160.0073 H   0  0  0  0  0  0  0  0  0  0  0  0  # atno 6907 bound_to 6896
  152.4225  133.7136  159.6504 H   0  0  0  0  0  0  0  0  0  0  0  0  # atno 6908 bound_to 6896
  150.8113  133.8343  159.3203 H   0  0  0  0  0  0  0  0  0  0  0  0  # atno 6909 bound_to 6896
  145.5879  139.2334  143.2316 H   0  0  0  0  0  0  0  0  0  0  0  0  # atno 7974 bound_to 7965
  154.4544  140.0978  156.6715 H   0  0  0  0  0  0  0  0  0  0  0  0  # atno 8008 bound_to 7997
  155.5183  140.3478  155.4383 H   0  0  0  0  0  0  0  0  0  0  0  0  # atno 8009 bound_to 7997
  156.0748  140.1358  156.9773 H   0  0  0  0  0  0  0  0  0  0  0  0  # atno 8010 bound_to 7997
  139.5881  144.1273  152.1601 H   0  0  0  0  0  0  0  0  0  0  0  0  # atno 10167 bound_to 10162
  156.3099  130.7476  151.1549 H   0  0  0  0  0  0  0  0  0  0  0  0  # atno 10718 bound_to 10713
  154.1512  135.2815  155.3135 H   0  0  0  0  0  0  0  0  0  0  0  0  # atno 10763 bound_to 10752
  154.6216  135.5465  153.7584 H   0  0  0  0  0  0  0  0  0  0  0  0  # atno 10764 bound_to 10752
  153.0220  135.6440  154.1656 H   0  0  0  0  0  0  0  0  0  0  0  0  # atno 10765 bound_to 10752
  140.4692  134.1049  155.7729 H   0  0  0  0  0  0  0  0  0  0  0  0  # atno 11005 bound_to 11000
  146.1668  140.6705  142.9251 LP  0  0  0  0  0  0  0  0  0  0  0  0  # atno 17320 bound_to 7965
  144.7364  140.4821  143.6900 LP  0  0  0  0  0  0  0  0  0  0  0  0  # atno 17321 bound_to 7965
  140.0841  144.5675  150.7101 LP  0  0  0  0  0  0  0  0  0  0  0  0  # atno 17342 bound_to 10162
  140.7149  143.2536  151.4465 LP  0  0  0  0  0  0  0  0  0  0  0  0  # atno 17343 bound_to 10162
  157.7388  131.0536  150.5270 LP  0  0  0  0  0  0  0  0  0  0  0  0  # atno 17370 bound_to 10713
  156.5408  130.4207  149.6155 LP  0  0  0  0  0  0  0  0  0  0  0  0  # atno 17371 bound_to 10713
  141.1585  133.8837  157.1912 LP  0  0  0  0  0  0  0  0  0  0  0  0  # atno 17394 bound_to 11000
  139.9896  135.0069  156.9944 LP  0  0  0  0  0  0  0  0  0  0  0  0  # atno 17395 bound_to 11000

$$$$
