AV-unprocessed.smi:1889|AV-procd|sdf|7661|dock10
  -GOLD-   22720 9393D 1   1.00000     0.00000
 Structure written by MMmdl.
 35 36  0  0  0  0  0  0  0  0  2 V2000
  153.6988  136.6592  163.3422 C   0  0  0  0  0  0  0  0  0  0  0  0
  152.7508  137.2916  162.3174 C   0  0  0  0  0  0  0  0  0  0  0  0
  153.3324  137.2879  160.8965 C   0  0  0  0  0  0  0  0  0  0  0  0
  152.3100  137.6066  159.8572 C   0  0  0  0  0  0  0  0  0  0  0  0
  151.1582  136.9399  159.7440 N   0  0  0  0  0  0  0  0  0  0  0  0
  150.3875  137.4032  158.6875 N   0  0  0  0  0  0  0  0  0  0  0  0
  150.9685  138.4051  158.0125 C   0  0  0  0  0  0  0  0  0  0  0  0
  150.3906  138.9892  156.9499 N   0  5  0  0  0  0  0  0  0  0  0  0
  150.8227  140.1987  156.5259 C   0  0  0  0  0  0  0  0  0  0  0  0
  151.1042  140.5071  155.3655 O   0  0  0  0  0  0  0  0  0  0  0  0
  150.9270  141.1078  157.5062 N   0  0  0  0  0  0  0  0  0  0  0  0
  151.3522  142.4970  157.3568 C   0  0  0  0  0  0  0  0  0  0  0  0
  151.2385  143.2781  158.6798 C   0  0  2  0  0  0  0  0  0  0  0  0
  151.7045  144.7204  158.6240 C   0  0  0  0  0  0  0  0  0  0  0  0
  151.9334  145.0400  160.0984 C   0  0  0  0  0  0  0  0  0  0  0  0
  152.2895  143.8068  160.7180 O   0  0  0  0  0  0  0  0  0  0  0  0
  152.1297  142.7339  159.7950 C   0  0  0  0  0  0  0  0  0  0  0  0
  152.5567  138.8466  158.6391 S   0  0  0  0  0  0  0  0  0  0  0  0
  153.2594  136.6769  164.3397 H   0  0  0  0  0  0  0  0  0  0  0  0
  154.6463  137.1970  163.3860 H   0  0  0  0  0  0  0  0  0  0  0  0
  153.9132  135.6200  163.0913 H   0  0  0  0  0  0  0  0  0  0  0  0
  151.8032  136.7516  162.3247 H   0  0  0  0  0  0  0  0  0  0  0  0
  152.5261  138.3155  162.6182 H   0  0  0  0  0  0  0  0  0  0  0  0
  154.1456  138.0111  160.8217 H   0  0  0  0  0  0  0  0  0  0  0  0
  153.7617  136.3115  160.6704 H   0  0  0  0  0  0  0  0  0  0  0  0
  150.6858  140.8061  158.4391 H   0  0  0  0  0  0  0  0  0  0  0  0
  152.3925  142.4876  157.0311 H   0  0  0  0  0  0  0  0  0  0  0  0
  150.7918  142.9944  156.5634 H   0  0  0  0  0  0  0  0  0  0  0  0
  150.2029  143.2591  159.0240 H   0  0  0  0  0  0  0  0  0  0  0  0
  152.6453  144.7944  158.0764 H   0  0  0  0  0  0  0  0  0  0  0  0
  150.9829  145.3888  158.1531 H   0  0  0  0  0  0  0  0  0  0  0  0
  152.7057  145.7958  160.2433 H   0  0  0  0  0  0  0  0  0  0  0  0
  151.0130  145.4043  160.5567 H   0  0  0  0  0  0  0  0  0  0  0  0
  151.7052  141.8535  160.2780 H   0  0  0  0  0  0  0  0  0  0  0  0
  153.1132  142.4650  159.4070 H   0  0  0  0  0  0  0  0  0  0  0  0
  1  2  1  0  0  0  0
  1 19  1  0  0  0  0
  1 20  1  0  0  0  0
  1 21  1  0  0  0  0
  2  3  1  0  0  0  0
  2 22  1  0  0  0  0
  2 23  1  0  0  0  0
  3  4  1  0  0  0  0
  3 24  1  0  0  0  0
  3 25  1  0  0  0  0
  4 18  1  0  0  0  0
  4  5  2  0  0  0  0
  5  6  1  0  0  0  0
  6  7  2  0  0  0  0
  7  8  1  0  0  0  0
  7 18  1  0  0  0  0
  8  9  1  0  0  0  0
  9 10  2  0  0  0  0
  9 11  1  0  0  0  0
 11 12  1  0  0  0  0
 11 26  1  0  0  0  0
 12 13  1  0  0  0  0
 12 27  1  0  0  0  0
 12 28  1  0  0  0  0
 13 17  1  0  0  0  0
 13 14  1  0  0  0  0
 13 29  1  0  0  0  0
 14 15  1  0  0  0  0
 14 30  1  0  0  0  0
 14 31  1  0  0  0  0
 15 16  1  0  0  0  0
 15 32  1  0  0  0  0
 15 33  1  0  0  0  0
 16 17  1  0  0  0  0
 17 34  1  0  0  0  0
 17 35  1  0  0  0  0
M  CHG  1   8  -1
M  END
> <s_m_source_file>
AV-unprocessed.smi

> <i_m_source_file_index>
1889

> <i_lp_mmshare_version>
43012

> <i_f3d_flags>
0

> <s_epik_input>
W0NIM11bQ0gyXVtDSDJdYzFubmMoczEpW05IXUMoPU8pW05IXVtDSDJdW0NAQEhdMltDSDJdW0NIMl1PW0NIMl0y

> <s_epik_cmdline>
J2VwaWtfcHl0aG9uJywgJy1waCcsICc3LjAnLCAnLXRuJywgJzgnLCAnLW1hJywgJzIwMCcsICctbWV0YWxfYmluZGluZycsICctaW1hZScsICc8aW5maWxlLm1hZT4nLCAnLW9tYWUnLCAnPG91dGZpbGUubWFlPic=

> <r_lp_tautomer_probability>
1

> <r_epik_Ionization_Penalty>
4.29669

> <r_epik_Ionization_Penalty_Charging>
4.28522

> <r_epik_Ionization_Penalty_Neutral>
0.0114689

> <r_epik_State_Penalty>
4.28479

> <r_epik_Charging_Adjusted_Penalty>
8.57002

> <i_epik_Tot_Q>
-1

> <i_epik_Tot_abs_Q>
1

> <r_epik_Metal_State_Penalty>
0.72177

> <b_epik_Metal_Only>
1

> <s_lp_Force_Field>
OPLS_2005

> <r_lp_Energy>
11.5011

> <b_lp_Chiralities_Consistent>
1

> <s_lp_Variant>
AV-unprocessed.smi:1889-3

> <Gold.Version>
5.8.1

> <Gold.Id.Protein>
6NUR|6NUR_protein|mol2

> <Gold.PLP.Fitness>
38.0902

> <Gold.PLP.PLP>
-33.4415

> <Gold.PLP.part.hbond>
-2.0000

> <Gold.PLP.part.metal>
0.0000

> <Gold.PLP.part.buried>
-6.0975

> <Gold.PLP.part.nonpolar>
-25.2463

> <Gold.PLP.part.repulsive>
0.1583

> <Gold.PLP.ligand.clash>
0.0003

> <Gold.PLP.ligand.torsion>
0.6128

> <Gold.PLP.Chemscore.Hbond>
1.9440

> <Gold.PLP.Chemscore.CHOScore>
0.0000

> <Gold.PLP.Chemscore.Metal>
0.0000

> <Gold.Chemscore.Hbonds>
donor molecule, donor type, donor heavy atom, donor atom, acceptor molecule, acceptor atom, score
      P1  H  6896  6907       L1     5  1.00
      P1  H  7989  7998       L1    10  0.93

> <Gold.PLP.Chemscore.Internal.Correction>
0.0425

> <Gold.Rescore>
     Score         DG    S(hbond)    S(metal)    S(lipo)     H(rot)  DE(clash)    DE(int)     intcor
     16.18     -17.92       1.90        0.00      86.83       1.59       0.21       1.53       ----

> <Gold.Chemscore.Fitness>
16.1808

> <Gold.Chemscore.DG>
-17.9164

> <Gold.Chemscore.ZeroCoef>
-5.4800

> <Gold.Chemscore.Hbond>
1.9022

> <Gold.Chemscore.Metal>
0.0000

> <Gold.Chemscore.Lipo>
86.8315

> <Gold.Chemscore.Internal_Hbond>
0.0000

> <Gold.Chemscore.DEClash>
0.2085

> <Gold.Chemscore.DEInternal>
1.5271

> <Gold.Chemscore.Rot>
1.5922

> <Gold.Chemscore.Internal.Correction>
   9.000000E+99

> <Gold.Chemscore.Hbonds>
donor molecule, donor type, donor heavy atom, donor atom, acceptor molecule, acceptor atom, score
      P1  H  6896  6907       L1     5  0.73
      P1  H  7989  7998       L1    10  0.89

> <Gold.Chemscore.Hbond.Weighted>
-6.3532

> <Gold.Chemscore.Metal.Weighted>
-0.0000

> <Gold.Chemscore.Lipo.Weighted>
-10.1593

> <Gold.Chemscore.Internal_Hbond.Weighted>
0.0000

> <Gold.Chemscore.DEClash.Weighted>
0.2085

> <Gold.Chemscore.DEInternal.Weighted>
1.5271

> <Gold.Chemscore.Rot.Weighted>
4.0761

> <Gold.Chemscore.Internal.Correction.Weighted>
   9.000000E+99

> <Gold.Protein.RotatedTorsions>
[ 6907 6896 6895 6894 ] final   -7.70 input  -60.11 | X-H torsion
[ 7974 7965 7964 7962 ] final -112.75 input  175.53 | X-H torsion
[ 8008 7997 7996 7995 ] final  106.71 input   59.86 | X-H torsion
[ 10167 10162 10161 10158 ] final   41.07 input  -65.29 | X-H torsion
[ 10718 10713 10712 10709 ] final   79.36 input   66.30 | X-H torsion
[ 10763 10752 10751 10750 ] final    1.76 input  -60.55 | X-H torsion
[ 11005 11000 10999 10996 ] final -107.79 input  -57.11 | X-H torsion

> <Gold.Protein.ActiveResidues>
 VAL166  LYS551  ARG553  GLY616  TRP617  ASP618  TYR619  PRO620  LYS621  CYS622 
 ASP623  PHE694  ASN695  SER759  ASP760  ASP761  ALA762  ILE779  LEU786  VAL792 
 PHE793  MET794  SER795  GLU796  ALA797  LYS798  CYS799  TRP800  GLU811  SER814 

> <Gold.Protein.RotatedAtoms>
  151.4454  135.1024  159.9681 H   0  0  0  0  0  0  0  0  0  0  0  0  # atno 6907 bound_to 6896
  152.4907  133.8490  159.7202 H   0  0  0  0  0  0  0  0  0  0  0  0  # atno 6908 bound_to 6896
  150.9059  133.7000  159.2894 H   0  0  0  0  0  0  0  0  0  0  0  0  # atno 6909 bound_to 6896
  145.1403  140.8774  143.3706 H   0  0  0  0  0  0  0  0  0  0  0  0  # atno 7974 bound_to 7965
  156.1765  140.3108  155.9069 H   0  0  0  0  0  0  0  0  0  0  0  0  # atno 8008 bound_to 7997
  155.3476  140.0469  157.3063 H   0  0  0  0  0  0  0  0  0  0  0  0  # atno 8009 bound_to 7997
  154.5296  140.2226  155.8838 H   0  0  0  0  0  0  0  0  0  0  0  0  # atno 8010 bound_to 7997
  140.3680  144.2142  150.6134 H   0  0  0  0  0  0  0  0  0  0  0  0  # atno 10167 bound_to 10162
  157.6774  130.9911  150.1922 H   0  0  0  0  0  0  0  0  0  0  0  0  # atno 10718 bound_to 10713
  153.3040  135.6958  153.7176 H   0  0  0  0  0  0  0  0  0  0  0  0  # atno 10763 bound_to 10752
  153.6079  135.3450  155.2969 H   0  0  0  0  0  0  0  0  0  0  0  0  # atno 10764 bound_to 10752
  154.8558  135.4356  154.2160 H   0  0  0  0  0  0  0  0  0  0  0  0  # atno 10765 bound_to 10752
  141.0936  133.9012  157.2018 H   0  0  0  0  0  0  0  0  0  0  0  0  # atno 11005 bound_to 11000
  145.0540  139.3159  143.5914 LP  0  0  0  0  0  0  0  0  0  0  0  0  # atno 17320 bound_to 7965
  146.3506  139.9958  142.8681 LP  0  0  0  0  0  0  0  0  0  0  0  0  # atno 17321 bound_to 7965
  140.5062  143.2303  151.8605 LP  0  0  0  0  0  0  0  0  0  0  0  0  # atno 17342 bound_to 10162
  139.4807  144.5003  151.9069 LP  0  0  0  0  0  0  0  0  0  0  0  0  # atno 17343 bound_to 10162
  156.2631  130.3713  149.8110 LP  0  0  0  0  0  0  0  0  0  0  0  0  # atno 17370 bound_to 10713
  156.5849  130.8481  151.3393 LP  0  0  0  0  0  0  0  0  0  0  0  0  # atno 17371 bound_to 10713
  139.9767  135.0111  156.9648 LP  0  0  0  0  0  0  0  0  0  0  0  0  # atno 17394 bound_to 11000
  140.5194  134.0922  155.7288 LP  0  0  0  0  0  0  0  0  0  0  0  0  # atno 17395 bound_to 11000

$$$$
