AV-unprocessed.smi:297|AV-procd|sdf|2259|dock4
  -GOLD-   2262022143D 1   1.00000     0.00000
 Structure written by MMmdl.
 29 30  0  0  0  0  0  0  0  0  1 V2000
  155.2115  138.8224  160.5380 N   0  0  0  0  0  0  0  0  0  0  0  0
  154.4449  139.5617  160.0851 C   0  0  0  0  0  0  0  0  0  0  0  0
  153.4811  140.4914  159.5164 C   0  0  0  0  0  0  0  0  0  0  0  0
  153.0006  140.1886  158.2899 N   0  0  0  0  0  0  0  0  0  0  0  0
  152.0973  141.0185  157.7165 C   0  0  0  0  0  0  0  0  0  0  0  0
  151.6026  140.6897  156.4467 N   0  0  0  0  0  0  0  0  0  0  0  0
  151.8740  139.3132  156.0542 C   0  0  0  0  0  0  0  0  0  0  0  0
  151.4083  139.0810  154.6080 C   0  0  0  0  0  0  0  0  0  0  0  0
  150.0271  139.4104  154.4950 O   0  0  0  0  0  0  0  0  0  0  0  0
  149.7631  140.7802  154.8063 C   0  0  1  0  0  0  0  0  0  0  0  0
  148.2697  141.0647  154.5875 C   0  0  0  0  0  0  0  0  0  0  0  0
  147.8377  142.3053  154.8320 N   0  0  0  0  0  0  0  0  0  0  0  0
  147.5052  140.1748  154.2187 O   0  0  0  0  0  0  0  0  0  0  0  0
  150.2047  141.0602  156.2608 C   0  0  0  0  0  0  0  0  0  0  0  0
  151.6369  142.1906  158.3490 C   0  0  0  0  0  0  0  0  0  0  0  0
  152.1375  142.5089  159.6249 C   0  0  0  0  0  0  0  0  0  0  0  0
  153.0768  141.6489  160.2266 C   0  0  0  0  0  0  0  0  0  0  0  0
  153.6953  142.0342  161.7966 Cl  0  0  0  0  0  0  0  0  0  0  0  0
  152.9414  139.1074  156.1422 H   0  0  0  0  0  0  0  0  0  0  0  0
  151.3549  138.6264  156.7244 H   0  0  0  0  0  0  0  0  0  0  0  0
  151.9949  139.6781  153.9080 H   0  0  0  0  0  0  0  0  0  0  0  0
  151.5481  138.0360  154.3315 H   0  0  0  0  0  0  0  0  0  0  0  0
  150.3235  141.4174  154.1198 H   0  0  0  0  0  0  0  0  0  0  0  0
  146.8614  142.5299  154.7052 H   0  0  0  0  0  0  0  0  0  0  0  0
  148.4875  143.0106  155.1475 H   0  0  0  0  0  0  0  0  0  0  0  0
  149.5803  140.4976  156.9571 H   0  0  0  0  0  0  0  0  0  0  0  0
  150.0798  142.1180  156.4975 H   0  0  0  0  0  0  0  0  0  0  0  0
  150.9144  142.8340  157.8681 H   0  0  0  0  0  0  0  0  0  0  0  0
  151.8042  143.4010  160.1346 H   0  0  0  0  0  0  0  0  0  0  0  0
  1  2  3  0  0  0  0
  2  3  1  0  0  0  0
  3 17  1  0  0  0  0
  3  4  2  0  0  0  0
  4  5  1  0  0  0  0
  5  6  1  0  0  0  0
  5 15  2  0  0  0  0
  6 14  1  0  0  0  0
  6  7  1  0  0  0  0
  7  8  1  0  0  0  0
  7 19  1  0  0  0  0
  7 20  1  0  0  0  0
  8  9  1  0  0  0  0
  8 21  1  0  0  0  0
  8 22  1  0  0  0  0
  9 10  1  0  0  0  0
 10 11  1  0  0  0  0
 10 14  1  0  0  0  0
 10 23  1  0  0  0  0
 11 12  1  0  0  0  0
 11 13  2  0  0  0  0
 12 24  1  0  0  0  0
 12 25  1  0  0  0  0
 14 26  1  0  0  0  0
 14 27  1  0  0  0  0
 15 16  1  0  0  0  0
 15 28  1  0  0  0  0
 16 17  2  0  0  0  0
 16 29  1  0  0  0  0
 17 18  1  0  0  0  0
M  END
> <s_m_source_file>
AV-unprocessed.smi

> <i_m_source_file_index>
297

> <i_lp_mmshare_version>
43012

> <i_f3d_flags>
0

> <s_epik_input>
TiNDYzFuYyhbY0hdW2NIXWMxQ2wpTjJbQ0gyXVtDSDJdT1tDQEhdKFtDSDJdMilDKD1PKVtOSDJd

> <s_epik_cmdline>
J2VwaWtfcHl0aG9uJywgJy1waCcsICc3LjAnLCAnLXRuJywgJzgnLCAnLW1hJywgJzIwMCcsICctbWV0YWxfYmluZGluZycsICctaW1hZScsICc8aW5maWxlLm1hZT4nLCAnLW9tYWUnLCAnPG91dGZpbGUubWFlPic=

> <r_lp_tautomer_probability>
1

> <r_epik_Ionization_Penalty>
8.82403e-08

> <r_epik_Ionization_Penalty_Charging>
0

> <r_epik_Ionization_Penalty_Neutral>
8.82403e-08

> <r_epik_State_Penalty>
-0

> <r_epik_Charging_Adjusted_Penalty>
0

> <i_epik_Tot_Q>
0

> <i_epik_Tot_abs_Q>
0

> <r_epik_Metal_State_Penalty>
-0

> <b_epik_Metal_Only>
0

> <s_lp_Force_Field>
OPLS_2005

> <r_lp_Energy>
18.8034

> <b_lp_Chiralities_Consistent>
1

> <s_lp_Variant>
AV-unprocessed.smi:297-1

> <Gold.Version>
5.8.1

> <Gold.Id.Protein>
6NUR|6NUR_protein|mol2

> <Gold.PLP.Fitness>
38.0592

> <Gold.PLP.PLP>
-33.2061

> <Gold.PLP.part.hbond>
-2.0000

> <Gold.PLP.part.metal>
0.0000

> <Gold.PLP.part.buried>
-2.1313

> <Gold.PLP.part.nonpolar>
-27.3400

> <Gold.PLP.part.repulsive>
0.4011

> <Gold.PLP.ligand.clash>
0.0000

> <Gold.PLP.ligand.torsion>
0.5406

> <Gold.PLP.Chemscore.Hbond>
1.9436

> <Gold.PLP.Chemscore.CHOScore>
0.0000

> <Gold.PLP.Chemscore.Metal>
0.0000

> <Gold.Chemscore.Hbonds>
donor molecule, donor type, donor heavy atom, donor atom, acceptor molecule, acceptor atom, score
      L1  H    12    25       P1  8028  1.00
      P1  H  7997  8008       L1     4  0.98

> <Gold.PLP.Chemscore.Internal.Correction>
0.1034

> <Gold.Rescore>
     Score         DG    S(hbond)    S(metal)    S(lipo)     H(rot)  DE(clash)    DE(int)     intcor
     14.87     -15.54       1.52        0.00      75.54       1.50       0.02       0.65       ----

> <Gold.Chemscore.Fitness>
14.8682

> <Gold.Chemscore.DG>
-15.5431

> <Gold.Chemscore.ZeroCoef>
-5.4800

> <Gold.Chemscore.Hbond>
1.5169

> <Gold.Chemscore.Metal>
0.0000

> <Gold.Chemscore.Lipo>
75.5418

> <Gold.Chemscore.Internal_Hbond>
0.0000

> <Gold.Chemscore.DEClash>
0.0208

> <Gold.Chemscore.DEInternal>
0.6541

> <Gold.Chemscore.Rot>
1.5006

> <Gold.Chemscore.Internal.Correction>
   9.000000E+99

> <Gold.Chemscore.Hbonds>
donor molecule, donor type, donor heavy atom, donor atom, acceptor molecule, acceptor atom, score
      L1  H    12    25       P1  8028  0.94
      P1  H  7997  8008       L1     4  0.34

> <Gold.Chemscore.Hbond.Weighted>
-5.0664

> <Gold.Chemscore.Metal.Weighted>
-0.0000

> <Gold.Chemscore.Lipo.Weighted>
-8.8384

> <Gold.Chemscore.Internal_Hbond.Weighted>
0.0000

> <Gold.Chemscore.DEClash.Weighted>
0.0208

> <Gold.Chemscore.DEInternal.Weighted>
0.6541

> <Gold.Chemscore.Rot.Weighted>
3.8416

> <Gold.Chemscore.Internal.Correction.Weighted>
   9.000000E+99

> <Gold.Protein.RotatedTorsions>
[ 6907 6896 6895 6894 ] final  153.63 input  -60.11 | X-H torsion
[ 7974 7965 7964 7962 ] final  -12.47 input  175.53 | X-H torsion
[ 8008 7997 7996 7995 ] final  -84.95 input   59.86 | X-H torsion
[ 10167 10162 10161 10158 ] final  161.37 input  -65.29 | X-H torsion
[ 10718 10713 10712 10709 ] final -103.00 input   66.30 | X-H torsion
[ 10763 10752 10751 10750 ] final  122.57 input  -60.55 | X-H torsion
[ 11005 11000 10999 10996 ] final -144.56 input  -57.11 | X-H torsion

> <Gold.Protein.ActiveResidues>
 VAL166  LYS551  ARG553  GLY616  TRP617  ASP618  TYR619  PRO620  LYS621  CYS622 
 ASP623  PHE694  ASN695  SER759  ASP760  ASP761  ALA762  ILE779  LEU786  VAL792 
 PHE793  MET794  SER795  GLU796  ALA797  LYS798  CYS799  TRP800  GLU811  SER814 

> <Gold.Protein.RotatedAtoms>
  152.0699  133.4102  159.4454 H   0  0  0  0  0  0  0  0  0  0  0  0  # atno 6907 bound_to 6896
  150.6864  134.3103  159.4753 H   0  0  0  0  0  0  0  0  0  0  0  0  # atno 6908 bound_to 6896
  152.0934  134.9391  160.0622 H   0  0  0  0  0  0  0  0  0  0  0  0  # atno 6909 bound_to 6896
  146.2151  140.3062  142.8379 H   0  0  0  0  0  0  0  0  0  0  0  0  # atno 7974 bound_to 7965
  154.6353  140.0598  156.9782 H   0  0  0  0  0  0  0  0  0  0  0  0  # atno 8008 bound_to 7997
  155.1601  140.3282  155.4395 H   0  0  0  0  0  0  0  0  0  0  0  0  # atno 8009 bound_to 7997
  156.2504  140.1932  156.6708 H   0  0  0  0  0  0  0  0  0  0  0  0  # atno 8010 bound_to 7997
  139.4848  144.4543  151.8789 H   0  0  0  0  0  0  0  0  0  0  0  0  # atno 10167 bound_to 10162
  156.0249  130.5446  150.7189 H   0  0  0  0  0  0  0  0  0  0  0  0  # atno 10718 bound_to 10713
  153.6319  135.3394  155.3044 H   0  0  0  0  0  0  0  0  0  0  0  0  # atno 10763 bound_to 10752
  154.8578  135.4297  154.2097 H   0  0  0  0  0  0  0  0  0  0  0  0  # atno 10764 bound_to 10752
  153.2995  135.7023  153.7290 H   0  0  0  0  0  0  0  0  0  0  0  0  # atno 10765 bound_to 10752
  140.8012  134.2855  157.4978 H   0  0  0  0  0  0  0  0  0  0  0  0  # atno 11005 bound_to 11000
  144.9021  140.7656  143.5860 LP  0  0  0  0  0  0  0  0  0  0  0  0  # atno 17320 bound_to 7965
  145.2988  139.1857  143.4701 LP  0  0  0  0  0  0  0  0  0  0  0  0  # atno 17321 bound_to 7965
  140.4002  144.2503  150.5893 LP  0  0  0  0  0  0  0  0  0  0  0  0  # atno 17342 bound_to 10162
  140.5064  143.2303  151.8601 LP  0  0  0  0  0  0  0  0  0  0  0  0  # atno 17343 bound_to 10162
  157.4809  131.0902  151.0537 LP  0  0  0  0  0  0  0  0  0  0  0  0  # atno 17370 bound_to 10713
  157.0970  130.5966  149.5452 LP  0  0  0  0  0  0  0  0  0  0  0  0  # atno 17371 bound_to 10713
  139.8721  134.9430  156.3841 LP  0  0  0  0  0  0  0  0  0  0  0  0  # atno 17394 bound_to 11000
  140.9293  133.7590  156.0004 LP  0  0  0  0  0  0  0  0  0  0  0  0  # atno 17395 bound_to 11000

$$$$
