AV-unprocessed.smi:1|AV-procd|sdf|1|dock7
  -GOLD-   2262015 83D 1   1.00000     0.00000
 Structure written by MMmdl.
 57 62  0  0  0  0  0  0  0  0  1 V2000
  153.5284  140.2113  158.7076 O   0  0  0  0  0  0  0  0  0  0  0  0
  152.6510  140.9894  158.3324 C   0  0  0  0  0  0  0  0  0  0  0  0
  151.8980  140.7733  157.1092 N   0  0  0  0  0  0  0  0  0  0  0  0
  151.9517  139.7123  156.2702 C   0  0  0  0  0  0  0  0  0  0  0  0
  153.0527  139.4253  155.5269 N   0  0  0  0  0  0  0  0  0  0  0  0
  153.0580  138.3641  154.7154 C   0  0  0  0  0  0  0  0  0  0  0  0
  152.0879  137.4735  154.5026 N   0  0  0  0  0  0  0  0  0  0  0  0
  150.9781  137.7521  155.2454 C   0  0  0  0  0  0  0  0  0  0  0  0
  150.8350  138.8451  156.1455 C   0  0  0  0  0  0  0  0  0  0  0  0
  149.5736  138.8150  156.7250 N   0  0  0  0  0  0  0  0  0  0  0  0
  149.0053  137.7681  156.1903 C   0  0  0  0  0  0  0  0  0  0  0  0
  149.7762  137.0720  155.2859 N   0  0  0  0  0  0  0  0  0  0  0  0
  149.3864  135.8469  154.5177 C   0  0  2  0  0  0  0  0  0  0  0  0
  148.0165  135.6255  154.6713 O   0  0  0  0  0  0  0  0  0  0  0  0
  147.7754  134.3389  155.2329 C   0  0  1  0  0  0  0  0  0  0  0  0
  146.4823  133.7319  154.6734 C   0  0  0  0  0  0  0  0  0  0  0  0
  146.7816  132.5955  153.8772 O   0  0  0  0  0  0  0  0  0  0  0  0
  146.9453  131.3886  154.4516 C   0  0  0  0  0  0  0  0  0  0  0  0
  146.9872  131.2129  155.6709 O   0  0  0  0  0  0  0  0  0  0  0  0
  147.0764  130.2865  153.4553 C   0  0  0  0  0  0  0  0  0  0  0  0
  148.0773  129.3035  153.6367 C   0  0  0  0  0  0  0  0  0  0  0  0
  148.2251  128.2511  152.7124 C   0  0  0  0  0  0  0  0  0  0  0  0
  147.3724  128.1674  151.5964 C   0  0  0  0  0  0  0  0  0  0  0  0
  146.3725  129.1387  151.4049 C   0  0  0  0  0  0  0  0  0  0  0  0
  146.2241  130.1930  152.3271 C   0  0  0  0  0  0  0  0  0  0  0  0
  149.0445  133.5181  154.9804 C   0  0  2  0  0  0  0  0  0  0  0  0
  149.3011  132.6021  156.0317 O   0  0  0  0  0  0  0  0  0  0  0  0
  150.2929  133.3376  157.1593 S   0  0  0  0  0  0  0  0  0  0  0  0
  149.4771  133.7013  158.3278 O   0  0  0  0  0  0  0  0  0  0  0  0
  151.5269  132.5453  157.2704 O   0  0  0  0  0  0  0  0  0  0  0  0
  150.6404  134.7317  156.3101 O   0  0  0  0  0  0  0  0  0  0  0  0
  150.1367  134.5911  154.9917 C   0  0  2  0  0  0  0  0  0  0  0  0
  152.3609  142.2653  159.0680 C   0  0  0  0  0  0  0  0  0  0  0  0
  152.5347  142.3289  160.4690 C   0  0  0  0  0  0  0  0  0  0  0  0
  152.2486  143.5167  161.1699 C   0  0  0  0  0  0  0  0  0  0  0  0
  151.7796  144.6486  160.4773 C   0  0  0  0  0  0  0  0  0  0  0  0
  151.5923  144.5907  159.0834 C   0  0  0  0  0  0  0  0  0  0  0  0
  151.8781  143.4036  158.3811 C   0  0  0  0  0  0  0  0  0  0  0  0
  151.2417  141.4992  156.8614 H   0  0  0  0  0  0  0  0  0  0  0  0
  153.9691  138.2061  154.1576 H   0  0  0  0  0  0  0  0  0  0  0  0
  147.9959  137.4753  156.4399 H   0  0  0  0  0  0  0  0  0  0  0  0
  149.5908  136.0927  153.4750 H   0  0  0  0  0  0  0  0  0  0  0  0
  147.6521  134.4812  156.3063 H   0  0  0  0  0  0  0  0  0  0  0  0
  145.8293  133.4450  155.4990 H   0  0  0  0  0  0  0  0  0  0  0  0
  145.9471  134.4694  154.0739 H   0  0  0  0  0  0  0  0  0  0  0  0
  148.7439  129.3468  154.4860 H   0  0  0  0  0  0  0  0  0  0  0  0
  148.9942  127.5074  152.8603 H   0  0  0  0  0  0  0  0  0  0  0  0
  147.4854  127.3597  150.8883 H   0  0  0  0  0  0  0  0  0  0  0  0
  145.7173  129.0745  150.5485 H   0  0  0  0  0  0  0  0  0  0  0  0
  145.4457  130.9208  152.1505 H   0  0  0  0  0  0  0  0  0  0  0  0
  149.0211  133.0145  154.0136 H   0  0  0  0  0  0  0  0  0  0  0  0
  150.9590  134.3603  154.3141 H   0  0  0  0  0  0  0  0  0  0  0  0
  152.8927  141.4683  161.0157 H   0  0  0  0  0  0  0  0  0  0  0  0
  152.3885  143.5583  162.2399 H   0  0  0  0  0  0  0  0  0  0  0  0
  151.5592  145.5590  161.0150 H   0  0  0  0  0  0  0  0  0  0  0  0
  151.2257  145.4565  158.5522 H   0  0  0  0  0  0  0  0  0  0  0  0
  151.7178  143.3782  157.3129 H   0  0  0  0  0  0  0  0  0  0  0  0
  1  2  2  0  0  0  0
  2  3  1  0  0  0  0
  2 33  1  0  0  0  0
  3  4  1  0  0  0  0
  3 39  1  0  0  0  0
  4  9  1  0  0  0  0
  4  5  2  0  0  0  0
  5  6  1  0  0  0  0
  6  7  2  0  0  0  0
  6 40  1  0  0  0  0
  7  8  1  0  0  0  0
  8 12  1  0  0  0  0
  8  9  2  0  0  0  0
  9 10  1  0  0  0  0
 10 11  2  0  0  0  0
 11 12  1  0  0  0  0
 11 41  1  0  0  0  0
 12 13  1  0  0  0  0
 13 32  1  0  0  0  0
 13 14  1  0  0  0  0
 13 42  1  0  0  0  0
 14 15  1  0  0  0  0
 15 16  1  0  0  0  0
 15 26  1  0  0  0  0
 15 43  1  0  0  0  0
 16 17  1  0  0  0  0
 16 44  1  0  0  0  0
 16 45  1  0  0  0  0
 17 18  1  0  0  0  0
 18 19  2  0  0  0  0
 18 20  1  0  0  0  0
 20 25  1  0  0  0  0
 20 21  2  0  0  0  0
 21 22  1  0  0  0  0
 21 46  1  0  0  0  0
 22 23  2  0  0  0  0
 22 47  1  0  0  0  0
 23 24  1  0  0  0  0
 23 48  1  0  0  0  0
 24 25  2  0  0  0  0
 24 49  1  0  0  0  0
 25 50  1  0  0  0  0
 26 32  1  0  0  0  0
 26 27  1  0  0  0  0
 26 51  1  0  0  0  0
 27 28  1  0  0  0  0
 28 29  2  0  0  0  0
 28 30  2  0  0  0  0
 28 31  1  0  0  0  0
 31 32  1  0  0  0  0
 32 52  1  0  0  0  0
 33 38  1  0  0  0  0
 33 34  2  0  0  0  0
 34 35  1  0  0  0  0
 34 53  1  0  0  0  0
 35 36  2  0  0  0  0
 35 54  1  0  0  0  0
 36 37  1  0  0  0  0
 36 55  1  0  0  0  0
 37 38  2  0  0  0  0
 37 56  1  0  0  0  0
 38 57  1  0  0  0  0
M  END
> <s_m_source_file>
AV-unprocessed.smi

> <i_m_source_file_index>
1

> <i_lp_mmshare_version>
43012

> <i_f3d_flags>
0

> <s_epik_input>
W2NIXTFbY0hdW2NIXVtjSF1bY0hdYzFDKD1PKVtOSF1jKG5bY0hdbjIpYyhjMjMpbltjSF1uM1tDQEBIXShbQ0BIXShbQ0BIXTQ1KU9TKE81KSg9Tyk9TylPW0NASF00W0NIMl1PQyg9TyljNltjSF1bY0hdW2NIXVtjSF1bY0hdNg==

> <s_epik_cmdline>
J2VwaWtfcHl0aG9uJywgJy1waCcsICc3LjAnLCAnLXRuJywgJzgnLCAnLW1hJywgJzIwMCcsICctbWV0YWxfYmluZGluZycsICctaW1hZScsICc8aW5maWxlLm1hZT4nLCAnLW9tYWUnLCAnPG91dGZpbGUubWFlPic=

> <r_lp_tautomer_probability>
1

> <r_epik_Ionization_Penalty>
0.00195722

> <r_epik_Ionization_Penalty_Charging>
0

> <r_epik_Ionization_Penalty_Neutral>
0.00195722

> <r_epik_State_Penalty>
0.00633741

> <r_epik_Charging_Adjusted_Penalty>
0.00633741

> <i_epik_Tot_Q>
0

> <i_epik_Tot_abs_Q>
0

> <r_epik_Metal_State_Penalty>
0.341185

> <b_epik_Metal_Only>
0

> <s_epik_Chemistry_Notes>
This compound has an ester and may undergo hydrolysis at high or low pH. This compound contains an acetal/aminal-like group ( X-CH(R)-Y where X, Y are N, S, or O) that may be acid/base labile, releasing an aldehyde.

> <s_lp_Force_Field>
OPLS_2005

> <r_lp_Energy>
46.2159

> <b_lp_Chiralities_Consistent>
1

> <s_lp_Variant>
AV-unprocessed.smi:1-1

> <Gold.Version>
5.8.1

> <Gold.Id.Protein>
6NUR|6NUR_protein|mol2

> <Gold.PLP.Fitness>
56.9444

> <Gold.PLP.PLP>
-54.3237

> <Gold.PLP.part.hbond>
-4.8534

> <Gold.PLP.part.metal>
0.0000

> <Gold.PLP.part.buried>
-3.2057

> <Gold.PLP.part.nonpolar>
-47.1163

> <Gold.PLP.part.repulsive>
1.2970

> <Gold.PLP.ligand.clash>
0.0000

> <Gold.PLP.ligand.torsion>
2.8411

> <Gold.PLP.Chemscore.Hbond>
2.7371

> <Gold.PLP.Chemscore.CHOScore>
0.0000

> <Gold.PLP.Chemscore.Metal>
0.0000

> <Gold.Chemscore.Hbonds>
donor molecule, donor type, donor heavy atom, donor atom, acceptor molecule, acceptor atom, score
      P1  H  6896  6907       L1    29  0.25
      P1  H  6896  6909       L1    30  0.22
      P1  H  7997  8008       L1     1  0.78
      P1  H  7997  8009       L1     5  0.64
      P1  H 10752 10763       L1     7  0.82

> <Gold.PLP.Chemscore.Internal.Correction>
0.0915

> <Gold.Rescore>
     Score         DG    S(hbond)    S(metal)    S(lipo)     H(rot)  DE(clash)    DE(int)     intcor
     16.99     -22.07       1.89        0.00     134.39       2.13       1.46       3.63       ----

> <Gold.Chemscore.Fitness>
16.9852

> <Gold.Chemscore.DG>
-22.0703

> <Gold.Chemscore.ZeroCoef>
-5.4800

> <Gold.Chemscore.Hbond>
1.8947

> <Gold.Chemscore.Metal>
0.0000

> <Gold.Chemscore.Lipo>
134.3869

> <Gold.Chemscore.Internal_Hbond>
0.0000

> <Gold.Chemscore.DEClash>
1.4561

> <Gold.Chemscore.DEInternal>
3.6290

> <Gold.Chemscore.Rot>
2.1333

> <Gold.Chemscore.Internal.Correction>
   9.000000E+99

> <Gold.Chemscore.Hbonds>
donor molecule, donor type, donor heavy atom, donor atom, acceptor molecule, acceptor atom, score
      P1  H  6896  6907       L1    29  0.13
      P1  H  7997  8008       L1     1  0.54
      P1  H  7997  8009       L1     5  0.55
      P1  H 10752 10763       L1     7  0.47

> <Gold.Chemscore.Hbond.Weighted>
-6.3284

> <Gold.Chemscore.Metal.Weighted>
-0.0000

> <Gold.Chemscore.Lipo.Weighted>
-15.7233

> <Gold.Chemscore.Internal_Hbond.Weighted>
0.0000

> <Gold.Chemscore.DEClash.Weighted>
1.4561

> <Gold.Chemscore.DEInternal.Weighted>
3.6290

> <Gold.Chemscore.Rot.Weighted>
5.4614

> <Gold.Chemscore.Internal.Correction.Weighted>
   9.000000E+99

> <Gold.Protein.RotatedTorsions>
[ 6907 6896 6895 6894 ] final  -60.04 input  -60.11 | X-H torsion
[ 7974 7965 7964 7962 ] final   57.30 input  175.53 | X-H torsion
[ 8008 7997 7996 7995 ] final -112.85 input   59.86 | X-H torsion
[ 10167 10162 10161 10158 ] final   37.88 input  -65.29 | X-H torsion
[ 10718 10713 10712 10709 ] final   95.18 input   66.30 | X-H torsion
[ 10763 10752 10751 10750 ] final   37.78 input  -60.55 | X-H torsion
[ 11005 11000 10999 10996 ] final   36.25 input  -57.11 | X-H torsion

> <Gold.Protein.ActiveResidues>
 VAL166  LYS551  ARG553  GLY616  TRP617  ASP618  TYR619  PRO620  LYS621  CYS622 
 ASP623  PHE694  ASN695  SER759  ASP760  ASP761  ALA762  ILE779  LEU786  VAL792 
 PHE793  MET794  SER795  GLU796  ALA797  LYS798  CYS799  TRP800  GLU811  SER814 

> <Gold.Protein.RotatedAtoms>
  150.7885  134.6889  159.6485 H   0  0  0  0  0  0  0  0  0  0  0  0  # atno 6907 bound_to 6896
  152.3986  134.6320  160.0088 H   0  0  0  0  0  0  0  0  0  0  0  0  # atno 6908 bound_to 6896
  151.6598  133.3280  159.3207 H   0  0  0  0  0  0  0  0  0  0  0  0  # atno 6909 bound_to 6896
  145.9306  139.3804  143.0423 H   0  0  0  0  0  0  0  0  0  0  0  0  # atno 7974 bound_to 7965
  155.0115  140.0393  157.2401 H   0  0  0  0  0  0  0  0  0  0  0  0  # atno 8008 bound_to 7997
  154.7456  140.2757  155.6313 H   0  0  0  0  0  0  0  0  0  0  0  0  # atno 8009 bound_to 7997
  156.2874  140.2657  156.2195 H   0  0  0  0  0  0  0  0  0  0  0  0  # atno 8010 bound_to 7997
  140.3990  144.1749  150.6133 H   0  0  0  0  0  0  0  0  0  0  0  0  # atno 10167 bound_to 10162
  157.6941  131.0537  150.4300 H   0  0  0  0  0  0  0  0  0  0  0  0  # atno 10718 bound_to 10713
  153.0024  135.6268  154.2200 H   0  0  0  0  0  0  0  0  0  0  0  0  # atno 10763 bound_to 10752
  154.1943  135.2807  155.3013 H   0  0  0  0  0  0  0  0  0  0  0  0  # atno 10764 bound_to 10752
  154.5734  135.5669  153.7176 H   0  0  0  0  0  0  0  0  0  0  0  0  # atno 10765 bound_to 10752
  140.2344  134.3488  155.7950 H   0  0  0  0  0  0  0  0  0  0  0  0  # atno 11005 bound_to 11000
  145.8431  140.9570  143.0789 LP  0  0  0  0  0  0  0  0  0  0  0  0  # atno 17320 bound_to 7965
  144.6764  140.0310  143.7482 LP  0  0  0  0  0  0  0  0  0  0  0  0  # atno 17321 bound_to 7965
  140.4760  143.2396  151.9023 LP  0  0  0  0  0  0  0  0  0  0  0  0  # atno 17342 bound_to 10162
  139.4785  144.5320  151.8653 LP  0  0  0  0  0  0  0  0  0  0  0  0  # atno 17343 bound_to 10162
  156.4667  130.4044  149.6543 LP  0  0  0  0  0  0  0  0  0  0  0  0  # atno 17370 bound_to 10713
  156.3638  130.7495  151.2470 LP  0  0  0  0  0  0  0  0  0  0  0  0  # atno 17371 bound_to 10713
  141.2215  133.7264  156.8785 LP  0  0  0  0  0  0  0  0  0  0  0  0  # atno 17394 bound_to 11000
  140.1717  134.9095  157.2841 LP  0  0  0  0  0  0  0  0  0  0  0  0  # atno 17395 bound_to 11000

$$$$
